Measured thermophysical data. Thermodynamic equilibrium in the system H2O+P2O5+CaCO3 at 25 and 70 deg C: Application for synthesis of calcium phosphate products based on calcium carbonate decomposition
Source: Fluid Phase Equilib., 2018, 10.1016/j.fluid.2017.10.005
Compound 1: diphosphorus pentaoxide, O5P2, InChI=1S/O5P2/c1-6(2)5-7(3)4, purity 99%
Compound 2: water, H2O, InChI=1S/H2O/h1H2, purity 99.8%
Compound 3: calcium monoxide, CaO, InChI=1S/Ca.O/q+2;-2

System: calcium monoxide + diphosphorus pentaoxide + water; phases: Liquid, Crystal of intercomponent compound 1
Fixed: Pressure, kPa = 100
Property: Mass fraction of calcium monoxide (Liquid); method: electrical conductivity
Temperature, K	Mass fraction of diphosphorus pentaoxide	Mass fraction of calcium monoxide	uncertainty
298.15	0.0212	0.0084	0.0084
298.15	0.0436	0.0149	0.0149
298.15	0.0613	0.02	0.02
343.15	0.0197	0.0027	0.0027
343.15	0.0534	0.0094	0.0094
343.15	0.1027	0.0188	0.0188

System: calcium monoxide + diphosphorus pentaoxide + water; phases: Liquid, Crystal of intercomponent compound 2
Fixed: Pressure, kPa = 100
Property: Mass fraction of calcium monoxide (Liquid); method: electrical conductivity
Temperature, K	Mass fraction of diphosphorus pentaoxide	Mass fraction of calcium monoxide	uncertainty
298.15	0.0613	0.02	0.02
298.15	0.1578	0.0394	0.0394
298.15	0.1688	0.0422	0.0422
298.15	0.2058	0.05	0.05
298.15	0.2317	0.0534	0.0534
298.15	0.2516	0.0588	0.0588
343.15	0.1027	0.0188	0.0188
343.15	0.1279	0.023	0.023
343.15	0.1531	0.028	0.028
343.15	0.1682	0.0302	0.0302
343.15	0.1826	0.036	0.036
343.15	0.2035	0.0389	0.0389
343.15	0.2216	0.0405	0.0405
343.15	0.2424	0.0441	0.0441
343.15	0.2539	0.0448	0.0448
343.15	0.2799	0.0492	0.0492
343.15	0.2996	0.0511	0.0511
343.15	0.3162	0.0533	0.0533
343.15	0.3354	0.0558	0.0558

System: calcium monoxide + diphosphorus pentaoxide + water; phases: Liquid, Crystal of intercomponent compound 3
Fixed: Pressure, kPa = 100
Property: Mass fraction of calcium monoxide (Liquid); method: electrical conductivity
Temperature, K	Mass fraction of diphosphorus pentaoxide	Mass fraction of calcium monoxide	uncertainty
298.15	0.2516	0.0588	0.0588
298.15	0.2639	0.0535	0.0535
298.15	0.2787	0.0509	0.0509
298.15	0.2958	0.0471	0.0471
298.15	0.3173	0.0423	0.0423
298.15	0.3435	0.0359	0.0359
298.15	0.381	0.028	0.028
298.15	0.4341	0.0169	0.0169
298.15	0.4593	0.0122	0.0122
298.15	0.5014	0.007	0.007
343.15	0.3354	0.0558	0.0558
343.15	0.3467	0.0541	0.0541
343.15	0.3563	0.0521	0.0521
343.15	0.3717	0.0468	0.0468
343.15	0.3994	0.04	0.04
343.15	0.419	0.0351	0.0351
343.15	0.4328	0.0325	0.0325
343.15	0.4471	0.0302	0.0302
343.15	0.4597	0.0269	0.0269
343.15	0.4783	0.0237	0.0237
343.15	0.4958	0.0199	0.0199
343.15	0.5097	0.0175	0.0175
343.15	0.5298	0.0149	0.0149
343.15	0.5425	0.0126	0.0126
343.15	0.5792	0.0074	0.0074
