Measured thermophysical data. Isobaric vapor-liquid equilibria for the binary systems isobutyl alcohol + isobutyl acetate and tert-butyl alcohol + tert-butyl acetate at 20 and 101.3 kPa
Source: Fluid Phase Equilib., 2005, 10.1016/j.fluid.2004.10.022
Compound 1: 2-methyl-1-propanol, C4H10O, InChI=1S/C4H10O/c1-4(2)3-5/h4-5H,3H2,1-2H3, purity 99.5%
Compound 2: 2-methylpropyl ethanoate, C6H12O2, InChI=1S/C6H12O2/c1-5(2)4-8-6(3)7/h5H,4H2,1-3H3, purity 99%
Compound 3: 2-methylpropan-2-ol, C4H10O, InChI=1S/C4H10O/c1-4(2,3)5/h5H,1-3H3, purity 99.5%
Compound 4: 1,1-dimethylethyl ethanoate, C6H12O2, InChI=1S/C6H12O2/c1-5(7)8-6(2,3)4/h1-4H3, purity 99.5%

System: 2-methyl-1-propanol; phases: Liquid
Property: Refractive index (Na D-line) (Liquid); method: Standard Abbe refractometry
Temperature, K	Pressure, kPa	Refractive index (Na D-line)	uncertainty
298.15	101.325	1.3937	0.0008

System: 2-methyl-1-propanol; phases: Liquid
Property: Mass density, kg/m3 (Liquid); method: VIBTUB:UFactor:4
Temperature, K	Pressure, kPa	Mass density, kg/m3	uncertainty
298.15	101.325	797.83	0.62

System: 2-methyl-1-propanol; phases: Liquid, Gas
Property: Vapor or sublimation pressure, kPa (Liquid); method: EBULLIO:UFactor:8
Temperature, K	Vapor or sublimation pressure, kPa	uncertainty
342.52	20	0.43
381.09	100	0.45

System: 2-methylpropyl ethanoate; phases: Liquid
Property: Refractive index (Na D-line) (Liquid); method: Standard Abbe refractometry
Temperature, K	Pressure, kPa	Refractive index (Na D-line)	uncertainty
298.15	101.325	1.3876	0.0007

System: 2-methylpropyl ethanoate; phases: Liquid
Property: Mass density, kg/m3 (Liquid); method: VIBTUB:UFactor:4
Temperature, K	Pressure, kPa	Mass density, kg/m3	uncertainty
293.15	101.325	866.12	0.62

System: 2-methylpropyl ethanoate; phases: Liquid, Gas
Property: Vapor or sublimation pressure, kPa (Liquid); method: EBULLIO:UFactor:8
Temperature, K	Vapor or sublimation pressure, kPa	uncertainty
307.43	3.99	0.1
315.56	5.99	0.1
322.93	8.48	0.12
328.64	10.98	0.14
335.75	14.98	0.15
341.55	18.96	0.18
342.95	20	0.2
346.88	23.44	0.21
351.45	27.95	0.24
355.75	32.86	0.27
359.66	37.89	0.29
363.22	42.93	0.32
366.39	47.84	0.35
368.76	51.85	0.38
371.61	57.06	0.4
374.55	62.82	0.43
376.93	67.79	0.46
379.15	72.78	0.48
381.03	77.2	0.52
383.63	83.72	0.55
385.84	89.68	0.57
387.69	94.78	0.59
389.16	98.95	0.52
389.9	100	0.64
391.39	105.57	0.77

System: 2-methylpropan-2-ol; phases: Liquid
Property: Refractive index (Na D-line) (Liquid); method: Standard Abbe refractometry
Temperature, K	Pressure, kPa	Refractive index (Na D-line)	uncertainty
298.15	101.325	1.3851	0.0007

System: 2-methylpropan-2-ol; phases: Liquid
Property: Mass density, kg/m3 (Liquid); method: VIBTUB:UFactor:4
Temperature, K	Pressure, kPa	Mass density, kg/m3	uncertainty
303.15	101.325	775.4	0.65

System: 2-methylpropan-2-ol; phases: Liquid, Gas
Property: Vapor or sublimation pressure, kPa (Liquid); method: EBULLIO:UFactor:8
Temperature, K	Vapor or sublimation pressure, kPa	uncertainty
300.93	6.93	0.13
304.86	8.76	0.14
309.12	11.16	0.15
313.25	14.03	0.17
315.48	15.81	0.2
320.17	20	0.24
320.75	20.63	0.24
325.05	25.76	0.27
328.35	30.37	0.32
331.45	35.33	0.36
334.15	40.21	0.4
336.65	45.17	0.43
338.85	49.98	0.47
341.05	55.12	0.5
342.95	59.92	0.54
344.85	65.12	0.57
346.45	69.66	0.61
348.15	74.84	0.64
349.75	79.98	0.68
351.25	85.09	0.71
352.65	90.08	0.75
353.95	94.97	0.78
355.15	99.63	0.67
355.59	100	0.8
355.65	101.33	0.81
356.55	105.13	0.87
357.65	109.82	0.88
358.85	115.07	0.94
359.83	119.91	1.01

System: 1,1-dimethylethyl ethanoate; phases: Liquid
Property: Refractive index (Na D-line) (Liquid); method: Standard Abbe refractometry
Temperature, K	Pressure, kPa	Refractive index (Na D-line)	uncertainty
298.15	101.325	1.384	0.0007

System: 1,1-dimethylethyl ethanoate; phases: Liquid
Property: Mass density, kg/m3 (Liquid); method: VIBTUB:UFactor:4
Temperature, K	Pressure, kPa	Mass density, kg/m3	uncertainty
298.15	101.325	860.53	0.62

System: 1,1-dimethylethyl ethanoate; phases: Liquid, Gas
Property: Vapor or sublimation pressure, kPa (Liquid); method: EBULLIO:UFactor:8
Temperature, K	Vapor or sublimation pressure, kPa	uncertainty
307.53	8.99	0.13
311.79	10.99	0.13
315.64	13.09	0.15
319.82	15.73	0.17
324.28	19.04	0.18
325.46	20	0.2
328.94	23.09	0.21
332.36	26.48	0.23
336.12	30.67	0.26
339.58	35.02	0.29
342.46	39.04	0.31
345.75	43.98	0.34
348.84	49.09	0.37
352.07	54.94	0.38
354.95	60.02	0.43
357.17	65.33	0.48
359.63	70.88	0.49
361.83	76.15	0.51
363.85	81.26	0.54
366	87.01	0.57
367.99	92.58	0.59
369.46	96.91	0.62
370.68	100.64	0.73
370.86	100	0.73
372.26	105.59	0.82

System: 2-methyl-1-propanol + 2-methylpropyl ethanoate; phases: Liquid, Gas
Property: Boiling temperature at pressure P, K (Liquid); method: Ebulliometric method (Recirculating still)
Mole fraction of 2-methyl-1-propanol	Pressure, kPa	Boiling temperature at pressure P, K	uncertainty
0	20	342.95	0.07
0	100	389.9	0.17
0.048	20	341.96	0.13
0.054	100	388.48	0.16
0.074	20	341.53	0.13
0.103	100	387.28	0.16
0.115	20	341.02	0.13
0.167	100	386.1	0.16
0.185	20	340.25	0.13
0.24	100	385.07	0.15
0.253	20	339.76	0.13
0.279	100	384.38	0.15
0.32	20	339.45	0.12
0.329	100	383.75	0.15
0.384	20	339.22	0.12
0.388	100	383.1	0.14
0.437	100	382.68	0.14
0.449	20	339.14	0.12
0.48	100	382.26	0.13
0.509	20	339.13	0.12
0.544	100	381.93	0.13
0.564	20	339.18	0.12
0.583	100	381.64	0.13
0.615	20	339.28	0.12
0.631	100	381.36	0.13
0.663	20	339.42	0.12
0.676	100	381.16	0.12
0.697	20	339.56	0.12
0.723	100	381	0.12
0.739	20	339.75	0.12
0.763	100	380.88	0.12
0.779	20	340.02	0.12
0.811	100	380.8	0.11
0.814	20	340.27	0.12
0.853	20	340.58	0.12
0.854	100	380.76	0.11
0.891	100	380.76	0.11
0.896	20	340.98	0.12
0.923	100	380.8	0.1
0.924	20	341.35	0.12
0.956	100	380.86	0.1
0.957	20	341.77	0.12
1	20	342.52	0.06
1	100	381.09	0.11

System: 2-methyl-1-propanol + 2-methylpropyl ethanoate; phases: Gas, Liquid
Property: Mole fraction of 2-methyl-1-propanol (Gas); method: CHROM:UFactor:4
Mole fraction of 2-methyl-1-propanol	Pressure, kPa	Mole fraction of 2-methyl-1-propanol	uncertainty
0	20	0	0.001
0	100	0	0.001
0.048	20	0.079	0.003
0.054	100	0.094	0.004
0.074	20	0.119	0.005
0.103	100	0.172	0.006
0.115	20	0.166	0.006
0.167	100	0.252	0.009
0.185	20	0.247	0.009
0.24	100	0.322	0.012
0.253	20	0.314	0.012
0.279	100	0.376	0.014
0.32	20	0.368	0.014
0.329	100	0.416	0.016
0.384	20	0.419	0.016
0.388	100	0.474	0.018
0.437	100	0.516	0.018
0.449	20	0.466	0.018
0.48	100	0.553	0.017
0.509	20	0.508	0.019
0.544	100	0.602	0.015
0.564	20	0.545	0.017
0.583	100	0.64	0.014
0.615	20	0.583	0.016
0.631	100	0.679	0.012
0.663	20	0.613	0.015
0.676	100	0.713	0.011
0.697	20	0.642	0.014
0.723	100	0.749	0.01
0.739	20	0.677	0.012
0.763	100	0.779	0.008
0.779	20	0.713	0.011
0.811	100	0.818	0.007
0.814	20	0.749	0.01
0.853	20	0.786	0.008
0.854	100	0.857	0.005
0.891	100	0.89	0.004
0.896	20	0.841	0.006
0.923	100	0.921	0.003
0.924	20	0.88	0.005
0.956	100	0.952	0.003
0.957	20	0.926	0.003
1	20	1	0.001
1	100	1	0.001

System: 2-methylpropan-2-ol + 1,1-dimethylethyl ethanoate; phases: Liquid, Gas
Property: Boiling temperature at pressure P, K (Liquid); method: Ebulliometric method (Recirculating still)
Mole fraction of 2-methylpropan-2-ol	Pressure, kPa	Boiling temperature at pressure P, K	uncertainty
0	20	325.46	0.07
0	100	370.86	0.13
0.046	20	323.98	0.12
0.055	100	368.79	0.13
0.079	20	322.92	0.12
0.109	100	366.87	0.13
0.131	20	322.04	0.12
0.168	100	365.22	0.12
0.187	20	321.25	0.12
0.227	100	363.76	0.12
0.242	20	320.67	0.12
0.282	100	362.63	0.12
0.302	20	320.16	0.12
0.338	100	361.47	0.12
0.368	20	319.73	0.12
0.403	100	360.42	0.12
0.426	20	319.44	0.12
0.454	100	359.71	0.11
0.466	20	319.3	0.12
0.512	100	359.03	0.11
0.558	20	319.1	0.12
0.563	100	358.49	0.11
0.62	20	319.01	0.12
0.625	100	357.94	0.11
0.672	100	357.5	0.11
0.673	20	318.97	0.12
0.718	100	357.13	0.1
0.719	20	319	0.12
0.757	100	356.86	0.1
0.759	20	319.03	0.12
0.799	100	356.56	0.1
0.801	20	319.12	0.12
0.838	20	319.18	0.06
0.838	100	356.29	0.1
0.874	20	319.29	0.12
0.876	100	356.05	0.1
0.909	20	319.41	0.12
0.912	100	355.86	0.1
0.935	100	355.77	0.09
0.946	20	319.53	0.12
0.96	100	355.69	0.09
0.966	20	319.63	0.12
0.984	100	355.64	0.09
1	20	320.17	0.05
1	100	355.59	0.1

System: 2-methylpropan-2-ol + 1,1-dimethylethyl ethanoate; phases: Gas, Liquid
Property: Mole fraction of 2-methylpropan-2-ol (Gas); method: CHROM:UFactor:4
Mole fraction of 2-methylpropan-2-ol	Pressure, kPa	Mole fraction of 2-methylpropan-2-ol	uncertainty
0	20	0	0.001
0	100	0	0.001
0.046	20	0.096	0.004
0.055	100	0.113	0.004
0.079	20	0.154	0.006
0.109	100	0.211	0.008
0.131	20	0.229	0.009
0.168	100	0.294	0.011
0.187	20	0.295	0.011
0.227	100	0.368	0.014
0.242	20	0.352	0.013
0.282	100	0.423	0.016
0.302	20	0.402	0.015
0.338	100	0.487	0.018
0.368	20	0.455	0.017
0.403	100	0.545	0.017
0.426	20	0.495	0.019
0.454	100	0.588	0.015
0.466	20	0.523	0.018
0.512	100	0.63	0.014
0.558	20	0.589	0.015
0.563	100	0.669	0.012
0.62	20	0.634	0.014
0.625	100	0.715	0.011
0.672	100	0.75	0.009
0.673	20	0.675	0.012
0.718	100	0.781	0.008
0.719	20	0.713	0.011
0.757	100	0.813	0.007
0.759	20	0.749	0.009
0.799	100	0.84	0.006
0.801	20	0.783	0.008
0.838	20	0.819	0.007
0.838	100	0.873	0.005
0.874	20	0.855	0.006
0.876	100	0.901	0.004
0.909	20	0.893	0.004
0.912	100	0.928	0.003
0.935	100	0.947	0.003
0.946	20	0.934	0.003
0.96	100	0.966	0.002
0.966	20	0.958	0.003
0.984	100	0.987	0.002
1	20	1	0.001
1	100	1	0.001
