Measured thermophysical data. Measurements and calculations of solid-liquid equilibria in the quaternary system KBr-CaBr2-MgBr2-H2O at (298 and 323) K
Source: Fluid Phase Equilib., 2017, 10.1016/j.fluid.2017.07.019
Compound 1: water, H2O, InChI=1S/H2O/h1H2, purity 99.9%
Compound 2: potassium bromide, BrK, InChI=1S/BrH.K/h1H;/q;+1/p-1, purity 99%
Compound 3: magnesium bromide (MgBr2), Br2Mg, InChI=1S/2BrH.Mg/h2*1H;/q;;+2/p-2, purity 99%
Compound 4: calcium bromide, Br2Ca, InChI=1S/2BrH.Ca/h2*1H;/q;;+2/p-2, purity 99%

System: water + potassium bromide + magnesium bromide (MgBr2); phases: Liquid, Crystal of intercomponent compound 1
Fixed: Pressure, kPa = 94.77
Property: Mass fraction of magnesium bromide (MgBr2) (Liquid); method: Chemical analysis
Temperature, K	Mass fraction of potassium bromide	Mass fraction of magnesium bromide (MgBr2)	uncertainty
298	0.033	0.4285	0.01
323	0.0488	0.4433	0.01

System: water + potassium bromide + magnesium bromide (MgBr2); phases: Liquid, Crystal of intercomponent compound 2
Fixed: Pressure, kPa = 94.77
Property: Mass fraction of magnesium bromide (MgBr2) (Liquid); method: Chemical analysis
Temperature, K	Mass fraction of potassium bromide	Mass fraction of magnesium bromide (MgBr2)	uncertainty
293	0.0025	0.5018	0.0101
323	0.008	0.518	0.0101

System: calcium bromide + water + potassium bromide; phases: Liquid, Crystal of intercomponent compound 2
Property: Mass fraction of calcium bromide (Liquid); method: Chemical analysis
Mass fraction of potassium bromide	Temperature, K	Pressure, kPa	Mass fraction of calcium bromide	uncertainty
0.0081	298	94.77	0.5914	0.0061

System: calcium bromide + water + potassium bromide; phases: Liquid, Crystal of intercomponent compound 2
Property: Mass fraction of calcium bromide (Liquid); method: Chemical analysis
Mass fraction of potassium bromide	Temperature, K	Pressure, kPa	Mass fraction of calcium bromide	uncertainty
0.0065	323	94.77	0.7049	0.0062

System: calcium bromide + water + magnesium bromide (MgBr2); phases: Liquid, Crystal of intercomponent compound 2
Property: Mass fraction of magnesium bromide (MgBr2) (Liquid); method: Chemical analysis
Mass fraction of calcium bromide	Temperature, K	Pressure, kPa	Mass fraction of magnesium bromide (MgBr2)	uncertainty
0.5571	298	94.77	0.0496	0.01

System: calcium bromide + water + magnesium bromide (MgBr2); phases: Liquid, Crystal of intercomponent compound 2
Property: Mass fraction of magnesium bromide (MgBr2) (Liquid); method: Chemical analysis
Mass fraction of calcium bromide	Temperature, K	Pressure, kPa	Mass fraction of magnesium bromide (MgBr2)	uncertainty
0.6923	323	94.77	0.0193	0.01

System: calcium bromide + water + magnesium bromide (MgBr2); phases: Liquid, Crystal of intercomponent compound 2
Property: Mass fraction of magnesium bromide (MgBr2) (Liquid); method: Chemical analysis
Mass fraction of calcium bromide	Temperature, K	Pressure, kPa	Mass fraction of magnesium bromide (MgBr2)	uncertainty
0.5351	323	94.77	0.1201	0.01
