Measured thermophysical data. Solubility of ammonium chloride in a MgCl2-NH4Cl-NH3-H2O system at 298 K: Experiments, modeling and prediction
Source: Fluid Phase Equilib., 2014, 10.1016/j.fluid.2014.10.014
Compound 1: ammonium chloride (NH4Cl), ClH4N, InChI=1S/ClH.H3N/h1H;1H3, purity 99%
Compound 2: ammonia, H3N, InChI=1S/H3N/h1H3, purity 99.9%
Compound 3: water, H2O, InChI=1S/H2O/h1H2, purity 99.8%
Compound 4: magnesium chloride, Cl2Mg, InChI=1S/2ClH.Mg/h2*1H;/q;;+2/p-2, purity 99%

System: ammonia + water + ammonium chloride (NH4Cl); phases: Liquid, Crystal
Fixed: Pressure, kPa = 101.3
Fixed: Temperature, K = 298.15
Property: Mass fraction of ammonium chloride (NH4Cl) (Liquid); method: Titration method
Mass fraction of ammonia	Mass fraction of ammonium chloride (NH4Cl)	uncertainty
0	0.2829	0.0007
0.0342	0.2778	0.0007
0.0842	0.2749	0.0007
0.1321	0.2779	0.0007
0.1725	0.2841	0.0007
0.1918	0.291	0.0008
0.2022	0.2953	0.0008
0.2186	0.3029	0.0008
0.2336	0.3126	0.0008
0.2383	0.317	0.0008
0.2408	0.3183	0.0008

System: water + magnesium chloride + ammonium chloride (NH4Cl); phases: Liquid, Crystal
Fixed: Pressure, kPa = 101.3
Fixed: Temperature, K = 298.15
Property: Mass fraction of ammonium chloride (NH4Cl) (Liquid); method: Titration method
Mass fraction of magnesium chloride	Mass fraction of ammonium chloride (NH4Cl)	uncertainty
0	0.2829	0.0007
0.0336	0.2488	0.0008
0.0422	0.2402	0.0008
0.0672	0.2154	0.0007
0.08	0.2026	0.0007
0.0993	0.1836	0.0007
0.1268	0.1569	0.0007
0.1479	0.1363	0.0006
0.1615	0.1241	0.0006
0.1819	0.1072	0.0006
0.1962	0.0981	0.0005
0.2054	0.0939	0.0005
