Measured thermophysical data. Determination and modeling of liquid-liquid equilibrium for ternary mixtures of methyl isopropyl ketone, cresol isomers and water
Source: Fluid Phase Equilib., 2016, 10.1016/j.fluid.2016.08.034
Compound 1: 2-methylphenol, C7H8O, InChI=1S/C7H8O/c1-6-4-2-3-5-7(6)8/h2-5,8H,1H3, purity 99.5%
Compound 2: 3-methylphenol, C7H8O, InChI=1S/C7H8O/c1-6-3-2-4-7(8)5-6/h2-5,8H,1H3, purity 99.5%
Compound 3: 4-methylphenol, C7H8O, InChI=1S/C7H8O/c1-6-2-4-7(8)5-3-6/h2-5,8H,1H3, purity 99%
Compound 4: 3-methyl-2-butanone, C5H10O, InChI=1S/C5H10O/c1-4(2)5(3)6/h4H,1-3H3, purity 99%
Compound 5: water, H2O, InChI=1S/H2O/h1H2, purity 99.8%

System: 2-methylphenol + 3-methyl-2-butanone + water; phases: Liquid mixture 1, Liquid mixture 2
Fixed: Pressure, kPa = 101.3
Property: Mass fraction of 2-methylphenol (Liquid mixture 1); method: Chromatography
Property: Mass fraction of 2-methylphenol (Liquid mixture 2); method: Chromatography
Property: Mass fraction of 3-methyl-2-butanone (Liquid mixture 2); method: Chromatography
Temperature, K	Mass fraction of 3-methyl-2-butanone	Mass fraction of 2-methylphenol	uncertainty	Mass fraction of 2-methylphenol	uncertainty	Mass fraction of 3-methyl-2-butanone	uncertainty
298.2	0.9653	0		0		0.0619	
313.2	0.9598	0		0		0.0496	
313.2	0.8521	0.101	0.0009	0.0003	0.0003	0.0376	
313.2	0.7716	0.1756	0.0014	0.0006	0.0006	0.0292	
313.2	0.6857	0.2567	0.002	0.0011	0.0011	0.0246	
313.2	0.634	0.3035	0.0024	0.0015	0.0015	0.0212	
313.2	0.5686	0.3633	0.0028	0.0024	0.0017	0.0172	
313.2	0.5123	0.4163	0.0032	0.0034	0.0018	0.0142	
313.2	0.4715	0.4538	0.0035	0.0043	0.0018	0.0125	
313.2	0.4303	0.4918	0.0038	0.0053	0.0019	0.0104	
298.2	0.8497	0.1062	0.0009	0.0003	0.0003	0.0471	
298.2	0.7689	0.1817	0.0015	0.0006	0.0006	0.0373	
298.2	0.6961	0.2497	0.002	0.0009	0.0009	0.0307	
298.2	0.6543	0.2882	0.0023	0.0012	0.0012	0.0268	
298.2	0.5905	0.3472	0.0027	0.002	0.0017	0.0227	
298.2	0.5386	0.3956	0.0031	0.0029	0.0017	0.0189	
298.2	0.4878	0.4431	0.0035	0.0038	0.0017	0.0158	
298.2	0.4392	0.4877	0.0038	0.005	0.0017	0.0123	

System: 3-methylphenol + 3-methyl-2-butanone + water; phases: Liquid mixture 2, Liquid mixture 1
Fixed: Pressure, kPa = 101.3
Property: Mass fraction of 3-methylphenol (Liquid mixture 2); method: Chromatography
Property: Mass fraction of 3-methylphenol (Liquid mixture 1); method: Chromatography
Property: Mass fraction of 3-methyl-2-butanone (Liquid mixture 1); method: Chromatography
Temperature, K	Mass fraction of 3-methyl-2-butanone	Mass fraction of 3-methylphenol	uncertainty	Mass fraction of 3-methylphenol	uncertainty	Mass fraction of 3-methyl-2-butanone	uncertainty
298.2	0.0619	0		0		0.9653	
313.2	0.0099	0.0051	0.0003	0.529	0.0041	0.3878	
298.2	0.0447	0.0003	0.0002	0.1125	0.0026	0.8436	
298.2	0.037	0.0006	0.0002	0.1924	0.0028	0.7585	
298.2	0.0305	0.0009	0.0002	0.2588	0.0031	0.6878	
298.2	0.0272	0.0012	0.0002	0.2995	0.0032	0.6435	
298.2	0.0234	0.0019	0.0002	0.364	0.0036	0.5731	
298.2	0.0193	0.0028	0.0002	0.4275	0.0039	0.5065	
298.2	0.0166	0.0035	0.0002	0.4658	0.0041	0.4645	
298.2	0.0124	0.0043	0.0002	0.5026	0.0043	0.4243	
313.2	0.0496	0		0		0.9598	
313.2	0.0361	0.0003	0.0002	0.1079	0.0026	0.8441	
313.2	0.0282	0.0007	0.0002	0.1921	0.0028	0.7526	
313.2	0.0247	0.0011	0.0002	0.2565	0.003	0.6837	
313.2	0.0219	0.0018	0.0002	0.331	0.0034	0.6029	
313.2	0.0166	0.0024	0.0002	0.3792	0.0036	0.5504	
313.2	0.0148	0.0033	0.0002	0.4367	0.0039	0.4884	
313.2	0.0119	0.004	0.0003	0.4769	0.0042	0.4441	

System: 4-methylphenol + 3-methyl-2-butanone + water; phases: Liquid mixture 2, Liquid mixture 1
Fixed: Pressure, kPa = 101.3
Property: Mass fraction of 4-methylphenol (Liquid mixture 2); method: Chromatography
Property: Mass fraction of 4-methylphenol (Liquid mixture 1); method: Chromatography
Property: Mass fraction of 3-methyl-2-butanone (Liquid mixture 1); method: Chromatography
Temperature, K	Mass fraction of 3-methyl-2-butanone	Mass fraction of 4-methylphenol	uncertainty	Mass fraction of 4-methylphenol	uncertainty	Mass fraction of 3-methyl-2-butanone	uncertainty
298.2	0.0619	0		0		0.9653	
298.2	0.0433	0.0003	0.0002	0.1076	0.0026	0.8493	
298.2	0.0357	0.0007	0.0002	0.1952	0.0028	0.7553	
298.2	0.0299	0.0009	0.0002	0.2467	0.003	0.6995	
298.2	0.0257	0.0014	0.0002	0.3059	0.0033	0.6356	
298.2	0.0218	0.002	0.0002	0.3651	0.0035	0.5705	
298.2	0.0194	0.0026	0.0002	0.4193	0.0038	0.5119	
298.2	0.0164	0.0033	0.0002	0.4718	0.0041	0.4545	
298.2	0.014	0.0043	0.0003	0.5261	0.0041	0.3946	
313.2	0.0496	0		0		0.9598	
313.2	0.0355	0.0003	0.0002	0.1051	0.0026	0.8468	
313.2	0.0281	0.0007	0.0002	0.1969	0.0028	0.7489	
313.2	0.0243	0.0011	0.0002	0.2602	0.0031	0.6811	
313.2	0.0202	0.0018	0.0002	0.3378	0.0034	0.5971	
313.2	0.0176	0.0025	0.0002	0.3988	0.0037	0.5309	
313.2	0.0148	0.0032	0.0002	0.4521	0.004	0.4714	
313.2	0.0125	0.0041	0.0003	0.5077	0.0042	0.4108	
313.2	0.0105	0.005	0.0003	0.5615	0.0039	0.3513	

System: 3-methyl-2-butanone + water; phases: Liquid mixture 1, Liquid mixture 2
Fixed: Pressure, kPa = 101.3
Property: Mass fraction of 3-methyl-2-butanone (Liquid mixture 1); method: Chromatography
Temperature, K	Mass fraction of 3-methyl-2-butanone	uncertainty
298.2	0.9653	
313.2	0.9598	

System: 3-methyl-2-butanone + water; phases: Liquid mixture 2, Liquid mixture 1
Fixed: Pressure, kPa = 101.3
Property: Mass fraction of 3-methyl-2-butanone (Liquid mixture 2); method: Chromatography
Temperature, K	Mass fraction of 3-methyl-2-butanone	uncertainty
298.2	0.0619	
313.2	0.0496	
