Measured thermophysical data. Solubility of citric acid in water, ethanol, n-propanol and in mixtures of ethanol + water
Source: Fluid Phase Equilib., 2013, 10.1016/j.fluid.2013.05.014
Compound 1: citric acid, C6H8O7, InChI=1S/C6H8O7/c7-3(8)1-6(13,5(11)12)2-4(9)10/h13H,1-2H2,(H,7,8)(H,9,10)(H,11,12), purity 99.5%
Compound 2: water, H2O, InChI=1S/H2O/h1H2, purity 99.8%
Compound 3: ethanol, C2H6O, InChI=1S/C2H6O/c1-2-3/h3H,2H2,1H3, purity 99.9%
Compound 4: propan-1-ol, C3H8O, InChI=1S/C3H8O/c1-2-3-4/h4H,2-3H2,1H3, purity 99.9%

System: citric acid + water; phases: Liquid, Crystal of intercomponent compound 1
Fixed: Pressure, kPa = 101
Property: Mole fraction of citric acid (Liquid); method: Phase equilibration
Temperature, K	Mole fraction of citric acid	uncertainty
293.7	0.1224	0.0031
303.3	0.151	0.0031

System: citric acid + water; phases: Liquid, Crystal
Fixed: Pressure, kPa = 101
Property: Mole fraction of citric acid (Liquid); method: Phase equilibration
Temperature, K	Mole fraction of citric acid	uncertainty
313.4	0.1712	0.003
322.2	0.1864	0.003
333.1	0.2061	0.0031

System: ethanol + citric acid; phases: Liquid, Crystal
Fixed: Pressure, kPa = 101
Property: Mole fraction of citric acid (Liquid); method: Phase equilibration
Temperature, K	Mole fraction of citric acid	uncertainty
293.7	0.2482	0.0031
303.3	0.27	0.0031
313.4	0.2806	0.0031

System: propan-1-ol + citric acid; phases: Liquid, Crystal
Fixed: Pressure, kPa = 101
Property: Mole fraction of citric acid (Liquid); method: Phase equilibration
Temperature, K	Mole fraction of citric acid	uncertainty
293.7	0.2743	0.0031
303.3	0.2794	0.0031
313.4	0.2859	0.0031

System: ethanol + citric acid + water; phases: Liquid, Crystal
Fixed: Pressure, kPa = 101
Property: Mole fraction of citric acid (Liquid); method: Phase equilibration
Temperature, K	Solvent: Mole fraction of ethanol	Mole fraction of citric acid	uncertainty
293.7	0	0.1224	0.0031
293.7	0.1989	0.1721	0.003
293.7	0.3997	0.1876	0.003
293.7	1	0.2482	0.0031
303.3	0.1997	0.1678	0.003
303.3	0.3997	0.1752	0.003
303.3	0.6005	0.1825	0.0031
303.3	1	0.27	0.0031
313.4	0	0.1712	0.0031
313.4	0.1997	0.2097	0.0031
313.4	0.3997	0.2164	0.0032
313.4	0.6005	0.2196	0.0032
313.4	1	0.2806	0.0031
322.2	0	0.1864	0.003
322.2	0.1997	0.2395	0.0031
322.2	0.3997	0.2661	0.0032
322.2	0.7988	0.2919	0.0033
