Measured thermophysical data. Temperature dependences of limiting activity coefficients and Henry s law constants for N-methylpyrrolidone, pyridine, and piperidine in water
Source: Fluid Phase Equilib., 2009, 10.1016/j.fluid.2009.05.005
Compound 1: N-methylpyrrolidone, C5H9NO, InChI=1S/C5H9NO/c1-6-4-2-3-5(6)7/h2-4H2,1H3
Compound 2: pyridine, C5H5N, InChI=1S/C5H5N/c1-2-4-6-5-3-1/h1-5H
Compound 3: piperidine, C5H11N, InChI=1S/C5H11N/c1-2-4-6-5-3-1/h6H,1-5H2
Compound 4: water, H2O, InChI=1S/H2O/h1H2, purity 99.9%

System: N-methylpyrrolidone + water; phases: Liquid
Fixed: Mole fraction of N-methylpyrrolidone = 0
Fixed: Pressure, kPa = 101
Property: Activity coefficient of N-methylpyrrolidone (Liquid); method: differential distillation, circulation still
Temperature, K	Activity coefficient of N-methylpyrrolidone	uncertainty
333.15	1.34	0.06
343.15	1.56	0.06
353.15	1.75	0.06
372.85	2.07	0.1

System: N-methylpyrrolidone + water; phases: Liquid
Property: Excess molar heat capacity, J/K/mol (Liquid); method: Flow calorimetry
Temperature, K	Pressure, kPa	Mole fraction of N-methylpyrrolidone	Excess molar heat capacity, J/K/mol	uncertainty
298.15	101	0	131	2

System: pyridine + water; phases: Liquid
Fixed: Mole fraction of pyridine = 0
Fixed: Pressure, kPa = 101
Property: Activity coefficient of pyridine (Liquid); method: Rayleigh distillation, circulation still
Temperature, K	Activity coefficient of pyridine	uncertainty
333.15	24	0.1
343.15	25.5	0.1
353.15	26	0.1
372.8	25.4	0.1

System: piperidine + water; phases: Liquid
Fixed: Mole fraction of piperidine = 0
Fixed: Pressure, kPa = 101
Property: Activity coefficient of piperidine (Liquid); method: Rayleigh distillation, circulation still
Temperature, K	Activity coefficient of piperidine	uncertainty
333.15	11.9	0.1
343.15	14.7	0.1
353.15	17.7	0.1
372.6	21	0.1
