Measured thermophysical data. Isothermal vapor liquid equilibrium at 323.15K and excess molar volumes and refractive indices at 298.15K for the ternary system propyl vinyl ether + 1-propanol + benzene and its binary sub-systems
Source: Fluid Phase Equilib., 2008, 10.1016/j.fluid.2008.09.005
Compound 1: propyl vinyl ether, C5H10O, InChI=1S/C5H10O/c1-3-5-6-4-2/h4H,2-3,5H2,1H3
Compound 2: propan-1-ol, C3H8O, InChI=1S/C3H8O/c1-2-3-4/h4H,2-3H2,1H3
Compound 3: benzene, C6H6, InChI=1S/C6H6/c1-2-4-6-5-3-1/h1-6H

System: propyl vinyl ether; phases: Liquid
Property: Refractive index (Na D-line) (Liquid); method: Standard Abbe refractometry
Temperature, K	Pressure, kPa	Refractive index (Na D-line)	uncertainty
298.15	101.325	1.39793	0.00035

System: propyl vinyl ether; phases: Liquid
Property: Mass density, kg/m3 (Liquid); method: Vibrating tube method
Temperature, K	Pressure, kPa	Mass density, kg/m3	uncertainty
298.15	101.325	762.69	0.13

System: propan-1-ol; phases: Liquid
Property: Refractive index (Na D-line) (Liquid); method: Standard Abbe refractometry
Temperature, K	Pressure, kPa	Refractive index (Na D-line)	uncertainty
298.15	101.325	1.38312	0.00035

System: propan-1-ol; phases: Liquid
Property: Mass density, kg/m3 (Liquid); method: Vibrating tube method
Temperature, K	Pressure, kPa	Mass density, kg/m3	uncertainty
298.15	101.325	800.61	0.11

System: benzene; phases: Liquid
Property: Refractive index (Na D-line) (Liquid); method: Standard Abbe refractometry
Temperature, K	Pressure, kPa	Refractive index (Na D-line)	uncertainty
298.15	101.325	1.49785	0.00035

System: benzene; phases: Liquid
Property: Mass density, kg/m3 (Liquid); method: Vibrating tube method
Temperature, K	Pressure, kPa	Mass density, kg/m3	uncertainty
298.15	101.325	873.6	0.08

System: propan-1-ol + propyl vinyl ether; phases: Liquid, Gas
Fixed: Temperature, K = 323.15
Property: Vapor or sublimation pressure, kPa (Liquid); method: Calculated
Mole fraction of propyl vinyl ether	Vapor or sublimation pressure, kPa	uncertainty
0.2958	16.86	0.17
0.4249	20.31	0.2
0.5155	23.68	0.24
0.5562	25.56	0.26
0.6514	31.28	0.31
0.7109	36.29	0.36
0.7576	41.28	0.41
0.7875	45.06	0.45
0.8151	49	0.49
0.8312	51.48	0.51
0.8415	53.05	0.53
0.8504	54.32	0.54
0.8566	55.12	0.55
0.8698	56.58	0.57
0.8869	58.84	0.59
0.8962	59.68	0.6
0.9027	59.72	0.6
0.9198	60.44	0.6
0.9382	60.94	0.61
0.9487	61.11	0.61
0.9609	61.19	0.61
0.9751	61.13	0.61

System: propan-1-ol + propyl vinyl ether; phases: Liquid
Fixed: Temperature, K = 298.15
Fixed: Pressure, kPa = 101
Property: Refractive index (Na D-line) (Liquid); method: Standard Abbe refractometry
Mole fraction of propyl vinyl ether	Refractive index (Na D-line)	uncertainty
0.0496	1.38365	0.00035
0.1006	1.38393	0.00035
0.1996	1.3847	0.00035
0.2999	1.38529	0.00035
0.3997	1.38545	0.00035
0.4996	1.38538	0.00035
0.6001	1.38531	0.00035
0.7002	1.38567	0.00035
0.8007	1.38691	0.00035
0.8999	1.38766	0.00035
0.9487	1.38786	0.00035

System: propan-1-ol + propyl vinyl ether; phases: Liquid
Fixed: Temperature, K = 298.15
Fixed: Pressure, kPa = 101
Property: Mass density, kg/m3 (Liquid); method: Vibrating tube method
Mole fraction of propyl vinyl ether	Mass density, kg/m3	uncertainty
0.0496	798.01	0.11
0.1006	795.53	0.11
0.1996	790.99	0.11
0.2999	786.62	0.12
0.3997	782.47	0.12
0.4996	778.59	0.12
0.6001	774.95	0.12
0.7002	771.51	0.12
0.8007	768.32	0.12
0.8999	765.42	0.12
0.9487	764.05	0.12

System: propan-1-ol + propyl vinyl ether; phases: Liquid, Gas
Fixed: Temperature, K = 323.15
Property: Mole fraction of propyl vinyl ether (Liquid); method: Chromatography
Mole fraction of propyl vinyl ether	Mole fraction of propyl vinyl ether	uncertainty
0.2958	0.0207	0.0002
0.4249	0.0395	0.0004
0.5155	0.0594	0.0006
0.5562	0.0798	0.0008
0.6514	0.1185	0.0012
0.7109	0.1685	0.0017
0.7576	0.2288	0.0023
0.7875	0.289	0.0029
0.8151	0.3491	0.0035
0.8312	0.4088	0.0041
0.8415	0.4685	0.0047
0.8504	0.5298	0.0047
0.8566	0.5895	0.0041
0.8698	0.649	0.0035
0.8869	0.7689	0.0023
0.8962	0.7092	0.0029
0.9027	0.8277	0.0017
0.9198	0.879	0.0012
0.9382	0.9184	0.0008
0.9487	0.9396	0.0006
0.9609	0.9593	0.0004
0.9751	0.9794	0.0002

System: benzene + propyl vinyl ether; phases: Liquid, Gas
Fixed: Temperature, K = 323.15
Property: Vapor or sublimation pressure, kPa (Liquid); method: Calculated
Mole fraction of propyl vinyl ether	Vapor or sublimation pressure, kPa	uncertainty
0.0372	36.84	0.37
0.0703	37.42	0.37
0.1033	38	0.38
0.1368	38.61	0.39
0.1976	39.77	0.4
0.2676	41.16	0.41
0.3434	42.76	0.43
0.4169	44.4	0.44
0.4809	45.91	0.46
0.5451	47.52	0.48
0.5991	48.93	0.49
0.6544	50.42	0.5
0.7052	51.86	0.52
0.7524	53.23	0.53
0.7979	54.57	0.55
0.8421	55.9	0.56
0.8857	57.24	0.57
0.921	58.41	0.58
0.9467	59.19	0.59
0.9628	59.77	0.6
0.9731	60.13	0.6

System: benzene + propyl vinyl ether; phases: Liquid
Fixed: Temperature, K = 298.15
Fixed: Pressure, kPa = 101
Property: Refractive index (Na D-line) (Liquid); method: Standard Abbe refractometry
Mole fraction of propyl vinyl ether	Refractive index (Na D-line)	uncertainty
0.05	1.49122	0.00035
0.0997	1.48479	0.00035
0.1996	1.47256	0.00035
0.2997	1.46103	0.00035
0.3998	1.44997	0.00035
0.4998	1.43933	0.00035
0.6002	1.42889	0.00035
0.7004	1.4185	0.00035
0.7998	1.40801	0.00035
0.8995	1.39779	0.00035
0.9506	1.39281	0.00035

System: benzene + propyl vinyl ether; phases: Liquid
Fixed: Temperature, K = 298.15
Fixed: Pressure, kPa = 101
Property: Mass density, kg/m3 (Liquid); method: Vibrating tube method
Mole fraction of propyl vinyl ether	Mass density, kg/m3	uncertainty
0.05	866.74	0.09
0.0997	860.11	0.09
0.1996	847.44	0.1
0.2997	835.39	0.1
0.3998	823.85	0.11
0.4998	812.72	0.12
0.6002	802.09	0.12
0.7004	791.87	0.12
0.7998	781.99	0.12
0.8995	772.41	0.12
0.9506	767.52	0.12

System: benzene + propyl vinyl ether; phases: Liquid, Gas
Fixed: Temperature, K = 323.15
Property: Mole fraction of propyl vinyl ether (Liquid); method: Chromatography
Mole fraction of propyl vinyl ether	Mole fraction of propyl vinyl ether	uncertainty
0.0372	0.0201	0.0002
0.0703	0.0395	0.0004
0.1033	0.0597	0.0006
0.1368	0.08	0.0008
0.1976	0.1203	0.0012
0.2676	0.17	0.0017
0.3434	0.2298	0.0023
0.4169	0.2898	0.0029
0.4809	0.3496	0.0035
0.5451	0.4096	0.0041
0.5991	0.4702	0.0047
0.6544	0.5297	0.0047
0.7052	0.5898	0.0041
0.7524	0.6498	0.0035
0.7979	0.7099	0.0029
0.8421	0.7697	0.0023
0.8857	0.8292	0.0017
0.921	0.8799	0.0012
0.9467	0.9199	0.0008
0.9628	0.9395	0.0006
0.9731	0.9601	0.0004

System: propan-1-ol + benzene; phases: Liquid, Gas
Fixed: Temperature, K = 323.15
Property: Vapor or sublimation pressure, kPa (Liquid); method: Calculated
Mole fraction of propan-1-ol	Vapor or sublimation pressure, kPa	uncertainty
0.0151	38.52	0.39
0.0248	38.73	0.39
0.0688	39.59	0.4
0.0883	39.89	0.4
0.1271	39.56	0.4
0.147	38.95	0.39
0.1666	38.72	0.39
0.1865	38.31	0.38
0.1972	37.79	0.38
0.2126	37.2	0.37
0.2271	36.15	0.36
0.2462	35.29	0.35
0.2599	34.06	0.34
0.2866	32.92	0.33
0.3206	31.09	0.31
0.348	28.71	0.29
0.4192	25.16	0.25
0.4854	22.31	0.22
0.5734	19.56	0.2
0.6355	17.98	0.18

System: propan-1-ol + benzene; phases: Liquid
Fixed: Temperature, K = 298.15
Fixed: Pressure, kPa = 101
Property: Refractive index (Na D-line) (Liquid); method: Standard Abbe refractometry
Mole fraction of propan-1-ol	Refractive index (Na D-line)	uncertainty
0.0495	1.49257	0.00035
0.1012	1.4869	0.00035
0.1997	1.47608	0.00035
0.3007	1.46534	0.00035
0.4002	1.45464	0.00035
0.4999	1.4437	0.00035
0.6002	1.43238	0.00035
0.7	1.42061	0.00035
0.8004	1.4086	0.00035
0.8999	1.39601	0.00035
0.9496	1.3897	0.00035

System: propan-1-ol + benzene; phases: Liquid
Fixed: Temperature, K = 298.15
Fixed: Pressure, kPa = 101
Property: Mass density, kg/m3 (Liquid); method: Vibrating tube method
Mole fraction of propan-1-ol	Mass density, kg/m3	uncertainty
0.0495	869.79	0.08
0.1012	866.16	0.09
0.1997	859.49	0.09
0.3007	852.8	0.09
0.4002	846.08	0.1
0.4999	839.22	0.1
0.6002	832.14	0.1
0.7	824.83	0.1
0.8004	817.26	0.11
0.8999	809.29	0.11
0.9496	805.03	0.11

System: propan-1-ol + benzene; phases: Liquid, Gas
Fixed: Temperature, K = 323.15
Property: Mole fraction of propan-1-ol (Liquid); method: Chromatography
Mole fraction of propan-1-ol	Mole fraction of propan-1-ol	uncertainty
0.0151	0.0062	0.0001
0.0248	0.0107	0.0001
0.0688	0.0391	0.0004
0.0883	0.0586	0.0006
0.1271	0.1205	0.0012
0.147	0.1702	0.0017
0.1666	0.2296	0.0023
0.1865	0.29	0.0029
0.1972	0.3495	0.0035
0.2126	0.4097	0.0041
0.2271	0.4709	0.0047
0.2462	0.5307	0.0047
0.2599	0.5899	0.0041
0.2866	0.6509	0.0035
0.3206	0.7112	0.0029
0.348	0.7711	0.0023
0.4192	0.8306	0.0017
0.4854	0.8801	0.0012
0.5734	0.9201	0.0008
0.6355	0.9398	0.0006

System: propan-1-ol + benzene + propyl vinyl ether; phases: Liquid
Fixed: Temperature, K = 298.15
Fixed: Pressure, kPa = 101
Property: Refractive index (Na D-line) (Liquid); method: Standard Abbe refractometry
Mole fraction of propyl vinyl ether	Mole fraction of propan-1-ol	Refractive index (Na D-line)	uncertainty
0.0191	0.1796	1.47587	0.00035
0.0193	0.7998	1.40617	0.00035
0.0291	0.2701	1.46417	0.00035
0.0297	0.901	1.39226	0.00035
0.0298	0.0698	1.48619	0.00035
0.0299	0.7004	1.41661	0.00035
0.0401	0.3597	1.45374	0.00035
0.0402	0.6005	1.42688	0.00035
0.0495	0.4496	1.44235	0.00035
0.0694	0.9016	1.38667	0.00035
0.0703	0.0289	1.48554	0.00035
0.0896	0.212	1.46313	0.00035
0.09	0.7008	1.40742	0.00035
0.1	0.1006	1.47371	0.00035
0.1209	0.2797	1.45223	0.00035
0.1497	0.4999	1.42353	0.00035
0.1499	0.1512	1.46215	0.00035
0.1503	0.3501	1.43967	0.00035
0.1795	0.42	1.4276	0.00035
0.1799	0.8003	1.38654	0.00035
0.18	0.0196	1.47313	0.00035
0.1995	0.6008	1.40688	0.00035
0.2	0.2	1.45074	0.00035
0.2092	0.0897	1.46185	0.00035
0.2096	0.7013	1.39419	0.00035
0.2492	0.501	1.41235	0.00035
0.2502	0.2498	1.43935	0.00035
0.2693	0.6993	1.38851	0.00035
0.2702	0.0296	1.46215	0.00035
0.2799	0.6007	1.39745	0.00035
0.28	0.1199	1.44931	0.00035
0.2999	0.3006	1.42816	0.00035
0.3013	0.3998	1.41692	0.00035
0.3497	0.15	1.44013	0.00035
0.3504	0.5003	1.40132	0.00035
0.3599	0.601	1.38983	0.00035
0.3611	0.0387	1.45026	0.00035
0.3992	0.0616	1.4439	0.00035
0.3998	0.2997	1.41734	0.00035
0.3999	0.1796	1.43045	0.00035
0.4204	0.3997	1.40429	0.00035
0.4494	0.5	1.39116	0.00035
0.4992	0.0504	1.43457	0.00035
0.4997	0.251	1.41218	0.00035
0.4997	0.3499	1.40173	0.00035
0.5002	0.1493	1.4243	0.00035
0.5397	0.4012	1.39238	0.00035
0.5996	0.3595	1.39088	0.00035
0.6002	0.2799	1.39884	0.00035
0.601	0.1986	1.40669	0.00035
0.6991	0.1513	1.40332	0.00035
0.7	0.0906	1.40861	0.00035
0.7002	0.2688	1.38999	0.00035
0.7997	0.0203	1.40607	0.00035
0.8004	0.0989	1.39855	0.00035
0.8006	0.1802	1.38911	0.00035
0.8993	0.0306	1.39511	0.00035

System: propan-1-ol + benzene + propyl vinyl ether; phases: Liquid
Fixed: Temperature, K = 298.15
Fixed: Pressure, kPa = 101
Property: Mass density, kg/m3 (Liquid); method: Vibrating tube method
Mole fraction of propyl vinyl ether	Mole fraction of propan-1-ol	Mass density, kg/m3	uncertainty
0.0191	0.1796	858.15	0.09
0.0193	0.7998	814.08	0.11
0.0291	0.2701	850.54	0.09
0.0297	0.901	804.59	0.11
0.0298	0.0698	864.25	0.09
0.0299	0.7004	820.32	0.11
0.0401	0.3597	843.08	0.1
0.0402	0.6005	826.33	0.11
0.0495	0.4496	835.73	0.1
0.0694	0.9016	799.51	0.11
0.0703	0.0289	861.75	0.09
0.0896	0.212	846.65	0.1
0.09	0.7008	812.59	0.11
0.1	0.1006	852.91	0.09
0.1209	0.2797	838.13	0.1
0.1497	0.4999	819.54	0.11
0.1499	0.1512	843.09	0.1
0.1503	0.3501	829.69	0.1
0.1795	0.42	821.32	0.11
0.1799	0.8003	793.69	0.12
0.18	0.0196	848.38	0.1
0.1995	0.6008	806.14	0.12
0.2	0.2	833.61	0.1
0.2092	0.0897	839.89	0.1
0.2096	0.7013	797.44	0.12
0.2492	0.501	807.25	0.12
0.2502	0.2498	824.3	0.11
0.2693	0.6993	790.51	0.12
0.2702	0.0296	836.76	0.1
0.2799	0.6007	796.59	0.12
0.28	0.1199	829.39	0.11
0.2999	0.3006	814.93	0.11
0.3013	0.3998	808.16	0.12
0.3497	0.15	819.25	0.11
0.3504	0.5003	795.64	0.12
0.3599	0.601	787.41	0.13
0.3611	0.0387	825.46	0.11
0.3992	0.0616	819.59	0.11
0.3998	0.2997	803.64	0.12
0.3999	0.1796	811.67	0.12
0.4204	0.3997	794.68	0.12
0.4494	0.5	784.47	0.13
0.4992	0.0504	809.34	0.12
0.4997	0.251	795.88	0.12
0.4997	0.3499	789.66	0.13
0.5002	0.1493	802.67	0.12
0.5397	0.4012	781.7	0.13
0.5996	0.3595	778.32	0.13
0.6002	0.2799	783.87	0.13
0.601	0.1986	788.96	0.12
0.6991	0.1513	782.03	0.12
0.7	0.0906	785.93	0.12
0.7002	0.2688	773.97	0.13
0.7997	0.0203	780.76	0.12
0.8004	0.0989	775.72	0.12
0.8006	0.1802	769.8	0.12
0.8993	0.0306	770.45	0.12

System: propan-1-ol + benzene + propyl vinyl ether; phases: Gas, Liquid
Fixed: Temperature, K = 323.15
Property: Mole fraction of propan-1-ol (Gas); method: Chromatography
Property: Mole fraction of propan-1-ol (Liquid); method: Chromatography
Property: Mole fraction of propyl vinyl ether (Liquid); method: Chromatography
Pressure, kPa	Mole fraction of propyl vinyl ether	Mole fraction of propan-1-ol	uncertainty	Mole fraction of propan-1-ol	uncertainty	Mole fraction of propyl vinyl ether	uncertainty
37.08	0.1535	0.223	0.0027	0.54	0.0046	0.06	
37.65	0.1057	0.229	0.0027	0.4496	0.0045	0.0503	
37.96	0.0782	0.1937	0.0023	0.3596	0.0036	0.0405	
38.16	0.0335	0.1515	0.0018	0.1804	0.0018	0.02	
41.51	0.3367	0.1853	0.0022	0.4198	0.0042	0.1801	
40.47	0.2017	0.166	0.002	0.2802	0.0028	0.1198	
39.93	0.1438	0.1529	0.0018	0.2096	0.0021	0.0898	
38.29	0.0494	0.0983	0.0012	0.0697	0.0007	0.0311	
43.45	0.3702	0.1498	0.0018	0.2506	0.0025	0.2497	
42.45	0.2961	0.1397	0.0017	0.199	0.002	0.1999	
41.4	0.2229	0.1288	0.0015	0.1496	0.0015	0.1502	
40.15	0.1511	0.107	0.0013	0.0911	0.0009	0.1007	
45.57	0.4582	0.1162	0.0014	0.1501	0.0015	0.3506	
44.06	0.3741	0.109	0.0013	0.1197	0.0012	0.2793	
42.52	0.2906	0.0984	0.0012	0.0893	0.0009	0.2097	
38.75	0.1068	0.0545	0.0007	0.0297	0.0003	0.0695	
45.19	0.4543	0.0563	0.0007	0.0407	0.0004	0.3601	
43.17	0.3578	0.0465	0.0006	0.0298	0.0003	0.27	
41.09	0.2547	0.0359	0.0004	0.0192	0.0002	0.1807	
35.38	0.1127	0.2542	0.0031	0.6	0.004	0.0395	
32.63	0.1059	0.3067	0.0037	0.6983	0.003	0.0296	
28.19	0.097	0.3674	0.0044	0.8007	0.002	0.0194	
40.29	0.3118	0.22	0.0026	0.5008	0.005	0.1497	
38.39	0.3095	0.2354	0.0028	0.5991	0.004	0.12	
35.35	0.2896	0.2886	0.0035	0.6995	0.003	0.0899	
23.19	0.2104	0.4975	0.006	0.8998	0.001	0.0298	
44.37	0.5015	0.1722	0.0021	0.3999	0.004	0.2997	
42.9	0.489	0.1946	0.0023	0.4997	0.005	0.2494	
40.82	0.4766	0.2218	0.0027	0.6003	0.004	0.2	
37.56	0.4549	0.2613	0.0031	0.701	0.003	0.1496	
32.49	0.424	0.3169	0.0038	0.8002	0.002	0.0996	
47.16	0.6421	0.1725	0.0021	0.3999	0.004	0.4194	
45.41	0.6368	0.1854	0.0022	0.4995	0.005	0.3507	
43.03	0.6161	0.2167	0.0026	0.5994	0.004	0.2798	
39.58	0.5901	0.2489	0.003	0.6994	0.003	0.2098	
25.72	0.449	0.436	0.0052	0.9004	0.001	0.0697	
50.2	0.7827	0.1602	0.0019	0.4004	0.004	0.54	
47.95	0.7619	0.1821	0.0022	0.5002	0.005	0.4501	
45.22	0.731	0.2178	0.0026	0.5993	0.004	0.3612	
41.39	0.7104	0.2395	0.0029	0.7001	0.003	0.27	
35.75	0.6535	0.3025	0.0036	0.8006	0.002	0.1799	
46.21	0.504	0.0715	0.0009	0.0601	0.0006	0.3994	
48.26	0.5994	0.0603	0.0007	0.0492	0.0005	0.5004	
50.44	0.6788	0.0493	0.0006	0.0401	0.0004	0.6001	
52.75	0.7621	0.0384	0.0005	0.0295	0.0003	0.6996	
55.27	0.8439	0.0275	0.0003	0.0192	0.0002	0.8	
46.6	0.5231	0.1206	0.0014	0.1795	0.0018	0.3995	
48.71	0.6123	0.1081	0.0013	0.1507	0.0015	0.4997	
50.9	0.6892	0.0949	0.0011	0.1199	0.0012	0.5998	
53.21	0.7665	0.0784	0.0009	0.0891	0.0009	0.7004	
58.11	0.9145	0.0363	0.0004	0.0297	0.0003	0.8997	
46.64	0.5711	0.1479	0.0018	0.3001	0.003	0.3997	
48.85	0.6483	0.1347	0.0016	0.2498	0.0025	0.4995	
51.12	0.7159	0.1212	0.0015	0.1998	0.002	0.5999	
53.45	0.7812	0.1033	0.0012	0.1499	0.0015	0.6996	
55.87	0.846	0.0814	0.001	0.1	0.001	0.8002	
49.04	0.7038	0.1548	0.0019	0.3501	0.0035	0.5	
51.33	0.7555	0.14	0.0017	0.28	0.0028	0.5993	
53.7	0.8087	0.1198	0.0014	0.2098	0.0021	0.7004	
58.44	0.9144	0.0639	0.0008	0.0694	0.0007	0.9004	
51.68	0.8135	0.1504	0.0018	0.3602	0.0036	0.6005	
53.99	0.839	0.1362	0.0016	0.27	0.0027	0.7004	
56.31	0.8736	0.1112	0.0013	0.1792	0.0018	0.801	
