Measured thermophysical data. Studies on mixture of ionic liquid EMIGaCl4 and EMIC
Source: Fluid Phase Equilib., 2005, 10.1016/j.fluid.2004.10.026
Compound 1: 1-ethyl-3-methylimidazolium chloride, C6H11ClN2, InChI=1S/C6H11N2.ClH/c1-3-8-5-4-7(2)6-8;/h4-6H,3H2,1-2H3;1H/q+1;/p-1
Compound 2: 1-ethyl-3-methylimidazolium tetrachlorogallate, C6H11Cl4GaN2, InChI=1S/C6H11N2.4ClH.Ga/c1-3-8-5-4-7(2)6-8;;;;;/h4-6H,3H2,1-2H3;4*1H;/q+1;;;;;+3/p-4

System: 1-ethyl-3-methylimidazolium chloride + 1-ethyl-3-methylimidazolium tetrachlorogallate; phases: Liquid
Fixed: Pressure, kPa = 101
Property: Mass density, kg/m3 (Liquid); method: PYCNOM:UFactor:16
Temperature, K	Molality, mol/kg of 1-ethyl-3-methylimidazolium chloride	Mass density, kg/m3	uncertainty
308.15	0	1494.1	9.6
308.15	0.1265	1485.2	9.5
308.15	0.2582	1476.3	9.4
308.15	0.3956	1467.5	9.3
308.15	0.5389	1458.6	9.2
308.15	0.6886	1449.7	9.2
313.15	0	1489.9	9.7
313.15	0.1265	1481	9.7
313.15	0.2582	1472.2	9.6
313.15	0.3956	1463.4	9.5
313.15	0.5389	1454.6	9.4
313.15	0.6886	1445.8	9.4
323.15	0	1481.4	10.1
323.15	0.1265	1472.7	10.1
323.15	0.2582	1464	10
323.15	0.3956	1455.3	9.9
323.15	0.5389	1446.5	9.8
323.15	0.6886	1437.8	9.7
333.15	0	1473	10.5
333.15	0.1265	1464.4	10.4
333.15	0.2582	1455.8	10.4
333.15	0.3956	1447.2	10.3
333.15	0.5389	1438.6	10.2
333.15	0.6886	1430	10.1
343.15	0	1464.6	10.9
343.15	0.1265	1456.1	10.8
343.15	0.2582	1447.6	10.8
343.15	0.3956	1439.1	10.7
343.15	0.5389	1430.6	10.6
343.15	0.6886	1422.1	10.5
