Measured thermophysical data. High-pressure phase behavior of tri-ethylene glycol dimethacrylate and tetra-ethylene glycol dimethacrylate in supercritical carbon dioxide
Source: Fluid Phase Equilib., 2012, 10.1016/j.fluid.2011.12.011
Compound 1: ((oxybis(ethane-2,1-diyl))bis(oxy))bis(ethane-2,1-diyl) bis(2-methylacrylate), C16H26O7, InChI=1S/C16H26O7/c1-13(2)15(17)22-11-9-20-7-5-19-6-8-21-10-12-23-16(18)14(3)4/h1,3,5-12H2,2,4H3, purity 97%
Compound 2: carbon dioxide, CO2, InChI=1S/CO2/c2-1-3, purity 99.999%
Compound 3: ethane-1,2-diylbis(oxyethane-2,1-diyl) bis(2-methylacrylate), C14H22O6, InChI=1S/C14H22O6/c1-11(2)13(15)19-9-7-17-5-6-18-8-10-20-14(16)12(3)4/h1,3,5-10H2,2,4H3, purity 97%

System: ethane-1,2-diylbis(oxyethane-2,1-diyl) bis(2-methylacrylate) + carbon dioxide; phases: Fluid (supercritical or subcritical phases), Crystal
Property: Vapor or sublimation pressure, kPa (Fluid (supercritical or subcritical phases)); method: Visual observation of a second phase
Temperature, K	Mole fraction of carbon dioxide	Vapor or sublimation pressure, kPa	uncertainty
313.2	0.563	4150	40
313.2	0.601	4740	40
313.2	0.667	5500	40
313.2	0.696	5920	40
313.2	0.776	7080	40
313.2	0.797	7510	40
313.2	0.839	7950	40
313.2	0.896	9050	50
313.2	0.937	10150	50
313.2	0.953	10410	40
323.2	0.563	4900	50
323.2	0.601	5500	50
323.2	0.667	6510	50
323.2	0.696	7010	50
323.2	0.737	7960	50
323.2	0.776	8570	50
323.2	0.797	9160	50
323.2	0.839	9910	60
323.2	0.896	11950	80
323.2	0.937	13680	60
323.2	0.953	13570	30
333.2	0.563	5610	50
333.2	0.601	6350	50
333.2	0.667	7570	50
333.2	0.696	8230	70
333.2	0.737	9700	60
333.2	0.776	10210	50
333.2	0.797	11040	70
333.2	0.839	12180	90
333.2	0.896	14880	90
333.2	0.937	16290	60
333.2	0.953	16460	20
343.2	0.563	6510	60
343.2	0.601	7140	60
343.2	0.667	8670	70
343.2	0.696	9500	80
343.2	0.737	11170	80
343.2	0.776	11950	70
343.2	0.797	12950	90
343.2	0.839	14520	100
343.2	0.896	17560	100
343.2	0.937	18910	60
343.2	0.953	19140	20
353.2	0.563	7290	60
353.2	0.601	7890	70
353.2	0.667	9800	80
353.2	0.696	10870	100
353.2	0.737	12680	90
353.2	0.776	13730	80
353.2	0.797	14920	110
353.2	0.839	17030	120
353.2	0.896	20240	90
353.2	0.937	21060	40
353.2	0.953	21220	30
363.2	0.563	8080	60
363.2	0.601	8750	80
363.2	0.667	10970	90
363.2	0.696	12280	110
363.2	0.737	14390	100
363.2	0.776	15560	100
363.2	0.797	16870	130
363.2	0.839	19260	110
363.2	0.896	22040	90
363.2	0.937	23170	50
363.2	0.953	23300	30

System: ((oxybis(ethane-2,1-diyl))bis(oxy))bis(ethane-2,1-diyl) bis(2-methylacrylate) + carbon dioxide; phases: Fluid (supercritical or subcritical phases), Crystal
Property: Vapor or sublimation pressure, kPa (Fluid (supercritical or subcritical phases)); method: Visual observation of a second phase
Temperature, K	Mole fraction of carbon dioxide	Vapor or sublimation pressure, kPa	uncertainty
313.2	0.613	4440	50
323.2	0.613	5310	40
323.2	0.663	6000	50
323.2	0.684	6560	60
323.2	0.75	8050	60
323.2	0.803	9620	70
323.2	0.843	10740	100
323.2	0.883	13630	120
323.2	0.912	14630	80
323.2	0.926	15350	80
323.2	0.943	15900	30
323.2	0.968	15960	20
333.2	0.613	6120	50
333.2	0.663	6990	50
333.2	0.684	7610	70
333.2	0.75	9440	70
333.2	0.803	11490	90
333.2	0.843	13260	130
333.2	0.883	16520	130
333.2	0.912	17600	90
333.2	0.926	18450	100
333.2	0.943	19050	30
333.2	0.968	18980	30
343.2	0.613	7070	60
343.2	0.663	8140	60
343.2	0.684	8780	80
343.2	0.75	11010	90
343.2	0.803	13600	110
343.2	0.843	15940	140
343.2	0.883	19030	140
343.2	0.912	20340	100
343.2	0.926	21050	80
343.2	0.943	21510	20
343.2	0.968	21240	20
353.2	0.613	8010	70
353.2	0.663	9260	70
353.2	0.684	9970	90
353.2	0.75	12680	110
353.2	0.803	15740	130
353.2	0.843	18450	150
353.2	0.883	21580	140
353.2	0.912	22890	100
353.2	0.926	23720	80
353.2	0.943	24060	20
353.2	0.968	23720	40
363.2	0.613	8980	80
363.2	0.663	10370	80
363.2	0.684	11250	100
363.2	0.75	14010	120
363.2	0.803	17860	150
363.2	0.843	20450	160
363.2	0.883	24110	150
363.2	0.912	25370	90
363.2	0.926	25990	70
363.2	0.943	26340	30
363.2	0.968	26060	30
