Measured thermophysical data. Excess Gibbs energies of selected binary mixtures formed by N,N-dimethyl formamide at 95.5 kPa
Source: Fluid Phase Equilib., 2006, 10.1016/j.fluid.2006.08.018
Compound 1: dimethylformamide, C3H7NO, InChI=1S/C3H7NO/c1-4(2)3-5/h3H,1-2H3
Compound 2: 1,2-dichloroethane, C2H4Cl2, InChI=1S/C2H4Cl2/c3-1-2-4/h1-2H2
Compound 3: 1,1,2,2-tetrachloroethane, C2H2Cl4, InChI=1S/C2H2Cl4/c3-1(4)2(5)6/h1-2H
Compound 4: trichloroethene, C2HCl3, InChI=1S/C2HCl3/c3-1-2(4)5/h1H
Compound 5: tetrachloroethene, C2Cl4, InChI=1S/C2Cl4/c3-1(4)2(5)6
Compound 6: ethanol, C2H6O, InChI=1S/C2H6O/c1-2-3/h3H,2H2,1H3
Compound 7: 2-methyl-1-propanol, C4H10O, InChI=1S/C4H10O/c1-4(2)3-5/h4-5H,3H2,1-2H3
Compound 8: butan-2-ol, C4H10O, InChI=1S/C4H10O/c1-3-4(2)5/h4-5H,3H2,1-2H3
Compound 9: 2-methylpropan-2-ol, C4H10O, InChI=1S/C4H10O/c1-4(2,3)5/h5H,1-3H3

System: dimethylformamide; phases: Liquid
Property: Refractive index (Na D-line) (Liquid); method: Standard Abbe refractometry
Temperature, K	Pressure, kPa	Refractive index (Na D-line)	uncertainty
298.15	101.325	1.4282	0.0007

System: dimethylformamide; phases: Liquid
Property: Mass density, kg/m3 (Liquid); method: PYCNOM:UFactor:8
Temperature, K	Pressure, kPa	Mass density, kg/m3	uncertainty
298.15	101.325	943.9	2.5

System: dimethylformamide; phases: Liquid, Gas
Property: Vapor or sublimation pressure, kPa (Liquid); method: EBULLIO:UFactor:8
Temperature, K	Vapor or sublimation pressure, kPa	uncertainty
421.15	95.5	4

System: 1,2-dichloroethane; phases: Liquid
Property: Refractive index (Na D-line) (Liquid); method: Standard Abbe refractometry
Temperature, K	Pressure, kPa	Refractive index (Na D-line)	uncertainty
293.15	101.325	1.4448	0.0008

System: 1,2-dichloroethane; phases: Liquid
Property: Mass density, kg/m3 (Liquid); method: PYCNOM:UFactor:8
Temperature, K	Pressure, kPa	Mass density, kg/m3	uncertainty
293.15	101.325	1252.1	3.8

System: 1,2-dichloroethane; phases: Liquid, Gas
Property: Vapor or sublimation pressure, kPa (Liquid); method: EBULLIO:UFactor:8
Temperature, K	Vapor or sublimation pressure, kPa	uncertainty
355.15	95.5	4

System: 1,1,2,2-tetrachloroethane; phases: Liquid
Property: Refractive index (Na D-line) (Liquid); method: Standard Abbe refractometry
Temperature, K	Pressure, kPa	Refractive index (Na D-line)	uncertainty
293.15	101.325	1.494	0.0008

System: 1,1,2,2-tetrachloroethane; phases: Liquid
Property: Mass density, kg/m3 (Liquid); method: PYCNOM:UFactor:8
Temperature, K	Pressure, kPa	Mass density, kg/m3	uncertainty
293.15	101.325	1594.5	5.1

System: 1,1,2,2-tetrachloroethane; phases: Liquid, Gas
Property: Vapor or sublimation pressure, kPa (Liquid); method: EBULLIO:UFactor:8
Temperature, K	Vapor or sublimation pressure, kPa	uncertainty
417.25	95.5	4

System: trichloroethene; phases: Liquid
Property: Refractive index (Na D-line) (Liquid); method: Standard Abbe refractometry
Temperature, K	Pressure, kPa	Refractive index (Na D-line)	uncertainty
293.15	101.325	1.4782	0.0008

System: trichloroethene; phases: Liquid
Property: Mass density, kg/m3 (Liquid); method: PYCNOM:UFactor:8
Temperature, K	Pressure, kPa	Mass density, kg/m3	uncertainty
293.15	101.325	1464	4.6

System: trichloroethene; phases: Liquid, Gas
Property: Vapor or sublimation pressure, kPa (Liquid); method: EBULLIO:UFactor:8
Temperature, K	Vapor or sublimation pressure, kPa	uncertainty
357.85	95.5	4

System: tetrachloroethene; phases: Liquid
Property: Refractive index (Na D-line) (Liquid); method: Standard Abbe refractometry
Temperature, K	Pressure, kPa	Refractive index (Na D-line)	uncertainty
293.15	101.325	1.5058	0.0008

System: tetrachloroethene; phases: Liquid
Property: Mass density, kg/m3 (Liquid); method: PYCNOM:UFactor:8
Temperature, K	Pressure, kPa	Mass density, kg/m3	uncertainty
293.15	101.325	1622.8	5.3

System: tetrachloroethene; phases: Liquid, Gas
Property: Vapor or sublimation pressure, kPa (Liquid); method: EBULLIO:UFactor:8
Temperature, K	Vapor or sublimation pressure, kPa	uncertainty
392.15	95.5	4

System: ethanol; phases: Liquid
Property: Refractive index (Na D-line) (Liquid); method: Standard Abbe refractometry
Temperature, K	Pressure, kPa	Refractive index (Na D-line)	uncertainty
298.15	101.325	1.3591	0.0008

System: ethanol; phases: Liquid
Property: Mass density, kg/m3 (Liquid); method: PYCNOM:UFactor:8
Temperature, K	Pressure, kPa	Mass density, kg/m3	uncertainty
298.15	101.325	784.9	2.1

System: ethanol; phases: Liquid, Gas
Property: Vapor or sublimation pressure, kPa (Liquid); method: EBULLIO:UFactor:8
Temperature, K	Vapor or sublimation pressure, kPa	uncertainty
349.95	95.5	4

System: 2-methyl-1-propanol; phases: Liquid
Property: Refractive index (Na D-line) (Liquid); method: Standard Abbe refractometry
Temperature, K	Pressure, kPa	Refractive index (Na D-line)	uncertainty
298.15	101.325	1.3939	0.0008

System: 2-methyl-1-propanol; phases: Liquid
Property: Mass density, kg/m3 (Liquid); method: PYCNOM:UFactor:8
Temperature, K	Pressure, kPa	Mass density, kg/m3	uncertainty
298.15	101.325	797.8	2.1

System: 2-methyl-1-propanol; phases: Liquid, Gas
Property: Vapor or sublimation pressure, kPa (Liquid); method: EBULLIO:UFactor:12
Temperature, K	Vapor or sublimation pressure, kPa	uncertainty
379.76	95.5	5

System: butan-2-ol; phases: Liquid
Property: Refractive index (Na D-line) (Liquid); method: Standard Abbe refractometry
Temperature, K	Pressure, kPa	Refractive index (Na D-line)	uncertainty
298.15	101.325	1.3953	0.0008

System: butan-2-ol; phases: Liquid
Property: Mass density, kg/m3 (Liquid); method: PYCNOM:UFactor:8
Temperature, K	Pressure, kPa	Mass density, kg/m3	uncertainty
298.15	101.325	802.4	2.2

System: butan-2-ol; phases: Liquid, Gas
Property: Vapor or sublimation pressure, kPa (Liquid); method: EBULLIO:UFactor:8
Temperature, K	Vapor or sublimation pressure, kPa	uncertainty
371.25	95.5	4

System: 2-methylpropan-2-ol; phases: Liquid
Property: Refractive index (Na D-line) (Liquid); method: Standard Abbe refractometry
Temperature, K	Pressure, kPa	Refractive index (Na D-line)	uncertainty
298.15	101.325	1.3852	0.0008

System: 2-methylpropan-2-ol; phases: Liquid
Property: Mass density, kg/m3 (Liquid); method: PYCNOM:UFactor:8
Temperature, K	Pressure, kPa	Mass density, kg/m3	uncertainty
298.15	101.325	781.2	2.1

System: 2-methylpropan-2-ol; phases: Liquid, Gas
Property: Vapor or sublimation pressure, kPa (Liquid); method: EBULLIO:UFactor:8
Temperature, K	Vapor or sublimation pressure, kPa	uncertainty
354.15	95.5	4

System: dimethylformamide + 1,2-dichloroethane; phases: Liquid, Gas
Fixed: Pressure, kPa = 95.5
Property: Boiling temperature at pressure P, K (Liquid); method: EBULLIO:UFactor:8
Mole fraction of 1,2-dichloroethane	Boiling temperature at pressure P, K	uncertainty
0	421.15	0.69
0.0502	415.85	0.69
0.0756	413.15	0.69
0.1502	405.51	0.69
0.1952	401.15	0.69
0.2502	395.95	0.69
0.2905	392.35	0.69
0.3501	387.45	0.69
0.3958	383.95	0.69
0.4501	380.15	0.69
0.4956	377.15	0.69
0.5501	373.95	0.69
0.5958	371.25	0.69
0.6501	368.55	0.69
0.7022	366.05	0.69
0.7501	363.95	0.69
0.7972	362.05	0.69
0.8501	360.05	0.69
0.9218	357.55	0.69
0.9501	356.65	0.69
1	355.15	0.69

System: dimethylformamide + 1,1,2,2-tetrachloroethane; phases: Liquid, Gas
Fixed: Pressure, kPa = 95.5
Property: Boiling temperature at pressure P, K (Liquid); method: EBULLIO:UFactor:8
Mole fraction of 1,1,2,2-tetrachloroethane	Boiling temperature at pressure P, K	uncertainty
0	421.15	0.69
0.0502	420.85	0.69
0.1094	420.55	0.69
0.1501	420.35	0.69
0.1972	420.15	0.69
0.2501	419.85	0.69
0.3004	419.55	0.69
0.3501	419.35	0.69
0.4032	418.85	0.69
0.4501	419.05	0.69
0.4956	418.65	0.69
0.5501	418.35	0.69
0.5958	418.15	0.69
0.6501	417.95	0.69
0.6886	417.75	0.69
0.7502	417.55	0.69
0.8192	417.35	0.69
0.8502	417.25	0.69
0.8984	417.25	0.69
0.9502	417.15	0.69
1	417.25	0.69

System: dimethylformamide + trichloroethene; phases: Liquid, Gas
Fixed: Pressure, kPa = 95.5
Property: Boiling temperature at pressure P, K (Liquid); method: EBULLIO:UFactor:8
Mole fraction of trichloroethene	Boiling temperature at pressure P, K	uncertainty
0	421.15	0.69
0.0502	407.85	0.69
0.1255	395.15	0.69
0.1501	392.15	0.69
0.2231	385.25	0.69
0.2501	383.25	0.69
0.3011	380.05	0.69
0.3501	377.45	0.69
0.3925	375.55	0.69
0.4502	373.25	0.69
0.5013	371.45	0.69
0.5501	369.85	0.69
0.605	368.15	0.69
0.6502	366.95	0.69
0.6967	365.65	0.69
0.7501	364.25	0.69
0.8213	362.55	0.69
0.8503	361.65	0.69
0.9324	359.55	0.69
0.9501	359.15	0.69
1	357.85	0.69

System: dimethylformamide + tetrachloroethene; phases: Liquid, Gas
Fixed: Pressure, kPa = 95.5
Property: Boiling temperature at pressure P, K (Liquid); method: EBULLIO:UFactor:8
Mole fraction of tetrachloroethene	Boiling temperature at pressure P, K	uncertainty
0	421.15	0.69
0.0502	413.45	0.69
0.1119	407.15	0.69
0.1501	404.35	0.69
0.2014	401.35	0.69
0.2501	399.25	0.69
0.3062	397.35	0.69
0.3502	396.15	0.69
0.4095	394.85	0.69
0.4501	394.15	0.69
0.5021	393.55	0.69
0.5501	392.85	0.69
0.602	392.25	0.69
0.6502	391.85	0.69
0.6941	391.55	0.69
0.7501	391.25	0.69
0.8193	390.95	0.69
0.8501	390.95	0.69
0.9008	391.05	0.69
0.9501	391.35	0.69
1	392.15	0.69

System: ethanol + dimethylformamide; phases: Liquid, Gas
Fixed: Pressure, kPa = 95.5
Property: Boiling temperature at pressure P, K (Liquid); method: EBULLIO:UFactor:8
Mole fraction of ethanol	Boiling temperature at pressure P, K	uncertainty
0	421.15	0.69
0.0511	414.05	0.69
0.0993	408.45	0.69
0.1501	403.35	0.69
0.1801	400.55	0.69
0.251	394.65	0.69
0.2957	391.25	0.69
0.3501	387.25	0.69
0.3987	383.95	0.69
0.4502	380.65	0.69
0.4986	377.55	0.69
0.5501	374.35	0.69
0.5913	371.85	0.69
0.6503	368.35	0.69
0.6945	365.75	0.69
0.7504	362.55	0.69
0.7991	359.75	0.69
0.8502	356.85	0.69
0.8883	354.65	0.69
0.9501	351.65	0.69
1	349.95	0.69

System: dimethylformamide + 2-methyl-1-propanol; phases: Liquid, Gas
Fixed: Pressure, kPa = 95.5
Property: Boiling temperature at pressure P, K (Liquid); method: EBULLIO:UFactor:12
Mole fraction of 2-methyl-1-propanol	Boiling temperature at pressure P, K	uncertainty
0	421.15	1.03
0.0512	417.45	1.03
0.089	414.95	1.03
0.1501	411.45	1.03
0.1918	408.55	1.03
0.251	405.45	1.03
0.2952	403.45	1.03
0.3501	400.55	1.03
0.4111	397.75	1.03
0.4501	396.15	1.03
0.5013	394.25	1.03
0.5502	392.25	1.03
0.6185	389.35	1.03
0.6503	388.85	1.03
0.705	387.15	1.03
0.7502	385.75	1.03
0.8204	383.85	1.03
0.8501	383.15	1.03
0.8933	382.05	1.03
0.9502	380.75	1.03
1	379.76	1.03

System: dimethylformamide + butan-2-ol; phases: Liquid, Gas
Fixed: Pressure, kPa = 95.5
Property: Boiling temperature at pressure P, K (Liquid); method: EBULLIO:UFactor:8
Mole fraction of butan-2-ol	Boiling temperature at pressure P, K	uncertainty
0	421.15	0.69
0.0502	415.65	0.69
0.1232	408.75	0.69
0.1502	406.55	0.69
0.2194	401.45	0.69
0.2502	399.35	0.69
0.2965	396.55	0.69
0.3502	393.65	0.69
0.4126	390.35	0.69
0.4502	388.65	0.69
0.4958	386.65	0.69
0.5502	384.45	0.69
0.591	382.75	0.69
0.6502	380.75	0.69
0.7166	378.75	0.69
0.7502	377.65	0.69
0.8349	375.25	0.69
0.8502	374.85	0.69
0.91	373.35	0.69
0.9502	372.35	0.69
1	371.25	0.69

System: dimethylformamide + 2-methylpropan-2-ol; phases: Liquid, Gas
Fixed: Pressure, kPa = 95.5
Property: Boiling temperature at pressure P, K (Liquid); method: EBULLIO:UFactor:8
Mole fraction of 2-methylpropan-2-ol	Boiling temperature at pressure P, K	uncertainty
0	421.15	0.69
0.0503	411.55	0.69
0.1205	401.25	0.69
0.1502	397.55	0.69
0.2151	390.75	0.69
0.2502	387.55	0.69
0.2913	384.15	0.69
0.3502	379.85	0.69
0.4066	376.25	0.69
0.4502	373.75	0.69
0.5068	370.75	0.69
0.5502	368.75	0.69
0.6218	365.65	0.69
0.6502	364.45	0.69
0.7115	362.35	0.69
0.7502	361.05	0.69
0.8134	359.05	0.69
0.8502	357.95	0.69
0.9079	356.35	0.69
0.9502	355.35	0.69
1	354.15	0.69
