Measured thermophysical data. The solubility of H2S in liquid sulfur
Source: Fluid Phase Equilib., 2008, 10.1016/j.fluid.2008.05.001
Compound 1: sulfur, S, InChI=1S/S
Compound 2: hydrogen sulfide, H2S, InChI=1S/H2S/h1H2

System: sulfur + hydrogen sulfide; phases: Gas, Liquid
Property: Vapor or sublimation pressure, kPa (Gas); method: CCELL:UFactor:32
Temperature, K	Mass fraction of hydrogen sulfide	Vapor or sublimation pressure, kPa	uncertainty
393.25	3e-06	0.42	0.36
393.25	2.8e-05	4.7	1.2
393.25	8.2e-05	13.3	2.3
393.25	0.000139	20.3	3.2
393.25	0.000163	28.2	4.3
393.25	0.000195	29.3	4.4
393.25	0.000213	32.2	4.8
393.25	0.000242	36.9	5.4
393.25	0.000281	42.8	6.1
393.25	0.000325	56.1	7.8
423.15	0.000108	9.7	1.9
423.15	0.00011	9.7	1.9
423.15	0.000127	13.4	2.4
423.15	0.000148	14.4	2.5
423.15	0.000174	15.8	2.7
423.15	0.000294	29.9	4.5
423.15	0.000394	40.1	5.8
428.15	1.3e-05	0.4	0.3
428.15	5.4e-05	2.2	1.1
428.15	5.5e-05	2.1	1
428.15	6.5e-05	2.5	1
428.15	0.000119	6.3	1.5
428.15	0.000144	7.9	1.7
428.15	0.000146	8.6	1.8
428.15	0.000199	11.1	2.1
428.15	0.000239	16.1	2.7
428.15	0.000284	18	3
428.15	0.000286	19.2	3.1
428.15	0.000375	26.3	4.1
428.15	0.000381	26.3	4
428.15	0.000401	32.1	4.8
428.15	0.000444	35.2	5.2
428.15	0.0005	41.7	6
428.15	0.000542	44.4	6.3
