Measured thermophysical data. Liquid liquid equilibria of (water + 2,3-butanediol + 2-ethyl-1-hexanol) at several temperatures
Source: Fluid Phase Equilib., 2006, 10.1016/j.fluid.2006.06.025
Compound 1: 2,3-butanediol, C4H10O2, InChI=1S/C4H10O2/c1-3(5)4(2)6/h3-6H,1-2H3
Compound 2: water, H2O, InChI=1S/H2O/h1H2
Compound 3: 2-ethyl-1-hexanol, C8H18O, InChI=1S/C8H18O/c1-3-5-6-8(4-2)7-9/h8-9H,3-7H2,1-2H3

System: 2-ethyl-1-hexanol + 2,3-butanediol + water; phases: Liquid mixture 1, Liquid mixture 2
Fixed: Pressure, kPa = 101.33
Property: Mole fraction of 2,3-butanediol (Liquid mixture 1); method: Chromatography
Property: Mole fraction of 2,3-butanediol (Liquid mixture 2); method: Chromatography
Property: Mole fraction of water (Liquid mixture 2); method: Chromatography
Temperature, K	Mole fraction of water	Mole fraction of 2,3-butanediol	uncertainty	Mole fraction of 2,3-butanediol	uncertainty	Mole fraction of water	uncertainty
300.2	0.9521	0.0478	0.0085	0.0867	0.0236	0.0833	
300.2	0.932	0.0678	0.0085	0.1219	0.0183	0.096	
300.2	0.9067	0.0931	0.0084	0.1552	0.0175	0.116	
300.2	0.8707	0.1279	0.0083	0.1903	0.0191	0.131	
300.2	0.84	0.1568	0.0083	0.2222	0.0217	0.147	
300.2	0.8201	0.1752	0.0082	0.28	0.0192	0.167	
300.2	0.77	0.2206	0.0082	0.3277	0.0141	0.195	
300.2	0.7361	0.2503	0.0077	0.3921	0.0102	0.2453	
300.2	0.6183	0.335	0.0078	0.423	0.0091	0.324	
305.2	0.9522	0.0477	0.0085	0.0865	0.0206	0.0869	
305.2	0.9139	0.0856	0.0085	0.1399	0.0205	0.1092	
305.2	0.8917	0.108	0.0084	0.18	0.0181	0.1258	
305.2	0.86	0.1381	0.0083	0.2055	0.0156	0.1418	
305.2	0.8208	0.1753	0.0082	0.2484	0.0152	0.1672	
305.2	0.7977	0.194	0.008	0.28	0.0147	0.189	
305.2	0.7773	0.214	0.0082	0.318	0.0153	0.2149	
305.2	0.7377	0.2498	0.0086	0.351	0.0132	0.233	
305.2	0.68	0.31	0.009	0.3901	0.0134	0.27	
310.2	0.9522	0.0476	0.0084	0.0876	0.0198	0.0904	
310.2	0.9144	0.085	0.0086	0.1409	0.0205	0.1131	
310.2	0.889	0.112	0.0084	0.178	0.0201	0.129	
310.2	0.8617	0.1364	0.0082	0.217	0.0162	0.1455	
310.2	0.8213	0.1747	0.0086	0.249	0.0132	0.1675	
310.2	0.793	0.205	0.0081	0.283	0.0114	0.192	
310.2	0.739	0.2483	0.0077	0.3256	0.0105	0.2323	
310.2	0.678	0.2922	0.0074	0.3786	0.0101	0.2969	
310.2	0.584	0.35	0.0075	0.41	0.0094	0.376	
315.2	0.9999	0	0.0001	0	0.0001	0.06	
315.2	0.9523	0.0475	0.0085	0.097	0.0222	0.095	
315.2	0.9074	0.0918	0.0084	0.1515	0.0228	0.119	
315.2	0.8634	0.1347	0.0083	0.22	0.0268	0.141	
315.2	0.7572	0.2323	0.0082	0.27	0.0222	0.1561	
315.2	0.7052	0.277	0.0081	0.33	0.016	0.183	
315.2	0.615	0.353	0.0082	0.395	0.0125	0.229	
315.2	0.532	0.4198	0.008	0.44	0.0101	0.282	
315.2	0.4521	0.467	0.0079	0.46	0.0094	0.339	
