Measured thermophysical data. Prediction of refractive index and density of deep eutectic solvents using atomic contributions
Source: Fluid Phase Equilib., 2013, 10.1016/j.fluid.2013.06.050
Compound 1: glycerol, C3H8O3, InChI=1S/C3H8O3/c4-1-3(6)2-5/h3-6H,1-2H2, purity 99%
Compound 2: choline chloride, C5H14ClNO, InChI=1S/C5H14NO.ClH/c1-6(2,3)4-5-7;/h7H,4-5H2,1-3H3;1H/q+1;/p-1, purity 98%
Compound 3: 1,2-ethanediol, C2H6O2, InChI=1S/C2H6O2/c3-1-2-4/h3-4H,1-2H2, purity 99%
Compound 4: 1,4-butanediol, C4H10O2, InChI=1S/C4H10O2/c5-3-1-2-4-6/h5-6H,1-4H2, purity 99%
Compound 5: 2-(diethylamino)ethanol hydrochloride, C6H16ClNO, InChI=1S/C6H15NO.ClH/c1-3-7(4-2)5-6-8;/h8H,3-6H2,1-2H3;1H, purity 98%
Compound 6: methyltriphenylphosphonium bromide, C19H18BrP, InChI=1S/C19H18P.BrH/c1-20(17-11-5-2-6-12-17,18-13-7-3-8-14-18)19-15-9-4-10-16-19;/h2-16H,1H3;1H/q+1;/p-1, purity 98%
Compound 7: triethylene glycol, C6H14O4, InChI=1S/C6H14O4/c7-1-3-9-5-6-10-4-2-8/h7-8H,1-6H2, purity 99%

System: glycerol + choline chloride; phases: Liquid, Crystal
Fixed: Pressure, kPa = 101
Property: Solid-liquid equilibrium temperature, K (Liquid); method: DTA
Mole fraction of choline chloride	Solid-liquid equilibrium temperature, K	uncertainty
0.5	281.18	2.03
0.34	237	2.03
0.25	240.5	2.03

System: glycerol + choline chloride; phases: Liquid
Fixed: Pressure, kPa = 101
Fixed: Temperature, K = 298.15
Property: Mass density, kg/m3 (Liquid); method: VIBTUB:mpoint
Mole fraction of choline chloride	Mass density, kg/m3	uncertainty
0.5	1162.2	12
0.34	1192.4	12
0.25	1203.5	12

System: glycerol + choline chloride; phases: Liquid
Fixed: Temperature, K = 298.15
Fixed: Pressure, kPa = 101
Property: Refractive index (Na D-line) (Liquid); method: Standard Abbe refractometry
Mole fraction of choline chloride	Refractive index (Na D-line)	uncertainty
0.5	1.491	0.0011
0.34	1.4852	0.0011
0.25	1.4818	0.0011

System: choline chloride + 1,2-ethanediol; phases: Liquid, Crystal
Fixed: Pressure, kPa = 101
Property: Solid-liquid equilibrium temperature, K (Liquid); method: DTA
Mole fraction of choline chloride	Solid-liquid equilibrium temperature, K	uncertainty
0.36	239.83	2.03
0.34	207.14	2.03
0.28	277.3	2.03

System: choline chloride + 1,2-ethanediol; phases: Liquid
Fixed: Temperature, K = 298.15
Fixed: Pressure, kPa = 101
Property: Mass density, kg/m3 (Liquid); method: VIBTUB:mpoint
Mole fraction of choline chloride	Mass density, kg/m3	uncertainty
0.36	1118.4	12
0.34	1117.7	12
0.28	1117.3	12

System: choline chloride + 1,2-ethanediol; phases: Liquid
Fixed: Temperature, K = 298.15
Fixed: Pressure, kPa = 101
Property: Refractive index (Na D-line) (Liquid); method: Standard Abbe refractometry
Mole fraction of choline chloride	Refractive index (Na D-line)	uncertainty
0.36	1.4678	0.0011
0.34	1.465	0.0011
0.28	1.4611	0.0011

System: choline chloride + 1,4-butanediol; phases: Liquid, Crystal
Fixed: Pressure, kPa = 101
Property: Solid-liquid equilibrium temperature, K (Liquid); method: DTA
Mole fraction of choline chloride	Solid-liquid equilibrium temperature, K	uncertainty
0.34	261.71	2.03
0.28	249.07	2.03
0.25	241.15	2.03

System: choline chloride + 1,4-butanediol; phases: Liquid
Fixed: Temperature, K = 298.15
Fixed: Pressure, kPa = 101
Property: Mass density, kg/m3 (Liquid); method: VIBTUB:mpoint
Mole fraction of choline chloride	Mass density, kg/m3	uncertainty
0.34	1073.1	12
0.28	1067	12
0.25	1061	12

System: choline chloride + 1,4-butanediol; phases: Liquid
Fixed: Temperature, K = 298.15
Fixed: Pressure, kPa = 101
Property: Refractive index (Na D-line) (Liquid); method: Standard Abbe refractometry
Mole fraction of choline chloride	Refractive index (Na D-line)	uncertainty
0.34	1.4718	0.0011
0.28	1.468	0.0011
0.25	1.4656	0.0011

System: glycerol + 2-(diethylamino)ethanol hydrochloride; phases: Liquid, Crystal
Fixed: Pressure, kPa = 101
Property: Solid-liquid equilibrium temperature, K (Liquid); method: DTA
Mole fraction of 2-(diethylamino)ethanol hydrochloride	Solid-liquid equilibrium temperature, K	uncertainty
0.34	271.82	2.03
0.25	274.85	2.03
0.2	275.12	2.03

System: glycerol + 2-(diethylamino)ethanol hydrochloride; phases: Liquid
Fixed: Temperature, K = 298.15
Fixed: Pressure, kPa = 101
Property: Mass density, kg/m3 (Liquid); method: VIBTUB:mpoint
Mole fraction of 2-(diethylamino)ethanol hydrochloride	Mass density, kg/m3	uncertainty
0.34	1183.6	12
0.25	1205.7	12
0.2	1220.4	12

System: glycerol + 2-(diethylamino)ethanol hydrochloride; phases: Liquid
Fixed: Temperature, K = 298.15
Fixed: Pressure, kPa = 101
Property: Refractive index (Na D-line) (Liquid); method: Standard Abbe refractometry
Mole fraction of glycerol	Refractive index (Na D-line)	uncertainty
0.34	1.4853	0.0011
0.25	1.4825	0.0011
0.2	1.4812	0.0011

System: 1,2-ethanediol + 2-(diethylamino)ethanol hydrochloride; phases: Liquid, Crystal
Fixed: Pressure, kPa = 101
Property: Solid-liquid equilibrium temperature, K (Liquid); method: DTA
Mole fraction of 2-(diethylamino)ethanol hydrochloride	Solid-liquid equilibrium temperature, K	uncertainty
0.28	240.03	2.03
0.25	250.9	2.03
0.2	251.48	2.03

System: 1,2-ethanediol + 2-(diethylamino)ethanol hydrochloride; phases: Liquid
Fixed: Temperature, K = 298.15
Fixed: Pressure, kPa = 101
Property: Mass density, kg/m3 (Liquid); method: Vibrating tube method
Mole fraction of 2-(diethylamino)ethanol hydrochloride	Mass density, kg/m3	uncertainty
0.28	1100.6	12
0.25	1101.8	12
0.2	1103.7	12

System: 1,2-ethanediol + 2-(diethylamino)ethanol hydrochloride; phases: Liquid
Fixed: Temperature, K = 298.15
Fixed: Pressure, kPa = 101
Property: Refractive index (Na D-line) (Liquid); method: Standard Abbe refractometry
Mole fraction of 2-(diethylamino)ethanol hydrochloride	Refractive index (Na D-line)	uncertainty
0.28	1.465	0.0011
0.25	1.462	0.0011
0.2	1.4574	0.0011

System: glycerol + methyltriphenylphosphonium bromide; phases: Liquid, Crystal
Fixed: Pressure, kPa = 101
Property: Solid-liquid equilibrium temperature, K (Liquid); method: DTA
Mole fraction of methyltriphenylphosphonium bromide	Solid-liquid equilibrium temperature, K	uncertainty
0.34	276.9	2.03
0.25	267.6	2.03
0.2	288.9	2.03

System: glycerol + methyltriphenylphosphonium bromide; phases: Liquid
Fixed: Temperature, K = 298.15
Fixed: Pressure, kPa = 101
Property: Mass density, kg/m3 (Liquid); method: Vibrating tube method
Mole fraction of methyltriphenylphosphonium bromide	Mass density, kg/m3	uncertainty
0.34	1307.1	12
0.25	1298	12
0.2	1289.3	12

System: glycerol + methyltriphenylphosphonium bromide; phases: Liquid
Fixed: Temperature, K = 298.15
Fixed: Pressure, kPa = 101
Property: Refractive index (Na D-line) (Liquid); method: Standard Abbe refractometry
Mole fraction of methyltriphenylphosphonium bromide	Refractive index (Na D-line)	uncertainty
0.34	1.5917	0.0011
0.25	1.5715	0.0011
0.2	1.5597	0.0011

System: 1,2-ethanediol + methyltriphenylphosphonium bromide; phases: Liquid, Crystal
Fixed: Pressure, kPa = 101
Property: Solid-liquid equilibrium temperature, K (Liquid); method: DTA
Mole fraction of methyltriphenylphosphonium bromide	Solid-liquid equilibrium temperature, K	uncertainty
0.25	226.9	2.03
0.2	223.8	2.03
0.16	224.6	2.03

System: 1,2-ethanediol + methyltriphenylphosphonium bromide; phases: Liquid
Fixed: Temperature, K = 298.15
Fixed: Pressure, kPa = 101
Property: Mass density, kg/m3 (Liquid); method: Vibrating tube method
Mole fraction of methyltriphenylphosphonium bromide	Mass density, kg/m3	uncertainty
0.25	1250.4	12
0.2	1233	12
0.16	1220.2	12

System: 1,2-ethanediol + methyltriphenylphosphonium bromide; phases: Liquid
Fixed: Temperature, K = 298.15
Fixed: Pressure, kPa = 101
Property: Refractive index (Na D-line) (Liquid); method: Standard Abbe refractometry
Mole fraction of methyltriphenylphosphonium bromide	Refractive index (Na D-line)	uncertainty
0.25	1.5678	0.0011
0.2	1.553	0.0011
0.16	1.5398	0.0011

System: triethylene glycol + methyltriphenylphosphonium bromide; phases: Liquid, Crystal
Fixed: Pressure, kPa = 101
Property: Solid-liquid equilibrium temperature, K (Liquid); method: DTA
Mole fraction of methyltriphenylphosphonium bromide	Solid-liquid equilibrium temperature, K	uncertainty
0.25	264.9	2.03
0.2	254.3	2.03
0.16	251.6	2.03

System: triethylene glycol + methyltriphenylphosphonium bromide; phases: Liquid
Fixed: Temperature, K = 298.15
Fixed: Pressure, kPa = 101
Property: Mass density, kg/m3 (Liquid); method: Vibrating tube method
Mole fraction of methyltriphenylphosphonium bromide	Mass density, kg/m3	uncertainty
0.25	1216.4	12
0.2	1199.2	12
0.16	1186	12

System: triethylene glycol + methyltriphenylphosphonium bromide; phases: Liquid
Fixed: Temperature, K = 298.15
Fixed: Pressure, kPa = 101
Property: Refractive index (Na D-line) (Liquid); method: Standard Abbe refractometry
Mole fraction of methyltriphenylphosphonium bromide	Refractive index (Na D-line)	uncertainty
0.25	1.5417	0.0011
0.2	1.5263	0.0011
0.16	1.5178	0.0011
