Measured thermophysical data. Vapour liquid equilibria of the system 1,1,1,2-tetrafluoroethane + monoethylene-glycol dimethylether from 283.15 to 353.15 K: New modified UNIFAC parameters
Source: Fluid Phase Equilib., 2008, 10.1016/j.fluid.2008.07.003
Compound 1: 1,1,1,2-tetrafluoroethane, C2H2F4, InChI=1S/C2H2F4/c3-1-2(4,5)6/h1H2
Compound 2: 1,2-dimethoxyethane, C4H10O2, InChI=1S/C4H10O2/c1-5-3-4-6-2/h3-4H2,1-2H3

System: 1,1,1,2-tetrafluoroethane; phases: Liquid, Gas
Property: Vapor or sublimation pressure, kPa (Liquid); method: CCELL:UFactor:2
Temperature, K	Vapor or sublimation pressure, kPa	uncertainty
283.15	416	2.6
293.15	572.4	3.6
303.15	771.5	4.8
313.15	1017.5	6.4
323.15	1318.8	8.2
333.15	1681.6	10.5
343.15	2114.5	13.2
353.15	2629	16.4

System: 1,2-dimethoxyethane + 1,1,1,2-tetrafluoroethane; phases: Liquid, Gas
Property: Vapor or sublimation pressure, kPa (Liquid); method: CCELL:UFactor:2
Temperature, K	Mole fraction of 1,1,1,2-tetrafluoroethane	Vapor or sublimation pressure, kPa	uncertainty
283.15	0.1652	45	0.3
283.15	0.2293	63.7	0.4
283.15	0.3464	104.4	0.7
283.15	0.4476	146.2	1.1
283.15	0.489	163	1.2
283.15	0.5986	216.6	1.4
283.15	0.6895	264	1.7
283.15	0.7727	308	2
283.15	0.8359	339	2.2
283.15	0.9112	377	2.4
283.15	1	416	2.6
293.15	0.1648	66	0.5
293.15	0.2288	92.3	0.6
293.15	0.3459	149	1.1
293.15	0.4473	204.8	1.4
293.15	0.4883	230	1.5
293.15	0.5984	299	1.9
293.15	0.6884	360	2.3
293.15	0.7713	420.5	2.7
293.15	0.8347	460	2.9
293.15	0.9102	513.6	3.2
293.15	1	572.4	3.6
303.15	0.1642	93.9	0.6
303.15	0.2281	130.3	0.9
303.15	0.3454	205.9	1.4
303.15	0.447	280.2	1.8
303.15	0.4876	311.8	2
303.15	0.5981	403.7	2.6
303.15	0.687	480.5	3
303.15	0.7696	561.1	3.5
303.15	0.833	617.8	3.9
303.15	0.9089	688.9	4.3
303.15	1	771.5	4.8
313.15	0.1635	129.6	0.9
313.15	0.2274	177.9	1.2
313.15	0.3448	277	1.8
313.15	0.4467	373.2	2.4
313.15	0.4867	413.3	2.7
313.15	0.5978	532.1	3.4
313.15	0.6853	630	4
313.15	0.7676	732.8	4.6
313.15	0.8309	807.6	5.1
313.15	0.9072	902.2	5.7
313.15	1	1017.5	6.4
323.15	0.1628	174	1.2
323.15	0.2266	236.5	1.6
323.15	0.3441	364.8	2.4
323.15	0.4464	486.6	3.1
323.15	0.4859	535	3.4
323.15	0.5977	688.5	4.4
323.15	0.6834	810	5.1
323.15	0.7651	940.7	5.9
323.15	0.8282	1038.5	6.5
323.15	0.9049	1166.9	7.3
323.15	1	1318.8	8.2
333.15	0.162	229.1	1.5
333.15	0.2257	308	2
333.15	0.3434	470	3
333.15	0.4462	623.8	4
333.15	0.485	679.2	4.3
333.15	0.5977	871	5.5
333.15	0.6812	1020	6.4
333.15	0.7623	1178	7.4
333.15	0.8251	1304.8	8.2
333.15	0.9021	1473.9	9.2
333.15	1	1681.6	10.5
343.15	0.1611	295.1	2
343.15	0.2248	393.3	2.6
343.15	0.3428	593.2	3.8
343.15	0.4462	783.6	5
343.15	0.4841	853	5.4
343.15	0.598	1080	6.8
343.15	0.6791	1258.5	7.9
343.15	0.7593	1451.2	9.1
343.15	0.8214	1616.4	10.1
343.15	0.8983	1828.8	11.4
343.15	1	2114.5	13.2
353.15	0.1602	374.2	2.5
353.15	0.2239	495.6	3.2
353.15	0.3423	738.2	4.7
353.15	0.4465	968.3	6.2
353.15	0.4835	1054	6.7
353.15	0.5988	1332	8.4
353.15	0.6769	1542	9.7
353.15	0.7558	1774.8	11.1
353.15	0.8171	1971.1	12.3
353.15	0.8935	2236.5	14
353.15	1	2629	16.4
