Measured thermophysical data. Viscosity and density measurements on liquid n-tetradecane at moderately high pressures
Source: Fluid Phase Equilib., 2017, 10.1016/j.fluid.2017.08.025
Compound 1: tetradecane, C14H30, InChI=1S/C14H30/c1-3-5-7-9-11-13-14-12-10-8-6-4-2/h3-14H2,1-2H3, purity 99%

System: tetradecane; phases: Liquid
Property: Mass density, kg/m3 (Liquid); method: Vibrating tube method
Temperature, K	Pressure, kPa	Mass density, kg/m3	uncertainty
283.15	100	770	3.1
283.15	470	770.2	3.1
283.15	960	770.5	3.1
298.15	100	759.4	3
298.15	470	759.7	3.1
298.15	960	760	3.1
298.15	2460	761	3.1
298.15	2950	761.3	3.1
298.15	4930	762.6	3.1
298.15	7410	764.2	3.1
298.15	9890	765.8	3.1
298.15	14850	768.9	3.1
298.15	19810	771.9	3.1
298.15	24770	774.8	3.1
298.15	29730	777.6	3.1
298.15	34690	780.3	3.2
298.15	39650	782.9	3.2
298.15	44610	785.4	3.2
298.15	49570	787.9	3.2
298.15	54530	790.3	3.2
298.15	59490	792.6	3.2
298.15	64450	794.9	3.3
298.15	69410	797.1	3.3
338.15	100	731.4	2.9
338.15	470	731.7	2.9
338.15	960	732.1	2.9
338.15	2460	733.3	2.9
338.15	2950	733.7	2.9
338.15	4930	735.3	3
338.15	7410	737.3	3
338.15	9890	739.2	3
338.15	14850	743	3
338.15	19810	746.5	3
338.15	29730	753.2	3.1
338.15	34690	756.4	3.1
338.15	39650	759.4	3.1
338.15	44610	762.4	3.1
338.15	49570	765.2	3.1
338.15	59490	770.7	3.2
338.15	64450	773.3	3.2
338.15	69410	775.8	3.2
338.15	44610	762.3	3.1
338.15	49570	765.1	3.1
338.15	54530	767.9	3.1
338.15	59490	770.6	3.2
338.15	64450	773.2	3.2
338.15	69410	775.7	3.2
288.15	100	766.4	3.1
288.15	470	766.7	3.1
288.15	960	766.9	3.1
288.15	2460	767.9	3.1
288.15	2950	768.2	3.1
288.15	4930	769.5	3.1
288.15	7410	771	3.1
288.15	9890	772.5	3.1
308.15	100	752.3	3
308.15	470	752.6	3
308.15	2460	754	3
308.15	4930	755.7	3
308.15	9890	759.1	3.1
308.15	14850	762.3	3.1
308.15	19810	765.4	3.1
308.15	24770	768.4	3.1
308.15	29730	771.3	3.1
308.15	34690	774.1	3.1
308.15	39650	776.9	3.2
308.15	44610	779.5	3.2
308.15	49570	782.1	3.2
308.15	54530	784.5	3.2
308.15	59490	787	3.2
308.15	64450	789.3	3.2
308.15	69410	791.6	3.3
358.15	100	717.2	2.9
358.15	470	717.5	2.9
358.15	960	718	2.9
358.15	2460	719.4	2.9
358.15	2950	719.8	2.9
358.15	4930	721.6	2.9
358.15	7410	723.8	2.9
358.15	9890	725.9	2.9
358.15	14850	730	2.9
358.15	19810	733.9	3
358.15	24770	737.6	3
358.15	29730	741.2	3
358.15	34690	744.6	3
358.15	39650	747.8	3
358.15	44610	751	3.1
358.15	49570	754	3.1
358.15	54530	757	3.1
358.15	59490	759.8	3.1
358.15	64450	762.5	3.1
358.15	69410	765.2	3.2
293.15	100	762.9	3.1
293.15	470	763.2	3.1
293.15	960	763.5	3.1
293.15	2460	764.5	3.1
293.15	2950	764.8	3.1
293.15	4930	766	3.1
293.15	7410	767.6	3.1
293.15	9890	769.2	3.1
318.15	100	745.4	3
318.15	470	745.6	3
318.15	960	746	3
318.15	2460	747.1	3
318.15	2950	747.4	3
318.15	4930	748.9	3
318.15	7410	750.7	3
318.15	9890	752.4	3
318.15	14850	755.8	3
318.15	19810	759.1	3.1
318.15	24770	762.3	3.1
318.15	29730	765.2	3.1
318.15	34690	768.2	3.1
318.15	39650	771	3.1
318.15	44610	773.8	3.1
318.15	49570	776.4	3.2
318.15	54530	779	3.2
318.15	59490	781.5	3.2
318.15	64450	784	3.2
318.15	69410	786.3	3.2
373.15	100	706.5	2.8
373.15	470	706.8	2.8
373.15	960	707.3	2.8
373.15	2460	708.8	2.9
373.15	2950	709.3	2.9
373.15	4930	711.3	2.9
373.15	7410	713.6	2.9
373.15	9890	715.9	2.9
373.15	14850	720.3	2.9
373.15	19810	724.5	2.9
373.15	24770	728.5	3
373.15	29730	732.2	3
373.15	34690	735.8	3
373.15	39650	739.3	3
373.15	44610	742.6	3
373.15	49570	745.7	3.1
373.15	54530	748.8	3.1
373.15	59490	751.8	3.1
373.15	64450	754.6	3.1
373.15	69410	757.4	3.1

System: tetradecane; phases: Liquid
Fixed: Pressure, kPa = 100
Property: Viscosity, Pa*s (Liquid); method: Capillary tube (Ostwald; Ubbelohde) method
Temperature, K	Viscosity, Pa*s	uncertainty
283.35	0.002921	9.6e-05
288.49	0.002589	8.5e-05
298.44	0.002087	6.9e-05
308.36	0.001717	5.6e-05

System: tetradecane; phases: Liquid
Property: Viscosity, Pa*s (Liquid); method: Vibrating wire viscometry
Temperature, K	Pressure, kPa	Viscosity, Pa*s	uncertainty
283.13	100	0.002891	9e-05
283.13	100	0.002881	8.9e-05
283.13	100	0.002888	8.9e-05
285.32	100	0.002731	8.5e-05
285.32	100	0.002727	8.4e-05
285.32	100	0.002735	8.5e-05
285.32	100	0.002735	8.5e-05
285.32	100	0.002729	8.5e-05
287.8	100	0.002582	8e-05
287.8	100	0.002577	8e-05
287.8	100	0.00257	8e-05
287.8	100	0.002571	8e-05
287.8	100	0.002572	8e-05
287.8	100	0.002573	8e-05
287.8	100	0.002585	8e-05
287.8	600	0.002604	8.1e-05
287.8	600	0.002592	8e-05
287.8	600	0.002594	8e-05
287.8	600	0.002598	8e-05
287.8	1100	0.002611	8.1e-05
287.8	1100	0.002609	8.1e-05
287.8	1100	0.002614	8.1e-05
287.8	1100	0.002613	8.1e-05
287.8	1100	0.002609	8.1e-05
292.78	100	0.002307	7.1e-05
292.78	100	0.002308	7.1e-05
292.78	100	0.002312	7.2e-05
292.78	100	0.002314	7.2e-05
292.78	600	0.002315	7.2e-05
292.78	600	0.002317	7.2e-05
292.78	600	0.002314	7.2e-05
292.78	600	0.00232	7.2e-05
292.78	600	0.002319	7.2e-05
292.78	600	0.002318	7.2e-05
292.74	900	0.002332	7.3e-05
292.75	900	0.002323	7.2e-05
292.76	1000	0.002322	7.2e-05
292.77	1000	0.002328	7.2e-05
292.78	1300	0.002337	7.2e-05
292.78	1300	0.002339	7.2e-05
292.78	1300	0.002336	7.2e-05
292.78	1300	0.002338	7.2e-05
292.78	1300	0.002345	7.3e-05
292.78	1900	0.002358	7.3e-05
292.78	1900	0.002358	7.3e-05
292.78	1900	0.002353	7.3e-05
292.78	1900	0.00236	7.3e-05
295.24	3000	0.002266	7e-05
295.24	3000	0.00227	7e-05
295.24	3000	0.002263	7e-05
295.24	3000	0.002264	7e-05
292.78	3200	0.0024	7.4e-05
292.78	3200	0.002396	7.4e-05
292.78	3200	0.002401	7.4e-05
292.78	3200	0.0024	7.4e-05
292.78	3200	0.002404	7.4e-05
295.24	4900	0.002323	7.2e-05
295.24	4900	0.002327	7.2e-05
295.24	4900	0.00232	7.2e-05
295.24	4900	0.002324	7.2e-05
292.78	4700	0.002445	7.6e-05
292.78	4700	0.002446	7.6e-05
292.78	4700	0.002447	7.6e-05
292.78	4700	0.002449	7.6e-05
295.24	7400	0.002398	7.4e-05
295.24	7400	0.002396	7.4e-05
295.24	7400	0.002397	7.4e-05
292.78	7400	0.002531	7.8e-05
292.78	7400	0.002528	7.8e-05
292.78	7400	0.002529	7.8e-05
292.78	7400	0.002525	7.8e-05
292.78	7400	0.002532	7.8e-05
295.23	10900	0.002505	7.8e-05
295.23	10900	0.00251	7.8e-05
292.77	10400	0.002634	8.2e-05
292.77	10400	0.002633	8.1e-05
292.77	10400	0.002631	8.1e-05
292.77	10400	0.002631	8.1e-05
292.77	10400	0.002634	8.2e-05
292.77	10400	0.002629	8.1e-05
292.77	10400	0.002621	8.1e-05
298.73	100	0.002036	6.3e-05
298.73	100	0.002035	6.3e-05
298.73	100	0.002036	6.3e-05
298.73	100	0.002036	6.3e-05
298.22	1100	0.002085	6.4e-05
298.22	1100	0.002091	6.5e-05
298.22	1100	0.002086	6.4e-05
298.22	1100	0.002086	6.4e-05
298.22	1100	0.002083	6.4e-05
298.1	2800	0.002147	6.6e-05
298.1	2800	0.00214	6.6e-05
298.1	2800	0.002146	6.6e-05
298.1	2800	0.002146	6.6e-05
298.1	2700	0.00214	6.6e-05
298.1	2700	0.00214	6.6e-05
298.39	5500	0.002174	6.7e-05
298.39	5500	0.002173	6.7e-05
298.39	5500	0.002173	6.7e-05
298.11	9700	0.002349	7.5e-05
298.11	9600	0.002334	7.4e-05
298.11	9600	0.002339	7.4e-05
298.1	9600	0.002341	7.4e-05
298.1	9600	0.002338	7.4e-05
298.11	10000	0.002319	7.2e-05
298.11	10000	0.002324	7.2e-05
298.1	9800	0.002327	7.4e-05
298.74	10500	0.002324	7.2e-05
298.74	10500	0.00232	7.2e-05
298.74	10500	0.002322	7.2e-05
298.74	10400	0.002322	7.2e-05
298.74	10400	0.002318	7.2e-05
298.74	10400	0.002321	7.2e-05
298.27	14800	0.002475	7.7e-05
298.28	14800	0.002471	7.6e-05
298.28	14800	0.002475	7.7e-05
298.28	14800	0.002474	7.6e-05
298.28	14800	0.002473	7.6e-05
298.28	14800	0.002472	7.6e-05
298.28	14800	0.002473	7.6e-05
298.28	14800	0.002473	7.6e-05
298.28	14800	0.002476	7.7e-05
298.71	19500	0.002591	8e-05
298.71	19500	0.002587	8e-05
298.7	19500	0.002588	8e-05
298.7	19500	0.002572	8e-05
298.7	19500	0.002575	8e-05
298.28	29000	0.00293	9e-05
298.28	29000	0.002935	9e-05
298.41	29800	0.002934	9e-05
298.41	29800	0.002935	9e-05
298.41	29800	0.002937	9.1e-05
298.41	29800	0.002932	9e-05
298.4	29800	0.002929	9e-05
298.4	29800	0.002928	9e-05
298.41	29800	0.00293	9e-05
298.76	30500	0.002946	9.1e-05
298.76	30500	0.002954	9.1e-05
298.76	30500	0.002951	9.1e-05
298.76	30500	0.002944	9.1e-05
298.76	30500	0.002948	9.1e-05
298.76	30400	0.002952	9.1e-05
298.39	39300	0.003265	0.000101
298.39	39300	0.003265	0.000101
298.39	39300	0.003264	0.000101
298.39	39300	0.003264	0.000101
298.39	39300	0.003265	0.000101
298.69	39600	0.003276	0.000101
298.68	39600	0.003274	0.000101
298.69	39600	0.003274	0.000101
298.69	39600	0.003274	0.000101
298.69	39600	0.003268	0.000101
298.68	39600	0.003274	0.000101
298.41	48900	0.003613	0.000111
298.41	48900	0.003609	0.000111
298.41	48900	0.003611	0.000111
298.41	48800	0.003613	0.000111
298.41	48800	0.00361	0.000111
298.4	60200	0.004085	0.000126
298.39	60200	0.004089	0.000126
298.39	60200	0.004082	0.000126
298.39	60200	0.004083	0.000126
298.39	60200	0.004079	0.000126
298.4	69400	0.004505	0.00014
298.4	69300	0.004499	0.00014
298.4	69300	0.0045	0.00014
298.4	69300	0.00449	0.000139
298.39	69200	0.004481	0.000139
298.39	69200	0.004482	0.000139
298.39	69100	0.004478	0.000139
298.39	69100	0.004492	0.000138
317.97	100	0.00141	4.6e-05
317.97	100	0.001413	4.6e-05
317.97	100	0.001411	4.6e-05
317.98	100	0.001409	4.6e-05
317.97	100	0.001415	4.7e-05
317.97	900	0.001426	4.5e-05
317.97	900	0.001431	4.5e-05
317.97	900	0.001432	4.5e-05
317.97	900	0.001427	4.5e-05
317.97	1300	0.001443	4.6e-05
317.98	1300	0.001439	4.6e-05
317.98	1300	0.001443	4.6e-05
317.97	1300	0.001439	4.6e-05
317.98	1300	0.001438	4.5e-05
317.98	1300	0.001445	4.6e-05
317.97	1300	0.001443	4.6e-05
317.97	1300	0.001443	4.6e-05
317.97	1300	0.001437	4.5e-05
317.98	2200	0.001456	4.7e-05
317.98	2200	0.001455	4.7e-05
317.98	2200	0.001454	4.7e-05
317.98	2200	0.00145	4.6e-05
317.98	2200	0.00145	4.6e-05
317.98	2700	0.00146	5.7e-05
317.97	2700	0.00146	5.7e-05
317.98	2700	0.00147	5.8e-05
317.98	2700	0.00146	5.7e-05
317.98	2700	0.00147	5.8e-05
317.98	2700	0.00146	5.7e-05
317.97	2700	0.00146	5.7e-05
317.97	5200	0.00151	4.7e-05
317.97	5200	0.00151	4.7e-05
317.97	5200	0.00151	4.7e-05
317.97	5200	0.00151	4.7e-05
317.97	5200	0.00151	4.7e-05
317.97	5200	0.00151	4.7e-05
317.97	7900	0.00155	4.8e-05
317.98	7800	0.00156	4.9e-05
317.98	7800	0.00156	4.9e-05
317.98	7800	0.00156	4.9e-05
317.97	10800	0.00161	6.4e-05
317.97	10700	0.00162	6.9e-05
317.97	10700	0.00162	6.9e-05
317.97	10700	0.00161	6.9e-05
317.97	10700	0.00161	6.9e-05
317.97	10700	0.00162	6.9e-05
317.97	10700	0.00162	6.9e-05
317.97	10700	0.00161	6.9e-05
317.97	10700	0.00161	6.9e-05
317.97	10700	0.00162	6.9e-05
317.97	10700	0.00162	6.9e-05
317.98	11000	0.00162	6.4e-05
317.98	11000	0.00161	6.5e-05
317.97	10900	0.00162	6.9e-05
317.97	15400	0.00171	5.3e-05
317.97	15400	0.00171	5.3e-05
317.97	15400	0.00171	5.3e-05
317.97	15400	0.00171	5.3e-05
317.97	15400	0.00171	5.3e-05
317.97	15400	0.00171	5.3e-05
317.97	15300	0.00171	5.3e-05
317.97	15300	0.00171	5.3e-05
317.97	15300	0.00171	5.3e-05
317.98	20700	0.00181	5.6e-05
317.98	20700	0.00181	5.6e-05
317.98	20600	0.00181	5.6e-05
317.98	20600	0.001815	5.6e-05
317.98	20600	0.001805	5.6e-05
317.98	20600	0.001804	5.6e-05
317.97	30400	0.002028	6.3e-05
317.97	30400	0.002025	6.3e-05
317.97	30300	0.002024	6.3e-05
317.97	30300	0.002027	6.3e-05
317.97	40400	0.002259	7e-05
317.97	40400	0.00226	7e-05
317.97	40300	0.002257	7e-05
317.97	40300	0.002261	7e-05
317.97	40300	0.002261	7e-05
317.97	40300	0.002259	7e-05
317.98	50100	0.0025	7.7e-05
317.98	50000	0.002496	7.7e-05
317.98	50000	0.002495	7.7e-05
317.98	50000	0.002487	7.7e-05
317.98	50000	0.002495	7.7e-05
317.97	60800	0.00277	9.3e-05
317.97	60700	0.002773	8.6e-05
317.97	60700	0.002768	8.5e-05
317.97	60700	0.002762	8.5e-05
317.97	60700	0.002766	8.5e-05
317.97	60600	0.002765	9.2e-05
317.98	69600	0.00301	9.3e-05
317.98	69600	0.003011	9.3e-05
317.98	69500	0.003012	9.3e-05
317.98	69500	0.00301	9.3e-05
337.98	100	0.00104	3.4e-05
337.98	100	0.001041	3.4e-05
337.99	100	0.001039	3.4e-05
337.98	100	0.001041	3.4e-05
337.98	100	0.001038	3.4e-05
337.98	100	0.001039	3.4e-05
337.98	100	0.001042	3.4e-05
337.98	100	0.001042	3.4e-05
337.98	100	0.001039	3.4e-05
337.96	100	0.00104	3.4e-05
337.96	100	0.001038	3.4e-05
337.96	100	0.001042	3.4e-05
337.96	100	0.001041	3.4e-05
337.96	700	0.001046	3.4e-05
337.96	700	0.001046	3.4e-05
337.96	700	0.001048	3.4e-05
337.96	700	0.001047	3.4e-05
337.96	700	0.001047	3.4e-05
337.98	1500	0.001056	3.4e-05
337.98	1500	0.001054	3.3e-05
337.98	1500	0.001055	3.3e-05
337.98	1500	0.001055	3.3e-05
337.98	1500	0.001052	3.3e-05
337.98	1100	0.001051	3.4e-05
337.98	1100	0.001052	3.4e-05
337.98	1100	0.001053	3.4e-05
337.98	1100	0.001051	3.4e-05
337.96	1100	0.001055	3.4e-05
337.96	1200	0.001055	3.4e-05
337.96	1200	0.001053	3.4e-05
337.96	1200	0.001051	3.4e-05
337.96	2100	0.001064	3.3e-05
337.96	2100	0.001066	3.3e-05
337.96	2100	0.001065	3.3e-05
337.96	2100	0.00106	3.3e-05
337.96	2100	0.001067	3.3e-05
337.96	2200	0.001067	3.4e-05
337.96	2200	0.001069	3.4e-05
337.98	2900	0.001073	3.3e-05
337.98	2900	0.001075	3.4e-05
337.98	2900	0.001074	3.4e-05
337.98	2900	0.001076	3.4e-05
337.98	2900	0.001077	3.4e-05
337.98	2900	0.001073	3.3e-05
337.98	2900	0.001073	3.3e-05
337.98	2900	0.001077	3.4e-05
337.98	2900	0.001075	3.4e-05
337.98	5300	0.00111	5.7e-05
337.98	5300	0.001109	5.7e-05
337.98	5400	0.001109	4.3e-05
337.98	5400	0.001106	4.2e-05
337.98	5400	0.001107	4.2e-05
337.98	5400	0.001106	4.2e-05
337.96	5100	0.001103	5.7e-05
337.96	5100	0.001105	5.6e-05
337.96	5100	0.001107	5.5e-05
337.96	5100	0.001105	5.6e-05
337.96	5100	0.001107	5.5e-05
337.98	7500	0.001142	3.6e-05
337.98	7500	0.001131	3.5e-05
337.99	7500	0.001138	3.6e-05
337.98	7500	0.001139	3.6e-05
337.98	10200	0.001182	3.7e-05
337.98	10200	0.001182	3.7e-05
337.98	10200	0.001173	3.7e-05
337.98	10200	0.001179	3.7e-05
337.98	10100	0.001178	3.7e-05
337.98	10100	0.00118	3.7e-05
337.98	10100	0.001179	3.7e-05
337.98	10100	0.001176	3.7e-05
337.98	10100	0.001175	3.7e-05
337.98	15200	0.001247	3.9e-05
337.98	15200	0.001252	3.9e-05
337.98	15200	0.00125	3.9e-05
337.98	15200	0.00125	3.9e-05
337.98	15100	0.001246	3.9e-05
337.98	15100	0.001251	3.9e-05
337.98	15100	0.001247	3.9e-05
337.98	20400	0.001332	4.1e-05
337.98	20400	0.001331	4.1e-05
337.98	20400	0.001328	4.1e-05
337.98	20400	0.001328	4.1e-05
337.98	25100	0.001397	4.3e-05
337.98	25100	0.001392	4.3e-05
337.98	25000	0.001395	4.3e-05
337.98	25000	0.001396	4.3e-05
337.98	25000	0.00139	4.3e-05
337.98	29800	0.00147	4.7e-05
337.98	29100	0.001459	4.8e-05
337.96	30700	0.001484	4.8e-05
337.96	30600	0.001484	4.8e-05
337.96	30600	0.001479	4.8e-05
337.96	30600	0.001485	4.8e-05
337.96	30600	0.00148	4.8e-05
337.96	30600	0.001483	4.8e-05
337.96	40000	0.001637	5.1e-05
337.96	40000	0.001632	5.1e-05
337.96	39900	0.001634	5.1e-05
337.95	39900	0.001631	5.1e-05
337.96	39900	0.001633	5.1e-05
337.96	49600	0.001799	6.9e-05
337.96	49600	0.001798	6.9e-05
337.96	49500	0.001796	9.6e-05
337.96	49400	0.001788	9e-05
337.96	49400	0.001795	8.7e-05
337.96	49900	0.001794	5.6e-05
337.96	49900	0.0018	5.6e-05
337.96	49800	0.001799	7.4e-05
337.96	49800	0.001802	7.5e-05
337.96	49700	0.001796	5.8e-05
337.95	58800	0.001965	6.6e-05
337.96	58700	0.001958	6.6e-05
337.96	58700	0.001958	6.6e-05
337.96	58600	0.001954	6.6e-05
337.96	58500	0.00196	6.5e-05
337.96	58500	0.001954	6.5e-05
337.96	58400	0.001949	6.5e-05
337.96	58300	0.001951	6.4e-05
337.96	58300	0.00195	6.4e-05
337.96	68500	0.00213	8.2e-05
337.96	68400	0.002129	8.8e-05
337.96	68200	0.002124	8.8e-05
357.61	100	0.000807	2.5e-05
357.61	100	0.000807	2.5e-05
357.61	100	0.000806	2.5e-05
357.61	100	0.000807	2.5e-05
357.61	100	0.000804	2.5e-05
357.61	100	0.000808	2.5e-05
357.61	1300	0.000816	2.6e-05
357.61	1300	0.000817	2.6e-05
357.61	1300	0.000816	2.6e-05
357.61	1300	0.000819	2.6e-05
357.6	1300	0.000817	2.6e-05
357.6	1300	0.000817	2.6e-05
358.07	1100	0.000809	2.6e-05
358.07	1100	0.000809	2.6e-05
358.07	1100	0.000812	2.6e-05
358.07	1100	0.000812	2.6e-05
358.07	1100	0.00081	2.6e-05
358.07	1100	0.00081	2.6e-05
357.61	2900	0.000831	2.6e-05
357.61	2900	0.000833	2.6e-05
357.61	2900	0.000827	2.6e-05
357.61	2900	0.000831	2.6e-05
357.91	3200	0.000829	2.6e-05
357.91	3200	0.000832	2.6e-05
357.91	3200	0.00083	2.6e-05
357.91	3200	0.000831	2.6e-05
357.61	5500	0.000859	2.7e-05
357.61	5500	0.000863	2.7e-05
357.61	5500	0.000862	2.7e-05
358.07	5300	0.000851	2.7e-05
358.07	5300	0.000851	2.7e-05
358.07	5300	0.000851	2.7e-05
358.07	5300	0.000851	2.7e-05
358.07	5300	0.000852	2.7e-05
357.61	7600	0.000879	2.8e-05
357.61	7600	0.000885	2.8e-05
357.61	7600	0.000885	2.8e-05
357.6	7600	0.000883	2.8e-05
357.61	7600	0.000883	2.8e-05
357.61	7500	0.000883	2.8e-05
357.6	7500	0.000883	2.8e-05
357.61	10200	0.000913	2.9e-05
357.61	10200	0.000909	2.9e-05
357.61	10200	0.000906	2.8e-05
357.61	10200	0.000906	2.8e-05
357.61	10200	0.000908	2.8e-05
357.61	10200	0.000911	2.9e-05
358.06	9900	0.000906	2.8e-05
358.06	9900	0.000904	2.8e-05
358.06	9900	0.000902	2.8e-05
358.06	9900	0.000905	2.8e-05
358.06	9900	0.000902	2.8e-05
358.06	9900	0.000903	2.8e-05
357.61	15100	0.000964	3e-05
357.62	15100	0.000966	3e-05
357.61	15100	0.000965	3e-05
357.61	15100	0.000964	3e-05
357.61	15100	0.000966	3e-05
357.61	15000	0.000962	3e-05
357.62	15000	0.000964	3e-05
357.61	15000	0.000962	3e-05
357.61	15000	0.000964	3e-05
357.61	20300	0.001023	3.2e-05
357.61	20200	0.001023	3.2e-05
357.61	20200	0.001022	3.2e-05
357.61	20200	0.001022	3.2e-05
357.61	25300	0.001084	3.4e-05
357.61	25200	0.001084	3.4e-05
357.61	25100	0.001081	3.4e-05
357.61	25100	0.001082	3.4e-05
357.61	25100	0.001076	3.4e-05
357.61	25000	0.001082	3.4e-05
357.61	30700	0.001149	3.6e-05
357.61	30600	0.001148	3.6e-05
358.07	27800	0.001102	3.4e-05
358.07	27800	0.001101	3.4e-05
358.07	27800	0.001105	3.5e-05
358.07	27700	0.001101	3.4e-05
358.07	27700	0.001099	3.4e-05
357.9	40300	0.001255	3.9e-05
357.9	40100	0.001256	3.9e-05
357.91	40100	0.001256	3.9e-05
357.91	40100	0.001251	3.9e-05
357.91	40000	0.001253	3.9e-05
357.91	40000	0.001251	3.9e-05
358.07	49600	0.001373	4.3e-05
358.07	49600	0.00137	4.3e-05
358.06	49500	0.00137	4.3e-05
358.07	49500	0.001371	4.3e-05
358.07	49500	0.001371	4.3e-05
358.07	49400	0.001369	4.3e-05
357.91	59800	0.001507	4.7e-05
357.91	59100	0.001496	4.6e-05
357.91	59000	0.001493	4.6e-05
357.91	58900	0.0015	0.000111
357.91	58800	0.001496	4.6e-05
357.91	58700	0.001498	4.6e-05
358.06	67000	0.001604	5e-05
358.06	66700	0.001597	5e-05
358.06	66500	0.001598	5e-05
358.06	66400	0.001593	4.9e-05
358.06	65900	0.001587	4.9e-05
