Measured thermophysical data. Quaternary isothermal vapor-liquid equilibrium of the model biofuel 2-butanone + n-heptane + tetrahydrofuran + cyclohexane using Raman spectroscopic characterization
Source: Fluid Phase Equilib., 2018, 10.1016/j.fluid.2018.04.009
Compound 1: butanone, C4H8O, InChI=1S/C4H8O/c1-3-4(2)5/h3H2,1-2H3, purity 99.5%
Compound 2: cyclohexane, C6H12, InChI=1S/C6H12/c1-2-4-6-5-3-1/h1-6H2, purity 99.7%
Compound 3: heptane, C7H16, InChI=1S/C7H16/c1-3-5-7-6-4-2/h3-7H2,1-2H3, purity 99.3%
Compound 4: tetrahydrofuran, C4H8O, InChI=1S/C4H8O/c1-2-4-5-3-1/h1-4H2, purity 99.9%

System: butanone; phases: Liquid
Property: Mass density, kg/m3 (Liquid); method: Vibrating tube method
Temperature, K	Pressure, kPa	Mass density, kg/m3	uncertainty
298.15	101	802.03	0.14

System: butanone; phases: Liquid, Gas
Property: Vapor or sublimation pressure, kPa (Liquid); method: Closed cell (Static) method
Temperature, K	Vapor or sublimation pressure, kPa	uncertainty
283.7	5.8	0.4
293.5	9.6	0.4
303.1	15.1	0.5
313.2	23.7	0.6
323	35.4	0.7
332.8	51.4	0.8

System: cyclohexane; phases: Liquid
Property: Mass density, kg/m3 (Liquid); method: Vibrating tube method
Temperature, K	Pressure, kPa	Mass density, kg/m3	uncertainty
298.15	101	776.11	0.13

System: cyclohexane; phases: Liquid, Gas
Property: Vapor or sublimation pressure, kPa (Liquid); method: Closed cell (Static) method
Temperature, K	Vapor or sublimation pressure, kPa	uncertainty
283.8	6.5	0.4
293.6	10.5	0.5
303.1	16.1	0.5
313.2	24.6	0.6
323	36.1	0.7
332.9	51.3	0.7

System: heptane; phases: Liquid
Property: Mass density, kg/m3 (Liquid); method: Vibrating tube method
Temperature, K	Pressure, kPa	Mass density, kg/m3	uncertainty
298.15	101	681.48	0.2

System: heptane; phases: Liquid, Gas
Property: Vapor or sublimation pressure, kPa (Liquid); method: Closed cell (Static) method
Temperature, K	Vapor or sublimation pressure, kPa	uncertainty
283.7	2.8	0.4
293.5	4.8	0.4
303.1	7.7	0.4
313.2	12.4	0.5
323	18.8	0.5
332.8	27.9	0.6

System: tetrahydrofuran; phases: Liquid
Property: Mass density, kg/m3 (Liquid); method: Vibrating tube method
Temperature, K	Pressure, kPa	Mass density, kg/m3	uncertainty
298.15	101	884.99	0.08

System: tetrahydrofuran; phases: Liquid, Gas
Property: Vapor or sublimation pressure, kPa (Liquid); method: Closed cell (Static) method
Temperature, K	Vapor or sublimation pressure, kPa	uncertainty
283.7	11	0.5
293.5	17.4	0.5
303.1	26.6	0.6
313.2	40.1	0.8
323	58	0.9
332.8	81.9	1.1

System: butanone + heptane; phases: Gas, Liquid
Fixed: Temperature, K = 303.2
Property: Vapor or sublimation pressure, kPa (Gas); method: Closed cell (Static) method
Mole fraction of butanone	Vapor or sublimation pressure, kPa	uncertainty
0	7.7	0.4
0.091	11.8	0.5
0.133	12.8	0.5
0.157	13.3	0.5
0.178	13.7	0.5
0.239	14.6	0.5
0.301	15.2	0.5
0.346	15.6	0.5
0.482	16.2	0.5
0.542	16.5	0.5
0.574	16.6	0.5
0.684	16.7	0.5
0.691	16.8	0.5
0.695	16.8	0.5
0.803	16.8	0.5
0.803	16.8	0.5
0.811	16.7	0.5
0.895	16.5	0.5
0.897	16.4	0.5
0.906	16.4	0.5
1	15.1	0.5

System: butanone + tetrahydrofuran; phases: Gas, Liquid
Property: Vapor or sublimation pressure, kPa (Gas); method: Closed cell (Static) method
Temperature, K	Mole fraction of butanone	Vapor or sublimation pressure, kPa	uncertainty
303.2	0	26.6	0.7
303.2	0.104	25.7	0.7
303.2	0.106	25.7	0.7
303.2	0.107	25.6	0.7
303.2	0.182	25	0.7
303.2	0.184	25	0.7
303.2	0.189	24.9	0.7
303.2	0.197	24.7	0.7
303.2	0.37	23	0.6
303.2	0.379	22.9	0.6
303.2	0.394	22.7	0.6
303.2	0.589	20.6	0.6
303.2	0.593	20.5	0.6
303.1	0.603	20.4	0.6
303.2	0.623	20.1	0.6
303.2	0.779	18.3	0.5
303.1	0.787	18.2	0.6
303.2	0.801	17.9	0.5
303.2	1	15.1	0.5

System: butanone + cyclohexane; phases: Gas, Liquid
Property: Vapor or sublimation pressure, kPa (Gas); method: Closed cell (Static) method
Temperature, K	Mole fraction of butanone	Vapor or sublimation pressure, kPa	uncertainty
303.2	0	16.1	0.5
303.2	0.082	19.9	0.6
303.1	0.094	20.1	0.6
303.2	0.098	20.2	0.6
303.2	0.141	20.9	0.6
303.2	0.152	21	0.6
303.2	0.152	21	0.6
303.1	0.16	21.1	0.6
303.2	0.259	21.8	0.6
303.2	0.281	21.9	0.6
303.2	0.287	21.9	0.6
303.2	0.395	22.1	0.6
303.1	0.403	22.2	0.6
303.2	0.53	22.1	0.6
303.2	0.616	21.9	0.6
303.2	0.624	21.8	0.6
303.2	0.74	21.1	0.6
303.2	0.753	20.9	0.6
303.2	0.816	20.2	0.6
303.2	0.837	19.8	0.6
303.2	0.912	18.3	0.6
303.2	0.917	18.1	0.6
303.2	0.924	17.9	0.6
303.2	1	15.1	0.5

System: heptane + tetrahydrofuran; phases: Gas, Liquid
Property: Vapor or sublimation pressure, kPa (Gas); method: Closed cell (Static) method
Temperature, K	Mole fraction of heptane	Vapor or sublimation pressure, kPa	uncertainty
303.2	0	26.6	0.7
303.2	0.109	25.5	0.7
303.2	0.124	25.2	0.7
303.2	0.241	24	0.6
303.2	0.322	22.8	0.6
303.2	0.355	22.4	0.6
303.2	0.464	20.7	0.6
303.2	0.472	20.7	0.6
303.2	0.564	19	0.6
303.2	0.598	18.4	0.6
303.2	0.668	17	0.5
303.2	0.678	16.8	0.5
303.2	0.775	14.6	0.6
303.2	0.78	14.3	0.6
303.1	0.852	12.4	0.5
303.1	0.864	12.3	0.5
303.1	0.921	10.6	0.5
303.2	0.934	9.9	0.5
303.2	0.983	8.6	0.5
303.2	1	7.7	0.4

System: heptane + cyclohexane; phases: Gas, Liquid
Fixed: Temperature, K = 303.2
Property: Vapor or sublimation pressure, kPa (Gas); method: Closed cell (Static) method
Mole fraction of heptane	Vapor or sublimation pressure, kPa	uncertainty
0	16.1	0.5
0.098	15.4	0.5
0.103	15.3	0.5
0.215	14.5	0.5
0.221	14.5	0.5
0.323	13.6	0.5
0.331	13.6	0.5
0.425	12.8	0.5
0.44	12.7	0.5
0.527	12	0.5
0.541	11.9	0.5
0.631	11.1	0.5
0.663	10.7	0.5
0.741	10.1	0.5
0.775	9.8	0.5
0.826	9.3	0.5
0.867	8.9	0.5
0.91	8.6	0.4
0.946	8.3	0.5
1	7.7	0.4

System: tetrahydrofuran + cyclohexane; phases: Gas, Liquid
Property: Vapor or sublimation pressure, kPa (Gas); method: Closed cell (Static) method
Temperature, K	Mole fraction of tetrahydrofuran	Vapor or sublimation pressure, kPa	uncertainty
303.2	0	16.1	0.5
303.2	0.048	17.7	0.5
303.2	0.054	17.8	0.5
303.2	0.059	17.9	0.5
303.2	0.061	18	0.6
303.1	0.176	20.5	0.6
303.2	0.183	20.7	0.6
303.2	0.188	20.9	0.6
303.2	0.365	23.4	0.6
303.2	0.374	23.5	0.6
303.2	0.378	23.6	0.6
303.2	0.578	25.4	0.7
303.2	0.585	25.5	0.7
303.2	0.591	25.5	0.7
303.2	0.797	26.6	0.7
303.2	0.802	26.6	0.7
303.2	0.804	26.6	0.7
303.2	0.889	26.8	0.7
303.2	0.89	26.8	0.7
303.2	0.949	26.8	0.7
303.2	0.949	26.8	0.7
303.2	1	26.6	0.7
