Measured thermophysical data. Excess molar volumes and excess molar enthalpies of binary and ternary mixtures of (ethanol or 1-butanol), triethylamine and n-hexane
Source: Fluid Phase Equilib., 2005, 10.1016/j.fluid.2005.08.001
Compound 1: ethanol, C2H6O, InChI=1S/C2H6O/c1-2-3/h3H,2H2,1H3, purity 99.7%
Compound 2: butan-1-ol, C4H10O, InChI=1S/C4H10O/c1-2-3-4-5/h5H,2-4H2,1H3, purity 99.5%
Compound 3: triethylamine, C6H15N, InChI=1S/C6H15N/c1-4-7(5-2)6-3/h4-6H2,1-3H3, purity 99.5%
Compound 4: hexane, C6H14, InChI=1S/C6H14/c1-3-5-6-4-2/h3-6H2,1-2H3, purity 99.5%

System: ethanol; phases: Liquid
Property: Mass density, kg/m3 (Liquid); method: VIBTUB:UFactor:2
Temperature, K	Pressure, kPa	Mass density, kg/m3	uncertainty
298.15	101.325	785.07	0.33

System: butan-1-ol; phases: Liquid
Property: Mass density, kg/m3 (Liquid); method: VIBTUB:UFactor:2
Temperature, K	Pressure, kPa	Mass density, kg/m3	uncertainty
298.15	101.325	805.74	0.35

System: triethylamine; phases: Liquid
Property: Mass density, kg/m3 (Liquid); method: VIBTUB:UFactor:2
Temperature, K	Pressure, kPa	Mass density, kg/m3	uncertainty
298.15	101.325	722.56	0.41

System: hexane; phases: Liquid
Property: Mass density, kg/m3 (Liquid); method: VIBTUB:UFactor:2
Temperature, K	Pressure, kPa	Mass density, kg/m3	uncertainty
298.15	101.325	654.9	0.47

System: ethanol + hexane; phases: Liquid
Fixed: Temperature, K = 298.15
Fixed: Pressure, kPa = 101.325
Property: Excess molar enthalpy (molar enthalpy of mixing), kJ/mol (Liquid); method: Flow calorimetry
Mole fraction of ethanol	Excess molar enthalpy (molar enthalpy of mixing), kJ/mol	uncertainty
0.0544	0.28	0.0088
0.1056	0.4149	0.013
0.1538	0.4796	0.015
0.1994	0.5273	0.0164
0.2426	0.5503	0.0171
0.2835	0.5687	0.0177
0.3592	0.5795	0.018
0.4277	0.5678	0.0177
0.4596	0.5607	0.0175
0.49	0.5637	0.0176
0.5191	0.5564	0.0173
0.5992	0.5122	0.016
0.6472	0.4843	0.0151
0.7125	0.4453	0.0139
0.8064	0.3546	0.0111
0.8997	0.224	0.0071
0.9528	0.1216	0.004

System: ethanol + hexane; phases: Liquid
Fixed: Temperature, K = 298.15
Fixed: Pressure, kPa = 101.325
Property: Excess molar volume, m3/mol (Liquid); method: Calculated with densities of this investigation
Mole fraction of ethanol	Excess molar volume, m3/mol	uncertainty
0.0417	1.5e-07	8e-09
0.128	2.89e-07	8e-09
0.1661	3.27e-07	9e-09
0.1998	3.54e-07	9e-09
0.2039	3.53e-07	9e-09
0.2988	3.96e-07	9e-09
0.3473	4.06e-07	9e-09
0.3985	4.09e-07	9e-09
0.3998	4.11e-07	9e-09
0.4524	4.12e-07	9e-09
0.4995	4.08e-07	9e-09
0.5596	3.95e-07	9e-09
0.5985	3.84e-07	9e-09
0.6015	3.81e-07	9e-09
0.6487	3.65e-07	9e-09
0.7029	3.33e-07	9e-09
0.7607	3e-07	8e-09
0.8004	2.69e-07	8e-09
0.8009	2.7e-07	8e-09
0.8508	2.18e-07	8e-09
0.8989	1.63e-07	8e-09
0.9197	1.36e-07	8e-09
0.9497	8.8e-08	8e-09

System: butan-1-ol + hexane; phases: Liquid
Fixed: Temperature, K = 298.15
Fixed: Pressure, kPa = 101.325
Property: Excess molar enthalpy (molar enthalpy of mixing), kJ/mol (Liquid); method: Flow calorimetry
Mole fraction of butan-1-ol	Excess molar enthalpy (molar enthalpy of mixing), kJ/mol	uncertainty
0.0199	0.2206	0.007
0.0399	0.2866	0.009
0.05	0.3089	0.0097
0.06	0.3277	0.0103
0.0799	0.3639	0.0114
0.0999	0.3946	0.0123
0.1499	0.4592	0.0143
0.2	0.513	0.016
0.25	0.5418	0.0169
0.2999	0.5566	0.0173
0.35	0.5595	0.0174
0.4001	0.5475	0.0171
0.4501	0.5286	0.0165
0.5	0.5012	0.0156
0.55	0.4667	0.0146
0.6001	0.4252	0.0133
0.6501	0.3805	0.0119
0.7	0.3299	0.0104
0.7501	0.2783	0.0088
0.7999	0.2238	0.0071
0.85	0.1668	0.0053
0.8999	0.1092	0.0036
0.95	0.0461	0.0023

System: butan-1-ol + hexane; phases: Liquid
Fixed: Temperature, K = 298.15
Fixed: Pressure, kPa = 101.325
Property: Excess molar volume, m3/mol (Liquid); method: Calculated with densities of this investigation
Mole fraction of butan-1-ol	Excess molar volume, m3/mol	uncertainty
0.0155	5.7e-08	8e-09
0.0369	8.5e-08	8e-09
0.0511	9.7e-08	8e-09
0.0766	1.13e-07	8e-09
0.0993	1.22e-07	8e-09
0.1065	1.28e-07	8e-09
0.1499	1.38e-07	8e-09
0.1976	1.42e-07	8e-09
0.1981	1.41e-07	8e-09
0.1997	1.37e-07	8e-09
0.2497	1.36e-07	8e-09
0.2997	1.27e-07	8e-09
0.3437	1.12e-07	8e-09
0.3999	8.9e-08	8e-09
0.4016	8.8e-08	8e-09
0.4538	6.3e-08	8e-09
0.4995	4.1e-08	8e-09
0.5545	1.5e-08	8e-09
0.596	-4e-09	8e-09
0.5987	-2e-09	8e-09
0.6008	-1.4e-08	8e-09
0.6575	-2.5e-08	8e-09
0.7003	-3.7e-08	8e-09
0.7525	-4.7e-08	8e-09
0.7994	-4.9e-08	8e-09
0.8006	-5.3e-08	8e-09
0.8007	-5.8e-08	8e-09
0.8481	-4.9e-08	8e-09
0.8998	-3.9e-08	8e-09
0.9025	-4.1e-08	8e-09
0.9496	-2.4e-08	8e-09

System: hexane + triethylamine; phases: Liquid
Fixed: Temperature, K = 298.15
Fixed: Pressure, kPa = 101.325
Property: Excess molar enthalpy (molar enthalpy of mixing), kJ/mol (Liquid); method: Flow calorimetry
Mole fraction of triethylamine	Excess molar enthalpy (molar enthalpy of mixing), kJ/mol	uncertainty
0.025	0.0056	0.0021
0.05	0.0154	0.0022
0.075	0.0196	0.0022
0.1	0.0293	0.0022
0.15	0.0437	0.0022
0.2	0.0544	0.0023
0.25	0.0637	0.0023
0.3	0.0703	0.0024
0.35	0.0761	0.0026
0.4	0.0793	0.0027
0.45	0.0809	0.0027
0.5	0.0818	0.0028
0.6	0.0794	0.0027
0.65	0.0722	0.0025
0.7	0.0679	0.0024
0.75	0.0583	0.0023
0.8	0.0512	0.0023
0.85	0.0388	0.0022
0.9	0.0279	0.0022
0.95	0.0135	0.0022

System: hexane + triethylamine; phases: Liquid
Fixed: Temperature, K = 298.15
Fixed: Pressure, kPa = 101.325
Property: Excess molar volume, m3/mol (Liquid); method: Calculated with densities of this investigation
Mole fraction of triethylamine	Excess molar volume, m3/mol	uncertainty
0.0536	1.9e-08	8e-09
0.0992	3.1e-08	8e-09
0.1471	4.3e-08	8e-09
0.254	6e-08	8e-09
0.3039	6.7e-08	8e-09
0.3602	7.2e-08	8e-09
0.4121	7.4e-08	8e-09
0.4507	7.5e-08	8e-09
0.5	7.2e-08	8e-09
0.5005	7.7e-08	8e-09
0.5064	7.3e-08	8e-09
0.5066	7.4e-08	8e-09
0.5558	7.3e-08	8e-09
0.607	7e-08	8e-09
0.647	6.6e-08	8e-09
0.7038	5.8e-08	8e-09
0.7499	5.2e-08	8e-09
0.8022	4.3e-08	8e-09
0.8505	3.2e-08	8e-09
0.893	2.2e-08	8e-09
0.9017	2.1e-08	8e-09
0.95	1e-08	8e-09

System: ethanol + triethylamine; phases: Liquid
Fixed: Temperature, K = 298.15
Fixed: Pressure, kPa = 101.325
Property: Excess molar enthalpy (molar enthalpy of mixing), kJ/mol (Liquid); method: Flow calorimetry
Mole fraction of ethanol	Excess molar enthalpy (molar enthalpy of mixing), kJ/mol	uncertainty
0.1116	-0.3738	0.0117
0.1621	-0.5614	0.0175
0.2096	-0.6837	0.0212
0.2542	-0.8229	0.0255
0.2963	-0.9395	0.0291
0.3361	-1.0157	0.0315
0.4093	-1.1922	0.0369
0.5056	-1.3328	0.0412
0.5623	-1.3776	0.0426
0.614	-1.3811	0.0427
0.7047	-1.3097	0.0405
0.7991	-1.0978	0.034
0.8477	-0.918	0.0285
0.8774	-0.784	0.0243
0.9052	-0.6391	0.0199
0.9311	-0.4839	0.0151
0.9555	-0.3211	0.0101

System: ethanol + triethylamine; phases: Liquid
Fixed: Temperature, K = 298.15
Fixed: Pressure, kPa = 101.325
Property: Excess molar volume, m3/mol (Liquid); method: Calculated with densities of this investigation
Mole fraction of ethanol	Excess molar volume, m3/mol	uncertainty
0.0504	-3.16e-07	9e-09
0.0998	-6.03e-07	9e-09
0.1484	-8.51e-07	1e-08
0.1981	-1.078e-06	1e-08
0.2477	-1.277e-06	1.1e-08
0.2966	-1.454e-06	1.2e-08
0.34	-1.582e-06	1.2e-08
0.3947	-1.714e-06	1.3e-08
0.4462	-1.803e-06	1.3e-08
0.4968	-1.864e-06	1.3e-08
0.6011	-1.862e-06	1.3e-08
0.7078	-1.688e-06	1.3e-08
0.7493	-1.56e-06	1.2e-08
0.7997	-1.358e-06	1.1e-08
0.8515	-1.093e-06	1e-08
0.9014	-7.8e-07	1e-08
0.9493	-4.27e-07	9e-09

System: butan-1-ol + triethylamine; phases: Liquid
Fixed: Temperature, K = 298.15
Fixed: Pressure, kPa = 101.325
Property: Excess molar enthalpy (molar enthalpy of mixing), kJ/mol (Liquid); method: Flow calorimetry
Mole fraction of butan-1-ol	Excess molar enthalpy (molar enthalpy of mixing), kJ/mol	uncertainty
0.0501	-0.0888	0.003
0.1	-0.3294	0.0103
0.1502	-0.5433	0.0169
0.1999	-0.6528	0.0203
0.2536	-0.8191	0.0254
0.3001	-0.9537	0.0296
0.3499	-1.1112	0.0344
0.3999	-1.1813	0.0366
0.4499	-1.2706	0.0393
0.5	-1.3473	0.0417
0.5499	-1.384	0.0428
0.5999	-1.4047	0.0435
0.6499	-1.38	0.0427
0.7001	-1.3193	0.0408
0.7501	-1.2221	0.0378
0.7999	-1.0834	0.0336
0.85	-0.9156	0.0284
0.8999	-0.693	0.0215
0.9499	-0.3679	0.0115
0.9792	-0.172	0.0055

System: butan-1-ol + triethylamine; phases: Liquid
Fixed: Temperature, K = 298.15
Fixed: Pressure, kPa = 101.325
Property: Excess molar volume, m3/mol (Liquid); method: Calculated with densities of this investigation
Mole fraction of butan-1-ol	Excess molar volume, m3/mol	uncertainty
0.0478	-3.44e-07	9e-09
0.0486	-3.48e-07	9e-09
0.097	-6.62e-07	9e-09
0.0986	-6.73e-07	9e-09
0.1448	-9.39e-07	1e-08
0.1466	-9.5e-07	1e-08
0.2001	-1.223e-06	1.1e-08
0.2463	-1.43e-06	1.2e-08
0.2479	-1.435e-06	1.2e-08
0.2958	-1.618e-06	1.2e-08
0.2977	-1.627e-06	1.2e-08
0.3536	-1.798e-06	1.3e-08
0.3538	-1.802e-06	1.3e-08
0.4	-1.913e-06	1.4e-08
0.4474	-1.992e-06	1.4e-08
0.4498	-1.998e-06	1.4e-08
0.4994	-2.043e-06	1.4e-08
0.5004	-2.046e-06	1.4e-08
0.554	-2.057e-06	1.4e-08
0.557	-2.051e-06	1.4e-08
0.6054	-2.015e-06	1.4e-08
0.6062	-2.019e-06	1.4e-08
0.6501	-1.946e-06	1.4e-08
0.6527	-1.943e-06	1.4e-08
0.7047	-1.809e-06	1.3e-08
0.7525	-1.644e-06	1.2e-08
0.7526	-1.641e-06	1.2e-08
0.8031	-1.413e-06	1.2e-08
0.8075	-1.392e-06	1.2e-08
0.8521	-1.138e-06	1.1e-08
0.8533	-1.133e-06	1.1e-08
0.9029	-7.99e-07	1e-08
0.9044	-7.91e-07	1e-08
0.9534	-4.08e-07	9e-09
0.9535	-4.06e-07	9e-09

System: ethanol + hexane + triethylamine; phases: Liquid
Fixed: Temperature, K = 298.15
Fixed: Pressure, kPa = 101.325
Property: Excess molar enthalpy (molar enthalpy of mixing), kJ/mol (Liquid); method: Flow calorimetry
Mole fraction of ethanol	Mole fraction of triethylamine	Excess molar enthalpy (molar enthalpy of mixing), kJ/mol	uncertainty
0.0177	0.9115	-0.0239	0.0022
0.0293	0.854	-0.0516	0.0023
0.0401	0.9001	-0.0715	0.0025
0.0406	0.7975	-0.0676	0.0024
0.0463	0.9227	-0.102	0.0034
0.0517	0.7421	-0.0844	0.0029
0.056	0.4656	0.0087	0.0022
0.0571	0.7148	-0.0944	0.0032
0.0679	0.6609	-0.1163	0.0038
0.0732	0.6344	-0.1129	0.0037
0.0781	0.8055	-0.1568	0.005
0.0785	0.6081	-0.0906	0.003
0.0889	0.5562	-0.1166	0.0038
0.0904	0.775	-0.182	0.0058
0.0991	0.5052	-0.1334	0.0043
0.1076	0.8657	-0.2931	0.0092
0.1085	0.4397	-0.0791	0.0027
0.1091	0.4552	-0.127	0.0041
0.111	0.8147	-0.2213	0.007
0.1142	0.7156	-0.2276	0.0072
0.119	0.406	-0.126	0.0041
0.1258	0.6867	-0.2503	0.0079
0.1287	0.3577	-0.1207	0.0039
0.1382	0.3103	-0.1196	0.0039
0.1475	0.2636	-0.0632	0.0023
0.1512	0.7475	-0.3064	0.0096
0.1567	0.2178	-0.032	0.0022
0.1579	0.4153	-0.1617	0.0052
0.1595	0.6028	-0.2942	0.0093
0.1612	0.1952	-0.007	0.0021
0.1657	0.1728	0.0242	0.0022
0.1702	0.1505	0.056	0.0023
0.1705	0.7153	-0.3571	0.0112
0.172	0.7853	-0.4485	0.014
0.1746	0.1285	0.0894	0.003
0.179	0.1066	0.1423	0.0046
0.1811	0.5491	-0.3209	0.0101
0.1876	0.0634	0.2561	0.0081
0.202	0.4971	-0.3287	0.0103
0.2045	0.3924	-0.2464	0.0078
0.2076	0.6532	-0.4376	0.0137
0.2222	0.4468	-0.3171	0.01
0.2314	0.7113	-0.5922	0.0184
0.232	0.4222	-0.3076	0.0097
0.2418	0.398	-0.3017	0.0095
0.2429	0.5944	-0.4858	0.0152
0.2484	0.3707	-0.3179	0.01
0.2608	0.3507	-0.2792	0.0088
0.2764	0.5384	-0.5325	0.0166
0.2792	0.3048	-0.2452	0.0078
0.2899	0.3503	-0.3843	0.012
0.2925	0.5114	-0.5514	0.0172
0.2971	0.2602	-0.1975	0.0063
0.3121	0.6105	-0.7144	0.0222
0.3229	0.1958	-0.0961	0.0032
0.3237	0.4593	-0.5749	0.0179
0.3292	0.3309	-0.432	0.0135
0.3313	0.175	-0.0545	0.0023
0.3477	0.1342	0.0447	0.0023
0.3534	0.4097	-0.5882	0.0183
0.3557	0.1142	0.1019	0.0034
0.3611	0.5494	-0.7762	0.0241
0.3636	0.0945	0.1533	0.005
0.3678	0.3857	-0.6091	0.019
0.3714	0.0751	0.2338	0.0074
0.3791	0.0559	0.2979	0.0094
0.3818	0.3623	-0.5944	0.0185
0.3843	0.5204	-0.8059	0.025
0.4018	0.2951	-0.4794	0.015
0.4067	0.4925	-0.8379	0.026
0.4089	0.317	-0.5612	0.0175
0.4283	0.4655	-0.8617	0.0267
0.4349	0.2737	-0.4968	0.0155
0.4474	0.2527	-0.4784	0.0149
0.4718	0.2121	-0.3634	0.0114
0.489	0.3897	-0.9029	0.028
0.4951	0.1731	-0.2583	0.0082
0.4978	0.2477	-0.5439	0.0169
0.5175	0.1357	-0.1805	0.0058
0.5263	0.3432	-0.8935	0.0277
0.5283	0.1175	-0.1164	0.0038
0.5494	0.0823	0.079	0.0027
0.5547	0.2196	-0.5567	0.0173
0.578	0.2786	-0.8154	0.0253
0.5796	0.032	0.3058	0.0096
0.6066	0.194	-0.5601	0.0174
0.61	0.2387	-0.7524	0.0234
0.6402	0.201	-0.6529	0.0203
0.6824	0.1483	-0.4826	0.0151
0.6982	0.1489	-0.5362	0.0167
0.7087	0.1155	-0.3505	0.011
0.7213	0.0998	-0.2762	0.0087
0.7456	0.0695	-0.1163	0.0039
0.7573	0.0549	-0.0289	0.0023
0.7579	0.1194	-0.4659	0.0146
0.7687	0.0406	0.0631	0.0024
0.7798	0.0268	0.1587	0.0052
0.794	0.1016	-0.4349	0.0136
0.8277	0.085	-0.369	0.0116
0.8591	0.0695	-0.3129	0.0098
0.8885	0.055	-0.271	0.0086
0.916	0.0414	-0.1971	0.0063
0.9418	0.0287	-0.1464	0.0048
0.9661	0.0167	-0.0792	0.0028

System: ethanol + hexane + triethylamine; phases: Liquid
Fixed: Temperature, K = 298.15
Fixed: Pressure, kPa = 101.325
Property: Excess molar volume, m3/mol (Liquid); method: Calculated with densities of this investigation
Mole fraction of ethanol	Mole fraction of triethylamine	Excess molar volume, m3/mol	uncertainty
0	0.5	7.2e-08	8e-09
0.005	0.9749	-3e-08	8e-09
0.0194	0.9513	-1.22e-07	8e-09
0.0202	0.8989	-1.08e-07	8e-09
0.0275	0.9543	-1.69e-07	8e-09
0.0294	0.8527	-1.61e-07	8e-09
0.0341	0.9574	-2.18e-07	8e-09
0.0398	0.8009	-2.09e-07	8e-09
0.0402	0.899	-2.43e-07	8e-09
0.0493	0.753	-2.54e-07	8e-09
0.0543	0.4728	-2.18e-07	8e-09
0.0574	0.9046	-3.45e-07	9e-09
0.0584	0.8535	-3.4e-07	9e-09
0.0599	0.7002	-2.99e-07	8e-09
0.0687	0.656	-3.38e-07	9e-09
0.0713	0.9109	-4.35e-07	9e-09
0.0791	0.8016	-4.45e-07	9e-09
0.0799	0.6001	-3.76e-07	9e-09
0.0881	0.8535	-5.13e-07	9e-09
0.0903	0.8499	-5.25e-07	9e-09
0.091	0.5445	-4.08e-07	9e-09
0.0996	0.75	-5.41e-07	9e-09
0.1003	0.4498	-4.2e-07	9e-09
0.1007	0.4958	-4.35e-07	9e-09
0.1099	0.4497	-4.54e-07	9e-09
0.1131	0.8588	-6.61e-07	9e-09
0.1188	0.7018	-6.24e-07	9e-09
0.1207	0.3958	-4.7e-07	9e-09
0.1213	0.7983	-6.76e-07	9e-09
0.1304	0.3474	-4.72e-07	9e-09
0.1396	0.3012	-4.61e-07	9e-09
0.1406	0.6471	-7.02e-07	9e-09
0.1491	0.2534	-4.29e-07	9e-09
0.1503	0.7501	-8.01e-07	1e-08
0.1516	0.8107	-8.43e-07	1e-08
0.1548	0.4226	-6.23e-07	9e-09
0.1596	0.5994	-7.6e-07	1e-08
0.1598	0.1998	-3.77e-07	9e-09
0.1698	0.1502	-2.92e-07	8e-09
0.1777	0.554	-8.12e-07	1e-08
0.1785	0.7032	-9.14e-07	1e-08
0.1798	0.0997	-1.58e-07	8e-09
0.1874	0.0618	-1.3e-08	8e-09
0.1875	0.0614	-1.1e-08	8e-09
0.1929	0.0344	1.25e-07	8e-09
0.1929	0.7592	-1.023e-06	1e-08
0.195	0.4025	-7.43e-07	9e-09
0.1965	0.5068	-8.45e-07	1e-08
0.1998	0	3.54e-07	9e-09
0.211	0.6493	-1.023e-06	1e-08
0.2172	0.4549	-8.72e-07	1e-08
0.2383	0.402	-8.78e-07	1e-08
0.2387	0.6032	-1.101e-06	1e-08
0.2392	0.7014	-1.193e-06	1.1e-08
0.2395	0.399	-8.83e-07	1e-08
0.2504	0.3748	-8.76e-07	1e-08
0.2601	0.3474	-8.58e-07	1e-08
0.2699	0.5512	-1.169e-06	1.1e-08
0.2739	0.658	-1.304e-06	1.1e-08
0.2785	0.3011	-8.16e-07	1e-08
0.2988	0.3506	-9.67e-07	1e-08
0.3	0.247	-7.36e-07	9e-09
0.3005	0.5005	-1.213e-06	1.1e-08
0.3056	0.3472	-9.78e-07	1e-08
0.3192	0.1988	-6.28e-07	9e-09
0.3195	0.6011	-1.419e-06	1.2e-08
0.3317	0.4486	-1.24e-06	1.1e-08
0.3398	0.1473	-4.67e-07	9e-09
0.3437	0.3282	-1.024e-06	1e-08
0.3454	0.5687	-1.471e-06	1.2e-08
0.36	0.0966	-2.46e-07	8e-09
0.3614	0.5488	-1.5e-06	1.2e-08
0.365	0.3933	-1.23e-06	1.1e-08
0.3697	0.0722	-1.17e-07	8e-09
0.3783	0.0506	1.9e-08	8e-09
0.3893	0.023	2.13e-07	8e-09
0.3929	0.3467	-1.192e-06	1.1e-08
0.394	0.508	-1.54e-06	1.2e-08
0.3985	0	4.09e-07	9e-09
0.4021	0.2989	-1.077e-06	1e-08
0.4213	0.2996	-1.124e-06	1e-08
0.4331	0.4592	-1.561e-06	1.2e-08
0.4447	0.2777	-1.095e-06	1e-08
0.4529	0.247	-1.007e-06	1e-08
0.4783	0.4029	-1.55e-06	1.2e-08
0.4794	0.4014	-1.556e-06	1.2e-08
0.4833	0.1965	-8.43e-07	1e-08
0.497	0.2515	-1.094e-06	1e-08
0.5125	0.1479	-6.41e-07	9e-09
0.5219	0.3484	-1.501e-06	1.2e-08
0.5424	0.0983	-3.71e-07	9e-09
0.5518	0.2241	-1.07e-06	1e-08
0.5578	0.0727	-2.16e-07	8e-09
0.5593	0.3017	-1.417e-06	1.2e-08
0.571	0.0507	-4.7e-08	8e-09
0.5878	0.0229	1.65e-07	8e-09
0.5983	0.253	-1.288e-06	1.1e-08
0.6005	0.1997	-1.026e-06	1e-08
0.6015	0	3.81e-07	9e-09
0.6395	0.2015	-1.099e-06	1e-08
0.6503	0.1748	-9.6e-07	1e-08
0.6812	0.1495	-8.48e-07	1e-08
0.7049	0.1475	-8.63e-07	1e-08
0.7209	0.0999	-5.5e-07	9e-09
0.7428	0.1286	-7.82e-07	1e-08
0.7618	0.0488	-1.71e-07	8e-09
0.7982	0.1009	-6.44e-07	9e-09
0.8009	0	2.7e-07	8e-09
0.8488	0.0756	-5e-07	9e-09
0.9031	0.0484	-3.29e-07	9e-09
0.9521	0.024	-1.66e-07	8e-09

System: butan-1-ol + hexane + triethylamine; phases: Liquid
Fixed: Temperature, K = 298.15
Fixed: Pressure, kPa = 101.325
Property: Excess molar enthalpy (molar enthalpy of mixing), kJ/mol (Liquid); method: Flow calorimetry
Mole fraction of butan-1-ol	Mole fraction of triethylamine	Excess molar enthalpy (molar enthalpy of mixing), kJ/mol	uncertainty
0.01	0.95	-0.0178	0.0023
0.02	0.95	-0.0529	0.0024
0.0201	0.8999	-0.0419	0.0024
0.0301	0.8499	-0.0667	0.0024
0.0301	0.9499	-0.1034	0.0035
0.0401	0.8	-0.0895	0.0031
0.0401	0.8999	-0.1197	0.004
0.0401	0.9499	-0.1352	0.0044
0.0501	0.4746	0.0258	0.0023
0.0501	0.7501	-0.107	0.0036
0.06	0.8501	-0.1779	0.0057
0.06	0.9001	-0.2031	0.0065
0.0601	0.7	-0.1282	0.0042
0.0701	0.65	-0.1462	0.0048
0.08	0.8001	-0.236	0.0075
0.0801	0.6001	-0.1622	0.0053
0.0801	0.8999	-0.2788	0.0088
0.09	0.8501	-0.2999	0.0095
0.0902	0.55	-0.1745	0.0056
0.1	0.4496	-0.0916	0.0036
0.1	0.7501	-0.2894	0.0091
0.1002	0.5	-0.1824	0.0059
0.1102	0.4501	-0.1871	0.0063
0.12	0.85	-0.4128	0.0129
0.12	0.85	-0.4166	0.013
0.1201	0.7	-0.3372	0.0106
0.1202	0.4001	-0.1865	0.006
0.1202	0.7999	-0.3891	0.0122
0.1302	0.35	-0.1785	0.0057
0.1402	0.6499	-0.3803	0.0119
0.1403	0.3	-0.1598	0.0052
0.15	0.4246	-0.2336	0.0074
0.1501	0.75	-0.4776	0.0149
0.1503	0.2499	-0.1291	0.0042
0.1599	0.8001	-0.5444	0.017
0.1602	0.5999	-0.4175	0.0131
0.1603	0.2	-0.0801	0.0027
0.171	0.1464	0.0007	0.0022
0.1801	0.5501	-0.4466	0.014
0.1801	0.7001	-0.5528	0.0172
0.1803	0.1001	0.102	0.0034
0.1844	0.0799	0.1573	0.0051
0.1884	0.0599	0.2262	0.0072
0.1903	0.0501	0.2628	0.0083
0.1924	0.04	0.3067	0.0097
0.1964	0.0199	0.4032	0.0126
0.1999	0.7501	-0.6645	0.0207
0.2	0.3997	-0.3622	0.0114
0.2	0.3997	-0.3648	0.0114
0.2002	0.4999	-0.4685	0.0146
0.2101	0.6501	-0.6171	0.0192
0.2202	0.45	-0.4707	0.0147
0.2399	0.7001	-0.7739	0.024
0.2399	0.7001	-0.7639	0.0237
0.2402	0.4	-0.4672	0.0146
0.2403	0.5999	-0.6747	0.021
0.2501	0.3746	-0.4564	0.0143
0.2603	0.3499	-0.4615	0.0144
0.2703	0.5499	-0.7211	0.0224
0.2799	0.65	-0.8572	0.0266
0.2803	0.2999	-0.4315	0.0135
0.3001	0.3497	-0.5368	0.0167
0.3001	0.3497	-0.5357	0.0167
0.3003	0.25	-0.3698	0.0116
0.3003	0.5	-0.7542	0.0234
0.3199	0.6	-0.9384	0.0291
0.3203	0.1999	-0.2893	0.0091
0.3303	0.45	-0.7718	0.024
0.3403	0.1499	-0.1656	0.0053
0.3501	0.3247	-0.6017	0.0187
0.3599	0.55	-1.0042	0.0311
0.3603	0.1001	-0.0013	0.0024
0.3604	0.3999	-0.7698	0.0239
0.3683	0.0801	0.0818	0.003
0.3763	0.0601	0.1739	0.0057
0.3804	0.0499	0.2245	0.0072
0.3843	0.04	0.2736	0.0087
0.3904	0.3499	-0.749	0.0233
0.3924	0.0199	0.4091	0.0129
0.3999	0.5	-1.0517	0.0326
0.4	0.2998	-0.6543	0.0204
0.4205	0.2999	-0.7097	0.0221
0.4399	0.45	-1.0781	0.0334
0.45	0.2748	-0.6895	0.0214
0.4504	0.2501	-0.6299	0.0196
0.4798	0.4001	-1.0817	0.0335
0.4804	0.2001	-0.5119	0.016
0.5	0.2498	-0.7159	0.0222
0.5105	0.15	-0.3649	0.0115
0.5199	0.35	-1.0611	0.0329
0.5399	0.1011	-0.1729	0.0081
0.5405	0.1001	-0.165	0.008
0.5499	0.2249	-0.725	0.0225
0.5599	0.2999	-1.0094	0.0313
0.5706	0.05	0.0886	0.0031
0.5999	0.1999	-0.7186	0.0223
0.5999	0.25	-0.9262	0.0287
0.6398	0.2	-0.8053	0.025
0.65	0.1749	-0.6956	0.0216
0.6799	0.1499	-0.642	0.02
0.6999	0.1499	-0.6553	0.0204
0.7198	0.1	-0.4387	0.0137
0.7357	0.0801	-0.332	0.0105
0.7499	0.1249	-0.5977	0.0186
0.7517	0.0601	-0.2211	0.0071
0.7598	0.05	-0.149	0.005
0.7678	0.04	-0.0866	0.0032
0.7839	0.0199	0.063	0.0027
0.7999	0.1	-0.5211	0.0163
0.85	0.0749	-0.4249	0.0134
0.9	0.05	-0.3074	0.0097
0.9499	0.025	-0.1615	0.0053
0.9499	0.025	-0.1504	0.005

System: butan-1-ol + hexane + triethylamine; phases: Liquid
Fixed: Temperature, K = 298.15
Fixed: Pressure, kPa = 101.325
Property: Excess molar volume, m3/mol (Liquid); method: Calculated with densities of this investigation
Mole fraction of butan-1-ol	Mole fraction of triethylamine	Excess molar volume, m3/mol	uncertainty
0	0.5005	7.7e-08	8e-09
0.0099	0.9506	-6.9e-08	8e-09
0.0197	0.9507	-1.43e-07	8e-09
0.0204	0.898	-1.34e-07	8e-09
0.0273	0.9546	-2.09e-07	8e-09
0.0299	0.8504	-1.89e-07	8e-09
0.0383	0.9521	-2.85e-07	9e-09
0.0393	0.9017	-2.75e-07	9e-09
0.0405	0.7973	-2.53e-07	8e-09
0.0504	0.7475	-3.09e-07	9e-09
0.0509	0.475	-2.62e-07	8e-09
0.0573	0.9045	-4.1e-07	9e-09
0.0595	0.7018	-3.62e-07	9e-09
0.0609	0.8477	-4.1e-07	9e-09
0.0691	0.6539	-4.09e-07	9e-09
0.078	0.9026	-5.45e-07	9e-09
0.0795	0.6019	-4.6e-07	9e-09
0.0812	0.7969	-5.32e-07	9e-09
0.0816	0.5912	-4.71e-07	9e-09
0.0884	0.8529	-6.08e-07	9e-09
0.0895	0.5518	-5.05e-07	9e-09
0.0978	0.4515	-5.19e-07	9e-09
0.0987	0.506	-5.42e-07	9e-09
0.1043	0.7392	-6.59e-07	9e-09
0.1096	0.4513	-5.79e-07	9e-09
0.1181	0.8524	-7.89e-07	1e-08
0.1196	0.801	-7.76e-07	1e-08
0.12	0.3993	-6.06e-07	9e-09
0.1213	0.6966	-7.44e-07	1e-08
0.1293	0.3525	-6.27e-07	9e-09
0.139	0.3041	-6.31e-07	9e-09
0.1409	0.6478	-8.32e-07	1e-08
0.146	0.4274	-7.44e-07	1e-08
0.149	0.752	-9.38e-07	1e-08
0.1494	0.2521	-6.21e-07	9e-09
0.1575	0.8033	-1.007e-06	1e-08
0.1588	0.6028	-9.07e-07	1e-08
0.1596	0.2008	-5.78e-07	9e-09
0.169	0.1535	-5.06e-07	9e-09
0.1798	0.7006	-1.071e-06	1e-08
0.1801	0.0983	-3.68e-07	9e-09
0.1802	0.5493	-9.86e-07	1e-08
0.1895	0.0511	-1.82e-07	8e-09
0.1957	0.7556	-1.189e-06	1.1e-08
0.1964	0.4022	-9.37e-07	1e-08
0.1984	0.504	-1.04e-06	1e-08
0.1997	0	1.37e-07	8e-09
0.2005	0.4986	-1.045e-06	1e-08
0.2103	0.65	-1.193e-06	1.1e-08
0.2217	0.4456	-1.08e-06	1e-08
0.2378	0.703	-1.359e-06	1.1e-08
0.239	0.6022	-1.291e-06	1.1e-08
0.2393	0.4016	-1.104e-06	1e-08
0.2502	0.3753	-1.1e-06	1e-08
0.261	0.3474	-1.101e-06	1e-08
0.2655	0.5581	-1.369e-06	1.1e-08
0.2777	0.3055	-1.083e-06	1e-08
0.2787	0.6519	-1.516e-06	1.2e-08
0.2799	0.6505	-1.509e-06	1.2e-08
0.2979	0.5041	-1.438e-06	1.2e-08
0.2982	0.2542	-1.029e-06	1e-08
0.3094	0.3456	-1.235e-06	1.1e-08
0.3204	0.5998	-1.631e-06	1.2e-08
0.3211	0.1971	-9.21e-07	1e-08
0.3325	0.4466	-1.477e-06	1.2e-08
0.3383	0.1539	-8e-07	1e-08
0.3523	0.3242	-1.305e-06	1.1e-08
0.3596	0.5509	-1.714e-06	1.3e-08
0.3609	0.0976	-5.68e-07	9e-09
0.3624	0.3969	-1.485e-06	1.2e-08
0.3818	0.0453	-2.72e-07	8e-09
0.3897	0.3514	-1.465e-06	1.2e-08
0.3978	0.3014	-1.355e-06	1.1e-08
0.3997	0.5008	-1.772e-06	1.3e-08
0.3999	0	8.9e-08	8e-09
0.4172	0.3056	-1.421e-06	1.2e-08
0.4367	0.4546	-1.799e-06	1.3e-08
0.4487	0.2759	-1.385e-06	1.1e-08
0.4502	0.2506	-1.321e-06	1.1e-08
0.4777	0.4034	-1.79e-06	1.3e-08
0.478	0.2043	-1.196e-06	1.1e-08
0.5042	0.2481	-1.386e-06	1.1e-08
0.5101	0.151	-9.99e-07	1e-08
0.5121	0.1477	-9.82e-07	1e-08
0.5208	0.3495	-1.748e-06	1.3e-08
0.5394	0.1022	-7.57e-07	1e-08
0.5556	0.2224	-1.354e-06	1.1e-08
0.56	0.3006	-1.663e-06	1.3e-08
0.5686	0.0536	-4.53e-07	9e-09
0.5994	0.2005	-1.303e-06	1.1e-08
0.6008	0	-1.4e-08	8e-09
0.6019	0.2482	-1.525e-06	1.2e-08
0.6422	0.1979	-1.344e-06	1.1e-08
0.6491	0.1756	-1.224e-06	1.1e-08
0.6799	0.1509	-1.123e-06	1.1e-08
0.7029	0.1487	-1.109e-06	1e-08
0.7242	0.0955	-8.04e-07	1e-08
0.7496	0.1253	-9.87e-07	1e-08
0.7626	0.0476	-4.65e-07	9e-09
0.8006	0.0998	-8.29e-07	1e-08
0.8007	0	-5.8e-08	8e-09
0.853	0.0736	-6.42e-07	9e-09
0.9008	0.0496	-4.51e-07	9e-09
0.9532	0.0234	-2.21e-07	8e-09
