Measured thermophysical data. Solubility of ammonia in liquid mixtures of (water + methanol)
Source: Fluid Phase Equilib., 2007, 10.1016/j.fluid.2007.07.049
Compound 1: methanol, CH4O, InChI=1S/CH4O/c1-2/h2H,1H3, purity 99.8%
Compound 2: water, H2O, InChI=1S/H2O/h1H2
Compound 3: ammonia, H3N, InChI=1S/H3N/h1H3, purity 99.999%

System: methanol + water; phases: Liquid, Gas
Property: Vapor or sublimation pressure, kPa (Liquid); method: Closed cell (Static) method
Mole fraction of methanol	Temperature, K	Vapor or sublimation pressure, kPa	uncertainty
0.0493	353.1	63.3	1.1
0.0496	313.2	10.5	1
0.2476	353	103.1	1.2
0.2482	313.2	18.7	1.1
0.4965	313.1	24.7	1.1
0.4987	353.3	132.2	1.3
0.7354	313.2	29.7	1.2
0.7499	353.2	156.7	1.5
0.9589	353.1	177.3	1.5

System: methanol + ammonia + water; phases: Liquid, Gas
Property: Molality, mol/kg of ammonia (Liquid); method: mass balance
Temperature, K	Solvent: Mole fraction of methanol	Pressure, kPa	Molality, mol/kg of ammonia	uncertainty
313	0.4966	83.3	8.959	0.16
313.1	0.049	65.7	12.03	0.21
313.1	0.0496	16.7	1.849	0.289
313.1	0.0496	22.1	3.263	0.273
313.1	0.0496	33.5	6.031	0.236
313.1	0.245	57.1	8.082	0.176
313.1	0.245	86	11.96	0.18
313.1	0.2482	24.6	1.756	0.268
313.1	0.2483	31.5	3.337	0.242
313.1	0.2483	35.6	4.252	0.214
313.1	0.2483	45	6.056	0.182
313.1	0.4965	24.7	0	0.34
313.1	0.4966	71.2	7.574	0.159
313.1	0.4966	97.5	10.4	0.16
313.1	0.4966	113.6	11.92	0.17
313.1	0.4983	38	2.86	0.211
313.1	0.4983	46.7	4.319	0.15
313.1	0.7353	37.7	1.509	0.509
313.1	0.7353	47.8	2.995	0.172
313.1	0.7353	60.2	4.541	0.569
313.1	0.7354	73.9	6.015	0.176
313.2	0.049	34.8	6.312	0.237
313.2	0.049	41.7	7.745	0.223
313.2	0.049	49.2	9.188	0.215
313.2	0.049	57.8	10.73	0.21
313.2	0.0496	10.5	0	0.3
313.2	0.0496	27.1	4.537	0.255
313.2	0.245	47.6	6.515	0.165
313.2	0.245	75.2	10.59	0.18
313.2	0.2482	18.7	0	0.28
313.2	0.4983	30.4	1.376	0.467
313.2	0.7354	29.7	0	0.19
313.8	0.4984	60.2	6.05	0.193
353	0.0493	140.7	5.197	0.099
353	0.0494	83.1	1.441	0.093
353	0.0494	249.7	11	0.12
353	0.2476	103.1	0	0.11
353	0.2478	181.7	4.99	0.079
353	0.2482	243	7.971	0.1
353	0.2482	261.3	8.818	0.1
353	0.7501	304.7	5.937	0.089
353	0.9458	264.5	3.348	0.08
353	0.959	535.6	10.62	0.14
353.1	0.0493	63.3	0	0.091
353.1	0.0494	103.2	2.792	0.082
353.1	0.0494	124.9	4.192	0.096
353.1	0.0494	182.7	7.587	0.093
353.1	0.0495	146.2	5.502	0.1
353.1	0.2476	115.1	0.95	0.116
353.1	0.2477	128.3	1.86	0.095
353.1	0.2477	145.8	2.975	0.096
353.1	0.2478	163.8	4.029	0.087
353.1	0.2482	227.7	7.251	0.097
353.1	0.2483	285.1	9.827	0.109
353.1	0.2483	311.2	10.83	0.12
353.1	0.4911	230.7	5.186	0.08
353.1	0.4912	251.3	6.058	0.082
353.1	0.499	359.1	9.89	0.117
353.1	0.499	391.3	10.93	0.12
353.1	0.499	421.4	11.91	0.13
353.1	0.7499	196.3	1.925	0.07
353.1	0.75	241	3.717	0.077
353.1	0.7501	271.8	4.854	0.081
353.1	0.9458	216	1.613	0.068
353.1	0.9458	313	4.85	0.088
353.1	0.9458	352.4	6.002	0.096
353.1	0.9589	177.3	0	0.067
353.2	0.0493	98.1	2.499	0.081
353.2	0.2478	196.6	5.799	0.068
353.2	0.2482	207.9	6.304	0.078
353.2	0.2483	339.7	11.96	0.13
353.2	0.4911	180.6	2.866	0.093
353.2	0.4911	207.4	4.147	0.072
353.2	0.4989	257.5	6.244	0.084
353.2	0.4989	282.2	7.184	0.092
353.2	0.499	305	8.015	0.1
353.2	0.499	328.4	8.842	0.107
353.2	0.7499	156.7	0	0.064
353.2	0.7509	403.2	8.877	0.118
353.2	0.7509	461.6	10.53	0.13
353.2	0.7509	506.4	11.71	0.14
353.2	0.9589	431.3	7.921	0.115
353.2	0.9589	480.9	9.234	0.13
353.2	0.959	591.8	11.91	0.15
353.3	0.491	147.6	1.04	0.088
353.3	0.491	158.6	1.685	0.091
353.3	0.4987	132.2	0	0.1
353.3	0.7508	358.6	7.524	0.104

System: methanol + ammonia + water; phases: Gas, Liquid
Property: Partial pressure, kPa of methanol (Gas); method: Phase Equilibration
Temperature, K	Solvent: Mole fraction of methanol	Molality, mol/kg of ammonia	Partial pressure, kPa of methanol	uncertainty
313.2	0.0496	0	4	1
313.1	0.0496	1.849	3.2	1
313.1	0.0496	3.263	2.6	1
313.2	0.0496	4.537	2.4	1
313.1	0.0496	6.031	2.3	1
313.2	0.049	6.312	2.3	1
313.2	0.049	7.745	2.1	1
313.2	0.049	9.188	2.1	1
313.2	0.049	10.73	2.1	1
313.1	0.049	12.03	2	1
313.2	0.2482	0	13.4	1.1
313.1	0.2482	1.756	12.7	1
313.1	0.2483	3.337	11.1	1
313.1	0.2483	4.252	10.7	1
313.1	0.2483	6.056	10	1
313.2	0.245	6.515	9.7	1
313.1	0.245	8.082	8.9	1
313.2	0.245	10.59	8.6	1
313.1	0.245	11.96	8.4	1
313.1	0.4965	0	20.3	1.1
313.2	0.4983	1.376	19	1.1
313.1	0.4983	2.86	17.5	1.1
313.1	0.4983	4.319	16.4	1.1
313.8	0.4984	6.05	16.1	1.1
313.1	0.4966	7.574	15.3	1.1
313	0.4966	8.959	14.5	1.1
313.1	0.4966	10.4	14.3	1.1
313.1	0.4966	11.92	14.3	1.1
313.2	0.7354	0	28.1	1.2
313.1	0.7353	1.509	32	1.2
313.1	0.7353	2.995	32.9	1.2
313.1	0.7353	4.541	33.5	1.2
313.1	0.7354	6.015	27.8	1.2
353	0.0493	0	20.3	1.1
353.1	0.0494	1.441	19	1.1
353	0.0493	2.499	18	1.1
353.2	0.0494	2.792	16.8	1.1
353.1	0.0494	4.192	15.9	1
353.1	0.0493	5.197	15	1.1
353	0.0495	5.502	14.6	1.4
353.1	0.0494	7.587	13.6	1
353.1	0.0494	11	12.4	1.1
353	0.2476	0	65.4	1.5
353	0.2476	0.95	66.6	1.5
353.1	0.2477	1.86	61.4	1.4
353.1	0.2477	2.975	60.2	1.4
353.1	0.2478	4.029	57.7	1.4
353.1	0.2478	4.99	56.9	1.6
353	0.2478	5.799	54.4	1.8
353.2	0.2482	6.304	55.4	1.6
353.2	0.2482	7.251	53.4	1.8
353.1	0.2482	7.971	51.4	1.4
353	0.2482	8.818	50	1.8
353	0.2483	9.827	49.1	2.4
353.1	0.2483	10.83	46.9	2
353.1	0.2483	11.96	46	4.6
353.2	0.4987	0	103.7	2
353.3	0.491	1.04	103.2	2
353.3	0.491	1.685	98.6	2
353.3	0.4911	2.866	94.6	1.9
353.2	0.4911	4.147	91.3	2
353.2	0.4911	5.186	87.2	2.1
353.1	0.4912	6.058	84.8	2.2
353.1	0.4989	6.244	86.7	3.3
353.2	0.4989	7.184	84.1	2.3
353.2	0.499	8.015	81.5	1.6
353.2	0.499	8.842	79.9	2
353.2	0.499	9.89	78.3	4.4
353.1	0.499	10.93	75.4	4.5
353.1	0.499	11.91	73.8	5.2
353.2	0.7499	0	139.4	2.5
353.1	0.7499	1.925	136	2.5
353.1	0.75	3.717	125	2.5
353.1	0.7501	4.854	120	2.4
353	0.7501	5.937	116.8	2.4
353.3	0.7508	7.524	112.5	2.5
353.2	0.7509	8.877	106.5	2.4
353.2	0.7509	10.53	101.9	2.4
353.2	0.7509	11.71	99.6	2.4
353.1	0.9589	0	174.8	3.5
353.1	0.9458	1.613	173	3.4
353	0.9458	3.348	164.6	3.2
353.1	0.9458	4.85	159.1	3.1
353.1	0.9458	6.002	154.2	3.1
353.2	0.9589	7.921	151.6	3.1
353.2	0.9589	9.234	145.1	3.3
353	0.959	10.62	140.2	3.1
353.2	0.959	11.91	137.9	3
393.2	0.049	0	53.5	1.5
393.2	0.049	4.628	54	1.4
393.3	0.049	5.978	53	1.6
393.1	0.049	6.146	51	1.6
393.3	0.0491	7.281	50	1.4
393.3	0.0491	9.955	47.1	1.4
393.1	0.0491	11.85	45.3	1.4
393.1	0.2496	0	272.8	4.3
393.1	0.246	1.444	222.3	3.6
393.1	0.2499	2.603	226.5	3.6
393.2	0.2461	2.965	219	3.5
393.2	0.2461	4.431	213.4	3.4
393.1	0.25	5.33	217.1	3.7
393.2	0.2462	5.938	210.7	3.4
393.2	0.2502	7.558	207.5	3.3
393.1	0.2502	8.983	205.7	3.4
393.1	0.2502	10.62	216.9	3.6
393.2	0.2502	11.71	225	3.7
393.1	0.4981	0	359.6	5.7
393.1	0.494	1.376	370.3	5.9
393.1	0.4941	3.039	362.3	5.8
393.2	0.4942	4.643	365.3	5.8
393.1	0.4943	6.075	368.2	5.9
393.2	0.4983	6.611	400.7	6.7
392.8	0.4983	9.02	398.8	6.4
392.7	0.4983	10.41	419	6.7
392.8	0.4983	11.64	423.7	9.6
393.4	0.7468	0	498.6	8
393.3	0.7497	1.605	518	8.2
393.3	0.7497	3.469	491.6	7.8
393.2	0.7498	4.851	467.6	7.5
393.3	0.7498	5.737	458.9	7.3
393.1	0.747	7.454	440.7	7.1
393.1	0.747	9.212	428.9	7
392.9	0.7471	11.08	413.8	6.7
393	0.7471	11.99	410.6	6.7
393.1	0.9525	0	624.9	10
393.1	0.9463	1.452	579.7	9.2
393.1	0.9464	2.826	548.8	8.7
393.1	0.9464	4.357	547.1	8.7
393.1	0.9526	5.244	541.5	8.6
393.1	0.9464	5.786	547.8	8.7
393.1	0.9526	7.258	555.1	9
393.1	0.9526	8.836	607.7	9.7
393.1	0.9526	10.31	562.6	9.5
393	0.9526	11.63	526.5	8.9

System: methanol + ammonia + water; phases: Gas, Liquid
Property: Partial pressure, kPa of water (Gas); method: Phase Equilibration
Temperature, K	Solvent: Mole fraction of methanol	Molality, mol/kg of ammonia	Partial pressure, kPa of water	uncertainty
313.2	0.0496	0	6.4	1
313.1	0.0496	1.849	8.1	1
313.1	0.0496	3.263	7.6	1
313.2	0.0496	4.537	7.4	1
313.1	0.0496	6.031	7.1	1
313.2	0.049	6.312	7.7	1
313.2	0.049	7.745	7.3	1
313.2	0.049	9.188	6.7	1
313.2	0.049	10.73	6.3	1
313.1	0.049	12.03	6.7	1
313.2	0.2482	0	5.2	1
313.1	0.2482	1.756	6.6	1
313.1	0.2483	3.337	6.1	1
313.1	0.2483	4.252	5.8	1
313.1	0.2483	6.056	5.9	1
313.2	0.245	6.515	6.8	1
313.1	0.245	8.082	6.3	1
313.2	0.245	10.59	6.2	1
313.1	0.245	11.96	5.7	1
313.1	0.4965	0	4.3	1
313.2	0.4983	1.376	6.2	1
313.1	0.4983	2.86	5.7	1
313.1	0.4983	4.319	5.5	1
313.8	0.4984	6.05	5.7	1
313.1	0.4966	7.574	5	1
313	0.4966	8.959	5	1
313.1	0.4966	10.4	5	1
313.1	0.4966	11.92	4.8	1
313.2	0.7354	0	1.6	1
313.1	0.7353	1.509	1.4	1
313.1	0.7353	2.995	1	1
313.1	0.7353	4.541	0.5	1
313.1	0.7354	6.015	0.6	1
353	0.0493	0	43	1.3
353.1	0.0494	1.441	42.4	1.2
353	0.0493	2.499	41.9	1.2
353.2	0.0494	2.792	41.7	1.2
353.1	0.0494	4.192	40.2	1.4
353.1	0.0493	5.197	40.1	1.9
353	0.0495	5.502	39.2	6
353.1	0.0494	7.587	38.2	1.3
353.1	0.0494	11	36.5	2.4
353	0.2476	0	37.8	1.2
353	0.2476	0.95	39.5	1.2
353.1	0.2477	1.86	39.1	1.2
353.1	0.2477	2.975	37.3	1.2
353.1	0.2478	4.029	35.5	1.3
353.1	0.2478	4.99	34.6	1.4
353	0.2478	5.799	33.9	1.8
353.2	0.2482	6.304	33.1	1.6
353.2	0.2482	7.251	32.1	1.7
353.1	0.2482	7.971	31.9	1.4
353	0.2482	8.818	31.8	2
353	0.2483	9.827	30.9	2.7
353.1	0.2483	10.83	32.6	1.8
353.1	0.2483	11.96	31.2	4.4
353.2	0.4987	0	28.6	1.1
353.3	0.491	1.04	30	1.1
353.3	0.491	1.685	30.1	1.1
353.3	0.4911	2.866	29.2	1.1
353.2	0.4911	4.147	27.8	1.2
353.2	0.4911	5.186	27	1.3
353.1	0.4912	6.058	26.6	1.3
353.1	0.4989	6.244	25.6	1.7
353.2	0.4989	7.184	25.9	1.3
353.2	0.499	8.015	25.1	1.1
353.2	0.499	8.842	24.9	1.2
353.2	0.499	9.89	24.2	2
353.1	0.499	10.93	23.7	1.9
353.1	0.499	11.91	23.1	2.1
353.2	0.7499	0	17.2	1
353.1	0.7499	1.925	16.6	1
353.1	0.75	3.717	16.6	1
353.1	0.7501	4.854	16.1	1
353	0.7501	5.937	15.6	1
353.3	0.7508	7.524	15	1
353.2	0.7509	8.877	14.4	1
353.2	0.7509	10.53	14.6	1
353.2	0.7509	11.71	13.4	1
353.1	0.9589	0	2.6	1
353.1	0.9458	1.613	5.2	1
353	0.9458	3.348	4.9	1
353.1	0.9458	4.85	5.2	1
353.1	0.9458	6.002	4.9	1
353.2	0.9589	7.921	4.4	1
353.2	0.9589	9.234	4.4	1
353	0.959	10.62	4.5	1
353.2	0.959	11.91	4.6	1
393.2	0.049	0	209.9	3.4
393.2	0.049	4.628	204.2	3.3
393.3	0.049	5.978	227.4	6.2
393.1	0.049	6.146	212.2	6.2
393.3	0.0491	7.281	242.6	4
393.3	0.0491	9.955	260	4.2
393.1	0.0491	11.85	253.1	4.1
393.1	0.2496	0	119.4	2.1
393.1	0.246	1.444	163.4	2.6
393.1	0.2499	2.603	148.5	2.4
393.2	0.2461	2.965	169.8	2.7
393.2	0.2461	4.431	180.3	2.9
393.1	0.25	5.33	182.8	2.9
393.2	0.2462	5.938	182.4	3
393.2	0.2502	7.558	207.7	3.4
393.1	0.2502	8.983	212.2	3.4
393.1	0.2502	10.62	199.5	3.3
393.2	0.2502	11.71	197	3.2
393.1	0.4981	0	123.6	2.1
393.1	0.494	1.376	112.8	1.9
393.1	0.4941	3.039	128.7	2.2
393.2	0.4942	4.643	145.5	2.4
393.1	0.4943	6.075	153.9	2.5
393.2	0.4983	6.611	157.9	2.5
392.8	0.4983	9.02	139.3	2.3
392.7	0.4983	10.41	150.9	2.5
392.8	0.4983	11.64	149.3	3
393.4	0.7468	0	68.5	1.4
393.3	0.7497	1.605	67.4	1.4
393.3	0.7497	3.469	62.2	1.4
393.2	0.7498	4.851	59	1.3
393.3	0.7498	5.737	56.4	1.3
393.1	0.747	7.454	56.6	1.3
393.1	0.747	9.212	55.4	1.3
392.9	0.7471	11.08	53.7	1.3
393	0.7471	11.99	52.6	1.4
393.1	0.9525	0	8.4	1
393.1	0.9463	1.452	12.8	1
393.1	0.9464	2.826	14.4	1
393.1	0.9464	4.357	13.6	1
393.1	0.9526	5.244	11.3	1
393.1	0.9464	5.786	13.6	1
393.1	0.9526	7.258	11.2	1
393.1	0.9526	8.836	12.4	1
393.1	0.9526	10.31	11.2	1
393	0.9526	11.63	10.3	1
