Measured thermophysical data. Liquid liquid equilibria for the binary systems of sulfolane with branched cycloalkanes
Source: Fluid Phase Equilib., 2006, 10.1016/j.fluid.2006.05.008
Compound 1: methylcyclopentane, C6H12, InChI=1S/C6H12/c1-6-4-2-3-5-6/h6H,2-5H2,1H3
Compound 2: sulfolane, C4H8O2S, InChI=1S/C4H8O2S/c5-7(6)3-1-2-4-7/h1-4H2
Compound 3: methylcyclohexane, C7H14, InChI=1S/C7H14/c1-7-5-3-2-4-6-7/h7H,2-6H2,1H3
Compound 4: ethylcyclohexane, C8H16, InChI=1S/C8H16/c1-2-8-6-4-3-5-7-8/h8H,2-7H2,1H3

System: methylcyclopentane + sulfolane; phases: Liquid mixture 1, Liquid mixture 2
Fixed: Pressure, kPa = 101.325
Property: Mole fraction of methylcyclopentane (Liquid mixture 1); method: Chromatography
Temperature, K	Mole fraction of methylcyclopentane	uncertainty
304.32	0.9859	0.004
323.81	0.9791	0.004
343.98	0.9704	0.004
352.45	0.9648	0.004
364.35	0.9582	0.004
372.69	0.9555	0.004
382.3	0.9507	0.004
393.37	0.9444	0.004
402.64	0.9382	0.004
409.75	0.931	0.004
422.23	0.9189	0.004
433.67	0.8996	0.0041
444.67	0.8757	0.0041

System: methylcyclopentane + sulfolane; phases: Liquid mixture 2, Liquid mixture 1
Fixed: Pressure, kPa = 101.325
Property: Mole fraction of methylcyclopentane (Liquid mixture 2); method: Chromatography
Temperature, K	Mole fraction of methylcyclopentane	uncertainty
304.32	0.0267	0.004
323.81	0.0374	0.004
343.98	0.0532	0.004
352.45	0.0608	0.004
364.35	0.0786	0.004
372.69	0.0878	0.0041
382.3	0.1019	0.0041
393.37	0.1234	0.0041
402.64	0.1395	0.0041
409.75	0.1487	0.0041
422.23	0.1685	0.0042
433.67	0.1943	0.0043
444.67	0.2201	0.0043

System: methylcyclohexane + sulfolane; phases: Liquid mixture 1, Liquid mixture 2
Fixed: Pressure, kPa = 101.325
Property: Mole fraction of methylcyclohexane (Liquid mixture 1); method: Chromatography
Temperature, K	Mole fraction of methylcyclohexane	uncertainty
303.96	0.9994	0.0006
318.48	0.9898	0.008
333.69	0.9869	0.008
348.76	0.9861	0.008
364.49	0.983	0.008
373.89	0.9752	0.008
383.87	0.9707	0.008
394.2	0.9606	0.008
403.74	0.958	0.008
414.02	0.9459	0.008
423.84	0.9329	0.008
433.86	0.9202	0.008
444.73	0.8946	0.008
453.97	0.8749	0.0081
464.91	0.8526	0.0081

System: methylcyclohexane + sulfolane; phases: Liquid mixture 2, Liquid mixture 1
Fixed: Pressure, kPa = 101.325
Property: Mole fraction of methylcyclohexane (Liquid mixture 2); method: Chromatography
Temperature, K	Mole fraction of methylcyclohexane	uncertainty
303.96	0.0193	0.008
318.48	0.0278	0.008
333.69	0.0417	0.008
348.76	0.0586	0.008
364.49	0.0736	0.008
373.89	0.0859	0.008
383.87	0.0937	0.008
394.2	0.1076	0.008
403.74	0.1228	0.0081
414.02	0.1374	0.0081
423.84	0.1522	0.0081
433.86	0.176	0.0081
444.73	0.2122	0.0082
453.97	0.2375	0.0082
464.91	0.2805	0.0083

System: sulfolane + ethylcyclohexane; phases: Liquid mixture 1, Liquid mixture 2
Fixed: Pressure, kPa = 101.325
Property: Mole fraction of ethylcyclohexane (Liquid mixture 1); method: Chromatography
Temperature, K	Mole fraction of ethylcyclohexane	uncertainty
314.29	0.9925	0.004
334.19	0.9905	0.004
353.78	0.9862	0.004
373.75	0.9768	0.004
383.5	0.9705	0.004
393.29	0.9646	0.004
401.13	0.9584	0.004
410.38	0.9555	0.004
412.7	0.9526	0.004
421.5	0.9408	0.004
424.06	0.9397	0.004
428.94	0.9309	0.004
434.61	0.9249	0.004
441.91	0.9129	0.0041
451.15	0.8968	0.0041

System: sulfolane + ethylcyclohexane; phases: Liquid mixture 2, Liquid mixture 1
Fixed: Pressure, kPa = 101.325
Property: Mole fraction of ethylcyclohexane (Liquid mixture 2); method: Chromatography
Temperature, K	Mole fraction of ethylcyclohexane	uncertainty
314.29	0.0127	0.004
334.19	0.019	0.004
353.78	0.0262	0.004
373.75	0.0362	0.004
383.5	0.0432	0.004
393.29	0.0525	0.004
401.13	0.0632	0.004
410.38	0.072	0.004
412.7	0.0757	0.0041
421.5	0.0957	0.0041
424.06	0.0992	0.0041
428.94	0.1103	0.0041
434.61	0.1199	0.0041
441.91	0.1335	0.0041
451.15	0.1505	0.0042
