Measured thermophysical data. Solubility of terephthalic acid in aqueous acetic acid from 423.15 to 513.15K
Source: Fluid Phase Equilib., 2005, 10.1016/j.fluid.2005.04.015
Compound 1: acetic acid, C2H4O2, InChI=1S/C2H4O2/c1-2(3)4/h1H3,(H,3,4)
Compound 2: 1,4-benzenedicarboxylic acid, C8H6O4, InChI=1S/C8H6O4/c9-7(10)5-1-2-6(4-3-5)8(11)12/h1-4H,(H,9,10)(H,11,12)
Compound 3: water, H2O, InChI=1S/H2O/h1H2

System: acetic acid + 1,4-benzenedicarboxylic acid; phases: Liquid, Crystal
Fixed: Pressure, kPa = 101.325
Property: Molality, mol/kg of 1,4-benzenedicarboxylic acid (Liquid); method: HPLC
Temperature, K	Molality, mol/kg of 1,4-benzenedicarboxylic acid	uncertainty
423.15	0.036	0.0026
433.15	0.042	0.003
443.15	0.0535	0.0039
453.15	0.0669	0.0048
463.15	0.085	0.0061
473.15	0.106	0.0076
483.15	0.1307	0.0094
493.15	0.1653	0.0119
503.15	0.2055	0.0148
513.15	0.2569	0.0185

System: acetic acid + 1,4-benzenedicarboxylic acid + water; phases: Liquid, Crystal
Fixed: Pressure, kPa = 101.325
Property: Molality, mol/kg of 1,4-benzenedicarboxylic acid (Liquid); method: HPLC
Solvent: Mole fraction of acetic acid	Temperature, K	Molality, mol/kg of 1,4-benzenedicarboxylic acid	uncertainty
0.3103	423.15	0.0819	0.0059
0.3103	433.15	0.0938	0.0068
0.3103	443.15	0.1316	0.0095
0.3103	453.15	0.1721	0.0124
0.3103	463.15	0.2308	0.0166
0.3103	473.15	0.3101	0.0224
0.3103	483.15	0.4194	0.0302
0.3103	493.15	0.5676	0.0409
0.3103	503.15	0.7656	0.0552
0.3103	513.15	1.0243	0.0738
0.4118	423.15	0.0585	0.0042
0.4118	433.15	0.0785	0.0057
0.4118	443.15	0.1027	0.0074
0.4118	453.15	0.1341	0.0097
0.4118	463.15	0.1782	0.0128
0.4118	473.15	0.2356	0.017
0.4118	483.15	0.3117	0.0225
0.4118	493.15	0.4248	0.0306
0.4118	503.15	0.5352	0.0386
0.4118	513.15	0.7211	0.052
0.5455	423.15	0.0501	0.0036
0.5455	433.15	0.057	0.0041
0.5455	443.15	0.0831	0.006
0.5455	453.15	0.1066	0.0077
0.5455	463.15	0.1387	0.01
0.5455	473.15	0.1791	0.0129
0.5455	483.15	0.2321	0.0167
0.5455	493.15	0.3009	0.0217
0.5455	503.15	0.3889	0.028
0.5455	513.15	0.5065	0.0365
0.6296	423.15	0.0438	0.0032
0.6296	433.15	0.0514	0.0037
0.6296	443.15	0.0715	0.0052
0.6296	453.15	0.0931	0.0067
0.6296	463.15	0.1209	0.0087
0.6296	473.15	0.1558	0.0112
0.6296	483.15	0.2	0.0144
0.6296	493.15	0.2562	0.0185
0.6296	503.15	0.3258	0.0235
0.6296	513.15	0.4149	0.0299
0.8507	423.15	0.0372	0.0027
0.8507	433.15	0.0441	0.0032
0.8507	443.15	0.0573	0.0041
0.8507	453.15	0.0738	0.0053
0.8507	463.15	0.0947	0.0068
0.8507	473.15	0.1198	0.0086
0.8507	483.15	0.1501	0.0108
0.8507	493.15	0.1899	0.0137
0.8507	503.15	0.2368	0.0171
0.8507	513.15	0.2955	0.0213
1	423.15	0.036	0.0026
1	433.15	0.042	0.003
1	443.15	0.0535	0.0039
1	453.15	0.0669	0.0048
1	463.15	0.085	0.0061
1	473.15	0.106	0.0076
1	483.15	0.1307	0.0094
1	493.15	0.1653	0.0119
1	503.15	0.2055	0.0148
1	513.15	0.2569	0.0185
