Measured thermophysical data. Salting effect on the liquid liquid equilibria for the ternary system water +N-methyl-2-pyrrolidone + 1-pentanol
Source: Fluid Phase Equilib., 2008, 10.1016/j.fluid.2008.01.008
Compound 1: N-methylpyrrolidone, C5H9NO, InChI=1S/C5H9NO/c1-6-4-2-3-5(6)7/h2-4H2,1H3
Compound 2: pentan-1-ol, C5H12O, InChI=1S/C5H12O/c1-2-3-4-5-6/h6H,2-5H2,1H3
Compound 3: water, H2O, InChI=1S/H2O/h1H2
Compound 4: potassium ethanoate, C2H3KO2, InChI=1S/C2H4O2.K/c1-2(3)4;/h1H3,(H,3,4);/q;+1/p-1
Compound 5: potassium chloride, ClK, InChI=1S/ClH.K/h1H;/q;+1/p-1
Compound 6: sodium chloride, ClNa, InChI=1S/ClH.Na/h1H;/q;+1/p-1

System: pentan-1-ol + water; phases: Liquid mixture 2, Liquid mixture 1
Fixed: Pressure, kPa = 101.3
Property: Mole fraction of pentan-1-ol (Liquid mixture 2); method: CHROM:UFactor:4
Temperature, K	Mole fraction of pentan-1-ol	uncertainty
283.15	0.0032	0.0001
323.15	0.0024	0.0001

System: pentan-1-ol + water; phases: Liquid mixture 1, Liquid mixture 2
Fixed: Pressure, kPa = 101.3
Property: Mole fraction of pentan-1-ol (Liquid mixture 1); method: CHROM:UFactor:4
Temperature, K	Mole fraction of pentan-1-ol	uncertainty
283.15	0.6526	0.0139
323.15	0.6086	0.0157

System: pentan-1-ol + N-methylpyrrolidone + water; phases: Liquid mixture 2, Liquid mixture 1
Fixed: Pressure, kPa = 101.3
Property: Mole fraction of N-methylpyrrolidone (Liquid mixture 2); method: CHROM:UFactor:4
Property: Mole fraction of N-methylpyrrolidone (Liquid mixture 1); method: CHROM:UFactor:4
Property: Mole fraction of water (Liquid mixture 1); method: CHROM:UFactor:4
Temperature, K	Mole fraction of water	Mole fraction of N-methylpyrrolidone	uncertainty	Mole fraction of N-methylpyrrolidone	uncertainty	Mole fraction of water	uncertainty
283.15	0.9968	0	0.0001	0	0.0001	0.3474	
283.15	0.9899	0.0061	0.0003	0.0188	0.0008	0.3922	
283.15	0.9797	0.0148	0.0006	0.0363	0.0015	0.427	
283.15	0.9676	0.026	0.001	0.0546	0.0022	0.4751	
283.15	0.9528	0.0386	0.0015	0.0696	0.0028	0.5197	
283.15	0.9508	0.0401	0.0016	0.0748	0.003	0.5326	
283.15	0.9375	0.0505	0.002	0.0848	0.0034	0.5656	
283.15	0.9232	0.0611	0.0024	0.0904	0.0036	0.5978	
323.15	0.9976	0	0.0001	0	0.0001	0.3914	
323.15	0.9916	0.0052	0.0002	0.0262	0.0011	0.4358	
323.15	0.9896	0.0069	0.0003	0.0415	0.0017	0.465	
323.15	0.9815	0.0139	0.0006	0.0527	0.0021	0.4885	
323.15	0.9741	0.0196	0.0008	0.0611	0.0024	0.5151	
323.15	0.9714	0.0216	0.0009	0.0681	0.0027	0.5333	
323.15	0.9678	0.0242	0.001	0.0721	0.0029	0.55	
323.15	0.9647	0.0267	0.0011	0.0771	0.0031	0.5811	

System: pentan-1-ol + potassium ethanoate + water; phases: Liquid mixture 1, Liquid mixture 2
Fixed: Pressure, kPa = 101.3
Property: Mole fraction of water (Liquid mixture 1); method: CHROM:UFactor:4
Property: Mole fraction of water (Liquid mixture 2); method: CHROM:UFactor:4
Property: Mole fraction of pentan-1-ol (Liquid mixture 2); method: CHROM:UFactor:4
Temperature, K	Mole fraction of pentan-1-ol	Mole fraction of water	uncertainty	Mole fraction of water	uncertainty	Mole fraction of pentan-1-ol	uncertainty
283.15	0.7231	0.2769	0.0111	0.9646	0.0014	0.0011	
323.15	0.6684	0.3316	0.0133	0.9646	0.0014	0.001	

System: pentan-1-ol + potassium chloride + water; phases: Liquid mixture 2, Liquid mixture 1
Fixed: Pressure, kPa = 101.3
Property: Mole fraction of pentan-1-ol (Liquid mixture 2); method: CHROM:UFactor:4
Property: Mole fraction of water (Liquid mixture 1); method: CHROM:UFactor:4
Property: Mole fraction of pentan-1-ol (Liquid mixture 1); method: CHROM:UFactor:4
Temperature, K	Mole fraction of water	Mole fraction of pentan-1-ol	uncertainty	Mole fraction of water	uncertainty	Mole fraction of pentan-1-ol	uncertainty
283.15	0.9559	0.0008	0.0001	0.2709	0.0108	0.7291	
323.15	0.953	0.0007	0.0001	0.3222	0.0129	0.6778	

System: pentan-1-ol + sodium chloride + water; phases: Liquid mixture 2, Liquid mixture 1
Fixed: Pressure, kPa = 101.3
Property: Mole fraction of pentan-1-ol (Liquid mixture 2); method: CHROM:UFactor:4
Property: Mole fraction of water (Liquid mixture 1); method: CHROM:UFactor:4
Property: Mole fraction of pentan-1-ol (Liquid mixture 1); method: CHROM:UFactor:4
Temperature, K	Mole fraction of water	Mole fraction of pentan-1-ol	uncertainty	Mole fraction of water	uncertainty	Mole fraction of pentan-1-ol	uncertainty
283.15	0.9459	0.0009	0.0001	0.249	0.01	0.751	
323.15	0.9421	0.0005	0.0001	0.308	0.0123	0.692	
