Measured thermophysical data. Binary liquid liquid equilibrium in the systems containing monofunctional benzene derivates and 1,2-ethanediol
Source: Fluid Phase Equilib., 2006, 10.1016/j.fluid.2006.09.014
Compound 1: 1,2-ethanediol, C2H6O2, InChI=1S/C2H6O2/c3-1-2-4/h3-4H,1-2H2, purity 99.8%
Compound 2: acetophenone, C8H8O, InChI=1S/C8H8O/c1-7(9)8-5-3-2-4-6-8/h2-6H,1H3, purity 99%
Compound 3: anisole, C7H8O, InChI=1S/C7H8O/c1-8-7-5-3-2-4-6-7/h2-6H,1H3, purity 99.7%
Compound 4: chlorobenzene, C6H5Cl, InChI=1S/C6H5Cl/c7-6-4-2-1-3-5-6/h1-5H, purity 99.5%
Compound 5: toluene, C7H8, InChI=1S/C7H8/c1-7-5-3-2-4-6-7/h2-6H,1H3, purity 99.8%

System: 1,2-ethanediol; phases: Liquid
Property: Mass density, kg/m3 (Liquid); method: VIBTUB:UFactor:4
Temperature, K	Pressure, kPa	Mass density, kg/m3	uncertainty
298.15	101.325	1109.9	0.4

System: acetophenone; phases: Liquid
Property: Mass density, kg/m3 (Liquid); method: VIBTUB:UFactor:8
Temperature, K	Pressure, kPa	Mass density, kg/m3	uncertainty
298.15	101.325	1023	0.7

System: anisole; phases: Liquid
Property: Mass density, kg/m3 (Liquid); method: VIBTUB:UFactor:4
Temperature, K	Pressure, kPa	Mass density, kg/m3	uncertainty
298.15	101.325	989.13	0.21

System: chlorobenzene; phases: Liquid
Property: Mass density, kg/m3 (Liquid); method: VIBTUB:UFactor:4
Temperature, K	Pressure, kPa	Mass density, kg/m3	uncertainty
298.15	101.325	1100.9	0.5

System: toluene; phases: Liquid
Property: Mass density, kg/m3 (Liquid); method: VIBTUB:UFactor:2
Temperature, K	Pressure, kPa	Mass density, kg/m3	uncertainty
298.15	101.325	862.27	0.23

System: 1,2-ethanediol + toluene; phases: Liquid mixture 1, Liquid mixture 2
Fixed: Pressure, kPa = 101.3
Property: Mole fraction of toluene (Liquid mixture 1); method: volumetric method
Temperature, K	Mole fraction of toluene	uncertainty
283.15	0.0195	0.0008
293.15	0.0203	0.0008
303.15	0.0217	0.0008
313.15	0.0228	0.0008
323.15	0.0246	0.0008
333.15	0.0263	0.0006

System: 1,2-ethanediol + toluene; phases: Liquid mixture 2, Liquid mixture 1
Fixed: Pressure, kPa = 101.3
Property: Mole fraction of toluene (Liquid mixture 2); method: volumetric method
Temperature, K	Mole fraction of toluene	uncertainty
283.15	0.9974	0.0024
293.15	0.9967	0.0024
303.15	0.9951	0.0024
313.15	0.9944	0.0024
323.15	0.9933	0.0024
333.15	0.9914	0.0022

System: 1,2-ethanediol + toluene; phases: Liquid mixture 1, Liquid mixture 2
Property: Mole fraction of toluene (Liquid mixture 1); method: Chromatography
Temperature, K	Pressure, kPa	Mole fraction of toluene	uncertainty
323.15	101	0.0242	0.0002

System: 1,2-ethanediol + toluene; phases: Liquid mixture 2, Liquid mixture 1
Fixed: Pressure, kPa = 101
Property: Mole fraction of toluene (Liquid mixture 2); method: Chromatography
Temperature, K	Mole fraction of toluene	uncertainty
303.15	0.998	0.0002
323.15	0.9959	0.0002

System: anisole + 1,2-ethanediol; phases: Liquid mixture 1, Liquid mixture 2
Fixed: Pressure, kPa = 101.3
Property: Mole fraction of anisole (Liquid mixture 1); method: OTHER
Temperature, K	Mole fraction of anisole	uncertainty
288.15	0.0317	0.0006
293.15	0.0331	0.0006
298.15	0.034	0.0006
303.15	0.0355	0.0006
313.15	0.0385	0.0006
323.15	0.0424	0.0006
333.15	0.0475	0.0006

System: anisole + 1,2-ethanediol; phases: Liquid mixture 2, Liquid mixture 1
Fixed: Pressure, kPa = 101.3
Property: Mole fraction of anisole (Liquid mixture 2); method: OTHER
Temperature, K	Mole fraction of anisole	uncertainty
288.15	0.999	0.001
293.15	0.9975	0.0024
298.15	0.9949	0.0024
303.15	0.9935	0.0024
313.15	0.9918	0.0024
323.15	0.9882	0.0022
333.15	0.9824	0.0022

System: anisole + 1,2-ethanediol; phases: Liquid mixture 2, Liquid mixture 1
Fixed: Pressure, kPa = 101
Property: Mole fraction of anisole (Liquid mixture 2); method: Chromatography
Temperature, K	Mole fraction of anisole	uncertainty
293.15	0.9958	0.0002
303.15	0.994	0.0002
313.15	0.9921	0.0002
323.15	0.9893	0.0002
333.15	0.9859	0.0002
343.15	0.9811	0.0002

System: 1,2-ethanediol + chlorobenzene; phases: Liquid mixture 1, Liquid mixture 2
Property: Mole fraction of 1,2-ethanediol (Liquid mixture 1); method: Titration method
Temperature, K	Pressure, kPa	Mole fraction of 1,2-ethanediol	uncertainty
313.15	101	0.0346	0.0007

System: 1,2-ethanediol + chlorobenzene; phases: Liquid mixture 1, Liquid mixture 2
Fixed: Pressure, kPa = 101.3
Property: Mole fraction of chlorobenzene (Liquid mixture 1); method: OTHER
Temperature, K	Mole fraction of chlorobenzene	uncertainty
293.15	0.033	0.0006
298.15	0.0337	0.0006
303.15	0.034	0.0006
313.15	0.0349	0.0006
323.15	0.0363	0.0006
333.15	0.0387	0.0006
343.15	0.0411	0.0006

System: 1,2-ethanediol + chlorobenzene; phases: Liquid mixture 2, Liquid mixture 1
Fixed: Pressure, kPa = 101.3
Property: Mole fraction of chlorobenzene (Liquid mixture 2); method: volumetric method
Temperature, K	Mole fraction of chlorobenzene	uncertainty
293.15	0.9859	0.0022
298.15	0.9827	0.0022
303.15	0.9794	0.0022
313.15	0.9857	0.0022
323.15	0.9845	0.0022
333.15	0.9872	0.0022
343.15	0.9899	0.0022

System: acetophenone + 1,2-ethanediol; phases: Liquid mixture 1, Liquid mixture 2
Fixed: Pressure, kPa = 101.3
Property: Mole fraction of acetophenone (Liquid mixture 1); method: OTHER
Temperature, K	Mole fraction of acetophenone	uncertainty
285.15	0.0933	0.0014
293.15	0.1063	0.0012
303.15	0.1287	0.0012
313.15	0.1648	0.0008

System: acetophenone + 1,2-ethanediol; phases: Liquid mixture 2, Liquid mixture 1
Fixed: Pressure, kPa = 101.3
Property: Mole fraction of acetophenone (Liquid mixture 2); method: volumetric method
Temperature, K	Mole fraction of acetophenone	uncertainty
285.15	0.8851	0.003
293.15	0.8577	0.0026
303.15	0.8151	0.002
313.15	0.7435	0.0014

System: acetophenone + 1,2-ethanediol; phases: Liquid mixture 1, Liquid mixture 2
Fixed: Pressure, kPa = 101
Property: Mole fraction of 1,2-ethanediol (Liquid mixture 1); method: Titration method
Temperature, K	Mole fraction of 1,2-ethanediol	uncertainty
322.9	0.5814	0.0084
324.6	0.3571	0.0071

System: acetophenone + 1,2-ethanediol; phases: Liquid mixture 2, Liquid mixture 1
Fixed: Pressure, kPa = 101
Property: Mole fraction of 1,2-ethanediol (Liquid mixture 2); method: Titration method
Temperature, K	Mole fraction of 1,2-ethanediol	uncertainty
314.07	0.7348	0.0053
319.12	0.6704	0.0066
320.53	0.22	0.0044
322.45	0.2493	0.005
324.31	0.5045	0.0099
324.58	0.3644	0.0073
324.62	0.4339	0.0087
