Measured thermophysical data. Ternary liquid-liquid phase equilibria of (water-carboxylic acid-1-undecanol)  systems at 298.15 K
Source: Fluid Phase Equilib., 2012, 10.1016/j.fluid.2012.06.020
Compound 1: formic acid, CH2O2, InChI=1S/CH2O2/c2-1-3/h1H,(H,2,3), purity 98%
Compound 2: acetic acid, C2H4O2, InChI=1S/C2H4O2/c1-2(3)4/h1H3,(H,3,4), purity 99%
Compound 3: propanoic acid, C3H6O2, InChI=1S/C3H6O2/c1-2-3(4)5/h2H2,1H3,(H,4,5), purity 99%
Compound 4: butanoic acid, C4H8O2, InChI=1S/C4H8O2/c1-2-3-4(5)6/h2-3H2,1H3,(H,5,6), purity 99%
Compound 5: pentanoic acid, C5H10O2, InChI=1S/C5H10O2/c1-2-3-4-5(6)7/h2-4H2,1H3,(H,6,7), purity 99%
Compound 6: 1-undecanol, C11H24O, InChI=1S/C11H24O/c1-2-3-4-5-6-7-8-9-10-11-12/h12H,2-11H2,1H3, purity 98%
Compound 7: water, H2O, InChI=1S/H2O/h1H2, purity 99.8%

System: formic acid; phases: Liquid, Gas
Property: Normal boiling temperature, K (Liquid); method: Fischer Boiling Apparatus
Normal boiling temperature, K	uncertainty
374.2	1.02

System: formic acid; phases: Liquid
Property: Refractive index (Na D-line) (Liquid); method: Standard Abbe refractometry
Temperature, K	Pressure, kPa	Refractive index (Na D-line)	uncertainty
293.15	101.325	1.3721	0.0005

System: formic acid; phases: Liquid
Property: Mass density, kg/m3 (Liquid); method: Pycnometric method
Temperature, K	Pressure, kPa	Mass density, kg/m3	uncertainty
293.15	101.325	1218.5	1.5

System: acetic acid; phases: Liquid, Gas
Property: Normal boiling temperature, K (Liquid); method: Fischer Boiling Apparatus
Normal boiling temperature, K	uncertainty
390.95	1.01

System: acetic acid; phases: Liquid
Property: Refractive index (Na D-line) (Liquid); method: Standard Abbe refractometry
Temperature, K	Pressure, kPa	Refractive index (Na D-line)	uncertainty
293.15	101.325	1.371	0.0004

System: acetic acid; phases: Liquid
Property: Mass density, kg/m3 (Liquid); method: Pycnometric method
Temperature, K	Pressure, kPa	Mass density, kg/m3	uncertainty
293.15	101.325	1044.3	0.47

System: propanoic acid; phases: Liquid, Gas
Property: Normal boiling temperature, K (Liquid); method: Fischer Boiling Apparatus
Normal boiling temperature, K	uncertainty
414.2	1.01

System: propanoic acid; phases: Liquid
Property: Refractive index (Na D-line) (Liquid); method: Standard Abbe refractometry
Temperature, K	Pressure, kPa	Refractive index (Na D-line)	uncertainty
293.15	101.325	1.3808	0.0004

System: propanoic acid; phases: Liquid
Property: Mass density, kg/m3 (Liquid); method: Pycnometric method
Temperature, K	Pressure, kPa	Mass density, kg/m3	uncertainty
293.15	101.325	988.1	0.43

System: butanoic acid; phases: Liquid, Gas
Property: Normal boiling temperature, K (Liquid); method: Fischer Boiling Apparatus
Normal boiling temperature, K	uncertainty
436.7	1.01

System: butanoic acid; phases: Liquid
Property: Refractive index (Na D-line) (Liquid); method: Standard Abbe refractometry
Temperature, K	Pressure, kPa	Refractive index (Na D-line)	uncertainty
293.15	101.325	1.3981	0.0004

System: butanoic acid; phases: Liquid
Property: Mass density, kg/m3 (Liquid); method: Pycnometric method
Temperature, K	Pressure, kPa	Mass density, kg/m3	uncertainty
293.15	101.325	952.1	0.41

System: pentanoic acid; phases: Liquid, Gas
Property: Normal boiling temperature, K (Liquid); method: Fischer Boiling Apparatus
Normal boiling temperature, K	uncertainty
459.15	1.01

System: pentanoic acid; phases: Liquid
Property: Refractive index (Na D-line) (Liquid); method: Standard Abbe refractometry
Temperature, K	Pressure, kPa	Refractive index (Na D-line)	uncertainty
293.15	101.325	1.4088	0.0004

System: pentanoic acid; phases: Liquid
Property: Mass density, kg/m3 (Liquid); method: Pycnometric method
Temperature, K	Pressure, kPa	Mass density, kg/m3	uncertainty
293.15	101.325	932.5	0.4

System: 1-undecanol; phases: Liquid, Gas
Property: Normal boiling temperature, K (Liquid); method: Fischer Boiling Apparatus
Normal boiling temperature, K	uncertainty
518.3	1.02

System: 1-undecanol; phases: Liquid
Property: Refractive index (Na D-line) (Liquid); method: Standard Abbe refractometry
Temperature, K	Pressure, kPa	Refractive index (Na D-line)	uncertainty
293.15	101.325	1.4402	0.0005

System: 1-undecanol; phases: Liquid
Property: Mass density, kg/m3 (Liquid); method: Pycnometric method
Temperature, K	Pressure, kPa	Mass density, kg/m3	uncertainty
293.15	101.325	829.2	0.74

System: water; phases: Liquid, Gas
Property: Normal boiling temperature, K (Liquid); method: Fischer Boiling Apparatus
Normal boiling temperature, K	uncertainty
373.2	1

System: water; phases: Liquid
Property: Refractive index (Na D-line) (Liquid); method: Standard Abbe refractometry
Temperature, K	Pressure, kPa	Refractive index (Na D-line)	uncertainty
293.15	101.325	1.3324	0.0003

System: water; phases: Liquid
Property: Mass density, kg/m3 (Liquid); method: Pycnometric method
Temperature, K	Pressure, kPa	Mass density, kg/m3	uncertainty
293.15	101.325	999.9	0.26

System: 1-undecanol + water; phases: Liquid mixture 1, Liquid mixture 2
Fixed: Pressure, kPa = 101
Fixed: Temperature, K = 298.15
Property: Mole fraction of 1-undecanol (Liquid mixture 1); method: Titration method
Mole fraction of 1-undecanol	uncertainty
0.0001	0.0001
0.7733	0.0035

System: formic acid + 1-undecanol + water; phases: Liquid mixture 1, Liquid mixture 2
Fixed: Pressure, kPa = 101
Fixed: Temperature, K = 298.15
Property: Mole fraction of 1-undecanol (Liquid mixture 1); method: Titration method
Mole fraction of formic acid	Mole fraction of 1-undecanol	uncertainty
0	0.0001	0.0001
0.0001	0.7733	0.007
0.0238	0.0004	0.0004
0.0543	0.0004	0.0004
0.081	0.0012	0.0004
0.107	0.0009	0.0004
0.1352	0.0014	0.0014
0.2037	0.6233	0.119
0.2058	0.0016	0.0016
0.2387	0.0017	0.0004
0.2749	0.0018	0.0004
0.3262	0.002	0.0004
0.4245	0.0024	0.0024
0.4274	0.4342	0.0611
0.5433	0.0032	0.0008
0.5789	0.2956	0.0092
0.7006	0.0089	0.0089
0.7051	0.1866	0.0168
0.7664	0.1212	0.0122
0.77	0.017	0.0116
0.8014	0.0902	0.0028
0.8205	0.0287	0.001
0.8429	0.055	0.0018

System: formic acid + 1-undecanol + water; phases: Liquid mixture 2, Liquid mixture 1
Fixed: Pressure, kPa = 101
Fixed: Temperature, K = 298.15
Property: Mole fraction of 1-undecanol (Liquid mixture 2); method: Titration method
Property: Mole fraction of 1-undecanol (Liquid mixture 1); method: Titration method
Property: Mole fraction of formic acid (Liquid mixture 1); method: Titration method
Mole fraction of formic acid	Mole fraction of 1-undecanol	uncertainty	Mole fraction of 1-undecanol	uncertainty	Mole fraction of formic acid	uncertainty
0.0897	0.7131	0.0089	0.0009	0.0004	0.083	
0.1256	0.6844	0.0098	0.0011	0.0004	0.1392	
0.1611	0.6619	0.0105	0.0018	0.0004	0.2583	
0.1705	0.6572	0.0106	0.002	0.0004	0.3164	
0.1792	0.651	0.0108	0.0017	0.0004	0.421	
0.1865	0.6454	0.011	0.0021	0.0004	0.5182	
0.2406	0.6025	0.0123	0.0041	0.0004	0.6087	
0.3308	0.5148	0.015	0.0148	0.0006	0.8194	

System: acetic acid + 1-undecanol + water; phases: Liquid mixture 1, Liquid mixture 2
Fixed: Pressure, kPa = 101
Fixed: Temperature, K = 298.15
Property: Mole fraction of 1-undecanol (Liquid mixture 1); method: Titration method
Mole fraction of acetic acid	Mole fraction of 1-undecanol	uncertainty
0	0.0001	0.0001
0.0001	0.7733	0.007
0.0153	0.0005	0.0004
0.0509	0.0009	0.0004
0.0987	0.0015	0.0004
0.1482	0.002	0.002
0.1572	0.5604	0.0283
0.2088	0.0028	0.0017
0.2822	0.0038	0.0038
0.2855	0.4066	0.0504
0.3195	0.0065	0.0009
0.3515	0.2902	0.009
0.3519	0.0097	0.0005
0.3986	0.0187	0.0167
0.4029	0.1983	0.0062
0.4172	0.0272	0.0017
0.4262	0.1357	0.0042
0.4423	0.0441	0.0019
0.4501	0.0688	0.0025

System: acetic acid + 1-undecanol + water; phases: Liquid mixture 2, Liquid mixture 1
Fixed: Pressure, kPa = 101
Fixed: Temperature, K = 298.15
Property: Mole fraction of 1-undecanol (Liquid mixture 2); method: Titration method
Property: Mole fraction of 1-undecanol (Liquid mixture 1); method: Titration method
Property: Mole fraction of acetic acid (Liquid mixture 1); method: Titration method
Mole fraction of acetic acid	Mole fraction of 1-undecanol	uncertainty	Mole fraction of 1-undecanol	uncertainty	Mole fraction of acetic acid	uncertainty
0.0671	0.6741	0.0101	0.0005	0.0004	0.0263	
0.1421	0.5828	0.0129	0.0012	0.0004	0.0719	
0.1919	0.5238	0.0148	0.0015	0.0004	0.1031	
0.247	0.4478	0.0139	0.0017	0.0004	0.1532	
0.2916	0.3963	0.0123	0.0022	0.0004	0.2042	
0.3348	0.3287	0.0102	0.0034	0.0004	0.2565	
0.357	0.2882	0.009	0.0047	0.0004	0.2918	
0.3872	0.2395	0.0074	0.0122	0.0005	0.3689	

System: propanoic acid + 1-undecanol + water; phases: Liquid mixture 2, Liquid mixture 1
Fixed: Pressure, kPa = 101
Fixed: Temperature, K = 298.15
Property: Mole fraction of propanoic acid (Liquid mixture 2); method: Titration method
Property: Mole fraction of 1-undecanol (Liquid mixture 1); method: Titration method
Property: Mole fraction of propanoic acid (Liquid mixture 1); method: Titration method
Mole fraction of 1-undecanol	Mole fraction of propanoic acid	uncertainty	Mole fraction of 1-undecanol	uncertainty	Mole fraction of propanoic acid	uncertainty
0.634	0.104	0.0032	0.0004	0.0004	0.0108	
0.5141	0.1872	0.0058	0.0008	0.0004	0.0241	
0.3995	0.2578	0.008	0.0013	0.0004	0.0391	
0.2952	0.3035	0.0094	0.0019	0.0004	0.0586	
0.2261	0.3238	0.01	0.0039	0.0004	0.0894	
0.1543	0.3275	0.0101	0.0073	0.0005	0.1208	
0.1118	0.317	0.0098	0.011	0.0005	0.1473	

System: propanoic acid + 1-undecanol + water; phases: Liquid mixture 1, Liquid mixture 2
Fixed: Pressure, kPa = 101
Fixed: Temperature, K = 298.15
Property: Mole fraction of 1-undecanol (Liquid mixture 1); method: Titration method
Mole fraction of propanoic acid	Mole fraction of 1-undecanol	uncertainty
0	0.0001	0.0001
0.0001	0.7733	0.007
0.0151	0.0006	0.0004
0.0413	0.0013	0.0004
0.0807	0.0033	0.0033
0.1121	0.6123	0.0357
0.1193	0.007	0.007
0.1837	0.0181	0.0007
0.208	0.0253	0.0008
0.2224	0.0308	0.0067
0.2293	0.4419	0.0275
0.2687	0.0552	0.002
0.2959	0.3067	0.2238
0.2963	0.0831	0.0831
0.3269	0.1365	0.0145
0.3291	0.2128	0.0154

System: butanoic acid + 1-undecanol + water; phases: Liquid mixture 2, Liquid mixture 1
Fixed: Pressure, kPa = 101
Fixed: Temperature, K = 298.15
Property: Mole fraction of butanoic acid (Liquid mixture 2); method: Titration method
Property: Mole fraction of 1-undecanol (Liquid mixture 1); method: Titration method
Property: Mole fraction of butanoic acid (Liquid mixture 1); method: Titration method
Mole fraction of 1-undecanol	Mole fraction of butanoic acid	uncertainty	Mole fraction of 1-undecanol	uncertainty	Mole fraction of butanoic acid	uncertainty
0.6209	0.1288	0.004	0.0007	0.0004	0.006	
0.4745	0.2154	0.0067	0.0007	0.0004	0.0086	
0.3499	0.3241	0.01	0.0008	0.0004	0.0131	
0.256	0.3733	0.0116	0.0008	0.0004	0.0167	
0.1758	0.4001	0.0124	0.0009	0.0004	0.0211	
0.1251	0.4031	0.0125	0.0009	0.0004	0.0239	
0.0759	0.3808	0.0118	0.0011	0.0004	0.0275	
0.0368	0.3236	0.01	0.0012	0.0004	0.0294	

System: butanoic acid + 1-undecanol + water; phases: Liquid mixture 1, Liquid mixture 2
Fixed: Pressure, kPa = 101
Fixed: Temperature, K = 298.15
Property: Mole fraction of 1-undecanol (Liquid mixture 1); method: Titration method
Mole fraction of butanoic acid	Mole fraction of 1-undecanol	uncertainty
0	0.0001	0.0001
0.0001	0.7733	0.007
0.0106	0.0007	0.0004
0.0338	0.0011	0.0004
0.0615	0.0018	0.0018
0.087	0.6637	0.0433
0.0933	0.0024	0.0024
0.138	0.0041	0.0004
0.1861	0.0073	0.0024
0.2143	0.5053	0.0153
0.2645	0.0187	0.001
0.3002	0.3806	0.0118
0.343	0.0456	0.0018
0.3614	0.281	0.0087
0.3879	0.0897	0.0099
0.3928	0.2057	0.0065
0.4013	0.1424	0.0053

System: pentanoic acid + 1-undecanol + water; phases: Liquid mixture 2, Liquid mixture 1
Fixed: Pressure, kPa = 101
Fixed: Temperature, K = 298.15
Property: Mole fraction of pentanoic acid (Liquid mixture 2); method: Titration method
Property: Mole fraction of 1-undecanol (Liquid mixture 1); method: Titration method
Property: Mole fraction of pentanoic acid (Liquid mixture 1); method: Titration method
Mole fraction of 1-undecanol	Mole fraction of pentanoic acid	uncertainty	Mole fraction of 1-undecanol	uncertainty	Mole fraction of pentanoic acid	uncertainty
0.5676	0.1557	0.0048	0.0001	0.0001	0.0023	
0.399	0.3072	0.0095	0.0001	0.0001	0.0031	
0.2836	0.3989	0.0124	0.0001	0.0001	0.004	
0.2059	0.453	0.014	0.0001	0.0001	0.0047	
0.1277	0.4923	0.0153	0.0002	0.0002	0.0056	
0.0912	0.5052	0.0153	0.0002	0.0002	0.006	
0.0486	0.5138	0.0151	0.0002	0.0002	0.0065	
0.0175	0.5048	0.0153	0.0002	0.0002	0.0076	

System: pentanoic acid + 1-undecanol + water; phases: Liquid mixture 1, Liquid mixture 2
Fixed: Pressure, kPa = 101
Fixed: Temperature, K = 298.15
Property: Mole fraction of 1-undecanol (Liquid mixture 1); method: Titration method
Mole fraction of pentanoic acid	Mole fraction of 1-undecanol	uncertainty
0	0.0001	0.0001
0.0001	0.7733	0.007
0.0649	0.6729	0.0213
0.0793	0.0001	0.0001
0.184	0.0001	0.0001
0.1898	0.5199	0.0388
0.2846	0.4173	0.013
0.3482	0.0031	0.0031
0.3572	0.3357	0.0181
0.4123	0.2574	0.008
0.46	0.1965	0.0061
0.5061	0.0871	0.0313
0.507	0.017	0.017
0.5136	0.0463	0.0023
