Measured thermophysical data. Chemical engineering process simulation of brines using phase diagram and Pitzer model of the system CaCl2SrCl2H2O
Source: Fluid Phase Equilib., 2019, 10.1016/j.fluid.2018.11.034
Compound 1: calcium chloride, CaCl2, InChI=1S/Ca.2ClH/h;2*1H/q+2;;/p-2
Compound 2: strontium chloride, Cl2Sr, InChI=1S/2ClH.Sr/h2*1H;/q;;+2/p-2
Compound 3: water, H2O, InChI=1S/H2O/h1H2, purity 99.9%

System: calcium chloride + strontium chloride + water; phases: Liquid, Crystal of intercomponent compound 1
Fixed: Temperature, K = 288.15
Fixed: Pressure, kPa = 101
Property: Mass fraction of strontium chloride (Liquid); method: Titration method
Mass fraction of calcium chloride	Mass fraction of strontium chloride	uncertainty
0.4075	0	
0.4003	0.0056	0.0011
0.3859	0.0105	0.0008
0.32	0.0301	0.0008
0.2905	0.0491	0.001
0.2793	0.0521	0.0006
0.2169	0.107621	0.001407
0.1723	0.1536	0.0014
0.1132	0.208	0.002
0.0402	0.2872	0.0018
0.0273	0.3021	0.0019
0	0.335	0.002

System: calcium chloride + strontium chloride + water; phases: Liquid, Crystal of intercomponent compound 2
Property: Mass fraction of strontium chloride (Liquid); method: Titration method
Mass fraction of calcium chloride	Temperature, K	Pressure, kPa	Mass fraction of strontium chloride	uncertainty
0.4075	288.15	101	0	

System: calcium chloride + strontium chloride + water; phases: Liquid, Crystal of intercomponent compound 3
Property: Mass fraction of strontium chloride (Liquid); method: Titration method
Mass fraction of calcium chloride	Temperature, K	Pressure, kPa	Mass fraction of strontium chloride	uncertainty
0	288.15	101	0.335	0.002
