Measured thermophysical data. PrhoT measurement and PC-SAFT modeling of N,N-dimethyl formamide, N -methyl formamide, N,N-dimethyl acetamide, and ethylenediamine from T = (293.15-423.15) K and pressures up to 35 MPa
Source: Fluid Phase Equilib., 2016, 10.1016/j.fluid.2016.08.014
Compound 1: dimethylformamide, C3H7NO, InChI=1S/C3H7NO/c1-4(2)3-5/h3H,1-2H3
Compound 2: N,N-dimethylethanamide, C4H9NO, InChI=1S/C4H9NO/c1-4(6)5(2)3/h1-3H3
Compound 3: N-methylformamide, C2H5NO, InChI=1S/C2H5NO/c1-3-2-4/h2H,1H3,(H,3,4)
Compound 4: ethane-1,2-diamine, C2H8N2, InChI=1S/C2H8N2/c3-1-2-4/h1-4H2

System: dimethylformamide; phases: Liquid
Property: Mass density, kg/m3 (Liquid); method: Vibrating tube method
Temperature, K	Pressure, kPa	Mass density, kg/m3	uncertainty
298.15	101.325	943.978	4

System: dimethylformamide; phases: Liquid
Property: Refractive index (Na D-line) (Liquid); method: Standard Abbe refractometry
Temperature, K	Pressure, kPa	Refractive index (Na D-line)	uncertainty
298.15	101.325	1.42844	0.00031

System: dimethylformamide; phases: Liquid
Property: Mass density, kg/m3 (Liquid); method: Vibrating tube method
Temperature, K	Pressure, kPa	Mass density, kg/m3	uncertainty
293.15	100	949	1
293.15	2500	950	1
293.15	5100	952	1
293.15	10100	955	1
303.15	100	939	1
303.15	2500	941	1
303.15	5100	943	1
303.15	10000	940	10
313.15	100	930	1
313.15	2600	931	1
313.15	5100	933	1
313.15	10000	936	1
323.15	100	920	1
323.15	2500	922	1
323.15	5100	924	1
323.15	10000	927	1
333.15	200	910	1
333.15	2600	912	1
333.15	5000	914	1
333.15	10200	918	1
343.15	200	900	1
343.15	2500	903	1
343.15	5200	905	1
343.15	10000	908	1
353.15	200	890	1
353.15	2500	893	1
353.15	5100	895	1
353.15	10100	899	1
363.15	200	881	1
363.15	2600	883	1
363.15	5000	885	1
363.15	10100	890	1
373.15	100	871	1
373.15	2600	873	1
373.15	5000	876	1
373.15	10100	880	1
383.15	100	860	1
383.15	2500	863	1
383.15	5100	866	1
383.15	10000	870	1
393.15	100	851	1
393.15	2600	853	1
393.15	5200	856	1
393.15	10000	861	1
403.15	100	840	1
403.15	2600	843	1
403.15	5000	846	1
403.15	10100	851	1
413.15	200	830	1
413.15	2500	833	1
413.15	5000	836	1
413.15	10200	842	1
293.15	15100	958	1
293.15	20100	960	1
293.15	25000	963	1
293.15	30300	966	1
303.15	15100	949	1
303.15	20100	951	1
303.15	25000	954	1
303.15	30100	957	1
313.15	15100	939	1
313.15	20100	942	1
313.15	25000	945	1
313.15	30100	948	1
323.15	15100	930	1
323.15	20100	934	1
323.15	25100	937	1
323.15	30400	940	1
333.15	15000	921	1
333.15	20300	925	1
333.15	25100	928	1
333.15	30200	931	1
343.15	15000	912	1
343.15	20100	916	1
343.15	25100	919	1
343.15	30400	922	1
353.15	15000	903	1
353.15	20100	907	1
353.15	25100	910	1
353.15	30200	914	1
363.15	15100	894	1
363.15	20100	897	1
363.15	25100	901	1
363.15	30100	905	1
373.15	15300	885	1
373.15	20100	888	1
373.15	25100	892	1
373.15	30100	896	1
383.15	15100	875	1
383.15	20200	880	1
383.15	25100	884	1
383.15	30300	888	1
393.15	15000	866	1
393.15	20100	870	1
393.15	25100	875	1
393.15	30400	879	1
403.15	15100	856	1
403.15	20100	861	1
403.15	25100	866	1
403.15	30300	870	1
413.15	14900	847	1
413.15	20000	852	1
413.15	25200	857	1
413.15	30000	861	1

System: N,N-dimethylethanamide; phases: Liquid
Property: Mass density, kg/m3 (Liquid); method: Vibrating tube method
Temperature, K	Pressure, kPa	Mass density, kg/m3	uncertainty
298.15	101.325	936.729	4.006

System: N,N-dimethylethanamide; phases: Liquid
Property: Refractive index (Na D-line) (Liquid); method: Standard Abbe refractometry
Temperature, K	Pressure, kPa	Refractive index (Na D-line)	uncertainty
298.15	101.325	1.43615	0.00037

System: N,N-dimethylethanamide; phases: Liquid
Property: Mass density, kg/m3 (Liquid); method: Vibrating tube method
Temperature, K	Pressure, kPa	Mass density, kg/m3	uncertainty
293.15	300	941	1
293.15	2600	943	1
293.15	5100	944	1
293.15	10100	947	1
303.2	300	932	1
303.2	2500	933	1
303.2	5100	935	1
303.2	10200	938	1
313.15	100	922	1
313.15	2500	924	1
313.15	5200	926	1
313.15	10000	929	1
323.15	100	912	1
323.15	2500	915	1
323.15	5000	917	1
323.15	10100	920	1
333.15	100	903	1
333.15	2500	906	1
333.15	5100	907	1
333.15	10100	911	1
343.15	100	894	1
343.15	2600	896	1
343.15	5100	898	1
343.15	10000	902	1
353.15	100	885	1
353.15	2500	887	1
353.15	5200	889	1
353.15	10000	893	1
363.15	200	876	1
363.15	2500	878	1
363.15	5000	880	1
363.15	10100	884	1
373.15	100	866	1
373.15	2600	868	1
373.15	5100	871	1
373.15	10000	875	1
383.15	100	856	1
383.15	2500	859	1
383.15	5000	861	1
383.15	10000	866	1
393.15	100	856	1
393.15	2500	859	1
393.15	5000	861	1
393.15	10000	866	1
403.15	100	837	1
403.15	2500	840	1
403.15	5100	843	1
403.15	10200	848	1
413.15	100	826	1
413.15	2600	830	1
413.15	5000	833	1
413.15	10100	838	1
293.15	14900	950	1
293.15	20200	953	1
293.15	25200	955	1
293.15	30400	958	1
303.2	15200	941	1
303.2	20200	944	1
303.2	24900	947	1
303.2	30200	950	1
313.15	15200	932	1
313.15	20100	935	1
313.15	25200	938	1
313.15	30200	941	1
323.15	15100	923	1
323.15	20100	927	1
323.15	25100	930	1
323.15	30500	933	1
333.15	15100	915	1
333.15	20200	918	1
333.15	25000	921	1
333.15	30100	924	1
343.15	15000	906	1
343.15	20200	909	1
343.15	25100	913	1
343.15	30300	916	1
353.15	14900	897	1
353.15	20200	901	1
353.15	25200	905	1
353.15	30100	908	1
363.15	15200	888	1
363.15	20300	892	1
363.15	25200	896	1
363.15	30000	899	1
373.15	15100	880	1
373.15	20300	884	1
373.15	25100	888	1
373.15	30600	892	1
383.15	15000	870	1
383.15	20300	875	1
383.15	25300	879	1
383.15	30200	883	1
393.15	15000	870	1
393.15	20300	875	1
393.15	25300	879	1
393.15	30200	883	1
403.15	15000	853	1
403.15	20700	858	1
403.15	25200	862	1
403.15	30900	867	1
413.15	15100	844	1
413.15	20100	849	1
413.15	25200	854	1
413.15	30200	858	1

System: N-methylformamide; phases: Liquid
Property: Mass density, kg/m3 (Liquid); method: Vibrating tube method
Temperature, K	Pressure, kPa	Mass density, kg/m3	uncertainty
298.15	101.325	999.361	4.006

System: N-methylformamide; phases: Liquid
Property: Refractive index (Na D-line) (Liquid); method: Standard Abbe refractometry
Temperature, K	Pressure, kPa	Refractive index (Na D-line)	uncertainty
298.15	101.325	1.43063	0.00037

System: N-methylformamide; phases: Liquid
Property: Mass density, kg/m3 (Liquid); method: Vibrating tube method
Temperature, K	Pressure, kPa	Mass density, kg/m3	uncertainty
293.15	200	1004	1
293.15	500	1004	1
293.15	1000	1004	1
293.15	2500	1005	1
293.15	5000	1006	1
293.15	7600	1008	1
303.15	200	995	1
303.15	500	995	1
303.15	1100	995	1
303.15	2500	996	1
303.15	5100	998	1
303.15	7600	999	1
313.15	200	986	1
313.15	500	986	1
313.15	1100	987	1
313.15	2600	987	1
313.15	5100	989	1
313.15	7500	990	1
323.15	100	977	1
323.15	500	977	1
323.15	1000	978	1
323.15	2500	979	1
323.15	5000	980	1
323.15	7500	982	1
333.15	100	969	1
333.15	500	969	1
333.15	1000	969	1
333.15	2500	970	1
333.15	5000	972	1
333.15	7500	974	1
343.15	100	960	1
343.15	500	960	1
343.15	1000	960	1
343.15	2500	962	1
343.15	5100	963	1
343.15	7500	965	1
353.15	100	950	1
353.15	500	950	1
353.15	1000	952	1
353.15	2500	953	1
353.15	5100	955	1
353.15	7600	957	1
363.15	100	942	1
363.15	500	943	1
363.15	1000	943	1
363.15	2500	944	1
363.15	5100	946	1
363.15	7600	948	1
373.15	100	934	1
373.15	500	934	1
373.15	1000	934	1
373.15	2500	936	1
373.15	5100	938	1
373.15	7600	940	1
398.15	100	911	1
398.15	500	912	1
398.15	1100	912	1
398.15	2500	913	1
398.15	5000	916	1
398.15	7600	918	1
423.15	100	888	1
423.15	500	889	1
423.15	1000	889	1
423.15	2600	890	1
423.15	5100	893	1
423.15	7500	896	1
293.15	10100	1009	1
293.15	15000	1012	1
293.15	20100	1015	1
293.15	25100	1017	1
293.15	30100	1020	1
293.15	35000	1023	1
303.15	10000	1000	1
303.15	15100	1004	1
303.15	20100	1006	1
303.15	25100	1009	1
303.15	30000	1012	1
303.15	35000	1014	1
313.15	10100	992	1
313.15	15000	995	1
313.15	20000	998	1
313.15	25100	1001	1
313.15	30000	1004	1
313.15	35000	1006	1
323.15	10000	984	1
323.15	15100	987	1
323.15	20100	990	1
323.15	25000	993	1
323.15	30100	996	1
323.15	35100	999	1
333.15	10000	975	1
333.15	15000	979	1
333.15	20100	982	1
333.15	25000	985	1
333.15	30000	988	1
333.15	35000	990	1
343.15	10100	967	1
343.15	15100	970	1
343.15	20000	973	1
343.15	25100	977	1
343.15	30100	980	1
343.15	35100	983	1
353.15	10000	958	1
353.15	15100	962	1
353.15	20100	965	1
353.15	25000	969	1
353.15	30100	972	1
353.15	35100	975	1
363.15	10100	950	1
363.15	15100	954	1
363.15	20100	957	1
363.15	25000	960	1
363.15	30100	964	1
363.15	35000	967	1
373.15	10000	941	1
373.15	15100	945	1
373.15	20100	949	1
373.15	25000	952	1
373.15	30100	956	1
373.15	35000	959	1
398.15	10000	920	1
398.15	15000	924	1
398.15	20100	928	1
398.15	25000	932	1
398.15	30000	936	1
398.15	35100	940	1
423.15	10000	898	1
423.15	15200	903	1
423.15	20100	907	1
423.15	25100	911	1
423.15	30100	916	1
423.15	35100	920	1

System: ethane-1,2-diamine; phases: Liquid
Property: Mass density, kg/m3 (Liquid); method: Vibrating tube method
Temperature, K	Pressure, kPa	Mass density, kg/m3	uncertainty
298.15	101.325	895.323	4.001

System: ethane-1,2-diamine; phases: Liquid
Property: Refractive index (Na D-line) (Liquid); method: Standard Abbe refractometry
Temperature, K	Pressure, kPa	Refractive index (Na D-line)	uncertainty
298.15	101.325	1.45453	0.00033

System: ethane-1,2-diamine; phases: Liquid
Property: Refractive index (Na D-line) (Liquid); method: Standard Abbe refractometry
Temperature, K	Pressure, kPa	Refractive index (Na D-line)	uncertainty
293.15	101.325	1.45676	0.00033

System: ethane-1,2-diamine; phases: Liquid
Property: Mass density, kg/m3 (Liquid); method: Vibrating tube method
Temperature, K	Pressure, kPa	Mass density, kg/m3	uncertainty
293.15	200	898	1
293.15	2500	899	1
293.15	5100	900	1
293.15	10000	903	1
303.15	300	890	1
303.15	2500	891	1
303.15	5000	892	1
303.15	10200	893	1
313.15	300	880	1
313.15	2500	880	1
313.15	5100	882	1
313.15	10000	884	1
323.15	200	870	1
323.15	2500	870	1
323.15	5100	872	1
323.15	10000	875	1
333.15	200	860	1
333.15	2500	861	1
333.15	5000	863	1
333.15	10000	866	1
343.15	200	850	1
343.15	2500	852	1
343.15	5100	853	1
343.15	10000	856	1
353.15	200	840	1
353.15	2500	842	1
353.15	5000	844	1
353.15	10200	847	1
363.15	200	830	1
363.15	2600	832	1
363.15	5100	834	1
363.15	10100	838	1
373.15	200	820	1
373.15	2500	822	1
373.15	5100	825	1
373.15	10100	828	1
383.15	200	810	1
383.15	2500	813	1
383.15	5200	815	1
383.15	10000	818	1
293.15	15400	905	1
293.15	19800	907	1
293.15	25100	909	1
293.15	30200	911	1
303.15	15000	896	1
303.15	20500	898	1
303.15	25100	900	1
303.15	30100	902	1
313.15	15100	887	1
313.15	20100	889	1
313.15	25400	892	1
313.15	30400	894	1
323.15	15000	878	1
323.15	19900	880	1
323.15	25100	882	1
323.15	29700	885	1
333.15	15000	868	1
333.15	20000	871	1
333.15	25000	874	1
333.15	30000	876	1
343.15	15000	860	1
343.15	20000	862	1
343.15	25100	865	1
343.15	30100	867	1
353.15	15100	850	1
353.15	20000	853	1
353.15	25100	856	1
353.15	30100	859	1
363.15	15000	840	1
363.15	20100	844	1
363.15	25600	847	1
363.15	30000	850	1
373.15	15000	831	1
373.15	20100	835	1
373.15	25100	838	1
373.15	30200	841	1
383.15	15200	822	1
383.15	20500	826	1
383.15	25000	829	1
383.15	30300	832	1
