Measured thermophysical data. Solubility of alpha-glycine in water with additives at a temperature range of (293.15 - 343.15) K: Experimental data and results of thermodynamic modeling
Source: Fluid Phase Equilib., 2017, 10.1016/j.fluid.2016.12.003
Compound 1: 2-aminoacetic acid, C2H5NO2, InChI=1S/C2H5NO2/c3-1-2(4)5/h1,3H2,(H,4,5), purity 99%
Compound 2: sodium nitrate, NNaO3, InChI=1S/NO3.Na/c2-1(3)4;/q-1;+1, purity 99%
Compound 3: ammonium nitrate, H4N2O3, InChI=1S/NO3.H3N/c2-1(3)4;/h;1H3/q-1;/p+1, purity 99%
Compound 4: ammonium sulfate, H8N2O4S, InChI=1S/2H3N.H2O4S/c;;1-5(2,3)4/h2*1H3;(H2,1,2,3,4), purity 99%
Compound 5: ammonium chloride (NH4Cl), ClH4N, InChI=1S/ClH.H3N/h1H;1H3, purity 99.5%
Compound 6: water, H2O, InChI=1S/H2O/h1H2, purity 99.8%

System: 2-aminoacetic acid; phases: Crystal, Liquid, Air at 1 atmosphere
Property: Normal melting temperature, K (Crystal); method: DTA
Normal melting temperature, K	uncertainty
530.49	1.06

System: 2-aminoacetic acid; phases: Crystal, Liquid, Air at 1 atmosphere
Property: Molar enthalpy of transition or fusion, kJ/mol (Crystal); method: DSC
Molar enthalpy of transition or fusion, kJ/mol	uncertainty
42.79	1.19

System: 2-aminoacetic acid + sodium nitrate + water; phases: Liquid, Crystal
Fixed: Pressure, kPa = 100
Property: Mole fraction of 2-aminoacetic acid (Liquid); method: dynamic method
Temperature, K	Solvent: Mass fraction of sodium nitrate	Mole fraction of 2-aminoacetic acid	uncertainty
293.15	0	0.0512	0.0031
293.15	0.01	0.0528	0.0032
293.15	0.03	0.0542	0.0033
293.15	0.05	0.057	0.0034
293.15	0.1	0.0609	0.0037
303.15	0	0.0619	0.0037
303.15	0.01	0.0631	0.0038
303.15	0.03	0.0653	0.0039
303.15	0.05	0.0674	0.004
303.15	0.1	0.0705	0.0042
313.15	0	0.0726	0.0044
313.15	0.01	0.0742	0.0045
313.15	0.03	0.0764	0.0046
313.15	0.05	0.0786	0.0047
313.15	0.1	0.0814	0.0049
323.15	0	0.0844	0.0051
323.15	0.01	0.0859	0.0052
323.15	0.03	0.0881	0.0053
323.15	0.05	0.0903	0.0054
323.15	0.1	0.093	0.0056
333.15	0	0.0963	0.0058
333.15	0.01	0.0981	0.0059
333.15	0.03	0.1	0.006
333.15	0.05	0.102	0.0061
333.15	0.1	0.105	0.0063
343.15	0	0.1098	0.0066
343.15	0.01	0.1111	0.0067
343.15	0.03	0.1133	0.0068
343.15	0.05	0.1159	0.007
343.15	0.1	0.1187	0.0071

System: 2-aminoacetic acid + ammonium nitrate + water; phases: Liquid, Crystal
Fixed: Pressure, kPa = 101
Property: Mole fraction of 2-aminoacetic acid (Liquid); method: dynamic method
Temperature, K	Solvent: Mass fraction of ammonium nitrate	Mole fraction of 2-aminoacetic acid	uncertainty
293.15	0.01	0.053	0.0032
293.15	0.05	0.057	0.0034
293.15	0.1	0.0612	0.0037
303.15	0.01	0.0631	0.0038
303.15	0.05	0.0678	0.0041
303.15	0.1	0.0718	0.0043
313.15	0.01	0.0746	0.0045
313.15	0.05	0.0794	0.0048
313.15	0.1	0.0831	0.005
323.15	0.01	0.0867	0.0052
323.15	0.05	0.091	0.0055
323.15	0.1	0.0947	0.0057
333.15	0.01	0.0993	0.006
333.15	0.05	0.1034	0.0062
333.15	0.1	0.1071	0.0064
343.15	0.01	0.1135	0.0068
343.15	0.05	0.1174	0.007
343.15	0.1	0.1216	0.0073

System: 2-aminoacetic acid + water + ammonium sulfate; phases: Liquid, Crystal
Fixed: Pressure, kPa = 101
Property: Mole fraction of 2-aminoacetic acid (Liquid); method: dynamic method
Temperature, K	Solvent: Mass fraction of ammonium sulfate	Mole fraction of 2-aminoacetic acid	uncertainty
293.15	0.01	0.0522	0.0031
293.15	0.05	0.0551	0.0033
293.15	0.1	0.0578	0.0035
303.15	0.01	0.0629	0.0038
303.15	0.05	0.0651	0.0039
303.15	0.1	0.0687	0.0041
313.15	0.01	0.0728	0.0044
313.15	0.05	0.0766	0.0046
313.15	0.1	0.0788	0.0047
323.15	0.01	0.0858	0.0052
323.15	0.05	0.0877	0.0053
323.15	0.1	0.0906	0.0054
333.15	0.01	0.0976	0.0059
333.15	0.05	0.1005	0.006
333.15	0.1	0.1029	0.0062
343.15	0.01	0.1114	0.0067
343.15	0.05	0.1138	0.0068
343.15	0.1	0.1162	0.007

System: 2-aminoacetic acid + water + ammonium chloride (NH4Cl); phases: Liquid, Crystal
Fixed: Pressure, kPa = 101
Property: Mole fraction of 2-aminoacetic acid (Liquid); method: dynamic method
Temperature, K	Solvent: Mass fraction of ammonium chloride (NH4Cl)	Mole fraction of 2-aminoacetic acid	uncertainty
293.15	0.01	0.0525	0.0032
293.15	0.05	0.0541	0.0032
293.15	0.1	0.0572	0.0034
303.15	0.01	0.0633	0.0038
303.15	0.05	0.0645	0.0039
303.15	0.1	0.0679	0.0041
313.15	0.01	0.0745	0.0045
313.15	0.05	0.0766	0.0046
313.15	0.1	0.0795	0.0048
323.15	0.01	0.0864	0.0052
323.15	0.05	0.0887	0.0053
323.15	0.1	0.0915	0.0055
333.15	0.01	0.0992	0.006
333.15	0.05	0.1014	0.0061
333.15	0.1	0.1045	0.0063
343.15	0.01	0.1134	0.0068
343.15	0.05	0.1151	0.0069
343.15	0.1	0.1188	0.0071
