Measured thermophysical data. Vapor liquid equilibria and excess volumes of the binary systems ethanol + ethyl lactate, isopropanol + isopropyl lactate and n-butanol + n-butyl lactate at 101.325 kPa
Source: Fluid Phase Equilib., 2005, 10.1016/j.fluid.2005.02.015
Compound 1: ethanol, C2H6O, InChI=1S/C2H6O/c1-2-3/h3H,2H2,1H3
Compound 2: propan-2-ol, C3H8O, InChI=1S/C3H8O/c1-3(2)4/h3-4H,1-2H3
Compound 3: butan-1-ol, C4H10O, InChI=1S/C4H10O/c1-2-3-4-5/h5H,2-4H2,1H3
Compound 4: isopropyl (S)-2-hydroxypropionate, C6H12O3, InChI=1S/C6H12O3/c1-4(2)9-6(8)5(3)7/h4-5,7H,1-3H3/t5-/m0/s1
Compound 5: butyl L-lactate, C7H14O3, InChI=1S/C7H14O3/c1-3-4-5-10-7(9)6(2)8/h6,8H,3-5H2,1-2H3/t6-/m0/s1
Compound 6: (S)-(-)-ethyl lactate, C5H10O3, InChI=1S/C5H10O3/c1-3-8-5(7)4(2)6/h4,6H,3H2,1-2H3/t4-/m0/s1

System: ethanol; phases: Liquid
Property: Refractive index (Na D-line) (Liquid); method: Standard Abbe refractometry
Temperature, K	Pressure, kPa	Refractive index (Na D-line)	uncertainty
293.15	101.325	1.3614	0.0007

System: ethanol; phases: Liquid, Gas
Property: Vapor or sublimation pressure, kPa (Liquid); method: EBULLIO:UFactor:16
Temperature, K	Vapor or sublimation pressure, kPa	uncertainty
351.44	101.33	0.34

System: ethanol; phases: Liquid
Property: Mass density, kg/m3 (Liquid); method: VIBTUB:UFactor:4
Temperature, K	Pressure, kPa	Mass density, kg/m3	uncertainty
298.15	101.325	789.261	0.589

System: propan-2-ol; phases: Liquid
Property: Refractive index (Na D-line) (Liquid); method: Standard Abbe refractometry
Temperature, K	Pressure, kPa	Refractive index (Na D-line)	uncertainty
293.15	101.325	1.3774	0.0007

System: propan-2-ol; phases: Liquid, Gas
Property: Vapor or sublimation pressure, kPa (Liquid); method: EBULLIO:UFactor:16
Temperature, K	Vapor or sublimation pressure, kPa	uncertainty
355.36	101.33	0.34

System: propan-2-ol; phases: Liquid
Property: Mass density, kg/m3 (Liquid); method: VIBTUB:UFactor:4
Temperature, K	Pressure, kPa	Mass density, kg/m3	uncertainty
298.15	101.325	785.428	0.596

System: butan-1-ol; phases: Liquid
Property: Refractive index (Na D-line) (Liquid); method: Standard Abbe refractometry
Temperature, K	Pressure, kPa	Refractive index (Na D-line)	uncertainty
293.15	101.325	1.3993	0.0007

System: butan-1-ol; phases: Liquid, Gas
Property: Vapor or sublimation pressure, kPa (Liquid); method: EBULLIO:UFactor:16
Temperature, K	Vapor or sublimation pressure, kPa	uncertainty
390.88	101.33	0.34

System: butan-1-ol; phases: Liquid
Property: Mass density, kg/m3 (Liquid); method: VIBTUB:UFactor:4
Temperature, K	Pressure, kPa	Mass density, kg/m3	uncertainty
298.15	101.325	809.572	0.548

System: isopropyl (S)-2-hydroxypropionate; phases: Liquid
Property: Refractive index (Na D-line) (Liquid); method: Standard Abbe refractometry
Temperature, K	Pressure, kPa	Refractive index (Na D-line)	uncertainty
293.15	101.325	1.4105	0.0007

System: isopropyl (S)-2-hydroxypropionate; phases: Liquid, Gas
Property: Vapor or sublimation pressure, kPa (Liquid); method: EBULLIO:UFactor:32
Temperature, K	Vapor or sublimation pressure, kPa	uncertainty
355	7.424	0.344
360	9.156	0.349
365	11.225	0.356
370	13.681	0.364
375	16.584	0.373
380	19.995	0.384
385	23.986	0.397
390	28.634	0.412
395	34.022	0.43
400	40.242	0.45
405	47.394	0.473
410	55.586	0.499
415	64.932	0.529
420	75.557	0.564
425	87.596	0.603
430	101.189	0.644
430.21	101.33	0.64

System: isopropyl (S)-2-hydroxypropionate; phases: Liquid
Property: Mass density, kg/m3 (Liquid); method: VIBTUB:UFactor:4
Temperature, K	Pressure, kPa	Mass density, kg/m3	uncertainty
298.15	101.325	986.942	0.2

System: butyl L-lactate; phases: Liquid
Property: Refractive index (Na D-line) (Liquid); method: Standard Abbe refractometry
Temperature, K	Pressure, kPa	Refractive index (Na D-line)	uncertainty
293.15	101.325	1.4218	0.0007

System: butyl L-lactate; phases: Liquid, Gas
Property: Vapor or sublimation pressure, kPa (Liquid); method: EBULLIO:UFactor:32
Temperature, K	Vapor or sublimation pressure, kPa	uncertainty
390	10.624	0.354
395	13.008	0.362
400	15.799	0.371
405	19.044	0.381
410	22.792	0.393
415	27.094	0.407
420	32.004	0.423
425	37.577	0.441
430	43.869	0.461
435	50.938	0.484
440	58.845	0.509
445	67.648	0.538
450	77.41	0.569
455	88.191	0.604
460	100.054	0.641
460.75	101.33	0.65

System: butyl L-lactate; phases: Liquid
Property: Mass density, kg/m3 (Liquid); method: VIBTUB:UFactor:4
Temperature, K	Pressure, kPa	Mass density, kg/m3	uncertainty
298.15	101.325	982.178	0.209

System: (S)-(-)-ethyl lactate; phases: Liquid
Property: Refractive index (Na D-line) (Liquid); method: Standard Abbe refractometry
Temperature, K	Pressure, kPa	Refractive index (Na D-line)	uncertainty
293.15	101.325	1.4129	0.0007

System: (S)-(-)-ethyl lactate; phases: Liquid, Gas
Property: Vapor or sublimation pressure, kPa (Liquid); method: EBULLIO:UFactor:16
Temperature, K	Vapor or sublimation pressure, kPa	uncertainty
427.65	101.33	0.34

System: (S)-(-)-ethyl lactate; phases: Liquid
Property: Mass density, kg/m3 (Liquid); method: VIBTUB:UFactor:4
Temperature, K	Pressure, kPa	Mass density, kg/m3	uncertainty
298.15	101.325	1032.939	0.239

System: ethanol + (S)-(-)-ethyl lactate; phases: Liquid, Gas
Fixed: Pressure, kPa = 101.33
Property: Boiling temperature at pressure P, K (Liquid); method: EBULLIO:UFactor:16
Mole fraction of ethanol	Boiling temperature at pressure P, K	uncertainty
0	427.65	0.64
0.0052	423.5	0.64
0.0354	415.2	0.64
0.0709	405.95	0.64
0.1787	390.26	0.64
0.269	381.01	0.64
0.2938	378.71	0.64
0.3277	376.3	0.64
0.3448	375.07	0.64
0.37	373.42	0.64
0.3789	373.13	0.64
0.4022	371.56	0.64
0.407	371.15	0.64
0.431	369.83	0.64
0.4529	368.93	0.64
0.4627	368.34	0.64
0.4999	366.53	0.64
0.5481	364.32	0.64
0.5738	363.61	0.64
0.5976	362.69	0.64
0.6345	361.4	0.64
0.6603	360.51	0.64
0.673	360.25	0.64
0.6996	359.39	0.64
0.7165	358.88	0.64
0.7504	357.71	0.64
0.7725	357.18	0.64
0.8003	356.2	0.64
0.8462	355.09	0.64
0.8703	354.41	0.64
0.8892	353.93	0.64
0.8985	353.63	0.64
0.9313	352.99	0.64
0.9451	352.34	0.64
0.9688	352.03	0.64
1	351.44	0.64

System: ethanol + (S)-(-)-ethyl lactate; phases: Liquid
Fixed: Temperature, K = 298.15
Fixed: Pressure, kPa = 101.325
Property: Mass density, kg/m3 (Liquid); method: VIBTUB:UFactor:4
Mole fraction of ethanol	Mass density, kg/m3	uncertainty
0	1032.939	0.239
0.1242	1018.422	0.211
0.2256	1004.725	0.188
0.312	991.37	0.198
0.3921	977.447	0.23
0.5236	950.894	0.286
0.5735	939.295	0.31
0.6735	913.364	0.353
0.7574	887.971	0.399
0.7941	875.598	0.422
0.8267	863.971	0.444
0.8559	852.975	0.465
0.9578	809.773	0.548
1	789.261	0.589

System: ethanol + (S)-(-)-ethyl lactate; phases: Gas, Liquid
Fixed: Pressure, kPa = 101.33
Property: Mole fraction of ethanol (Gas); method: CHROM:UFactor:16
Mole fraction of ethanol	Mole fraction of ethanol	uncertainty
0	0	0.0001
0.0052	0.1025	0.0197
0.0354	0.3185	0.0612
0.0709	0.5387	0.0886
0.1787	0.7395	0.05
0.269	0.841	0.0305
0.2938	0.8675	0.0254
0.3277	0.8868	0.0217
0.3448	0.9024	0.0187
0.37	0.9037	0.0185
0.3789	0.9082	0.0176
0.4022	0.9157	0.0162
0.407	0.918	0.0157
0.431	0.9256	0.0143
0.4529	0.9365	0.0122
0.4627	0.9386	0.0118
0.4999	0.9456	0.0104
0.5481	0.9517	0.0093
0.5738	0.9552	0.0086
0.5976	0.9589	0.0079
0.6345	0.9683	0.0061
0.6603	0.9676	0.0062
0.673	0.9693	0.0059
0.6996	0.9723	0.0053
0.7165	0.9747	0.0049
0.7504	0.9827	0.0033
0.7725	0.9844	0.003
0.8003	0.9847	0.0029
0.8462	0.9887	0.0022
0.8703	0.992	0.0015
0.8892	0.9935	0.0012
0.8985	0.9942	0.0011
0.9313	0.9961	0.0008
0.9451	0.997	0.0006
0.9688	0.9984	0.0003
1	1	0.0001

System: propan-2-ol + isopropyl (S)-2-hydroxypropionate; phases: Liquid, Gas
Fixed: Pressure, kPa = 101.33
Property: Boiling temperature at pressure P, K (Liquid); method: EBULLIO:UFactor:16
Mole fraction of propan-2-ol	Boiling temperature at pressure P, K	uncertainty
0	430.21	0.64
0.003	428.63	0.64
0.0076	427.8	0.64
0.0184	424.94	0.64
0.0318	421.5	0.64
0.0614	414.35	0.64
0.0738	412.78	0.64
0.0813	411.5	0.64
0.0971	408.82	0.64
0.1079	406.58	0.64
0.1165	404.31	0.64
0.1406	401.5	0.64
0.1571	399	0.64
0.1751	396.49	0.64
0.2359	389.72	0.64
0.2549	388.37	0.64
0.2999	383.99	0.64
0.3505	380.14	0.64
0.3816	378.03	0.64
0.4121	376.13	0.64
0.4551	373.55	0.64
0.4824	372.14	0.64
0.5183	370.49	0.64
0.5626	368.26	0.64
0.762	361.39	0.64
0.782	360.81	0.64
0.8063	359.94	0.64
0.8742	358.22	0.64
0.8782	358.15	0.64
0.9057	357.49	0.64
0.9275	356.96	0.64
0.9797	355.87	0.64
0.9856	355.72	0.64
1	355.36	0.64

System: propan-2-ol + isopropyl (S)-2-hydroxypropionate; phases: Liquid
Fixed: Temperature, K = 298.15
Fixed: Pressure, kPa = 101.325
Property: Mass density, kg/m3 (Liquid); method: VIBTUB:UFactor:4
Mole fraction of propan-2-ol	Mass density, kg/m3	uncertainty
0	986.942	0.2
0.087	976.815	0.219
0.197	962.69	0.247
0.281	950.807	0.272
0.3554	939.404	0.297
0.542	906.498	0.367
0.5652	901.903	0.374
0.6921	874.425	0.424
0.7733	854.447	0.462
0.8365	837.361	0.494
0.8675	828.428	0.512
0.9249	810.801	0.546
0.9516	802.104	0.563
1	785.428	0.596

System: propan-2-ol + isopropyl (S)-2-hydroxypropionate; phases: Gas, Liquid
Fixed: Pressure, kPa = 101.33
Property: Mole fraction of propan-2-ol (Gas); method: CHROM:UFactor:16
Mole fraction of propan-2-ol	Mole fraction of propan-2-ol	uncertainty
0	0	0.0001
0.003	0.0245	0.0047
0.0076	0.0648	0.0124
0.0184	0.1462	0.0281
0.0318	0.236	0.0453
0.0614	0.4044	0.0776
0.0738	0.4579	0.0879
0.0813	0.473	0.0908
0.0971	0.5164	0.0929
0.1079	0.5569	0.0851
0.1165	0.5771	0.0812
0.1406	0.6347	0.0701
0.1571	0.6657	0.0642
0.1751	0.7004	0.0575
0.2359	0.7803	0.0422
0.2549	0.8053	0.0374
0.2999	0.8374	0.0312
0.3505	0.8736	0.0243
0.3816	0.896	0.02
0.4121	0.91	0.0173
0.4551	0.916	0.0161
0.4824	0.9247	0.0145
0.5183	0.9379	0.0119
0.5626	0.946	0.0104
0.762	0.98	0.0038
0.782	0.9817	0.0035
0.8063	0.9855	0.0028
0.8742	0.9918	0.0016
0.8782	0.992	0.0015
0.9057	0.994	0.0012
0.9275	0.9944	0.0011
0.9797	0.9986	0.0003
0.9856	0.9991	0.0002
1	1	0.0001

System: butan-1-ol + butyl L-lactate; phases: Liquid, Gas
Fixed: Pressure, kPa = 101.33
Property: Boiling temperature at pressure P, K (Liquid); method: EBULLIO:UFactor:16
Mole fraction of butan-1-ol	Boiling temperature at pressure P, K	uncertainty
0	460.75	0.64
0.0175	457.75	0.64
0.0712	448.89	0.64
0.1487	437.5	0.64
0.2029	431.27	0.64
0.2636	425.1	0.64
0.3376	419.4	0.64
0.3773	415.77	0.64
0.4049	414.45	0.64
0.4556	411.1	0.64
0.4941	409.19	0.64
0.5113	408.21	0.64
0.5357	407.1	0.64
0.5835	404.73	0.64
0.594	404.17	0.64
0.6699	400.95	0.64
0.6887	400	0.64
0.7218	398.67	0.64
0.7534	397.6	0.64
0.8587	394.27	0.64
0.9106	392.77	0.64
0.9238	392.34	0.64
0.9398	391.99	0.64
0.9536	391.59	0.64
0.9667	391.35	0.64
1	390.88	0.64

System: butan-1-ol + butyl L-lactate; phases: Liquid
Fixed: Temperature, K = 298.15
Fixed: Pressure, kPa = 101.325
Property: Mass density, kg/m3 (Liquid); method: VIBTUB:UFactor:4
Mole fraction of butan-1-ol	Mass density, kg/m3	uncertainty
0	982.178	0.209
0.0989	971.809	0.229
0.1806	962.459	0.247
0.2599	952.704	0.267
0.3973	933.863	0.307
0.5154	915.521	0.346
0.5669	906.818	0.363
0.6645	888.883	0.395
0.7069	880.503	0.411
0.7854	863.836	0.442
0.8546	847.901	0.473
0.9174	832.199	0.503
0.9728	817.297	0.533
1	809.572	0.548

System: butan-1-ol + butyl L-lactate; phases: Gas, Liquid
Fixed: Pressure, kPa = 101.33
Property: Mole fraction of butan-1-ol (Gas); method: CHROM:UFactor:16
Mole fraction of butan-1-ol	Mole fraction of butan-1-ol	uncertainty
0	0	0.0001
0.0175	0.1033	0.0198
0.0712	0.341	0.0655
0.1487	0.5475	0.0869
0.2029	0.6444	0.0683
0.2636	0.722	0.0534
0.3376	0.7983	0.0387
0.3773	0.8334	0.032
0.4049	0.841	0.0305
0.4556	0.883	0.0225
0.4941	0.8947	0.0202
0.5113	0.8994	0.0193
0.5357	0.9065	0.018
0.5835	0.929	0.0136
0.594	0.9316	0.0131
0.6699	0.9505	0.0095
0.6887	0.9589	0.0079
0.7218	0.9671	0.0063
0.7534	0.9683	0.0061
0.8587	0.98	0.0038
0.9106	0.988	0.0023
0.9238	0.9895	0.002
0.9398	0.9913	0.0017
0.9536	0.9924	0.0015
0.9667	0.9938	0.0012
1	1	0.0001
