Measured thermophysical data. Measurements of vapor pressure and gaseous pvT property for trans- 1,3,3,3-tetrafluoropropene (HFO-1234ze(E))
Source: Fluid Phase Equilib., 2018, 10.1016/j.fluid.2017.12.030
Compound 1: helium, He, InChI=1S/He, purity 99.999%
Compound 2: trans-1,3,3,3-tetrafluoropropene, C3H2F4, InChI=1S/C3H2F4/c4-2-1-3(5,6)7/h1-2H/b2-1+, purity 99.9%

System: helium; phases: Gas
Property: Amount density, mol/m3 (Gas); method: Burnett expansion method
Temperature, K	Pressure, kPa	Amount density, mol/m3	uncertainty
373.148	6822.83	2146.79	6.45
373.148	4562.05	1446.72	4.35
373.148	3058.34	974.95	2.94
373.148	2053.73	657.02	2
373.15	1380.67	442.77	1.37
373.149	928.86	298.38	0.95
373.148	625.2	201.08	0.68
373.151	420.93	135.51	0.52
373.163	6447.88	2031.86	6.1
373.159	4313.21	1369.18	4.12
373.159	2892.19	922.63	2.79
373.158	1942.54	621.72	1.89
373.159	1306	418.95	1.3
373.158	878.69	282.31	0.91
373.159	591.44	190.24	0.65
373.159	398.19	128.19	0.5

System: trans-1,3,3,3-tetrafluoropropene; phases: Gas
Property: Amount density, mol/m3 (Gas); method: Burnett expansion method
Temperature, K	Pressure, kPa	Amount density, mol/m3	uncertainty
373.147	2831.41	1606.1	4.9
373.148	2314.5	1082.2	3.4
373.157	1768.42	729.2	2.3
373.159	1293.96	491.3	1.5
373.161	920.7	331	1.1
373.157	643.13	223.1	0.8
373.156	443.94	150.3	0.6
373.152	303.93	101.3	0.5
373.154	207.02	68.2	0.4
373.155	140.48	46	0.4
368.161	2714.72	1604.7	5
368.171	2247.27	1081.4	3.4
368.17	1727.98	728.7	2.3
368.172	1269	491.1	1.6
368.173	904.67	330.9	1.1
368.164	632.99	223	0.8
368.164	437.34	150.3	0.6
368.174	299.61	101.3	0.5
368.168	204.17	68.3	0.4
368.168	138.56	46	0.4
363.168	2178.29	1082.6	3.3
363.169	1686.88	729.4	2.3
363.17	1243.77	491.5	1.6
363.169	888.81	331.2	1.1
363.169	622.81	223.1	0.8
363.165	430.69	150.4	0.6
363.169	295.23	101.3	0.5
363.164	201.26	68.3	0.4
363.167	136.66	46	0.4
358.152	2107.91	1082.5	3.3
358.159	1645.27	729.4	2.3
358.16	1218.3	491.5	1.6
358.16	872.81	331.2	1.1
358.159	612.57	223.2	0.8
358.157	424.06	150.4	0.6
358.161	290.92	101.3	0.5
358.156	198.35	68.3	0.4
358.15	134.72	46	0.4
353.153	1603.15	729.4	2.3
353.155	1192.64	491.5	1.6
353.155	856.75	331.2	1.1
353.153	602.3	223.2	0.8
353.151	417.37	150.4	0.6
353.158	286.54	101.3	0.5
353.153	195.47	68.3	0.4
353.15	132.76	46	0.4
348.138	1560.31	729.9	2.3
348.137	1166.66	491.8	1.6
348.139	840.58	331.4	1.1
348.137	591.95	223.3	0.8
348.137	410.65	150.4	0.6
348.139	282.11	101.4	0.5
348.137	192.53	68.3	0.4
348.137	130.81	46	0.4
343.137	1516.87	729.8	2.3
343.137	1140.48	491.8	1.6
343.132	824.28	331.4	1.1
343.132	581.54	223.3	0.8
343.128	403.88	150.5	0.6
343.13	277.69	101.4	0.5
343.133	189.6	68.3	0.4
343.135	128.88	46	0.4
338.142	1114.06	493	1.6
338.142	807.89	332.1	1.1
338.14	571.13	223.7	0.8
338.138	397.1	150.6	0.6
338.139	273.27	101.5	0.5
338.14	186.66	68.3	0.4
338.14	126.94	46	0.4
333.15	1087.29	493.2	1.6
333.149	791.36	332.2	1.1
333.145	560.64	223.7	0.8
333.144	390.38	150.7	0.6
333.146	268.84	101.5	0.5
333.145	183.76	68.4	0.4
333.147	125	46	0.4
328.15	1060.12	494	1.6
328.148	774.66	332.6	1.1
328.147	550.11	224	0.8
328.146	383.6	150.8	0.6
328.147	264.4	101.6	0.5
328.146	180.83	68.4	0.4
328.144	122.99	46.1	0.4
323.143	757.81	333.1	1.1
323.145	539.49	224.3	0.8
323.144	376.77	151	0.6
323.145	259.94	101.6	0.5
323.144	177.87	68.4	0.5
323.145	121.03	46.1	0.4
318.149	740.77	333.2	1.1
318.144	528.75	224.3	0.8
318.149	369.91	151	0.6
318.149	255.47	101.7	0.5
318.149	174.92	68.4	0.5
318.148	119.1	46.1	0.4
313.146	723.49	333.4	1.1
313.145	517.92	224.4	0.8
313.146	362.99	151.1	0.6
313.145	250.96	101.7	0.5
313.143	171.93	68.5	0.5
313.144	117.15	46.1	0.4

System: trans-1,3,3,3-tetrafluoropropene; phases: Liquid, Gas
Property: Vapor or sublimation pressure, kPa (Liquid); method: Closed cell (Static) method
Temperature, K	Vapor or sublimation pressure, kPa	uncertainty
303.146	578.14	1.35
308.143	667.36	1.43
313.139	766.43	1.54
318.143	876.38	1.67
323.139	997.42	1.81
328.14	1130.74	1.98
333.139	1276.95	2.16
338.135	1436.77	2.37
343.128	1611.05	2.61
348.128	1801.15	2.91
353.142	2008.42	3.24
358.144	2233.01	3.6
363.153	2476.94	3.98
368.152	2741.03	4.4
373.137	3026.83	4.84

System: trans-1,3,3,3-tetrafluoropropene; phases: Gas
Property: 2nd virial coefficient, m3/mol (Gas); method: Derived graphically
Temperature, K	2nd virial coefficient, m3/mol	uncertainty
373.155	-0.00032475	1.258e-05
368.169	-0.00033459	1.296e-05
363.168	-0.00034739	1.345e-05
358.157	-0.00035899	1.39e-05
353.153	-0.00037115	1.437e-05
348.138	-0.00038516	1.492e-05
343.133	-0.00039825	1.542e-05
338.14	-0.00042054	1.634e-05
333.147	-0.00043661	1.691e-05
328.147	-0.00045694	1.77e-05
323.144	-0.00047979	2.17e-05
318.148	-0.0004998	1.94e-05
313.145	-0.00052048	2.218e-05

System: trans-1,3,3,3-tetrafluoropropene; phases: Gas
Property: 3rd virial coefficient, m6/mol2 (Gas); method: Derived graphically
Temperature, K	3rd virial coefficient, m6/mol2	uncertainty
373.155	3.481e-08	1.087e-08
368.169	3.4788e-08	1.087e-08
363.168	3.621e-08	1.0876e-08
358.157	3.6297e-08	1.0876e-08
353.153	3.6144e-08	1.0875e-08
348.138	3.6866e-08	1.0878e-08
343.133	3.5951e-08	1.0875e-08
338.14	4.573e-08	1.092e-08
333.147	4.6269e-08	1.0923e-08
328.147	5.0453e-08	1.0946e-08
323.144	5.9178e-08	1.1001e-08
318.148	6.2159e-08	1.1021e-08
313.145	6.3378e-08	1.103e-08
