Measured thermophysical data. Experimental and theoretical study of CO2 solubility in N-methyl-2-pyrrolidone (NMP)
Source: Fluid Phase Equilib., 2014, 10.1016/j.fluid.2013.12.019
Compound 1: N-methylpyrrolidone, C5H9NO, InChI=1S/C5H9NO/c1-6-4-2-3-5(6)7/h2-4H2,1H3, purity 99.5%
Compound 2: carbon dioxide, CO2, InChI=1S/CO2/c2-1-3, purity 99.9%

System: carbon dioxide + N-methylpyrrolidone; phases: Liquid, Gas
Property: Mole fraction of carbon dioxide (Liquid); method: Phase equilibration
Pressure, kPa	Temperature, K	Mole fraction of carbon dioxide	uncertainty
980	293.15	0.1494	0.0105
864	293.15	0.1295	0.0091
766	293.15	0.1124	0.0079
698	293.15	0.0981	0.0069
564	293.15	0.0847	0.006
1121	313.15	0.1181	0.0083
955	313.15	0.1039	0.0073
889	313.15	0.0896	0.0063
718	313.15	0.082	0.0058
658	313.15	0.0707	0.005
1122	333.15	0.0974	0.0069
1043	333.15	0.0846	0.006
935	333.15	0.075	0.0053
839	333.15	0.0718	0.005
696	333.15	0.0556	0.0039
