Measured thermophysical data. Solubility of ethylene in toluene, norbornene, and toluene + norbornene mixture
Source: Fluid Phase Equilib., 2013, 10.1016/j.fluid.2013.01.023
Compound 1: ethene, C2H4, InChI=1S/C2H4/c1-2/h1-2H2, purity 99.9%
Compound 2: toluene, C7H8, InChI=1S/C7H8/c1-7-5-3-2-4-6-7/h2-6H,1H3, purity 99.9%
Compound 3: bicyclo[2.2.1]hept-2-ene, C7H10, InChI=1S/C7H10/c1-2-7-4-3-6(1)5-7/h1-2,6-7H,3-5H2, purity 99%

System: ethene + toluene + bicyclo[2.2.1]hept-2-ene; phases: Gas, Liquid
Property: Vapor or sublimation pressure, kPa (Gas); method: Closed cell (Static) method
Mole fraction of ethene	Solvent: Mass fraction of toluene	Temperature, K	Vapor or sublimation pressure, kPa	uncertainty
0.0768	0.5	323.12	820	40
0.1282	0.5	323.12	1350	40
0.1769	0.5	323.12	1830	40
0.1999	0.5	323.12	2030	40
0.263	0.5	323.12	2730	40
0.0768	0.5	343.16	1020	40
0.1282	0.5	343.16	1600	40
0.1769	0.5	343.16	2200	40
0.1999	0.5	343.16	2450	40
0.263	0.5	343.16	3210	40
0.0768	0.5	363.11	1170	50
0.1282	0.5	363.11	1880	50
0.1769	0.5	363.11	2560	50
0.1999	0.5	363.11	2880	40
0.263	0.5	363.11	3710	40
0.0788	0.1	323.12	860	40
0.1079	0.1	323.12	1150	40
0.1432	0.1	323.12	1540	40
0.1836	0.1	323.12	1960	40
0.2118	0.1	323.12	2230	40
0.0788	0.1	343.16	990	50
0.1079	0.1	343.16	1400	50
0.1432	0.1	343.16	1790	40
0.1836	0.1	343.16	2270	50
0.2118	0.1	343.16	2610	50
0.0788	0.1	363.11	1200	50
0.1079	0.1	363.11	1590	50
0.1432	0.1	363.11	2100	50
0.1836	0.1	363.11	2680	50
0.2118	0.1	363.11	3070	50
0.0754	0.9	323.12	780	50
0.1085	0.9	323.12	1170	40
0.1474	0.9	323.12	1510	40
0.1831	0.9	323.12	1950	40
0.2114	0.9	323.12	2210	40
0.0754	0.9	343.16	920	50
0.1085	0.9	343.16	1380	40
0.1474	0.9	343.16	1870	40
0.1831	0.9	343.16	2250	40
0.2114	0.9	343.16	2640	50
0.0754	0.9	363.11	1170	50
0.1085	0.9	363.11	1620	50
0.1474	0.9	363.11	2180	50
0.1831	0.9	363.11	2650	40
0.2114	0.9	363.11	3060	50

System: ethene + toluene; phases: Gas, Liquid
Property: Vapor or sublimation pressure, kPa (Gas); method: Closed cell (Static) method
Mole fraction of ethene	Temperature, K	Vapor or sublimation pressure, kPa	uncertainty
0.0535	323.12	660	42
0.1044	323.12	1130	42
0.1786	323.12	2080	46
0.2012	323.12	2320	44
0.2425	323.12	2790	44
0.3557	323.12	4020	44
0.0535	343.16	760	42
0.1044	343.16	1360	42
0.1786	343.16	2160	46
0.2012	343.16	2540	48
0.2425	343.16	3190	47
0.3557	343.16	4810	46
0.0535	363.11	890	43
0.1044	363.11	1560	44
0.1786	363.11	2610	49
0.2012	363.11	3060	51
0.2425	363.11	3850	50
0.3557	363.11	5680	47

System: ethene + bicyclo[2.2.1]hept-2-ene; phases: Gas, Liquid
Property: Vapor or sublimation pressure, kPa (Gas); method: Closed cell (Static) method
Temperature, K	Mole fraction of ethene	Vapor or sublimation pressure, kPa	uncertainty
323.12	0.1207	1210	40
323.12	0.1496	1590	40
323.12	0.1741	1770	40
323.12	0.2059	2140	40
323.12	0.2531	2660	40
343.16	0.1207	1490	40
343.16	0.1496	1790	40
343.16	0.1741	2150	40
343.16	0.2059	2380	40
343.16	0.2531	3060	50
363.11	0.1207	1760	40
363.11	0.1496	2210	40
363.11	0.1741	2530	50
363.11	0.2059	3000	40
363.11	0.2531	3630	40
