Measured thermophysical data. Revision of the volumetric method for measurements of liquid liquid equilibria in binary systems
Source: Fluid Phase Equilib., 2005, 10.1016/j.fluid.2004.12.004
Compound 1: 1,2-ethanediol, C2H6O2, InChI=1S/C2H6O2/c3-1-2-4/h3-4H,1-2H2, purity 99.8%
Compound 2: ethyl acetate, C4H8O2, InChI=1S/C4H8O2/c1-3-6-4(2)5/h3H2,1-2H3, purity 99.8%
Compound 3: phenyl ethanoate, C8H8O2, InChI=1S/C8H8O2/c1-7(9)10-8-5-3-2-4-6-8/h2-6H,1H3, purity 99%
Compound 4: dimethylformamide, C3H7NO, InChI=1S/C3H7NO/c1-4(2)3-5/h3H,1-2H3, purity 99.8%
Compound 5: methylcyclohexane, C7H14, InChI=1S/C7H14/c1-7-5-3-2-4-6-7/h7H,2-6H2,1H3, purity 99%
Compound 6: butan-1-ol, C4H10O, InChI=1S/C4H10O/c1-2-3-4-5/h5H,2-4H2,1H3, purity 99.8%
Compound 7: dimethyl 1,2-benzenedicarboxylate, C10H10O4, InChI=1S/C10H10O4/c1-13-9(11)7-5-3-4-6-8(7)10(12)14-2/h3-6H,1-2H3, purity 99.8%
Compound 8: water, H2O, InChI=1S/H2O/h1H2

System: 1,2-ethanediol; phases: Liquid
Property: Mass density, kg/m3 (Liquid); method: Vibrating tube method
Temperature, K	Pressure, kPa	Mass density, kg/m3	uncertainty
298.15	101.325	1109.9	0.14

System: ethyl acetate; phases: Liquid
Property: Mass density, kg/m3 (Liquid); method: Vibrating tube method
Temperature, K	Pressure, kPa	Mass density, kg/m3	uncertainty
298.15	101.325	894.4	0.6

System: phenyl ethanoate; phases: Liquid
Property: Mass density, kg/m3 (Liquid); method: Vibrating tube method
Temperature, K	Pressure, kPa	Mass density, kg/m3	uncertainty
298.15	101.325	1073.3	0.42

System: dimethylformamide; phases: Liquid
Property: Mass density, kg/m3 (Liquid); method: Vibrating tube method
Temperature, K	Pressure, kPa	Mass density, kg/m3	uncertainty
298.15	101.325	943.81	0.2

System: methylcyclohexane; phases: Liquid
Property: Mass density, kg/m3 (Liquid); method: Vibrating tube method
Temperature, K	Pressure, kPa	Mass density, kg/m3	uncertainty
298.15	101.325	764.96	0.13

System: butan-1-ol; phases: Liquid
Property: Mass density, kg/m3 (Liquid); method: Vibrating tube method
Temperature, K	Pressure, kPa	Mass density, kg/m3	uncertainty
298.15	101.325	805.8	0.2

System: dimethyl 1,2-benzenedicarboxylate; phases: Liquid
Property: Mass density, kg/m3 (Liquid); method: Vibrating tube method
Temperature, K	Pressure, kPa	Mass density, kg/m3	uncertainty
298.15	101.325	1186.9	0.2

System: dimethylformamide + methylcyclohexane; phases: Liquid mixture 1, Liquid mixture 2
Property: Mole fraction of methylcyclohexane (Liquid mixture 1); method: volumetric method
Temperature, K	Pressure, kPa	Mole fraction of methylcyclohexane	uncertainty
303.15	101.325	0.1761	0.0012

System: dimethylformamide + methylcyclohexane; phases: Liquid mixture 2, Liquid mixture 1
Property: Mole fraction of methylcyclohexane (Liquid mixture 2); method: volumetric method
Temperature, K	Pressure, kPa	Mole fraction of methylcyclohexane	uncertainty
303.15	101.325	0.8823	0.0024

System: butan-1-ol + water; phases: Liquid mixture 1, Liquid mixture 2
Property: Mole fraction of butan-1-ol (Liquid mixture 1); method: volumetric method
Temperature, K	Pressure, kPa	Mole fraction of butan-1-ol	uncertainty
303.15	101.325	0.0181	0.0004

System: butan-1-ol + water; phases: Liquid mixture 2, Liquid mixture 1
Property: Mole fraction of butan-1-ol (Liquid mixture 2); method: volumetric method
Temperature, K	Pressure, kPa	Mole fraction of butan-1-ol	uncertainty
303.15	101.325	0.4802	0.0032

System: dimethyl 1,2-benzenedicarboxylate + water; phases: Liquid mixture 1, Liquid mixture 2
Property: Mole fraction of dimethyl 1,2-benzenedicarboxylate (Liquid mixture 1); method: volumetric method
Temperature, K	Pressure, kPa	Mole fraction of dimethyl 1,2-benzenedicarboxylate	uncertainty
303.15	101.325	0.00047	0.00026

System: dimethyl 1,2-benzenedicarboxylate + water; phases: Liquid mixture 2, Liquid mixture 1
Property: Mole fraction of dimethyl 1,2-benzenedicarboxylate (Liquid mixture 2); method: volumetric method
Temperature, K	Pressure, kPa	Mole fraction of dimethyl 1,2-benzenedicarboxylate	uncertainty
303.15	101.325	0.8525	0.0162

System: 1,2-ethanediol + ethyl acetate; phases: Liquid mixture 1, Liquid mixture 2
Fixed: Pressure, kPa = 101.325
Property: Mole fraction of ethyl acetate (Liquid mixture 1); method: volumetric method
Temperature, K	Mole fraction of ethyl acetate	uncertainty
288.15	0.1228	0.0002
293.15	0.1321	0.0002
298.15	0.1427	0.0002
303.15	0.1562	0.0003
313.15	0.1911	0.0005
323.15	0.2543	0.0006

System: 1,2-ethanediol + ethyl acetate; phases: Liquid mixture 2, Liquid mixture 1
Fixed: Pressure, kPa = 101.325
Property: Mole fraction of ethyl acetate (Liquid mixture 2); method: volumetric method
Temperature, K	Mole fraction of ethyl acetate	uncertainty
288.15	0.8953	0.0003
293.15	0.8819	0.0003
298.15	0.8648	0.0004
303.15	0.8444	0.0005
313.15	0.7905	0.0007
323.15	0.6954	0.001

System: 1,2-ethanediol + ethyl acetate; phases: Liquid mixture 1, Liquid mixture 2
Fixed: Pressure, kPa = 101.325
Property: Mole fraction of ethyl acetate (Liquid mixture 1); method: visual observation (cloud point)
Temperature, K	Mole fraction of ethyl acetate	uncertainty
293.99	0.1338	0.0002
299.07	0.1456	0.0004
317.4	0.2136	0.0006
327.35	0.3268	0.001
327.68	0.3236	0.0021
328.19	0.3432	0.008
329.04	0.4288	0.0101

System: 1,2-ethanediol + ethyl acetate; phases: Liquid mixture 2, Liquid mixture 1
Fixed: Pressure, kPa = 101.325
Property: Mole fraction of ethyl acetate (Liquid mixture 2); method: visual observation (cloud point)
Temperature, K	Mole fraction of ethyl acetate	uncertainty
296.67	0.8741	0.0004
299.21	0.8648	0.0004
323.63	0.6936	0.0029
328.05	0.5665	0.0062
328.98	0.5086	0.0062
329.06	0.4606	0.0105

System: 1,2-ethanediol + phenyl ethanoate; phases: Liquid mixture 1, Liquid mixture 2
Fixed: Pressure, kPa = 101.325
Property: Mole fraction of phenyl ethanoate (Liquid mixture 1); method: visual observation (cloud point)
Temperature, K	Mole fraction of phenyl ethanoate	uncertainty
337.79	0.0926	0.0002
349.98	0.1201	0.0003
359.18	0.1598	0.0007
365.15	0.23	0.0012

System: 1,2-ethanediol + phenyl ethanoate; phases: Liquid mixture 2, Liquid mixture 1
Fixed: Pressure, kPa = 101.325
Property: Mole fraction of phenyl ethanoate (Liquid mixture 2); method: visual observation (cloud point)
Temperature, K	Mole fraction of phenyl ethanoate	uncertainty
328.41	0.8718	0.0002
328.85	0.8709	0.0004
329.62	0.8676	0.0004
331.57	0.8601	0.0004
345.15	0.7941	0.0007
357.65	0.685	0.0011
364.52	0.5748	0.0016

System: 1,2-ethanediol + phenyl ethanoate; phases: Liquid mixture 1, Liquid mixture 2
Fixed: Pressure, kPa = 101.325
Property: Mole fraction of phenyl ethanoate (Liquid mixture 1); method: volumetric method
Temperature, K	Mole fraction of phenyl ethanoate	uncertainty
293.15	0.0504	0.0001
303.15	0.0565	0.0001
313.15	0.064	0.0001
323.15	0.0736	0.0001
333.15	0.0876	0.0002

System: 1,2-ethanediol + phenyl ethanoate; phases: Liquid mixture 2, Liquid mixture 1
Fixed: Pressure, kPa = 101.325
Property: Mole fraction of phenyl ethanoate (Liquid mixture 2); method: volumetric method
Temperature, K	Mole fraction of phenyl ethanoate	uncertainty
293.15	0.9452	0.0002
303.15	0.9312	0.0002
313.15	0.9126	0.0002
323.15	0.8874	0.0003
333.15	0.8532	0.0003

System: 1,2-ethanediol + phenyl ethanoate; phases: Liquid mixture 1, Liquid mixture 2
Property: Mole fraction of phenyl ethanoate (Liquid mixture 1); method: Chromatography
Temperature, K	Pressure, kPa	Mole fraction of phenyl ethanoate	uncertainty
303.15	101.325	0.0561	0.0006

System: 1,2-ethanediol + phenyl ethanoate; phases: Liquid mixture 2, Liquid mixture 1
Property: Mole fraction of phenyl ethanoate (Liquid mixture 2); method: Chromatography
Temperature, K	Pressure, kPa	Mole fraction of phenyl ethanoate	uncertainty
303.15	101.325	0.9348	0.0007
