Measured thermophysical data. (Vapor + liquid) equilibrium of binary mixtures formed by N,N-dimethyl formamide with some compounds at 95.1 kPa
Source: Fluid Phase Equilib., 2007, 10.1016/j.fluid.2007.02.026
Compound 1: dimethylformamide, C3H7NO, InChI=1S/C3H7NO/c1-4(2)3-5/h3H,1-2H3
Compound 2: anisole, C7H8O, InChI=1S/C7H8O/c1-8-7-5-3-2-4-6-7/h2-6H,1H3
Compound 3: 2-cyanopyrazine, C5H3N3, InChI=1S/C5H3N3/c6-3-5-4-7-1-2-8-5/h1-2,4H
Compound 4: decane, C10H22, InChI=1S/C10H22/c1-3-5-7-9-10-8-6-4-2/h3-10H2,1-2H3
Compound 5: diisopropyl ether, C6H14O, InChI=1S/C6H14O/c1-5(2)7-6(3)4/h5-6H,1-4H3
Compound 6: butanone, C4H8O, InChI=1S/C4H8O/c1-3-4(2)5/h3H2,1-2H3
Compound 7: octane, C8H18, InChI=1S/C8H18/c1-3-5-7-8-6-4-2/h3-8H2,1-2H3

System: dimethylformamide; phases: Liquid
Property: Refractive index (Na D-line) (Liquid); method: Standard Abbe refractometry
Temperature, K	Pressure, kPa	Refractive index (Na D-line)	uncertainty
298.15	101.325	1.4282	0.0007

System: dimethylformamide; phases: Liquid
Property: Mass density, kg/m3 (Liquid); method: PYCNOM:UFactor:4
Temperature, K	Pressure, kPa	Mass density, kg/m3	uncertainty
298.15	101.325	943.9	1.4

System: dimethylformamide; phases: Liquid, Gas
Property: Vapor or sublimation pressure, kPa (Liquid); method: EBULLIO:UFactor:4
Temperature, K	Vapor or sublimation pressure, kPa	uncertainty
420.85	95.1	5
420.95	95.1	5

System: anisole; phases: Liquid
Property: Refractive index (Na D-line) (Liquid); method: Standard Abbe refractometry
Temperature, K	Pressure, kPa	Refractive index (Na D-line)	uncertainty
298.15	101.325	1.5142	0.0007

System: anisole; phases: Liquid
Property: Mass density, kg/m3 (Liquid); method: PYCNOM:UFactor:4
Temperature, K	Pressure, kPa	Mass density, kg/m3	uncertainty
298.15	101.325	989.3	1.5

System: anisole; phases: Liquid, Gas
Property: Vapor or sublimation pressure, kPa (Liquid); method: EBULLIO:UFactor:4
Temperature, K	Vapor or sublimation pressure, kPa	uncertainty
424.45	95.1	5

System: 2-cyanopyrazine; phases: Liquid
Property: Refractive index (Na D-line) (Liquid); method: Standard Abbe refractometry
Temperature, K	Pressure, kPa	Refractive index (Na D-line)	uncertainty
293.15	101.325	1.534	0.0007

System: 2-cyanopyrazine; phases: Liquid
Property: Mass density, kg/m3 (Liquid); method: PYCNOM:UFactor:4
Temperature, K	Pressure, kPa	Mass density, kg/m3	uncertainty
293.15	101.325	1174	1.8

System: 2-cyanopyrazine; phases: Liquid, Gas
Property: Vapor or sublimation pressure, kPa (Liquid); method: EBULLIO:UFactor:4
Temperature, K	Vapor or sublimation pressure, kPa	uncertainty
476.15	95.1	5

System: decane; phases: Liquid
Property: Refractive index (Na D-line) (Liquid); method: Standard Abbe refractometry
Temperature, K	Pressure, kPa	Refractive index (Na D-line)	uncertainty
298.15	101.325	1.4097	0.0007

System: decane; phases: Liquid
Property: Mass density, kg/m3 (Liquid); method: PYCNOM:UFactor:4
Temperature, K	Pressure, kPa	Mass density, kg/m3	uncertainty
298.15	101.325	726.4	1

System: decane; phases: Liquid, Gas
Property: Vapor or sublimation pressure, kPa (Liquid); method: EBULLIO:UFactor:4
Temperature, K	Vapor or sublimation pressure, kPa	uncertainty
444.95	95.1	5

System: diisopropyl ether; phases: Liquid
Property: Refractive index (Na D-line) (Liquid); method: Standard Abbe refractometry
Temperature, K	Pressure, kPa	Refractive index (Na D-line)	uncertainty
298.15	101.325	1.3654	0.0007

System: diisopropyl ether; phases: Liquid
Property: Mass density, kg/m3 (Liquid); method: PYCNOM:UFactor:4
Temperature, K	Pressure, kPa	Mass density, kg/m3	uncertainty
298.15	101.325	718.5	1

System: diisopropyl ether; phases: Liquid, Gas
Property: Vapor or sublimation pressure, kPa (Liquid); method: EBULLIO:UFactor:4
Temperature, K	Vapor or sublimation pressure, kPa	uncertainty
339.65	95.1	5

System: butanone; phases: Liquid
Property: Refractive index (Na D-line) (Liquid); method: Standard Abbe refractometry
Temperature, K	Pressure, kPa	Refractive index (Na D-line)	uncertainty
298.15	101.325	1.3769	0.0007

System: butanone; phases: Liquid
Property: Mass density, kg/m3 (Liquid); method: PYCNOM:UFactor:4
Temperature, K	Pressure, kPa	Mass density, kg/m3	uncertainty
298.15	101.325	799.8	1.2

System: butanone; phases: Liquid, Gas
Property: Vapor or sublimation pressure, kPa (Liquid); method: EBULLIO:UFactor:4
Temperature, K	Vapor or sublimation pressure, kPa	uncertainty
350.95	95.1	5

System: octane; phases: Liquid
Property: Refractive index (Na D-line) (Liquid); method: Standard Abbe refractometry
Temperature, K	Pressure, kPa	Refractive index (Na D-line)	uncertainty
298.15	101.325	1.5391	0.0007

System: octane; phases: Liquid
Property: Mass density, kg/m3 (Liquid); method: PYCNOM:UFactor:4
Temperature, K	Pressure, kPa	Mass density, kg/m3	uncertainty
298.15	101.325	698.6	1

System: octane; phases: Liquid, Gas
Property: Vapor or sublimation pressure, kPa (Liquid); method: EBULLIO:UFactor:6
Temperature, K	Vapor or sublimation pressure, kPa	uncertainty
391.15	95.1	5

System: dimethylformamide + anisole; phases: Liquid, Gas
Fixed: Pressure, kPa = 95.1
Property: Boiling temperature at pressure P, K (Liquid); method: EBULLIO:UFactor:8
Mole fraction of dimethylformamide	Boiling temperature at pressure P, K	uncertainty
0	424.45	0.68
0.0916	420.55	0.68
0.1679	418.95	0.68
0.2324	418.05	0.68
0.2876	417.65	0.68
0.3354	417.35	0.68
0.3771	417.15	0.68
0.414	416.95	0.68
0.4467	416.95	0.68
0.476	416.85	0.68
0.5023	416.85	0.68
0.5144	416.85	0.68
0.5361	416.85	0.68
0.5597	416.95	0.68
0.5855	416.95	0.68
0.6138	417.05	0.68
0.6449	417.15	0.68
0.6794	417.35	0.68
0.7177	417.55	0.68
0.7607	417.85	0.68
0.8091	418.35	0.68
0.8641	418.95	0.68
0.927	419.75	0.68
1	420.95	0.68

System: dimethylformamide + 2-cyanopyrazine; phases: Liquid, Gas
Fixed: Pressure, kPa = 95.1
Property: Boiling temperature at pressure P, K (Liquid); method: EBULLIO:UFactor:8
Mole fraction of dimethylformamide	Boiling temperature at pressure P, K	uncertainty
0	476.15	0.68
0.1144	467.75	0.68
0.2053	461.35	0.68
0.2793	456.25	0.68
0.3406	452.15	0.68
0.3924	448.95	0.68
0.4366	446.25	0.68
0.4748	443.95	0.68
0.5082	442.05	0.68
0.5372	440.45	0.68
0.5663	438.95	0.68
0.5988	437.25	0.68
0.6352	435.45	0.68
0.6763	433.45	0.68
0.7231	431.35	0.68
0.7769	428.95	0.68
0.8393	426.45	0.68
0.9126	423.75	0.68
1	420.95	0.68

System: dimethylformamide + decane; phases: Liquid, Gas
Fixed: Pressure, kPa = 95.1
Property: Boiling temperature at pressure P, K (Liquid); method: EBULLIO:UFactor:8
Mole fraction of dimethylformamide	Boiling temperature at pressure P, K	uncertainty
0	444.95	0.68
0.2192	425.85	0.68
0.3597	421.25	0.68
0.4573	419.35	0.68
0.5291	418.45	0.68
0.5841	417.95	0.68
0.674	417.45	0.68
0.6946	417.35	0.68
0.7165	417.25	0.68
0.7398	417.25	0.68
0.7697	417.15	0.68
0.7913	417.15	0.68
0.8198	417.15	0.68
0.8504	417.25	0.68
0.8834	417.45	0.68
0.8991	417.65	0.68
0.9578	418.75	0.68
1	420.95	0.68

System: dimethylformamide + diisopropyl ether; phases: Liquid, Gas
Fixed: Pressure, kPa = 95.1
Property: Boiling temperature at pressure P, K (Liquid); method: EBULLIO:UFactor:8
Mole fraction of dimethylformamide	Boiling temperature at pressure P, K	uncertainty
0	339.65	0.68
0.1195	340.95	0.68
0.2135	341.75	0.68
0.2929	342.55	0.68
0.3519	343.25	0.68
0.4043	344.05	0.68
0.4489	344.75	0.68
0.4872	345.55	0.68
0.5167	346.25	0.68
0.5499	347.15	0.68
0.575	347.95	0.68
0.6303	350.05	0.68
0.6813	352.55	0.68
0.7403	356.25	0.68
0.8105	362.85	0.68
0.8953	376.45	0.68
1	420.85	0.68

System: dimethylformamide + butanone; phases: Liquid, Gas
Fixed: Pressure, kPa = 95.1
Property: Boiling temperature at pressure P, K (Liquid); method: EBULLIO:UFactor:8
Mole fraction of dimethylformamide	Boiling temperature at pressure P, K	uncertainty
0	350.95	0.68
0.1144	354.05	0.68
0.2053	356.65	0.68
0.2792	358.85	0.68
0.3406	360.85	0.68
0.3923	362.45	0.68
0.4366	363.95	0.68
0.4748	365.35	0.68
0.489	365.85	0.68
0.5042	366.45	0.68
0.5203	367.05	0.68
0.5375	367.75	0.68
0.5579	368.65	0.68
0.5756	369.35	0.68
0.5966	370.25	0.68
0.6193	371.35	0.68
0.6438	372.55	0.68
0.6704	373.95	0.68
0.6912	375.15	0.68
0.7306	377.65	0.68
0.7649	380.05	0.68
0.8027	383.25	0.68
0.8443	387.65	0.68
0.8905	393.75	0.68
0.9421	403.45	0.68
1	420.95	0.68

System: dimethylformamide + octane; phases: Liquid, Gas
Fixed: Pressure, kPa = 95.1
Property: Boiling temperature at pressure P, K (Liquid); method: EBULLIO:UFactor:8
Mole fraction of dimethylformamide	Boiling temperature at pressure P, K	uncertainty
0	391.15	0.68
0.1352	389.05	0.68
0.2382	389.95	0.68
0.3193	390.25	0.68
0.3847	390.55	0.68
0.4387	390.85	0.68
0.4835	391.15	0.68
0.5221	391.45	0.68
0.5673	391.75	0.68
0.621	392.25	0.68
0.686	392.85	0.68
0.7662	393.75	0.68
0.8677	394.75	0.68
1	420.95	0.68
