Measured thermophysical data. Effect of head group on the aggregation behavior of surface active ionic liquids with aromatic counterions in aqueous solutions
Source: Fluid Phase Equilib., 2018, 10.1016/j.fluid.2017.10.015
Compound 1: water, H2O, InChI=1S/H2O/h1H2, purity 99.8%
Compound 2: N-dodecyl-N-methylpyrrolidinium salicylate, C24H41NO3, InChI=1S/C17H36N.C7H6O3/c1-3-4-5-6-7-8-9-10-11-12-15-18(2)16-13-14-17-18;8-6-4-2-1-3-5(6)7(9)10/h3-17H2,1-2H3;1-4,8H,(H,9,10)/q+1;/p-1
Compound 3: N-dodecyl-N-methylpiperidinium salicylate, C25H43NO3, InChI=1S/C18H38N.C7H6O3/c1-3-4-5-6-7-8-9-10-11-13-16-19(2)17-14-12-15-18-19;8-6-4-2-1-3-5(6)7(9)10/h3-18H2,1-2H3;1-4,8H,(H,9,10)/q+1;/p-1

System: N-dodecyl-N-methylpyrrolidinium salicylate + water; phases: Liquid, Gas
Fixed: Temperature, K = 298.15
Property: Surface tension liquid-gas, N/m (Liquid); method: Ring tensiometer
Mass fraction of N-dodecyl-N-methylpyrrolidinium salicylate	Surface tension liquid-gas, N/m	uncertainty
0.00049	0.04207	0.00068
0.00059	0.04021	0.00067
0.00069	0.03823	0.0006
0.00081	0.03693	0.00056
0.00098	0.03485	0.00054

System: N-dodecyl-N-methylpyrrolidinium salicylate + water; phases: Liquid
Fixed: Pressure, kPa = 100
Property: Electrical conductivity, S/m (Liquid); method: Alternating current cell with electrodes
Temperature, K	Mass fraction of N-dodecyl-N-methylpyrrolidinium salicylate	Electrical conductivity, S/m	uncertainty
298.15	0.00078	0.00892	0.00049
298.15	0.00086	0.00933	0.00052
298.15	0.00098	0.0105	0.00058
298.15	0.00106	0.01106	0.00061
298.15	0.00117	0.01151	0.00064
308.15	0.00078	0.01162	0.00064
308.15	0.00086	0.01259	0.00069
308.15	0.00098	0.01392	0.00077
308.15	0.00106	0.01506	0.00083
308.15	0.00117	0.01614	0.00089
318.15	0.00078	0.0144	0.00079
318.15	0.00086	0.01531	0.00084
318.15	0.00098	0.01712	0.00094
318.15	0.00106	0.01854	0.00102
318.15	0.00117	0.02	0.0011
318.15	0.00125	0.0215	0.00119
318.15	0.00137	0.0235	0.0013
328.15	0.00078	0.01724	0.00095
328.15	0.00086	0.01855	0.00102
328.15	0.00098	0.0212	0.00117
328.15	0.00106	0.0231	0.00128
328.15	0.00117	0.0254	0.0014
328.15	0.00125	0.0262	0.00145
328.15	0.00137	0.0293	0.00162

System: N-dodecyl-N-methylpiperidinium salicylate + water; phases: Liquid, Gas
Fixed: Temperature, K = 298.15
Property: Surface tension liquid-gas, N/m (Liquid); method: Ring tensiometer
Mass fraction of N-dodecyl-N-methylpiperidinium salicylate	Surface tension liquid-gas, N/m	uncertainty
0.00053	0.04115	0.00074
0.00061	0.0392	0.00069
0.00065	0.03854	0.00065
0.00073	0.03697	0.00061
0.00084	0.03537	0.00057

System: N-dodecyl-N-methylpiperidinium salicylate + water; phases: Liquid
Fixed: Pressure, kPa = 100
Property: Electrical conductivity, S/m (Liquid); method: Alternating current cell with electrodes
Temperature, K	Mass fraction of N-dodecyl-N-methylpiperidinium salicylate	Electrical conductivity, S/m	uncertainty
298.15	8e-05	0.00167	0.00087
298.15	0.0002	0.00321	0.00196
298.15	0.00041	0.00527	0.00227
298.15	0.00061	0.00787	0.00275
298.15	0.00081	0.01076	0.00289
308.15	8e-05	0.00198	0.00114
308.15	0.0002	0.00388	0.00283
308.15	0.00041	0.00694	0.00314
308.15	0.00061	0.01032	0.00343
308.15	0.00081	0.0138	0.00352
318.15	8e-05	0.00305	0.00138
318.15	0.0002	0.00483	0.00368
318.15	0.00041	0.00886	0.00377
318.15	0.00061	0.01256	0.00405
318.15	0.00081	0.01695	0.00412
328.15	8e-05	0.00449	0.0016
328.15	0.0002	0.00627	0.0046
328.15	0.00041	0.0111	0.00421
328.15	0.00061	0.0149	0.0041
328.15	0.00081	0.0193	0.00425
328.15	0.00101	0.0234	0.0038
328.15	0.00122	0.0271	0.00352
