Measured thermophysical data. Experimental isobaric vapour liquid liquid equilibrium data for the quaternary systems water (1) ethanol (2) acetone (3) n-butyl acetate (4) and water (1) ethanol (2) acetone (3) methyl ethyl ketone (4) and their partially miscible-constituent ternaries
Source: Fluid Phase Equilib., 2007, 10.1016/j.fluid.2006.11.011
Compound 1: water, H2O, InChI=1S/H2O/h1H2, purity 99.9%
Compound 2: acetone, C3H6O, InChI=1S/C3H6O/c1-3(2)4/h1-2H3
Compound 3: butyl ethanoate, C6H12O2, InChI=1S/C6H12O2/c1-3-4-5-8-6(2)7/h3-5H2,1-2H3
Compound 4: ethanol, C2H6O, InChI=1S/C2H6O/c1-2-3/h3H,2H2,1H3
Compound 5: butanone, C4H8O, InChI=1S/C4H8O/c1-3-4(2)5/h3H2,1-2H3

System: acetone + butyl ethanoate + water; phases: Liquid mixture 1, Liquid mixture 2, Gas
Property: Mole fraction of acetone (Liquid mixture 1); method: CHROM:UFactor:4
Property: Mole fraction of acetone (Liquid mixture 2); method: CHROM:UFactor:4
Property: Mole fraction of acetone (Gas); method: CHROM:UFactor:4
Property: Mole fraction of water (Liquid mixture 1); method: CHROM:UFactor:4
Property: Mole fraction of water (Liquid mixture 2); method: CHROM:UFactor:4
Property: Mole fraction of water (Gas); method: CHROM:UFactor:4
Temperature, K	Pressure, kPa	Mole fraction of acetone	uncertainty	Mole fraction of acetone	uncertainty	Mole fraction of acetone	uncertainty	Mole fraction of water	uncertainty	Mole fraction of water	uncertainty	Mole fraction of water	uncertainty
359.25	101.325	0.076717	0.004639	0.007899	0.000532	0.187855	0.010565	0.17271	0.006914	0.989848	0.000568	0.586389	0.017312
355.25	101.325	0.146307	0.006914	0.01647	0.000848	0.33639	0.015102	0.178325	0.007158	0.981901	0.000887	0.484404	0.019946
352.35	101.325	0.204152	0.009383	0.026584	0.001271	0.423172	0.017772	0.194	0.007835	0.971925	0.001321	0.423828	0.017329
350.15	101.325	0.265	0.011596	0.034217	0.001657	0.473672	0.019641	0.206	0.008337	0.964169	0.001722	0.393657	0.016071
346.95	101.325	0.332163	0.013846	0.051481	0.002351	0.562147	0.018203	0.228089	0.009345	0.94645	0.002443	0.337675	0.01387
344.45	101.325	0.375617	0.015429	0.066596	0.00303	0.614237	0.01596	0.264539	0.010977	0.930614	0.003167	0.304315	0.012446
342.65	101.325	0.407606	0.01658	0.082865	0.003886	0.649673	0.014358	0.290871	0.012193	0.913284	0.004089	0.282052	0.011418
341.15	101.325	0.425008	0.017085	0.100188	0.005225	0.665363	0.013648	0.325116	0.014905	0.894737	0.005532	0.275758	0.011098
340.25	101.325	0.427145	0.017234	0.124524	0.009677	0.682391	0.013957	0.381971	0.02323	0.868708	0.010594	0.266803	0.011249
339.55	101.325	0.405884	0.018647	0.167696	0.01285	0.712367	0.011949	0.467011	0.031774	0.819791	0.014605	0.24669	0.010043
339.25	101.325	0.377955	0.023984	0.177842	0.009816	0.692772	0.017935	0.512	0.035785	0.806572	0.011727	0.26164	0.014452
342.35	79.993	0.229343	0.009981	0.030442	0.001529	0.462508	0.018917	0.188081	0.007628	0.968039	0.001595	0.394905	0.015981
335.55	79.993	0.36304	0.015083	0.061901	0.002874	0.596839	0.016685	0.231019	0.009543	0.935585	0.002999	0.312577	0.012777
333.45	79.993	0.4202	0.01713	0.090978	0.004587	0.652366	0.014587	0.281137	0.01258	0.90501	0.004812	0.277442	0.011438
331.25	79.993	0.434508	0.017381	0.121943	0.005603	0.691741	0.012695	0.352114	0.016035	0.872097	0.005975	0.252986	0.010276
329.65	79.993	0.420436	0.033852	0.143305	0.037063	0.709069	0.018038	0.428237	0.062152	0.846238	0.041352	0.244047	0.013265
329.35	79.993	0.376367	0.033012	0.19823	0.037465	0.729742	0.017516	0.517855	0.062781	0.7849	0.041787	0.230575	0.012874
332.15	47.996	0.231078	0.010233	0.032839	0.001704	0.484393	0.019828	0.15928	0.006485	0.965278	0.00178	0.376866	0.015309
325.95	47.996	0.367221	0.015296	0.066476	0.002963	0.614857	0.015901	0.196839	0.008058	0.930763	0.003086	0.294216	0.012028
322.55	47.996	0.434977	0.017868	0.097072	0.004617	0.671674	0.013616	0.244945	0.010672	0.898334	0.00485	0.258865	0.010565
321.35	47.996	0.461238	0.018466	0.128453	0.006613	0.699205	0.012429	0.303129	0.014879	0.865237	0.007046	0.24582	0.00997
319.35	47.996	0.450838	0.018254	0.164669	0.0085	0.722934	0.011357	0.383906	0.01856	0.824823	0.0095	0.232328	0.009388
318.25	47.996	0.413513	0.017879	0.215494	0.012637	0.737892	0.010831	0.469738	0.024425	0.760715	0.015082	0.225192	0.009101

System: ethanol + butyl ethanoate + water; phases: Liquid mixture 1, Liquid mixture 2, Gas
Property: Mole fraction of ethanol (Liquid mixture 1); method: CHROM:UFactor:4
Property: Mole fraction of ethanol (Liquid mixture 2); method: CHROM:UFactor:4
Property: Mole fraction of ethanol (Gas); method: CHROM:UFactor:4
Property: Mole fraction of water (Liquid mixture 1); method: CHROM:UFactor:4
Property: Mole fraction of water (Liquid mixture 2); method: CHROM:UFactor:4
Property: Mole fraction of water (Gas); method: CHROM:UFactor:4
Temperature, K	Pressure, kPa	Mole fraction of ethanol	uncertainty	Mole fraction of ethanol	uncertainty	Mole fraction of ethanol	uncertainty	Mole fraction of water	uncertainty	Mole fraction of water	uncertainty	Mole fraction of water	uncertainty
361.35	101.325	0.058002	0.006134	0.020222	0.002801	0.138684	0.0093	0.188223	0.00836	0.978076	0.002291	0.618724	0.016374
359.25	101.325	0.117623	0.009111	0.048377	0.002979	0.217065	0.012027	0.226377	0.010857	0.955855	0.002842	0.556156	0.018583
358.15	101.325	0.188034	0.013602	0.055443	0.002759	0.273941	0.01511	0.28983	0.015257	0.942186	0.003432	0.532032	0.019224
357.65	101.325	0.205983	0.016389	0.062073	0.006695	0.300401	0.018884	0.303179	0.023862	0.935493	0.007236	0.521149	0.020985
357.25	101.325	0.253133	0.013674	0.084108	0.006833	0.340265	0.015897	0.385234	0.025206	0.910979	0.008032	0.492643	0.020243
356.65	101.325	0.255532	0.010493	0.093075	0.007333	0.344396	0.014808	0.408185	0.028108	0.89823	0.00832	0.495583	0.019933
356.35	101.325	0.264997	0.012757	0.115032	0.016759	0.367751	0.019044	0.499612	0.072256	0.876072	0.021662	0.480929	0.020396
356.25	101.325	0.265179	0.012167	0.121761	0.016691	0.373912	0.019407	0.532957	0.071237	0.867252	0.021227	0.481038	0.020446
355.95	101.325	0.232514	0.02368	0.149275	0.01929	0.387204	0.017844	0.650059	0.079313	0.825285	0.028838	0.471457	0.019911
354.15	79.993	0.068577	0.006208	0.021338	0.002059	0.14403	0.009433	0.204856	0.009373	0.976492	0.002117	0.610633	0.016318
350.45	79.993	0.171611	0.008789	0.056003	0.002882	0.282211	0.013095	0.289037	0.012194	0.941405	0.002992	0.520561	0.019606
349.25	79.993	0.202454	0.011304	0.065319	0.004264	0.30032	0.013743	0.294759	0.014313	0.931206	0.004548	0.516761	0.019662
348.65	79.993	0.24671	0.015373	0.08906	0.00667	0.347771	0.017645	0.37281	0.024232	0.905937	0.006971	0.4837	0.02046
348.25	79.993	0.260124	0.011223	0.092542	0.006501	0.352469	0.014811	0.387298	0.025997	0.902961	0.007332	0.485372	0.019524
347.55	79.993	0.270674	0.011239	0.117249	0.008475	0.371992	0.015891	0.48309	0.033503	0.8733	0.009874	0.473321	0.019243
347.35	79.993	0.231291	0.011254	0.159022	0.016085	0.39086	0.017811	0.660322	0.062175	0.8149	0.020923	0.466117	0.019129
344.25	47.996	0.069495	0.008395	0.022553	0.00264	0.142599	0.011145	0.152518	0.008039	0.976161	0.002856	0.605954	0.016901
341.35	47.996	0.184353	0.010065	0.058526	0.003212	0.281435	0.013943	0.228426	0.010645	0.937128	0.00339	0.517497	0.019946
340.15	47.996	0.204931	0.01069	0.06633	0.00385	0.304973	0.013472	0.265542	0.013896	0.931496	0.003912	0.507656	0.02
339.15	47.996	0.261119	0.013619	0.089808	0.005471	0.34499	0.015274	0.328028	0.018319	0.905717	0.005846	0.478457	0.019558
338.65	47.996	0.267359	0.011633	0.096561	0.007152	0.352265	0.015467	0.361773	0.027684	0.89886	0.008061	0.479681	0.019459
338.15	47.996	0.284007	0.013168	0.119905	0.010497	0.376885	0.018007	0.446032	0.038135	0.870854	0.012336	0.462251	0.019761
335.35	47.996	0.252797	0.010355	0.160401	0.007038	0.397765	0.01598	0.615606	0.019574	0.814171	0.008464	0.455903	0.018242

System: ethanol + butanone + water; phases: Liquid mixture 1, Liquid mixture 2, Gas
Fixed: Pressure, kPa = 101.325
Property: Mole fraction of ethanol (Liquid mixture 1); method: CHROM:UFactor:4
Property: Mole fraction of ethanol (Liquid mixture 2); method: CHROM:UFactor:4
Property: Mole fraction of ethanol (Gas); method: CHROM:UFactor:4
Property: Mole fraction of water (Liquid mixture 1); method: CHROM:UFactor:4
Property: Mole fraction of water (Liquid mixture 2); method: CHROM:UFactor:4
Property: Mole fraction of water (Gas); method: CHROM:UFactor:4
Temperature, K	Mole fraction of ethanol	uncertainty	Mole fraction of ethanol	uncertainty	Mole fraction of ethanol	uncertainty	Mole fraction of water	uncertainty	Mole fraction of water	uncertainty	Mole fraction of water	uncertainty
346.75	0	1e-06	0	1e-06	0	1e-06	0.434393	0.02175	0.95827	0.004378	0.360573	0.014504
346.35	0.012326	0.007285	0.004855	0.002996	0.012883	0.007734	0.460558	0.027902	0.950175	0.00645	0.363627	0.014622
345.95	0.029075	0.004304	0.011959	0.00213	0.030869	0.004806	0.518214	0.024493	0.933734	0.007444	0.366565	0.014674
345.25	0.036528	0.002955	0.016762	0.002199	0.039878	0.003997	0.548269	0.026225	0.911494	0.007814	0.361189	0.014475
344.75	0.044666	0.002466	0.024825	0.003763	0.053307	0.005032	0.636545	0.040821	0.891683	0.016196	0.361453	0.014458
344.35	0.043876	0.001799	0.033175	0.004381	0.06023	0.004217	0.720466	0.043425	0.839791	0.026726	0.361441	0.014458

System: acetone + butanone + water; phases: Liquid mixture 1, Liquid mixture 2, Gas
Fixed: Pressure, kPa = 101
Property: Mole fraction of acetone (Liquid mixture 1); method: CHROM:UFactor:4
Property: Mole fraction of acetone (Liquid mixture 2); method: CHROM:UFactor:4
Property: Mole fraction of acetone (Gas); method: CHROM:UFactor:4
Property: Mole fraction of water (Liquid mixture 1); method: CHROM:UFactor:4
Property: Mole fraction of water (Liquid mixture 2); method: CHROM:UFactor:4
Property: Mole fraction of water (Gas); method: CHROM:UFactor:4
Temperature, K	Mole fraction of acetone	uncertainty	Mole fraction of acetone	uncertainty	Mole fraction of acetone	uncertainty	Mole fraction of water	uncertainty	Mole fraction of water	uncertainty	Mole fraction of water	uncertainty
346.25	0.016218	0.006196	0.003342	0.001263	0.031461	0.011408	0.449572	0.017987	0.947326	0.002123	0.351917	0.014085
345.75	0.031623	0.006387	0.006483	0.001492	0.059806	0.012633	0.450588	0.018333	0.947969	0.002678	0.35069	0.014151
345.35	0.044409	0.008821	0.009995	0.002711	0.087488	0.019145	0.465239	0.022563	0.939372	0.005924	0.343269	0.014115
344.95	0.066183	0.009303	0.017208	0.003845	0.135097	0.022568	0.501619	0.027358	0.926348	0.007775	0.337611	0.015065
344.45	0.084825	0.006824	0.026994	0.003679	0.186358	0.018129	0.549476	0.024794	0.907089	0.007807	0.313767	0.013906
344.05	0.092528	0.004299	0.03296	0.003065	0.208699	0.012147	0.577842	0.021034	0.895611	0.007527	0.311342	0.012583
343.45	0.096173	0.004034	0.040881	0.003106	0.231062	0.011874	0.612592	0.019347	0.875907	0.008233	0.304932	0.012383
343.25	0.089035	0.003667	0.058917	0.006904	0.250028	0.01438	0.683954	0.029386	0.822824	0.019528	0.30407	0.012298
