Measured thermophysical data. Separation of pyridine from heptane with tricyanomethanide-based ionic liquids
Source: Fluid Phase Equilib., 2015, 10.1016/j.fluid.2015.03.027
Compound 1: 1-butyl-3-methylimidazolium tricyanomethane, C12H15N5, InChI=1S/C8H15N2.C4N3/c1-3-4-5-10-7-6-9(2)8-10;5-1-4(2-6)3-7/h6-8H,3-5H2,1-2H3;/q+1;-1, purity 98%
Compound 2: 4-butyl-4-methylmorpholinium tricyanomethanide, C13H20N4O, InChI=1S/C9H20NO.C4N3/c1-3-4-5-10(2)6-8-11-9-7-10;5-1-4(2-6)3-7/h3-9H2,1-2H3;/q+1;-1, purity 97%
Compound 3: 1-butyl-4-methylpyridinium tricyanomethanide, C14H16N4, InChI=1S/C10H16N.C4N3/c1-3-4-7-11-8-5-10(2)6-9-11;5-1-4(2-6)3-7/h5-6,8-9H,3-4,7H2,1-2H3;/q+1;-1, purity 98%
Compound 4: pyridine, C5H5N, InChI=1S/C5H5N/c1-2-4-6-5-3-1/h1-5H, purity 99.8%
Compound 5: heptane, C7H16, InChI=1S/C7H16/c1-3-5-7-6-4-2/h3-7H2,1-2H3, purity 99.5%
Compound 6: propan-1-ol, C3H8O, InChI=1S/C3H8O/c1-2-3-4/h4H,2-3H2,1H3, purity 99.9%
Compound 7: acetone, C3H6O, InChI=1S/C3H6O/c1-3(2)4/h1-2H3, purity 99.9%

System: 1-butyl-3-methylimidazolium tricyanomethane; phases: Liquid
Property: Mass density, kg/m3 (Liquid); method: Vibrating tube method
Temperature, K	Pressure, kPa	Mass density, kg/m3	uncertainty
298.15	101.325	1046.68	1.32

System: 1-butyl-4-methylpyridinium tricyanomethanide; phases: Liquid
Property: Mass density, kg/m3 (Liquid); method: Vibrating tube method
Temperature, K	Pressure, kPa	Mass density, kg/m3	uncertainty
298.15	101.325	1036.68	1.31

System: pyridine; phases: Liquid
Property: Mass density, kg/m3 (Liquid); method: Vibrating tube method
Temperature, K	Pressure, kPa	Mass density, kg/m3	uncertainty
298.15	101.325	982.85	1

System: pyridine; phases: Liquid
Property: Refractive index (Na D-line) (Liquid); method: Standard Abbe refractometry
Temperature, K	Pressure, kPa	Refractive index (Na D-line)	uncertainty
298.15	101.325	1.5094	0.00072

System: heptane; phases: Liquid
Property: Mass density, kg/m3 (Liquid); method: Vibrating tube method
Temperature, K	Pressure, kPa	Mass density, kg/m3	uncertainty
298.15	101.325	679.48	1.01

System: heptane; phases: Liquid
Property: Refractive index (Na D-line) (Liquid); method: Standard Abbe refractometry
Temperature, K	Pressure, kPa	Refractive index (Na D-line)	uncertainty
298.15	101.325	1.38519	0.00073

System: propan-1-ol; phases: Liquid
Property: Mass density, kg/m3 (Liquid); method: Vibrating tube method
Temperature, K	Pressure, kPa	Mass density, kg/m3	uncertainty
298.15	101.325	799.52	1.01

System: propan-1-ol; phases: Liquid
Property: Refractive index (Na D-line) (Liquid); method: Standard Abbe refractometry
Temperature, K	Pressure, kPa	Refractive index (Na D-line)	uncertainty
298.15	101.325	1.383745	0.000721

System: acetone; phases: Liquid
Property: Mass density, kg/m3 (Liquid); method: Vibrating tube method
Temperature, K	Pressure, kPa	Mass density, kg/m3	uncertainty
298.15	101.325	785.23	1.01

System: acetone; phases: Liquid
Property: Refractive index (Na D-line) (Liquid); method: Standard Abbe refractometry
Temperature, K	Pressure, kPa	Refractive index (Na D-line)	uncertainty
298.15	101.325	1.356	0.0007

System: pyridine + heptane + 1-butyl-3-methylimidazolium tricyanomethane; phases: Liquid mixture 1, Liquid mixture 2
Fixed: Temperature, K = 298.15
Fixed: Pressure, kPa = 101
Property: Mole fraction of 1-butyl-3-methylimidazolium tricyanomethane (Liquid mixture 1); method: Chromatography
Property: Mole fraction of pyridine (Liquid mixture 2); method: Chromatography
Property: Mole fraction of 1-butyl-3-methylimidazolium tricyanomethane (Liquid mixture 2); method: Chromatography
Mole fraction of pyridine	Mole fraction of 1-butyl-3-methylimidazolium tricyanomethane	uncertainty	Mole fraction of pyridine	uncertainty	Mole fraction of 1-butyl-3-methylimidazolium tricyanomethane	uncertainty
0.318	0		0.787	0.006	0.157	
0.197	0		0.699	0.011	0.26	
0.117	0.001	0.001	0.59	0.011	0.38	
0.087	0		0.503	0.012	0.47	
0.048	0		0.373	0.012	0.605	
0.016	0		0.182	0.012	0.798	
0	0		0		0.977	

System: pyridine + heptane + 4-butyl-4-methylmorpholinium tricyanomethanide; phases: Liquid mixture 1, Liquid mixture 2
Fixed: Temperature, K = 298.15
Fixed: Pressure, kPa = 101
Property: Mole fraction of 4-butyl-4-methylmorpholinium tricyanomethanide (Liquid mixture 1); method: Chromatography
Property: Mole fraction of pyridine (Liquid mixture 2); method: Chromatography
Property: Mole fraction of 4-butyl-4-methylmorpholinium tricyanomethanide (Liquid mixture 2); method: Chromatography
Mole fraction of pyridine	Mole fraction of 4-butyl-4-methylmorpholinium tricyanomethanide	uncertainty	Mole fraction of pyridine	uncertainty	Mole fraction of 4-butyl-4-methylmorpholinium tricyanomethanide	uncertainty
0.612	0.003	0.003	0.844	0.006	0.066	
0.078	0		0.424	0.012	0.561	
0.045	0		0.288	0.012	0.7	
0.01	0		0.096	0.012	0.889	
0	0		0		0.981	
0.51	0		0.838	0.008	0.099	
0.407	0		0.797	0.01	0.151	
0.371	0.002	0.002	0.787	0.009	0.166	
0.319	0.004	0.004	0.768	0.006	0.194	
0.2	0		0.662	0.011	0.312	
0.146	0.003	0.003	0.58	0.012	0.401	
0.115	0		0.527	0.012	0.451	
0.1	0		0.487	0.012	0.497	

System: pyridine + heptane + 1-butyl-4-methylpyridinium tricyanomethanide; phases: Liquid mixture 1, Liquid mixture 2
Fixed: Temperature, K = 298.15
Fixed: Pressure, kPa = 101
Property: Mole fraction of 1-butyl-4-methylpyridinium tricyanomethanide (Liquid mixture 1); method: Chromatography
Property: Mole fraction of pyridine (Liquid mixture 2); method: Chromatography
Property: Mole fraction of 1-butyl-4-methylpyridinium tricyanomethanide (Liquid mixture 2); method: Chromatography
Mole fraction of pyridine	Mole fraction of 1-butyl-4-methylpyridinium tricyanomethanide	uncertainty	Mole fraction of pyridine	uncertainty	Mole fraction of 1-butyl-4-methylpyridinium tricyanomethanide	uncertainty
0.584	0.001	0.001	0.852	0.006	0.091	
0.401	0.003	0.003	0.802	0.011	0.157	
0.202	0.01	0.01	0.681	0.011	0.287	
0.146	0		0.609	0.012	0.374	
0.057	0.004	0.004	0.396	0.012	0.589	
0.02	0		0.191	0.012	0.793	
0	0		0		0.987	
