Measured thermophysical data. Solubility of carbon dioxide in binary and ternary mixtures with ethanol and water
Source: Fluid Phase Equilib., 2006, 10.1016/j.fluid.2006.04.017
Compound 1: ethanol, C2H6O, InChI=1S/C2H6O/c1-2-3/h3H,2H2,1H3
Compound 2: carbon dioxide, CO2, InChI=1S/CO2/c2-1-3
Compound 3: water, H2O, InChI=1S/H2O/h1H2

System: ethanol + carbon dioxide; phases: Liquid, Gas
Property: Mole fraction of carbon dioxide (Liquid); method: pressure difference before and after dissolution
Temperature, K	Pressure, kPa	Mole fraction of carbon dioxide	uncertainty
288	123.211	0.00877	0.00035
288	223.422	0.01587	0.00063
288	314.006	0.02272	0.00091
288	433.57	0.03199	0.00128
298	93.118	0.00575	0.00023
298	125.44	0.00801	0.00032
298	195.355	0.01187	0.00047
298	223.422	0.0137	0.00055
298	308.737	0.01917	0.00077
298	324.24	0.02026	0.00081
298	419.182	0.02641	0.00106
298	430.631	0.02725	0.00109
298	538.441	0.03428	0.00137
308	113.281	0.00559	0.00022
308	189.984	0.00981	0.00039
308	278.441	0.01466	0.00059
308	384.934	0.02063	0.00083
308	465.183	0.02516	0.00101
323	85.518	0.00328	0.00013
323	132.128	0.00518	0.00021
323	211.769	0.00872	0.00035
323	289.891	0.01258	0.0005
323	370.242	0.01662	0.00066

System: carbon dioxide + water; phases: Liquid, Gas
Property: Mole fraction of carbon dioxide (Liquid); method: pressure difference before and after dissolution
Temperature, K	Pressure, kPa	Mole fraction of carbon dioxide	uncertainty
288	115.105	0.00093	4e-05
288	124.63	0.00101	4e-05
288	134.053	0.00112	5e-05
288	170.733	0.00143	6e-05
288	195.557	0.00159	6e-05
288	210.148	0.00164	7e-05
288	264.458	0.00215	9e-05
288	268.511	0.00212	8e-05
288	271.855	0.00213	9e-05
288	344.91	0.0027	0.00011
288	348.457	0.00273	0.00011
288	365.378	0.00297	0.00012
288	408.745	0.00325	0.00013
288	466.196	0.00365	0.00015
293	92.003	0.00063	3e-05
293	102.946	0.00071	3e-05
293	170.429	0.00115	5e-05
293	188.464	0.00133	5e-05
293	233.554	0.00157	6e-05
293	268.714	0.00182	7e-05
293	294.248	0.00202	8e-05
293	353.422	0.00242	0.0001
293	361.426	0.00249	0.0001
298	100.92	0.00059	2e-05
298	188.161	0.00107	4e-05
298	243.585	0.00149	6e-05
298	260.912	0.00155	6e-05
298	303.57	0.00185	7e-05
298	367.506	0.0022	9e-05
298	401.146	0.00244	0.0001
298	465.994	0.00284	0.00011
308	108.519	0.00052	2e-05
308	136.079	0.00064	3e-05
308	227.779	0.00108	4e-05
308	276.82	0.00132	5e-05
308	298.199	0.00142	6e-05
308	345.214	0.00163	7e-05
308	361.325	0.00171	7e-05
308	409.657	0.00194	8e-05
308	442.486	0.00208	8e-05
308	473.39	0.00226	9e-05
323	113.585	0.00038	2e-05
323	133.04	0.00045	2e-05
323	176.103	0.00059	2e-05
323	214.201	0.00073	3e-05
323	245.612	0.00083	3e-05
323	303.57	0.00103	4e-05
323	306.407	0.00105	4e-05
323	365.277	0.00128	5e-05

System: ethanol + water; phases: Liquid, Gas
Property: Vapor or sublimation pressure, kPa (Liquid); method: Closed cell (Static) method
Temperature, K	Mole fraction of ethanol	Vapor or sublimation pressure, kPa	uncertainty
288	0	1.7065	1.0666
288	0.1	2.5465	1.0666
288	0.25	3.0131	1.0666
288	0.5	3.9863	1.0666
288	0.75	4.053	1.0666
288	0.9	4.1863	1.0666
288	1	4.7063	1.0666
298	0	3.1597	1.0666
298	0.1	4.8396	1.0666
298	0.25	6.0795	1.0666
298	0.5	7.2661	1.0666
298	0.75	7.7194	1.0666
298	0.9	7.786	1.0666
298	1	7.9193	1.0666
308	0	5.6262	1.0666
308	0.1	9.3859	1.0666
308	0.25	11.2391	1.0666
308	0.5	12.559	1.0666
308	0.75	13.3456	1.0666
308	0.9	13.5989	1.0666
308	1	13.7322	1.0666
323	0	12.679	1.0666
323	0.1	21.5849	1.0666
323	0.25	25.8379	1.0666
323	0.5	28.4777	1.0666
323	0.75	28.8376	1.0666
323	0.9	28.971	1.0666
323	1	29.2243	1.0666

System: ethanol + carbon dioxide + water; phases: Liquid, Gas
Property: Mole fraction of carbon dioxide (Liquid); method: pressure difference before and after dissolution
Temperature, K	Pressure, kPa	Solvent: Mole fraction of ethanol	Mole fraction of carbon dioxide	uncertainty
308	86.633	0.25	0.0007	3e-05
298	96.157	0.75	0.00301	0.00012
323	98.387	0.25	0.00074	3e-05
288	101.832	0.25	0.00109	4e-05
308	102.946	0.9	0.00414	0.00017
288	107.405	0.9	0.00588	0.00024
288	109.127	0.75	0.00414	0.00017
298	110.039	0.5	0.00228	9e-05
288	110.343	0.5	0.00265	0.00011
288	117.132	0.9	0.00652	0.00026
298	118.753	0.9	0.00542	0.00022
298	121.894	0.25	0.0011	4e-05
308	123.819	0.1	0.00064	3e-05
323	124.427	0.9	0.00425	0.00017
323	126.859	0.5	0.00201	8e-05
298	127.467	0.1	0.00079	3e-05
323	128.581	0.75	0.00333	0.00013
308	134.762	0.75	0.00404	0.00016
308	135.674	0.5	0.00236	9e-05
288	136.383	0.1	0.00101	4e-05
298	138.511	0.1	0.00086	3e-05
323	140.436	0.1	0.0006	2e-05
288	141.551	0.1	0.00105	4e-05
288	158.27	0.25	0.00168	7e-05
308	166.173	0.25	0.00142	6e-05
323	174.684	0.25	0.00133	5e-05
298	175.9	0.75	0.00595	0.00024
323	181.372	0.75	0.0048	0.00019
288	185.019	0.75	0.00727	0.00029
288	185.729	0.25	0.00209	8e-05
298	188.464	0.9	0.00908	0.00036
323	190.187	0.9	0.00634	0.00025
298	190.795	0.5	0.00409	0.00016
288	191.504	0.9	0.01053	0.00042
308	192.72	0.9	0.00791	0.00032
288	197.685	0.9	0.01057	0.00042
298	200.218	0.25	0.00193	8e-05
308	200.624	0.1	0.00107	4e-05
323	201.333	0.5	0.00324	0.00013
288	209.337	0.5	0.00487	0.00019
298	210.452	0.25	0.00202	8e-05
288	215.924	0.1	0.00162	7e-05
298	217.038	0.1	0.00134	5e-05
308	219.47	0.5	0.00394	0.00016
288	220.179	0.1	0.00172	7e-05
308	221.699	0.75	0.00701	0.00028
298	222.003	0.1	0.00142	6e-05
323	228.083	0.1	0.00097	4e-05
308	247.74	0.9	0.01016	0.00041
298	249.766	0.75	0.00886	0.00035
323	251.691	0.9	0.00851	0.00034
308	251.894	0.25	0.0022	9e-05
298	253.414	0.9	0.01208	0.00048
298	253.718	0.25	0.00249	0.0001
288	256.048	0.9	0.01486	0.00059
288	258.48	0.75	0.01069	0.00043
323	258.48	0.25	0.00196	8e-05
288	264.154	0.25	0.00298	0.00012
298	266.485	0.5	0.00583	0.00023
308	266.687	0.1	0.00141	6e-05
288	267.093	0.5	0.00638	0.00026
323	269.626	0.75	0.00732	0.00029
288	271.754	0.25	0.00312	0.00012
298	272.564	0.1	0.00172	7e-05
288	273.071	0.1	0.00209	8e-05
323	274.084	0.5	0.00442	0.00018
323	277.732	0.1	0.00118	5e-05
298	282.089	0.1	0.00183	7e-05
288	282.697	0.1	0.00222	9e-05
298	292.019	0.25	0.0029	0.00012
308	295.261	0.75	0.00953	0.00038
323	311.574	0.9	0.0108	0.00043
323	314.108	0.25	0.00237	9e-05
298	318.768	0.75	0.01176	0.00047
288	319.478	0.9	0.01819	0.00073
298	320.795	0.9	0.01574	0.00063
288	322.517	0.9	0.01901	0.00076
308	325.659	0.9	0.01373	0.00055
308	328.293	0.5	0.00618	0.00025
308	329.509	0.1	0.00175	7e-05
288	329.914	0.75	0.01402	0.00056
308	334.373	0.25	0.00299	0.00012
323	336.703	0.5	0.00544	0.00022
298	342.478	0.1	0.00223	9e-05
298	342.681	0.1	0.00223	9e-05
288	343.593	0.1	0.00266	0.00011
288	346.228	0.25	0.00402	0.00016
323	347.545	0.75	0.00978	0.00039
323	348.862	0.1	0.00152	6e-05
298	349.166	0.25	0.00348	0.00014
298	353.523	0.5	0.00787	0.00031
288	353.624	0.1	0.00281	0.00011
288	354.435	0.5	0.00873	0.00035
323	377.132	0.25	0.00291	0.00012
308	378.652	0.75	0.012	0.00048
298	382.705	0.9	0.01897	0.00076
308	385.947	0.25	0.00345	0.00014
288	386.859	0.9	0.02223	0.00089
323	387.872	0.9	0.01402	0.00056
298	389.493	0.25	0.004	0.00016
308	390.304	0.9	0.01683	0.00067
288	396.789	0.25	0.00456	0.00018
288	398.714	0.75	0.0173	0.00069
308	400.943	0.5	0.0077	0.00031
298	403.375	0.75	0.0152	0.00061
288	406.212	0.1	0.00319	0.00013
308	407.934	0.1	0.00218	9e-05
288	408.644	0.9	0.02451	0.00098
288	412.291	0.1	0.00328	0.00013
298	412.393	0.1	0.00268	0.00011
298	416.04	0.1	0.00275	0.00011
323	418.878	0.75	0.01197	0.00048
298	422.525	0.5	0.00945	0.00038
298	424.248	0.25	0.00427	0.00017
288	427.794	0.25	0.00499	0.0002
323	430.733	0.5	0.00716	0.00029
323	431.037	0.1	0.00184	7e-05
323	444.209	0.25	0.00351	0.00014
308	454.139	0.75	0.01526	0.00061
288	461.231	0.5	0.01187	0.00047
298	471.567	0.25	0.00508	0.0002
308	484.131	0.5	0.00924	0.00037
288	491.629	0.25	0.00568	0.00023
288	604.809	0.25	0.00705	0.00028
