Measured thermophysical data. Plotting of phase (vapor-liquid) transition surface near the critical point out of data from isochoric experiment. Experimental procedure
Source: Fluid Phase Equilib., 2018, 10.1016/j.fluid.2018.01.022
Compound 1: pentane, C5H12, InChI=1S/C5H12/c1-3-5-4-2/h3-5H2,1-2H3, purity 99.9%
Compound 2: toluene, C7H8, InChI=1S/C7H8/c1-7-5-3-2-4-6-7/h2-6H,1H3, purity 99.9%
Compound 3: cyclohexane, C6H12, InChI=1S/C6H12/c1-2-4-6-5-3-1/h1-6H2, purity 99.9%
Compound 4: benzene, C6H6, InChI=1S/C6H6/c1-2-4-6-5-3-1/h1-6H, purity 99.9%

System: pentane + toluene; phases: Gas, Liquid
Property: Amount density, mol/m3 (Gas); method: Ampoule method
Temperature, K	Mole fraction of pentane	Amount density, mol/m3	uncertainty
500.6	0.7522	3252	130
561.3	0.2818	3020	121
519.3	0.6247	2272	92
568.6	0.2507	2362	95
496	0.7961	3149	126
556.1	0.3104	3364	135
568.8	0.1975	4007	160
490.7	0.8314	3796	152
492.7	0.7918	4329	173
544.9	0.2782	5014	201
468.2	0.8531	5311	212
519	0.6182	2131	85
547.6	0.3825	2955	118
525.6	0.5514	3468	139
525.1	0.5744	2483	102
540	0.3937	4211	168
492.2	0.6518	969	39
493.3	0.5445	5715	230
555.5	0.2728	4507	180
542.2	0.5964	5397	216
554.9	0.5001	3447	138
552.6	0.5829	4478	179
557	0.2257	2897	116
554.7	0.6576	3487	139
553.4	0.5844	3259	130
554.1	0.504	4353	174

System: cyclohexane + benzene; phases: Gas, Liquid
Property: Amount density, mol/m3 (Gas); method: Ampoule method
Temperature, K	Mole fraction of cyclohexane	Amount density, mol/m3	uncertainty
553.1	0.6728	3424	137
556.3	0.2663	3829	153
547.7	0.6561	2148	86
551.1	0.2815	2363	95
551.8	0.6223	4137	165

System: cyclohexane + toluene; phases: Gas, Liquid
Property: Amount density, mol/m3 (Gas); method: Ampoule method
Temperature, K	Mole fraction of cyclohexane	Amount density, mol/m3	uncertainty
566.4	0.6443	3248	130
580.7	0.2977	3338	134
562.9	0.7371	2600	104
579.8	0.3237	2593	105
567.4	0.598	3984	159
576	0.3626	3881	155
561.6	0.5758	1881	75
548.2	0.5648	5277	211
567.8	0.6127	3772	151
583.6	0.2264	3217	129
562.5	0.7783	2734	109
581.6	0.2758	3260	130
561.9	0.7108	2215	89
572.5	0.3473	4578	183
569.1	0.5967	3016	121
565.3	0.6733	3240	130
561.1	0.5721	1813	73
