Measured thermophysical data. Liquid-liquid equilibria of (water + butyric acid + diethyl succinate or diethyl glutarate or diethyl adipate) ternary systems
Source: Fluid Phase Equilib., 2011, 10.1016/j.fluid.2011.01.012
Compound 1: diethyl glutarate, C9H16O4, InChI=1S/C9H16O4/c1-3-12-8(10)6-5-7-9(11)13-4-2/h3-7H2,1-2H3, purity 98%
Compound 2: diethyl hexanedioate, C10H18O4, InChI=1S/C10H18O4/c1-3-13-9(11)7-5-6-8-10(12)14-4-2/h3-8H2,1-2H3, purity 99%
Compound 3: water, H2O, InChI=1S/H2O/h1H2, purity 99.9%
Compound 4: butanoic acid, C4H8O2, InChI=1S/C4H8O2/c1-2-3-4(5)6/h2-3H2,1H3,(H,5,6), purity 99%
Compound 5: diethyl butanedioate, C8H14O4, InChI=1S/C8H14O4/c1-3-11-7(9)5-6-8(10)12-4-2/h3-6H2,1-2H3, purity 99%

System: diethyl glutarate; phases: Liquid, Gas
Property: Normal boiling temperature, K (Liquid); method: Fischer Boiling Piont Apparatus
Normal boiling temperature, K	uncertainty
509.6	1

System: diethyl glutarate; phases: Liquid
Property: Refractive index (Na D-line) (Liquid); method: Standard Abbe refractometry
Temperature, K	Pressure, kPa	Refractive index (Na D-line)	uncertainty
293.15	101.325	1.42414	0.00052

System: diethyl glutarate; phases: Liquid
Property: Mass density, kg/m3 (Liquid); method: Vibrating tube method
Temperature, K	Pressure, kPa	Mass density, kg/m3	uncertainty
293.15	101.325	1022.04	0.92

System: diethyl hexanedioate; phases: Liquid, Gas
Property: Normal boiling temperature, K (Liquid); method: Fischer Boiling Piont Apparatus
Normal boiling temperature, K	uncertainty
518.3	1

System: diethyl hexanedioate; phases: Liquid
Property: Refractive index (Na D-line) (Liquid); method: Standard Abbe refractometry
Temperature, K	Pressure, kPa	Refractive index (Na D-line)	uncertainty
293.15	101.325	1.42725	0.00039

System: diethyl hexanedioate; phases: Liquid
Property: Mass density, kg/m3 (Liquid); method: Vibrating tube method
Temperature, K	Pressure, kPa	Mass density, kg/m3	uncertainty
293.15	101.325	1007.63	0.34

System: water; phases: Liquid, Gas
Property: Normal boiling temperature, K (Liquid); method: Fischer Boiling Piont Apparatus
Normal boiling temperature, K	uncertainty
373.2	1

System: water; phases: Liquid
Property: Refractive index (Na D-line) (Liquid); method: Standard Abbe refractometry
Temperature, K	Pressure, kPa	Refractive index (Na D-line)	uncertainty
293.15	101.325	1.3324	0.00033

System: water; phases: Liquid
Property: Mass density, kg/m3 (Liquid); method: Vibrating tube method
Temperature, K	Pressure, kPa	Mass density, kg/m3	uncertainty
293.15	101.325	999.9	0.24

System: butanoic acid; phases: Liquid, Gas
Property: Normal boiling temperature, K (Liquid); method: Fischer Boiling Piont Apparatus
Normal boiling temperature, K	uncertainty
436.7	1

System: butanoic acid; phases: Liquid
Property: Refractive index (Na D-line) (Liquid); method: Standard Abbe refractometry
Temperature, K	Pressure, kPa	Refractive index (Na D-line)	uncertainty
293.15	101.325	1.3975	0.00039

System: butanoic acid; phases: Liquid
Property: Mass density, kg/m3 (Liquid); method: Vibrating tube method
Temperature, K	Pressure, kPa	Mass density, kg/m3	uncertainty
293.15	101.325	952.8	0.32

System: diethyl butanedioate; phases: Liquid, Gas
Property: Normal boiling temperature, K (Liquid); method: Fischer Boiling Piont Apparatus
Normal boiling temperature, K	uncertainty
490.8	1

System: diethyl butanedioate; phases: Liquid
Property: Refractive index (Na D-line) (Liquid); method: Standard Abbe refractometry
Temperature, K	Pressure, kPa	Refractive index (Na D-line)	uncertainty
293.15	101.325	1.42014	0.00039

System: diethyl butanedioate; phases: Liquid
Property: Mass density, kg/m3 (Liquid); method: Vibrating tube method
Temperature, K	Pressure, kPa	Mass density, kg/m3	uncertainty
293.15	101.325	1040.22	0.36

System: butanoic acid + diethyl butanedioate + water; phases: Liquid mixture 1, Liquid mixture 2
Fixed: Temperature, K = 298.15
Fixed: Pressure, kPa = 101.325
Property: Mass fraction of butanoic acid (Liquid mixture 1); method: Titration method
Property: Mass fraction of water (Liquid mixture 2); method: Titration method
Property: Mass fraction of butanoic acid (Liquid mixture 2); method: Titration method
Mass fraction of water	Mass fraction of butanoic acid	uncertainty	Mass fraction of water	uncertainty	Mass fraction of butanoic acid	uncertainty
0.9021	0.0895	0.0036	0.056	0.0022	0.1723	
0.908	0.0833	0.0033	0.087	0.0035	0.2872	
0.9021	0.0895	0.0036	0.056	0.0022	0.1723	
0.8896	0.1015	0.0041	0.136	0.0054	0.3961	
0.8656	0.1251	0.005	0.209	0.0084	0.5489	
0.8564	0.1339	0.0054	0.234	0.0094	0.5684	

System: butanoic acid + diethyl butanedioate + water; phases: Liquid, Crystal
Fixed: Pressure, kPa = 101
Fixed: Temperature, K = 298.15
Property: Mass fraction of diethyl butanedioate (Liquid); method: Titration method
Mass fraction of water	Mass fraction of diethyl butanedioate	uncertainty
0.009	0.991	0.009
0.0095	0.9397	0.0468
0.0211	0.8771	0.0214
0.0439	0.7998	0.012
0.058	0.7368	0.0084
0.0835	0.6557	0.0057
0.1165	0.5102	0.0031
0.1735	0.3374	0.0015
0.2399	0.1904	0.0007
0.3018	0.115	0.0004
0.4424	0.0492	0.0002
0.5812	0.031	0.0001
0.703	0.0143	0.0001
0.7796	0.0116	0.0001
0.816	0.0118	0.0001
0.8823	0.009	0.0001
0.9378	0.0083	0.0001
0.9918	0.0082	0.0001

System: butanoic acid + diethyl glutarate + water; phases: Liquid mixture 1, Liquid mixture 2
Fixed: Temperature, K = 298.15
Fixed: Pressure, kPa = 101.325
Property: Mass fraction of butanoic acid (Liquid mixture 1); method: Titration method
Property: Mass fraction of water (Liquid mixture 2); method: Titration method
Property: Mass fraction of butanoic acid (Liquid mixture 2); method: Titration method
Mass fraction of water	Mass fraction of butanoic acid	uncertainty	Mass fraction of water	uncertainty	Mass fraction of butanoic acid	uncertainty
0.9779	0.0211	0.0008	0.033	0.001	0.0445	
0.9317	0.0665	0.0027	0.0799	0.0032	0.1725	
0.9056	0.0924	0.0037	0.0649	0.0026	0.3011	
0.8979	0.1	0.004	0.0923	0.0037	0.356	
0.8321	0.1622	0.0065	0.123	0.0049	0.4279	

System: butanoic acid + diethyl glutarate + water; phases: Liquid, Crystal
Fixed: Pressure, kPa = 101
Fixed: Temperature, K = 298.15
Property: Mass fraction of diethyl glutarate (Liquid); method: Titration method
Mass fraction of water	Mass fraction of diethyl glutarate	uncertainty
0.025	0.975	0.025
0.0406	0.9155	0.0325
0.065	0.7802	0.0106
0.0712	0.7357	0.0084
0.0774	0.6491	0.0055
0.0927	0.5426	0.0036
0.1005	0.4643	0.0026
0.1251	0.3763	0.0018
0.2154	0.206	0.0008
0.4303	0.0462	0.0002
0.607	0.019	0.0001
0.7082	0.0142	0.0001
0.7747	0.0081	0.0001
0.8357	0.0039	0.0001
0.8948	0.0023	0.0001
0.941	0.0013	0.0001
0.999	0.001	0.0001

System: butanoic acid + diethyl hexanedioate + water; phases: Liquid mixture 1, Liquid mixture 2
Fixed: Temperature, K = 298.15
Fixed: Pressure, kPa = 101.325
Property: Mass fraction of butanoic acid (Liquid mixture 1); method: Titration method
Property: Mass fraction of water (Liquid mixture 2); method: Titration method
Property: Mass fraction of butanoic acid (Liquid mixture 2); method: Titration method
Mass fraction of water	Mass fraction of butanoic acid	uncertainty	Mass fraction of water	uncertainty	Mass fraction of butanoic acid	uncertainty
0.9326	0.0658	0.0026	0.0342	0.0014	0.1442	
0.9226	0.0757	0.003	0.0821	0.0033	0.2778	
0.8937	0.1044	0.0042	0.0891	0.0036	0.3796	
0.8845	0.1134	0.0045	0.121	0.0048	0.4366	
0.8665	0.1302	0.0052	0.1513	0.0061	0.4903	

System: butanoic acid + diethyl hexanedioate + water; phases: Liquid, Crystal
Fixed: Pressure, kPa = 101
Fixed: Temperature, K = 298.15
Property: Mass fraction of diethyl hexanedioate (Liquid); method: Titration method
Mass fraction of water	Mass fraction of diethyl hexanedioate	uncertainty
0.0183	0.9817	0.0183
0.0183	0.9145	0.0321
0.03	0.8645	0.0191
0.0386	0.793	0.0115
0.0542	0.7435	0.0087
0.0756	0.658	0.0058
0.0881	0.5326	0.0034
0.1566	0.2973	0.0013
0.2176	0.1841	0.0007
0.4501	0.0352	0.0001
0.6979	0.021	0.0001
0.77	0.0063	0.0001
0.8216	0.0041	0.0001
0.8876	0.0021	0.0001
0.955	0.0011	0.0001
0.991	0.009	0.0001
