Measured thermophysical data. VLE measurements and modelling for the binary systems of (CF4 + C6F14) and (CF4 + C8F18)
Source: Fluid Phase Equilib., 2019, 10.1016/j.fluid.2018.12.005
Compound 1: carbon dioxide, CO2, InChI=1S/CO2/c2-1-3, purity 99.99%
Compound 2: tetrafluoromethane, CF4, InChI=1S/CF4/c2-1(3,4)5, purity 99.99%
Compound 3: hexane, C6H14, InChI=1S/C6H14/c1-3-5-6-4-2/h3-6H2,1-2H3, purity 99.8%
Compound 4: perfluorohexane, C6F14, InChI=1S/C6F14/c7-1(8,3(11,12)5(15,16)17)2(9,10)4(13,14)6(18,19)20, purity 97%
Compound 5: octadecafluorooctane, C8F18, InChI=1S/C8F18/c9-1(10,3(13,14)5(17,18)7(21,22)23)2(11,12)4(15,16)6(19,20)8(24,25)26, purity 99%

System: hexane; phases: Liquid
Property: Mass density, kg/m3 (Liquid); method: Vibrating tube method
Temperature, K	Pressure, kPa	Mass density, kg/m3	uncertainty
298.15	101.325	655	2

System: hexane; phases: Liquid
Property: Refractive index (Na D-line) (Liquid); method: Standard Abbe refractometry
Temperature, K	Pressure, kPa	Refractive index (Na D-line)	uncertainty
298.15	101.325	1.375	0.002

System: perfluorohexane; phases: Liquid
Property: Mass density, kg/m3 (Liquid); method: Vibrating tube method
Temperature, K	Pressure, kPa	Mass density, kg/m3	uncertainty
298.15	101.325	1701	7

System: perfluorohexane; phases: Liquid
Property: Refractive index (Na D-line) (Liquid); method: Standard Abbe refractometry
Temperature, K	Pressure, kPa	Refractive index (Na D-line)	uncertainty
298.15	101.325	1.251	0.002

System: perfluorohexane; phases: Liquid, Gas
Property: Vapor or sublimation pressure, kPa (Liquid); method: Closed cell (Static) method
Temperature, K	Vapor or sublimation pressure, kPa	uncertainty
283.14	14.6	0.2
293.14	23.5	0.3
303.12	36.2	0.3
313.13	54.1	0.4
323.13	78.8	0.5

System: perfluorohexane; phases: Liquid
Property: Mass density, kg/m3 (Liquid); method: Vibrating tube method
Temperature, K	Pressure, kPa	Mass density, kg/m3	uncertainty
298.15	101.325	1670	2

System: perfluorohexane; phases: Liquid
Property: Refractive index (Na D-line) (Liquid); method: Standard Abbe refractometry
Temperature, K	Pressure, kPa	Refractive index (Na D-line)	uncertainty
298.15	101.325	1.253	0.002

System: perfluorohexane; phases: Liquid, Gas
Property: Vapor or sublimation pressure, kPa (Liquid); method: Closed cell (Static) method
Temperature, K	Vapor or sublimation pressure, kPa	uncertainty
283.16	14.4	0.2
293.15	23.4	0.3
303.15	36.3	0.3
313.2	54.4	0.4
323.17	78.9	0.4

System: octadecafluorooctane; phases: Liquid
Property: Mass density, kg/m3 (Liquid); method: Vibrating tube method
Temperature, K	Pressure, kPa	Mass density, kg/m3	uncertainty
298.15	101.325	1755	2

System: octadecafluorooctane; phases: Liquid
Property: Refractive index (Na D-line) (Liquid); method: Standard Abbe refractometry
Temperature, K	Pressure, kPa	Refractive index (Na D-line)	uncertainty
298.15	101.325	1.268	0.002

System: octadecafluorooctane; phases: Liquid, Gas
Property: Vapor or sublimation pressure, kPa (Liquid); method: Closed cell (Static) method
Temperature, K	Vapor or sublimation pressure, kPa	uncertainty
283.15	1.51	0.2
293.15	2.72	0.2
303.15	4.72	0.2
313.15	7.86	0.21
323.16	12.6	0.21

System: carbon dioxide + hexane; phases: Gas, Liquid
Fixed: Temperature, K = 313.15
Property: Vapor or sublimation pressure, kPa (Gas); method: Closed cell (Static) method
Mole fraction of carbon dioxide	Vapor or sublimation pressure, kPa	uncertainty
0.094	925	91
0.31	2878	216
0.405	3704	211
0.551	4823	208
0.687	5762	168
0.801	6511	134
0.887	7150	116
0.948	7772	85

System: carbon dioxide + hexane; phases: Gas, Liquid
Fixed: Temperature, K = 313.15
Property: Mole fraction of carbon dioxide (Gas); method: Chromatography
Mole fraction of carbon dioxide	Mole fraction of carbon dioxide	uncertainty
0.094	0.952	0.006
0.31	0.979	0.003
0.405	0.98	0.002
0.551	0.982	0.002
0.687	0.978	0.002
0.801	0.981	0.002
0.887	0.981	0.002
0.948	0.982	0.002

System: carbon dioxide + hexane; phases: Liquid, Gas
Fixed: Temperature, K = 313.17
Property: Vapor or sublimation pressure, kPa (Liquid); method: Closed cell (Static) method
Mole fraction of carbon dioxide	Vapor or sublimation pressure, kPa	uncertainty
0.33	3000	140
0.571	5050	70
0.649	5570	60
0.72	5950	60
0.817	6630	70

System: tetrafluoromethane + perfluorohexane; phases: Liquid, Gas
Property: Vapor or sublimation pressure, kPa (Liquid); method: Closed cell (Static) method
Mole fraction of tetrafluoromethane	Temperature, K	Vapor or sublimation pressure, kPa	uncertainty
0.218	283.14	1535	11
0.293	283.15	2147	14
0.367	283.13	2792	17
0.425	283.15	3343	18
0.5	283.15	4062	20
0.557	283.15	4709	22
0.63	283.15	5544	24
0.76	283.15	7060	28
0.859	283.14	7804	28
0.255	293.16	2026	13
0.415	293.15	3666	19
0.556	293.14	5207	24
0.618	293.15	5994	26
0.701	293.16	6978	28
0.762	293.15	7774	29
0.85	293.15	8449	29
0.283	303.15	2535	16
0.388	303.15	3632	20
0.47	303.15	4635	22
0.56	303.15	5753	26
0.632	303.15	6726	28
0.716	303.15	7840	30
0.796	303.15	8605	30
0.823	303.16	8776	30

System: tetrafluoromethane + perfluorohexane; phases: Gas, Liquid
Property: Mole fraction of tetrafluoromethane (Gas); method: Chromatography
Mole fraction of tetrafluoromethane	Temperature, K	Mole fraction of tetrafluoromethane	uncertainty
0.218	283.14	0.977	0.003
0.293	283.15	0.987	0.003
0.367	283.13	0.988	0.002
0.425	283.15	0.98	0.003
0.5	283.15	0.98	0.002
0.557	283.15	0.976	0.004
0.63	283.15	0.971	0.004
0.76	283.15	0.97	0.005
0.859	283.14	0.933	0.01
0.255	293.16	0.979	0.002
0.415	293.15	0.983	0.002
0.556	293.14	0.98	0.002
0.618	293.15	0.976	0.005
0.701	293.16	0.968	0.005
0.762	293.15	0.955	0.009
0.85	293.15	0.915	0.012
0.283	303.15	0.973	0.004
0.388	303.15	0.976	0.004
0.47	303.15	0.974	0.004
0.56	303.15	0.97	0.004
0.632	303.15	0.965	0.005
0.716	303.15	0.95	0.009
0.796	303.15	0.918	0.013
0.823	303.16	0.901	0.016

System: tetrafluoromethane + perfluorohexane; phases: Liquid, Gas
Property: Vapor or sublimation pressure, kPa (Liquid); method: Closed cell (Static) method
Temperature, K	Mole fraction of tetrafluoromethane	Vapor or sublimation pressure, kPa	uncertainty
283.17	0.472	3910	90
283.17	0.617	5480	70
283.18	0.757	7120	60
293.15	0.472	4350	100
293.15	0.617	6050	80
293.16	0.757	7780	60
303.15	0.472	4750	100
303.15	0.617	6550	80
303.16	0.835	8850	50

System: tetrafluoromethane + perfluorohexane; phases: Liquid, Gas
Property: Vapor or sublimation pressure, kPa (Liquid); method: Closed cell (Static) method
Temperature, K	Mole fraction of tetrafluoromethane	Vapor or sublimation pressure, kPa	uncertainty
283.15	0.344	2680	90
283.17	0.624	5580	60
283.17	0.689	6380	60
293.16	0.344	2970	90
293.2	0.624	6190	60
293.14	0.689	7020	60
303.15	0.344	3260	100
303.17	0.624	6670	60
303.18	0.689	7590	60

System: tetrafluoromethane + octadecafluorooctane; phases: Liquid, Gas
Property: Vapor or sublimation pressure, kPa (Liquid); method: Closed cell (Static) method
Mole fraction of tetrafluoromethane	Temperature, K	Vapor or sublimation pressure, kPa	uncertainty
0.237	283.15	1617	202
0.32	283.15	2456	233
0.426	283.15	3453	299
0.588	283.15	5508	339
0.642	283.12	6279	367
0.71	283.15	7364	333
0.765	283.12	8129	282
0.827	283.15	9006	228
0.27	293.15	2244	233
0.367	293.16	3271	282
0.41	293.15	3753	308
0.504	293.15	4867	382
0.597	293.16	6303	406
0.701	293.15	7941	352
0.75	293.15	8767	330
0.786	293.16	9345	256
0.838	293.15	9999	151
0.216	303.15	1874	199
0.325	303.14	3079	260
0.412	303.15	3990	335
0.476	303.16	5044	437
0.537	303.15	5936	450
0.6	303.16	7032	428
0.666	303.16	8056	383
0.733	303.16	9151	367
0.788	303.16	10088	236
0.857	303.16	10780	145

System: tetrafluoromethane + octadecafluorooctane; phases: Gas, Liquid
Property: Mole fraction of tetrafluoromethane (Gas); method: Chromatography
Mole fraction of tetrafluoromethane	Temperature, K	Mole fraction of tetrafluoromethane	uncertainty
0.237	283.15	0.9977	0.0004
0.32	283.15	0.9976	0.0004
0.426	283.15	0.9977	0.0004
0.588	283.15	0.9959	0.0007
0.642	283.12	0.994	0.0014
0.71	283.15	0.9901	0.002
0.765	283.12	0.9853	0.0035
0.827	283.15	0.9727	0.0047
0.27	293.15	0.9964	0.0006
0.367	293.16	0.9958	0.0006
0.41	293.15	0.9956	0.0006
0.504	293.15	0.9953	0.0007
0.597	293.16	0.9928	0.0014
0.701	293.15	0.9875	0.0023
0.75	293.15	0.981	0.0041
0.786	293.16	0.973	0.0062
0.838	293.15	0.9561	0.0072
0.216	303.15	0.9941	0.0008
0.325	303.14	0.9941	0.0008
0.412	303.15	0.9935	0.0008
0.476	303.16	0.9926	0.0011
0.537	303.15	0.9914	0.0015
0.6	303.16	0.9885	0.002
0.666	303.16	0.9843	0.0028
0.733	303.16	0.9775	0.0046
0.788	303.16	0.9636	0.0077
0.857	303.16	0.9352	0.0097

System: tetrafluoromethane + octadecafluorooctane; phases: Liquid, Gas
Property: Vapor or sublimation pressure, kPa (Liquid); method: Closed cell (Static) method
Temperature, K	Mole fraction of tetrafluoromethane	Vapor or sublimation pressure, kPa	uncertainty
283.18	0.256	1890	140
283.16	0.503	4300	90
283.14	0.649	6390	90
283.17	0.85	9280	50
293.16	0.256	2110	160
293.14	0.503	4820	100
293.16	0.649	7030	100
293.19	0.85	10100	50
303.16	0.256	2310	170
303.15	0.503	5260	110
303.12	0.649	7660	100
303.14	0.85	10750	50
