Measured thermophysical data. Liquid liquid equilibria of methylcyclohexane benzene N-formylmorpholine at several temperatures
Source: Fluid Phase Equilib., 2007, 10.1016/j.fluid.2007.03.013
Compound 1: methylcyclohexane, C7H14, InChI=1S/C7H14/c1-7-5-3-2-4-6-7/h7H,2-6H2,1H3, purity 99.737%
Compound 2: benzene, C6H6, InChI=1S/C6H6/c1-2-4-6-5-3-1/h1-6H, purity 99.8562%
Compound 3: N-formylmorpholine, C5H9NO2, InChI=1S/C5H9NO2/c7-5-6-1-3-8-4-2-6/h5H,1-4H2, purity 99.5325%

System: methylcyclohexane; phases: Liquid
Property: Refractive index (Na D-line) (Liquid); method: Standard Abbe refractometry
Temperature, K	Pressure, kPa	Refractive index (Na D-line)	uncertainty
293.1	101.325	1.423	0.0007

System: benzene; phases: Liquid
Property: Refractive index (Na D-line) (Liquid); method: Standard Abbe refractometry
Temperature, K	Pressure, kPa	Refractive index (Na D-line)	uncertainty
293.1	101.325	1.3882	0.0007

System: N-formylmorpholine; phases: Liquid
Property: Refractive index (Na D-line) (Liquid); method: Standard Abbe refractometry
Temperature, K	Pressure, kPa	Refractive index (Na D-line)	uncertainty
293.1	101.325	1.484	0.0007

System: benzene + methylcyclohexane + N-formylmorpholine; phases: Liquid mixture 1, Liquid mixture 2
Fixed: Pressure, kPa = 101
Property: Mole fraction of benzene (Liquid mixture 1); method: Chromatography
Property: Mole fraction of methylcyclohexane (Liquid mixture 2); method: Chromatography
Property: Mole fraction of benzene (Liquid mixture 2); method: Chromatography
Temperature, K	Mole fraction of methylcyclohexane	Mole fraction of benzene	uncertainty	Mole fraction of methylcyclohexane	uncertainty	Mole fraction of benzene	uncertainty
293.15	0.8775	0.0681	0.0021	0.0757	0.0009	0.0161	
293.15	0.8103	0.1251	0.0025	0.0758	0.0009	0.0417	
293.15	0.7541	0.1684	0.0028	0.0781	0.001	0.0657	
293.15	0.7192	0.194	0.0028	0.0803	0.001	0.0815	
293.15	0.6662	0.2312	0.003	0.0845	0.001	0.1069	
293.15	0.6322	0.2538	0.0031	0.0879	0.0011	0.1239	
293.15	0.5747	0.2896	0.0031	0.0948	0.0011	0.1545	
293.15	0.5066	0.3272	0.0034	0.1056	0.0012	0.1933	
303.15	0.8608	0.0635	0.0014	0.0762	0.0009	0.0215	
303.15	0.7882	0.1196	0.0013	0.079	0.0009	0.0469	
303.15	0.7297	0.1629	0.002	0.0823	0.0009	0.0695	
303.15	0.6937	0.1886	0.0017	0.0847	0.0009	0.0845	
303.15	0.6607	0.2114	0.0021	0.0874	0.001	0.0989	
303.15	0.5799	0.2637	0.0021	0.0956	0.0011	0.1374	
303.15	0.5059	0.3058	0.0026	0.1062	0.0011	0.177	
313.15	0.855	0.0631	0.001	0.0731	0.0009	0.0214	
313.15	0.7822	0.1199	0.0012	0.0758	0.0009	0.0452	
313.15	0.7243	0.1635	0.0015	0.0787	0.001	0.0665	
313.15	0.6566	0.2121	0.0017	0.0833	0.001	0.0943	
313.15	0.6166	0.2393	0.0019	0.0867	0.001	0.1125	
313.15	0.5621	0.2741	0.0022	0.0926	0.001	0.1395	
313.15	0.5028	0.3082	0.0024	0.101	0.0011	0.1721	
313.15	0.468	0.3259	0.0026	0.1072	0.0011	0.1929	
323.15	0.8548	0.0638	0.001	0.0698	0.0009	0.0202	
323.15	0.782	0.1212	0.0012	0.0723	0.0009	0.0424	
323.15	0.7243	0.1651	0.0015	0.075	0.0009	0.0627	
323.15	0.6574	0.2138	0.0018	0.0794	0.0009	0.0894	
323.15	0.6179	0.2411	0.0019	0.0827	0.001	0.1072	
323.15	0.5642	0.2758	0.0022	0.0885	0.001	0.1342	
323.15	0.5059	0.3098	0.0024	0.097	0.001	0.1672	
323.15	0.4716	0.3276	0.0026	0.1035	0.0011	0.1886	
333.15	0.8554	0.0646	0.001	0.0673	0.0009	0.0189	
333.15	0.7823	0.1225	0.0013	0.0697	0.0009	0.04	
333.15	0.7246	0.1667	0.0015	0.0725	0.0009	0.0594	
333.15	0.6581	0.2153	0.0018	0.0769	0.0009	0.0857	
333.15	0.581	0.2672	0.0021	0.0847	0.0009	0.1224	
333.15	0.5389	0.293	0.0023	0.0907	0.001	0.1458	
333.15	0.4475	0.34	0.0027	0.1105	0.0011	0.2059	
