Measured thermophysical data. Volumetric and derivative properties under pressure for the system 1-propanol + toluene: A discussion of PC-SAFT and SAFT-VR
Source: Fluid Phase Equilib., 2006, 10.1016/j.fluid.2006.05.032
Compound 1: propan-1-ol, C3H8O, InChI=1S/C3H8O/c1-2-3-4/h4H,2-3H2,1H3
Compound 2: toluene, C7H8, InChI=1S/C7H8/c1-7-5-3-2-4-6-7/h2-6H,1H3

System: propan-1-ol; phases: Liquid
Property: Mass density, kg/m3 (Liquid); method: Vibrating tube method
Pressure, kPa	Temperature, K	Mass density, kg/m3	uncertainty
100	293.15	803.5	1
100	303.15	795.2	1
100	313.15	787.6	1
100	323.15	779.3	1
100	333.15	770.5	1
100	343.15	761	1
100	353.15	752.2	1
5000	293.15	807.3	1
5000	303.15	799.2	1
5000	313.15	791.9	1
5000	323.15	783.7	1
5000	333.15	775.4	1
5000	343.15	766	1
5000	353.15	757.6	1
10000	293.15	810.9	1
10000	303.15	802.9	1
10000	313.15	795.9	1
10000	323.15	788	1
10000	333.15	780	1
10000	343.15	770.7	1
10000	353.15	762.7	1
15000	293.15	814.3	1
15000	303.15	806.7	1
15000	313.15	799.7	1
15000	323.15	792	1
15000	333.15	784.3	1
15000	343.15	775.3	1
15000	353.15	767.6	1
20000	293.15	817.7	1
20000	303.15	810.1	1
20000	313.15	803.3	1
20000	323.15	795.8	1
20000	333.15	788.4	1
20000	343.15	779.6	1
20000	353.15	772.1	1
25000	293.15	821	1
25000	303.15	813.6	1
25000	313.15	806.8	1
25000	323.15	799.7	1
25000	333.15	792	1
25000	343.15	783.7	1.1
25000	353.15	776.3	1.1
30000	293.15	824	1
30000	303.15	816.7	1
30000	313.15	810.2	1
30000	323.15	803.2	1.1
30000	333.15	795.7	1.1
30000	343.15	787.6	1.1
30000	353.15	780.4	1.1
35000	293.15	827	1.1
35000	303.15	819.8	1.1
35000	313.15	813.5	1.1
35000	323.15	806.6	1.1
35000	333.15	799.2	1.1
35000	343.15	791.2	1.1
35000	353.15	784.1	1.1
40000	293.15	829.9	1.1
40000	303.15	822.9	1.1
40000	313.15	816.6	1.1
40000	323.15	809.9	1.1
40000	333.15	802.6	1.1
40000	343.15	794.7	1.1
40000	353.15	787.7	1.1
45000	293.15	832.7	1.1
45000	303.15	825.8	1.1
45000	313.15	819.7	1.1
45000	323.15	813	1.1
45000	333.15	805.9	1.1
45000	343.15	798.3	1.1
45000	353.15	791.8	1.1
50000	293.15	835.4	1.1
50000	303.15	828.8	1.1
50000	313.15	822.7	1.1
50000	323.15	816.1	1.1
50000	333.15	809.1	1.1
50000	343.15	801.6	1.1
50000	353.15	795.1	1.1
55000	293.15	838.1	1.1
55000	303.15	831.6	1.1
55000	313.15	825.5	1.1
55000	323.15	819	1.1
55000	333.15	812.3	1.1
55000	343.15	804.6	1.1
55000	353.15	798.5	1.1
60000	293.15	840.7	1.1
60000	303.15	834.2	1.1
60000	313.15	828.3	1.1
60000	323.15	821.8	1.1
60000	333.15	815.2	1.1
60000	343.15	807.7	1.1
60000	353.15	801.7	1.1
65000	293.15	843.2	1.1
65000	303.15	837	1.1
65000	313.15	831	1.1
65000	323.15	824.6	1.1
65000	333.15	818.1	1.1
65000	343.15	810.6	1.1
65000	353.15	805	1.1

System: toluene; phases: Liquid
Property: Mass density, kg/m3 (Liquid); method: Vibrating tube method
Pressure, kPa	Temperature, K	Mass density, kg/m3	uncertainty
100	293.15	867.1	1
100	303.15	857.5	1
100	313.15	847.8	1
100	323.15	838.4	1
100	333.15	828.8	1
100	343.15	819.4	1
100	353.15	809.7	1
5000	293.15	870.6	1
5000	303.15	861.4	1
5000	313.15	852	1
5000	323.15	842.7	1
5000	333.15	833.5	1
5000	343.15	824.5	1
5000	353.15	815.1	1
10000	293.15	874.2	1
10000	303.15	865.1	1
10000	313.15	856.1	1
10000	323.15	847	1
10000	333.15	838.2	1
10000	343.15	829.3	1
10000	353.15	820.3	1
15000	293.15	877.6	1
15000	303.15	869	1
15000	313.15	859.9	1
15000	323.15	851.1	1
15000	333.15	842.6	1
15000	343.15	833.9	1
15000	353.15	825.3	1
20000	293.15	881.1	1
20000	303.15	872.4	1
20000	313.15	863.5	1
20000	323.15	855	1
20000	333.15	846.6	1
20000	343.15	838.1	1
20000	353.15	829.9	1
25000	293.15	884.2	1
25000	303.15	875.8	1
25000	313.15	867.1	1
25000	323.15	858.9	1
25000	333.15	850.5	1
25000	343.15	842.3	1
25000	353.15	834	1
30000	293.15	887.3	1
30000	303.15	879	1
30000	313.15	870.5	1
30000	323.15	862.5	1
30000	333.15	854.3	1
30000	343.15	846.2	1
30000	353.15	838.2	1
35000	293.15	890.3	1
35000	303.15	882.1	1
35000	313.15	873.8	1
35000	323.15	866	1
35000	333.15	857.9	1
35000	343.15	850.1	1
35000	353.15	842.2	1
40000	293.15	893.3	1
40000	303.15	885.2	1
40000	313.15	877	1
40000	323.15	869.4	1
40000	333.15	861.4	1
40000	343.15	853.7	1
40000	353.15	846.1	1.1
45000	293.15	896.1	1
45000	303.15	888.2	1
45000	313.15	880.2	1
45000	323.15	872.5	1
45000	333.15	864.8	1
45000	343.15	857.4	1.1
45000	353.15	849.8	1.1
50000	293.15	898.9	1
50000	303.15	891.1	1
50000	313.15	883.3	1
50000	323.15	875.7	1
50000	333.15	868.1	1.1
50000	343.15	860.8	1.1
50000	353.15	853.3	1.1
55000	293.15	901.6	1
55000	303.15	894	1
55000	313.15	886.2	1
55000	323.15	878.7	1.1
55000	333.15	871.4	1.1
55000	343.15	864.2	1.1
55000	353.15	856.7	1.1
60000	293.15	904.2	1
60000	303.15	896.7	1
60000	313.15	889	1.1
60000	323.15	881.7	1.1
60000	333.15	874.5	1.1
60000	343.15	867.4	1.1
60000	353.15	860.1	1.1
65000	293.15	906.7	1
65000	303.15	899.2	1
65000	313.15	891.8	1.1
65000	323.15	884.6	1.1
65000	333.15	877.5	1.1
65000	343.15	870.3	1.1
65000	353.15	863.5	1.1

System: propan-1-ol + toluene; phases: Liquid
Property: Mass density, kg/m3 (Liquid); method: Vibrating tube method
Mole fraction of propan-1-ol	Pressure, kPa	Temperature, K	Mass density, kg/m3	uncertainty
0	100	293.15	867.1	1
0	100	303.15	857.5	1
0	100	313.15	847.8	1
0	100	323.15	838.4	1
0	100	333.15	828.8	1
0	100	343.15	819.4	1
0	100	353.15	809.7	1
0	5000	293.15	870.6	1
0	5000	303.15	861.4	1
0	5000	313.15	852	1
0	5000	323.15	842.7	1
0	5000	333.15	833.5	1
0	5000	343.15	824.5	1
0	5000	353.15	815.1	1
0	10000	293.15	874.2	1
0	10000	303.15	865.1	1
0	10000	313.15	856.1	1
0	10000	323.15	847	1
0	10000	333.15	838.2	1
0	10000	343.15	829.3	1
0	10000	353.15	820.3	1
0	15000	293.15	877.6	1
0	15000	303.15	869	1
0	15000	313.15	859.9	1
0	15000	323.15	851.1	1
0	15000	333.15	842.6	1
0	15000	343.15	833.9	1
0	15000	353.15	825.3	1
0	20000	293.15	881.1	1
0	20000	303.15	872.4	1
0	20000	313.15	863.5	1
0	20000	323.15	855	1
0	20000	333.15	846.6	1
0	20000	343.15	838.1	1
0	20000	353.15	829.9	1
0	25000	293.15	884.2	1
0	25000	303.15	875.8	1
0	25000	313.15	867.1	1
0	25000	323.15	858.9	1
0	25000	333.15	850.5	1
0	25000	343.15	842.3	1
0	25000	353.15	834	1
0	30000	293.15	887.3	1
0	30000	303.15	879	1
0	30000	313.15	870.5	1
0	30000	323.15	862.5	1
0	30000	333.15	854.3	1
0	30000	343.15	846.2	1
0	30000	353.15	838.2	1
0	35000	293.15	890.3	1
0	35000	303.15	882.1	1
0	35000	313.15	873.8	1
0	35000	323.15	866	1
0	35000	333.15	857.9	1
0	35000	343.15	850.1	1
0	35000	353.15	842.2	1
0	40000	293.15	893.3	1
0	40000	303.15	885.2	1
0	40000	313.15	877	1
0	40000	323.15	869.4	1
0	40000	333.15	861.4	1
0	40000	343.15	853.7	1
0	40000	353.15	846.1	1.1
0	45000	293.15	896.1	1
0	45000	303.15	888.2	1
0	45000	313.15	880.2	1
0	45000	323.15	872.5	1
0	45000	333.15	864.8	1
0	45000	343.15	857.4	1.1
0	45000	353.15	849.8	1.1
0	50000	293.15	898.9	1
0	50000	303.15	891.1	1
0	50000	313.15	883.3	1
0	50000	323.15	875.7	1
0	50000	333.15	868.1	1.1
0	50000	343.15	860.8	1.1
0	50000	353.15	853.3	1.1
0	55000	293.15	901.6	1
0	55000	303.15	894	1
0	55000	313.15	886.2	1
0	55000	323.15	878.7	1.1
0	55000	333.15	871.4	1.1
0	55000	343.15	864.2	1.1
0	55000	353.15	856.7	1.1
0	60000	293.15	904.2	1
0	60000	303.15	896.7	1
0	60000	313.15	889	1.1
0	60000	323.15	881.7	1.1
0	60000	333.15	874.5	1.1
0	60000	343.15	867.4	1.1
0	60000	353.15	860.1	1.1
0	65000	293.15	906.7	1
0	65000	303.15	899.2	1
0	65000	313.15	891.8	1.1
0	65000	323.15	884.6	1.1
0	65000	333.15	877.5	1.1
0	65000	343.15	870.3	1.1
0	65000	353.15	863.5	1.1
0.125	100	293.15	860.6	1
0.125	100	303.15	851.1	1
0.125	100	313.15	841.3	1
0.125	100	323.15	831.7	1
0.125	100	333.15	822	1
0.125	100	343.15	812.2	1
0.125	100	353.15	802.7	1
0.125	5000	293.15	864.1	1
0.125	5000	303.15	855	1
0.125	5000	313.15	845.5	1
0.125	5000	323.15	836.2	1
0.125	5000	333.15	826.8	1
0.125	5000	343.15	817.3	1
0.125	5000	353.15	808	1
0.125	10000	293.15	867.7	1
0.125	10000	303.15	858.8	1
0.125	10000	313.15	849.6	1
0.125	10000	323.15	840.5	1
0.125	10000	333.15	831.4	1
0.125	10000	343.15	822.3	1
0.125	10000	353.15	813.3	1
0.125	15000	293.15	871.2	1
0.125	15000	303.15	862.4	1
0.125	15000	313.15	853.6	1
0.125	15000	323.15	844.5	1
0.125	15000	333.15	835.7	1
0.125	15000	343.15	826.9	1
0.125	15000	353.15	818.2	1
0.125	20000	293.15	874.5	1
0.125	20000	303.15	866	1
0.125	20000	313.15	857.3	1
0.125	20000	323.15	848.5	1
0.125	20000	333.15	839.8	1
0.125	20000	343.15	831.3	1
0.125	20000	353.15	822.9	1
0.125	25000	293.15	877.8	1
0.125	25000	303.15	869.4	1
0.125	25000	313.15	860.9	1
0.125	25000	323.15	852.2	1
0.125	25000	333.15	843.8	1
0.125	25000	343.15	835.5	1
0.125	25000	353.15	827.3	1
0.125	30000	293.15	880.9	1
0.125	30000	303.15	872.6	1
0.125	30000	313.15	864.3	1
0.125	30000	323.15	855.9	1
0.125	30000	333.15	847.6	1
0.125	30000	343.15	839.5	1
0.125	30000	353.15	831.6	1
0.125	35000	293.15	883.9	1
0.125	35000	303.15	875.8	1
0.125	35000	313.15	867.6	1
0.125	35000	323.15	859.3	1
0.125	35000	333.15	851.3	1
0.125	35000	343.15	843.2	1
0.125	35000	353.15	835.6	1
0.125	40000	293.15	886.9	1
0.125	40000	303.15	878.9	1
0.125	40000	313.15	870.8	1
0.125	40000	323.15	862.8	1
0.125	40000	333.15	854.8	1
0.125	40000	343.15	847	1.1
0.125	40000	353.15	839.4	1.1
0.125	45000	293.15	889.7	1
0.125	45000	303.15	881.8	1
0.125	45000	313.15	874	1
0.125	45000	323.15	865.9	1
0.125	45000	333.15	858.2	1.1
0.125	45000	343.15	850.4	1.1
0.125	45000	353.15	843.2	1.1
0.125	50000	293.15	892.5	1
0.125	50000	303.15	884.8	1
0.125	50000	313.15	876.9	1
0.125	50000	323.15	869.2	1.1
0.125	50000	333.15	861.5	1.1
0.125	50000	343.15	853.9	1.1
0.125	50000	353.15	846.8	1.1
0.125	55000	293.15	895.2	1
0.125	55000	303.15	887.6	1
0.125	55000	313.15	879.9	1.1
0.125	55000	323.15	872.2	1.1
0.125	55000	333.15	864.6	1.1
0.125	55000	343.15	857.1	1.1
0.125	55000	353.15	850.2	1.1
0.125	60000	293.15	897.9	1
0.125	60000	303.15	890.3	1.1
0.125	60000	313.15	882.7	1.1
0.125	60000	323.15	875.1	1.1
0.125	60000	333.15	867.8	1.1
0.125	60000	343.15	860.5	1.1
0.125	60000	353.15	853.6	1.1
0.125	65000	293.15	900.5	1
0.125	65000	303.15	893	1.1
0.125	65000	313.15	885.5	1.1
0.125	65000	323.15	878.1	1.1
0.125	65000	333.15	870.7	1.1
0.125	65000	343.15	863.6	1.1
0.125	65000	353.15	856.8	1.1
0.25	100	293.15	854.5	1
0.25	100	303.15	845	1
0.25	100	313.15	835.1	1
0.25	100	323.15	825.5	1
0.25	100	333.15	815.6	1
0.25	100	343.15	805.5	1
0.25	100	353.15	795.9	1
0.25	5000	293.15	858.2	1
0.25	5000	303.15	848.9	1
0.25	5000	313.15	839.3	1
0.25	5000	323.15	829.9	1
0.25	5000	333.15	820.5	1
0.25	5000	343.15	810.8	1
0.25	5000	353.15	801.4	1
0.25	10000	293.15	861.7	1
0.25	10000	303.15	852.7	1
0.25	10000	313.15	843.4	1
0.25	10000	323.15	834.3	1
0.25	10000	333.15	825	1
0.25	10000	343.15	815.8	1
0.25	10000	353.15	806.7	1
0.25	15000	293.15	865.2	1
0.25	15000	303.15	856.4	1
0.25	15000	313.15	847.4	1
0.25	15000	323.15	838.4	1
0.25	15000	333.15	829.4	1
0.25	15000	343.15	820.4	1
0.25	15000	353.15	811.6	1
0.25	20000	293.15	868.5	1
0.25	20000	303.15	859.9	1
0.25	20000	313.15	851.1	1
0.25	20000	323.15	842.3	1
0.25	20000	333.15	833.6	1
0.25	20000	343.15	824.9	1
0.25	20000	353.15	816.3	1
0.25	25000	293.15	871.7	1
0.25	25000	303.15	863.3	1
0.25	25000	313.15	854.7	1
0.25	25000	323.15	846.1	1
0.25	25000	333.15	837.6	1
0.25	25000	343.15	829.1	1
0.25	25000	353.15	820.8	1
0.25	30000	293.15	874.9	1
0.25	30000	303.15	866.6	1
0.25	30000	313.15	858.1	1
0.25	30000	323.15	849.7	1
0.25	30000	333.15	841.4	1
0.25	30000	343.15	833.1	1
0.25	30000	353.15	825	1
0.25	35000	293.15	877.9	1
0.25	35000	303.15	869.8	1
0.25	35000	313.15	861.5	1
0.25	35000	323.15	853.3	1
0.25	35000	333.15	845	1
0.25	35000	343.15	837	1
0.25	35000	353.15	829.1	1.1
0.25	40000	293.15	880.9	1
0.25	40000	303.15	872.8	1
0.25	40000	313.15	864.7	1
0.25	40000	323.15	856.5	1
0.25	40000	333.15	848.6	1.1
0.25	40000	343.15	840.6	1.1
0.25	40000	353.15	833	1.1
0.25	45000	293.15	883.7	1
0.25	45000	303.15	875.6	1
0.25	45000	313.15	867.8	1
0.25	45000	323.15	859.8	1.1
0.25	45000	333.15	852	1.1
0.25	45000	343.15	844.3	1.1
0.25	45000	353.15	836.7	1.1
0.25	50000	293.15	886.5	1
0.25	50000	303.15	878.5	1
0.25	50000	313.15	870.8	1.1
0.25	50000	323.15	863	1.1
0.25	50000	333.15	855.2	1.1
0.25	50000	343.15	847.7	1.1
0.25	50000	353.15	840.3	1.1
0.25	55000	293.15	889.2	1
0.25	55000	303.15	881.4	1.1
0.25	55000	313.15	873.8	1.1
0.25	55000	323.15	866	1.1
0.25	55000	333.15	858.4	1.1
0.25	55000	343.15	851	1.1
0.25	55000	353.15	843.8	1.1
0.25	60000	293.15	891.8	1
0.25	60000	303.15	884.1	1.1
0.25	60000	313.15	876.6	1.1
0.25	60000	323.15	869	1.1
0.25	60000	333.15	861.4	1.1
0.25	60000	343.15	854.3	1.1
0.25	60000	353.15	847.2	1.1
0.25	65000	293.15	894.4	1.1
0.25	65000	303.15	886.7	1.1
0.25	65000	313.15	879.3	1.1
0.25	65000	323.15	871.9	1.1
0.25	65000	333.15	864.5	1.1
0.25	65000	343.15	857.4	1.1
0.25	65000	353.15	850.4	1.1
0.375	100	293.15	848.1	1
0.375	100	303.15	838.6	1
0.375	100	313.15	829	1
0.375	100	323.15	819.3	1
0.375	100	333.15	809.5	1
0.375	100	343.15	799.4	1
0.375	100	353.15	789.9	1
0.375	5000	293.15	851.7	1
0.375	5000	303.15	842.4	1
0.375	5000	313.15	833.1	1
0.375	5000	323.15	823.8	1
0.375	5000	333.15	814.3	1
0.375	5000	343.15	804.6	1
0.375	5000	353.15	795.3	1
0.375	10000	293.15	855.1	1
0.375	10000	303.15	846.2	1
0.375	10000	313.15	837.2	1
0.375	10000	323.15	828	1
0.375	10000	333.15	818.9	1
0.375	10000	343.15	809.6	1
0.375	10000	353.15	800.6	1
0.375	15000	293.15	858.6	1
0.375	15000	303.15	849.9	1
0.375	15000	313.15	841.2	1
0.375	15000	323.15	832.2	1
0.375	15000	333.15	823.3	1
0.375	15000	343.15	814.3	1
0.375	15000	353.15	805.5	1
0.375	20000	293.15	861.9	1
0.375	20000	303.15	853.4	1
0.375	20000	313.15	844.9	1
0.375	20000	323.15	836.1	1
0.375	20000	333.15	827.4	1
0.375	20000	343.15	818.7	1
0.375	20000	353.15	810.2	1
0.375	25000	293.15	865.1	1
0.375	25000	303.15	856.8	1
0.375	25000	313.15	848.5	1
0.375	25000	323.15	839.9	1
0.375	25000	333.15	831.4	1
0.375	25000	343.15	822.9	1
0.375	25000	353.15	814.7	1
0.375	30000	293.15	868.3	1
0.375	30000	303.15	860.1	1
0.375	30000	313.15	851.9	1
0.375	30000	323.15	843.5	1
0.375	30000	333.15	835.2	1
0.375	30000	343.15	827	1
0.375	30000	353.15	818.9	1
0.375	35000	293.15	871.3	1
0.375	35000	303.15	863.3	1
0.375	35000	313.15	855.3	1
0.375	35000	323.15	847.1	1
0.375	35000	333.15	838.9	1
0.375	35000	343.15	830.7	1.1
0.375	35000	353.15	822.9	1.1
0.375	40000	293.15	874.2	1
0.375	40000	303.15	866.4	1
0.375	40000	313.15	858.4	1
0.375	40000	323.15	850.3	1
0.375	40000	333.15	842.4	1.1
0.375	40000	343.15	834.4	1.1
0.375	40000	353.15	826.8	1.1
0.375	45000	293.15	877.1	1
0.375	45000	303.15	869.3	1
0.375	45000	313.15	861.6	1.1
0.375	45000	323.15	853.6	1.1
0.375	45000	333.15	845.8	1.1
0.375	45000	343.15	838	1.1
0.375	45000	353.15	830.6	1.1
0.375	50000	293.15	879.9	1
0.375	50000	303.15	872.2	1.1
0.375	50000	313.15	864.5	1.1
0.375	50000	323.15	856.8	1.1
0.375	50000	333.15	849	1.1
0.375	50000	343.15	841.4	1.1
0.375	50000	353.15	834.2	1.1
0.375	55000	293.15	882.6	1
0.375	55000	303.15	875.1	1.1
0.375	55000	313.15	867.5	1.1
0.375	55000	323.15	859.8	1.1
0.375	55000	333.15	852.2	1.1
0.375	55000	343.15	844.8	1.1
0.375	55000	353.15	837.6	1.1
0.375	60000	293.15	885.2	1.1
0.375	60000	303.15	877.8	1.1
0.375	60000	313.15	870.4	1.1
0.375	60000	323.15	862.7	1.1
0.375	60000	333.15	855.3	1.1
0.375	60000	343.15	848	1.1
0.375	60000	353.15	840.9	1.1
0.375	65000	293.15	887.7	1.1
0.375	65000	303.15	880.4	1.1
0.375	65000	313.15	873.1	1.1
0.375	65000	323.15	865.6	1.1
0.375	65000	333.15	858.3	1.1
0.375	65000	343.15	851.1	1.1
0.375	65000	353.15	844.2	1.1
0.5	100	293.15	841.2	1
0.5	100	303.15	832	1
0.5	100	313.15	822.4	1
0.5	100	323.15	812.9	1
0.5	100	333.15	803.2	1
0.5	100	343.15	793.3	1
0.5	100	353.15	783.8	1
0.5	5000	293.15	844.7	1
0.5	5000	303.15	835.9	1
0.5	5000	313.15	826.6	1
0.5	5000	323.15	817.3	1
0.5	5000	333.15	808	1
0.5	5000	343.15	798.4	1
0.5	5000	353.15	789.2	1
0.5	10000	293.15	848.4	1
0.5	10000	303.15	839.8	1
0.5	10000	313.15	830.7	1
0.5	10000	323.15	821.6	1
0.5	10000	333.15	812.6	1
0.5	10000	343.15	803.4	1
0.5	10000	353.15	794.6	1
0.5	15000	293.15	851.8	1
0.5	15000	303.15	843.4	1
0.5	15000	313.15	834.7	1
0.5	15000	323.15	825.8	1
0.5	15000	333.15	817	1
0.5	15000	343.15	808.1	1
0.5	15000	353.15	799.5	1
0.5	20000	293.15	855.1	1
0.5	20000	303.15	846.9	1
0.5	20000	313.15	838.4	1
0.5	20000	323.15	829.7	1
0.5	20000	333.15	821.1	1
0.5	20000	343.15	812.4	1
0.5	20000	353.15	804.2	1
0.5	25000	293.15	858.3	1
0.5	25000	303.15	850.4	1
0.5	25000	313.15	841.9	1
0.5	25000	323.15	833.5	1
0.5	25000	333.15	825	1
0.5	25000	343.15	816.6	1
0.5	25000	353.15	808.7	1
0.5	30000	293.15	861.5	1
0.5	30000	303.15	853.5	1
0.5	30000	313.15	845.4	1
0.5	30000	323.15	837.1	1
0.5	30000	333.15	828.8	1
0.5	30000	343.15	820.7	1
0.5	30000	353.15	813	1.1
0.5	35000	293.15	864.5	1
0.5	35000	303.15	856.7	1
0.5	35000	313.15	848.7	1
0.5	35000	323.15	840.6	1
0.5	35000	333.15	832.5	1.1
0.5	35000	343.15	824.5	1.1
0.5	35000	353.15	817	1.1
0.5	40000	293.15	867.4	1
0.5	40000	303.15	859.7	1
0.5	40000	313.15	851.9	1
0.5	40000	323.15	843.9	1.1
0.5	40000	333.15	836	1.1
0.5	40000	343.15	828.2	1.1
0.5	40000	353.15	820.8	1.1
0.5	45000	293.15	870.3	1
0.5	45000	303.15	862.6	1
0.5	45000	313.15	855	1.1
0.5	45000	323.15	847.1	1.1
0.5	45000	333.15	839.4	1.1
0.5	45000	343.15	831.8	1.1
0.5	45000	353.15	824.6	1.1
0.5	50000	293.15	873.1	1
0.5	50000	303.15	865.5	1.1
0.5	50000	313.15	857.9	1.1
0.5	50000	323.15	850.3	1.1
0.5	50000	333.15	842.7	1.1
0.5	50000	343.15	835.2	1.1
0.5	50000	353.15	828.1	1.1
0.5	55000	293.15	875.7	1.1
0.5	55000	303.15	868.6	1.1
0.5	55000	313.15	860.9	1.1
0.5	55000	323.15	853.3	1.1
0.5	55000	333.15	845.8	1.1
0.5	55000	343.15	838.5	1.1
0.5	55000	353.15	831.6	1.1
0.5	60000	293.15	878.3	1.1
0.5	60000	303.15	871.1	1.1
0.5	60000	313.15	863.7	1.1
0.5	60000	323.15	856.2	1.1
0.5	60000	333.15	848.9	1.1
0.5	60000	343.15	841.8	1.1
0.5	60000	353.15	835	1.1
0.5	65000	293.15	880.9	1.1
0.5	65000	303.15	873.7	1.1
0.5	65000	313.15	866.5	1.1
0.5	65000	323.15	859.1	1.1
0.5	65000	333.15	851.9	1.1
0.5	65000	343.15	844.9	1.1
0.5	65000	353.15	838.3	1.1
0.625	100	293.15	833.5	1
0.625	100	303.15	824.4	1
0.625	100	313.15	815.2	1
0.625	100	323.15	805.9	1
0.625	100	333.15	796.3	1
0.625	100	343.15	786.5	1
0.625	100	353.15	777	1
0.625	5000	293.15	837	1
0.625	5000	303.15	828.3	1
0.625	5000	313.15	819.3	1
0.625	5000	323.15	810.3	1
0.625	5000	333.15	801.1	1
0.625	5000	343.15	791.7	1
0.625	5000	353.15	782.3	1
0.625	10000	293.15	840.6	1
0.625	10000	303.15	832.2	1
0.625	10000	313.15	823.4	1
0.625	10000	323.15	814.5	1
0.625	10000	333.15	805.8	1
0.625	10000	343.15	796.6	1
0.625	10000	353.15	787.7	1
0.625	15000	293.15	844.1	1
0.625	15000	303.15	835.8	1
0.625	15000	313.15	827.5	1
0.625	15000	323.15	818.7	1
0.625	15000	333.15	810.1	1
0.625	15000	343.15	801.3	1
0.625	15000	353.15	792.6	1
0.625	20000	293.15	847.4	1
0.625	20000	303.15	839.4	1
0.625	20000	313.15	831.2	1
0.625	20000	323.15	822.6	1
0.625	20000	333.15	814.2	1
0.625	20000	343.15	805.7	1
0.625	20000	353.15	797.3	1
0.625	25000	293.15	850.6	1
0.625	25000	303.15	842.8	1
0.625	25000	313.15	834.7	1
0.625	25000	323.15	826.3	1
0.625	25000	333.15	818.2	1
0.625	25000	343.15	809.8	1
0.625	25000	353.15	801.7	1
0.625	30000	293.15	853.7	1
0.625	30000	303.15	846	1
0.625	30000	313.15	838.1	1
0.625	30000	323.15	829.9	1
0.625	30000	333.15	821.9	1
0.625	30000	343.15	813.9	1
0.625	30000	353.15	805.9	1.1
0.625	35000	293.15	856.7	1
0.625	35000	303.15	849.2	1
0.625	35000	313.15	841.4	1
0.625	35000	323.15	833.4	1
0.625	35000	333.15	825.6	1.1
0.625	35000	343.15	817.6	1.1
0.625	35000	353.15	809.9	1.1
0.625	40000	293.15	859.7	1
0.625	40000	303.15	852.3	1
0.625	40000	313.15	844.6	1.1
0.625	40000	323.15	836.7	1.1
0.625	40000	333.15	829.1	1.1
0.625	40000	343.15	821.4	1.1
0.625	40000	353.15	813.7	1.1
0.625	45000	293.15	862.6	1
0.625	45000	303.15	855.1	1.1
0.625	45000	313.15	847.7	1.1
0.625	45000	323.15	840	1.1
0.625	45000	333.15	832.4	1.1
0.625	45000	343.15	824.9	1.1
0.625	45000	353.15	817.4	1.1
0.625	50000	293.15	865.3	1.1
0.625	50000	303.15	858	1.1
0.625	50000	313.15	850.6	1.1
0.625	50000	323.15	843.1	1.1
0.625	50000	333.15	835.6	1.1
0.625	50000	343.15	828.2	1.1
0.625	50000	353.15	820.9	1.1
0.625	55000	293.15	868	1.1
0.625	55000	303.15	860.9	1.1
0.625	55000	313.15	853.5	1.1
0.625	55000	323.15	846.1	1.1
0.625	55000	333.15	838.8	1.1
0.625	55000	343.15	831.5	1.1
0.625	55000	353.15	824.4	1.1
0.625	60000	293.15	870.6	1.1
0.625	60000	303.15	863.6	1.1
0.625	60000	313.15	856.3	1.1
0.625	60000	323.15	848.9	1.1
0.625	60000	333.15	841.8	1.1
0.625	60000	343.15	834.8	1.1
0.625	60000	353.15	827.7	1.1
0.625	65000	293.15	873.1	1.1
0.625	65000	303.15	866.1	1.1
0.625	65000	313.15	859.1	1.1
0.625	65000	323.15	851.8	1.1
0.625	65000	333.15	844.8	1.1
0.625	65000	343.15	837.8	1.1
0.625	65000	353.15	830.9	1.1
0.75	100	293.15	825.1	1
0.75	100	303.15	816.1	1
0.75	100	313.15	807.3	1
0.75	100	323.15	798.2	1
0.75	100	333.15	788.7	1
0.75	100	343.15	779.1	1
0.75	100	353.15	769	1
0.75	5000	293.15	828.7	1
0.75	5000	303.15	820.1	1
0.75	5000	313.15	811.5	1
0.75	5000	323.15	802.6	1
0.75	5000	333.15	793.4	1
0.75	5000	343.15	784.2	1
0.75	5000	353.15	774.4	1
0.75	10000	293.15	832.3	1
0.75	10000	303.15	824	1
0.75	10000	313.15	815.5	1
0.75	10000	323.15	806.9	1
0.75	10000	333.15	798.1	1
0.75	10000	343.15	789.1	1
0.75	10000	353.15	779.6	1
0.75	15000	293.15	835.8	1
0.75	15000	303.15	827.8	1
0.75	15000	313.15	819.3	1
0.75	15000	323.15	810.9	1
0.75	15000	333.15	802.4	1
0.75	15000	343.15	793.8	1
0.75	15000	353.15	784.6	1
0.75	20000	293.15	839.2	1
0.75	20000	303.15	831.3	1
0.75	20000	313.15	823	1
0.75	20000	323.15	814.8	1
0.75	20000	333.15	806.6	1
0.75	20000	343.15	798.1	1
0.75	20000	353.15	789.1	1
0.75	25000	293.15	842.4	1
0.75	25000	303.15	834.6	1
0.75	25000	313.15	826.5	1
0.75	25000	323.15	818.6	1
0.75	25000	333.15	810.5	1
0.75	25000	343.15	802.2	1
0.75	25000	353.15	793.5	1
0.75	30000	293.15	845.4	1
0.75	30000	303.15	837.7	1
0.75	30000	313.15	829.9	1
0.75	30000	323.15	822.2	1
0.75	30000	333.15	814.1	1
0.75	30000	343.15	806.2	1.1
0.75	30000	353.15	797.6	1.1
0.75	35000	293.15	848.4	1
0.75	35000	303.15	840.8	1
0.75	35000	313.15	833.2	1
0.75	35000	323.15	825.6	1.1
0.75	35000	333.15	817.8	1.1
0.75	35000	343.15	809.9	1.1
0.75	35000	353.15	801.6	1.1
0.75	40000	293.15	851.3	1
0.75	40000	303.15	843.9	1.1
0.75	40000	313.15	836.4	1.1
0.75	40000	323.15	829	1.1
0.75	40000	333.15	821.2	1.1
0.75	40000	343.15	813.5	1.1
0.75	40000	353.15	805.4	1.1
0.75	45000	293.15	854.1	1.1
0.75	45000	303.15	846.9	1.1
0.75	45000	313.15	839.4	1.1
0.75	45000	323.15	832.2	1.1
0.75	45000	333.15	824.6	1.1
0.75	45000	343.15	817.2	1.1
0.75	45000	353.15	809.1	1.1
0.75	50000	293.15	856.9	1.1
0.75	50000	303.15	849.7	1.1
0.75	50000	313.15	842.5	1.1
0.75	50000	323.15	835.3	1.1
0.75	50000	333.15	827.8	1.1
0.75	50000	343.15	820.5	1.1
0.75	50000	353.15	812.5	1.1
0.75	55000	293.15	859.6	1.1
0.75	55000	303.15	852.5	1.1
0.75	55000	313.15	845.3	1.1
0.75	55000	323.15	838.3	1.1
0.75	55000	333.15	831	1.1
0.75	55000	343.15	823.7	1.1
0.75	55000	353.15	815.8	1.1
0.75	60000	293.15	862.1	1.1
0.75	60000	303.15	855.2	1.1
0.75	60000	313.15	848.2	1.1
0.75	60000	323.15	841.1	1.1
0.75	60000	333.15	834	1.1
0.75	60000	343.15	826.9	1.1
0.75	60000	353.15	818.9	1.1
0.75	65000	293.15	864.7	1.1
0.75	65000	303.15	857.8	1.1
0.75	65000	313.15	850.9	1.1
0.75	65000	323.15	844	1.1
0.75	65000	333.15	836.9	1.1
0.75	65000	343.15	829.9	1.1
0.75	65000	353.15	822.5	1.1
0.875	100	293.15	815.3	1
0.875	100	303.15	806.6	1
0.875	100	313.15	797.9	1
0.875	100	323.15	789.3	1
0.875	100	333.15	779.8	1
0.875	100	343.15	770.7	1
0.875	100	353.15	760.6	1
0.875	5000	293.15	818.9	1
0.875	5000	303.15	810.6	1
0.875	5000	313.15	802.1	1
0.875	5000	323.15	793.6	1
0.875	5000	333.15	784.4	1
0.875	5000	343.15	775.8	1
0.875	5000	353.15	766.1	1
0.875	10000	293.15	822.6	1
0.875	10000	303.15	814.3	1
0.875	10000	313.15	806.2	1
0.875	10000	323.15	797.9	1
0.875	10000	333.15	789.1	1
0.875	10000	343.15	780.6	1
0.875	10000	353.15	771.2	1
0.875	15000	293.15	826.1	1
0.875	15000	303.15	818.3	1
0.875	15000	313.15	810	1
0.875	15000	323.15	801.8	1
0.875	15000	333.15	793.4	1
0.875	15000	343.15	785.1	1
0.875	15000	353.15	776.2	1
0.875	20000	293.15	829.4	1
0.875	20000	303.15	821.7	1
0.875	20000	313.15	813.6	1
0.875	20000	323.15	805.7	1
0.875	20000	333.15	797.5	1
0.875	20000	343.15	789.5	1
0.875	20000	353.15	780.7	1
0.875	25000	293.15	832.6	1
0.875	25000	303.15	825.2	1
0.875	25000	313.15	817.1	1
0.875	25000	323.15	809.5	1
0.875	25000	333.15	801.4	1
0.875	25000	343.15	793.5	1
0.875	25000	353.15	784.9	1.1
0.875	30000	293.15	835.7	1
0.875	30000	303.15	828.3	1
0.875	30000	313.15	820.5	1
0.875	30000	323.15	813	1
0.875	30000	333.15	805	1.1
0.875	30000	343.15	797.4	1.1
0.875	30000	353.15	789	1.1
0.875	35000	293.15	838.7	1
0.875	35000	303.15	831.4	1
0.875	35000	313.15	823.7	1.1
0.875	35000	323.15	816.4	1.1
0.875	35000	333.15	808.6	1.1
0.875	35000	343.15	801.1	1.1
0.875	35000	353.15	792.9	1.1
0.875	40000	293.15	841.7	1.1
0.875	40000	303.15	834.4	1.1
0.875	40000	313.15	826.9	1.1
0.875	40000	323.15	819.8	1.1
0.875	40000	333.15	812	1.1
0.875	40000	343.15	804.6	1.1
0.875	40000	353.15	796.6	1.1
0.875	45000	293.15	844.4	1.1
0.875	45000	303.15	837.3	1.1
0.875	45000	313.15	830	1.1
0.875	45000	323.15	822.9	1.1
0.875	45000	333.15	815.4	1.1
0.875	45000	343.15	808.2	1.1
0.875	45000	353.15	800.3	1.1
0.875	50000	293.15	847.2	1.1
0.875	50000	303.15	840.1	1.1
0.875	50000	313.15	833	1.1
0.875	50000	323.15	826	1.1
0.875	50000	333.15	818.6	1.1
0.875	50000	343.15	811.4	1.1
0.875	50000	353.15	803.7	1.1
0.875	55000	293.15	849.7	1.1
0.875	55000	303.15	843	1.1
0.875	55000	313.15	835.9	1.1
0.875	55000	323.15	829	1.1
0.875	55000	333.15	821.9	1.1
0.875	55000	343.15	814.7	1.1
0.875	55000	353.15	807	1.1
0.875	60000	293.15	852.3	1.1
0.875	60000	303.15	845.6	1.1
0.875	60000	313.15	838.7	1.1
0.875	60000	323.15	831.9	1.1
0.875	60000	333.15	824.8	1.1
0.875	60000	343.15	817.7	1.1
0.875	60000	353.15	810.3	1.1
0.875	65000	293.15	854.8	1.1
0.875	65000	303.15	848.2	1.1
0.875	65000	313.15	841.4	1.1
0.875	65000	323.15	834.6	1.1
0.875	65000	333.15	827.7	1.1
0.875	65000	343.15	820.7	1.1
0.875	65000	353.15	813.6	1.1
1	100	293.15	803.5	1
1	100	303.15	795.2	1
1	100	313.15	787.6	1
1	100	323.15	779.3	1
1	100	333.15	770.5	1
1	100	343.15	761	1
1	100	353.15	752.2	1
1	5000	293.15	807.3	1
1	5000	303.15	799.2	1
1	5000	313.15	791.9	1
1	5000	323.15	783.7	1
1	5000	333.15	775.4	1
1	5000	343.15	766	1
1	5000	353.15	757.6	1
1	10000	293.15	810.9	1
1	10000	303.15	802.9	1
1	10000	313.15	795.9	1
1	10000	323.15	788	1
1	10000	333.15	780	1
1	10000	343.15	770.7	1
1	10000	353.15	762.7	1
1	15000	293.15	814.3	1
1	15000	303.15	806.7	1
1	15000	313.15	799.7	1
1	15000	323.15	792	1
1	15000	333.15	784.3	1
1	15000	343.15	775.3	1
1	15000	353.15	767.6	1
1	20000	293.15	817.7	1
1	20000	303.15	810.1	1
1	20000	313.15	803.3	1
1	20000	323.15	795.8	1
1	20000	333.15	788.4	1
1	20000	343.15	779.6	1
1	20000	353.15	772.1	1
1	25000	293.15	821	1
1	25000	303.15	813.6	1
1	25000	313.15	806.8	1
1	25000	323.15	799.7	1
1	25000	333.15	792	1
1	25000	343.15	783.7	1.1
1	25000	353.15	776.3	1.1
1	30000	293.15	824	1
1	30000	303.15	816.7	1
1	30000	313.15	810.2	1
1	30000	323.15	803.2	1.1
1	30000	333.15	795.7	1.1
1	30000	343.15	787.6	1.1
1	30000	353.15	780.4	1.1
1	35000	293.15	827	1.1
1	35000	303.15	819.8	1.1
1	35000	313.15	813.5	1.1
1	35000	323.15	806.6	1.1
1	35000	333.15	799.2	1.1
1	35000	343.15	791.2	1.1
1	35000	353.15	784.1	1.1
1	40000	293.15	829.9	1.1
1	40000	303.15	822.9	1.1
1	40000	313.15	816.6	1.1
1	40000	323.15	809.9	1.1
1	40000	333.15	802.6	1.1
1	40000	343.15	794.7	1.1
1	40000	353.15	787.7	1.1
1	45000	293.15	832.7	1.1
1	45000	303.15	825.8	1.1
1	45000	313.15	819.7	1.1
1	45000	323.15	813	1.1
1	45000	333.15	805.9	1.1
1	45000	343.15	798.3	1.1
1	45000	353.15	791.8	1.1
1	50000	293.15	835.4	1.1
1	50000	303.15	828.8	1.1
1	50000	313.15	822.7	1.1
1	50000	323.15	816.1	1.1
1	50000	333.15	809.1	1.1
1	50000	343.15	801.6	1.1
1	50000	353.15	795.1	1.1
1	55000	293.15	838.1	1.1
1	55000	303.15	831.6	1.1
1	55000	313.15	825.5	1.1
1	55000	323.15	819	1.1
1	55000	333.15	812.3	1.1
1	55000	343.15	804.6	1.1
1	55000	353.15	798.5	1.1
1	60000	293.15	840.7	1.1
1	60000	303.15	834.2	1.1
1	60000	313.15	828.3	1.1
1	60000	323.15	821.8	1.1
1	60000	333.15	815.2	1.1
1	60000	343.15	807.7	1.1
1	60000	353.15	801.7	1.1
1	65000	293.15	843.2	1.1
1	65000	303.15	837	1.1
1	65000	313.15	831	1.1
1	65000	323.15	824.6	1.1
1	65000	333.15	818.1	1.1
1	65000	343.15	810.6	1.1
1	65000	353.15	805	1.1
