Measured thermophysical data. Solubility of selected dibasic carboxylic acids in water, in ionic liquid of [Bmim][BF4], and in aqueous [Bmim][BF4] solutions
Source: Fluid Phase Equilib., 2007, 10.1016/j.fluid.2007.02.011
Compound 1: 1,6-hexanedioic acid, C6H10O4, InChI=1S/C6H10O4/c7-5(8)3-1-2-4-6(9)10/h1-4H2,(H,7,8)(H,9,10), purity 99%
Compound 2: 1,5-pentanedioic acid, C5H8O4, InChI=1S/C5H8O4/c6-4(7)2-1-3-5(8)9/h1-3H2,(H,6,7)(H,8,9), purity 99%
Compound 3: water, H2O, InChI=1S/H2O/h1H2, purity 99%
Compound 4: 1-butyl-3-methylimidazolium tetrafluoroborate, C8H15BF4N2, InChI=1S/C8H15N2.BF4/c1-3-4-5-10-7-6-9(2)8-10;2-1(3,4)5/h6-8H,3-5H2,1-2H3;/q+1;-1, purity 98%
Compound 5: butanedioic acid, C4H6O4, InChI=1S/C4H6O4/c5-3(6)1-2-4(7)8/h1-2H2,(H,5,6)(H,7,8), purity 99%

System: water + 1-butyl-3-methylimidazolium tetrafluoroborate; phases: Crystal, Liquid mixture 1, Liquid mixture 2, Air at 1 atmosphere
Property: Quadruple (quintuple) point temperature, K (Crystal); method: Phase equilibria
Quadruple (quintuple) point temperature, K	uncertainty
270.9	0.4

System: water + 1-butyl-3-methylimidazolium tetrafluoroborate; phases: Liquid, Crystal
Fixed: Pressure, kPa = 101
Property: Solid-liquid equilibrium temperature, K (Liquid); method: VISOBS:UFactor:4
Mass fraction of water	Solid-liquid equilibrium temperature, K	uncertainty
0.0379	245.6	0.7
0.1127	265.1	0.7
0.1527	269	0.7
0.1784	270	0.7
0.1946	270.6	0.7
0.7501	271.3	0.7
0.7789	271.3	0.7
0.8509	271.4	0.7
0.9502	272.5	0.7

System: water + 1-butyl-3-methylimidazolium tetrafluoroborate; phases: Liquid mixture 1, Liquid mixture 2
Fixed: Pressure, kPa = 101
Property: Liquid-liquid equilibrium temperature, K (Liquid mixture 1); method: VISOBS:UFactor:4
Mass fraction of water	Liquid-liquid equilibrium temperature, K	uncertainty
0.2995	274.8	0.7
0.3491	277	0.7
0.409	278.2	0.7
0.4518	278.4	0.7
0.4963	278.6	0.7
0.5551	278.5	0.7
0.5844	278.3	0.7
0.6525	277.6	0.7
0.6986	276.3	0.7
0.749	273.3	0.7

System: 1,6-hexanedioic acid + water; phases: Liquid, Crystal
Fixed: Pressure, kPa = 101
Property: Solid-liquid equilibrium temperature, K (Liquid); method: VISOBS:UFactor:4
Mole fraction of water	Solid-liquid equilibrium temperature, K	uncertainty
0.2144	416.3	0.7
0.4458	404.7	0.7
0.5412	398.4	0.7
0.6223	392.1	0.7
0.778	376.7	0.7
0.8985	362.9	0.7
0.9697	341	0.7
0.9828	331.7	0.7
0.9912	323.3	0.7
0.9946	313.9	0.7
0.9957	307.6	0.7
0.9975	297	0.7
0.9983	289	0.7

System: 1,6-hexanedioic acid + 1-butyl-3-methylimidazolium tetrafluoroborate; phases: Liquid, Crystal
Fixed: Pressure, kPa = 101
Property: Solid-liquid equilibrium temperature, K (Liquid); method: VISOBS:UFactor:4
Mole fraction of 1,6-hexanedioic acid	Solid-liquid equilibrium temperature, K	uncertainty
0.0331	327.3	0.7
0.0675	345	0.7
0.0986	355.2	0.7
0.3034	389.3	0.7
0.4984	405.3	0.7
0.634	413.4	0.7
0.8779	421.3	0.7

System: 1,5-pentanedioic acid + water; phases: Crystal, Crystal, Liquid, Air at 1 atmosphere
Property: Eutectic temperature, K (Crystal); method: Derived from phase diagram analysis
Eutectic temperature, K	uncertainty
271.8	1

System: 1,5-pentanedioic acid + water; phases: Crystal, Crystal, Liquid, Air at 1 atmosphere
Property: Eutectic composition: mole fraction of water (Crystal); method: Derived from phase diagram analysis
Eutectic composition: mole fraction of water	uncertainty
0.9673	0.01

System: 1,5-pentanedioic acid + water; phases: Liquid, Crystal
Fixed: Pressure, kPa = 101
Property: Solid-liquid equilibrium temperature, K (Liquid); method: VISOBS:UFactor:4
Mole fraction of water	Solid-liquid equilibrium temperature, K	uncertainty
0.9787	272	0.7
0.9866	272.7	0.7
0.992	272.8	0.7

System: 1,5-pentanedioic acid + water; phases: Liquid, Crystal
Fixed: Pressure, kPa = 101
Property: Solid-liquid equilibrium temperature, K (Liquid); method: VISOBS:UFactor:1
Mole fraction of water	Solid-liquid equilibrium temperature, K	uncertainty
0.2009	362.3	
0.4036	350.9	
0.5009	345	
0.5903	335.4	
0.7685	317.7	
0.8807	300.6	
0.938	282.4	
0.9526	278.1	

System: 1,5-pentanedioic acid + 1-butyl-3-methylimidazolium tetrafluoroborate; phases: Liquid, Crystal
Fixed: Pressure, kPa = 101
Property: Solid-liquid equilibrium temperature, K (Liquid); method: VISOBS:UFactor:4
Mole fraction of 1,5-pentanedioic acid	Solid-liquid equilibrium temperature, K	uncertainty
0.1052	299	0.7
0.1991	320.5	0.7
0.4115	341.8	0.7
0.6074	355.9	0.7
0.7965	364.6	0.7

System: butanedioic acid + water; phases: Liquid, Crystal
Fixed: Pressure, kPa = 101
Property: Solid-liquid equilibrium temperature, K (Liquid); method: VISOBS:UFactor:4
Mole fraction of water	Solid-liquid equilibrium temperature, K	uncertainty
0.2629	447.4	0.7
0.4119	436.2	0.7
0.5899	418.2	0.7
0.7628	392.8	0.7
0.8746	366	0.7
0.9125	352.6	0.7
0.9337	343.6	0.7
0.9673	324.1	0.7
0.9911	296.3	0.7

System: butanedioic acid + 1-butyl-3-methylimidazolium tetrafluoroborate; phases: Liquid, Crystal
Fixed: Pressure, kPa = 101
Property: Solid-liquid equilibrium temperature, K (Liquid); method: VISOBS:UFactor:4
Mole fraction of 1-butyl-3-methylimidazolium tetrafluoroborate	Solid-liquid equilibrium temperature, K	uncertainty
0.0596	338.6	0.7
0.1137	360.3	0.7
0.2137	383.1	0.7
0.4094	409.9	0.7
0.5922	429.9	0.7
0.7946	444.8	0.7

System: 1,6-hexanedioic acid + water + 1-butyl-3-methylimidazolium tetrafluoroborate; phases: Liquid, Crystal
Fixed: Pressure, kPa = 101
Property: Solid-liquid equilibrium temperature, K (Liquid); method: VISOBS:UFactor:8
Mole fraction of 1,6-hexanedioic acid	Solvent: Mole fraction of water	Solid-liquid equilibrium temperature, K	uncertainty
0	0.5	398.4	1.2
0	0.689	270	1.2
0	0.984	271.9	1.2
0.0001	0.5	345	1.2
0.0002	0.5	428.5	1.2
0.0136	0.9706	321.1	1.2
0.0452	0.9395	343.1	1.2
0.0592	0.6482	331.3	1.2
0.0793	0.906	354.3	1.2
0.1952	0.5545	374.1	1.2
0.1989	0.4006	338.2	1.2
0.2005	0.3998	426.4	1.2
0.26	0.7282	382.6	1.2
0.2689	0.3656	394.2	1.2
0.3313	0.658	390.5	1.2
0.3614	0.44	396.8	1.2
0.3736	0.6164	393.6	1.2
0.3909	0.3046	389.9	1.2
0.3996	0.3002	329.6	1.2
0.4381	0.281	402.1	1.2
0.569	0.297	407.3	1.2
0.5984	0.2008	378.2	1.2
0.6008	0.1996	317.5	1.2
0.602	0.199	385.3	1.2
0.7902	0.1049	358.7	1.2
0.7973	0.1014	307.1	1.2
0.7989	0.1006	358.8	1.2
0.8359	0.1131	419	1.2
