Measured thermophysical data. Separation of acetonitrile and methanol azeotropic mixture using imidazolium-based ionic liquids as entrainers
Source: Fluid Phase Equilib., 2018, 10.1016/j.fluid.2018.08.009
Compound 1: acetonitrile, C2H3N, InChI=1S/C2H3N/c1-2-3/h1H3, purity 99%
Compound 2: methanol, CH4O, InChI=1S/CH4O/c1-2/h2H,1H3, purity 99.9%
Compound 3: 1-butyl-3-methylimidazolium chloride, C8H15ClN2, InChI=1S/C8H15N2.ClH/c1-3-4-5-10-7-6-9(2)8-10;/h6-8H,3-5H2,1-2H3;1H/q+1;/p-1, purity 98%
Compound 4: 1-butyl-3-methylimidazolium bromide, C8H15BrN2, InChI=1S/C8H15N2.BrH/c1-3-4-5-10-7-6-9(2)8-10;/h6-8H,3-5H2,1-2H3;1H/q+1;/p-1, purity 98%
Compound 5: 1-butyl-3-methylimidazolium acetate, C10H18N2O2, InChI=1S/C8H15N2.C2H4O2/c1-3-4-5-10-7-6-9(2)8-10;1-2(3)4/h6-8H,3-5H2,1-2H3;1H3,(H,3,4)/q+1;/p-1, purity 99%

System: acetonitrile + methanol; phases: Liquid, Gas
Fixed: Pressure, kPa = 101.3
Property: Boiling temperature at pressure P, K (Liquid); method: Ebulliometric method (Recirculating still)
Mole fraction of acetonitrile	Boiling temperature at pressure P, K	uncertainty
0	338.91	0.13
0.005	338.25	0.19
0.013	337.94	0.13
0.023	337.84	0.13
0.047	337.63	0.13
0.077	337.43	0.13
0.123	337.24	0.13
0.296	337.31	0.13
0.416	337.83	0.13
0.518	338.58	0.13
0.656	340.21	0.13
0.749	341.96	0.14
0.829	344.21	0.14
0.867	345.63	0.16
0.914	347.91	0.19
1	354.32	0.13

System: acetonitrile + methanol; phases: Gas, Liquid
Fixed: Pressure, kPa = 101.3
Property: Mole fraction of acetonitrile (Gas); method: Chromatography
Mole fraction of acetonitrile	Mole fraction of acetonitrile	uncertainty
0	0	
0.005	0.008	0.008
0.013	0.018	0.018
0.023	0.032	0.032
0.047	0.06	0.06
0.077	0.094	0.094
0.123	0.138	0.1
0.296	0.253	0.1
0.416	0.305	0.1
0.518	0.363	0.1
0.656	0.443	0.1
0.749	0.52	0.1
0.829	0.616	0.1
0.867	0.663	0.1
0.914	0.74	0.1
1	1	

System: acetonitrile + methanol + 1-butyl-3-methylimidazolium chloride; phases: Liquid, Gas
Fixed: Pressure, kPa = 101.3
Property: Mole fraction of 1-butyl-3-methylimidazolium chloride (Liquid); method: Chromatography
Property: Mole fraction of 1-butyl-3-methylimidazolium chloride (Gas); method: Chromatography
Property: Mole fraction of acetonitrile (Gas); method: Chromatography
Temperature, K	Mole fraction of acetonitrile	Mole fraction of 1-butyl-3-methylimidazolium chloride	uncertainty	Mole fraction of 1-butyl-3-methylimidazolium chloride	uncertainty	Mole fraction of acetonitrile	uncertainty
339.05	0.033	0.05	0.002	0		0.05	
347.43	0.779	0.05	0.002	0		0.685	
351.2	0.864	0.049	0.002	0		0.823	
353.74	0.912	0.05	0.002	0		0.917	
340.42	0.038	0.1	0.002	0		0.06	
339.94	0.127	0.101	0.002	0		0.17	
340.04	0.21	0.113	0.002	0		0.25	
340.86	0.331	0.104	0.002	0		0.349	
341.82	0.41	0.1	0.002	0		0.426	
342.77	0.47	0.1	0.002	0		0.475	
338.54	0.114	0.05	0.002	0		0.141	
338.5	0.2	0.053	0.002	0		0.217	
339.41	0.331	0.051	0.002	0		0.322	
340.16	0.406	0.052	0.002	0		0.373	
341.16	0.479	0.054	0.002	0		0.423	
342.8	0.598	0.05	0.002	0		0.506	
344.46	0.682	0.052	0.002	0		0.581	
345.33	0.718	0.05	0.002	0		0.617	
345.04	0.575	0.1	0.002	0		0.576	
346.19	0.617	0.101	0.002	0		0.624	
348.91	0.7	0.113	0.002	0		0.718	
350.3	0.736	0.104	0.002	0		0.76	
352.1	0.779	0.1	0.002	0		0.829	
354.99	0.842	0.1	0.002	0		0.923	
342.08	0.032	0.151	0.002	0		0.06	
341.57	0.101	0.151	0.002	0		0.161	
341.72	0.212	0.15	0.002	0		0.297	
342.61	0.276	0.15	0.002	0		0.375	
343.58	0.35	0.15	0.002	0		0.446	
346	0.472	0.151	0.002	0		0.584	
348.16	0.551	0.151	0.002	0		0.67	
350.38	0.618	0.152	0.002	0		0.771	
352.67	0.697	0.15	0.002	0		0.844	
354.27	0.735	0.15	0.002	0		0.893	
357.44	0.803	0.15	0.002	0		0.967	
358.82	0.829	0.15	0.002	0		0.987	

System: acetonitrile + methanol + 1-butyl-3-methylimidazolium bromide; phases: Liquid, Gas
Fixed: Pressure, kPa = 101.3
Property: Mole fraction of 1-butyl-3-methylimidazolium bromide (Liquid); method: Chromatography
Property: Mole fraction of 1-butyl-3-methylimidazolium bromide (Gas); method: Chromatography
Property: Mole fraction of acetonitrile (Gas); method: Chromatography
Temperature, K	Mole fraction of acetonitrile	Mole fraction of 1-butyl-3-methylimidazolium bromide	uncertainty	Mole fraction of 1-butyl-3-methylimidazolium bromide	uncertainty	Mole fraction of acetonitrile	uncertainty
339.06	0.071	0.061	0.002	0		0.095	
348.21	0.811	0.05	0.002	0		0.705	
351.28	0.876	0.05	0.002	0		0.818	
353.82	0.919	0.05	0.002	0		0.915	
340.75	0.049	0.115	0.002	0		0.072	
340.4	0.167	0.114	0.002	0		0.209	
340.61	0.227	0.115	0.002	0		0.26	
341.87	0.349	0.121	0.002	0		0.37	
342.5	0.414	0.115	0.002	0		0.431	
343.28	0.479	0.109	0.002	0		0.471	
344.81	0.577	0.1	0.002	0		0.55	
338.85	0.112	0.06	0.002	0		0.141	
346.78	0.635	0.105	0.002	0		0.608	
347.5	0.671	0.1	0.002	0		0.639	
350.12	0.743	0.102	0.002	0		0.731	
352.91	0.806	0.101	0.002	0		0.827	
354.63	0.84	0.1	0.002	0		0.886	
338.79	0.174	0.061	0.002	0		0.194	
338.89	0.237	0.06	0.002	0		0.249	
339.13	0.305	0.058	0.002	0		0.287	
340.36	0.461	0.055	0.002	0		0.388	
341.61	0.566	0.05	0.002	0		0.462	
343.03	0.653	0.046	0.002	0		0.527	
344.49	0.719	0.043	0.002	0		0.58	
341.83	0.053	0.15	0.002	0		0.088	
341.56	0.136	0.151	0.002	0		0.193	
341.75	0.204	0.151	0.002	0		0.267	
342.24	0.271	0.152	0.002	0		0.329	
343.05	0.341	0.15	0.002	0		0.395	
344.19	0.411	0.154	0.002	0		0.454	
345.47	0.472	0.152	0.002	0		0.521	
347.78	0.56	0.15	0.002	0		0.62	
349.48	0.613	0.151	0.002	0		0.68	
354.01	0.726	0.149	0.002	0		0.829	
356.02	0.768	0.15	0.002	0		0.889	
358.78	0.822	0.151	0.002	0		0.963	
343.55	0.055	0.2	0.003	0		0.103	
343.42	0.156	0.2	0.003	0		0.25	
343.79	0.217	0.201	0.003	0		0.319	
344.44	0.276	0.202	0.003	0		0.387	
345.32	0.333	0.201	0.003	0		0.456	
346.8	0.405	0.2	0.003	0		0.535	
347.84	0.447	0.201	0.003	0		0.583	
350.36	0.53	0.203	0.003	0		0.682	
352.37	0.585	0.2	0.003	0		0.75	
356.63	0.683	0.201	0.003	0		0.88	
358.64	0.723	0.2	0.003	0		0.927	
361.48	0.774	0.2	0.003	0		0.978	

System: acetonitrile + methanol + 1-butyl-3-methylimidazolium acetate; phases: Liquid, Gas
Fixed: Pressure, kPa = 101.3
Property: Mole fraction of 1-butyl-3-methylimidazolium acetate (Liquid); method: Chromatography
Property: Mole fraction of 1-butyl-3-methylimidazolium acetate (Gas); method: Chromatography
Property: Mole fraction of acetonitrile (Gas); method: Chromatography
Temperature, K	Mole fraction of acetonitrile	Mole fraction of 1-butyl-3-methylimidazolium acetate	uncertainty	Mole fraction of 1-butyl-3-methylimidazolium acetate	uncertainty	Mole fraction of acetonitrile	uncertainty
339	0.062	0.05	0.002	0		0.094	
338.68	0.119	0.051	0.002	0		0.161	
338.73	0.23	0.052	0.002	0		0.262	
339.14	0.308	0.051	0.002	0		0.319	
339.87	0.395	0.051	0.002	0		0.378	
341.1	0.495	0.05	0.002	0		0.445	
342.79	0.594	0.051	0.002	0		0.518	
345.78	0.717	0.052	0.002	0		0.631	
347.18	0.761	0.053	0.002	0		0.681	
349.44	0.822	0.051	0.002	0		0.762	
352.06	0.879	0.05	0.002	0		0.856	
354.04	0.917	0.05	0.002	0		0.928	
341.35	0.045	0.106	0.002	0		0.087	
340.97	0.086	0.106	0.002	0		0.149	
340.72	0.14	0.105	0.002	0		0.219	
340.82	0.215	0.103	0.002	0		0.298	
341.41	0.301	0.105	0.002	0		0.385	
342.41	0.387	0.106	0.002	0		0.458	
343.62	0.47	0.106	0.002	0		0.528	
346.15	0.566	0.107	0.002	0		0.63	
347.91	0.64	0.106	0.002	0		0.692	
350.62	0.721	0.103	0.002	0		0.784	
353.67	0.798	0.105	0.002	0		0.879	
356.15	0.854	0.106	0.002	0		0.952	
343.32	0.062	0.153	0.002	0		0.137	
342.85	0.109	0.153	0.002	0		0.22	
342.74	0.174	0.154	0.002	0		0.322	
342.95	0.258	0.152	0.002	0		0.421	
343.99	0.344	0.155	0.002	0		0.52	
345.32	0.427	0.154	0.002	0		0.6	
347.21	0.511	0.155	0.002	0		0.689	
349.06	0.582	0.153	0.002	0		0.75	
350.05	0.615	0.153	0.002	0		0.79	
352.96	0.698	0.152	0.002	0		0.876	
356.69	0.785	0.153	0.002	0		0.956	
358.06	0.812	0.153	0.002	0		0.977	
