Measured thermophysical data. Effect of anion chain length on physicochemical properties of N,N-dimethylethanolammonium based protic ionic liquids
Source: Fluid Phase Equilib., 2016, 10.1016/j.fluid.2016.01.036
Compound 1: 2-hydroxy-N,N-dimethylethan-1-aminium acetate, C6H15NO3, InChI=1S/C4H11NO.C2H4O2/c1-5(2)3-4-6;1-2(3)4/h6H,3-4H2,1-2H3;1H3,(H,3,4), purity 98.7%
Compound 2: 2-hydroxy-N,N-dimethylethan-1-aminium propionate, C7H17NO3, InChI=1S/C4H11NO.C3H6O2/c1-5(2)3-4-6;1-2-3(4)5/h6H,3-4H2,1-2H3;2H2,1H3,(H,4,5), purity 99.6%
Compound 3: 2-hydroxy-N,N-dimethylethan-1-aminium butyrate, C8H19NO3, InChI=1S/C4H11NO.C4H8O2/c1-5(2)3-4-6;1-2-3-4(5)6/h6H,3-4H2,1-2H3;2-3H2,1H3,(H,5,6), purity 99.7%
Compound 4: 2-hydroxy-N,N-dimethylethan-1-aminium pentanoate, C9H21NO3, InChI=1S/C5H10O2.C4H11NO/c1-2-3-4-5(6)7;1-5(2)3-4-6/h2-4H2,1H3,(H,6,7);6H,3-4H2,1-2H3, purity 97.6%
Compound 5: 2-hydroxy-N,N-dimethylethan-1-aminium hexanoate, C10H23NO3, InChI=1S/C6H12O2.C4H11NO/c1-2-3-4-5-6(7)8;1-5(2)3-4-6/h2-5H2,1H3,(H,7,8);6H,3-4H2,1-2H3, purity 98.7%
Compound 6: water, H2O, InChI=1S/H2O/h1H2, purity 99.8%

System: 2-hydroxy-N,N-dimethylethan-1-aminium acetate; phases: Liquid
Fixed: Pressure, kPa = 101.325
Property: Mass density, kg/m3 (Liquid); method: Vibrating tube method
Temperature, K	Mass density, kg/m3	uncertainty
293.15	1058.7	6
298.15	1054.4	6
303.15	1050.1	6
308.15	1045.8	6
313.15	1041.5	6
318.15	1037.1	6
323.15	1032.8	6
328.15	1028.4	6
333.15	1024.1	6
338.15	1019.7	6
343.15	1015.2	6

System: 2-hydroxy-N,N-dimethylethan-1-aminium acetate; phases: Liquid
Fixed: Pressure, kPa = 101.325
Property: Speed of sound, m/s (Liquid); method: Sing-around technique in a fixed-path interferometer
Temperature, K	Speed of sound, m/s	uncertainty
293.15	1607	3
298.15	1587	3
303.15	1566	3
308.15	1547	3
313.15	1527	3
318.15	1508	3
323.15	1489	3
328.15	1470	3
333.15	1451	3
338.15	1433	3
343.15	1415	3

System: 2-hydroxy-N,N-dimethylethan-1-aminium propionate; phases: Liquid
Fixed: Pressure, kPa = 101.325
Property: Mass density, kg/m3 (Liquid); method: Vibrating tube method
Temperature, K	Mass density, kg/m3	uncertainty
293.15	1030.7	6
298.15	1026.4	6
303.15	1022	6
308.15	1017.7	6
313.15	1013.3	6
318.15	1008.9	6
323.15	1004.5	6
328.15	1000.1	6
333.15	995.7	6
338.15	991.3	6
343.15	986.8	6

System: 2-hydroxy-N,N-dimethylethan-1-aminium propionate; phases: Liquid
Fixed: Pressure, kPa = 101.325
Property: Speed of sound, m/s (Liquid); method: Sing-around technique in a fixed-path interferometer
Temperature, K	Speed of sound, m/s	uncertainty
293.15	1539	2
298.15	1519	2
303.15	1500	2
308.15	1480	2
313.15	1461	2
318.15	1443	2
323.15	1424	2
328.15	1406	2
333.15	1387	2
338.15	1369	2
343.15	1351	2

System: 2-hydroxy-N,N-dimethylethan-1-aminium butyrate; phases: Liquid
Fixed: Pressure, kPa = 101.325
Property: Mass density, kg/m3 (Liquid); method: Vibrating tube method
Temperature, K	Mass density, kg/m3	uncertainty
293.15	1009.5	6
298.15	1005.4	6
303.15	1001.4	6
308.15	997.4	6
313.15	993.3	6
318.15	989.2	6
323.15	985.1	6
328.15	981	6
333.15	976.9	6
338.15	972.7	6
343.15	968.5	6

System: 2-hydroxy-N,N-dimethylethan-1-aminium butyrate; phases: Liquid
Fixed: Pressure, kPa = 101.325
Property: Speed of sound, m/s (Liquid); method: Sing-around technique in a fixed-path interferometer
Temperature, K	Speed of sound, m/s	uncertainty
293.15	1480	2
298.15	1461	2
303.15	1443	2
308.15	1425	2
313.15	1407	2
318.15	1389	2
323.15	1372	2
328.15	1354	2
333.15	1337	2
338.15	1320	2
343.15	1303	2

System: 2-hydroxy-N,N-dimethylethan-1-aminium pentanoate; phases: Liquid
Fixed: Pressure, kPa = 101.325
Property: Mass density, kg/m3 (Liquid); method: Vibrating tube method
Temperature, K	Mass density, kg/m3	uncertainty
293.15	1000.2	6.1
298.15	996.4	6.1
303.15	992.7	6.1
308.15	988.9	6.1
313.15	985.2	6.1
318.15	981.3	6.1
323.15	977.5	6.1
328.15	973.6	6.1
333.15	969.7	6.1
338.15	965.7	6.1
343.15	961.7	6.1

System: 2-hydroxy-N,N-dimethylethan-1-aminium pentanoate; phases: Liquid
Fixed: Pressure, kPa = 101.325
Property: Speed of sound, m/s (Liquid); method: Sing-around technique in a fixed-path interferometer
Temperature, K	Speed of sound, m/s	uncertainty
293.15	1458	3
298.15	1440	3
303.15	1422	3
308.15	1405	3
313.15	1388	3
318.15	1371	3
323.15	1354	3
328.15	1337	3
333.15	1320	3
338.15	1304	3
343.15	1287	3

System: 2-hydroxy-N,N-dimethylethan-1-aminium hexanoate; phases: Liquid
Fixed: Pressure, kPa = 101.325
Property: Mass density, kg/m3 (Liquid); method: Vibrating tube method
Temperature, K	Mass density, kg/m3	uncertainty
293.15	969.9	6
298.15	965.9	6
303.15	961.9	6
308.15	957.8	6
313.15	953.8	6
318.15	949.8	6
323.15	945.7	6
328.15	941.6	6
333.15	937.5	6
338.15	933.4	6
343.15	929.3	6

System: 2-hydroxy-N,N-dimethylethan-1-aminium hexanoate; phases: Liquid
Fixed: Pressure, kPa = 101.325
Property: Speed of sound, m/s (Liquid); method: Sing-around technique in a fixed-path interferometer
Temperature, K	Speed of sound, m/s	uncertainty
293.15	1450	3
298.15	1432	3
303.15	1415	3
308.15	1397	3
313.15	1380	3
318.15	1363	3
323.15	1346	3
328.15	1329	3
333.15	1312	3
338.15	1296	3
343.15	1279	3

System: water + 2-hydroxy-N,N-dimethylethan-1-aminium butyrate; phases: Liquid
Fixed: Pressure, kPa = 101
Fixed: Temperature, K = 298.15
Property: Mass density, kg/m3 (Liquid); method: Vibrating tube method
Mass fraction of water	Mass density, kg/m3	uncertainty
0.0028	1005.4	6
0.005996	1005.8	6
0.009007	1006.1	6
0.012504	1006.6	6

System: water + 2-hydroxy-N,N-dimethylethan-1-aminium butyrate; phases: Liquid
Fixed: Pressure, kPa = 1
Fixed: Temperature, K = 298.15
Fixed: Frequency, MHz = 3
Property: Speed of sound, m/s (Liquid); method: Sing-around technique in a fixed-path interferometer
Mass fraction of water	Speed of sound, m/s	uncertainty
0.0028	1461	2
0.005996	1462	2
0.009007	1463	2
0.012504	1464	2
