Measured thermophysical data. Solubility of o-tolidine in pure and modified supercritical carbon dioxide
Source: Fluid Phase Equilib., 2012, 10.1016/j.fluid.2011.11.010
Compound 1: 3,3'-dimethylbiphenyl-4,4'-diamine, C14H16N2, InChI=1S/C14H16N2/c1-9-7-11(3-5-13(9)15)12-4-6-14(16)10(2)8-12/h3-8H,15-16H2,1-2H3, purity 99.9%
Compound 2: ethanol, C2H6O, InChI=1S/C2H6O/c1-2-3/h3H,2H2,1H3, purity 99.7%
Compound 3: 1,2-ethanediol, C2H6O2, InChI=1S/C2H6O2/c3-1-2-4/h3-4H,1-2H2, purity 99.5%
Compound 4: carbon dioxide, CO2, InChI=1S/CO2/c2-1-3, purity 99.9%

System: 3,3'-dimethylbiphenyl-4,4'-diamine + carbon dioxide; phases: Fluid (supercritical or subcritical phases), Crystal
Property: Mole fraction of 3,3'-dimethylbiphenyl-4,4'-diamine (Fluid (supercritical or subcritical phases)); method: UV-Vis Spectrophotometer
Temperature, K	Pressure, kPa	Mole fraction of 3,3'-dimethylbiphenyl-4,4'-diamine	uncertainty
308	11000	1.14e-05	2.3e-06
308	13000	1.34e-05	2.7e-06
308	15000	1.51e-05	3.1e-06
308	18000	1.79e-05	3.7e-06
308	21000	1.99e-05	4.2e-06
318	11000	8.9e-06	1.9e-06
318	13000	1.73e-05	3.5e-06
318	15000	2.01e-05	4.1e-06
318	18000	2.45e-05	5e-06
318	21000	3.19e-05	6.5e-06
328	11000	5.1e-06	1.2e-06
328	13000	1.61e-05	3.3e-06
328	15000	2.49e-05	5e-06
328	18000	3.74e-05	7.6e-06
328	21000	4.79e-05	9.7e-06

System: ethanol + 3,3'-dimethylbiphenyl-4,4'-diamine + carbon dioxide; phases: Fluid (supercritical or subcritical phases), Crystal
Property: Mole fraction of 3,3'-dimethylbiphenyl-4,4'-diamine (Fluid (supercritical or subcritical phases)); method: UV-Vis Spectrophotometer
Temperature, K	Pressure, kPa	Solvent: Mole fraction of ethanol	Mole fraction of 3,3'-dimethylbiphenyl-4,4'-diamine	uncertainty
308	11000	0.02	2.36e-05	4.8e-06
308	13000	0.02	2.65e-05	5.3e-06
308	15000	0.02	2.96e-05	5.9e-06
308	18000	0.02	3.53e-05	7.1e-06
308	21000	0.02	4.12e-05	8.3e-06
318	11000	0.01	1.2e-05	2.5e-06
318	11000	0.02	1.71e-05	3.5e-06
318	11000	0.04	2.22e-05	4.5e-06
318	13000	0.01	2.04e-05	4.1e-06
318	13000	0.02	2.59e-05	5.2e-06
318	13000	0.04	3.1e-05	6.2e-06
318	15000	0.01	2.55e-05	5.1e-06
318	15000	0.02	3.2e-05	6.4e-06
318	15000	0.04	3.9e-05	7.8e-06
318	18000	0.01	3.32e-05	6.7e-06
318	18000	0.02	4.14e-05	8.3e-06
318	18000	0.04	4.85e-05	9.7e-06
318	21000	0.01	3.94e-05	7.9e-06
318	21000	0.02	4.89e-05	9.8e-06
318	21000	0.04	5.99e-05	1.21e-05
328	11000	0.02	1.01e-05	2.2e-06
328	13000	0.02	2.26e-05	4.6e-06
328	15000	0.02	3.4e-05	6.8e-06
328	18000	0.02	4.51e-05	9e-06
328	21000	0.02	5.72e-05	1.15e-05

System: 1,2-ethanediol + 3,3'-dimethylbiphenyl-4,4'-diamine + carbon dioxide; phases: Fluid (supercritical or subcritical phases), Crystal
Fixed: Temperature, K = 318
Fixed: Solvent: Mole fraction of 1,2-ethanediol = 0.02
Property: Mole fraction of 3,3'-dimethylbiphenyl-4,4'-diamine (Fluid (supercritical or subcritical phases)); method: UV-Vis Spectrophotometer
Pressure, kPa	Mole fraction of 3,3'-dimethylbiphenyl-4,4'-diamine	uncertainty
11000	1.11e-05	2.2e-06
13000	2.11e-05	4.2e-06
15000	2.54e-05	5.1e-06
18000	3.3e-05	6.6e-06
21000	4.25e-05	8.5e-06
