Measured thermophysical data. Solubility of dialkylalkyl phosphonates in supercritical carbon dioxide: experimental and modeling approach
Source: Fluid Phase Equilib., 2017, 10.1016/j.fluid.2016.12.011
Compound 1: carbon dioxide, CO2, InChI=1S/CO2/c2-1-3, purity 99.9%
Compound 2: dibutyl butanephosphonate, C12H27O3P, InChI=1S/C12H27O3P/c1-4-7-10-14-16(13,12-9-6-3)15-11-8-5-2/h4-12H2,1-3H3
Compound 3: dipentyl pentylphosphonate, C15H33O3P, InChI=1S/C15H33O3P/c1-4-7-10-13-17-19(16,15-12-9-6-3)18-14-11-8-5-2/h4-15H2,1-3H3

System: dibutyl butanephosphonate + carbon dioxide; phases: Fluid (supercritical or subcritical phases), Crystal
Property: Mole fraction of dibutyl butanephosphonate (Fluid (supercritical or subcritical phases)); method: gravemetric
Temperature, K	Pressure, kPa	Mole fraction of dibutyl butanephosphonate	uncertainty
313	10300	0.097	0.01
313	12300	0.1	0.01
313	15000	0.102	0.01
313	20000	0.103	0.01
313	25000	0.104	0.01
323	10300	0.093	0.009
323	12300	0.106	0.011
323	15000	0.11	0.011
323	20000	0.111	0.011
323	25000	0.112	0.011
333	10300	0.088	0.009
333	12300	0.109	0.011
333	15000	0.115	0.012
333	20000	0.117	0.012
333	25000	0.118	0.012

System: carbon dioxide + dipentyl pentylphosphonate; phases: Fluid (supercritical or subcritical phases), Crystal
Property: Mole fraction of dipentyl pentylphosphonate (Fluid (supercritical or subcritical phases)); method: gravemetric
Temperature, K	Pressure, kPa	Mole fraction of dipentyl pentylphosphonate	uncertainty
313	10300	0.082	0.008
313	12300	0.087	0.009
313	15000	0.089	0.009
313	20000	0.09	0.009
313	25000	0.091	0.009
323	10300	0.073	0.007
323	12300	0.089	0.009
323	15000	0.094	0.009
323	20000	0.094	0.009
323	25000	0.095	0.01
333	10300	0.067	0.007
333	12300	0.089	0.009
333	15000	0.095	0.01
333	20000	0.098	0.01
333	25000	0.099	0.01
