Measured thermophysical data. Thermodynamic properties and CO2 solubility of monoethanolamine + diethylenetriamine/aminoethylethanolamine mixtures: Experimental measurements and thermodynamic modeling
Source: Fluid Phase Equilib., 2017, 10.1016/j.fluid.2017.06.018
Compound 1: 2-aminoethan-1-ol, C2H7NO, InChI=1S/C2H7NO/c3-1-2-4/h4H,1-3H2, purity 98%
Compound 2: di(2-aminoethyl)amine, C4H13N3, InChI=1S/C4H13N3/c5-1-3-7-4-2-6/h7H,1-6H2, purity 98%
Compound 3: N-(2-aminoethyl)ethanolamine, C4H12N2O, InChI=1S/C4H12N2O/c5-1-2-6-3-4-7/h6-7H,1-5H2, purity 99%

System: 2-aminoethan-1-ol; phases: Liquid
Fixed: Pressure, kPa = 100
Property: Mass density, kg/m3 (Liquid); method: Vibrating tube method
Temperature, K	Mass density, kg/m3	uncertainty
298.15	1012.4	2.2
303.15	1008.4	2.1
308.15	1004.5	2.1
298.15	1012.4	2.2
303.15	1008.4	2.1
308.15	1004.5	2.1

System: 2-aminoethan-1-ol; phases: Liquid
Fixed: Pressure, kPa = 100
Property: Viscosity, Pa*s (Liquid); method: Falling or rolling sphere viscometry
Temperature, K	Viscosity, Pa*s	uncertainty
298.15	0.01872	0.00044
303.15	0.01515	0.00036
308.15	0.0119	0.00028
298.15	0.01872	0.00044
303.15	0.01515	0.00036
308.15	0.01196	0.00028

System: 2-aminoethan-1-ol; phases: Liquid
Fixed: Pressure, kPa = 100
Property: Refractive index (Na D-line) (Liquid); method: Standard Abbe refractometry
Temperature, K	Refractive index (Na D-line)	uncertainty
298.15	1.4535	0.0021
303.15	1.4519	0.0021
308.15	1.4505	0.0021
298.15	1.4535	0.0021
303.15	1.4519	0.0021
308.15	1.4505	0.0021

System: di(2-aminoethyl)amine; phases: Liquid
Fixed: Pressure, kPa = 100
Property: Mass density, kg/m3 (Liquid); method: Vibrating tube method
Temperature, K	Mass density, kg/m3	uncertainty
298.15	945.8	2.1
303.15	942.1	2.1
308.15	937.8	2.1

System: di(2-aminoethyl)amine; phases: Liquid
Fixed: Pressure, kPa = 100
Property: Viscosity, Pa*s (Liquid); method: Falling or rolling sphere viscometry
Temperature, K	Viscosity, Pa*s	uncertainty
298.15	0.00563	0.00013
303.15	0.0045	0.00011
308.15	0.00385	9e-05

System: di(2-aminoethyl)amine; phases: Liquid
Fixed: Pressure, kPa = 100
Property: Refractive index (Na D-line) (Liquid); method: Standard Abbe refractometry
Temperature, K	Refractive index (Na D-line)	uncertainty
298.15	1.4822	0.0021
303.15	1.4808	0.0021
308.15	1.4793	0.0021

System: N-(2-aminoethyl)ethanolamine; phases: Liquid
Fixed: Pressure, kPa = 100
Property: Mass density, kg/m3 (Liquid); method: Vibrating tube method
Temperature, K	Mass density, kg/m3	uncertainty
298.15	1025.8	2
303.15	1021.3	2
308.15	1016.3	2

System: N-(2-aminoethyl)ethanolamine; phases: Liquid
Fixed: Pressure, kPa = 100
Property: Viscosity, Pa*s (Liquid); method: Falling or rolling sphere viscometry
Temperature, K	Viscosity, Pa*s	uncertainty
298.15	0.09862	0.00289
303.15	0.07057	0.00164
308.15	0.05311	0.0011

System: N-(2-aminoethyl)ethanolamine; phases: Liquid
Fixed: Pressure, kPa = 100
Property: Refractive index (Na D-line) (Liquid); method: Standard Abbe refractometry
Temperature, K	Refractive index (Na D-line)	uncertainty
298.15	1.4843	0.002
303.15	1.4827	0.002
308.15	1.4811	0.002

System: 2-aminoethan-1-ol + di(2-aminoethyl)amine; phases: Liquid
Fixed: Pressure, kPa = 100
Property: Mass density, kg/m3 (Liquid); method: Vibrating tube method
Temperature, K	Mole fraction of 2-aminoethan-1-ol	Mass density, kg/m3	uncertainty
298.15	0	945.8	2.1
298.15	0.1619	956.5	2.1
298.15	0.2973	964.6	2.1
298.15	0.4258	972.6	2.1
298.15	0.5307	979.4	2.1
298.15	0.6308	986.3	2.1
298.15	0.7174	992.7	2.1
298.15	0.798	998.7	2.1
298.15	0.879	1005.1	2.1
298.15	0.9336	1008.9	2.1
298.15	1	1012.4	2.2
303.15	0	942.1	2.1
303.15	0.1619	953.1	2.1
303.15	0.2973	961.1	2.1
303.15	0.4258	969	2.1
303.15	0.5307	975.9	2.1
303.15	0.6308	982.8	2.1
303.15	0.7174	989.2	2.1
303.15	0.798	995.5	2.1
303.15	0.879	1001.7	2.1
303.15	0.9336	1005.6	2.1
303.15	1	1008.4	2.1
308.15	0	937.8	2.1
308.15	0.1619	949.1	2.1
308.15	0.2973	957.1	2.1
308.15	0.4258	965.3	2.1
308.15	0.5307	972.3	2.1
308.15	0.6308	979.2	2.1
308.15	0.7174	985.6	2.1
308.15	0.798	992	2.1
308.15	0.879	998.5	2.1
308.15	0.9336	1002.4	2.1
308.15	1	1004.5	2.1

System: 2-aminoethan-1-ol + di(2-aminoethyl)amine; phases: Liquid
Fixed: Pressure, kPa = 100
Property: Viscosity, Pa*s (Liquid); method: Falling or rolling sphere viscometry
Temperature, K	Mole fraction of 2-aminoethan-1-ol	Viscosity, Pa*s	uncertainty
298.15	0	0.00563	0.00013
298.15	0.1619	0.00828	0.00019
298.15	0.2973	0.01037	0.00024
298.15	0.4258	0.01215	0.00029
298.15	0.5307	0.01387	0.00033
298.15	0.6308	0.01547	0.00036
298.15	0.7174	0.01682	0.00039
298.15	0.798	0.01822	0.00043
298.15	0.879	0.01923	0.00045
298.15	0.9336	0.01931	0.00045
298.15	1	0.01872	0.00044
303.15	0	0.0045	0.00011
303.15	0.1619	0.00659	0.00015
303.15	0.2973	0.00833	0.0002
303.15	0.4258	0.00976	0.00023
303.15	0.5307	0.01118	0.00026
303.15	0.6308	0.01248	0.00029
303.15	0.7174	0.0136	0.00032
303.15	0.798	0.01473	0.00035
303.15	0.879	0.01549	0.00036
303.15	0.9336	0.01549	0.00036
303.15	1	0.01515	0.00036
308.15	0	0.00385	9e-05
308.15	0.1619	0.00538	0.00013
308.15	0.2973	0.00668	0.00016
308.15	0.4258	0.0078	0.00018
308.15	0.5307	0.00889	0.00021
308.15	0.6308	0.00999	0.00023
308.15	0.7174	0.01089	0.00026
308.15	0.798	0.01184	0.00028
308.15	0.879	0.01242	0.00029
308.15	0.9336	0.01234	0.00029
308.15	1	0.0119	0.00028

System: 2-aminoethan-1-ol + di(2-aminoethyl)amine; phases: Liquid
Fixed: Pressure, kPa = 100
Property: Refractive index (Na D-line) (Liquid); method: Standard Abbe refractometry
Temperature, K	Mole fraction of 2-aminoethan-1-ol	Refractive index (Na D-line)	uncertainty
298.15	0	1.4822	0.0021
298.15	0.0989	1.4815	0.0021
298.15	0.2021	1.4806	0.0021
298.15	0.3013	1.4794	0.0021
298.15	0.4007	1.4778	0.0021
298.15	0.4984	1.4758	0.0021
298.15	0.6007	1.4731	0.0021
298.15	0.7027	1.4696	0.0021
298.15	0.8002	1.4657	0.0021
298.15	0.8987	1.4608	0.0021
298.15	1	1.4535	0.0021
303.15	0	1.4808	0.0021
303.15	0.0989	1.4802	0.0021
303.15	0.2021	1.4791	0.0021
303.15	0.3013	1.4778	0.0021
303.15	0.4007	1.4764	0.0021
303.15	0.4984	1.4743	0.0021
303.15	0.6007	1.4717	0.0021
303.15	0.7027	1.4683	0.0021
303.15	0.8002	1.4643	0.0021
303.15	0.8987	1.4591	0.0021
303.15	1	1.4519	0.0021
308.15	0	1.4793	0.0021
308.15	0.0989	1.4791	0.0021
308.15	0.2021	1.4778	0.0021
308.15	0.3013	1.4765	0.0021
308.15	0.4007	1.4752	0.0021
308.15	0.4984	1.4729	0.0021
308.15	0.6007	1.4703	0.0021
308.15	0.7027	1.467	0.0021
308.15	0.8002	1.4631	0.0021
308.15	0.8987	1.4577	0.0021
308.15	1	1.4505	0.0021

System: 2-aminoethan-1-ol + N-(2-aminoethyl)ethanolamine; phases: Liquid
Fixed: Pressure, kPa = 100
Property: Mass density, kg/m3 (Liquid); method: Vibrating tube method
Temperature, K	Mole fraction of 2-aminoethan-1-ol	Mass density, kg/m3	uncertainty
298.15	0	1025.8	2
298.15	0.1072	1025.7	2
298.15	0.2634	1025.2	2
298.15	0.4233	1024.4	2
298.15	0.5481	1023.4	2.1
298.15	0.6305	1022.5	2.1
298.15	0.6851	1021.7	2.1
298.15	0.7988	1019.4	2.1
298.15	0.8459	1018.2	2.1
298.15	0.9377	1015.2	2.1
298.15	1	1012.4	2.2
303.15	0	1021.3	2
303.15	0.1072	1021.4	2
303.15	0.2634	1020.9	2
303.15	0.4233	1020.2	2
303.15	0.5481	1019.3	2.1
303.15	0.6305	1018.4	2.1
303.15	0.6851	1017.6	2.1
303.15	0.7988	1015.5	2.1
303.15	0.8459	1014.3	2.1
303.15	0.9377	1011.4	2.1
303.15	1	1008.4	2.1
308.15	0	1016.3	2
308.15	0.1072	1016.6	2
308.15	0.2634	1016.2	2
308.15	0.4233	1015.7	2
308.15	0.5481	1014.9	2.1
308.15	0.6305	1014.1	2.1
308.15	0.6851	1013.4	2.1
308.15	0.7988	1011.4	2.1
308.15	0.8459	1010.3	2.1
308.15	0.9377	1007.5	2.1
308.15	1	1004.5	2.1

System: 2-aminoethan-1-ol + N-(2-aminoethyl)ethanolamine; phases: Liquid
Fixed: Pressure, kPa = 100
Property: Viscosity, Pa*s (Liquid); method: Falling or rolling sphere viscometry
Temperature, K	Mole fraction of 2-aminoethan-1-ol	Viscosity, Pa*s	uncertainty
298.15	0	0.09862	0.00289
298.15	0.1072	0.09509	0.00273
298.15	0.2634	0.09058	0.00252
298.15	0.4233	0.07829	0.00198
298.15	0.5481	0.06472	0.00148
298.15	0.6305	0.05312	0.00115
298.15	0.6851	0.04475	0.00102
298.15	0.7988	0.02793	0.00065
298.15	0.8459	0.02236	0.00052
298.15	0.9377	0.01718	0.0004
298.15	1	0.01872	0.00044
303.15	0	0.07057	0.00164
303.15	0.1072	0.06925	0.0016
303.15	0.2634	0.06759	0.00155
303.15	0.4233	0.0595	0.0013
303.15	0.5481	0.04892	0.00111
303.15	0.6305	0.03984	0.00091
303.15	0.6851	0.03281	0.00075
303.15	0.7988	0.02004	0.00046
303.15	0.8459	0.01594	0.00037
303.15	0.9377	0.01282	0.0003
303.15	1	0.01515	0.00036
308.15	0	0.05311	0.0011
308.15	0.1072	0.05277	0.0011
308.15	0.2634	0.05268	0.00111
308.15	0.4233	0.04692	0.00105
308.15	0.5481	0.03849	0.00087
308.15	0.6305	0.03101	0.00071
308.15	0.6851	0.02515	0.00058
308.15	0.7988	0.01471	0.00034
308.15	0.8459	0.01131	0.00026
308.15	0.9377	0.00955	0.00022
308.15	1	0.01196	0.00028

System: 2-aminoethan-1-ol + N-(2-aminoethyl)ethanolamine; phases: Liquid
Fixed: Pressure, kPa = 100
Property: Refractive index (Na D-line) (Liquid); method: Standard Abbe refractometry
Temperature, K	Mole fraction of 2-aminoethan-1-ol	Refractive index (Na D-line)	uncertainty
298.15	0	1.4843	0.002
298.15	0.1005	1.4824	0.002
298.15	0.1993	1.4799	0.002
298.15	0.299	1.4774	0.002
298.15	0.4047	1.4742	0.002
298.15	0.5033	1.4714	0.002
298.15	0.5985	1.4683	0.002
298.15	0.6981	1.4647	0.002
298.15	0.7985	1.4611	0.0021
298.15	0.8996	1.4573	0.0021
298.15	1	1.4535	0.0021
303.15	0	1.4827	0.002
303.15	0.1005	1.481	0.002
303.15	0.1993	1.4785	0.002
303.15	0.299	1.476	0.002
303.15	0.4047	1.4728	0.002
303.15	0.5033	1.47	0.002
303.15	0.5985	1.4668	0.002
303.15	0.6981	1.4633	0.002
303.15	0.7985	1.4598	0.0021
303.15	0.8996	1.4559	0.0021
303.15	1	1.4519	0.0021
308.15	0	1.4811	0.002
308.15	0.1005	1.4796	0.002
308.15	0.1993	1.4771	0.002
308.15	0.299	1.4745	0.002
308.15	0.4047	1.4715	0.002
308.15	0.5033	1.4685	0.002
308.15	0.5985	1.4652	0.002
308.15	0.6981	1.462	0.002
308.15	0.7985	1.4585	0.0021
308.15	0.8996	1.4545	0.0021
308.15	1	1.4505	0.0021
