Measured thermophysical data. Influence of 1-alkyl-3-methylimidazolium based ionic liquids on the thermodynamic and transport properties of L(+)-lactic acid in aqueous solutions of polyethylene glycol
Source: Fluid Phase Equilib., 2017, 10.1016/j.fluid.2017.02.019
Compound 1: (S)-2-hydroxypropanoic acid, C3H6O3, InChI=1S/C3H6O3/c1-2(4)3(5)6/h2,4H,1H3,(H,5,6)/t2-/m0/s1, purity 98%
Compound 2: water, H2O, InChI=1S/H2O/h1H2, purity 99.8%

System: water; phases: Liquid
Fixed: Pressure, kPa = 101
Property: Mass density, kg/m3 (Liquid); method: Vibrating tube method
Temperature, K	Mass density, kg/m3	uncertainty
288.15	999.103	100
298.15	997.048	100
308.15	994.035	100
318.15	990.216	100

System: water; phases: Liquid
Fixed: Pressure, kPa = 101
Property: Speed of sound, m/s (Liquid); method: Sing-around technique in a fixed-path interferometer
Temperature, K	Speed of sound, m/s	uncertainty
288.15	1467.2	1.22
298.15	1496.73	1.22
308.15	1520.15	1.23
318.15	1536.01	1.23

System: water; phases: Liquid
Fixed: Pressure, kPa = 101
Property: Viscosity, Pa*s (Liquid); method: Falling or rolling sphere viscometry
Temperature, K	Viscosity, Pa*s	uncertainty
288.15	0.001138	9e-06
298.15	0.00089	7e-06
308.15	0.000719	6e-06
318.15	0.000596	5e-06

System: (S)-2-hydroxypropanoic acid + water; phases: Liquid
Fixed: Pressure, kPa = 101
Property: Mass density, kg/m3 (Liquid); method: Vibrating tube method
Temperature, K	Molality, mol/kg of (S)-2-hydroxypropanoic acid	Mass density, kg/m3	uncertainty
288.15	0	999.103	100
288.15	0.0347	999.85	100
288.15	0.0523	1000.221	100
288.15	0.0691	1000.572	100
288.15	0.0868	1000.939	100
288.15	0.1056	1001.324	100
288.15	0.1217	1001.648	100
288.15	0.1404	1002.022	100
288.15	0.1571	1002.352	100
288.15	0.1751	1002.701	100
298.15	0	997.048	100
298.15	0.0347	997.75	100
298.15	0.0523	998.096	100
298.15	0.0691	998.425	100
298.15	0.0868	998.762	100
298.15	0.1056	999.125	100
298.15	0.1217	999.426	100
298.15	0.1404	999.78	100
298.15	0.1571	1000.088	100
298.15	0.1751	1000.415	100
308.15	0	994.035	100
308.15	0.0347	994.715	100
308.15	0.0523	995.048	100
308.15	0.0691	995.358	100
308.15	0.0868	995.685	100
308.15	0.1056	996.025	100
308.15	0.1217	996.311	100
308.15	0.1404	996.641	100
308.15	0.1571	996.932	100
308.15	0.1751	997.242	100
318.15	0	990.216	100
318.15	0.0347	990.864	100
318.15	0.0523	991.199	100
318.15	0.0691	991.5	100
318.15	0.0868	991.811	100
318.15	0.1056	992.143	100
318.15	0.1217	992.425	100
318.15	0.1404	992.758	100
318.15	0.1571	993.023	100
318.15	0.1751	993.34	100

System: (S)-2-hydroxypropanoic acid + water; phases: Liquid
Fixed: Pressure, kPa = 101
Property: Speed of sound, m/s (Liquid); method: Sing-around technique in a fixed-path interferometer
Temperature, K	Molality, mol/kg of (S)-2-hydroxypropanoic acid	Speed of sound, m/s	uncertainty
288.15	0	1467.2	1.22
288.15	0.0347	1468.03	1.22
288.15	0.0523	1468.56	1.22
288.15	0.0691	1469.11	1.22
288.15	0.0868	1469.76	1.22
288.15	0.1056	1470.54	1.22
288.15	0.1217	1471.3	1.22
288.15	0.1404	1472.23	1.22
288.15	0.1571	1473.14	1.22
288.15	0.1751	1474.1	1.22
298.15	0	1496.73	1.22
298.15	0.0347	1497.55	1.22
298.15	0.0523	1498.05	1.22
298.15	0.0691	1498.59	1.22
298.15	0.0868	1499.22	1.22
298.15	0.1056	1499.98	1.23
298.15	0.1217	1500.65	1.23
298.15	0.1404	1501.5	1.23
298.15	0.1571	1502.27	1.23
298.15	0.1751	1503.17	1.23
308.15	0	1520.15	1.23
308.15	0.0347	1520.65	1.23
308.15	0.0523	1520.98	1.23
308.15	0.0691	1521.37	1.23
308.15	0.0868	1521.81	1.23
308.15	0.1056	1522.34	1.23
308.15	0.1217	1522.85	1.23
308.15	0.1404	1523.52	1.23
308.15	0.1571	1524.13	1.23
308.15	0.1751	1524.84	1.23
318.15	0	1536.01	1.23
318.15	0.0347	1536.43	1.23
318.15	0.0523	1536.71	1.23
318.15	0.0691	1537.04	1.23
318.15	0.0868	1537.43	1.23
318.15	0.1056	1537.92	1.23
318.15	0.1217	1538.37	1.23
318.15	0.1404	1538.94	1.23
318.15	0.1571	1539.52	1.23
318.15	0.1751	1540.18	1.23

System: (S)-2-hydroxypropanoic acid + water; phases: Liquid
Fixed: Pressure, kPa = 101
Property: Viscosity, Pa*s (Liquid); method: Falling or rolling sphere viscometry
Temperature, K	Molality, mol/kg of (S)-2-hydroxypropanoic acid	Viscosity, Pa*s	uncertainty
288.15	0	0.001138	9e-06
288.15	0.0347	0.001147	9e-06
288.15	0.0523	0.001153	9e-06
288.15	0.0691	0.00116	9e-06
288.15	0.0868	0.001165	9e-06
288.15	0.1056	0.00117	9e-06
288.15	0.1217	0.001175	9e-06
288.15	0.1404	0.00118	9e-06
288.15	0.1571	0.001185	9e-06
288.15	0.1751	0.00119	9e-06
298.15	0	0.00089	7e-06
298.15	0.0347	0.000898	7e-06
298.15	0.0523	0.000902	7e-06
298.15	0.0691	0.000906	7e-06
298.15	0.0868	0.00091	7e-06
298.15	0.1056	0.000914	7e-06
298.15	0.1217	0.000917	7e-06
298.15	0.1404	0.000922	7e-06
298.15	0.1571	0.000926	7e-06
298.15	0.1751	0.000929	7e-06
308.15	0	0.000719	6e-06
308.15	0.0347	0.000731	6e-06
308.15	0.0523	0.000734	6e-06
308.15	0.0691	0.000736	6e-06
308.15	0.0868	0.000738	6e-06
308.15	0.1056	0.000741	6e-06
308.15	0.1217	0.000744	6e-06
308.15	0.1404	0.000747	6e-06
308.15	0.1571	0.00075	6e-06
308.15	0.1751	0.000753	6e-06
318.15	0	0.000596	5e-06
318.15	0.0347	0.000601	5e-06
318.15	0.0523	0.000602	5e-06
318.15	0.0691	0.000604	5e-06
318.15	0.0868	0.000605	5e-06
318.15	0.1056	0.000607	5e-06
318.15	0.1217	0.00061	5e-06
318.15	0.1404	0.000612	5e-06
318.15	0.1571	0.000614	5e-06
318.15	0.1751	0.000616	5e-06
