Measured thermophysical data. High-pressure vapor liquid equilibria in the nitrogen n-pentane system
Source: Fluid Phase Equilib., 2006, 10.1016/j.fluid.2006.09.018
Compound 1: nitrogen, N2, InChI=1S/N2/c1-2, purity 99.999%
Compound 2: pentane, C5H12, InChI=1S/C5H12/c1-3-5-4-2/h3-5H2,1-2H3, purity 99%

System: pentane + nitrogen; phases: Liquid, Gas
Property: Critical pressure, kPa (Liquid); method: Derived from PVT data
Mole fraction of nitrogen	Critical pressure, kPa	uncertainty
0.3162	9440	220
0.4967	15680	420
0.6032	21860	810
0.6612	26970	1530
0.7275	36160	2020

System: pentane + nitrogen; phases: Liquid, Gas
Property: Critical temperature, K (Liquid); method: Visual observation in an unstirred cell
Mole fraction of nitrogen	Critical temperature, K	uncertainty
0.3162	447.9	1
0.4967	422.7	1.7
0.6032	398.3	3.2
0.6612	377.9	5.8
0.7275	344.3	7.4

System: pentane + nitrogen; phases: Liquid, Gas
Property: Vapor or sublimation pressure, kPa (Liquid); method: Closed cell (Static) method
Mole fraction of nitrogen	Temperature, K	Vapor or sublimation pressure, kPa	uncertainty
0.01	422.7	1990	40
0.0131	447.9	2870	40
0.0138	398.3	1700	40
0.0175	422.7	2320	40
0.0179	377.9	1710	50
0.0189	398.3	1970	50
0.0213	344.3	1670	50
0.0258	398.3	2310	50
0.0259	377.9	2160	50
0.0271	447.9	3370	50
0.0293	422.7	2820	50
0.0356	398.3	2800	50
0.037	447.9	3700	50
0.0402	422.7	3310	50
0.0431	377.9	3090	60
0.0478	344.3	3310	70
0.0527	447.9	4260	60
0.0589	398.3	3900	70
0.0624	422.7	4250	70
0.0652	344.3	4380	90
0.0667	447.9	4730	60
0.0769	398.3	4810	90
0.0798	447.9	5120	70
0.0856	377.9	5410	100
0.0875	422.7	5310	80
0.096	447.9	5640	70
0.1002	344.3	6650	140
0.1172	398.3	6810	120
0.1215	447.9	6390	80
0.1241	422.7	6810	110
0.1353	447.9	6760	80
0.1427	344.3	9420	190
0.1496	377.9	8870	170
0.1534	447.9	7190	90
0.16	398.3	8810	160
0.1633	422.7	8390	130
0.1718	447.9	7660	100
0.1907	344.3	12470	250
0.1957	447.9	8190	90
0.1979	422.7	9660	150
0.1994	398.3	10710	190
0.218	377.9	12600	240
0.2279	447.9	8760	100
0.2402	422.7	11160	180
0.2443	398.3	12710	220
0.2524	344.3	16410	320
0.2579	447.9	9200	100
0.2864	422.7	12670	180
0.2927	398.3	14760	260
0.2934	377.9	16490	300
0.3237	422.7	13640	170
0.3266	344.3	20980	420
0.3378	398.3	16690	260
0.3551	422.7	14260	170
0.364	377.9	19700	350
0.3854	422.7	14920	180
0.3879	398.3	18240	260
0.3911	377.9	21040	380
0.3921	344.3	25240	460
0.4034	422.7	15230	160
0.4239	377.9	22510	340
0.4323	398.3	19700	260
0.4729	377.9	24150	300
0.4806	398.3	20810	230
0.4867	344.3	30160	450
0.503	398.3	21230	210
0.5352	377.9	25760	290
0.5626	377.9	26360	230
0.5855	377.9	26610	180
0.596	344.3	34480	460
0.6341	344.3	35470	360

System: pentane + nitrogen; phases: Gas, Liquid
Property: Mole fraction of nitrogen (Gas); method: Chromatography
Mole fraction of nitrogen	Temperature, K	Mole fraction of nitrogen	uncertainty
0.01	422.7	0.1663	0.0048
0.0131	447.9	0.1035	0.003
0.0138	398.3	0.3503	0.0091
0.0175	422.7	0.2577	0.0068
0.0179	377.9	0.5334	0.0124
0.0189	398.3	0.4272	0.0107
0.0213	344.3	0.7845	0.0161
0.0258	398.3	0.4967	0.0121
0.0259	377.9	0.6269	0.0137
0.0271	447.9	0.1833	0.0055
0.0293	422.7	0.3535	0.0092
0.0356	398.3	0.5718	0.0129
0.037	447.9	0.227	0.0064
0.0402	422.7	0.4216	0.0104
0.0431	377.9	0.7285	0.0151
0.0478	344.3	0.8849	0.018
0.0527	447.9	0.2762	0.0076
0.0589	398.3	0.6651	0.0144
0.0624	422.7	0.5146	0.0123
0.0652	344.3	0.9078	0.0182
0.0667	447.9	0.3109	0.0082
0.0769	398.3	0.7093	0.0148
0.0798	447.9	0.3383	0.0088
0.0856	377.9	0.819	0.0166
0.0875	422.7	0.573	0.0129
0.096	447.9	0.3702	0.0092
0.1002	344.3	0.9292	0.0186
0.1172	398.3	0.7644	0.0157
0.1215	447.9	0.397	0.0097
0.1241	422.7	0.6244	0.0136
0.1353	447.9	0.4062	0.0097
0.1427	344.3	0.9353	0.0187
0.1496	377.9	0.8625	0.0174
0.1534	447.9	0.4132	0.0099
0.16	398.3	0.7823	0.0159
0.1633	422.7	0.6533	0.0138
0.1718	447.9	0.4175	0.0099
0.1907	344.3	0.9364	0.0188
0.1957	447.9	0.4183	0.0101
0.1979	422.7	0.6632	0.014
0.1994	398.3	0.7938	0.0161
0.218	377.9	0.8688	0.0174
0.2279	447.9	0.4054	0.0101
0.2402	422.7	0.6627	0.014
0.2443	398.3	0.7956	0.0162
0.2524	344.3	0.9328	0.0187
0.2579	447.9	0.3888	0.0099
0.2864	422.7	0.6535	0.0137
0.2927	398.3	0.7898	0.0161
0.2934	377.9	0.859	0.0173
0.3237	422.7	0.6411	0.0138
0.3266	344.3	0.9233	0.0185
0.3378	398.3	0.7769	0.016
0.3551	422.7	0.6216	0.014
0.364	377.9	0.847	0.0172
0.3854	422.7	0.5989	0.0145
0.3879	398.3	0.7585	0.0158
0.3911	377.9	0.8368	0.0171
0.3921	344.3	0.9082	0.0183
0.4034	422.7	0.5787	0.0154
0.4239	377.9	0.8224	0.0168
0.4323	398.3	0.7377	0.0157
0.4729	377.9	0.8014	0.0169
0.4806	398.3	0.7087	0.0162
0.4867	344.3	0.8781	0.0181
0.503	398.3	0.6838	0.018
0.5352	377.9	0.7686	0.017
0.5626	377.9	0.7449	0.0177
0.5855	377.9	0.7277	0.0172
0.596	344.3	0.8218	0.0179
0.6341	344.3	0.7923	0.0188
