Measured thermophysical data. solubility of carbon dioxide in aqueous solutions of 2-aimno-2-hydroxymethyl-1,3-propanediol
Source: Fluid Phase Equilib., 2008, 10.1016/j.fluid.2008.04.003
Compound 1: 2-amino-2-(hydroxymethyl)-1,3-propanediol, C4H11NO3, InChI=1S/C4H11NO3/c5-4(1-6,2-7)3-8/h6-8H,1-3,5H2
Compound 2: water, H2O, InChI=1S/H2O/h1H2
Compound 3: nitrous oxide, N2O, InChI=1S/N2O/c1-2-3
Compound 4: carbon dioxide, CO2, InChI=1S/CO2/c2-1-3

System: 2-amino-2-(hydroxymethyl)-1,3-propanediol + water; phases: Liquid
Fixed: Pressure, kPa = 101
Property: Viscosity, Pa*s (Liquid); method: Capillary tube (Ostwald; Ubbelohde) method
Temperature, K	Mass fraction of 2-amino-2-(hydroxymethyl)-1,3-propanediol	Viscosity, Pa*s	uncertainty
283.15	0.0015	0.001315	1.2e-05
283.15	0.005	0.001354	1.2e-05
283.15	0.01	0.00136	1.2e-05
283.15	0.025	0.001422	1.3e-05
283.15	0.1	0.001802	1.6e-05
298.15	0.0015	0.000905	9e-06
298.15	0.005	0.000913	9e-06
298.15	0.01	0.000917	9e-06
298.15	0.025	0.000959	9e-06
298.15	0.1	0.001173	1.1e-05
313.15	0.0015	0.000656	7e-06
313.15	0.005	0.000662	7e-06
313.15	0.01	0.000669	7e-06
313.15	0.025	0.000696	7e-06
313.15	0.1	0.000857	8e-06

System: 2-amino-2-(hydroxymethyl)-1,3-propanediol + water; phases: Liquid
Fixed: Pressure, kPa = 101
Property: Mass density, kg/m3 (Liquid); method: PYCNOM:UFactor:4
Temperature, K	Mass fraction of 2-amino-2-(hydroxymethyl)-1,3-propanediol	Mass density, kg/m3	uncertainty
283.15	0.0015	1000.5	1.1
283.15	0.005	1001.6	1.1
283.15	0.01	1002.4	1.1
283.15	0.025	1006.8	1.1
283.15	0.1	1026.2	1.1
288.15	0.0015	999.9	1.1
288.15	0.005	1001.3	1.1
288.15	0.01	1001.8	1.1
288.15	0.025	1006	1.1
288.15	0.1	1025	1.1
293.15	0.0015	999.1	1
293.15	0.005	1000.5	1
293.15	0.01	1001	1
293.15	0.025	1005.1	1.1
293.15	0.1	1023.8	1.1
298.15	0.0015	997.9	1.1
298.15	0.005	999.4	1.1
298.15	0.01	1000	1.1
298.15	0.025	1003.8	1.1
298.15	0.1	1022.4	1.1
303.15	0.0015	996.6	1.1
303.15	0.005	997.8	1.1
303.15	0.01	998.7	1.1
303.15	0.025	1002.3	1.1
303.15	0.1	1020.8	1.1
308.15	0.0015	995	1.2
308.15	0.005	996	1.2
308.15	0.01	997.2	1.2
308.15	0.025	1000.7	1.2
308.15	0.1	1019.4	1.2
313.15	0.0015	993.1	1.2
313.15	0.005	993.6	1.2
313.15	0.01	995.4	1.2
313.15	0.025	998.7	1.2
313.15	0.1	1017.7	1.2

System: 2-amino-2-(hydroxymethyl)-1,3-propanediol + water + nitrous oxide; phases: Liquid, Gas
Fixed: Amount concentration (molarity), mol/dm3 of nitrous oxide = 0
Property: Henry's Law constant (amount concentration scale), kPa*dm3/mol of nitrous oxide (Liquid); method: pressure difference
Temperature, K	Mass fraction of 2-amino-2-(hydroxymethyl)-1,3-propanediol	Henry's Law constant (amount concentration scale), kPa*dm3/mol of nitrous oxide	uncertainty
293.15	0.0015	2580	52
293.15	0.005	2597	52
293.15	0.01	2604	52
293.15	0.025	2616	52
293.15	0.1	2785	56
298.15	0.0015	4114	82
298.15	0.005	4127	83
298.15	0.01	4129	83
298.15	0.025	4161	83
298.15	0.1	4345	87
313.15	0.0015	5864	117
313.15	0.005	5885	118
313.15	0.01	5893	118
313.15	0.025	5909	118
313.15	0.1	6171	123

System: 2-amino-2-(hydroxymethyl)-1,3-propanediol + carbon dioxide + water; phases: Liquid, Gas
Property: Amount concentration (molarity), mol/dm3 of carbon dioxide (Liquid); method: saturation method
Mass fraction of 2-amino-2-(hydroxymethyl)-1,3-propanediol	Temperature, K	Pressure, kPa of carbon dioxide	Amount concentration (molarity), mol/dm3 of carbon dioxide	uncertainty
0.0015	283.15	3.19	0.0133	0.0003
0.0015	283.15	5.35	0.0146	0.0003
0.0015	283.15	12	0.0185	0.0004
0.0015	283.15	25.9	0.0258	0.0005
0.0015	283.15	43.2	0.0342	0.0007
0.0015	283.15	61.9	0.043	0.0009
0.0015	283.15	64	0.0448	0.0009
0.0015	283.15	68.8	0.0468	0.0009
0.0015	298.15	2.04	0.0104	0.0002
0.0015	298.15	8.48	0.0143	0.0003
0.0015	298.15	13.4	0.0162	0.0003
0.0015	298.15	29.6	0.0219	0.0004
0.0015	298.15	38	0.0248	0.0005
0.0015	298.15	47.9	0.028	0.0006
0.0015	298.15	68.9	0.0347	0.0007
0.0015	298.15	70.2	0.0349	0.0007
0.0015	313.15	1.91	0.0075	0.0002
0.0015	313.15	5.62	0.0108	0.0002
0.0015	313.15	10.8	0.0129	0.0003
0.0015	313.15	27.1	0.0179	0.0004
0.0015	313.15	37.9	0.0206	0.0004
0.0015	313.15	48.3	0.0231	0.0005
0.0015	313.15	71.8	0.0281	0.0006
0.0015	313.15	73.4	0.0283	0.0006
0.005	283.15	4.25	0.0384	0.0008
0.005	283.15	10.1	0.0433	0.0009
0.005	283.15	22.3	0.0502	0.001
0.005	283.15	44.8	0.0615	0.0012
0.005	283.15	67.7	0.0725	0.0015
0.005	283.15	68.7	0.0734	0.0015
0.005	298.15	3.83	0.0311	0.0006
0.005	298.15	6.37	0.035	0.0007
0.005	298.15	10.2	0.0382	0.0008
0.005	298.15	23.7	0.0455	0.0009
0.005	298.15	47.8	0.0535	0.0011
0.005	298.15	73.1	0.0616	0.0012
0.005	313.15	2.73	0.0193	0.0004
0.005	313.15	5.88	0.0257	0.0005
0.005	313.15	11.4	0.0318	0.0006
0.005	313.15	25.8	0.0396	0.0008
0.005	313.15	49.2	0.0469	0.0009
0.005	313.15	73.6	0.0529	0.0011
0.01	283.15	3.65	0.0672	0.0013
0.01	283.15	9.18	0.0765	0.0015
0.01	283.15	15.7	0.0824	0.0016
0.01	283.15	23.1	0.0869	0.0017
0.01	283.15	47.7	0.1009	0.002
0.01	283.15	74.1	0.1129	0.0023
0.01	298.15	3.32	0.0503	0.001
0.01	298.15	4.53	0.0557	0.0011
0.01	298.15	6.33	0.0604	0.0012
0.01	298.15	7.34	0.0626	0.0013
0.01	298.15	12.93	0.0702	0.0014
0.01	298.15	20.92	0.0767	0.0015
0.01	298.15	48.76	0.0905	0.0018
0.01	298.15	72.96	0.0985	0.002
0.01	313.15	2.26	0.0291	0.0006
0.01	313.15	6.15	0.0432	0.0009
0.01	313.15	12.2	0.0547	0.0011
0.01	313.15	20.7	0.0633	0.0013
0.01	313.15	49.7	0.078	0.0016
0.01	313.15	74	0.0849	0.0017
0.025	283.15	2.98	0.1344	0.0027
0.025	283.15	7.29	0.1645	0.0033
0.025	283.15	15.4	0.1844	0.0037
0.025	283.15	27.7	0.1965	0.0039
0.025	283.15	49.3	0.2139	0.0043
0.025	283.15	69.7	0.2226	0.0045
0.025	298.15	2.89	0.0925	0.0019
0.025	298.15	6.8	0.1253	0.0025
0.025	298.15	11.3	0.1443	0.0029
0.025	298.15	21.7	0.1659	0.0033
0.025	298.15	53.5	0.1924	0.0038
0.025	298.15	72	0.1994	0.004
0.025	313.15	3.77	0.0654	0.0013
0.025	313.15	4.91	0.0734	0.0015
0.025	313.15	6.69	0.0848	0.0017
0.025	313.15	13.9	0.1097	0.0022
0.025	313.15	29.7	0.1397	0.0028
0.025	313.15	51.8	0.1608	0.0032
0.025	313.15	74.8	0.1685	0.0034
