Measured thermophysical data. The pressure dependence of viscosity for 2,2,4 trimethylhexane to 1 GPa along the 20 C isotherm
Source: Fluid Phase Equilib., 2019, 10.1016/j.fluid.2019.01.021
Compound 1: 2,2,4-trimethylhexane, C9H20, InChI=1S/C9H20/c1-6-8(2)7-9(3,4)5/h8H,6-7H2,1-5H3, purity 98%
Compound 2: 2,2,4-trimethylpentane, C8H18, InChI=1S/C8H18/c1-7(2)6-8(3,4)5/h7H,6H2,1-5H3, purity 98%

System: 2,2,4-trimethylhexane; phases: Liquid
Fixed: Temperature, K = 293.15
Property: Viscosity, Pa*s (Liquid); method: Capillary tube (Ostwald; Ubbelohde) method
Pressure, kPa	Viscosity, Pa*s	uncertainty
100	0.00064	6.4e-05
25000	0.000844	8.4e-05
50000	0.001101	0.000108
100000	0.00171	0.00017
150000	0.00254	0.00025
250000	0.00531	0.00056
350000	0.01067	0.0013
400000	0.015	0.0021
500000	0.0309	0.0048
600000	0.0629	0.0117
700000	0.1269	0.0294
800000	0.264	0.079
900000	0.558	0.224
1000000	1.187	0.658

System: 2,2,4-trimethylpentane; phases: Liquid
Fixed: Temperature, K = 298.15
Property: Viscosity, Pa*s (Liquid); method: Capillary tube (Ostwald; Ubbelohde) method
Pressure, kPa	Viscosity, Pa*s	uncertainty
100	0.00048	4.7e-05
26000	0.000641	6.1e-05
50000	0.000809	7.6e-05
100000	0.001207	0.000112
200000	0.00235	0.00023
312000	0.00441	0.00047
407000	0.0077	0.00089
499000	0.01263	0.00161
600000	0.0213	0.003
700000	0.0364	0.0058
800000	0.0615	0.0114
900000	0.1048	0.0223
