Measured thermophysical data. Liquid liquid equilibria of water + 2,3-butanediol + ethyl acetate at several temperatures
Source: Fluid Phase Equilib., 2008, 10.1016/j.fluid.2008.01.009
Compound 1: 2,3-butanediol, C4H10O2, InChI=1S/C4H10O2/c1-3(5)4(2)6/h3-6H,1-2H3, purity 99.2%
Compound 2: ethyl acetate, C4H8O2, InChI=1S/C4H8O2/c1-3-6-4(2)5/h3H2,1-2H3, purity 99.5%
Compound 3: water, H2O, InChI=1S/H2O/h1H2

System: 2,3-butanediol; phases: Liquid, Gas
Property: Normal boiling temperature, K (Liquid); method: Distillation
Normal boiling temperature, K	uncertainty
454.21	0.2

System: 2,3-butanediol; phases: Liquid
Property: Refractive index (Na D-line) (Liquid); method: Standard Abbe refractometry
Temperature, K	Pressure, kPa	Refractive index (Na D-line)	uncertainty
293.15	101.325	1.3701	0.0007

System: ethyl acetate + 2,3-butanediol + water; phases: Liquid mixture 1, Liquid mixture 2
Fixed: Pressure, kPa = 101.3
Property: Mass fraction of 2,3-butanediol (Liquid mixture 1); method: Chromatography
Property: Mass fraction of 2,3-butanediol (Liquid mixture 2); method: Chromatography
Property: Mass fraction of water (Liquid mixture 2); method: Chromatography
Temperature, K	Mass fraction of water	Mass fraction of 2,3-butanediol	uncertainty	Mass fraction of 2,3-butanediol	uncertainty	Mass fraction of water	uncertainty
298.15	0.0572	0.0703	0.0047	0.2953	0.0202	0.5687	
298.15	0.0437	0.028	0.0055	0.2229	0.0201	0.684	
298.15	0.0622	0.0687	0.0022	0.292	0.0202	0.5741	
298.15	0.0563	0.0611	0.0045	0.2786	0.0201	0.6013	
298.15	0.037	0.0117	0.0053	0.1787	0.0201	0.738	
298.15	0.0496	0.0439	0.0056	0.249	0.0201	0.6447	
308.15	0.0847	0.0976	0.0083	0.2775	0.0203	0.5471	
308.15	0.0544	0.0361	0.0056	0.2013	0.0202	0.6511	
308.15	0.0819	0.0864	0.0083	0.2686	0.0202	0.5478	
308.15	0.0815	0.0767	0.0133	0.2539	0.0201	0.5643	
308.15	0.0493	0.019	0.0077	0.153	0.0201	0.7011	
308.15	0.0642	0.0578	0.0034	0.2361	0.0201	0.6148	
318.15	0.1553	0.1389	0.0026	0.255	0.0201	0.5039	
318.15	0.0638	0.0475	0.006	0.1871	0.0201	0.684	
318.15	0.1114	0.1112	0.0026	0.2542	0.0201	0.5491	
318.15	0.0977	0.0969	0.0046	0.2305	0.0201	0.5736	
318.15	0.0569	0.0281	0.006	0.1282	0.0201	0.7389	
318.15	0.0952	0.0918	0.0046	0.2245	0.0201	0.5902	

System: ethyl acetate + 2,3-butanediol + water; phases: Liquid mixture 1, Liquid mixture 2
Fixed: Pressure, kPa = 101
Property: Mass fraction of 2,3-butanediol (Liquid mixture 1); method: Titration method
Temperature, K	Mass fraction of water	Mass fraction of 2,3-butanediol	uncertainty
298.15	0.031	0	0.0001
298.15	0.046	0.0511	0.0054
298.15	0.0608	0.0721	0.0046
298.15	0.0951	0.1391	0.0057
298.15	0.1089	0.1547	0.0053
298.15	0.129	0.1735	0.0058
298.15	0.1478	0.1939	0.0063
298.15	0.1788	0.2186	0.007
298.15	0.2094	0.2391	0.0076
298.15	0.2491	0.2645	0.0083
298.15	0.2768	0.281	0.0088
298.15	0.3051	0.295	0.0092
298.15	0.3337	0.3082	0.0096
298.15	0.3364	0.3067	0.0096
298.15	0.3596	0.3164	0.0098
298.15	0.3986	0.3251	0.0101
298.15	0.4187	0.3267	0.0101
298.15	0.4387	0.3237	0.0101
298.15	0.4703	0.3204	0.01
298.15	0.5401	0.3031	0.0094
298.15	0.6182	0.2655	0.0083
298.15	0.6805	0.2255	0.0072
298.15	0.8365	0.076	0.0035
298.15	0.919	0	0.0001
308.15	0.0344	0	0.0001
308.15	0.0425	0.0344	0.0049
308.15	0.0684	0.0786	0.0042
308.15	0.0783	0.0857	0.004
308.15	0.0951	0.1011	0.0039
308.15	0.1498	0.1503	0.005
308.15	0.2202	0.212	0.007
308.15	0.2812	0.2505	0.0079
308.15	0.3214	0.2741	0.0086
308.15	0.3404	0.2806	0.0087
308.15	0.3555	0.2858	0.0089
308.15	0.3703	0.2901	0.009
308.15	0.3856	0.2935	0.0091
308.15	0.3996	0.2986	0.0093
308.15	0.4822	0.2882	0.0089
308.15	0.5059	0.2818	0.0088
308.15	0.5497	0.2732	0.0085
308.15	0.6017	0.2393	0.0076
308.15	0.7088	0.1687	0.0054
308.15	0.7402	0.1441	0.0049
308.15	0.7709	0.119	0.0042
308.15	0.8162	0.084	0.0035
308.15	0.8789	0.0291	0.0028
308.15	0.9148	0	0.0001
318.15	0.0413	0	0.0001
318.15	0.0529	0.0339	0.0052
318.15	0.0676	0.0624	0.0041
318.15	0.0869	0.0869	0.0037
318.15	0.1037	0.0975	0.0038
318.15	0.1251	0.1166	0.0041
318.15	0.1997	0.1698	0.0055
318.15	0.2468	0.2012	0.0064
318.15	0.3065	0.2444	0.0077
318.15	0.3312	0.2537	0.0079
318.15	0.3513	0.2604	0.0081
318.15	0.3737	0.2661	0.0083
318.15	0.389	0.2697	0.0084
318.15	0.4076	0.272	0.0085
318.15	0.4203	0.2755	0.0086
318.15	0.438	0.2708	0.0084
318.15	0.4698	0.2661	0.0083
318.15	0.4882	0.2704	0.0084
318.15	0.5052	0.2634	0.0082
318.15	0.5909	0.2312	0.0072
318.15	0.6192	0.2181	0.0069
318.15	0.6951	0.1736	0.0056
318.15	0.8254	0.0674	0.0032
318.15	0.9016	0	0.0001
