Measured thermophysical data. Isobaric vapor liquid equilibria for systems composed by 2-ethoxy-2-methylbutane, methanol or ethanol and water at 101.32 kPa
Source: Fluid Phase Equilib., 2005, 10.1016/j.fluid.2005.04.003
Compound 1: 1,1-dimethylpropyl ethyl ether, C7H16O, InChI=1S/C7H16O/c1-5-7(3,4)8-6-2/h5-6H2,1-4H3, purity 99.9%
Compound 2: methanol, CH4O, InChI=1S/CH4O/c1-2/h2H,1H3, purity 99.5%
Compound 3: ethanol, C2H6O, InChI=1S/C2H6O/c1-2-3/h3H,2H2,1H3, purity 99.5%
Compound 4: water, H2O, InChI=1S/H2O/h1H2

System: 1,1-dimethylpropyl ethyl ether; phases: Liquid, Gas
Property: Normal boiling temperature, K (Liquid); method: CCELL:UFactor:2
Normal boiling temperature, K	uncertainty
374.57	0.08

System: 1,1-dimethylpropyl ethyl ether; phases: Liquid
Property: Refractive index (Na D-line) (Liquid); method: Standard Abbe refractometry
Temperature, K	Pressure, kPa	Refractive index (Na D-line)	uncertainty
298.15	101.325	1.38857	0.00072

System: 1,1-dimethylpropyl ethyl ether; phases: Liquid
Property: Mass density, kg/m3 (Liquid); method: VIBTUB:UFactor:4
Temperature, K	Pressure, kPa	Mass density, kg/m3	uncertainty
298.15	101.325	760.57	0.66

System: methanol; phases: Liquid, Gas
Property: Normal boiling temperature, K (Liquid); method: CCELL:UFactor:2:FP
Normal boiling temperature, K	uncertainty
337.5	0.08

System: methanol; phases: Liquid
Property: Refractive index (Na D-line) (Liquid); method: Standard Abbe refractometry
Temperature, K	Pressure, kPa	Refractive index (Na D-line)	uncertainty
298.15	101.325	1.3264	0.0007

System: methanol; phases: Liquid
Property: Mass density, kg/m3 (Liquid); method: VIBTUB:UFactor:4
Temperature, K	Pressure, kPa	Mass density, kg/m3	uncertainty
298.15	101.325	786.63	0.63

System: ethanol; phases: Liquid, Gas
Property: Normal boiling temperature, K (Liquid); method: CCELL:UFactor:2:FP
Normal boiling temperature, K	uncertainty
351.44	0.08

System: ethanol; phases: Liquid
Property: Refractive index (Na D-line) (Liquid); method: Standard Abbe refractometry
Temperature, K	Pressure, kPa	Refractive index (Na D-line)	uncertainty
298.15	101.325	1.3592	0.00073

System: ethanol; phases: Liquid
Property: Mass density, kg/m3 (Liquid); method: VIBTUB:UFactor:4
Temperature, K	Pressure, kPa	Mass density, kg/m3	uncertainty
298.15	101.325	785.22	0.64

System: methanol + 1,1-dimethylpropyl ethyl ether; phases: Liquid, Gas
Fixed: Pressure, kPa = 101.325
Property: Boiling temperature at pressure P, K (Liquid); method: CCELL:UFactor:2
Mole fraction of methanol	Boiling temperature at pressure P, K	uncertainty
0.023	367.8	1.16
0.0618	360.35	1.1
0.1119	351.58	0.68
0.1849	346.38	0.41
0.2187	344.79	0.29
0.2583	343.22	0.25
0.3137	341.44	0.17
0.4999	338.67	0.14
0.5406	338.26	0.14
0.6979	337.13	0.14
0.7269	336.89	0.14
0.7337	336.95	0.14
0.7668	336.72	0.13
0.8065	336.6	0.13
0.8273	336.54	0.13
0.8481	336.52	0.13
0.8683	336.47	0.13
0.8864	336.47	0.13
0.9013	336.49	0.13
0.9509	336.68	0.14
0.9936	337.28	0.16
0.9989	337.48	0.13

System: methanol + 1,1-dimethylpropyl ethyl ether; phases: Gas, Liquid
Fixed: Pressure, kPa = 101.325
Property: Mole fraction of methanol (Gas); method: Density and Index of Refraction
Mole fraction of methanol	Mole fraction of methanol	uncertainty
0.023	0.1945	0.0322
0.0618	0.3992	0.0262
0.1119	0.5753	0.0139
0.1849	0.6642	0.0087
0.2187	0.6831	0.007
0.2583	0.7052	0.0067
0.3137	0.7267	0.0063
0.4999	0.7712	0.0063
0.5406	0.7811	0.0062
0.6979	0.81	0.0066
0.7269	0.8228	0.0068
0.7337	0.8193	0.0068
0.7668	0.8329	0.0064
0.8065	0.8442	0.0063
0.8273	0.8484	0.0063
0.8481	0.8572	0.0065
0.8683	0.8642	0.0065
0.8864	0.8731	0.0068
0.9013	0.8811	0.0074
0.9509	0.9184	0.0086
0.9936	0.9765	0.0101
0.9989	0.9922	0.0062

System: ethanol + 1,1-dimethylpropyl ethyl ether; phases: Liquid, Gas
Fixed: Pressure, kPa = 101.325
Property: Boiling temperature at pressure P, K (Liquid); method: CCELL:UFactor:2
Mole fraction of ethanol	Boiling temperature at pressure P, K	uncertainty
0.0592	365.3	0.61
0.0994	361.28	0.4
0.2234	354.6	0.32
0.2631	353.58	0.19
0.3079	352.68	0.18
0.3427	352.02	0.16
0.382	351.52	0.15
0.4301	350.95	0.14
0.495	350.35	0.14
0.5436	349.91	0.14
0.5817	349.7	0.13
0.6144	349.56	0.13
0.6499	349.4	0.13
0.7026	349.26	0.13
0.7315	349.22	0.13
0.7631	349.2	0.13
0.7803	349.22	0.13
0.8039	349.24	0.13
0.8303	349.3	0.13
0.8531	349.36	0.13
0.8757	349.48	0.14
0.8979	349.64	0.14
0.917	349.8	0.15
0.9319	350.03	0.16
0.9423	350.17	0.16
0.9614	350.45	0.16
0.9741	350.67	0.18
0.9806	350.85	0.19
0.9903	351.03	0.18
0.9968	351.17	0.15

System: ethanol + 1,1-dimethylpropyl ethyl ether; phases: Gas, Liquid
Fixed: Pressure, kPa = 101.325
Property: Mole fraction of ethanol (Gas); method: Density and Index of Refraction
Mole fraction of ethanol	Mole fraction of ethanol	uncertainty
0.0592	0.3079	0.0172
0.0994	0.4159	0.0116
0.2234	0.59	0.0095
0.2631	0.6064	0.0065
0.3079	0.6224	0.0065
0.3427	0.6343	0.0063
0.382	0.6421	0.0063
0.4301	0.6576	0.0063
0.495	0.6729	0.0064
0.5436	0.6916	0.0064
0.5817	0.7026	0.0063
0.6144	0.7099	0.0063
0.6499	0.7208	0.0065
0.7026	0.7421	0.0065
0.7315	0.7527	0.0064
0.7631	0.7631	0.0064
0.7803	0.77	0.0068
0.8039	0.7837	0.0069
0.8303	0.7972	0.0071
0.8531	0.8138	0.0075
0.8757	0.8303	0.0078
0.8979	0.8499	0.0083
0.917	0.8692	0.009
0.9319	0.8876	0.0097
0.9423	0.9011	0.0094
0.9614	0.9233	0.0102
0.9741	0.9455	0.0124
0.9806	0.9582	0.0124
0.9903	0.9748	0.011
0.9968	0.9827	0.0072

System: methanol + 1,1-dimethylpropyl ethyl ether + water; phases: Liquid, Gas
Fixed: Pressure, kPa = 101.325
Property: Mole fraction of 1,1-dimethylpropyl ethyl ether (Liquid); method: Density and Index of Refraction
Property: Mole fraction of 1,1-dimethylpropyl ethyl ether (Gas); method: Density and Index of Refraction
Property: Mole fraction of methanol (Gas); method: Density and Index of Refraction
Temperature, K	Mole fraction of methanol	Mole fraction of 1,1-dimethylpropyl ethyl ether	uncertainty	Mole fraction of 1,1-dimethylpropyl ethyl ether	uncertainty	Mole fraction of methanol	uncertainty
336.94	0.8118	0.1537	0.006	0.147	0.006	0.8395	
337.05	0.7822	0.1785	0.006	0.1576	0.006	0.8259	
337.16	0.8377	0.1131	0.006	0.134	0.006	0.8432	
337.18	0.76	0.1938	0.006	0.1651	0.006	0.8138	
337.23	0.743	0.2112	0.006	0.17	0.006	0.8086	
337.3	0.7314	0.2179	0.006	0.1727	0.006	0.8027	
337.31	0.7988	0.141	0.006	0.1513	0.006	0.8187	
337.36	0.8487	0.0889	0.006	0.1226	0.006	0.8502	
337.4	0.922	0.0419	0.006	0.0711	0.006	0.9148	
337.46	0.8167	0.1085	0.006	0.1387	0.006	0.8268	
337.47	0.961	0.0206	0.006	0.0374	0.006	0.9559	
337.51	0.7801	0.1405	0.006	0.1551	0.006	0.8092	
337.55	0.9348	0.0298	0.006	0.0551	0.006	0.9313	
337.57	0.7648	0.1523	0.006	0.1606	0.006	0.8	
337.58	0.8322	0.0872	0.006	0.1267	0.006	0.8377	
337.59	0.6802	0.2596	0.006	0.1868	0.006	0.7802	
337.7	0.7358	0.174	0.006	0.1703	0.006	0.7849	
337.71	0.8427	0.0717	0.006	0.1145	0.006	0.8492	
337.74	0.9745	0.008	0.006	0.0163	0.006	0.9772	
337.74	0.9743	0.0078	0.006	0.0159	0.006	0.9775	
337.76	0.9466	0.0182	0.006	0.0364	0.006	0.9504	
337.84	0.8101	0.0884	0.006	0.1339	0.006	0.8205	
337.96	0.6216	0.3094	0.006	0.1999	0.006	0.756	
337.99	0.8017	0.0848	0.006	0.1348	0.006	0.8147	
338.11	0.7779	0.0959	0.006	0.1472	0.006	0.7952	
338.3	0.8654	0.036	0.006	0.0766	0.006	0.884	
338.3	0.5879	0.3252	0.006	0.2084	0.006	0.7296	
338.34	0.749	0.1	0.006	0.158	0.006	0.772	
338.41	0.6763	0.1721	0.006	0.1887	0.006	0.7334	
338.43	0.5537	0.3656	0.006	0.2135	0.006	0.7265	
338.56	0.5427	0.3701	0.006	0.2172	0.006	0.7146	
338.61	0.5297	0.3608	0.006	0.2167	0.006	0.7061	
338.62	0.7001	0.1218	0.006	0.1821	0.006	0.7313	
338.83	0.5143	0.3866	0.006	0.2235	0.006	0.6936	
338.83	0.6175	0.2049	0.006	0.2081	0.006	0.693	
338.86	0.6729	0.1242	0.006	0.1926	0.006	0.7085	
338.87	0.8095	0.0395	0.006	0.0944	0.006	0.8441	
338.89	0.463	0.4901	0.006	0.229	0.006	0.7238	
338.96	0.5071	0.3828	0.006	0.2269	0.006	0.6833	
338.99	0.4581	0.4889	0.006	0.2301	0.006	0.714	
339.02	0.8182	0.0317	0.006	0.0805	0.006	0.8591	
339.02	0.5948	0.2141	0.006	0.2176	0.006	0.6724	
339.05	0.6696	0.119	0.006	0.1928	0.006	0.7051	
339.13	0.4487	0.4902	0.006	0.2341	0.006	0.6973	
339.19	0.642	0.1203	0.006	0.2045	0.006	0.6814	
339.27	0.634	0.1123	0.006	0.2059	0.006	0.673	
339.29	0.5635	0.2254	0.006	0.2255	0.006	0.6519	
339.35	0.4804	0.3782	0.006	0.2344	0.006	0.6465	
339.35	0.4573	0.4234	0.006	0.2363	0.006	0.6541	
339.39	0.4134	0.5359	0.006	0.2387	0.006	0.7008	
339.49	0.7671	0.0348	0.006	0.0999	0.006	0.8204	
339.52	0.6047	0.1116	0.006	0.2181	0.006	0.6489	
339.52	0.4662	0.3785	0.006	0.2394	0.006	0.6301	
339.53	0.4025	0.5391	0.006	0.2419	0.006	0.6839	
339.55	0.5355	0.2339	0.006	0.2341	0.006	0.6295	
339.56	0.4572	0.3951	0.006	0.2407	0.006	0.6286	
339.58	0.5221	0.2594	0.006	0.236	0.006	0.6266	
339.61	0.8268	0.0158	0.006	0.0464	0.006	0.8932	
339.65	0.4393	0.4252	0.006	0.2427	0.006	0.6288	
339.67	0.5018	0.2815	0.006	0.24	0.006	0.6174	
339.75	0.3873	0.5446	0.006	0.2454	0.006	0.6615	
339.75	0.5038	0.2635	0.006	0.2416	0.006	0.6116	
339.77	0.5697	0.1124	0.006	0.234	0.006	0.6175	
339.85	0.5976	0.0736	0.006	0.2128	0.006	0.6496	
339.88	0.719	0.0368	0.006	0.1198	0.006	0.782	
339.9	0.5457	0.1234	0.006	0.245	0.006	0.5982	
339.91	0.5665	0.0885	0.006	0.2314	0.006	0.6185	
339.92	0.3953	0.4758	0.006	0.2498	0.006	0.6125	
339.95	0.3575	0.6082	0.006	0.2502	0.006	0.6991	
339.99	0.5507	0.0863	0.006	0.2397	0.006	0.6054	
340.04	0.546	0.078	0.006	0.2414	0.006	0.6023	
340.14	0.343	0.6133	0.006	0.2528	0.006	0.6744	
340.2	0.5952	0.0517	0.006	0.199	0.006	0.6618	
340.36	0.6847	0.032	0.006	0.1243	0.006	0.7641	
340.39	0.3121	0.6195	0.006	0.2627	0.006	0.6205	
340.44	0.5359	0.0449	0.006	0.2275	0.006	0.6152	
340.45	0.5833	0.0435	0.006	0.1966	0.006	0.6605	
340.5	0.3188	0.627	0.006	0.2618	0.006	0.6323	
340.62	0.3085	0.6314	0.006	0.264	0.006	0.6154	
340.79	0.5254	0.0349	0.006	0.2189	0.006	0.6212	
340.8	0.6305	0.0301	0.006	0.1452	0.006	0.7243	
340.84	0.5434	0.035	0.006	0.2056	0.006	0.6395	
340.92	0.5951	0.0317	0.006	0.1653	0.006	0.6932	
340.93	0.2801	0.6554	0.006	0.2715	0.006	0.5952	
340.94	0.7427	0.0119	0.006	0.0519	0.006	0.8531	
341.03	0.568	0.0294	0.006	0.1782	0.006	0.6765	
341.05	0.2864	0.6749	0.006	0.2685	0.006	0.6542	
341.11	0.6634	0.0219	0.006	0.1059	0.006	0.7731	
341.15	0.5332	0.0282	0.006	0.2008	0.006	0.6427	
341.28	0.2624	0.6884	0.006	0.2751	0.006	0.6133	
341.36	0.5399	0.026	0.006	0.1851	0.006	0.6574	
341.49	0.6688	0.016	0.006	0.0849	0.006	0.7943	
341.73	0.2293	0.7076	0.006	0.2853	0.006	0.5571	
341.88	0.6014	0.0176	0.006	0.1179	0.006	0.7388	
341.96	0.675	0.0102	0.006	0.0581	0.006	0.8204	
343.82	0.1828	0.7895	0.006	0.3144	0.006	0.5836	
344.59	0.176	0.811	0.006	0.3268	0.006	0.6137	
345.82	0.1505	0.8354	0.006	0.3461	0.006	0.5962	
347.69	0.1281	0.8636	0.006	0.3771	0.006	0.5751	

System: ethanol + 1,1-dimethylpropyl ethyl ether + water; phases: Liquid, Gas
Fixed: Pressure, kPa = 101.325
Property: Mole fraction of 1,1-dimethylpropyl ethyl ether (Liquid); method: Density and Index of Refraction
Property: Mole fraction of 1,1-dimethylpropyl ethyl ether (Gas); method: Density and Index of Refraction
Property: Mole fraction of ethanol (Gas); method: Density and Index of Refraction
Temperature, K	Mole fraction of ethanol	Mole fraction of 1,1-dimethylpropyl ethyl ether	uncertainty	Mole fraction of 1,1-dimethylpropyl ethyl ether	uncertainty	Mole fraction of ethanol	uncertainty
347.03	0.4307	0.2687	0.006	0.3031	0.006	0.4074	
347.11	0.4483	0.2363	0.006	0.2984	0.006	0.4143	
347.16	0.3966	0.3383	0.006	0.3059	0.006	0.4105	
347.17	0.4663	0.2057	0.006	0.291	0.006	0.425	
347.18	0.4777	0.2485	0.006	0.2908	0.006	0.4364	
347.18	0.37	0.3872	0.006	0.3122	0.006	0.4033	
347.19	0.4428	0.1625	0.006	0.2943	0.006	0.4115	
347.25	0.4582	0.1672	0.006	0.2906	0.006	0.419	
347.27	0.4933	0.2521	0.006	0.2871	0.006	0.4508	
347.3	0.4852	0.1741	0.006	0.2817	0.006	0.4369	
347.31	0.5014	0.1881	0.006	0.277	0.006	0.4515	
347.39	0.4984	0.1649	0.006	0.2754	0.006	0.4472	
347.43	0.43	0.1048	0.006	0.2837	0.006	0.4188	
347.43	0.4508	0.3369	0.006	0.2952	0.006	0.4602	
347.45	0.4341	0.3625	0.006	0.2997	0.006	0.455	
347.47	0.4108	0.3983	0.006	0.3063	0.006	0.4459	
347.48	0.5534	0.2213	0.006	0.2683	0.006	0.4964	
347.49	0.4652	0.1187	0.006	0.273	0.006	0.4371	
347.55	0.495	0.1261	0.006	0.2646	0.006	0.4528	
347.57	0.3874	0.4414	0.006	0.3135	0.006	0.4411	
347.58	0.4707	0.1099	0.006	0.2695	0.006	0.4408	
347.59	0.5765	0.2297	0.006	0.2639	0.006	0.5218	
347.65	0.5344	0.1318	0.006	0.2531	0.006	0.4787	
347.72	0.3882	0.0606	0.006	0.2769	0.006	0.4157	
347.72	0.5992	0.1948	0.006	0.25	0.006	0.5385	
347.81	0.3765	0.0514	0.006	0.2763	0.006	0.4149	
347.81	0.3268	0.5249	0.006	0.3266	0.006	0.4231	
347.84	0.5618	0.1226	0.006	0.2405	0.006	0.4989	
347.86	0.6277	0.2015	0.006	0.2462	0.006	0.5652	
347.9	0.4867	0.3691	0.006	0.2936	0.006	0.5186	
348	0.606	0.1218	0.006	0.2234	0.006	0.5392	
348.06	0.5301	0.3401	0.006	0.2846	0.006	0.5524	
348.09	0.67	0.1777	0.006	0.229	0.006	0.6051	
348.11	0.4342	0.443	0.006	0.3102	0.006	0.5064	
348.13	0.545	0.3291	0.006	0.2813	0.006	0.564	
348.17	0.6437	0.1186	0.006	0.2096	0.006	0.5745	
348.35	0.383	0.0391	0.006	0.2507	0.006	0.4402	
348.38	0.6138	0.2822	0.006	0.2617	0.006	0.6199	
348.39	0.3986	0.4918	0.006	0.3217	0.006	0.5002	
348.41	0.7173	0.1686	0.006	0.2156	0.006	0.655	
348.42	0.7163	0.1808	0.006	0.22	0.006	0.6603	
348.43	0.7172	0.1508	0.006	0.2079	0.006	0.6483	
348.44	0.7106	0.1239	0.006	0.1961	0.006	0.6357	
348.54	0.4898	0.4141	0.006	0.3024	0.006	0.5661	
348.6	0.3687	0.0308	0.006	0.247	0.006	0.4414	
348.63	0.7477	0.1332	0.006	0.1916	0.006	0.6805	
348.64	0.6511	0.2708	0.006	0.2547	0.006	0.6611	
348.69	0.6124	0.3153	0.006	0.2707	0.006	0.6461	
348.71	0.6997	0.2209	0.006	0.2326	0.006	0.6856	
348.78	0.62	0.0666	0.006	0.1785	0.006	0.5752	
348.81	0.4468	0.466	0.006	0.3151	0.006	0.5584	
348.84	0.5179	0.4065	0.006	0.2987	0.006	0.6032	
348.84	0.5618	0.37	0.006	0.2883	0.006	0.6305	
348.88	0.5428	0.0539	0.006	0.1907	0.006	0.5335	
348.89	0.4676	0.0373	0.006	0.211	0.006	0.4879	
348.92	0.5926	0.0577	0.006	0.1766	0.006	0.5632	
348.93	0.4047	0.0337	0.006	0.2221	0.006	0.469	
348.93	0.3654	0.548	0.006	0.334	0.006	0.5078	
349.05	0.5673	0.0501	0.006	0.1745	0.006	0.5542	
349.09	0.4761	0.0349	0.006	0.199	0.006	0.5055	
349.11	0.6304	0.0539	0.006	0.1587	0.006	0.5951	
349.17	0.828	0.1346	0.006	0.179	0.006	0.777	
349.24	0.7167	0.0583	0.006	0.1377	0.006	0.6647	
349.24	0.2346	0.6739	0.006	0.3632	0.006	0.4139	
349.26	0.5548	0.0438	0.006	0.17	0.006	0.5548	
349.28	0.4813	0.4627	0.006	0.315	0.006	0.6099	
349.35	0.3466	0.5766	0.006	0.3423	0.006	0.5153	
349.37	0.2986	0.6224	0.006	0.353	0.006	0.4742	
349.38	0.6813	0.0478	0.006	0.1341	0.006	0.6419	
349.51	0.8654	0.0951	0.006	0.1443	0.006	0.8118	
349.52	0.6386	0.0417	0.006	0.1343	0.006	0.6199	
349.52	0.3392	0.5881	0.006	0.3469	0.006	0.5156	
349.63	0.7284	0.0433	0.006	0.1141	0.006	0.6919	
349.66	0.8046	0.0519	0.006	0.1091	0.006	0.7523	
349.66	0.4347	0.5136	0.006	0.3301	0.006	0.5987	
349.76	0.8859	0.0744	0.006	0.1223	0.006	0.8343	
349.77	0.3287	0.605	0.006	0.3516	0.006	0.5227	
349.94	0.8123	0.0386	0.006	0.0943	0.006	0.7601	
350.09	0.809	0.0341	0.006	0.0803	0.006	0.7716	
350.14	0.8511	0.0327	0.006	0.072	0.006	0.8134	
350.18	0.8757	0.0462	0.006	0.0758	0.006	0.8479	
350.56	0.8924	0.0283	0.006	0.0438	0.006	0.8799	
350.57	0.2574	0.6831	0.006	0.3768	0.006	0.4871	
350.77	0.9004	0.0191	0.006	0.0437	0.006	0.872	
351.21	0.9553	0.0052	0.0052	0.0113	0.006	0.9467	
351.81	0.2267	0.7317	0.006	0.4027	0.006	0.4956	
353.08	0.1809	0.7796	0.006	0.4314	0.006	0.4764	
354.82	0.1392	0.8238	0.006	0.4673	0.0061	0.4559	
355.37	0.1424	0.8348	0.006	0.483	0.0061	0.4575	
355.66	0.1347	0.8395	0.006	0.4876	0.0061	0.4502	
356.75	0.1077	0.8583	0.006	0.5094	0.0061	0.4361	
357.91	0.0838	0.8759	0.006	0.5341	0.0061	0.4199	
360	0.0474	0.9214	0.006	0.5944	0.006	0.3128	
372.4	0.0022	0.9889	0.006	0.9384	0.006	0.0547	
