Measured thermophysical data. Densities, viscosities and derived thermophysical properties of water-saturated imidazolium-based ionic liquids
Source: Fluid Phase Equilib., 2016, 10.1016/j.fluid.2015.05.023
Compound 1: 1,3-dimethylimidazolium bis((trifluoromethyl)sulfonyl)amide, C7H9F6N3O4S2, InChI=1S/C5H9N2.C2F6NO4S2/c1-6-3-4-7(2)5-6;3-1(4,5)14(10,11)9-15(12,13)2(6,7)8/h3-5H,1-2H3;/q+1;-1, purity 99%
Compound 2: 1,3-diethylimidazolium bis[(trifluoromethyl)sulfonyl]imide, C9H13F6N3O4S2, InChI=1S/C7H13N2.C2F6NO4S2/c1-3-8-5-6-9(4-2)7-8;3-1(4,5)14(10,11)9-15(12,13)2(6,7)8/h5-7H,3-4H2,1-2H3;/q+1;-1, purity 99%
Compound 3: 1,3-dipropyl-1H-imidazol-3-ium bis((trifluoromethyl)sulfonyl)amide, C11H17F6N3O4S2, InChI=1S/C9H17N2.C2F6NO4S2/c1-3-5-10-7-8-11(9-10)6-4-2;3-1(4,5)14(10,11)9-15(12,13)2(6,7)8/h7-9H,3-6H2,1-2H3;/q+1;-1, purity 99%
Compound 4: 1,3-dibutyl-1H-imidazolium bis((trifluoromethyl)sulfonyl)amide, C13H21F6N3O4S2, InChI=1S/C11H21N2.C2F6NO4S2/c1-3-5-7-12-9-10-13(11-12)8-6-4-2;3-1(4,5)14(10,11)9-15(12,13)2(6,7)8/h9-11H,3-8H2,1-2H3;/q+1;-1, purity 99%
Compound 5: 1,3-dipentyl-1H-imidazol-3-ium bis((trifluoromethyl)sulfonyl)amide, C15H25F6N3O4S2, InChI=1S/C13H25N2.C2F6NO4S2/c1-3-5-7-9-14-11-12-15(13-14)10-8-6-4-2;3-1(4,5)14(10,11)9-15(12,13)2(6,7)8/h11-13H,3-10H2,1-2H3;/q+1;-1, purity 99%
Compound 6: 1,3-dihexyl-1H-imidazol-3-ium bis((trifluoromethyl)sulfonyl)amide, C17H29F6N3O4S2, InChI=1S/C15H29N2.C2F6NO4S2/c1-3-5-7-9-11-16-13-14-17(15-16)12-10-8-6-4-2;3-1(4,5)14(10,11)9-15(12,13)2(6,7)8/h13-15H,3-12H2,1-2H3;/q+1;-1, purity 99%
Compound 7: 1,3-diheptyl-1H-imidazol-3-ium bis((trifluoromethyl)sulfonyl)amide, C19H33F6N3O4S2, InChI=1S/C17H33N2.C2F6NO4S2/c1-3-5-7-9-11-13-18-15-16-19(17-18)14-12-10-8-6-4-2;3-1(4,5)14(10,11)9-15(12,13)2(6,7)8/h15-17H,3-14H2,1-2H3;/q+1;-1, purity 99%
Compound 8: 1,3-dioctyl-1H-imidazol-3-ium bis((trifluoromethyl)sulfonyl)amide, C21H37F6N3O4S2, InChI=1S/C19H37N2.C2F6NO4S2/c1-3-5-7-9-11-13-15-20-17-18-21(19-20)16-14-12-10-8-6-4-2;3-1(4,5)14(10,11)9-15(12,13)2(6,7)8/h17-19H,3-16H2,1-2H3;/q+1;-1, purity 99%
Compound 9: 1-ethyl-3-methylimidazolium bis((trifluoromethyl)sulfonyl)imide, C8H11F6N3O4S2, InChI=1S/C6H11N2.C2F6NO4S2/c1-3-8-5-4-7(2)6-8;3-1(4,5)14(10,11)9-15(12,13)2(6,7)8/h4-6H,3H2,1-2H3;/q+1;-1, purity 99%
Compound 10: 1-methyl-3-propylimidazolium bis[(trifluoromethyl)sulfonyl]imide, C9H13F6N3O4S2, InChI=1S/C7H13N2.C2F6NO4S2/c1-3-4-9-6-5-8(2)7-9;3-1(4,5)14(10,11)9-15(12,13)2(6,7)8/h5-7H,3-4H2,1-2H3;/q+1;-1, purity 99%
Compound 11: 1-butyl-3-methylimidazolium bis(trifluoromethylsulfonyl)imide, C10H15F6N3O4S2, InChI=1S/C8H15N2.C2F6NO4S2/c1-3-4-5-10-7-6-9(2)8-10;3-1(4,5)14(10,11)9-15(12,13)2(6,7)8/h6-8H,3-5H2,1-2H3;/q+1;-1, purity 99%
Compound 12: 1-methyl-3-pentylimidazolium bis(trifluoromethylsulfonyl)imide, C11H17F6N3O4S2, InChI=1S/C9H17N2.C2F6NO4S2/c1-3-4-5-6-11-8-7-10(2)9-11;3-1(4,5)14(10,11)9-15(12,13)2(6,7)8/h7-9H,3-6H2,1-2H3;/q+1;-1, purity 99%
Compound 13: 1-heptyl-3-methylimidazolium bis(trifluoromethylsulfonyl)amide, C13H21F6N3O4S2, InChI=1S/C11H21N2.C2F6NO4S2/c1-3-4-5-6-7-8-13-10-9-12(2)11-13;3-1(4,5)14(10,11)9-15(12,13)2(6,7)8/h9-11H,3-8H2,1-2H3;/q+1;-1, purity 99%
Compound 14: 1-methyl-3-nonylimidazolium bis(trifluoromethanesulfonyl)imide, C15H25F6N3O4S2, InChI=1S/C13H25N2.C2F6NO4S2/c1-3-4-5-6-7-8-9-10-15-12-11-14(2)13-15;3-1(4,5)14(10,11)9-15(12,13)2(6,7)8/h11-13H,3-10H2,1-2H3;/q+1;-1, purity 99%
Compound 15: 3-methyl-1-undecyl-1H-imidazol-3-ium bis((trifluoromethyl)sulfonyl)amide, C17H29F6N3O4S2, InChI=1S/C15H29N2.C2F6NO4S2/c1-3-4-5-6-7-8-9-10-11-12-17-14-13-16(2)15-17;3-1(4,5)14(10,11)9-15(12,13)2(6,7)8/h13-15H,3-12H2,1-2H3;/q+1;-1, purity 99%
Compound 16: water, H2O, InChI=1S/H2O/h1H2, purity 99.9%

System: water + 1,3-dimethylimidazolium bis((trifluoromethyl)sulfonyl)amide; phases: Liquid
Fixed: Mole fraction of water = 0.3548
Fixed: Pressure, kPa = 100
Property: Mass density, kg/m3 (Liquid); method: Vibrating tube method
Temperature, K	Mass density, kg/m3	uncertainty
298.15	1546.6	1.6
303.15	1541.2	1.6
308.15	1535.9	1.6
313.15	1530.5	1.6
318.15	1525.3	1.6
323.15	1520	1.6
328.15	1514.7	1.6
333.15	1509.5	1.6
338.15	1504.3	1.6
343.15	1499.1	1.6
348.15	1493.9	1.6
353.15	1488.8	1.6
358.15	1483.6	1.6
363.15	1478.5	1.6

System: water + 1,3-dimethylimidazolium bis((trifluoromethyl)sulfonyl)amide; phases: Liquid
Fixed: Mole fraction of water = 0.3548
Fixed: Pressure, kPa = 100
Property: Viscosity, Pa*s (Liquid); method: Concentric cylinders viscometry
Temperature, K	Viscosity, Pa*s	uncertainty
298.15	0.01859	0.00016
303.15	0.01587	0.00013
308.15	0.01373	0.00012
313.15	0.01199	0.0001
318.15	0.01057	9e-05
323.15	0.00939	8e-05
328.15	0.00839	7e-05
333.15	0.00755	6e-05
338.15	0.00684	6e-05
343.15	0.00622	5e-05
348.15	0.00569	5e-05
353.15	0.00523	5e-05
358.15	0.00482	4e-05
363.15	0.00446	4e-05

System: water + 1,3-diethylimidazolium bis[(trifluoromethyl)sulfonyl]imide; phases: Liquid
Fixed: Mole fraction of water = 0.2772
Fixed: Pressure, kPa = 100
Property: Mass density, kg/m3 (Liquid); method: Vibrating tube method
Temperature, K	Mass density, kg/m3	uncertainty
298.15	1462.9	1.1
303.15	1457.8	1.1
308.15	1452.7	1.1
313.15	1447.7	1.1
318.15	1442.6	1.1
323.15	1437.6	1.1
328.15	1432.6	1.1
333.15	1427.6	1.1
338.15	1422.7	1.1
343.15	1417.8	1.1
348.15	1412.8	1.1
353.15	1407.9	1.1
358.15	1403	1.1
363.15	1398.1	1.1

System: water + 1,3-diethylimidazolium bis[(trifluoromethyl)sulfonyl]imide; phases: Liquid
Fixed: Mole fraction of water = 0.2772
Fixed: Pressure, kPa = 100
Property: Viscosity, Pa*s (Liquid); method: Concentric cylinders viscometry
Temperature, K	Viscosity, Pa*s	uncertainty
298.15	0.01932	0.00017
303.15	0.01655	0.00014
308.15	0.01434	0.00012
313.15	0.01253	0.00011
318.15	0.01104	0.0001
323.15	0.0098	8e-05
328.15	0.00875	8e-05
333.15	0.00787	7e-05
338.15	0.00711	6e-05
343.15	0.00646	6e-05
348.15	0.00589	5e-05
353.15	0.00539	5e-05
358.15	0.00496	4e-05
363.15	0.00457	4e-05

System: water + 1,3-dipropyl-1H-imidazol-3-ium bis((trifluoromethyl)sulfonyl)amide; phases: Liquid
Fixed: Mole fraction of water = 0.2232
Fixed: Pressure, kPa = 100
Property: Mass density, kg/m3 (Liquid); method: Vibrating tube method
Temperature, K	Mass density, kg/m3	uncertainty
298.15	1391.3	1.1
303.15	1386.4	1.1
308.15	1381.6	1.1
313.15	1376.8	1.1
318.15	1372	1.1
323.15	1367.2	1.1
328.15	1362.5	1.1
333.15	1357.7	1.1
338.15	1353	1.1
343.15	1348.4	1.1
348.15	1343.7	1.1
353.15	1339.1	1.1
358.15	1334.5	1.1
363.15	1330	1.1

System: water + 1,3-dipropyl-1H-imidazol-3-ium bis((trifluoromethyl)sulfonyl)amide; phases: Liquid
Fixed: Mole fraction of water = 0.2232
Fixed: Pressure, kPa = 100
Property: Viscosity, Pa*s (Liquid); method: Concentric cylinders viscometry
Temperature, K	Viscosity, Pa*s	uncertainty
298.15	0.03566	0.00031
303.15	0.02921	0.00025
308.15	0.02431	0.00021
313.15	0.02049	0.00018
318.15	0.01747	0.00015
323.15	0.01505	0.00013
328.15	0.01309	0.00011
333.15	0.01148	0.0001
338.15	0.01015	9e-05
343.15	0.00903	8e-05
348.15	0.00809	7e-05
353.15	0.00729	6e-05
358.15	0.0066	6e-05
363.15	0.006	5e-05

System: water + 1,3-dibutyl-1H-imidazolium bis((trifluoromethyl)sulfonyl)amide; phases: Liquid
Fixed: Mole fraction of water = 0.1843
Fixed: Pressure, kPa = 100
Property: Mass density, kg/m3 (Liquid); method: Vibrating tube method
Temperature, K	Mass density, kg/m3	uncertainty
298.15	1337.3	1.3
303.15	1332.7	1.3
308.15	1328.1	1.3
313.15	1323.6	1.3
318.15	1319	1.3
323.15	1314.5	1.3
328.15	1310	1.3
333.15	1305.5	1.3
338.15	1301	1.3
343.15	1296.6	1.3
348.15	1292.2	1.3
353.15	1287.8	1.3
358.15	1283.4	1.3
363.15	1279	1.3

System: water + 1,3-dibutyl-1H-imidazolium bis((trifluoromethyl)sulfonyl)amide; phases: Liquid
Fixed: Mole fraction of water = 0.1843
Fixed: Pressure, kPa = 100
Property: Viscosity, Pa*s (Liquid); method: Concentric cylinders viscometry
Temperature, K	Viscosity, Pa*s	uncertainty
298.15	0.04847	0.00043
303.15	0.03912	0.00034
308.15	0.03212	0.00028
313.15	0.02674	0.00024
318.15	0.02252	0.0002
323.15	0.01919	0.00017
328.15	0.01651	0.00015
333.15	0.01432	0.00013
338.15	0.01253	0.00011
343.15	0.01104	0.0001
348.15	0.00978	9e-05
353.15	0.00873	8e-05
358.15	0.00783	7e-05
363.15	0.00707	6e-05

System: water + 1,3-dipentyl-1H-imidazol-3-ium bis((trifluoromethyl)sulfonyl)amide; phases: Liquid
Fixed: Mole fraction of water = 0.1575
Fixed: Pressure, kPa = 100
Property: Mass density, kg/m3 (Liquid); method: Vibrating tube method
Temperature, K	Mass density, kg/m3	uncertainty
298.15	1290	1.1
303.15	1285.6	1.1
308.15	1281.1	1.1
313.15	1276.7	1.1
318.15	1272.3	1.1
323.15	1267.9	1.1
328.15	1263.6	1.1
333.15	1259.2	1.1
338.15	1254.9	1.1
343.15	1250.6	1.1
348.15	1246.4	1.1
353.15	1242.1	1.1
358.15	1237.9	1.1
363.15	1233.7	1.1

System: water + 1,3-dipentyl-1H-imidazol-3-ium bis((trifluoromethyl)sulfonyl)amide; phases: Liquid
Fixed: Mole fraction of water = 0.1575
Fixed: Pressure, kPa = 100
Property: Viscosity, Pa*s (Liquid); method: Concentric cylinders viscometry
Temperature, K	Viscosity, Pa*s	uncertainty
298.15	0.06687	0.00061
303.15	0.0531	0.00045
308.15	0.04291	0.00038
313.15	0.03517	0.00031
318.15	0.02921	0.00026
323.15	0.02456	0.00022
328.15	0.02086	0.00018
333.15	0.01788	0.00016
338.15	0.01544	0.00014
343.15	0.01346	0.00012
348.15	0.01183	0.0001
353.15	0.01046	9e-05
358.15	0.00931	8e-05
363.15	0.00834	7e-05

System: water + 1,3-dihexyl-1H-imidazol-3-ium bis((trifluoromethyl)sulfonyl)amide; phases: Liquid
Fixed: Mole fraction of water = 0.1489
Fixed: Pressure, kPa = 100
Property: Mass density, kg/m3 (Liquid); method: Vibrating tube method
Temperature, K	Mass density, kg/m3	uncertainty
298.15	1252.5	1.1
303.15	1248.2	1.1
308.15	1243.9	1.1
313.15	1239.6	1.1
318.15	1235.3	1.1
323.15	1231	1.1
328.15	1226.8	1.1
333.15	1222.6	1.1
338.15	1218.4	1.1
343.15	1214.2	1.1
348.15	1210	1.1
353.15	1205.9	1.1
358.15	1201.7	1.1
363.15	1197.7	1.1

System: water + 1,3-dihexyl-1H-imidazol-3-ium bis((trifluoromethyl)sulfonyl)amide; phases: Liquid
Fixed: Mole fraction of water = 0.1489
Fixed: Pressure, kPa = 100
Property: Viscosity, Pa*s (Liquid); method: Concentric cylinders viscometry
Temperature, K	Viscosity, Pa*s	uncertainty
298.15	0.083494	0.000882
303.15	0.065693	0.000598
308.15	0.052588	0.000444
313.15	0.042717	0.000379
318.15	0.035168	0.000312
323.15	0.029307	0.00026
328.15	0.024697	0.000219
333.15	0.021021	0.000186
338.15	0.01806	0.00016
343.15	0.015649	0.000139
348.15	0.013665	0.000121
353.15	0.012004	0.000106
358.15	0.010627	9.4e-05
363.15	0.009466	8.4e-05

System: water + 1,3-diheptyl-1H-imidazol-3-ium bis((trifluoromethyl)sulfonyl)amide; phases: Liquid
Fixed: Mole fraction of water = 0.1365
Fixed: Pressure, kPa = 100
Property: Mass density, kg/m3 (Liquid); method: Vibrating tube method
Temperature, K	Mass density, kg/m3	uncertainty
298.15	1222.8	1.1
303.15	1218.6	1.1
308.15	1214.5	1.1
313.15	1210.3	1.1
318.15	1206.1	1.1
323.15	1202	1.1
328.15	1197.8	1.1
333.15	1193.7	1.1
338.15	1189.6	1.1
343.15	1185.5	1.1
348.15	1181.5	1.1
353.15	1177.4	1.1
358.15	1173.4	1.1
363.15	1169.4	1.1

System: water + 1,3-diheptyl-1H-imidazol-3-ium bis((trifluoromethyl)sulfonyl)amide; phases: Liquid
Fixed: Mole fraction of water = 0.1365
Fixed: Pressure, kPa = 100
Property: Viscosity, Pa*s (Liquid); method: Concentric cylinders viscometry
Temperature, K	Viscosity, Pa*s	uncertainty
298.15	0.10082	0.001224
303.15	0.078572	0.000801
308.15	0.062478	0.000556
313.15	0.050445	0.000425
318.15	0.041287	0.000367
323.15	0.034216	0.000304
328.15	0.028648	0.000254
333.15	0.024248	0.000215
338.15	0.020672	0.000184
343.15	0.017804	0.000158
348.15	0.015459	0.000137
353.15	0.013515	0.00012
358.15	0.011896	0.000106
363.15	0.010533	9.4e-05

System: water + 1,3-dioctyl-1H-imidazol-3-ium bis((trifluoromethyl)sulfonyl)amide; phases: Liquid
Fixed: Mole fraction of water = 0.1246
Fixed: Pressure, kPa = 100
Property: Mass density, kg/m3 (Liquid); method: Vibrating tube method
Temperature, K	Mass density, kg/m3	uncertainty
298.15	1191.7	1.1
303.15	1187.6	1.1
308.15	1183.5	1.1
313.15	1179.5	1.1
318.15	1175.4	1.1
323.15	1171.4	1.1
328.15	1167.3	1.1
333.15	1163.3	1.1
338.15	1159.3	1.1
343.15	1155.3	1.1
348.15	1151.3	1.1
353.15	1147.3	1.1
358.15	1143.4	1.1
363.15	1139.5	1.1

System: water + 1,3-dioctyl-1H-imidazol-3-ium bis((trifluoromethyl)sulfonyl)amide; phases: Liquid
Fixed: Mole fraction of water = 0.1246
Fixed: Pressure, kPa = 100
Property: Viscosity, Pa*s (Liquid); method: Concentric cylinders viscometry
Temperature, K	Viscosity, Pa*s	uncertainty
298.15	0.12015	0.001658
303.15	0.092877	0.001068
308.15	0.073287	0.000714
313.15	0.058748	0.000512
318.15	0.047763	0.000427
323.15	0.039326	0.000351
328.15	0.032752	0.000292
333.15	0.027565	0.000245
338.15	0.023431	0.000209
343.15	0.020092	0.000179
348.15	0.017371	0.000155
353.15	0.015133	0.000135
358.15	0.013274	0.000118
363.15	0.011719	0.000105

System: water + 1-ethyl-3-methylimidazolium bis((trifluoromethyl)sulfonyl)imide; phases: Liquid
Fixed: Mole fraction of water = 0.2982
Fixed: Pressure, kPa = 100
Property: Mass density, kg/m3 (Liquid); method: Vibrating tube method
Temperature, K	Mass density, kg/m3	uncertainty
298.15	1500.7	2.9
303.15	1495.6	2.9
308.15	1490.5	2.9
313.15	1485.3	2.9
318.15	1480.2	2.9
323.15	1475	2.9
328.15	1469.9	2.9
333.15	1464.6	2.8
338.15	1459.8	2.8
343.15	1454.7	2.8
348.15	1449.3	2.8
353.15	1444.7	2.8
358.15	1439.5	2.8
363.15	1434.3	2.8

System: water + 1-ethyl-3-methylimidazolium bis((trifluoromethyl)sulfonyl)imide; phases: Liquid
Fixed: Mole fraction of water = 0.2982
Fixed: Pressure, kPa = 100
Property: Viscosity, Pa*s (Liquid); method: Concentric cylinders viscometry
Temperature, K	Viscosity, Pa*s	uncertainty
298.15	0.018973	0.000162
303.15	0.016233	0.000139
308.15	0.014058	0.00012
313.15	0.012291	0.000105
318.15	0.010834	9.3e-05
323.15	0.00963	8.3e-05
328.15	0.008615	7.4e-05
333.15	0.007749	6.7e-05
338.15	0.00702	6e-05
343.15	0.006382	5.5e-05
348.15	0.005832	5e-05
353.15	0.00535	4.6e-05
358.15	0.004926	4.3e-05
363.15	0.004549	4e-05

System: water + 1-methyl-3-propylimidazolium bis[(trifluoromethyl)sulfonyl]imide; phases: Liquid
Fixed: Pressure, kPa = 100
Fixed: Mole fraction of water = 0.2715
Property: Mass density, kg/m3 (Liquid); method: Vibrating tube method
Temperature, K	Mass density, kg/m3	uncertainty
298.15	1464.3	2.3
303.15	1459.1	2.3
308.15	1454	2.3
313.15	1448.9	2.3
318.15	1443.8	2.3
323.15	1438.8	2.3
328.15	1433.8	2.3
333.15	1428.8	2.3
338.15	1423.8	2.3
343.15	1418.8	2.3
348.15	1413.7	2.3
353.15	1408.8	2.2
358.15	1404	2.2
363.15	1399.2	2.2

System: water + 1-methyl-3-propylimidazolium bis[(trifluoromethyl)sulfonyl]imide; phases: Liquid
Fixed: Mole fraction of water = 0.2715
Fixed: Pressure, kPa = 100
Property: Viscosity, Pa*s (Liquid); method: Concentric cylinders viscometry
Temperature, K	Viscosity, Pa*s	uncertainty
298.15	0.02663	0.00023
303.15	0.02224	0.00019
308.15	0.01883	0.00016
313.15	0.01612	0.00014
318.15	0.01395	0.00012
323.15	0.01219	0.00011
328.15	0.01073	9e-05
333.15	0.00952	8e-05
338.15	0.0085	7e-05
343.15	0.00764	7e-05
348.15	0.0069	6e-05
353.15	0.00625	5e-05
358.15	0.00569	5e-05
363.15	0.00522	5e-05

System: water + 1-butyl-3-methylimidazolium bis(trifluoromethylsulfonyl)imide; phases: Liquid
Fixed: Mole fraction of water = 0.2568
Fixed: Pressure, kPa = 100
Property: Mass density, kg/m3 (Liquid); method: Vibrating tube method
Temperature, K	Mass density, kg/m3	uncertainty
298.15	1428.1	2
303.15	1423.2	2
308.15	1418.3	2
313.15	1413.4	2
318.15	1408.5	2
323.15	1403.7	2
328.15	1398.8	2
333.15	1394	2
338.15	1389.2	2
343.15	1384.4	2
348.15	1379.7	2
353.15	1375	2
358.15	1370.3	2
363.15	1365.5	2

System: water + 1-butyl-3-methylimidazolium bis(trifluoromethylsulfonyl)imide; phases: Liquid
Fixed: Mole fraction of water = 0.2568
Fixed: Pressure, kPa = 100
Property: Viscosity, Pa*s (Liquid); method: Concentric cylinders viscometry
Temperature, K	Viscosity, Pa*s	uncertainty
298.15	0.031313	0.00027
303.15	0.025925	0.000224
308.15	0.021782	0.000188
313.15	0.018522	0.00016
318.15	0.015919	0.000137
323.15	0.013817	0.000119
328.15	0.012098	0.000104
333.15	0.010675	9.2e-05
338.15	0.009475	8.2e-05
343.15	0.008479	7.3e-05
348.15	0.007629	6.6e-05
353.15	0.006903	6e-05
358.15	0.006275	5.5e-05
363.15	0.00573	5e-05

System: water + 1-methyl-3-pentylimidazolium bis(trifluoromethylsulfonyl)imide; phases: Liquid
Fixed: Mole fraction of water = 0.2211
Fixed: Pressure, kPa = 100
Property: Mass density, kg/m3 (Liquid); method: Vibrating tube method
Temperature, K	Mass density, kg/m3	uncertainty
298.15	1396.6	1.8
303.15	1391.7	1.8
308.15	1386.8	1.8
313.15	1382	1.8
318.15	1377.2	1.7
323.15	1372.4	1.7
328.15	1367.7	1.7
333.15	1363	1.7
338.15	1358.1	1.7
343.15	1353.4	1.7
348.15	1348.7	1.7
353.15	1344	1.7
358.15	1339.2	1.7
363.15	1334.6	1.7

System: water + 1-methyl-3-pentylimidazolium bis(trifluoromethylsulfonyl)imide; phases: Liquid
Fixed: Mole fraction of water = 0.2211
Fixed: Pressure, kPa = 100
Property: Viscosity, Pa*s (Liquid); method: Concentric cylinders viscometry
Temperature, K	Viscosity, Pa*s	uncertainty
298.15	0.03865	0.00034
303.15	0.03167	0.00028
308.15	0.02632	0.00023
313.15	0.02215	0.00019
318.15	0.01886	0.00016
323.15	0.01622	0.00014
328.15	0.01408	0.00012
333.15	0.01232	0.00011
338.15	0.01087	9e-05
343.15	0.00965	8e-05
348.15	0.00863	8e-05
353.15	0.00775	7e-05
358.15	0.007	6e-05
363.15	0.00636	6e-05

System: water + 1-heptyl-3-methylimidazolium bis(trifluoromethylsulfonyl)amide; phases: Liquid
Fixed: Mole fraction of water = 0.1971
Fixed: Pressure, kPa = 100
Property: Mass density, kg/m3 (Liquid); method: Vibrating tube method
Temperature, K	Mass density, kg/m3	uncertainty
298.15	1337	1.5
303.15	1332.4	1.5
308.15	1327.8	1.5
313.15	1323.3	1.5
318.15	1318.7	1.5
323.15	1314.2	1.5
328.15	1309.8	1.5
333.15	1305.3	1.5
338.15	1300.9	1.5
343.15	1296.5	1.5
348.15	1292.1	1.5
353.15	1287.7	1.5
358.15	1283.3	1.5
363.15	1279	1.5

System: water + 1-heptyl-3-methylimidazolium bis(trifluoromethylsulfonyl)amide; phases: Liquid
Fixed: Mole fraction of water = 0.1971
Fixed: Pressure, kPa = 100
Property: Viscosity, Pa*s (Liquid); method: Concentric cylinders viscometry
Temperature, K	Viscosity, Pa*s	uncertainty
298.15	0.05298	0.00044
303.15	0.04258	0.00037
308.15	0.03486	0.00031
313.15	0.02895	0.00025
318.15	0.02433	0.00021
323.15	0.02069	0.00018
328.15	0.01777	0.00016
333.15	0.0154	0.00013
338.15	0.01345	0.00012
343.15	0.01185	0.0001
348.15	0.01051	9e-05
353.15	0.00936	8e-05
358.15	0.0084	7e-05
363.15	0.00758	7e-05

System: water + 1-methyl-3-nonylimidazolium bis(trifluoromethanesulfonyl)imide; phases: Liquid
Fixed: Mole fraction of water = 0.1736
Fixed: Pressure, kPa = 100
Property: Mass density, kg/m3 (Liquid); method: Vibrating tube method
Temperature, K	Mass density, kg/m3	uncertainty
298.15	1293.7	1.1
303.15	1289.2	1.1
308.15	1284.8	1.1
313.15	1280.4	1.1
318.15	1276	1.1
323.15	1271.7	1.1
328.15	1267.3	1.1
333.15	1263	1.1
338.15	1258.7	1.1
343.15	1254.4	1.1
348.15	1250.1	1.1
353.15	1245.9	1.1
358.15	1241.6	1.1
363.15	1237.4	1.1

System: water + 1-methyl-3-nonylimidazolium bis(trifluoromethanesulfonyl)imide; phases: Liquid
Fixed: Mole fraction of water = 0.1736
Fixed: Pressure, kPa = 100
Property: Viscosity, Pa*s (Liquid); method: Concentric cylinders viscometry
Temperature, K	Viscosity, Pa*s	uncertainty
298.15	0.07266	0.00069
303.15	0.05766	0.00049
308.15	0.04659	0.00041
313.15	0.0391	0.00034
318.15	0.03172	0.00028
323.15	0.02665	0.00023
328.15	0.02264	0.0002
333.15	0.0197	0.00017
338.15	0.01681	0.00015
343.15	0.01467	0.00013
348.15	0.01289	0.00011
353.15	0.01168	0.0001
358.15	0.01015	9e-05
363.15	0.00909	8e-05

System: water + 3-methyl-1-undecyl-1H-imidazol-3-ium bis((trifluoromethyl)sulfonyl)amide; phases: Liquid
Fixed: Mole fraction of water = 0.1567
Fixed: Pressure, kPa = 100
Property: Mass density, kg/m3 (Liquid); method: Vibrating tube method
Temperature, K	Mass density, kg/m3	uncertainty
298.15	1257.7	1.1
303.15	1253.4	1.1
308.15	1249.1	1.1
313.15	1244.8	1.1
318.15	1240.5	1.1
323.15	1236.2	1.1
328.15	1232	1.1
333.15	1227.7	1.1
338.15	1223.5	1.1
343.15	1219.3	1.1
348.15	1215.1	1.1
353.15	1210.9	1.1
358.15	1206.8	1.1
363.15	1202.7	1.1

System: water + 3-methyl-1-undecyl-1H-imidazol-3-ium bis((trifluoromethyl)sulfonyl)amide; phases: Liquid
Fixed: Mole fraction of water = 0.1567
Fixed: Pressure, kPa = 100
Property: Viscosity, Pa*s (Liquid); method: Concentric cylinders viscometry
Temperature, K	Viscosity, Pa*s	uncertainty
298.15	0.096408	0.001129
303.15	0.075697	0.000749
308.15	0.06046	0.000528
313.15	0.049358	0.000437
318.15	0.040262	0.000357
323.15	0.033486	0.000296
328.15	0.028167	0.000249
333.15	0.024191	0.000214
338.15	0.020537	0.000181
343.15	0.017774	0.000157
348.15	0.015505	0.000137
353.15	0.013938	0.000123
358.15	0.012052	0.000107
363.15	0.01072	9.5e-05
