Measured thermophysical data. Measurement on the thermal conductivity of five saturated fatty acid ethyl esters components of biodiesel
Source: Fluid Phase Equilib., 2018, 10.1016/j.fluid.2018.06.004
Compound 1: water, H2O, InChI=1S/H2O/h1H2, purity 99.9%
Compound 2: ethanol, C2H6O, InChI=1S/C2H6O/c1-2-3/h3H,2H2,1H3, purity 99.8%
Compound 3: ethyl tetradecanoate, C16H32O2, InChI=1S/C16H32O2/c1-3-5-6-7-8-9-10-11-12-13-14-15-16(17)18-4-2/h3-15H2,1-2H3, purity 99%
Compound 4: ethyl dodecanoate, C14H28O2, InChI=1S/C14H28O2/c1-3-5-6-7-8-9-10-11-12-13-14(15)16-4-2/h3-13H2,1-2H3, purity 99%
Compound 5: ethyl decanoate, C12H24O2, InChI=1S/C12H24O2/c1-3-5-6-7-8-9-10-11-12(13)14-4-2/h3-11H2,1-2H3, purity 99%
Compound 6: ethyl octanoate, C10H20O2, InChI=1S/C10H20O2/c1-3-5-6-7-8-9-10(11)12-4-2/h3-9H2,1-2H3, purity 97%
Compound 7: ethyl heptanoate, C9H18O2, InChI=1S/C9H18O2/c1-3-5-6-7-8-9(10)11-4-2/h3-8H2,1-2H3, purity 97%

System: water; phases: Liquid
Fixed: Pressure, kPa = 101.325
Property: Thermal conductivity, W/m/K (Liquid); method: THOTW
Temperature, K	Thermal conductivity, W/m/K	uncertainty
293.09	0.6056	0.0243
299.55	0.613	0.0246
309.83	0.6313	0.0253
314.96	0.6399	0.0257
319.56	0.6399	0.0257
324.64	0.6492	0.026
332.53	0.6555	0.0263
339.33	0.657	0.0264
340.41	0.6654	0.0267
349.41	0.6723	0.027

System: ethanol; phases: Liquid
Fixed: Pressure, kPa = 101.325
Property: Thermal conductivity, W/m/K (Liquid); method: THOTW
Temperature, K	Thermal conductivity, W/m/K	uncertainty
276.51	0.1719	0.0069
280.8	0.1687	0.0068
284.27	0.1699	0.0068
290.37	0.1677	0.0067
293.43	0.1658	0.0067

System: ethyl tetradecanoate; phases: Liquid
Fixed: Pressure, kPa = 101.325
Property: Thermal conductivity, W/m/K (Liquid); method: THOTW
Temperature, K	Thermal conductivity, W/m/K	uncertainty
290.64	0.1515	0.0061
298.29	0.1501	0.006
307.33	0.1481	0.006
315.2	0.1465	0.0059
324.22	0.1448	0.0058
333.17	0.1426	0.0057
340.99	0.1406	0.0057
350.11	0.1383	0.0056
359.07	0.137	0.0055
367.97	0.1342	0.0054
377.86	0.1326	0.0053
389.06	0.1297	0.0052
393.88	0.1286	0.0052

System: ethyl dodecanoate; phases: Liquid
Fixed: Pressure, kPa = 101.325
Property: Thermal conductivity, W/m/K (Liquid); method: THOTW
Temperature, K	Thermal conductivity, W/m/K	uncertainty
274.73	0.151	0.0061
284.69	0.1489	0.006
294.56	0.1471	0.0059
304.59	0.1446	0.0058
314.47	0.1424	0.0057
324.41	0.1399	0.0056
334.28	0.1377	0.0055
344.09	0.1362	0.0055
349.21	0.1343	0.0054
354.09	0.1334	0.0054
359.09	0.1321	0.0053
369.13	0.1296	0.0052
379.1	0.1275	0.0051
389.1	0.1253	0.005
400.08	0.1229	0.005

System: ethyl decanoate; phases: Liquid
Fixed: Pressure, kPa = 101.325
Property: Thermal conductivity, W/m/K (Liquid); method: THOTW
Temperature, K	Thermal conductivity, W/m/K	uncertainty
270	0.1483	0.006
279.98	0.1463	0.0059
289.85	0.1442	0.0058
299.64	0.1422	0.0057
309.6	0.14	0.0056
319.72	0.1375	0.0055
329.53	0.1355	0.0055
339.49	0.1332	0.0054
349.51	0.1307	0.0053
359.46	0.1284	0.0052
369.3	0.1266	0.0051
374.44	0.1248	0.005
379.49	0.1238	0.005
389.25	0.1214	0.0049
400.44	0.1195	0.0048

System: ethyl octanoate; phases: Liquid
Fixed: Pressure, kPa = 101.325
Property: Thermal conductivity, W/m/K (Liquid); method: THOTW
Temperature, K	Thermal conductivity, W/m/K	uncertainty
254.76	0.1484	0.006
264.72	0.1462	0.0059
274.7	0.144	0.0058
284.63	0.1422	0.0057
294.53	0.1405	0.0057
300.47	0.1387	0.0056
307.05	0.1366	0.0055
310.45	0.1356	0.0055
320.37	0.1336	0.0054
330.4	0.1312	0.0053
340.34	0.1286	0.0052
350.38	0.1268	0.0051
360.32	0.1234	0.005
370.25	0.1211	0.0049
380.17	0.1188	0.0048
390.39	0.1167	0.0047
400.37	0.1142	0.0046

System: ethyl heptanoate; phases: Liquid
Fixed: Pressure, kPa = 101.325
Property: Thermal conductivity, W/m/K (Liquid); method: THOTW
Temperature, K	Thermal conductivity, W/m/K	uncertainty
250.38	0.1482	0.006
260.21	0.1463	0.0059
270.16	0.1441	0.0058
280.02	0.1414	0.0057
289.93	0.1397	0.0057
299.84	0.137	0.0055
309.9	0.1343	0.0054
319.73	0.1321	0.0054
329.73	0.1294	0.0052
337.72	0.127	0.0051
341.71	0.1259	0.0051
347.65	0.1251	0.0051
353.6	0.1235	0.005
363.5	0.121	0.0049
373.51	0.1183	0.0048
383.64	0.1155	0.0047
393.46	0.1139	0.0046
