Measured thermophysical data. Chemical speciation of aqueous hydrogen fluoride at various temperatures from 298.15 K to 353.15 K
Source: Fluid Phase Equilib., 2019, 10.1016/j.fluid.2019.112244
Compound 1: hydrogen fluoride, FH, InChI=1S/FH/h1H, purity 99.5%
Compound 2: water, H2O, InChI=1S/H2O/h1H2, purity 99.9%

System: hydrogen fluoride + water; phases: Liquid
Fixed: Pressure, kPa = 101
Property: (Relative) activity of water (Liquid); method: hygrometric method
Temperature, K	Molality, mol/kg of hydrogen fluoride	(Relative) activity of water	uncertainty
298.15	0.1	0.9971	0.0387
298.15	0.2	0.9946	0.0387
298.15	0.3	0.9925	0.0387
298.15	0.4	0.9908	0.0387
298.15	0.5	0.989	0.0387
298.15	0.8	0.9847	0.0387
298.15	1	0.9817	0.0387
298.15	2	0.9653	0.0387
298.15	2.5	0.9569	0.0387
298.15	3	0.9485	0.0387
298.15	3.5	0.9399	0.0387
298.15	4	0.9307	0.0387
298.15	5	0.9126	0.0387
298.15	6	0.8935	0.0387
313.15	0.1	0.9971	0.0387
313.15	0.2	0.9947	0.0387
313.15	0.3	0.9927	0.0387
313.15	0.4	0.991	0.0387
313.15	0.5	0.9893	0.0387
313.15	0.8	0.9852	0.0387
313.15	1	0.9824	0.0387
313.15	2	0.9664	0.0387
313.15	2.5	0.9583	0.0387
313.15	3	0.9502	0.0387
313.15	3.5	0.9418	0.0387
313.15	4	0.9329	0.0387
313.15	5	0.9152	0.0387
313.15	6	0.8966	0.0387
333.15	0.1	0.9971	0.0387
333.15	0.2	0.9948	0.0387
333.15	0.3	0.9928	0.0387
333.15	0.4	0.9911	0.0387
333.15	0.5	0.9895	0.0387
333.15	0.8	0.9855	0.0387
333.15	1	0.9827	0.0387
333.15	2	0.967	0.0387
333.15	2.5	0.9591	0.0387
333.15	3	0.9511	0.0387
333.15	3.5	0.9429	0.0387
333.15	4	0.9341	0.0387
333.15	5	0.9167	0.0387
333.15	6	0.8984	0.0387
353.15	0.1	0.9972	0.0387
353.15	0.2	0.9949	0.0387
353.15	0.3	0.9929	0.0387
353.15	0.4	0.9913	0.0387
353.15	0.5	0.9896	0.0387
353.15	0.8	0.9857	0.0387
353.15	1	0.983	0.0387
353.15	2	0.9677	0.0387
353.15	2.5	0.96	0.0387
353.15	3	0.9522	0.0387
353.15	3.5	0.9441	0.0387
353.15	4	0.9355	0.0387
353.15	5	0.9184	0.0387
353.15	6	0.9004	0.0387
