Measured thermophysical data. Solubilities of betulin in chloroform + methanol mixed solvents at T = (278.2, 288.2, 293.2, 298.2, 308.2 and 313.2) K
Source: Fluid Phase Equilib., 2008, 10.1016/j.fluid.2008.02.013
Compound 1: betulin, C30H50O2, InChI=1S/C30H50O2/c1-19(2)20-10-15-30(18-31)17-16-28(6)21(25(20)30)8-9-23-27(5)13-12-24(32)26(3,4)22(27)11-14-29(23,28)7/h20-25,31-32H,1,8-18H2,2-7H3/t20-,21+,22-,23+,24-,25+,27-,28+,29+,30+/m0/s1, purity 90%
Compound 2: trichloromethane, CHCl3, InChI=1S/CHCl3/c2-1(3)4/h1H
Compound 3: methanol, CH4O, InChI=1S/CH4O/c1-2/h2H,1H3

System: betulin; phases: Crystal, Liquid, Air at 1 atmosphere
Property: Molar enthalpy of transition or fusion, kJ/mol (Crystal); method: DSC
Molar enthalpy of transition or fusion, kJ/mol	uncertainty
52.06	2.31

System: betulin; phases: Crystal, Liquid, Air at 1 atmosphere
Property: Normal melting temperature, K (Crystal); method: DTA
Normal melting temperature, K	uncertainty
530.6	2

System: betulin; phases: Crystal, Liquid, Air at 1 atmosphere
Property: Molar enthalpy of transition or fusion, kJ/mol (Crystal); method: DSC
Molar enthalpy of transition or fusion, kJ/mol	uncertainty
53.65	2.38

System: betulin; phases: Crystal, Liquid, Air at 1 atmosphere
Property: Normal melting temperature, K (Crystal); method: DTA
Normal melting temperature, K	uncertainty
528.1	2

System: betulin; phases: Crystal, Liquid, Air at 1 atmosphere
Property: Molar enthalpy of transition or fusion, kJ/mol (Crystal); method: DSC
Molar enthalpy of transition or fusion, kJ/mol	uncertainty
55.16	2.44

System: betulin; phases: Crystal, Liquid, Air at 1 atmosphere
Property: Normal melting temperature, K (Crystal); method: DTA
Normal melting temperature, K	uncertainty
527.9	2

System: methanol + betulin; phases: Liquid, Crystal
Fixed: Pressure, kPa = 101
Property: Molality, mol/kg (Liquid); method: HPLC
Temperature, K	Molality, mol/kg	uncertainty
293.2	0.00863	0.000518
308.2	0.01226	0.00114
313.2	0.01272	0.0009

System: trichloromethane + betulin; phases: Liquid, Crystal
Fixed: Pressure, kPa = 101
Property: Molality, mol/kg (Liquid); method: HPLC
Temperature, K	Molality, mol/kg	uncertainty
293.2	0.03459	0.002077
308.2	0.04766	0.002861
313.2	0.0523	0.00314

System: methanol + trichloromethane + betulin; phases: Liquid, Crystal
Fixed: Pressure, kPa = 101
Property: Molality, mol/kg of betulin (Liquid); method: HPLC
Temperature, K	Solvent: Mole fraction of trichloromethane	Molality, mol/kg of betulin	uncertainty
278.2	0.0283	0.00986	0.000592
278.2	0.1031	0.01849	0.001111
278.2	0.2134	0.04083	0.002452
278.2	0.3847	0.08973	0.005388
278.2	0.6705	0.1696	0.010183
288.2	0.0283	0.01165	0.0007
288.2	0.1031	0.02132	0.001281
288.2	0.2134	0.05225	0.003138
288.2	0.3847	0.1139	0.006839
288.2	0.6705	0.1874	0.011251
293.2	0	0.00863	0.000518
293.2	0.0283	0.01328	0.000798
293.2	0.1031	0.02412	0.001449
293.2	0.2134	0.05847	0.003511
293.2	0.3847	0.1229	0.007379
293.2	0.6705	0.1965	0.011797
293.2	1	0.03459	0.002077
298.2	0.0283	0.01433	0.000861
298.2	0.1031	0.02718	0.001633
298.2	0.2134	0.06629	0.003981
298.2	0.3847	0.1335	0.008015
298.2	0.6705	0.2041	0.012254
308.2	0	0.01226	0.00114
308.2	0.0283	0.01702	0.001023
308.2	0.1031	0.03186	0.001915
308.2	0.2134	0.08784	0.005275
308.2	0.3847	0.1619	0.00972
308.2	0.6705	0.2245	0.013478
308.2	1	0.04766	0.002861
313.2	0	0.01272	0.0009
313.2	0.0283	0.01845	0.001109
313.2	0.1031	0.03548	0.002132
313.2	0.2134	0.09532	0.005724
313.2	0.3847	0.1852	0.011119
313.2	0.6705	0.2322	0.013943
313.2	1	0.0523	0.00314
