Measured thermophysical data. Excess molar enthalpies of the ternary mixture n-propanol + acetic acid + water at 313.15 K and atmospheric pressure
Source: Fluid Phase Equilib., 2015, 10.1016/j.fluid.2015.07.053
Compound 1: propan-1-ol, C3H8O, InChI=1S/C3H8O/c1-2-3-4/h4H,2-3H2,1H3, purity 98%
Compound 2: acetic acid, C2H4O2, InChI=1S/C2H4O2/c1-2(3)4/h1H3,(H,3,4), purity 98%
Compound 3: water, H2O, InChI=1S/H2O/h1H2, purity 99.9%

System: acetic acid + propan-1-ol + water; phases: Liquid
Fixed: Temperature, K = 313.15
Fixed: Pressure, kPa = 101
Property: Excess molar enthalpy (molar enthalpy of mixing), kJ/mol (Liquid); method: Flow calorimetry
Mole fraction of propan-1-ol	Mole fraction of acetic acid	Excess molar enthalpy (molar enthalpy of mixing), kJ/mol	uncertainty
0.5	0	0	0.001
0.2501	0.5002	0.312	0.003
0.2503	0.5002	0.309	0.003
0.2001	0.5983	0.338	0.004
0.2397	0.4813	0.317	0.003
0.2999	0.4	0.262	0.003
0.2	0.5997	0.33	0.004
0.2002	0.6002	0.331	0.004
0.1508	0.7017	0.337	0.004
0.1503	0.7004	0.335	0.004
0.1001	0.8027	0.299	0.003
0.1	0.7987	0.302	0.003
0.0517	0.8969	0.192	0.002
0.0533	0.8918	0.216	0.003
0.35	0.3009	0.227	0.003
0.3458	0.2974	0.231	0.003
0.3983	0.1995	0.186	0.003
0.399	0.1991	0.18	0.003
0.452	0.1	0.116	0.002
0.0507	0.8979	0.197	0.002
0.2995	0.3994	0.269	0.003
0.75	0	0	0.001
0.6722	0.0996	0.072	0.001
0.6729	0.101	0.073	0.001
0.593	0.1978	0.128	0.002
0.5979	0.1996	0.128	0.002
0.5194	0.2983	0.178	0.002
0.5202	0.2959	0.175	0.002
0.4503	0.4013	0.232	0.003
0.3752	0.4998	0.267	0.003
0.2987	0.5969	0.306	0.003
0.3017	0.6047	0.31	0.003
0.2263	0.7066	0.316	0.003
0.2249	0.7004	0.315	0.003
0.1505	0.7996	0.285	0.003
0.1487	0.7984	0.283	0.003
0.075	0.8975	0.194	0.002
0.0747	0.8921	0.197	0.002
0.374	0.4978	0.265	0.003
0.3725	0.4968	0.266	0.003
0.25	0	0	0.001
0.2244	0.1	0.193	0.002
0.2223	0.1015	0.194	0.002
0.1994	0.1993	0.287	0.003
0.1992	0.2006	0.288	0.003
0.1719	0.2924	0.359	0.004
0.1804	0.298	0.355	0.004
0.1512	0.3997	0.392	0.004
0.1506	0.402	0.393	0.004
0.1247	0.4991	0.412	0.004
0.1244	0.4993	0.41	0.004
0.1065	0.5911	0.415	0.004
0.0998	0.5973	0.421	0.004
0.0735	0.7004	0.402	0.004
0.0754	0.699	0.4	0.004
0.0487	0.798	0.347	0.004
0.0496	0.8031	0.344	0.003
0.0261	0.9054	0.214	0.003
0.0301	0.8982	0.223	0.003
