Measured thermophysical data. Measurements for isobaric specific heat capacity of ethyl fluoride (HFC-161) in liquid and vapor phase
Source: Fluid Phase Equilib., 2016, 10.1016/j.fluid.2016.07.034
Compound 1: fluoroethane, C2H5F, InChI=1S/C2H5F/c1-2-3/h2H2,1H3, purity 99.95%
Compound 2: water, H2O, InChI=1S/H2O/h1H2, purity 99.8%

System: fluoroethane; phases: Liquid
Property: Molar heat capacity at constant pressure, J/K/mol (Liquid); method: Flow calorimetry
Temperature, K	Pressure, kPa	Molar heat capacity at constant pressure, J/K/mol	uncertainty
303.42	1340	107.27361709272	1.08614477232
303.47	1930	106.73535065688	1.081338822
303.5	2520	106.24033777392	1.07653287168
303.53	3000	106.02407000952	1.07172692136
303.55	3510	105.6347880336	1.06692097104
303.57	4010	105.4185202692	1.06692097104
303.55	4550	104.88025383336	1.06211502072
303.52	5200	103.84216856424	1.05250312008
303.53	5540	103.57303534632	1.04769716976
303.53	5980	103.23661882392	1.04289121944
303.48	6470	102.68393453712	1.03808526912
303.51	7100	102.3186823128	1.0332793188
303.53	7520	102.25620495864	1.0332793188
303.5	8030	101.82847538016	1.02847336848
303.52	8440	101.9342062872	1.02847336848
303.53	9130	101.36710414944	1.02366741816
303.49	9530	100.85767341552	1.01886146784
303.5	10100	100.804807962	1.01886146784
303.52	10520	100.64140565112	1.01886146784
303.51	11050	100.204064172	1.01405551752
303.52	11560	100.41552598608	1.01405551752
303.54	12050	100.0118261592	1.0092495672
313.41	1510	112.3871482332	1.13901022584
313.31	2010	110.61375256512	1.11978642456
313.35	2560	110.04184447704	1.11498047424
313.33	3080	109.2632805252	1.1053685736
313.35	3500	108.56161177848	1.09575667296
313.36	4000	108.09062864712	1.09095072264
313.37	4510	107.4850789068	1.08614477232
313.39	5070	107.0765731296	1.081338822
313.42	5490	106.99006602384	1.081338822
313.41	6080	106.37490438288	1.07653287168
313.43	6510	106.02887595984	1.07172692136
313.37	7030	104.9859847404	1.06211502072
313.39	7490	104.6735979696	1.0573090704
313.42	7980	104.69282177088	1.0573090704
313.38	8490	103.70760195528	1.04769716976
313.4	9090	103.61148294888	1.04769716976
313.38	9510	102.9194261028	1.04289121944
313.4	10010	102.80408329512	1.03808526912
313.42	10490	102.7512178416	1.03808526912
313.43	10980	102.51572627592	1.03808526912
313.47	11470	102.55417387848	1.03808526912
324.11	2050	115.83782056296	1.17265187808
324.13	2570	114.69881033712	1.16303997744
324.15	3000	113.83854522984	1.1534280768
324.18	3500	113.06478722832	1.14381617616
324.16	4060	111.82485204576	1.13420427552
324.18	4510	111.09434759712	1.12459237488
324.21	5030	110.5128276084	1.11978642456
324.17	5510	109.37862333288	1.1053685736
324.14	5980	108.60005938104	1.10056262328
324.16	6470	107.92242038592	1.09095072264
324.19	7020	107.27361709272	1.08614477232
324.16	7520	106.38932223384	1.07653287168
324.13	8110	105.47138572272	1.06692097104
324.15	8550	105.19744655448	1.06211502072
324.19	9040	104.89947763464	1.06211502072
324.21	9450	104.56306111224	1.0573090704
324.17	10040	103.3519616316	1.04769716976
324.19	10510	103.16933551944	1.04289121944
324.19	11010	102.91462015248	1.04289121944
324.21	11610	102.45805487208	1.03808526912
324.22	12030	102.24178710768	1.0332793188
333.86	2520	124.87781311488	1.26877088448
333.92	3010	123.2005364532	1.2495470832
333.99	3510	121.92215366808	1.23512923224
334	4070	120.00938544072	1.21590543096
333.99	4620	118.26963142488	1.20148758
333.97	5000	117.15945690096	1.18706972904
333.97	5500	115.90510386744	1.17265187808
333.98	5990	114.80454124416	1.16303997744
334	6530	113.91544043496	1.1534280768
334.02	7050	112.82448971232	1.14381617616
334.05	7490	112.08917931336	1.13420427552
334.05	8350	110.82040842888	1.11978642456
334.03	8960	109.42187688576	1.1053685736
333.99	9500	108.39340351728	1.09575667296
334.01	10060	107.99931559104	1.09095072264
334.03	10520	107.40337775136	1.08614477232
334.03	11040	107.0765731296	1.081338822
334.05	11630	106.68729115368	1.07653287168
334.07	12280	106.3076210784	1.07653287168
343.4	2840	135.91708099992	1.38411369216
343.44	3020	134.94147308496	1.3696958412
343.77	3540	133.6775081508	1.36008394056
343.84	4040	131.082294978	1.33124823864
343.88	4520	129.17433270096	1.31202443736
343.93	5100	126.98281935504	1.28799468576
343.91	5560	124.90184286648	1.26877088448
343.89	5970	123.04674604296	1.2495470832
343.9	6530	121.46558838768	1.23032328192
343.9	7040	120.1727877516	1.21590543096
343.9	7540	118.85595736392	1.20148758
343.91	8070	117.75539474064	1.19187567936
343.91	8530	116.7365332728	1.18226377872
343.92	9010	115.78014915912	1.17265187808
343.92	9480	114.80454124416	1.16303997744
343.92	10010	113.86257498144	1.1534280768
343.92	10500	112.99269797352	1.14381617616
343.93	11010	112.2669994752	1.13420427552
343.96	11570	111.79601634384	1.1293983252
343.99	12130	111.22410825576	1.12459237488
353.68	3480	157.19302306656	1.65324691008
353.82	4030	149.06616107544	1.561933854
353.86	4500	143.57295985968	1.51868030112
353.85	5030	138.32486211024	1.4177553444
353.82	5500	134.57141491032	1.37450179152
353.81	6000	131.53405430808	1.34086013928
353.79	6470	128.90519948304	1.31202443736
353.81	7130	126.36765771408	1.28318873544
353.8	7530	124.69999295304	1.26396493416
353.78	7950	123.22937215512	1.2495470832
353.77	8480	121.76355730752	1.23512923224
353.79	9090	120.56206972752	1.22071138128
353.8	9570	119.61529751448	1.21109948064
353.79	10010	118.75983835752	1.20148758
353.8	10480	117.97166250504	1.19187567936
353.81	11040	117.34688896344	1.18706972904
353.84	11540	116.88551773272	1.18226377872
353.87	11950	116.1598192344	1.1774578284
363.33	4330	193.61251459152	2.22996094848
363.7	4990	171.83194774128	1.96563368088
363.66	5490	159.60080417688	1.72053021456
363.62	6030	150.43585691664	1.58115765528
363.62	6520	144.76483553904	1.49945649984
363.59	7000	139.96849711968	1.43697914568
363.59	7500	136.21985587008	1.3937255928
363.6	8030	132.67306453392	1.35527799024
363.59	8480	130.33256672808	1.32644228832
363.63	8990	128.16988908408	1.30241253672
363.61	9520	125.94954003624	1.27838278512
363.61	10000	123.85414569672	1.25435303352
363.66	10580	122.57095696128	1.23993518256
363.68	11000	121.50884194056	1.23032328192
363.71	11510	120.57168162816	1.22071138128
363.75	12010	119.55282016032	1.21109948064
373.37	5540	218.60345625552	2.96046539712
373.55	6030	187.58585289024	2.42219896128
373.58	6510	170.77463867088	1.91276822736
373.56	6990	159.83148979224	1.71091831392
373.57	7500	151.8920598636	1.5859636056
373.54	8000	146.44211220072	1.50906840048
373.53	8500	142.07830931016	1.45620294696
373.48	9010	138.16145979936	1.41294939408
373.47	9520	134.78768267472	1.37450179152
373.53	9990	132.60578122944	1.3456660896
373.58	10550	130.44310358544	1.32644228832
373.56	10990	128.6552900664	1.30721848704
373.53	11480	126.07930069488	1.28318873544
383.1	6560	239.15850577416	3.49392588264
383.57	7020	204.09909818976	2.8355106888
383.78	7490	182.32814324016	2.09539433952
383.86	7980	172.9661520168	1.85990277384
383.87	8520	160.93205241552	1.72533616488
383.81	9090	151.37782317936	1.60038145656
383.74	9490	145.92787551648	1.5138743508
383.71	10040	140.1655410828	1.441785096
383.71	10550	136.16218446624	1.38891964248
383.74	11270	132.0194552904	1.34086013928
383.88	12030	129.4242421176	1.31202443736

System: fluoroethane; phases: Gas
Property: Molar heat capacity at constant pressure, J/K/mol (Gas); method: Flow calorimetry
Temperature, K	Pressure, kPa	Molar heat capacity at constant pressure, J/K/mol	uncertainty
315.33	1020	77.83717138272	1.4177553444
315.39	1110	80.2113108408	1.44659104632
315.56	1220	83.08526913216	1.4898445992
325.57	1110	75.49667357688	1.19668162968
325.26	1210	77.20278594048	1.31202443736
325.23	1300	79.39910523672	1.39853154312
335.63	1210	74.19906699048	1.13420427552
335.46	1300	75.2371522596	1.26396493416
334.76	1410	77.77949997888	1.38411369216
335.23	1510	80.10557993376	1.48503864888
335.09	1600	82.79210616264	1.51868030112
345.19	1220	72.72364024224	1.12459237488
345.47	1420	74.89592978688	1.19187567936
345.35	1600	77.736246426	1.29280063608
345.01	1810	82.662345504	1.51868030112
344.36	2000	89.95297213944	1.74455996616
355.3	1130	71.61346571832	1.1293983252
355.28	1310	73.6992481572	1.1534280768
355.27	1520	75.84750795024	1.18706972904
355.27	1700	78.577287732	1.25915898384
355.25	1910	81.51372337752	1.31683038768
355.27	2110	85.1133801672	1.42736724504
355.48	2360	90.81804319704	1.58115765528
355.52	2590	97.7289997572	1.88393252544
355.31	2610	99.72346914	1.90315632672
355.33	2820	109.03740086016	2.1146181408
365.39	1200	71.16170638824	1.09575667296
365.39	1410	72.81975924864	1.11978642456
365.34	1600	74.4441704568	1.15823402712
365.3	1810	76.68854925624	1.20629353032
365.29	2010	79.3462397832	1.26396493416
365.28	2190	82.05679576368	1.32644228832
365.28	2400	85.62761685144	1.40333749344
365.33	2600	89.75592817632	1.50906840048
365.42	2800	94.54265469504	1.61960525784
365.46	2990	99.68982748776	1.79742541968
365.75	3200	107.31206469528	2.10981219048
365.54	3400	118.14467671656	2.36452755744

System: water; phases: Liquid
Property: Molar heat capacity at constant pressure, J/K/mol (Liquid); method: Flow calorimetry
Temperature, K	Pressure, kPa	Molar heat capacity at constant pressure, J/K/mol	uncertainty
304.24	100	75.428175832	0.762046344
304.28	3030	74.860694512	0.75664176
304.37	6180	75.15974816	0.760244816
304.4	9010	74.97959536	0.758443288
304.36	11970	74.966984664	0.758443288
323.09	90	75.694801976	0.7656494
323.13	3180	75.157946632	0.760244816
323.15	6040	74.939961744	0.758443288
323.17	9000	74.698556992	0.754840232
323.19	11970	74.577854616	0.754840232
371.11	990	76.211840512	0.771053984
371.19	2980	75.90738228	0.767450928
371.24	5990	75.647962248	0.7656494
371.27	9030	75.392145272	0.762046344
371.3	12040	75.11470996	0.760244816
424.24	1390	77.923292112	0.787267736
424.29	3030	77.818803488	0.787267736
424.35	6180	76.98829908	0.778260096
424.43	9080	76.786527944	0.776458568
424.19	12070	77.23150536	0.781863152
424.52	15080	76.51089416	0.77465704
473.34	2710	80.778713992	0.816092184
473.45	6220	80.481461872	0.814290656
473.51	9230	80.250866288	0.8106876
473.56	12190	80.079721128	0.8106876
473.61	15070	79.728423168	0.807084544
526	6030	87.651543312	0.886351776
526.12	9260	87.008397816	0.879145664
526.17	12250	86.597649432	0.875542608
526.23	15120	86.163481184	0.871939552
577.06	9960	104.340898704	1.055695408
577.11	11800	102.674485304	1.037680128
577.14	13510	102.148439128	1.032275544
577.18	15110	100.838728272	1.019664848
