Measured thermophysical data. Extraction of caffeine using aqueous two-phase systems containing ionic liquid and sorbitol
Source: Fluid Phase Equilib., 2019, 10.1016/j.fluid.2019.112287
Compound 1: tetrabutylphosphonium bromide, C16H36BrP, InChI=1S/C16H36P.BrH/c1-5-9-13-17(14-10-6-2,15-11-7-3)16-12-8-4;/h5-16H2,1-4H3;1H/q+1;/p-1, purity 99%
Compound 2: D-sorbitol, C6H14O6, InChI=1S/C6H14O6/c7-1-3(9)5(11)6(12)4(10)2-8/h3-12H,1-2H2/t3-,4+,5-,6-/m1/s1, purity 98%
Compound 3: water, H2O, InChI=1S/H2O/h1H2, purity 99.9%

System: tetrabutylphosphonium bromide + D-sorbitol + water; phases: Liquid mixture 1, Liquid mixture 2
Fixed: Pressure, kPa = 101
Fixed: Temperature, K = 298
Property: Mass fraction of D-sorbitol (Liquid mixture 1); method: Titration method
Mass fraction of tetrabutylphosphonium bromide	Mass fraction of D-sorbitol	uncertainty
0.5282	0.205	0.0082
0.4786	0.2215	0.0089
0.4817	0.2267	0.0091
0.4509	0.238	0.0095
0.4776	0.2281	0.0091
0.3747	0.2795	0.0112
0.3326	0.3074	0.0123
