Measured thermophysical data. Capacity of two 1-butyl-1-methylpyrrolidinium-based ionic liquidsfor the extraction of ethanol from its mixtures with heptane and hexane
Source: Fluid Phase Equilib., 2013, 10.1016/j.fluid.2013.06.018
Compound 1: 1-butyl-1-methylpyrrolidinium dicyanamide, C11H20N4, InChI=1S/C9H20N.C2N3/c1-3-4-7-10(2)8-5-6-9-10;3-1-5-2-4/h3-9H2,1-2H3;/q+1;-1, purity 98%
Compound 2: 1-butyl-1-methylpyrrolidinium trifluoromethanesulfonate, C10H20F3NO3S, InChI=1S/C9H20N.CHF3O3S/c1-3-4-7-10(2)8-5-6-9-10;2-1(3,4)8(5,6)7/h3-9H2,1-2H3;(H,5,6,7)/q+1;/p-1, purity 99%
Compound 3: heptane, C7H16, InChI=1S/C7H16/c1-3-5-7-6-4-2/h3-7H2,1-2H3, purity 99%
Compound 4: hexane, C6H14, InChI=1S/C6H14/c1-3-5-6-4-2/h3-6H2,1-2H3, purity 99%
Compound 5: ethanol, C2H6O, InChI=1S/C2H6O/c1-2-3/h3H,2H2,1H3, purity 99%

System: 1-butyl-1-methylpyrrolidinium dicyanamide; phases: Liquid
Property: Mass density, kg/m3 (Liquid); method: Vibrating tube method
Temperature, K	Pressure, kPa	Mass density, kg/m3	uncertainty
298.15	101.325	1013.49	0.87

System: 1-butyl-1-methylpyrrolidinium dicyanamide; phases: Liquid
Property: Refractive index (Na D-line) (Liquid); method: Standard Abbe refractometry
Temperature, K	Pressure, kPa	Refractive index (Na D-line)	uncertainty
298.15	101.325	1.49687	0.00078

System: 1-butyl-1-methylpyrrolidinium trifluoromethanesulfonate; phases: Liquid
Property: Mass density, kg/m3 (Liquid); method: Vibrating tube method
Temperature, K	Pressure, kPa	Mass density, kg/m3	uncertainty
298.15	101.325	1252.71	0.45

System: 1-butyl-1-methylpyrrolidinium trifluoromethanesulfonate; phases: Liquid
Property: Refractive index (Na D-line) (Liquid); method: Standard Abbe refractometry
Temperature, K	Pressure, kPa	Refractive index (Na D-line)	uncertainty
298.15	101.325	1.43287	0.0007

System: heptane; phases: Liquid
Property: Mass density, kg/m3 (Liquid); method: Vibrating tube method
Temperature, K	Pressure, kPa	Mass density, kg/m3	uncertainty
298.15	101.325	679.57	0.25

System: heptane; phases: Liquid
Property: Refractive index (Na D-line) (Liquid); method: Standard Abbe refractometry
Temperature, K	Pressure, kPa	Refractive index (Na D-line)	uncertainty
298.15	101.325	1.38529	0.0007

System: hexane; phases: Liquid
Property: Mass density, kg/m3 (Liquid); method: Vibrating tube method
Temperature, K	Pressure, kPa	Mass density, kg/m3	uncertainty
298.15	101.325	655.2	0.26

System: hexane; phases: Liquid
Property: Refractive index (Na D-line) (Liquid); method: Standard Abbe refractometry
Temperature, K	Pressure, kPa	Refractive index (Na D-line)	uncertainty
298.15	101.325	1.37241	0.0007

System: ethanol; phases: Liquid
Property: Mass density, kg/m3 (Liquid); method: Vibrating tube method
Temperature, K	Pressure, kPa	Mass density, kg/m3	uncertainty
298.15	101.325	785.2	0.24

System: ethanol; phases: Liquid
Property: Refractive index (Na D-line) (Liquid); method: Standard Abbe refractometry
Temperature, K	Pressure, kPa	Refractive index (Na D-line)	uncertainty
298.15	101.325	1.35936	0.0007

System: ethanol + heptane + 1-butyl-1-methylpyrrolidinium dicyanamide; phases: Liquid mixture 1, Liquid mixture 2
Fixed: Temperature, K = 298.15
Fixed: Pressure, kPa = 101
Property: Mole fraction of heptane (Liquid mixture 1); method: Density calibration data
Property: Mole fraction of heptane (Liquid mixture 2); method: Density calibration data
Property: Mole fraction of ethanol (Liquid mixture 2); method: Density calibration data
Mole fraction of ethanol	Mole fraction of heptane	uncertainty	Mole fraction of heptane	uncertainty	Mole fraction of ethanol	uncertainty
0	1		0.021	0.014	0	
0.012	0.988	0.012	0.02	0.014	0.16	
0.012	0.988	0.012	0.018	0.014	0.322	
0.016	0.984	0.016	0.026	0.014	0.526	
0.023	0.977	0.02	0.03	0.014	0.609	
0.051	0.949	0.02	0.04	0.014	0.701	
0.064	0.936	0.02	0.048	0.015	0.731	
0.093	0.907	0.02	0.06	0.016	0.758	
0.116	0.884	0.02	0.072	0.017	0.775	

System: ethanol + hexane + 1-butyl-1-methylpyrrolidinium dicyanamide; phases: Liquid mixture 2, Liquid mixture 1
Fixed: Temperature, K = 298.15
Fixed: Pressure, kPa = 101
Property: Mole fraction of hexane (Liquid mixture 2); method: Density calibration data
Property: Mole fraction of ethanol (Liquid mixture 1); method: Density calibration data
Property: Mole fraction of hexane (Liquid mixture 1); method: Density calibration data
Mole fraction of ethanol	Mole fraction of hexane	uncertainty	Mole fraction of ethanol	uncertainty	Mole fraction of hexane	uncertainty
0	0.042	0.014	0		1	
0.146	0.034	0.014	0.007	0.007	0.993	
0.353	0.03	0.014	0.008	0.008	0.992	
0.527	0.037	0.014	0.013	0.013	0.987	
0.604	0.044	0.014	0.024	0.02	0.976	
0.689	0.057	0.014	0.051	0.02	0.949	
0.72	0.07	0.016	0.071	0.02	0.929	
0.742	0.083	0.017	0.101	0.02	0.899	
0.757	0.095	0.018	0.13	0.02	0.87	

System: ethanol + heptane + 1-butyl-1-methylpyrrolidinium trifluoromethanesulfonate; phases: Liquid mixture 2, Liquid mixture 1
Fixed: Temperature, K = 298.15
Fixed: Pressure, kPa = 101
Property: Mole fraction of heptane (Liquid mixture 2); method: Density calibration data
Property: Mole fraction of ethanol (Liquid mixture 1); method: Density calibration data
Property: Mole fraction of heptane (Liquid mixture 1); method: Density calibration data
Mole fraction of ethanol	Mole fraction of heptane	uncertainty	Mole fraction of ethanol	uncertainty	Mole fraction of heptane	uncertainty
0	0.044	0.014	0		1	
0.15	0.04	0.014	0.014	0.014	0.986	
0.3	0.034	0.014	0.017	0.017	0.983	
0.43	0.035	0.014	0.022	0.02	0.978	
0.52	0.038	0.014	0.036	0.02	0.964	
0.563	0.049	0.014	0.051	0.02	0.949	
0.614	0.057	0.014	0.076	0.02	0.924	
0.674	0.052	0.014	0.109	0.02	0.891	
0.723	0.066	0.015	0.172	0.02	0.828	

System: ethanol + hexane + 1-butyl-1-methylpyrrolidinium trifluoromethanesulfonate; phases: Liquid mixture 2, Liquid mixture 1
Fixed: Temperature, K = 298.15
Fixed: Pressure, kPa = 101
Property: Mole fraction of hexane (Liquid mixture 2); method: Density calibration data
Property: Mole fraction of ethanol (Liquid mixture 1); method: Density calibration data
Property: Mole fraction of hexane (Liquid mixture 1); method: Density calibration data
Mole fraction of ethanol	Mole fraction of hexane	uncertainty	Mole fraction of ethanol	uncertainty	Mole fraction of hexane	uncertainty
0	0.062	0.014	0		1	
0.083	0.05	0.014	0.01	0.01	0.99	
0.257	0.049	0.014	0.012	0.012	0.988	
0.358	0.055	0.014	0.017	0.017	0.983	
0.505	0.061	0.014	0.041	0.02	0.959	
0.593	0.07	0.014	0.073	0.02	0.927	
0.63	0.078	0.014	0.103	0.02	0.897	
0.66	0.088	0.015	0.137	0.02	0.863	
0.678	0.095	0.015	0.165	0.02	0.835	
