Measured thermophysical data. Vapour liquid equilibria of carbon dioxide in dilute and concentrated aqueous solutions of piperazine at low to high pressure
Source: Fluid Phase Equilib., 2011, 10.1016/j.fluid.2010.11.004
Compound 1: piperazine, C4H10N2, InChI=1S/C4H10N2/c1-2-6-4-3-5-1/h5-6H,1-4H2, purity 99%
Compound 2: carbon dioxide, CO2, InChI=1S/CO2/c2-1-3, purity 99.9%
Compound 3: water, H2O, InChI=1S/H2O/h1H2, purity 99.8%

System: piperazine + carbon dioxide + water; phases: Liquid, Gas
Property: Amount ratio of solute to solvent of carbon dioxide (Liquid); method: Recirculating Equilibrium Cell
Amount concentration (molarity), mol/dm3 of piperazine	Temperature, K	Pressure, kPa	Amount ratio of solute to solvent of carbon dioxide	uncertainty
0.2	298	0.142	0.00222	0.00014
0.2	298	0.317	0.00287	0.00018
0.2	298	0.55	0.00292	0.00018
0.2	298	1.263	0.00321	0.0002
0.2	298	4.101	0.00343	0.00022
0.2	298	15.77	0.00375	0.00023
0.2	298	76.51	0.00425	0.00027
0.2	298	158.2	0.00458	0.00029
0.2	298	262	0.00539	0.00033
0.2	298	388.4	0.00612	0.00038
0.2	298	494.6	0.00673	0.00041
0.2	298	651.5	0.00722	0.00045
0.2	298	732	0.00816	0.00051
0.2	298	817.3	0.00859	0.00053
0.2	298	1171	0.00987	0.00061
0.2	298	1343	0.01061	0.00065
0.2	308	0.128	0.00194	0.00012
0.2	308	0.315	0.00243	0.00015
0.2	308	0.563	0.00277	0.00017
0.2	308	2.13	0.00326	0.0002
0.2	308	8.502	0.00346	0.00022
0.2	308	37.26	0.00386	0.00024
0.2	308	82.67	0.00415	0.00026
0.2	308	147.7	0.00424	0.00026
0.2	308	238.5	0.00458	0.00028
0.2	308	288.2	0.00521	0.00032
0.2	308	444.5	0.00581	0.00036
0.2	308	589.5	0.00658	0.0004
0.2	308	684.7	0.00687	0.00042
0.2	308	870.7	0.00739	0.00045
0.2	308	1150	0.0081	0.0005
0.2	308	1362	0.00887	0.00056
0.2	318	0.133	0.00179	0.00011
0.2	318	0.332	0.00202	0.00013
0.2	318	0.831	0.00241	0.00015
0.2	318	1.306	0.00281	0.00017
0.2	318	3.163	0.00314	0.0002
0.2	318	6.72	0.00332	0.00021
0.2	318	17.34	0.00345	0.00022
0.2	318	40.17	0.00381	0.00024
0.2	318	83.41	0.00402	0.00025
0.2	318	165.5	0.00432	0.00027
0.2	318	411.7	0.00528	0.00032
0.2	318	619.6	0.00605	0.00037
0.2	318	751.5	0.00648	0.0004
0.2	318	941.8	0.00698	0.00043
0.2	318	1031	0.00765	0.00047
0.2	318	1352	0.00828	0.0005
0.2	328	0.103	0.00103	7e-05
0.2	328	0.131	0.00122	8e-05
0.2	328	0.308	0.00167	0.00011
0.2	328	0.586	0.00193	0.00013
0.2	328	1.158	0.00228	0.00014
0.2	328	2.115	0.00261	0.00017
0.2	328	4.209	0.0029	0.00019
0.2	328	6.853	0.00309	0.00019
0.2	328	15.05	0.00342	0.00021
0.2	328	44.25	0.00367	0.00023
0.2	328	90.38	0.00397	0.00025
0.2	328	147.6	0.00424	0.00026
0.2	328	239.2	0.00454	0.00028
0.2	328	550.7	0.00525	0.00032
0.2	328	833.5	0.00612	0.00038
0.2	328	1080	0.00702	0.00043
0.2	328	1326	0.00755	0.00046
0.4	298	0.102	0.00391	0.00025
0.4	298	0.234	0.0049	0.00031
0.4	298	0.603	0.00572	0.00035
0.4	298	1.77	0.00623	0.0004
0.4	298	3.368	0.00669	0.00042
0.4	298	13.41	0.00703	0.00044
0.4	298	30.94	0.00739	0.00046
0.4	298	90.76	0.00783	0.00049
0.4	298	178.1	0.00856	0.00053
0.4	298	263.3	0.00878	0.00055
0.4	298	491.2	0.00974	0.0006
0.4	298	785.1	0.01108	0.00069
0.4	298	873.6	0.01156	0.00072
0.4	298	932.3	0.01236	0.00077
0.4	298	1084	0.01303	0.0008
0.4	298	1382	0.01358	0.00083
0.4	308	0.086	0.00319	0.0002
0.4	308	0.132	0.00384	0.00024
0.4	308	0.435	0.00479	0.0003
0.4	308	0.901	0.00529	0.00034
0.4	308	2.317	0.00574	0.00036
0.4	308	6.978	0.00661	0.00041
0.4	308	19.72	0.00703	0.00044
0.4	308	72.58	0.00738	0.00046
0.4	308	128.1	0.00791	0.00049
0.4	308	328.6	0.00863	0.00054
0.4	308	424.5	0.00912	0.00056
0.4	308	638.3	0.00992	0.00061
0.4	308	830	0.01034	0.00064
0.4	308	960.7	0.01076	0.00067
0.4	308	1241	0.01183	0.00074
0.4	308	1418	0.01274	0.00079
0.4	318	0.108	0.00238	0.00015
0.4	318	0.381	0.00414	0.00026
0.4	318	0.652	0.00471	0.00029
0.4	318	2.281	0.00529	0.00034
0.4	318	3.92	0.00563	0.00036
0.4	318	7.723	0.00623	0.00039
0.4	318	26.63	0.00688	0.00043
0.4	318	43.71	0.00698	0.00044
0.4	318	94.6	0.00716	0.00045
0.4	318	157.3	0.00773	0.00048
0.4	318	405.4	0.00831	0.00052
0.4	318	520	0.00911	0.00057
0.4	318	692.4	0.00946	0.00058
0.4	318	838.3	0.00976	0.0006
0.4	318	1015	0.0103	0.00063
0.4	318	1381	0.01138	0.0007
0.4	328	0.103	0.00192	0.00012
0.4	328	0.205	0.00268	0.00016
0.4	328	0.405	0.00327	0.00021
0.4	328	0.743	0.00419	0.00027
0.4	328	1.591	0.0046	0.00029
0.4	328	1.924	0.0049	0.00031
0.4	328	4.154	0.00511	0.00033
0.4	328	12.76	0.00626	0.00039
0.4	328	20.66	0.00647	0.0004
0.4	328	33.68	0.00659	0.00041
0.4	328	57.02	0.00677	0.00043
0.4	328	111.2	0.00738	0.00046
0.4	328	274.9	0.00768	0.00048
0.4	328	385.3	0.00852	0.00053
0.4	328	762.3	0.00925	0.00057
0.4	328	1026	0.00987	0.00061
0.4	328	1399	0.01067	0.00066
0.8	298	0.096	0.0073	0.00047
0.8	298	0.116	0.00891	0.00057
0.8	298	1.137	0.01115	0.0007
0.8	298	3.556	0.0124	0.00078
0.8	298	16.75	0.01358	0.00085
0.8	298	40.74	0.01408	0.00089
0.8	298	69.28	0.01453	0.00091
0.8	298	195.1	0.01533	0.00096
0.8	298	474.6	0.01679	0.00104
0.8	298	693.2	0.01721	0.00106
0.8	298	849	0.0177	0.00118
0.8	298	885.1	0.01863	0.00123
0.8	298	1160	0.01951	0.0012
0.8	298	1420	0.02027	0.00127
0.8	308	0.113	0.00641	0.00042
0.8	308	0.232	0.0082	0.00051
0.8	308	1.473	0.01078	0.00068
0.8	308	3.824	0.01183	0.00075
0.8	308	6.733	0.01183	0.00075
0.8	308	9.846	0.01272	0.0008
0.8	308	18.72	0.01324	0.00083
0.8	308	31.07	0.0135	0.00085
0.8	308	71.1	0.01394	0.00088
0.8	308	116.5	0.01424	0.00089
0.8	308	258.3	0.01507	0.00094
0.8	308	588.5	0.01654	0.00103
0.8	308	815.2	0.01695	0.00105
0.8	308	1150	0.0186	0.00116
0.8	308	1353	0.01918	0.0012
0.8	318	0.11	0.00496	0.00033
0.8	318	0.292	0.00769	0.0005
0.8	318	1.346	0.0096	0.00061
0.8	318	3.034	0.01066	0.00068
0.8	318	6.376	0.01131	0.00071
0.8	318	12.18	0.01176	0.00074
0.8	318	33.82	0.01282	0.00081
0.8	318	59.52	0.01368	0.00086
0.8	318	110.1	0.01392	0.00087
0.8	318	183.4	0.01465	0.00092
0.8	318	338.4	0.0154	0.00096
0.8	318	807.1	0.01611	0.001
0.8	318	995.7	0.01665	0.00104
0.8	318	1102	0.01726	0.00107
0.8	318	1350	0.01807	0.00112
0.8	328	0.109	0.00374	0.00024
0.8	328	0.349	0.00646	0.00041
0.8	328	1.042	0.00831	0.00052
0.8	328	2.813	0.00911	0.00058
0.8	328	5.698	0.01074	0.00068
0.8	328	11.15	0.01115	0.0007
0.8	328	20.18	0.01158	0.00073
0.8	328	39.02	0.01289	0.00081
0.8	328	88.45	0.01334	0.00084
0.8	328	157.6	0.01389	0.00087
0.8	328	295.5	0.01439	0.0009
0.8	328	541.1	0.01499	0.00094
0.8	328	710.6	0.01607	0.001
0.8	328	1046	0.01667	0.00104
0.8	328	1373	0.01716	0.00106
1.6	298	0.102	0.01659	0.00106
1.6	298	0.445	0.02017	0.00129
1.6	298	1.149	0.02219	0.0014
1.6	298	2.748	0.02351	0.00147
1.6	298	5.324	0.0244	0.00152
1.6	298	6.732	0.0253	0.00159
1.6	298	17.29	0.02628	0.00165
1.6	298	41.86	0.02748	0.00173
1.6	298	93.62	0.02838	0.00179
1.6	298	285.9	0.03045	0.00191
1.6	298	537.8	0.03166	0.00199
1.6	298	848.6	0.03407	0.00215
1.6	298	1088	0.03555	0.00224
1.6	298	1395	0.03743	0.00236
1.6	308	0.102	0.01502	0.00094
1.6	308	0.364	0.01827	0.00112
1.6	308	0.921	0.02048	0.00128
1.6	308	1.774	0.02143	0.00134
1.6	308	4.394	0.02328	0.00146
1.6	308	10.73	0.02474	0.00154
1.6	308	30.65	0.02592	0.00162
1.6	308	92.27	0.02718	0.0017
1.6	308	142.4	0.02779	0.00174
1.6	308	315.7	0.02992	0.00186
1.6	308	490.7	0.03093	0.00192
1.6	308	991.9	0.03348	0.00207
1.6	308	1188	0.0344	0.00216
1.6	308	1395	0.03553	0.00219
1.6	318	0.083	0.01213	0.00078
1.6	318	0.437	0.01717	0.00109
1.6	318	0.866	0.01863	0.00118
1.6	318	1.793	0.02054	0.00129
1.6	318	3.374	0.02138	0.00134
1.6	318	8.23	0.02255	0.00141
1.6	318	18.91	0.02446	0.00152
1.6	318	33.78	0.02493	0.00156
1.6	318	60.35	0.02558	0.0016
1.6	318	132.4	0.02676	0.00167
1.6	318	290.8	0.02875	0.00179
1.6	318	490.8	0.02961	0.00185
1.6	318	869.3	0.03191	0.00198
1.6	318	1487	0.03505	0.00216
1.6	328	0.089	0.00821	0.00054
1.6	328	0.267	0.0128	0.00082
1.6	328	2.973	0.01905	0.00122
1.6	328	6.016	0.02023	0.00128
1.6	328	10.84	0.02211	0.00139
1.6	328	26.21	0.02275	0.00143
1.6	328	36.22	0.02337	0.00147
1.6	328	63.62	0.02485	0.00155
1.6	328	102.5	0.02586	0.00161
1.6	328	196.2	0.02687	0.00167
1.6	328	387.7	0.02807	0.00175
1.6	328	749.5	0.0295	0.00184
1.6	328	931.3	0.03057	0.0019
1.6	328	1166	0.03124	0.00193
1.6	328	1458	0.0318	0.00198
3.2	308	0.091	0.02682	0.00169
3.2	308	0.942	0.03799	0.00239
3.2	308	3.019	0.04039	0.00248
3.2	308	5.364	0.04322	0.00269
3.2	308	9.242	0.04475	0.0028
3.2	308	20.5	0.04649	0.00291
3.2	308	47.85	0.0478	0.00299
3.2	308	93.07	0.04933	0.00309
3.2	308	152.3	0.05113	0.0032
3.2	308	263.1	0.05238	0.00327
3.2	308	423.6	0.05342	0.00333
3.2	308	630.6	0.05472	0.00341
3.2	308	1048	0.0562	0.00349
3.2	308	1473	0.05816	0.0036
3.2	318	0.115	0.02278	0.00149
3.2	318	0.722	0.0345	0.00217
3.2	318	2.17	0.03826	0.0024
3.2	318	4.277	0.04012	0.00253
3.2	318	7.003	0.04126	0.00258
3.2	318	15.12	0.04219	0.00265
3.2	318	29.83	0.04562	0.00286
3.2	318	67.34	0.04715	0.00296
3.2	318	120.6	0.04835	0.00304
3.2	318	217.6	0.04993	0.00313
3.2	318	492.6	0.05227	0.00327
3.2	318	614.6	0.05331	0.00334
3.2	318	1058	0.05494	0.00343
3.2	318	1451	0.05658	0.00351
3.2	328	0.096	0.01461	0.00103
3.2	328	0.146	0.0212	0.00138
3.2	328	0.726	0.03249	0.00205
3.2	328	1.235	0.03418	0.00215
3.2	328	3.074	0.03641	0.00233
3.2	328	7.303	0.04006	0.00251
3.2	328	10.43	0.04126	0.00258
3.2	328	48.28	0.04486	0.00281
3.2	328	85.62	0.04617	0.00289
3.2	328	175.2	0.04786	0.003
3.2	328	377.2	0.05031	0.00315
3.2	328	644.5	0.05184	0.00325
3.2	328	873.3	0.05363	0.00335
3.2	328	1194	0.05434	0.00339
3.2	328	1450	0.05587	0.00349
4.5	318	0.107	0.03697	0.00243
4.5	318	0.903	0.04822	0.00305
4.5	318	1.482	0.05099	0.0032
4.5	318	2.783	0.05407	0.00329
4.5	318	11.44	0.05842	0.00367
4.5	318	34.59	0.06217	0.00388
4.5	318	53.75	0.06427	0.00405
4.5	318	86.2	0.06637	0.00418
4.5	318	170.9	0.06906	0.00435
4.5	318	335.7	0.07056	0.00445
4.5	318	643	0.07251	0.00454
4.5	318	967	0.07401	0.00464
4.5	318	1407	0.07529	0.0047
4.5	328	0.16	0.0327	0.00212
4.5	328	0.474	0.04117	0.00256
4.5	328	2.068	0.04882	0.00299
4.5	328	5.51	0.05272	0.0033
4.5	328	9.719	0.05474	0.00341
4.5	328	23.81	0.05842	0.00364
4.5	328	55.06	0.06149	0.00385
4.5	328	86.19	0.06239	0.00392
4.5	328	146.4	0.06532	0.00413
4.5	328	403.9	0.06884	0.00431
4.5	328	745.8	0.07176	0.0045
4.5	328	986.1	0.07274	0.00455
4.5	328	1416	0.07431	0.00464
