Measured thermophysical data. Solubility of itaconic acid in different organic solvents: Experimental measurement and thermodynamic modeling
Source: Fluid Phase Equilib., 2012, 10.1016/j.fluid.2011.09.027
Compound 1: methanol, CH4O, InChI=1S/CH4O/c1-2/h2H,1H3, purity 99.5%
Compound 2: ethanol, C2H6O, InChI=1S/C2H6O/c1-2-3/h3H,2H2,1H3, purity 99.5%
Compound 3: propan-1-ol, C3H8O, InChI=1S/C3H8O/c1-2-3-4/h4H,2-3H2,1H3, purity 99.5%
Compound 4: acetonitrile, C2H3N, InChI=1S/C2H3N/c1-2-3/h1H3, purity 99.5%
Compound 5: propan-2-ol, C3H8O, InChI=1S/C3H8O/c1-3(2)4/h3-4H,1-2H3, purity 99.5%
Compound 6: ethyl acetate, C4H8O2, InChI=1S/C4H8O2/c1-3-6-4(2)5/h3H2,1-2H3, purity 99.5%
Compound 7: acetone, C3H6O, InChI=1S/C3H6O/c1-3(2)4/h1-2H3, purity 99.5%
Compound 8: sodium chloride, ClNa, InChI=1S/ClH.Na/h1H;/q;+1/p-1
Compound 9: water, H2O, InChI=1S/H2O/h1H2
Compound 10: methylenebutanedioic acid, C5H6O4, InChI=1S/C5H6O4/c1-3(5(8)9)2-4(6)7/h1-2H2,(H,6,7)(H,8,9), purity 99.65%

System: methylenebutanedioic acid; phases: Crystal, Liquid, Air at 1 atmosphere
Property: Normal melting temperature, K (Crystal); method: DTA
Normal melting temperature, K	uncertainty
440.15	1.06

System: sodium chloride + water; phases: Liquid, Crystal
Fixed: Pressure, kPa = 101
Property: Mole fraction of sodium chloride (Liquid); method: residual mass after drying
Temperature, K	Mole fraction of sodium chloride	uncertainty
303.15	0.1004	0.0061
313.15	0.1013	0.0061
323.15	0.1022	0.0062
333.15	0.103	0.0062

System: methanol + methylenebutanedioic acid; phases: Liquid, Crystal
Fixed: Pressure, kPa = 101
Property: Mole fraction of methylenebutanedioic acid (Liquid); method: residual mass after drying
Temperature, K	Mole fraction of methylenebutanedioic acid	uncertainty
283.15	0.1019	0.0062
288.15	0.1044	0.0063
293.15	0.1063	0.0065
298.15	0.1093	0.0066
303.15	0.1129	0.0069
308.15	0.116	0.0071
313.15	0.1194	0.0073
318.15	0.1239	0.0075
323.15	0.1279	0.0078
328.15	0.1322	0.008

System: ethanol + methylenebutanedioic acid; phases: Liquid, Crystal
Fixed: Pressure, kPa = 101
Property: Mole fraction of methylenebutanedioic acid (Liquid); method: residual mass after drying
Temperature, K	Mole fraction of methylenebutanedioic acid	uncertainty
283.15	0.0692	0.0042
288.15	0.0725	0.0044
293.15	0.0754	0.0046
298.15	0.0782	0.0047
303.15	0.0823	0.005
308.15	0.0865	0.0052
313.15	0.091	0.0055
318.15	0.0954	0.0058
323.15	0.1007	0.0061
328.15	0.106	0.0064

System: propan-1-ol + methylenebutanedioic acid; phases: Liquid, Crystal
Fixed: Pressure, kPa = 101
Property: Mole fraction of methylenebutanedioic acid (Liquid); method: residual mass after drying
Temperature, K	Mole fraction of methylenebutanedioic acid	uncertainty
283.15	0.0646	0.0039
288.15	0.0676	0.0041
293.15	0.071	0.0043
298.15	0.0746	0.0045
303.15	0.0787	0.0047
308.15	0.0829	0.005
313.15	0.0878	0.0053
318.15	0.0924	0.0056
323.15	0.0968	0.0058
328.15	0.1033	0.0062

System: acetonitrile + methylenebutanedioic acid; phases: Liquid, Crystal
Fixed: Pressure, kPa = 101
Property: Mole fraction of methylenebutanedioic acid (Liquid); method: residual mass after drying
Temperature, K	Mole fraction of methylenebutanedioic acid	uncertainty
283.15	0.0031	0.0002
288.15	0.0038	0.0002
293.15	0.0046	0.0003
298.15	0.0055	0.0003
303.15	0.0068	0.0004
308.15	0.0076	0.0005
313.15	0.0093	0.0006
318.15	0.0107	0.0006
323.15	0.013	0.0008
328.15	0.0149	0.0009

System: propan-2-ol + methylenebutanedioic acid; phases: Liquid, Crystal
Fixed: Pressure, kPa = 101
Property: Mole fraction of methylenebutanedioic acid (Liquid); method: residual mass after drying
Temperature, K	Mole fraction of methylenebutanedioic acid	uncertainty
283.15	0.0787	0.0047
288.15	0.082	0.0049
293.15	0.0843	0.0051
298.15	0.0873	0.0053
303.15	0.0906	0.0055
308.15	0.0946	0.0057
313.15	0.0986	0.0059
318.15	0.1032	0.0062
323.15	0.1083	0.0065
328.15	0.1137	0.0068

System: methylenebutanedioic acid + ethyl acetate; phases: Liquid, Crystal
Fixed: Pressure, kPa = 101
Property: Mole fraction of methylenebutanedioic acid (Liquid); method: residual mass after drying
Temperature, K	Mole fraction of methylenebutanedioic acid	uncertainty
283.15	0.0073	0.0004
288.15	0.0084	0.0005
293.15	0.0096	0.0006
298.15	0.011	0.0007
303.15	0.0126	0.0008
308.15	0.014	0.0008
313.15	0.0158	0.001
318.15	0.0182	0.0011
323.15	0.0204	0.0012
328.15	0.0232	0.0014

System: acetone + methylenebutanedioic acid; phases: Liquid, Crystal
Fixed: Pressure, kPa = 101
Property: Mole fraction of methylenebutanedioic acid (Liquid); method: residual mass after drying
Temperature, K	Mole fraction of methylenebutanedioic acid	uncertainty
283.15	0.0413	0.0025
288.15	0.0446	0.0027
293.15	0.0477	0.0029
298.15	0.0514	0.0031
303.15	0.0552	0.0033
308.15	0.0595	0.0036
313.15	0.065	0.0039
318.15	0.0698	0.0042
323.15	0.0755	0.0045
328.15	0.0821	0.0049
