Measured thermophysical data. Phase behavior measurement on the binary mixture for isopropyl acrylate and isopropyl methacrylate in supercritical CO2
Source: Fluid Phase Equilib., 2006, 10.1016/j.fluid.2006.08.019
Compound 1: carbon dioxide, CO2, InChI=1S/CO2/c2-1-3
Compound 2: 1-methylethyl 2-propenoate, C6H10O2, InChI=1S/C6H10O2/c1-4-6(7)8-5(2)3/h4-5H,1H2,2-3H3
Compound 3: 1-methylethyl 2-methyl-2-propenoate, C7H12O2, InChI=1S/C7H12O2/c1-5(2)7(8)9-6(3)4/h6H,1H2,2-4H3

System: carbon dioxide + 1-methylethyl 2-propenoate; phases: Liquid, Gas
Property: Critical pressure, kPa (Liquid); method: DIRECT:UFactor:128
Mole fraction of 1-methylethyl 2-propenoate	Critical pressure, kPa	uncertainty
0.04	9520	820
0.08	11410	800
0.145	12690	800
0.167	13680	810

System: carbon dioxide + 1-methylethyl 2-propenoate; phases: Liquid, Gas
Property: Critical temperature, K (Liquid); method: VISOBSU:UFactor:64
Mole fraction of 1-methylethyl 2-propenoate	Critical temperature, K	uncertainty
0.04	333.2	10.1
0.08	353.2	10
0.145	373.2	10.1
0.167	393.2	10.6

System: carbon dioxide + 1-methylethyl 2-propenoate; phases: Liquid, Gas
Property: Vapor or sublimation pressure, kPa (Liquid); method: CCELL:UFactor:16
Temperature, K	Mole fraction of 1-methylethyl 2-propenoate	Vapor or sublimation pressure, kPa	uncertainty
313.2	0.04	7380	370
313.2	0.08	6930	350
313.2	0.103	6700	340
313.2	0.136	6440	330
313.2	0.145	6360	320
313.2	0.167	6200	310
313.2	0.193	6110	310
313.2	0.225	5920	300
313.2	0.242	5830	300
313.2	0.28	5410	280
313.2	0.3	5130	260
313.2	0.312	5090	260
313.2	0.386	4530	230
313.2	0.436	4390	220
313.2	0.457	4070	210
313.2	0.52	3590	180
313.2	0.625	3050	160
313.2	0.683	2690	140
333.2	0.08	9470	480
333.2	0.103	9060	450
333.2	0.136	8870	440
333.2	0.145	8700	440
333.2	0.167	8530	430
333.2	0.193	8320	420
333.2	0.225	8030	400
333.2	0.242	7930	400
333.2	0.28	7420	380
333.2	0.3	6700	350
333.2	0.312	6770	340
333.2	0.386	6040	300
333.2	0.436	5550	280
333.2	0.457	5350	270
333.2	0.52	4650	240
333.2	0.625	3830	200
333.2	0.683	3230	170
353.2	0.103	11330	560
353.2	0.136	11280	560
353.2	0.145	11160	560
353.2	0.167	10930	540
353.2	0.193	10790	540
353.2	0.225	10300	520
353.2	0.242	9820	490
353.2	0.28	9320	470
353.2	0.3	8810	450
353.2	0.312	8630	440
353.2	0.386	7520	380
353.2	0.436	6820	350
353.2	0.457	6550	330
353.2	0.52	5780	290
353.2	0.625	4590	240
353.2	0.683	3760	200
373.2	0.167	12660	630
373.2	0.193	12590	630
373.2	0.225	11860	600
373.2	0.242	11480	570
373.2	0.28	11040	550
373.2	0.3	10580	540
373.2	0.312	10260	530
373.2	0.386	8970	450
373.2	0.436	8020	410
373.2	0.457	7760	390
373.2	0.52	6680	340
373.2	0.625	5180	270
373.2	0.683	4310	220
393.2	0.193	13620	680
393.2	0.225	13280	660
393.2	0.242	12960	650
393.2	0.28	12350	620
393.2	0.3	11910	600
393.2	0.312	11570	590
393.2	0.386	10110	510
393.2	0.436	9160	460
393.2	0.457	8900	450
393.2	0.52	7620	390
393.2	0.625	5840	300
393.2	0.683	4810	250

System: carbon dioxide + 1-methylethyl 2-propenoate; phases: Gas, Liquid
Property: Vapor or sublimation pressure, kPa (Gas); method: CCELL:UFactor:16
Temperature, K	Mole fraction of 1-methylethyl 2-propenoate	Vapor or sublimation pressure, kPa	uncertainty
353.2	0.04	10380	520
373.2	0.08	12290	610
373.2	0.103	12070	600
373.2	0.136	12550	630
393.2	0.08	12280	620
393.2	0.103	13050	650
393.2	0.136	13630	680
393.2	0.145	13640	680

System: carbon dioxide + 1-methylethyl 2-methyl-2-propenoate; phases: Liquid, Gas
Property: Critical pressure, kPa (Liquid); method: DIRECT:UFactor:128
Mole fraction of 1-methylethyl 2-methyl-2-propenoate	Critical pressure, kPa	uncertainty
0.016	8030	840
0.047	10220	870
0.055	11850	1140
0.097	13100	800
0.144	14200	800

System: carbon dioxide + 1-methylethyl 2-methyl-2-propenoate; phases: Liquid, Gas
Property: Critical temperature, K (Liquid); method: VISOBSU:UFactor:64
Mole fraction of 1-methylethyl 2-methyl-2-propenoate	Critical temperature, K	uncertainty
0.016	313.2	10.2
0.047	333.2	10.6
0.055	353.2	14.1
0.097	373.2	10.1
0.144	393.2	10.1

System: carbon dioxide + 1-methylethyl 2-methyl-2-propenoate; phases: Gas, Liquid
Property: Vapor or sublimation pressure, kPa (Gas); method: Closed cell (Static) method
Temperature, K	Mole fraction of 1-methylethyl 2-methyl-2-propenoate	Vapor or sublimation pressure, kPa	uncertainty
333.2	0.016	9140	300
353.2	0.047	11680	300
373.2	0.047	11930	450
373.2	0.055	12590	340
393.2	0.047	11480	410
393.2	0.055	12280	410
393.2	0.097	13860	170

System: carbon dioxide + 1-methylethyl 2-methyl-2-propenoate; phases: Liquid, Gas
Property: Vapor or sublimation pressure, kPa (Liquid); method: CCELL:UFactor:24
Temperature, K	Mole fraction of 1-methylethyl 2-methyl-2-propenoate	Vapor or sublimation pressure, kPa	uncertainty
313.2	0.047	7730	580
313.2	0.055	7620	570
313.2	0.097	6930	520
313.2	0.144	6430	480
313.2	0.185	6230	470
313.2	0.228	6030	450
313.2	0.294	5720	430
313.2	0.33	5450	410
313.2	0.39	4820	360
313.2	0.445	4420	330
313.2	0.497	3860	290
313.2	0.606	3140	240
313.2	0.735	2480	190
333.2	0.055	10170	760
333.2	0.097	9520	710
333.2	0.144	9350	700
333.2	0.185	8790	660
333.2	0.228	8280	620
333.2	0.294	7590	570
333.2	0.33	7140	540
333.2	0.39	6310	470
333.2	0.445	5930	450
333.2	0.497	5140	390
333.2	0.606	4140	310
333.2	0.735	3000	230
353.2	0.097	11720	870
353.2	0.144	11450	850
353.2	0.185	11030	820
353.2	0.228	10310	770
353.2	0.294	9380	700
353.2	0.33	8860	660
353.2	0.39	7930	590
353.2	0.445	7210	540
353.2	0.497	6370	480
353.2	0.606	5030	380
353.2	0.735	3520	270
373.2	0.144	13210	980
373.2	0.185	12790	950
373.2	0.228	12380	920
373.2	0.294	11140	830
373.2	0.33	10310	770
373.2	0.39	9380	700
373.2	0.445	8310	620
373.2	0.497	7410	560
373.2	0.606	5820	440
373.2	0.735	3830	290
393.2	0.185	14140	1050
393.2	0.228	13590	1010
393.2	0.294	12410	930
393.2	0.33	11760	880
393.2	0.39	10590	790
393.2	0.445	9380	700
393.2	0.497	8400	630
393.2	0.606	6540	490
393.2	0.735	4140	320
