Measured thermophysical data. Liquid-vapor equilibrium data of CO2+ dichloromethane + medroxyprogesterone system
Source: Fluid Phase Equilib., 2014, 10.1016/j.fluid.2013.10.037
Compound 1: carbon dioxide, CO2, InChI=1S/CO2/c2-1-3, purity 99.9%
Compound 2: dichloromethane, CH2Cl2, InChI=1S/CH2Cl2/c2-1-3/h1H2, purity 99.5%
Compound 3: medroxyprogesterone, C22H32O3, InChI=1S/C22H32O3/c1-13-11-16-17(20(3)8-5-15(24)12-19(13)20)6-9-21(4)18(16)7-10-22(21,25)14(2)23/h12-13,16-18,25H,5-11H2,1-4H3/t13-,16+,17-,18-,20+,21-,22-/m0/s1

System: dichloromethane + carbon dioxide + medroxyprogesterone; phases: Liquid, Gas, Crystal
Property: Triple point temperature, K (Liquid); method: Closed cell (Static) method
Pressure, kPa	Mole fraction of carbon dioxide	Triple point temperature, K	uncertainty
3010	0.43	303	1
3990	0.59	303	1
4560	0.69	303	1
4960	0.78	303	1
5360	0.85	303	1
5620	0.9	303	1
6130	0.95	303	1
3820	0.43	313	1
4890	0.59	313	1
5440	0.69	313	1
6670	0.78	313	1
7650	0.85	313	1
7030	0.9	313	1
7490	0.95	313	1
4630	0.43	323	1
5840	0.59	323	1
6480	0.69	323	1
7280	0.78	323	1
7910	0.85	323	2
8400	0.9	323	1
8540	0.95	323	1
5520	0.43	333	1
6760	0.59	333	1
7630	0.69	333	1
8590	0.78	333	1
7910	0.85	333	3
3410	0.49	303	1
4130	0.61	303	1
4740	0.7	303	1
5200	0.79	303	1
5560	0.86	303	1
5940	0.91	303	1
6440	0.96	303	1
4100	0.49	313	1
5030	0.61	313	1
5730	0.7	313	1
6320	0.79	313	1
6840	0.86	313	1
7390	0.91	313	1
7800	0.96	313	1
4910	0.49	323	1
5930	0.61	323	1
6850	0.7	323	1
7520	0.79	323	1
8150	0.86	323	1
8660	0.91	323	1
5650	0.49	333	1
6880	0.61	333	1
7890	0.7	333	1
8650	0.79	333	1
9290	0.86	333	1

System: dichloromethane + carbon dioxide + medroxyprogesterone; phases: Gas, Liquid, Crystal
Property: Triple point temperature, K (Gas); method: Closed cell (Static) method
Pressure, kPa	Mole fraction of carbon dioxide	Triple point temperature, K	uncertainty
9580	0.9	333	1
9440	0.95	333	1
8600	0.96	323	1
9430	0.91	333	1
