Measured thermophysical data. High-pressure vapor liquid equilibria for CO2 + alkanol systems and densities of n-dodecane and n-tridecane
Source: Fluid Phase Equilib., 2007, 10.1016/j.fluid.2007.04.023
Compound 1: carbon dioxide, CO2, InChI=1S/CO2/c2-1-3
Compound 2: propan-1-ol, C3H8O, InChI=1S/C3H8O/c1-2-3-4/h4H,2-3H2,1H3
Compound 3: propan-2-ol, C3H8O, InChI=1S/C3H8O/c1-3(2)4/h3-4H,1-2H3
Compound 4: butan-1-ol, C4H10O, InChI=1S/C4H10O/c1-2-3-4-5/h5H,2-4H2,1H3
Compound 5: dodecane, C12H26, InChI=1S/C12H26/c1-3-5-7-9-11-12-10-8-6-4-2/h3-12H2,1-2H3
Compound 6: tridecane, C13H28, InChI=1S/C13H28/c1-3-5-7-9-11-13-12-10-8-6-4-2/h3-13H2,1-2H3

System: dodecane; phases: Liquid
Property: Mass density, kg/m3 (Liquid); method: Vibrating tube method
Temperature, K	Pressure, kPa	Mass density, kg/m3	uncertainty
313.09	1022	735.79	0.33
313.09	2023	736.6	0.34
313.09	3017	737.36	0.35
313.09	4026	738.14	0.36
313.09	5023	738.89	0.38
313.09	6032	739.66	0.39
313.09	7011	740.38	0.4
313.09	8009	741.15	0.41
313.09	9026	741.91	0.43
313.09	10008	742.66	0.44
313.09	11022	743.39	0.45
313.09	12012	744.09	0.46
313.09	13019	744.82	0.48
313.09	14017	745.55	0.49
313.09	15025	746.22	0.5
313.09	16025	746.91	0.51
313.09	17015	747.58	0.52
313.09	18022	748.26	0.54
313.09	19025	748.93	0.55
313.09	20013	749.59	0.56
313.09	21015	750.23	0.57
313.09	22011	750.9	0.58
313.09	23021	751.53	0.6
313.09	24015	752.21	0.61
313.09	24354	752.42	0.61
322.97	1025	728.33	0.33
322.97	2028	729.17	0.34
322.97	3026	729.97	0.35
322.97	4034	730.78	0.37
322.97	5021	731.59	0.38
322.97	6017	732.37	0.39
322.97	7017	733.17	0.41
322.97	8041	733.99	0.42
322.97	9015	734.73	0.43
322.97	10016	735.5	0.44
322.97	11019	736.28	0.46
322.97	12011	737.01	0.47
322.97	13028	737.78	0.48
322.97	14041	738.53	0.49
322.97	14994	739.22	0.51
322.97	16027	739.96	0.52
322.97	17001	740.64	0.53
322.97	18015	741.35	0.54
322.97	19032	742.07	0.56
322.97	20004	742.74	0.57
322.97	21009	743.43	0.58
322.97	22023	744.14	0.59
322.97	23009	744.8	0.6
322.97	24013	745.5	0.62
322.97	24507	745.83	0.62
332.8	1023	721.08	0.33
332.8	2019	721.96	0.34
332.8	3022	722.81	0.36
332.8	4030	723.69	0.37
332.8	5026	724.53	0.38
332.8	6035	725.36	0.4
332.8	7014	726.16	0.41
332.8	8025	727.03	0.42
332.8	9017	727.84	0.44
332.8	10020	728.67	0.45
332.8	11023	729.46	0.46
332.8	12022	730.26	0.47
332.8	13004	731.04	0.49
332.8	14008	731.81	0.5
332.8	15018	732.57	0.51
332.8	16023	733.35	0.53
332.8	17014	734.08	0.54
332.8	18006	734.82	0.55
332.8	19024	735.59	0.56
332.8	20023	736.32	0.58
332.8	21009	737.01	0.59
332.8	22009	737.73	0.6
332.8	23018	738.45	0.61
332.8	24018	739.17	0.62
332.8	24665	739.63	0.63
342.69	1019	713.8	0.33
342.69	2025	714.75	0.34
342.69	3025	715.67	0.36
342.69	4014	716.58	0.37
342.69	5015	717.47	0.39
342.69	6017	718.36	0.4
342.69	7021	719.25	0.41
342.69	8007	720.13	0.43
342.69	9019	721.03	0.44
342.69	10018	721.86	0.45
342.69	11016	722.71	0.47
342.69	12013	723.56	0.48
342.69	13021	724.39	0.49
342.69	14020	725.21	0.51
342.69	15030	726.04	0.52
342.69	16024	726.83	0.53
342.69	17011	727.58	0.54
342.69	18025	728.36	0.56
342.69	19023	729.15	0.57
342.69	20013	729.88	0.58
342.69	21006	730.67	0.6
342.69	22021	731.41	0.61
342.69	23014	732.15	0.62
342.69	24013	732.89	0.63
342.69	24725	733.44	0.64
352.51	1021	706.54	0.33
352.51	2027	707.55	0.35
352.51	3013	708.48	0.36
352.51	4019	709.46	0.37
352.51	5027	710.45	0.39
352.51	6014	711.35	0.4
352.51	7020	712.33	0.42
352.51	8000	713.23	0.43
352.51	9024	714.18	0.44
352.51	10009	715.07	0.46
352.51	11022	715.96	0.47
352.51	12012	716.84	0.48
352.51	13026	717.71	0.5
352.51	14017	718.6	0.51
352.51	15021	719.45	0.52
352.51	16022	720.3	0.54
352.51	17012	721.08	0.55
352.51	18027	721.95	0.56
352.51	19013	722.74	0.58
352.51	20028	723.53	0.59
352.51	21021	724.33	0.6
352.51	22023	725.14	0.62
352.51	23008	725.88	0.63
352.51	24020	726.65	0.64
352.51	24813	727.31	0.65
362.29	1015	699.21	0.33
362.29	2020	700.31	0.35
362.29	3015	701.33	0.36
362.29	4012	702.34	0.38
362.29	5029	703.4	0.39
362.29	6009	704.36	0.41
362.29	7029	705.38	0.42
362.29	8013	706.3	0.43
362.29	9012	707.31	0.45
362.29	10038	708.31	0.46
362.29	11027	709.22	0.48
362.29	12009	710.09	0.49
362.29	13007	711.04	0.5
362.29	14015	711.96	0.52
362.29	15008	712.81	0.53
362.29	16034	713.71	0.54
362.29	17030	714.59	0.56
362.29	18011	715.43	0.57
362.29	19021	716.29	0.58
362.29	20007	717.15	0.6
362.29	21017	717.94	0.61
362.29	22032	718.77	0.62
362.29	23002	719.6	0.64
362.29	24005	720.38	0.65
362.29	24809	721.05	0.66

System: tridecane; phases: Liquid
Property: Mass density, kg/m3 (Liquid); method: Vibrating tube method
Temperature, K	Pressure, kPa	Mass density, kg/m3	uncertainty
313.01	1023	743.49	0.32
313.01	2030	744.27	0.34
313.01	3025	745.05	0.35
313.01	4027	745.74	0.36
313.01	5014	746.51	0.37
313.01	6024	747.18	0.39
313.01	7021	747.95	0.4
313.01	8036	748.69	0.41
313.01	9019	749.41	0.42
313.01	10018	750.14	0.43
313.01	11030	750.86	0.45
313.01	12006	751.51	0.46
313.01	13017	752.24	0.47
313.01	14035	752.95	0.48
313.01	15021	753.59	0.49
313.01	16019	754.27	0.51
313.01	17019	754.94	0.52
313.01	18024	755.61	0.53
313.01	19025	756.27	0.54
313.01	20043	756.91	0.55
313.01	21011	757.52	0.56
313.01	22020	758.16	0.58
313.01	23018	758.79	0.59
313.01	24004	759.44	0.6
313.01	25036	760.12	0.61
322.92	1017	736.15	0.33
322.92	2006	736.94	0.34
322.92	3025	737.83	0.35
322.92	4021	738.62	0.36
322.92	5021	739.42	0.38
322.92	6043	740.18	0.39
322.92	7018	740.9	0.4
322.92	8022	741.72	0.41
322.92	9008	742.44	0.43
322.92	10012	743.18	0.44
322.92	11015	743.93	0.45
322.92	12006	744.71	0.46
322.92	13030	745.38	0.48
322.92	14010	746.12	0.49
322.92	15026	746.81	0.5
322.92	16024	747.53	0.51
322.92	17016	748.22	0.52
322.92	18010	748.89	0.54
322.92	19007	749.56	0.55
322.92	20023	750.22	0.56
322.92	21020	750.92	0.57
322.92	22010	751.57	0.58
322.92	23040	752.26	0.6
322.92	24006	752.95	0.61
322.92	25006	753.6	0.62
332.78	1015	729.19	0.33
332.78	2020	730.06	0.34
332.78	3022	730.83	0.35
332.78	4016	731.63	0.37
332.78	5020	732.47	0.38
332.78	6016	733.27	0.39
332.78	7006	734.09	0.41
332.78	8018	734.9	0.42
332.78	9013	735.71	0.43
332.78	10008	736.52	0.44
332.78	11016	737.3	0.46
332.78	12007	738.05	0.47
332.78	13012	738.79	0.48
332.78	14021	739.55	0.49
332.78	15011	740.26	0.51
332.78	16020	741.03	0.52
332.78	17015	741.74	0.53
332.78	18005	742.47	0.54
332.78	19017	743.19	0.55
332.78	20014	743.89	0.57
332.78	21016	744.66	0.58
332.78	22046	745.35	0.59
332.78	22994	745.97	0.6
332.78	24032	746.67	0.61
332.78	25030	747.38	0.63
342.64	1022	722.03	0.33
342.64	2014	722.93	0.34
342.64	3025	723.84	0.36
342.64	4021	724.7	0.37
342.64	5020	725.59	0.38
342.64	6020	726.44	0.4
342.64	7008	727.27	0.41
342.64	8026	728.15	0.42
342.64	9007	728.98	0.43
342.64	10010	729.81	0.45
342.64	11012	730.63	0.46
342.64	12014	731.46	0.47
342.64	13011	732.27	0.49
342.64	14008	733.03	0.5
342.64	15029	733.84	0.51
342.64	16006	734.58	0.52
342.64	17016	735.35	0.54
342.64	18019	736.09	0.55
342.64	19006	736.85	0.56
342.64	20001	737.59	0.57
342.64	21023	738.34	0.59
342.64	22008	739.06	0.6
342.64	23005	739.79	0.61
342.64	24032	740.52	0.62
342.64	25024	741.14	0.64
352.47	1013	714.88	0.33
352.47	2022	715.88	0.34
352.47	3010	716.8	0.36
352.47	4020	717.71	0.37
352.47	5019	718.65	0.39
352.47	6011	719.55	0.4
352.47	7017	720.47	0.41
352.47	8014	721.35	0.43
352.47	9022	722.24	0.44
352.47	10031	723.11	0.45
352.47	11010	723.98	0.47
352.47	12003	724.82	0.48
352.47	13024	725.71	0.49
352.47	14013	726.54	0.5
352.47	15007	727.34	0.52
352.47	16016	728.16	0.53
352.47	17007	728.94	0.54
352.47	18020	729.77	0.56
352.47	19011	730.53	0.57
352.47	20013	731.29	0.58
352.47	21032	732.07	0.59
352.47	22020	732.84	0.61
352.47	23020	733.6	0.62
352.47	24021	734.36	0.63
352.47	25024	735.14	0.64
362.25	1020	707.72	0.33
362.25	2026	708.74	0.35
362.25	3018	709.77	0.36
362.25	4006	710.71	0.37
362.25	5021	711.73	0.39
362.25	6019	712.7	0.4
362.25	7029	713.67	0.42
362.25	8017	714.54	0.43
362.25	9011	715.51	0.44
362.25	10011	716.42	0.46
362.25	11021	717.35	0.47
362.25	12018	718.24	0.48
362.25	13014	719.11	0.5
362.25	14000	719.97	0.51
362.25	15017	720.85	0.52
362.25	16026	721.7	0.54
362.25	17019	722.52	0.55
362.25	18034	723.36	0.56
362.25	19016	724.17	0.58
362.25	20004	725	0.59
362.25	21015	725.8	0.6
362.25	22022	726.63	0.61
362.25	23008	727.42	0.63
362.25	24034	728.22	0.64
362.25	25010	729.02	0.65

System: propan-1-ol + carbon dioxide; phases: Liquid, Gas
Property: Vapor or sublimation pressure, kPa (Liquid); method: CCELL:UFactor:2
Mole fraction of carbon dioxide	Temperature, K	Vapor or sublimation pressure, kPa	uncertainty
0.177	426.68	10602	113
0.251	426.68	12505	132
0.356	426.68	14432	144
0.409	426.68	14934	102
0.417	397.48	12348	220
0.486	397.48	14052	167
0.493	373.16	12063	176
0.511	426.68	15270	100
0.54	426.68	15335	98
0.597	373.16	13740	173
0.607	344.82	11457	106
0.62	397.48	15436	144
0.689	397.48	15759	98
0.69	373.16	14561	131
0.695	344.82	12024	106
0.705	397.48	15769	98
0.729	373.16	14774	99
0.744	373.16	14855	108
0.753	344.82	12233	87
0.756	373.16	14875	119
0.769	373.16	14978	153
0.802	344.82	12321	82

System: propan-1-ol + carbon dioxide; phases: Gas, Liquid
Property: Mole fraction of carbon dioxide (Gas); method: Chromatography
Mole fraction of carbon dioxide	Temperature, K	Mole fraction of carbon dioxide	uncertainty
0.177	426.68	0.794	0.016
0.251	426.68	0.735	0.015
0.356	426.68	0.643	0.015
0.409	426.68	0.603	0.013
0.417	397.48	0.877	0.018
0.486	397.48	0.858	0.017
0.493	373.16	0.938	0.019
0.511	426.68	0.565	0.013
0.54	426.68	0.54	0.015
0.597	373.16	0.917	0.019
0.607	344.82	0.944	0.02
0.62	397.48	0.822	0.017
0.689	397.48	0.785	0.016
0.69	373.16	0.869	0.019
0.695	344.82	0.907	0.019
0.705	397.48	0.781	0.016
0.729	373.16	0.852	0.019
0.744	373.16	0.842	0.02
0.753	344.82	0.894	0.018
0.756	373.16	0.831	0.021
0.769	373.16	0.821	0.02
0.802	344.82	0.889	0.018

System: propan-2-ol + carbon dioxide; phases: Liquid, Gas
Property: Vapor or sublimation pressure, kPa (Liquid); method: CCELL:UFactor:2
Mole fraction of carbon dioxide	Temperature, K	Vapor or sublimation pressure, kPa	uncertainty
0.06	344.23	2030	31
0.069	443.46	3334	44
0.102	443.46	4264	61
0.125	344.23	3575	58
0.136	443.46	5138	82
0.161	413.45	5028	94
0.176	443.46	6321	103
0.196	344.23	4944	69
0.202	413.45	6145	113
0.214	443.46	7240	111
0.237	413.45	6964	120
0.268	443.46	8508	130
0.274	432.58	10049	144
0.284	413.45	8082	164
0.306	398.62	9588	160
0.312	344.23	6570	94
0.326	413.45	9011	134
0.329	443.46	9785	139
0.368	413.45	9940	176
0.373	398.62	10689	133
0.377	432.58	11392	110
0.4	443.46	11029	133
0.415	413.45	10882	173
0.424	344.23	8025	124
0.428	432.58	12155	136
0.459	443.46	11610	116
0.462	398.62	11998	142
0.465	413.45	11804	132
0.467	344.23	8659	118
0.474	373.18	10490	143
0.509	432.58	12782	92
0.527	432.58	12864	84
0.551	344.23	9487	110
0.566	353.72	10074	115
0.569	432.58	12933	83
0.582	398.62	13406	140
0.585	373.18	12039	164
0.589	413.45	13109	159
0.614	398.62	13788	311
0.644	334.04	9187	95
0.666	344.23	10356	119
0.671	353.72	11153	154
0.676	373.18	12981	137
0.702	344.23	10612	117
0.734	344.23	10826	102
0.741	353.72	11854	150
0.747	373.18	13351	94
0.758	373.18	13383	94
0.767	334.04	9912	106
0.771	353.72	12043	107
0.781	344.23	11027	92
0.794	353.72	12166	109
0.802	353.72	12192	78
0.808	344.23	11115	76
0.819	334.04	10166	94
0.828	353.72	12210	77
0.842	344.23	11145	71
0.871	334.04	10350	82
0.888	334.04	10354	65

System: propan-2-ol + carbon dioxide; phases: Gas, Liquid
Property: Mole fraction of carbon dioxide (Gas); method: Chromatography
Mole fraction of carbon dioxide	Temperature, K	Mole fraction of carbon dioxide	uncertainty
0.06	344.23	0.94	0.019
0.069	443.46	0.443	0.01
0.102	443.46	0.515	0.012
0.125	344.23	0.967	0.019
0.136	443.46	0.56	0.012
0.161	413.45	0.809	0.016
0.176	443.46	0.607	0.013
0.196	344.23	0.972	0.019
0.202	413.45	0.822	0.017
0.214	443.46	0.62	0.013
0.237	413.45	0.831	0.017
0.268	443.46	0.634	0.013
0.274	432.58	0.733	0.015
0.284	413.45	0.835	0.017
0.306	398.62	0.872	0.018
0.312	344.23	0.975	0.02
0.326	413.45	0.831	0.017
0.329	443.46	0.644	0.013
0.368	413.45	0.825	0.017
0.373	398.62	0.859	0.017
0.377	432.58	0.704	0.015
0.4	443.46	0.633	0.014
0.415	413.45	0.818	0.017
0.424	344.23	0.972	0.019
0.428	432.58	0.676	0.015
0.459	443.46	0.585	0.014
0.462	398.62	0.843	0.017
0.465	413.45	0.797	0.018
0.467	344.23	0.969	0.019
0.474	373.18	0.912	0.018
0.509	432.58	0.641	0.014
0.527	432.58	0.631	0.019
0.551	344.23	0.961	0.019
0.566	353.72	0.95	0.019
0.569	432.58	0.569	0.021
0.582	398.62	0.802	0.017
0.585	373.18	0.898	0.018
0.589	413.45	0.676	0.018
0.614	398.62	0.76	0.018
0.644	334.04	0.966	0.019
0.666	344.23	0.951	0.019
0.671	353.72	0.934	0.019
0.676	373.18	0.864	0.019
0.702	344.23	0.945	0.02
0.734	344.23	0.926	0.019
0.741	353.72	0.91	0.02
0.747	373.18	0.816	0.019
0.758	373.18	0.809	0.019
0.767	334.04	0.954	0.019
0.771	353.72	0.887	0.021
0.781	344.23	0.916	0.019
0.794	353.72	0.874	0.02
0.802	353.72	0.866	0.028
0.808	344.23	0.905	0.018
0.819	334.04	0.939	0.019
0.828	353.72	0.828	0.029
0.842	344.23	0.91	0.018
0.871	334.04	0.925	0.022
0.888	334.04	0.888	0.043

System: butan-1-ol + carbon dioxide; phases: Liquid, Gas
Property: Vapor or sublimation pressure, kPa (Liquid); method: CCELL:UFactor:2
Mole fraction of carbon dioxide	Temperature, K	Vapor or sublimation pressure, kPa	uncertainty
0.074	430.25	2369	46
0.08	398.98	2125	43
0.096	354.06	2067	42
0.134	398.98	3537	74
0.134	430.25	4114	88
0.169	354.06	3569	75
0.175	430.25	5554	119
0.188	398.98	5005	110
0.224	430.25	7047	143
0.239	354.06	5078	109
0.241	398.98	6569	136
0.275	430.25	8591	177
0.301	354.06	6453	135
0.307	398.98	8231	167
0.324	430.25	10108	198
0.358	398.98	9566	194
0.375	430.25	11492	188
0.384	354.06	8179	162
0.416	398.98	11024	216
0.45	430.25	13048	201
0.457	354.06	9581	183
0.478	398.98	12528	243
0.506	354.06	10487	178
0.523	430.25	14511	221
0.545	398.98	14009	259
0.602	354.06	11976	186
0.609	430.25	16127	250
0.622	398.98	15527	206
0.683	354.06	12984	188

System: butan-1-ol + carbon dioxide; phases: Gas, Liquid
Property: Mole fraction of carbon dioxide (Gas); method: Chromatography
Mole fraction of carbon dioxide	Temperature, K	Mole fraction of carbon dioxide	uncertainty
0.074	430.25	0.838	0.017
0.08	398.98	0.942	0.019
0.096	354.06	0.989	0.011
0.134	398.98	0.949	0.019
0.134	430.25	0.877	0.018
0.169	354.06	0.989	0.011
0.175	430.25	0.901	0.018
0.188	398.98	0.955	0.019
0.224	430.25	0.912	0.018
0.239	354.06	0.989	0.011
0.241	398.98	0.956	0.019
0.275	430.25	0.913	0.018
0.301	354.06	0.988	0.012
0.307	398.98	0.955	0.019
0.324	430.25	0.91	0.018
0.358	398.98	0.953	0.019
0.375	430.25	0.903	0.018
0.384	354.06	0.986	0.014
0.416	398.98	0.95	0.019
0.45	430.25	0.895	0.018
0.457	354.06	0.983	0.017
0.478	398.98	0.944	0.019
0.506	354.06	0.981	0.019
0.523	430.25	0.883	0.018
0.545	398.98	0.934	0.019
0.602	354.06	0.975	0.02
0.609	430.25	0.843	0.018
0.622	398.98	0.909	0.019
0.683	354.06	0.951	0.019
