Measured thermophysical data. (Liquid + liquid) equilibria in the (water + tetrahydrofuran + methylcyclohexane) ternary system at temperatures between (278 and 343) K and atmospheric pressure: Experimental data and correlation
Source: Fluid Phase Equilib., 2015, 10.1016/j.fluid.2014.10.041
Compound 1: water, H2O, InChI=1S/H2O/h1H2
Compound 2: tetrahydrofuran, C4H8O, InChI=1S/C4H8O/c1-2-4-5-3-1/h1-4H2, purity 99%
Compound 3: methylcyclohexane, C7H14, InChI=1S/C7H14/c1-7-5-3-2-4-6-7/h7H,2-6H2,1H3, purity 99%

System: methylcyclohexane + tetrahydrofuran + water; phases: Liquid mixture 1, Liquid mixture 2
Fixed: Pressure, kPa = 100
Property: Mole fraction of methylcyclohexane (Liquid mixture 1); method: Chromatography
Property: Mole fraction of methylcyclohexane (Liquid mixture 2); method: Chromatography
Property: Mole fraction of tetrahydrofuran (Liquid mixture 2); method: Chromatography
Temperature, K	Mole fraction of tetrahydrofuran	Mole fraction of methylcyclohexane	uncertainty	Mole fraction of methylcyclohexane	uncertainty	Mole fraction of tetrahydrofuran	uncertainty
278.15	0	0.9995	0.0005	0		0	
278.15	0.7258	0.0793	0.032	0.0002	0.0002	0.1905	
278.15	0.1065	0.8928	0.0101	0.0001	0.0001	0.018	
278.15	0.2548	0.7443	0.0104	0.0001	0.0001	0.0374	
278.15	0.4031	0.5882	0.0116	0.0001	0.0001	0.0576	
278.15	0.4369	0.5496	0.0116	0.0001	0.0001	0.063	
278.15	0.599	0.3614	0.0123	0.0001	0.0001	0.0943	
278.15	0.7029	0.2174	0.0545	0.0001	0.0001	0.128	
278.15	0.7396	0.1174	0.0252	0.0001	0.0001	0.1821	
278.15	0.7385	0.1044	0.0183	0.0001	0.0001	0.186	
288.15	0.5186	0.4649	0.0108	0.0001	0.0001	0.0529	
288.15	0	0.998	0.002	0.0001	0.0001	0	
288.15	0.5375	0.4453	0.0115	0.0002	0.0002	0.0585	
288.15	0.5949	0.3792	0.0133	0.0002	0.0002	0.0675	
288.15	0.6812	0.2516	0.0769	0.0002	0.0002	0.083	
288.15	0.7231	0.1715	0.0346	0.0002	0.0002	0.0978	
288.15	0.7281	0.1148	0.0157	0.0002	0.0002	0.1168	
288.15	0.7296	0.1271	0.018	0.0002	0.0002	0.1179	
288.15	0.7018	0.0759	0.0172	0.0002	0.0002	0.1539	
288.15	0.0827	0.9153	0.0101	0.0001	0.0001	0.0101	
288.15	0.1633	0.8344	0.0103	0.0001	0.0001	0.0166	
288.15	0.167	0.8297	0.0103	0.0001	0.0001	0.0172	
288.15	0.2192	0.7755	0.0103	0.0001	0.0001	0.0225	
288.15	0.2823	0.7114	0.0104	0.0001	0.0001	0.0282	
288.15	0.3798	0.612	0.0107	0.0001	0.0001	0.0455	
288.15	0.4685	0.517	0.0111	0.0001	0.0001	0.0524	
298.15	0.6476	0.2915	0.0182	0.0003	0.0003	0.0685	
298.15	0.7024	0.19	0.0378	0.0003	0.0003	0.0853	
298.15	0.7109	0.1613	0.0293	0.0004	0.0004	0.0966	
298.15	0.7098	0.1173	0.017	0.0004	0.0004	0.1083	
298.15	0.6844	0.071	0.0256	0.0005	0.0005	0.1252	
298.15	0.6615	0.0604	0.0338	0.0007	0.0007	0.1365	
298.15	0.6191	0.0435	0.0193	0.0007	0.0007	0.1614	
298.15	0.0797	0.9163	0.0101	0.0001	0.0001	0.0068	
298.15	0.212	0.7839	0.0104	0.0002	0.0002	0.0186	
298.15	0	0.9967	0.0033	0.0001	0.0001	0	
298.15	0.3144	0.6745	0.0108	0.0002	0.0002	0.0273	
298.15	0.4554	0.5246	0.0112	0.0002	0.0002	0.0429	
298.15	0.5542	0.413	0.0258	0.0002	0.0002	0.0522	
323.15	0.3698	0.6095	0.0112	0.0003	0.0003	0.0186	
323.15	0.4098	0.5652	0.0113	0.0003	0.0003	0.0234	
323.15	0.446	0.525	0.0116	0.0004	0.0004	0.0266	
323.15	0.5496	0.4068	0.0118	0.0004	0.0004	0.0322	
323.15	0.5986	0.3442	0.0404	0.0006	0.0006	0.0421	
323.15	0	0.9941	0.0044	0.0002	0.0002	0	
323.15	0.6336	0.3003	0.0053	0.0007	0.0007	0.0451	
323.15	0.6708	0.2309	0.0137	0.0007	0.0007	0.0483	
323.15	0.6911	0.1822	0.0668	0.0008	0.0008	0.0651	
323.15	0.6975	0.1611	0.0312	0.0009	0.0009	0.0655	
323.15	0.6928	0.1353	0.0243	0.0009	0.0009	0.0599	
323.15	0.6803	0.1022	0.0201	0.0009	0.0009	0.0794	
323.15	0.6588	0.0821	0.0266	0.0009	0.0009	0.0882	
323.15	0.6309	0.0599	0.007	0.0009	0.0009	0.0811	
323.15	0.6134	0.0553	0.0553	0.0009	0.0009	0.0983	
323.15	0.0875	0.9069	0.0101	0.0002	0.0002	0.0042	
323.15	0.1448	0.8494	0.0103	0.0002	0.0002	0.009	
323.15	0.2645	0.7253	0.0109	0.0002	0.0002	0.0168	
323.15	0.2933	0.694	0.0111	0.0003	0.0003	0.0169	
343.15	0.2265	0.751	0.0108	0.0012	0.0012	0.0084	
343.15	0	0.9919	0.0044	0.0005	0.0005	0	
343.15	0.0378	0.9525	0.0104	0.0008	0.0008	0.0012	
343.15	0.1276	0.8578	0.0106	0.0011	0.0011	0.0049	

System: methylcyclohexane + water; phases: Liquid mixture 1, Liquid mixture 2
Fixed: Pressure, kPa = 100
Property: Mole fraction of methylcyclohexane (Liquid mixture 1); method: Chromatography
Temperature, K	Mole fraction of methylcyclohexane	uncertainty
278.15	0.9995	0.0005
288.15	0.998	0.002
298.15	0.9967	0.0033
323.15	0.9941	0.0044
343.15	0.9919	0.0044

System: methylcyclohexane + water; phases: Liquid mixture 2, Liquid mixture 1
Fixed: Pressure, kPa = 100
Property: Mole fraction of methylcyclohexane (Liquid mixture 2); method: Chromatography
Temperature, K	Mole fraction of methylcyclohexane	uncertainty
288.15	0.0001	0.0001
298.15	0.0001	0.0001
323.15	0.0002	0.0002
343.15	0.0005	0.0005
