Measured thermophysical data. Effect of pressure and the capability of 2-methoxyethanol as a solvent in the behaviour of a diisopropyl ether isopropyl alcohol azeotropic mixture
Source: Fluid Phase Equilib., 2007, 10.1016/j.fluid.2007.09.014
Compound 1: diisopropyl ether, C6H14O, InChI=1S/C6H14O/c1-5(2)7-6(3)4/h5-6H,1-4H3, purity 99%
Compound 2: propan-2-ol, C3H8O, InChI=1S/C3H8O/c1-3(2)4/h3-4H,1-2H3, purity 99.5%
Compound 3: 2-methoxyethan-1-ol, C3H8O2, InChI=1S/C3H8O2/c1-5-3-2-4/h4H,2-3H2,1H3, purity 99.8%

System: diisopropyl ether; phases: Liquid
Property: Refractive index (Na D-line) (Liquid); method: Standard Abbe refractometry
Temperature, K	Pressure, kPa	Refractive index (Na D-line)	uncertainty
298.15	101.325	1.3652	0.0005

System: diisopropyl ether; phases: Liquid
Property: Mass density, kg/m3 (Liquid); method: VIBTUB:UFactor:6
Temperature, K	Pressure, kPa	Mass density, kg/m3	uncertainty
298.15	101.325	718.3	1.2

System: diisopropyl ether; phases: Liquid, Gas
Property: Vapor or sublimation pressure, kPa (Liquid); method: Ebulliometric method (Recirculating still)
Temperature, K	Vapor or sublimation pressure, kPa	uncertainty
307.72	30	1
341.49	101.3	0.2

System: propan-2-ol; phases: Liquid
Property: Refractive index (Na D-line) (Liquid); method: Standard Abbe refractometry
Temperature, K	Pressure, kPa	Refractive index (Na D-line)	uncertainty
298.15	101.325	1.3754	0.0005

System: propan-2-ol; phases: Liquid
Property: Mass density, kg/m3 (Liquid); method: VIBTUB:UFactor:4
Temperature, K	Pressure, kPa	Mass density, kg/m3	uncertainty
298.15	101.325	782.7	0.6

System: propan-2-ol; phases: Liquid, Gas
Property: Vapor or sublimation pressure, kPa (Liquid); method: Ebulliometric method (Recirculating still)
Temperature, K	Vapor or sublimation pressure, kPa	uncertainty
327.84	30	1
355.35	101.3	0.2

System: 2-methoxyethan-1-ol; phases: Liquid
Property: Refractive index (Na D-line) (Liquid); method: Standard Abbe refractometry
Temperature, K	Pressure, kPa	Refractive index (Na D-line)	uncertainty
298.15	101.325	1.4002	0.0005

System: 2-methoxyethan-1-ol; phases: Liquid
Property: Mass density, kg/m3 (Liquid); method: Vibrating tube method
Temperature, K	Pressure, kPa	Mass density, kg/m3	uncertainty
298.15	101.325	960.1	0.1

System: 2-methoxyethan-1-ol; phases: Liquid, Gas
Property: Vapor or sublimation pressure, kPa (Liquid); method: Ebulliometric method (Recirculating still)
Temperature, K	Vapor or sublimation pressure, kPa	uncertainty
336.18	9.93	0.2
340.22	11.93	0.2
343.74	13.91	0.2
346.79	15.85	0.2
349.63	17.88	0.2
352.13	19.87	0.2
354.46	21.84	0.2
357.64	24.83	0.2
360.51	27.82	0.2
363.12	30.8	0.2
365.53	33.78	0.2
367.73	36.71	0.2
369.84	39.72	0.2
371.79	42.67	0.2
374.27	46.68	0.2
376.57	50.68	0.2
378.6	54.44	0.2
381.2	59.57	0.2
383.54	64.51	0.21
385.74	69.5	0.21
387.8	74.44	0.21
389.8	79.45	0.21
391.65	84.39	0.21
393.36	89.12	0.21
395.15	94.33	0.21
397.24	100.76	0.21
397.44	101.3	0.21

System: propan-2-ol + diisopropyl ether; phases: Liquid, Gas
Property: Azeotropic temperature, K (Liquid); method: By T(X) extreme
Pressure, kPa	Azeotropic temperature, K	uncertainty
30	307.25	0.3
101.3	339.31	0.3

System: propan-2-ol + diisopropyl ether; phases: Liquid, Gas
Property: Azeotropic composition: mole fraction of diisopropyl ether (Liquid); method: By T or P extreme
Pressure, kPa	Azeotropic composition: mole fraction of diisopropyl ether	uncertainty
30	0.9064	0.0021
101.3	0.7818	0.0036

System: propan-2-ol + diisopropyl ether; phases: Liquid, Gas
Property: Boiling temperature at pressure P, K (Liquid); method: Ebulliometric method (Recirculating still)
Mole fraction of diisopropyl ether	Pressure, kPa	Boiling temperature at pressure P, K	uncertainty
0	30	327.84	0.12
0	101.3	355.35	0.19
0.025	30	324.48	0.22
0.029	101.3	352.6	0.25
0.066	101.3	350.39	0.23
0.076	30	320.62	0.18
0.102	101.3	348.69	0.23
0.127	30	317.83	0.16
0.142	101.3	347.12	0.22
0.186	30	315.41	0.15
0.189	101.3	345.58	0.22
0.232	101.3	344.46	0.22
0.247	30	313.47	0.15
0.281	101.3	343.38	0.22
0.309	30	312.1	0.14
0.331	101.3	342.5	0.22
0.382	30	310.82	0.14
0.382	101.3	341.75	0.22
0.439	101.3	341.07	0.22
0.447	30	309.98	0.14
0.499	101.3	340.46	0.22
0.508	30	309.31	0.14
0.555	101.3	340.05	0.22
0.566	30	308.75	0.14
0.613	101.3	339.73	0.23
0.626	30	308.32	0.14
0.672	101.3	339.47	0.23
0.684	30	307.89	0.14
0.728	101.3	339.31	0.23
0.746	30	307.6	0.14
0.785	101.3	339.28	0.23
0.796	30	307.37	0.14
0.842	101.3	339.4	0.24
0.847	30	307.2	0.15
0.894	101.3	339.71	0.24
0.898	30	307.18	0.15
0.941	30	307.25	0.15
0.947	101.3	340.37	0.25
0.977	30	307.47	0.15
1	30	307.72	0.15
1	101.3	341.49	0.25

System: propan-2-ol + diisopropyl ether; phases: Gas, Liquid
Property: Mole fraction of diisopropyl ether (Gas); method: CHROM:UFactor:4
Mole fraction of diisopropyl ether	Pressure, kPa	Mole fraction of diisopropyl ether	uncertainty
0	30	0	0.001
0	101.3	0	0.001
0.025	30	0.121	0.009
0.029	101.3	0.104	0.008
0.066	101.3	0.21	0.009
0.076	30	0.317	0.013
0.102	101.3	0.29	0.012
0.127	30	0.43	0.017
0.142	101.3	0.361	0.014
0.186	30	0.535	0.018
0.189	101.3	0.427	0.016
0.232	101.3	0.475	0.018
0.247	30	0.606	0.015
0.281	101.3	0.517	0.018
0.309	30	0.653	0.013
0.331	101.3	0.557	0.017
0.382	30	0.693	0.012
0.382	101.3	0.586	0.016
0.439	101.3	0.619	0.015
0.447	30	0.729	0.01
0.499	101.3	0.649	0.013
0.508	30	0.754	0.01
0.555	101.3	0.675	0.012
0.566	30	0.775	0.009
0.613	101.3	0.7	0.012
0.626	30	0.794	0.008
0.672	101.3	0.727	0.011
0.684	30	0.813	0.007
0.728	101.3	0.755	0.01
0.746	30	0.83	0.007
0.785	101.3	0.784	0.008
0.796	30	0.851	0.006
0.842	101.3	0.82	0.007
0.847	30	0.873	0.005
0.894	101.3	0.861	0.006
0.898	30	0.901	0.004
0.941	30	0.933	0.004
0.947	101.3	0.92	0.004
0.977	30	0.969	0.003
1	30	1	0.001
1	101.3	1	0.001

System: diisopropyl ether + 2-methoxyethan-1-ol; phases: Liquid, Gas
Fixed: Pressure, kPa = 101.3
Property: Boiling temperature at pressure P, K (Liquid); method: Ebulliometric method (Recirculating still)
Mole fraction of diisopropyl ether	Boiling temperature at pressure P, K	uncertainty
0	397.44	0.09
0.009	393.2	0.88
0.022	387.75	0.74
0.038	382.46	0.62
0.057	377.01	0.53
0.079	371.72	0.39
0.115	365.79	0.29
0.168	359.47	0.22
0.211	356.41	0.15
0.258	354.28	0.12
0.313	352.3	0.11
0.369	350.78	0.1
0.427	349.41	0.1
0.48	348.43	0.1
0.534	347.58	0.1
0.593	346.74	0.1
0.65	346.01	0.1
0.71	345.21	0.1
0.779	344.45	0.1
0.834	343.75	0.1
0.887	343.03	0.1
0.941	342.24	0.1
1	341.49	0.1

System: diisopropyl ether + 2-methoxyethan-1-ol; phases: Gas, Liquid
Fixed: Pressure, kPa = 101.3
Property: Mole fraction of diisopropyl ether (Gas); method: CHROM:UFactor:4
Mole fraction of diisopropyl ether	Mole fraction of diisopropyl ether	uncertainty
0	0	0.001
0.009	0.124	0.026
0.022	0.279	0.022
0.038	0.41	0.021
0.057	0.527	0.02
0.079	0.62	0.016
0.115	0.711	0.012
0.168	0.788	0.009
0.211	0.822	0.007
0.258	0.844	0.006
0.313	0.86	0.006
0.369	0.871	0.005
0.427	0.88	0.005
0.48	0.887	0.005
0.534	0.895	0.004
0.593	0.899	0.004
0.65	0.905	0.004
0.71	0.914	0.004
0.779	0.925	0.003
0.834	0.935	0.003
0.887	0.949	0.003
0.941	0.971	0.002
1	1	0.001

System: propan-2-ol + 2-methoxyethan-1-ol; phases: Liquid, Gas
Fixed: Pressure, kPa = 101.3
Property: Boiling temperature at pressure P, K (Liquid); method: Ebulliometric method (Recirculating still)
Mole fraction of propan-2-ol	Boiling temperature at pressure P, K	uncertainty
0	397.44	0.09
0.05	392.64	0.2
0.099	388.36	0.19
0.155	384.14	0.17
0.207	380.64	0.16
0.261	377.42	0.14
0.314	374.67	0.13
0.371	372.03	0.13
0.425	369.77	0.12
0.485	367.62	0.11
0.541	365.79	0.11
0.6	363.99	0.11
0.658	362.33	0.11
0.715	360.84	0.11
0.767	359.48	0.1
0.815	358.64	0.1
0.859	357.96	0.1
0.902	357.33	0.1
0.942	356.59	0.1
1	355.35	0.09

System: propan-2-ol + 2-methoxyethan-1-ol; phases: Gas, Liquid
Fixed: Pressure, kPa = 101.3
Property: Mole fraction of propan-2-ol (Gas); method: CHROM:UFactor:4
Mole fraction of propan-2-ol	Mole fraction of propan-2-ol	uncertainty
0	0	0.001
0.05	0.186	0.01
0.099	0.328	0.013
0.155	0.446	0.017
0.207	0.54	0.017
0.261	0.622	0.014
0.314	0.686	0.012
0.371	0.738	0.01
0.425	0.775	0.009
0.485	0.812	0.007
0.541	0.842	0.006
0.6	0.875	0.005
0.658	0.9	0.004
0.715	0.921	0.003
0.767	0.937	0.003
0.815	0.95	0.003
0.859	0.963	0.003
0.902	0.975	0.002
0.942	0.985	0.002
1	1	0.001

System: propan-2-ol + diisopropyl ether + 2-methoxyethan-1-ol; phases: Liquid, Gas
Fixed: Pressure, kPa = 101.3
Property: Mass fraction of propan-2-ol (Liquid); method: CHROM:UFactor:4
Property: Mass fraction of propan-2-ol (Gas); method: CHROM:UFactor:4
Property: Mole fraction of diisopropyl ether (Gas); method: CHROM:UFactor:4
Temperature, K	Mole fraction of diisopropyl ether	Mass fraction of propan-2-ol	uncertainty	Mass fraction of propan-2-ol	uncertainty	Mole fraction of diisopropyl ether	uncertainty
340.05	0.684	0.257	0.008	0.227	0.008	0.75	
340.83	0.894	0.057	0.003	0.08	0.003	0.893	
341.01	0.605	0.287	0.009	0.231	0.009	0.736	
341.07	0.477	0.467	0.015	0.331	0.012	0.651	
341.25	0.704	0.177	0.006	0.165	0.006	0.795	
341.73	0.494	0.391	0.012	0.286	0.011	0.684	
341.88	0.798	0.077	0.003	0.088	0.004	0.862	
342.74	0.389	0.486	0.015	0.342	0.013	0.631	
343.35	0.57	0.194	0.006	0.163	0.006	0.779	
343.48	0.674	0.09	0.003	0.089	0.004	0.843	
343.73	0.318	0.212	0.007	0.233	0.009	0.716	
343.76	0.277	0.67	0.01	0.455	0.017	0.53	
344.3	0.287	0.592	0.013	0.414	0.015	0.56	
344.56	0.366	0.413	0.013	0.298	0.011	0.657	
344.92	0.655	0.041	0.002	0.041	0.002	0.873	
345.22	0.497	0.169	0.005	0.14	0.005	0.783	
346.28	0.388	0.259	0.008	0.204	0.008	0.724	
346.41	0.265	0.513	0.015	0.38	0.014	0.575	
346.58	0.494	0.092	0.003	0.08	0.003	0.826	
346.87	0.184	0.698	0.009	0.523	0.018	0.453	
346.98	0.395	0.199	0.006	0.161	0.006	0.755	
347.69	0.291	0.36	0.011	0.282	0.011	0.649	
348.01	0.472	0.039	0.002	0.035	0.002	0.854	
348.32	0.295	0.305	0.009	0.245	0.009	0.676	
349.89	0.299	0.19	0.006	0.165	0.006	0.734	
350.45	0.19	0.457	0.014	0.385	0.014	0.549	
350.52	0.092	0.799	0.006	0.682	0.012	0.295	
350.88	0.12	0.671	0.01	0.569	0.016	0.39	
351.15	0.304	0.093	0.003	0.086	0.004	0.79	
351.18	0.194	0.403	0.013	0.346	0.013	0.58	
352.34	0.047	0.894	0.004	0.822	0.007	0.164	
352.71	0.195	0.299	0.009	0.278	0.01	0.621	
353.88	0.2	0.197	0.006	0.195	0.007	0.677	
354	0.239	0.054	0.003	0.055	0.003	0.793	
356.3	0.081	0.559	0.014	0.581	0.016	0.343	
357.49	0.101	0.417	0.013	0.454	0.017	0.441	
358.8	0.03	0.69	0.01	0.793	0.008	0.141	
360.08	0.043	0.579	0.013	0.69	0.012	0.214	
362.84	0.094	0.197	0.006	0.272	0.01	0.524	
363.62	0.06	0.352	0.011	0.482	0.018	0.344	
364.02	0.101	0.101	0.004	0.15	0.006	0.61	
373.8	0.055	0.05	0.003	0.109	0.004	0.52	
