Measured thermophysical data. Isopiestic study of mixed electrolyte solution {yCuCl2 + (1-y)CaCl2} in ethanol at T = 298.15 K
Source: Fluid Phase Equilib., 2012, 10.1016/j.fluid.2012.02.022
Compound 1: ethanol, C2H6O, InChI=1S/C2H6O/c1-2-3/h3H,2H2,1H3, purity 99.8%
Compound 2: calcium chloride, CaCl2, InChI=1S/Ca.2ClH/h;2*1H/q+2;;/p-2, purity 99.5%
Compound 3: copper chloride, Cl2Cu, InChI=1S/2ClH.Cu/h2*1H;/q;;+2/p-2, purity 99.5%

System: ethanol + copper chloride + calcium chloride; phases: Liquid, Crystal
Fixed: Temperature, K = 298.15
Property: Osmotic coefficient (Liquid); method: ISOPIE
Molality, mol/kg of calcium chloride	Molality, mol/kg of copper chloride	Osmotic coefficient	uncertainty
0	0	1	1
0.0001	0	1	1
0.0002	0	1	1
0.0513	0.127	0.3331	0.0258
0.0664	0.1643	0.3289	0.026
0.0857	0.2121	0.3165	0.0265
0.1018	0.252	0.319	0.026
0.1056	0.0885	0.306	0.027
0.1261	0.0343	0.3385	0.0256
0.133	0.3292	0.3042	0.0269
0.1363	0.1142	0.3029	0.027
0.1364	0.3376	0.3049	0.0269
0.1487	0.368	0.3004	0.0271
0.1761	0.048	0.3262	0.0261
0.1778	0.4401	0.2946	0.0273
0.2109	0.522	0.2872	0.0276
0.2205	0.1847	0.2866	0.0276
0.23	0.0626	0.3096	0.0267
0.2321	0.5745	0.2964	0.0273
0.2603	0.6443	0.2845	0.0277
0.2611	0.0711	0.308	0.027
0.2716	0.6722	0.2939	0.0273
0.2908	0.2436	0.2814	0.0278
0.3057	0.2561	0.29	0.03
0.3168	0.7841	0.2871	0.0276
0.3422	0.2867	0.2816	0.0278
0.3546	0.0966	0.3012	0.0271
0.3724	0.9217	0.2809	0.0279
0.3979	0.3333	0.2797	0.0279
0.4207	1.0412	0.2854	0.0277
0.4321	0.1177	0.2953	0.0273
0.4409	1.0912	0.2804	0.0279
0.4532	0.3797	0.2754	0.0281
0.492	0.4122	0.2779	0.028
0.4923	0.1341	0.2899	0.0275
0.5013	1.2407	0.2823	0.0278
0.513	0.1397	0.3003	0.0271
0.5362	1.3271	0.288	0.028
0.5593	0.1523	0.2979	0.0272
0.5731	0.4801	0.267	0.028
0.5873	0.16	0.2852	0.0277
0.6108	0.5117	0.2738	0.0281
0.6361	1.5744	0.2988	0.0272
0.6524	0.1777	0.2926	0.0274
0.7151	1.7699	0.3123	0.0266
0.7233	0.197	0.2914	0.0274
0.7307	0.6122	0.2707	0.0282
0.7516	0.2047	0.2956	0.0273
0.7783	1.9263	0.3257	0.0261
0.779	0.2122	0.3034	0.027
0.8292	0.6947	0.2738	0.0281
0.8411	2.0818	0.3383	0.0256
0.8815	0.2401	0.3008	0.0271
0.9303	2.3025	0.3609	0.0248
0.9454	0.2575	0.3137	0.0266
0.9774	2.4191	0.3757	0.0242
0.9793	0.8204	0.2801	0.0279
1.0429	0.284	0.3249	0.0261
1.0571	0.8856	0.2855	0.0277
1.0614	0.2891	0.319	0.026
1.0661	2.6386	0.3929	0.0235
1.1275	0.3071	0.3294	0.026
1.1527	2.853	0.4106	0.0228
1.1751	2.9084	0.4195	0.0225
1.1861	0.9937	0.2956	0.0273
1.1946	0.3254	0.3368	0.0257
1.2543	0.3416	0.3491	0.0252
1.2643	3.1292	0.4409	0.0217
1.3071	1.095	0.3081	0.0268
1.3482	0.3672	0.3516	0.0251
1.4084	3.4858	0.4812	0.0201
1.4098	1.1811	0.3181	0.0264
1.4196	0.3867	0.3593	0.0248
1.4351	1.2023	0.3171	0.0264
1.5048	0.4099	0.3796	0.024
1.5536	1.3015	0.3293	0.026
1.6286	1.3644	0.3396	0.0256
1.6592	0.4519	0.4067	0.023
1.7474	1.4639	0.351	0.025
1.7859	0.4864	0.4383	0.0218
1.8761	0.511	0.4583	0.021
1.9058	1.5966	0.3688	0.0244
2.005	0.5461	0.4858	0.0199
2.0446	0.5569	0.4984	0.0194
2.0767	1.7398	0.395	0.023
2.2303	0.6075	0.5482	0.0175
2.2485	1.8837	0.4145	0.0227
2.4	2.0106	0.4416	0.0216
2.6389	2.2108	0.4856	0.0199

System: ethanol + copper chloride + calcium chloride; phases: Liquid, Crystal
Fixed: Temperature, K = 298.15
Property: (Relative) activity of ethanol (Liquid); method: derived
Molality, mol/kg of calcium chloride	Molality, mol/kg of copper chloride	(Relative) activity of ethanol	uncertainty
0.0513	0.127	0.9918	0.0004
0.0664	0.1643	0.9896	0.0004
0.0857	0.2121	0.9871	0.0004
0.1018	0.252	0.9845	0.0004
0.1056	0.0885	0.9918	0.0004
0.1261	0.0343	0.9925	0.0004
0.133	0.3292	0.9808	0.0004
0.1363	0.1142	0.9896	0.0004
0.1364	0.3376	0.9802	0.0004
0.1487	0.368	0.9788	0.0004
0.1761	0.048	0.99	0.01
0.1778	0.4401	0.9752	0.0004
0.2109	0.522	0.9713	0.0004
0.2205	0.1847	0.9841	0.0004
0.23	0.0626	0.9876	0.0004
0.2321	0.5745	0.9675	0.0004
0.2603	0.6443	0.9651	0.0004
0.2611	0.0711	0.986	0.001
0.2716	0.6722	0.9624	0.0004
0.2908	0.2436	0.9794	0.0004
0.3057	0.2561	0.9777	0.0004
0.3168	0.7841	0.9573	0.0004
0.3422	0.2867	0.9758	0.0004
0.3546	0.0966	0.9814	0.0004
0.3724	0.9217	0.951	0.001
0.3979	0.3333	0.9721	0.0004
0.4207	1.0412	0.944	0.001
0.4321	0.1177	0.9778	0.0004
0.4409	1.0912	0.9424	0.0004
0.4532	0.3797	0.9688	0.0004
0.492	0.4122	0.9659	0.0004
0.4923	0.1341	0.9752	0.0004
0.5013	1.2407	0.9343	0.0004
0.513	0.1397	0.9733	0.0004
0.5362	1.3271	0.9286	0.0004
0.5593	0.1523	0.9711	0.0004
0.5731	0.4801	0.9619	0.0004
0.5873	0.16	0.971	0.001
0.6108	0.5117	0.9584	0.0004
0.6361	1.5744	0.9128	0.0004
0.6524	0.1777	0.967	0.001
0.7151	1.7699	0.8984	0.0004
0.7233	0.197	0.9636	0.0004
0.7307	0.6122	0.951	0.001
0.7516	0.2047	0.9617	0.0004
0.7783	1.9263	0.8854	0.0004
0.779	0.2122	0.9593	0.0004
0.8292	0.6947	0.944	0.001
0.8411	2.0818	0.8723	0.0004
0.8815	0.2401	0.9545	0.0004
0.9303	2.3025	0.8512	0.0004
0.9454	0.2575	0.9492	0.0004
0.9774	2.4191	0.8384	0.0004
0.9793	0.8204	0.9327	0.0004
1.0429	0.284	0.9422	0.0004
1.0571	0.8856	0.9263	0.0004
1.0614	0.2891	0.9422	0.0004
1.0661	2.6386	0.8179	0.0004
1.1275	0.3071	0.9368	0.0004
1.1527	2.853	0.7968	0.0004
1.1751	2.9084	0.7893	0.0004
1.1861	0.9937	0.9148	0.0004
1.1946	0.3254	0.9317	0.0004
1.2543	0.3416	0.9259	0.0004
1.2643	3.1292	0.7652	0.0004
1.3071	1.095	0.9028	0.0004
1.3482	0.3672	0.9201	0.0004
1.4084	3.4858	0.7223	0.0004
1.4098	1.1811	0.8924	0.0004
1.4196	0.3867	0.9143	0.0004
1.4351	1.2023	0.8909	0.0004
1.5048	0.4099	0.9045	0.0004
1.5536	1.3015	0.8782	0.0004
1.6286	1.3644	0.869	0.001
1.6592	0.4519	0.8882	0.0004
1.7474	1.4639	0.8558	0.0004
1.7859	0.4864	0.8715	0.0004
1.8761	0.511	0.8598	0.0004
1.9058	1.5966	0.8366	0.0004
2.005	0.5461	0.8427	0.0004
2.0446	0.5569	0.836	0.001
2.0767	1.7398	0.812	0.001
2.2303	0.6075	0.8066	0.0004
2.2485	1.8837	0.7893	0.0004
2.4	2.0106	0.7641	0.0004
2.6389	2.2108	0.7223	0.0004
