Measured thermophysical data. Isomer effect in the separation of octane and xylenes using the ionic liquid 1-ethyl-3-methylimidazolium bis{(trifluoromethyl)sulfonyl}amide
Source: Fluid Phase Equilib., 2010, 10.1016/j.fluid.2010.01.029
Compound 1: octane, C8H18, InChI=1S/C8H18/c1-3-5-7-8-6-4-2/h3-8H2,1-2H3
Compound 2: 1,2-dimethylbenzene, C8H10, InChI=1S/C8H10/c1-7-5-3-4-6-8(7)2/h3-6H,1-2H3
Compound 3: 1,3-dimethylbenzene, C8H10, InChI=1S/C8H10/c1-7-4-3-5-8(2)6-7/h3-6H,1-2H3
Compound 4: 1,4-dimethylbenzene, C8H10, InChI=1S/C8H10/c1-7-3-5-8(2)6-4-7/h3-6H,1-2H3
Compound 5: 1-ethyl-3-methylimidazolium bis((trifluoromethyl)sulfonyl)imide, C8H11F6N3O4S2, InChI=1S/C6H11N2.C2F6NO4S2/c1-3-8-5-4-7(2)6-8;3-1(4,5)14(10,11)9-15(12,13)2(6,7)8/h4-6H,3H2,1-2H3;/q+1;-1, purity 99%

System: 1,2-dimethylbenzene + octane + 1-ethyl-3-methylimidazolium bis((trifluoromethyl)sulfonyl)imide; phases: Liquid mixture 2, Liquid mixture 1
Fixed: Temperature, K = 298.15
Fixed: Pressure, kPa = 101
Property: Mole fraction of octane (Liquid mixture 2); method: H NMR spectroscopy
Property: Mole fraction of octane (Liquid mixture 1); method: H NMR spectroscopy
Property: Mole fraction of 1,2-dimethylbenzene (Liquid mixture 1); method: H NMR spectroscopy
Mole fraction of 1,2-dimethylbenzene	Mole fraction of octane	uncertainty	Mole fraction of octane	uncertainty	Mole fraction of 1,2-dimethylbenzene	uncertainty
0	0.015	0.015	1		0	
0.063	0.015	0.015	0.893	0.048	0.107	
0.12	0.016	0.016	0.796	0.048	0.204	
0.173	0.015	0.015	0.688	0.048	0.312	
0.229	0.014	0.014	0.562	0.048	0.438	
0.278	0.017	0.017	0.464	0.048	0.536	
0.326	0.014	0.014	0.362	0.048	0.638	
0.383	0.012	0.012	0.246	0.048	0.754	
0.445	0.007	0.007	0.127	0.048	0.873	
0.523	0		0		1	

System: 1,3-dimethylbenzene + octane + 1-ethyl-3-methylimidazolium bis((trifluoromethyl)sulfonyl)imide; phases: Liquid mixture 2, Liquid mixture 1
Fixed: Temperature, K = 298.15
Fixed: Pressure, kPa = 101
Property: Mole fraction of octane (Liquid mixture 2); method: H NMR spectroscopy
Property: Mole fraction of octane (Liquid mixture 1); method: H NMR spectroscopy
Property: Mole fraction of 1,3-dimethylbenzene (Liquid mixture 1); method: H NMR spectroscopy
Mole fraction of 1,3-dimethylbenzene	Mole fraction of octane	uncertainty	Mole fraction of octane	uncertainty	Mole fraction of 1,3-dimethylbenzene	uncertainty
0	0.015	0.015	1		0	
0.034	0.014	0.014	0.928	0.048	0.072	
0.078	0.014	0.014	0.837	0.048	0.163	
0.115	0.014	0.014	0.754	0.048	0.246	
0.167	0.012	0.012	0.631	0.048	0.369	
0.227	0.014	0.014	0.499	0.048	0.501	
0.28	0.013	0.013	0.381	0.048	0.619	
0.3	0.015	0.015	0.337	0.048	0.663	
0.352	0.012	0.012	0.231	0.048	0.769	
0.408	0.006	0.006	0.114	0.048	0.886	
0.481	0		0		1	

System: 1,4-dimethylbenzene + octane + 1-ethyl-3-methylimidazolium bis((trifluoromethyl)sulfonyl)imide; phases: Liquid mixture 2, Liquid mixture 1
Fixed: Temperature, K = 298.15
Fixed: Pressure, kPa = 101
Property: Mole fraction of octane (Liquid mixture 2); method: H NMR spectroscopy
Property: Mole fraction of octane (Liquid mixture 1); method: H NMR spectroscopy
Property: Mole fraction of 1,4-dimethylbenzene (Liquid mixture 1); method: H NMR spectroscopy
Mole fraction of 1,4-dimethylbenzene	Mole fraction of octane	uncertainty	Mole fraction of octane	uncertainty	Mole fraction of 1,4-dimethylbenzene	uncertainty
0	0.015	0.015	1		0	
0.03	0.014	0.014	0.938	0.048	0.062	
0.066	0.014	0.014	0.858	0.048	0.142	
0.106	0.015	0.015	0.776	0.048	0.224	
0.145	0.016	0.016	0.683	0.048	0.317	
0.196	0.013	0.013	0.568	0.048	0.432	
0.235	0.013	0.013	0.472	0.048	0.528	
0.284	0.012	0.012	0.361	0.048	0.639	
0.322	0.01	0.01	0.279	0.048	0.721	
0.364	0.008	0.008	0.189	0.048	0.811	
0.408	0.007	0.007	0.113	0.048	0.887	
0.444	0.003	0.003	0.047	0.047	0.953	
0.47	0		0		1	
