Measured thermophysical data. Determination and correlation of liquid liquid equilibria for the (water + carboxylic acid + dimethyl maleate) ternary systems at T = 298.2K
Source: Fluid Phase Equilib., 2008, 10.1016/j.fluid.2008.04.014
Compound 1: water, H2O, InChI=1S/H2O/h1H2
Compound 2: formic acid, CH2O2, InChI=1S/CH2O2/c2-1-3/h1H,(H,2,3), purity 99%
Compound 3: acetic acid, C2H4O2, InChI=1S/C2H4O2/c1-2(3)4/h1H3,(H,3,4), purity 99%
Compound 4: propanoic acid, C3H6O2, InChI=1S/C3H6O2/c1-2-3(4)5/h2H2,1H3,(H,4,5), purity 99%
Compound 5: butanoic acid, C4H8O2, InChI=1S/C4H8O2/c1-2-3-4(5)6/h2-3H2,1H3,(H,5,6), purity 99%
Compound 6: dimethyl cis-butenedioate, C6H8O4, InChI=1S/C6H8O4/c1-9-5(7)3-4-6(8)10-2/h3-4H,1-2H3/b4-3-, purity 99%

System: water; phases: Liquid
Property: Refractive index (Na D-line) (Liquid); method: Standard Abbe refractometry
Temperature, K	Pressure, kPa	Refractive index (Na D-line)	uncertainty
293.15	101.325	1.3334	0.001

System: water; phases: Liquid
Property: Mass density, kg/m3 (Liquid); method: Vibrating tube method
Temperature, K	Pressure, kPa	Mass density, kg/m3	uncertainty
293.15	101.325	998.2	0.2

System: formic acid; phases: Liquid, Gas
Property: Normal boiling temperature, K (Liquid); method: Manometric method
Normal boiling temperature, K	uncertainty
374.15	1

System: formic acid; phases: Liquid
Property: Refractive index (Na D-line) (Liquid); method: Standard Abbe refractometry
Temperature, K	Pressure, kPa	Refractive index (Na D-line)	uncertainty
293.15	101.325	1.3709	0.0011

System: formic acid; phases: Liquid
Property: Mass density, kg/m3 (Liquid); method: Vibrating tube method
Temperature, K	Pressure, kPa	Mass density, kg/m3	uncertainty
293.15	101.325	1221.1	0.4

System: acetic acid; phases: Liquid, Gas
Property: Normal boiling temperature, K (Liquid); method: Manometric method
Normal boiling temperature, K	uncertainty
391.05	0.4

System: acetic acid; phases: Liquid
Property: Refractive index (Na D-line) (Liquid); method: Standard Abbe refractometry
Temperature, K	Pressure, kPa	Refractive index (Na D-line)	uncertainty
293.15	101.325	1.3719	0.0011

System: acetic acid; phases: Liquid
Property: Mass density, kg/m3 (Liquid); method: Vibrating tube method
Temperature, K	Pressure, kPa	Mass density, kg/m3	uncertainty
293.15	101.325	1044.7	0.3

System: propanoic acid; phases: Liquid, Gas
Property: Normal boiling temperature, K (Liquid); method: Manometric method
Normal boiling temperature, K	uncertainty
414.35	0.4

System: propanoic acid; phases: Liquid
Property: Refractive index (Na D-line) (Liquid); method: Standard Abbe refractometry
Temperature, K	Pressure, kPa	Refractive index (Na D-line)	uncertainty
293.15	101.325	1.391	0.0011

System: propanoic acid; phases: Liquid
Property: Mass density, kg/m3 (Liquid); method: Vibrating tube method
Temperature, K	Pressure, kPa	Mass density, kg/m3	uncertainty
293.15	101.325	988.3	0.3

System: butanoic acid; phases: Liquid, Gas
Property: Normal boiling temperature, K (Liquid); method: Manometric method
Normal boiling temperature, K	uncertainty
436.95	0.4

System: butanoic acid; phases: Liquid
Property: Refractive index (Na D-line) (Liquid); method: Standard Abbe refractometry
Temperature, K	Pressure, kPa	Refractive index (Na D-line)	uncertainty
293.15	101.325	1.3981	0.0011

System: butanoic acid; phases: Liquid
Property: Mass density, kg/m3 (Liquid); method: Vibrating tube method
Temperature, K	Pressure, kPa	Mass density, kg/m3	uncertainty
293.15	101.325	952.8	0.3

System: dimethyl cis-butenedioate; phases: Liquid, Gas
Property: Normal boiling temperature, K (Liquid); method: Manometric method
Normal boiling temperature, K	uncertainty
475.15	1

System: dimethyl cis-butenedioate; phases: Liquid
Property: Refractive index (Na D-line) (Liquid); method: Standard Abbe refractometry
Temperature, K	Pressure, kPa	Refractive index (Na D-line)	uncertainty
293.15	101.325	1.4415	0.0011

System: dimethyl cis-butenedioate; phases: Liquid
Property: Mass density, kg/m3 (Liquid); method: Vibrating tube method
Temperature, K	Pressure, kPa	Mass density, kg/m3	uncertainty
293.15	101.325	1160.8	0.4

System: formic acid + dimethyl cis-butenedioate + water; phases: Liquid mixture 1, Liquid mixture 2
Fixed: Temperature, K = 298.2
Fixed: Pressure, kPa = 101
Property: Mole fraction of formic acid (Liquid mixture 1); method: Titration method
Mole fraction of water	Mole fraction of formic acid	uncertainty
0.0671	0	0.0001
0.3786	0.1044	0.0032
0.5446	0.1251	0.0039
0.6246	0.1334	0.0041
0.7213	0.1252	0.0039
0.7351	0.1233	0.0038
0.803	0.1101	0.0034
0.8505	0.0968	0.003
0.8771	0.0839	0.0026
0.9256	0.0529	0.0016
0.9423	0.0417	0.0013
0.9904	0	0.0001

System: formic acid + dimethyl cis-butenedioate + water; phases: Liquid mixture 1, Liquid mixture 2
Fixed: Temperature, K = 298.2
Fixed: Pressure, kPa = 101
Property: Mole fraction of formic acid (Liquid mixture 1); method: Chromatography
Property: Mole fraction of formic acid (Liquid mixture 2); method: Chromatography
Property: Mole fraction of water (Liquid mixture 2); method: Chromatography
Mole fraction of water	Mole fraction of formic acid	uncertainty	Mole fraction of formic acid	uncertainty	Mole fraction of water	uncertainty
0.9707	0.0175	0.0003	0.0601	0.0005	0.2157	
0.9519	0.0332	0.0003	0.0867	0.0007	0.2974	
0.9165	0.0599	0.0005	0.1208	0.0009	0.4587	
0.883	0.0808	0.0006	0.1325	0.001	0.5683	

System: acetic acid + dimethyl cis-butenedioate + water; phases: Liquid mixture 1, Liquid mixture 2
Fixed: Temperature, K = 298.2
Fixed: Pressure, kPa = 101
Property: Mole fraction of acetic acid (Liquid mixture 1); method: Titration method
Mole fraction of water	Mole fraction of acetic acid	uncertainty
0.0671	0	0.0001
0.2988	0.099	0.0031
0.4452	0.1184	0.0037
0.641	0.1211	0.0038
0.7565	0.1068	0.0033
0.7831	0.1022	0.0032
0.8407	0.0873	0.0027
0.8934	0.0673	0.0021
0.9334	0.0455	0.0014
0.9654	0.0207	0.0007
0.9904	0	0.0001

System: acetic acid + dimethyl cis-butenedioate + water; phases: Liquid mixture 1, Liquid mixture 2
Fixed: Temperature, K = 298.2
Fixed: Pressure, kPa = 101
Property: Mole fraction of acetic acid (Liquid mixture 1); method: Chromatography
Property: Mole fraction of acetic acid (Liquid mixture 2); method: Chromatography
Property: Mole fraction of water (Liquid mixture 2); method: Chromatography
Mole fraction of water	Mole fraction of acetic acid	uncertainty	Mole fraction of acetic acid	uncertainty	Mole fraction of water	uncertainty
0.9783	0.0104	0.0003	0.0433	0.0004	0.1501	
0.9585	0.0265	0.0003	0.0855	0.0007	0.2621	
0.9356	0.0432	0.0004	0.1157	0.0009	0.3987	
0.9049	0.062	0.0005	0.1246	0.001	0.585	

System: propanoic acid + dimethyl cis-butenedioate + water; phases: Liquid mixture 1, Liquid mixture 2
Fixed: Temperature, K = 298.2
Fixed: Pressure, kPa = 101
Property: Mole fraction of propanoic acid (Liquid mixture 1); method: Titration method
Mole fraction of water	Mole fraction of propanoic acid	uncertainty
0.0671	0	0.0001
0.4592	0.1059	0.0033
0.6019	0.1396	0.0043
0.6311	0.1434	0.0044
0.722	0.1286	0.004
0.8087	0.1019	0.0032
0.8522	0.0828	0.0026
0.8915	0.0654	0.002
0.912	0.055	0.0017
0.9622	0.0222	0.0007
0.9904	0	0.0001

System: propanoic acid + dimethyl cis-butenedioate + water; phases: Liquid mixture 1, Liquid mixture 2
Fixed: Temperature, K = 298.2
Fixed: Pressure, kPa = 101
Property: Mole fraction of propanoic acid (Liquid mixture 1); method: Chromatography
Property: Mole fraction of propanoic acid (Liquid mixture 2); method: Chromatography
Property: Mole fraction of water (Liquid mixture 2); method: Chromatography
Mole fraction of water	Mole fraction of propanoic acid	uncertainty	Mole fraction of propanoic acid	uncertainty	Mole fraction of water	uncertainty
0.9758	0.0115	0.0003	0.0518	0.0004	0.2443	
0.9584	0.024	0.0003	0.0723	0.0006	0.3042	
0.9314	0.0422	0.0004	0.096	0.0007	0.3814	
0.8975	0.0628	0.0005	0.1206	0.0009	0.4829	
0.8492	0.0877	0.0007	0.1318	0.001	0.5542	

System: butanoic acid + dimethyl cis-butenedioate + water; phases: Liquid mixture 1, Liquid mixture 2
Fixed: Temperature, K = 298.2
Fixed: Pressure, kPa = 101
Property: Mole fraction of butanoic acid (Liquid mixture 1); method: Titration method
Mole fraction of water	Mole fraction of butanoic acid	uncertainty
0.0671	0	0.0001
0.5004	0.1539	0.0048
0.5978	0.1971	0.0061
0.6571	0.2058	0.0064
0.7308	0.1954	0.0061
0.825	0.1442	0.0045
0.8912	0.0926	0.0029
0.9262	0.0629	0.002
0.9468	0.0451	0.0014
0.9715	0.0204	0.0007
0.9904	0	0.0001

System: butanoic acid + dimethyl cis-butenedioate + water; phases: Liquid mixture 1, Liquid mixture 2
Fixed: Temperature, K = 298.2
Fixed: Pressure, kPa = 101
Property: Mole fraction of butanoic acid (Liquid mixture 1); method: Chromatography
Property: Mole fraction of butanoic acid (Liquid mixture 2); method: Chromatography
Property: Mole fraction of water (Liquid mixture 2); method: Chromatography
Mole fraction of water	Mole fraction of butanoic acid	uncertainty	Mole fraction of butanoic acid	uncertainty	Mole fraction of water	uncertainty
0.976	0.0153	0.0003	0.0279	0.0003	0.1366	
0.9571	0.0341	0.0004	0.0482	0.0004	0.1969	
0.937	0.0532	0.0005	0.0632	0.0005	0.2391	
0.8987	0.0873	0.0007	0.0839	0.0007	0.294	
0.8575	0.1201	0.0009	0.1032	0.0008	0.3425	
0.8132	0.1504	0.0012	0.1265	0.001	0.3978	
