Measured thermophysical data. Thermodynamic properties of hydrophobic deep eutectic solvents and solubility of water and HMF in them: Measurements and PC-SAFT modeling
Source: Fluid Phase Equilib., 2019, 10.1016/j.fluid.2019.02.010
Compound 1: decanoic acid, C10H20O2, InChI=1S/C10H20O2/c1-2-3-4-5-6-7-8-9-10(11)12/h2-9H2,1H3,(H,11,12), purity 98%
Compound 2: tetraoctylammonium bromide, C32H68BrN, InChI=1S/C32H68N.BrH/c1-5-9-13-17-21-25-29-33(30-26-22-18-14-10-6-2,31-27-23-19-15-11-7-3)32-28-24-20-16-12-8-4;/h5-32H2,1-4H3;1H/q+1;/p-1, purity 98%
Compound 3: 3-methyl-6-isopropylphenol, C10H14O, InChI=1S/C10H14O/c1-7(2)9-5-4-8(3)6-10(9)11/h4-7,11H,1-3H3, purity 99%
Compound 4: 2-(diethylamino)-N-(2,6-dimethylphenyl)acetamide, C14H22N2O, InChI=1S/C14H22N2O/c1-5-16(6-2)10-13(17)15-14-11(3)8-7-9-12(14)4/h7-9H,5-6,10H2,1-4H3,(H,15,17), purity 99%
Compound 5: DL-menthol, C10H20O, InChI=1S/C10H20O/c1-7(2)9-5-4-8(3)6-10(9)11/h7-11H,4-6H2,1-3H3/t8-,9+,10-/m1/s1, purity 99%
Compound 6: dodecanoic acid, C12H24O2, InChI=1S/C12H24O2/c1-2-3-4-5-6-7-8-9-10-11-12(13)14/h2-11H2,1H3,(H,13,14), purity 98%
Compound 7: 5-(hydroxymethyl)furan-2-carbaldehyde, C6H6O3, InChI=1S/C6H6O3/c7-3-5-1-2-6(4-8)9-5/h1-3,8H,4H2, purity 99%
Compound 8: water, H2O, InChI=1S/H2O/h1H2, purity 99.8%

System: decanoic acid + tetraoctylammonium bromide; phases: Liquid
Fixed: Mole fraction of decanoic acid = 0.667
Fixed: Pressure, kPa = 101
Property: Mass density, kg/m3 (Liquid); method: Vibrating tube method
Temperature, K	Mass density, kg/m3	uncertainty
293	932.9	0.8
298	929.6	0.8
303	926.3	0.8
308	923	0.8
313	919.7	0.8
318	916.5	0.7
323	913.2	0.7
328	910	0.7

System: decanoic acid + tetraoctylammonium bromide; phases: Liquid, Gas
Fixed: Mole fraction of decanoic acid = 0.667
Property: Vapor or sublimation pressure, kPa (Liquid); method: Gas chromatography
Temperature, K	Vapor or sublimation pressure, kPa	uncertainty
353	1.1e-05	3e-06
373	3.9e-05	8e-06

System: decanoic acid + 3-methyl-6-isopropylphenol; phases: Liquid
Fixed: Mole fraction of decanoic acid = 0.5
Fixed: Pressure, kPa = 101
Property: Mass density, kg/m3 (Liquid); method: Vibrating tube method
Temperature, K	Mass density, kg/m3	uncertainty
293	931.8	0.5
298	928	0.5
303	924.2	0.5
308	920.3	0.5
313	916.5	0.5
318	912.6	0.5
323	908.7	0.4
328	904.9	0.4

System: decanoic acid + 2-(diethylamino)-N-(2,6-dimethylphenyl)acetamide; phases: Liquid
Fixed: Pressure, kPa = 101
Property: Mass density, kg/m3 (Liquid); method: Vibrating tube method
Temperature, K	Mole fraction of decanoic acid	Mass density, kg/m3	uncertainty
293	0.667	960.9	0.6
298	0.667	956.8	0.6
303	0.667	952.8	0.6
308	0.667	948.7	0.6
313	0.667	944.7	0.6
318	0.667	940.6	0.6
323	0.667	936.4	0.6
328	0.667	932.3	0.6
293	0.75	952.5	0.6
298	0.75	948.4	0.6
303	0.75	944.3	0.6
308	0.75	940.2	0.6
313	0.75	936.1	0.6
318	0.75	931.9	0.6
323	0.75	927.7	0.6
328	0.75	923.5	0.6
293	0.8	944.9	0.6
298	0.8	940.9	0.6
303	0.8	936.9	0.6
308	0.8	932.9	0.6
313	0.8	928.9	0.6
318	0.8	924.7	0.6
323	0.8	920.6	0.6
328	0.8	916.4	0.6

System: decanoic acid + DL-menthol; phases: Liquid
Fixed: Mole fraction of decanoic acid = 0.5
Fixed: Pressure, kPa = 101
Property: Mass density, kg/m3 (Liquid); method: Vibrating tube method
Temperature, K	Mass density, kg/m3	uncertainty
293	901.1	0.4
298	897.6	0.4
303	894	0.4
308	890.4	0.4
313	886.7	0.4
318	883.1	0.4
323	879.4	0.4
328	875.7	0.4

System: 3-methyl-6-isopropylphenol + 2-(diethylamino)-N-(2,6-dimethylphenyl)acetamide; phases: Liquid
Fixed: Mole fraction of 3-methyl-6-isopropylphenol = 0.667
Fixed: Pressure, kPa = 101
Property: Mass density, kg/m3 (Liquid); method: Vibrating tube method
Temperature, K	Mass density, kg/m3	uncertainty
293	989.1	0.2
298	985.4	0.2
303	981.6	0.2
308	977.9	0.2
313	974.2	0.2
318	970.4	0.2
323	966.6	0.2
328	962.9	0.2

System: dodecanoic acid + 2-(diethylamino)-N-(2,6-dimethylphenyl)acetamide; phases: Liquid
Fixed: Mole fraction of dodecanoic acid = 0.667
Fixed: Pressure, kPa = 101
Property: Mass density, kg/m3 (Liquid); method: Vibrating tube method
Temperature, K	Mass density, kg/m3	uncertainty
293	949.6	0.6
298	945.6	0.6
303	941.6	0.6
308	937.6	0.6
313	933.6	0.6
318	929.6	0.5
323	925.55	0.54
328	921.5	0.5

System: dodecanoic acid + 2-(diethylamino)-N-(2,6-dimethylphenyl)acetamide; phases: Liquid, Gas
Fixed: Mole fraction of dodecanoic acid = 0.667
Property: Vapor or sublimation pressure, kPa (Liquid); method: Gas chromatography
Temperature, K	Vapor or sublimation pressure, kPa	uncertainty
333	0.003	0.001
353	0.013	0.003
373	0.036	0.008

System: 5-(hydroxymethyl)furan-2-carbaldehyde + decanoic acid + 3-methyl-6-isopropylphenol; phases: Liquid, Crystal
Property: Mass fraction of 5-(hydroxymethyl)furan-2-carbaldehyde (Liquid); method: cloud point method
Solvent: Mole fraction of decanoic acid	Temperature, K	Pressure, kPa	Mass fraction of 5-(hydroxymethyl)furan-2-carbaldehyde	uncertainty
0.5	303	101	0.8	0.01

System: 5-(hydroxymethyl)furan-2-carbaldehyde + decanoic acid + tetraoctylammonium bromide; phases: Liquid, Crystal
Property: Mass fraction of 5-(hydroxymethyl)furan-2-carbaldehyde (Liquid); method: cloud point method
Solvent: Mole fraction of decanoic acid	Temperature, K	Pressure, kPa	Mass fraction of 5-(hydroxymethyl)furan-2-carbaldehyde	uncertainty
0.667	303	101	0.75	0.01

System: 5-(hydroxymethyl)furan-2-carbaldehyde + 3-methyl-6-isopropylphenol + 2-(diethylamino)-N-(2,6-dimethylphenyl)acetamide; phases: Liquid, Crystal
Property: Mass fraction of 5-(hydroxymethyl)furan-2-carbaldehyde (Liquid); method: cloud point method
Solvent: Mole fraction of 3-methyl-6-isopropylphenol	Temperature, K	Pressure, kPa	Mass fraction of 5-(hydroxymethyl)furan-2-carbaldehyde	uncertainty
0.667	303	101	0.85	0.01

System: decanoic acid + 2-(diethylamino)-N-(2,6-dimethylphenyl)acetamide + water; phases: Liquid, Liquid
Fixed: Temperature, K = 298
Fixed: Pressure, kPa = 101
Property: Mass fraction of water (Liquid); method: Phase equilibration
Solvent: Mole fraction of decanoic acid	Mass fraction of water	uncertainty
0.8	0.0634	0.0033
0.8	0.0627	0.0029
0.75	0.0779	0.0033
0.75	0.087	0.0104
0.667	0.1443	0.0043
0.667	0.177	0.0109
0.667	0.1546	0.0072

System: decanoic acid + 2-(diethylamino)-N-(2,6-dimethylphenyl)acetamide + water; phases: Liquid, Liquid
Fixed: Temperature, K = 298
Fixed: Pressure, kPa = 101
Property: Mass fraction of water (Liquid); method: Phase equilibration
Solvent: Mole fraction of decanoic acid	Mass fraction of water	uncertainty
0.8	0.0634	0.0013
0.75	0.0825	0.013
0.667	0.1495	0.0144

System: decanoic acid + DL-menthol + water; phases: Liquid, Liquid
Property: Mass fraction of water (Liquid); method: Phase equilibration
Solvent: Mole fraction of decanoic acid	Temperature, K	Pressure, kPa	Mass fraction of water	uncertainty
0.5	298	101	0.0216	0.0032

System: decanoic acid + DL-menthol + water; phases: Liquid, Liquid
Fixed: Solvent: Mole fraction of decanoic acid = 0.5
Fixed: Temperature, K = 298
Fixed: Pressure, kPa = 101
Property: Mass fraction of water (Liquid); method: Titration method
Mass fraction of water	uncertainty
0.0217	0.0013
0.0216	0.0033

System: decanoic acid + DL-menthol + water; phases: Liquid, Liquid
Property: Mass fraction of water (Liquid); method: Phase equilibration
Solvent: Mole fraction of decanoic acid	Temperature, K	Pressure, kPa	Mass fraction of water	uncertainty
0.5	298	101	0.0216	0.0005

System: decanoic acid + 3-methyl-6-isopropylphenol + water; phases: Liquid, Liquid
Property: Mass fraction of water (Liquid); method: Phase equilibration
Solvent: Mole fraction of decanoic acid	Temperature, K	Pressure, kPa	Mass fraction of water	uncertainty
0.5	298	101	0.0342	0.0021

System: decanoic acid + 3-methyl-6-isopropylphenol + water; phases: Liquid, Liquid
Fixed: Solvent: Mole fraction of decanoic acid = 0.5
Fixed: Temperature, K = 298
Fixed: Pressure, kPa = 101
Property: Mass fraction of water (Liquid); method: Titration method
Mass fraction of water	uncertainty
0.0343	0.0022
0.0342	0.0022

System: decanoic acid + 3-methyl-6-isopropylphenol + water; phases: Liquid, Liquid
Property: Mass fraction of water (Liquid); method: Phase equilibration
Solvent: Mole fraction of decanoic acid	Temperature, K	Pressure, kPa	Mass fraction of water	uncertainty
0.5	298	101	0.0342	0.0008

System: decanoic acid + tetraoctylammonium bromide + water; phases: Liquid, Liquid
Fixed: Solvent: Mole fraction of decanoic acid = 0.667
Fixed: Temperature, K = 298
Fixed: Pressure, kPa = 101
Property: Mass fraction of water (Liquid); method: Phase equilibration
Mass fraction of water	uncertainty
0.0362	0.0013
0.0249	0.008
0.0224	0.0015

System: decanoic acid + tetraoctylammonium bromide + water; phases: Liquid, Liquid
Property: Mass fraction of water (Liquid); method: Phase equilibration
Solvent: Mole fraction of decanoic acid	Temperature, K	Pressure, kPa	Mass fraction of water	uncertainty
0.667	298	101	0.0278	0.0146

System: 3-methyl-6-isopropylphenol + 2-(diethylamino)-N-(2,6-dimethylphenyl)acetamide + water; phases: Liquid, Liquid
Property: Mass fraction of water (Liquid); method: Phase equilibration
Solvent: Mole fraction of 3-methyl-6-isopropylphenol	Temperature, K	Pressure, kPa	Mass fraction of water	uncertainty
0.667	298	101	0.0172	0.002

System: 3-methyl-6-isopropylphenol + 2-(diethylamino)-N-(2,6-dimethylphenyl)acetamide + water; phases: Liquid, Liquid
Fixed: Solvent: Mole fraction of 3-methyl-6-isopropylphenol = 0.667
Fixed: Temperature, K = 298
Fixed: Pressure, kPa = 101
Property: Mass fraction of water (Liquid); method: Titration method
Mass fraction of water	uncertainty
0.0157	0.0006
0.0172	0.0019

System: 3-methyl-6-isopropylphenol + 2-(diethylamino)-N-(2,6-dimethylphenyl)acetamide + water; phases: Liquid, Liquid
Property: Mass fraction of water (Liquid); method: Phase equilibration
Solvent: Mole fraction of 3-methyl-6-isopropylphenol	Temperature, K	Pressure, kPa	Mass fraction of water	uncertainty
0.667	298	101	0.0173	0.0004
