Measured thermophysical data. Phase behavior of diisobutyl adipate carbon dioxide mixtures
Source: Fluid Phase Equilib., 2006, 10.1016/j.fluid.2006.07.013
Compound 1: diisobutyl adipate, C14H26O4, InChI=1S/C14H26O4/c1-11(2)9-17-13(15)7-5-6-8-14(16)18-10-12(3)4/h11-12H,5-10H2,1-4H3
Compound 2: carbon dioxide, CO2, InChI=1S/CO2/c2-1-3

System: carbon dioxide + diisobutyl adipate; phases: Gas, Liquid
Property: Vapor or sublimation pressure, kPa (Gas); method: Closed cell (Static) method
Mole fraction of diisobutyl adipate	Temperature, K	Vapor or sublimation pressure, kPa	uncertainty
0.011	305.35	7520	680
0.011	311.05	8280	690
0.011	329.95	13030	690
0.011	357.45	17030	680
0.011	378.45	19570	680
0.011	404.55	21850	680
0.039	376.85	21300	690
0.039	401.45	24360	690
0.039	424.65	26120	690
0.064	400.05	24320	690
0.064	421.25	26600	690

System: carbon dioxide + diisobutyl adipate; phases: Liquid, Gas
Property: Vapor or sublimation pressure, kPa (Liquid); method: Closed cell (Static) method
Mole fraction of diisobutyl adipate	Temperature, K	Vapor or sublimation pressure, kPa	uncertainty
0.039	295.25	5770	680
0.039	305.75	7210	680
0.039	316.85	9210	690
0.039	332.65	12960	690
0.039	345.25	15650	690
0.039	357.75	18120	690
0.039	366.65	19640	690
0.064	310.35	7900	690
0.064	343.35	15060	690
0.064	360.85	18370	690
0.064	381.65	21810	690
0.096	302.75	6520	680
0.096	322.15	9790	680
0.096	347.35	15170	690
0.096	369.85	19330	700
0.096	392.25	22710	690
0.096	420.05	25670	690
0.11	294.75	5350	680
0.11	298.95	5870	680
0.11	304.65	6550	680
0.11	308.85	7170	680
0.11	314.45	8030	680
0.11	322.55	9480	690
0.11	330.75	10930	690
0.11	342.05	13130	690
0.11	356.25	15790	690
0.11	371.25	18400	710
0.11	401.65	22750	690
0.11	423.65	25120	690
0.161	311.25	6480	680
0.161	353.25	13680	690
0.161	380.95	18160	700
0.161	408.05	21540	690
0.161	421.85	23060	700
0.282	312.15	5490	680
0.282	323.65	6590	690
0.282	337.45	8100	690
0.282	350.15	9620	690
0.282	363.05	11140	690
0.282	371.55	12100	700
0.282	383.95	13550	700
0.282	400.55	15340	710
0.282	419.65	17200	710
0.592	311.95	2490	690
0.592	332.75	3490	700
0.592	351.35	4320	710
0.592	370.95	5350	730
0.592	391.15	6250	740
0.592	409.85	7000	760
0.592	423.15	7660	780

System: carbon dioxide + diisobutyl adipate; phases: Gas, Liquid
Property: Mass density, kg/m3 (Gas); method: volume and mass of phase
Mole fraction of diisobutyl adipate	Temperature, K	Mass density, kg/m3	uncertainty
0.011	305.35	702	21
0.011	311.05	667	20
0.011	329.95	639	19
0.011	357.45	558	17
0.011	378.45	518	16
0.011	404.55	471	14
0.039	376.85	638	19
0.039	401.45	588	18
0.039	424.65	541	16
0.064	400.05	655	20
0.064	421.25	617	19

System: carbon dioxide + diisobutyl adipate; phases: Liquid, Gas
Property: Mass density, kg/m3 (Liquid); method: Volume and mass of phase
Mole fraction of diisobutyl adipate	Temperature, K	Mass density, kg/m3	uncertainty
0.039	295.25	795	24
0.039	305.75	764	23
0.039	316.85	739	22
0.039	332.65	732	22
0.039	345.25	702	21
0.039	357.75	675	20
0.039	366.65	660	20
0.064	310.35	793	24
0.064	343.35	762	23
0.064	360.85	724	22
0.064	381.65	687	21
0.096	302.75	814	24
0.096	322.15	800	24
0.096	347.35	768	23
0.096	369.85	731	22
0.096	392.25	696	21
0.096	420.05	651	20
0.11	294.75	807	24
0.11	298.95	805	24
0.11	304.65	805	24
0.11	308.85	791	24
0.11	314.45	789	24
0.11	322.55	791	24
0.11	330.75	766	23
0.11	342.05	756	23
0.11	356.25	740	22
0.11	371.25	723	22
0.11	401.65	681	21
0.11	423.65	650	20
0.161	311.25	865	26
0.161	353.25	791	24
0.161	380.95	760	23
0.161	408.05	721	22
0.161	421.85	706	21
0.282	312.15	853	26
0.282	323.65	832	25
0.282	337.45	821	25
0.282	350.15	810	24
0.282	363.05	800	24
0.282	371.55	791	24
0.282	383.95	776	23
0.282	400.55	760	23
0.282	419.65	740	22
0.592	311.95	813	24
0.592	332.75	829	25
0.592	351.35	819	25
0.592	370.95	807	24
0.592	391.15	790	24
0.592	409.85	777	23
0.592	423.15	772	23
