Measured thermophysical data. Liquid liquid equilibria of 1,3-dimethylimidazolium methyl sulfate with ketones, dialkyl carbonates and acetates
Source: Fluid Phase Equilib., 2007, 10.1016/j.fluid.2007.02.027
Compound 1: 1,3-dimethylimidazolium methylsulfate, C6H12N2O4S, InChI=1S/C5H9N2.CH4O4S/c1-6-3-4-7(2)5-6;1-5-6(2,3)4/h3-5H,1-2H3;1H3,(H,2,3,4)/q+1;/p-1
Compound 2: dimethyl carbonate, C3H6O3, InChI=1S/C3H6O3/c1-5-3(4)6-2/h1-2H3, purity 99%
Compound 3: diethyl carbonate, C5H10O3, InChI=1S/C5H10O3/c1-3-7-5(6)8-4-2/h3-4H2,1-2H3, purity 99.5%
Compound 4: ethanol, C2H6O, InChI=1S/C2H6O/c1-2-3/h3H,2H2,1H3, purity 99.9%
Compound 5: acetone, C3H6O, InChI=1S/C3H6O/c1-3(2)4/h1-2H3, purity 99.8%
Compound 6: butanone, C4H8O, InChI=1S/C4H8O/c1-3-4(2)5/h3H2,1-2H3, purity 99.5%
Compound 7: pentan-2-one, C5H10O, InChI=1S/C5H10O/c1-3-4-5(2)6/h3-4H2,1-2H3, purity 99.5%
Compound 8: methyl ethanoate, C3H6O2, InChI=1S/C3H6O2/c1-3(4)5-2/h1-2H3, purity 99%
Compound 9: ethyl acetate, C4H8O2, InChI=1S/C4H8O2/c1-3-6-4(2)5/h3H2,1-2H3, purity 99.5%

System: dimethyl carbonate + 1,3-dimethylimidazolium methylsulfate; phases: Liquid mixture 1, Liquid mixture 2
Fixed: Pressure, kPa = 101.3
Property: Mole fraction of 1,3-dimethylimidazolium methylsulfate (Liquid mixture 1); method: Density calibration data
Temperature, K	Mole fraction of 1,3-dimethylimidazolium methylsulfate	uncertainty
278.15	0.0004	0.0004
283.15	0.0004	0.0004
288.15	0.0004	0.0004
293.15	0.0005	0.0005
298.15	0.0005	0.0005
303.15	0.0006	0.0006
308.15	0.0006	0.0006
313.15	0.0007	0.0007
318.15	0.0007	0.0007
323.15	0.0008	0.0008
328.15	0.0008	0.0008
333.15	0.0008	0.0008
338.15	0.0008	0.0008
343.15	0.0008	0.0008

System: dimethyl carbonate + 1,3-dimethylimidazolium methylsulfate; phases: Liquid mixture 2, Liquid mixture 1
Fixed: Pressure, kPa = 101.3
Property: Mole fraction of 1,3-dimethylimidazolium methylsulfate (Liquid mixture 2); method: Density calibration data
Temperature, K	Mole fraction of 1,3-dimethylimidazolium methylsulfate	uncertainty
278.15	0.5498	0.001
283.15	0.5498	0.001
288.15	0.5498	0.001
293.15	0.5498	0.001
298.15	0.5493	0.001
303.15	0.5493	0.001
308.15	0.5488	0.001
313.15	0.5488	0.001
318.15	0.5482	0.001
323.15	0.5482	0.001
328.15	0.5471	0.001
333.15	0.5471	0.001
338.15	0.5471	0.001
343.15	0.5471	0.001

System: diethyl carbonate + 1,3-dimethylimidazolium methylsulfate; phases: Liquid mixture 1, Liquid mixture 2
Fixed: Pressure, kPa = 101.3
Property: Mole fraction of 1,3-dimethylimidazolium methylsulfate (Liquid mixture 1); method: Density calibration data
Temperature, K	Mole fraction of 1,3-dimethylimidazolium methylsulfate	uncertainty
278.15	0.0001	0.0001
283.15	0.0001	0.0001
288.15	0.0001	0.0001
293.15	0.0001	0.0001
298.15	0.0001	0.0001
303.15	0.0001	0.0001
308.15	0.0001	0.0001
313.15	0.0001	0.0001
318.15	0.0001	0.0001
323.15	0.0001	0.0001
328.15	0.0002	0.0002
333.15	0.0002	0.0002
338.15	0.0002	0.0002
343.15	0.0002	0.0002

System: diethyl carbonate + 1,3-dimethylimidazolium methylsulfate; phases: Liquid mixture 2, Liquid mixture 1
Fixed: Pressure, kPa = 101.3
Property: Mole fraction of 1,3-dimethylimidazolium methylsulfate (Liquid mixture 2); method: Density calibration data
Temperature, K	Mole fraction of 1,3-dimethylimidazolium methylsulfate	uncertainty
278.15	0.9101	0.001
283.15	0.9085	0.001
288.15	0.9069	0.001
293.15	0.9045	0.001
298.15	0.9019	0.001
303.15	0.8993	0.001
308.15	0.8974	0.001
313.15	0.8945	0.001
318.15	0.8915	0.001
323.15	0.8883	0.001
328.15	0.886	0.001
333.15	0.8823	0.001
338.15	0.8797	0.001
343.15	0.8754	0.001

System: acetone + 1,3-dimethylimidazolium methylsulfate; phases: Liquid mixture 1, Liquid mixture 2
Fixed: Pressure, kPa = 101.3
Property: Mole fraction of 1,3-dimethylimidazolium methylsulfate (Liquid mixture 1); method: Density calibration data
Temperature, K	Mole fraction of 1,3-dimethylimidazolium methylsulfate	uncertainty
278.15	0.03	0.001
283.15	0.0284	0.001
288.15	0.028	0.001
293.15	0.0278	0.001
298.15	0.0276	0.001
303.15	0.027	0.001
308.15	0.0263	0.001
313.15	0.0257	0.001
318.15	0.0251	0.001

System: acetone + 1,3-dimethylimidazolium methylsulfate; phases: Liquid mixture 2, Liquid mixture 1
Fixed: Pressure, kPa = 101.3
Property: Mole fraction of 1,3-dimethylimidazolium methylsulfate (Liquid mixture 2); method: Density calibration data
Temperature, K	Mole fraction of 1,3-dimethylimidazolium methylsulfate	uncertainty
278.15	0.3337	0.002
283.15	0.3389	0.002
288.15	0.3404	0.002
293.15	0.3452	0.002
298.15	0.3463	0.002
303.15	0.3514	0.002
308.15	0.3546	0.002
313.15	0.3611	0.002
318.15	0.3668	0.002

System: butanone + 1,3-dimethylimidazolium methylsulfate; phases: Liquid mixture 1, Liquid mixture 2
Fixed: Pressure, kPa = 101.3
Property: Mole fraction of 1,3-dimethylimidazolium methylsulfate (Liquid mixture 1); method: Density calibration data
Temperature, K	Mole fraction of 1,3-dimethylimidazolium methylsulfate	uncertainty
278.15	0.0039	0.001
283.15	0.004	0.001
288.15	0.0041	0.001
293.15	0.0041	0.001
298.15	0.0043	0.001
303.15	0.0044	0.001
308.15	0.0044	0.001
313.15	0.0045	0.001
318.15	0.0047	0.001
323.15	0.0047	0.001
328.15	0.0047	0.001
333.15	0.0047	0.001

System: butanone + 1,3-dimethylimidazolium methylsulfate; phases: Liquid mixture 2, Liquid mixture 1
Fixed: Pressure, kPa = 101.3
Property: Mole fraction of 1,3-dimethylimidazolium methylsulfate (Liquid mixture 2); method: Density calibration data
Temperature, K	Mole fraction of 1,3-dimethylimidazolium methylsulfate	uncertainty
278.15	0.7069	0.001
283.15	0.7063	0.001
288.15	0.7048	0.001
293.15	0.7036	0.001
298.15	0.7024	0.001
303.15	0.7012	0.001
308.15	0.6997	0.001
313.15	0.6988	0.001
318.15	0.6979	0.001
323.15	0.6961	0.001
328.15	0.6955	0.001
333.15	0.6949	0.001

System: pentan-2-one + 1,3-dimethylimidazolium methylsulfate; phases: Liquid mixture 1, Liquid mixture 2
Fixed: Pressure, kPa = 101.3
Property: Mole fraction of 1,3-dimethylimidazolium methylsulfate (Liquid mixture 1); method: Density calibration data
Temperature, K	Mole fraction of 1,3-dimethylimidazolium methylsulfate	uncertainty
278.15	0.0009	0.0009
283.15	0.0009	0.0009
288.15	0.0009	0.0009
293.15	0.0009	0.0009
298.15	0.0009	0.0009
303.15	0.0009	0.0009
308.15	0.0009	0.0009
313.15	0.001	0.001
318.15	0.001	0.001
323.15	0.001	0.001
328.15	0.001	0.001
333.15	0.001	0.001
338.15	0.001	0.001
343.15	0.001	0.001

System: pentan-2-one + 1,3-dimethylimidazolium methylsulfate; phases: Liquid mixture 2, Liquid mixture 1
Fixed: Pressure, kPa = 101.3
Property: Mole fraction of 1,3-dimethylimidazolium methylsulfate (Liquid mixture 2); method: Density calibration data
Temperature, K	Mole fraction of 1,3-dimethylimidazolium methylsulfate	uncertainty
278.15	0.8606	0.002
283.15	0.8598	0.002
288.15	0.857	0.002
293.15	0.8563	0.002
298.15	0.8543	0.002
303.15	0.8522	0.002
308.15	0.8505	0.002
313.15	0.8495	0.002
318.15	0.8478	0.002
323.15	0.8471	0.002
328.15	0.8455	0.002
333.15	0.8435	0.002
338.15	0.8416	0.002
343.15	0.8387	0.002

System: methyl ethanoate + 1,3-dimethylimidazolium methylsulfate; phases: Liquid mixture 1, Liquid mixture 2
Fixed: Pressure, kPa = 101.3
Property: Mole fraction of 1,3-dimethylimidazolium methylsulfate (Liquid mixture 1); method: Density calibration data
Temperature, K	Mole fraction of 1,3-dimethylimidazolium methylsulfate	uncertainty
278.15	0.6401	0.001
283.15	0.6401	0.001
288.15	0.6405	0.001
293.15	0.6409	0.001
298.15	0.6409	0.001
303.15	0.6425	0.001
308.15	0.6436	0.001
313.15	0.6444	0.001
318.15	0.6476	0.001

System: methyl ethanoate + 1,3-dimethylimidazolium methylsulfate; phases: Liquid mixture 2, Liquid mixture 1
Fixed: Pressure, kPa = 101
Property: Mole fraction of 1,3-dimethylimidazolium methylsulfate (Liquid mixture 2); method: Density calibration data
Temperature, K	Mole fraction of 1,3-dimethylimidazolium methylsulfate	uncertainty
278.15	0.0003	0.0003
283.15	0.0003	0.0003
288.15	0.0003	0.0003
293.15	0.0003	0.0003
298.15	0.0003	0.0003
303.15	0.0003	0.0003
308.15	0.0003	0.0003
313.15	0.0003	0.0003
318.15	0.0003	0.0003

System: ethyl acetate + 1,3-dimethylimidazolium methylsulfate; phases: Liquid mixture 1, Liquid mixture 2
Fixed: Pressure, kPa = 101.3
Property: Mole fraction of 1,3-dimethylimidazolium methylsulfate (Liquid mixture 1); method: Density calibration data
Temperature, K	Mole fraction of 1,3-dimethylimidazolium methylsulfate	uncertainty
278.15	0.8419	0.001
283.15	0.8408	0.001
288.15	0.8402	0.001
293.15	0.8397	0.001
298.15	0.8385	0.001
303.15	0.8373	0.001
308.15	0.8373	0.001
313.15	0.8356	0.001
318.15	0.8344	0.001
323.15	0.8325	0.001
328.15	0.8325	0.001
333.15	0.8325	0.001
338.15	0.8325	0.001

System: ethyl acetate + 1,3-dimethylimidazolium methylsulfate; phases: Liquid mixture 2, Liquid mixture 1
Fixed: Pressure, kPa = 101
Property: Mole fraction of 1,3-dimethylimidazolium methylsulfate (Liquid mixture 2); method: Density calibration data
Temperature, K	Mole fraction of 1,3-dimethylimidazolium methylsulfate	uncertainty
278.15	0	0.0001
283.15	0	0.0001
288.15	0	0.0001
293.15	0	0.0001
298.15	0	0.0001
303.15	0	0.0001
308.15	0	0.0001
313.15	0	0.0001
318.15	0	0.0001
323.15	0	0.0001
328.15	0	0.0001
333.15	0	0.0001
338.15	0	0.0001

System: ethanol + butanone + 1,3-dimethylimidazolium methylsulfate; phases: Liquid mixture 1, Liquid mixture 2
Fixed: Temperature, K = 298.15
Fixed: Pressure, kPa = 101.3
Property: Mole fraction of ethanol (Liquid mixture 1); method: Density calibration data
Property: Mole fraction of ethanol (Liquid mixture 2); method: Density calibration data
Property: Mole fraction of butanone (Liquid mixture 2); method: Density calibration data
Mole fraction of butanone	Mole fraction of ethanol	uncertainty	Mole fraction of ethanol	uncertainty	Mole fraction of butanone	uncertainty
0.975	0.02	0.013	0.03	0.029	0.303	
0.97	0.024	0.013	0.047	0.02	0.308	
0.963	0.03	0.013	0.065	0.022	0.316	
0.931	0.059	0.013	0.093	0.017	0.334	
0.871	0.107	0.013	0.124	0.015	0.359	
0.843	0.126	0.011	0.157	0.012	0.39	
0.803	0.144	0.011	0.184	0.011	0.438	
