Measured thermophysical data. Solubilities of 3-acetylpyridine in supercritical carbon dioxide atseveral temperatures and pressures: Experimental and modeling
Source: Fluid Phase Equilib., 2013, 10.1016/j.fluid.2013.06.036
Compound 1: 3-acetylpyridine, C7H7NO, InChI=1S/C7H7NO/c1-6(9)7-3-2-4-8-5-7/h2-5H,1H3, purity 98%
Compound 2: carbon dioxide, CO2, InChI=1S/CO2/c2-1-3, purity 99.98%

System: carbon dioxide + 3-acetylpyridine; phases: Fluid (supercritical or subcritical phases), Liquid
Property: Amount concentration (molarity), mol/dm3 of 3-acetylpyridine (Fluid (supercritical or subcritical phases)); method: static method
Temperature, K	Pressure, kPa	Amount concentration (molarity), mol/dm3 of 3-acetylpyridine	uncertainty
313.15	10000	0.0001272	1e-07
313.15	12000	0.0001581	1e-07
313.15	14000	0.0002003	1e-07
313.15	16000	0.0002303	1e-07
313.15	18000	0.0002465	1e-07
313.15	20000	0.0002966	3e-07
313.15	22000	0.0003233	2e-07
313.15	24000	0.0003894	1e-07
313.15	26000	0.0004477	2e-07
323.15	10000	9.51e-05	1e-07
323.15	12000	0.0001416	2e-07
323.15	14000	0.0002215	2e-07
323.15	16000	0.000299	1e-07
323.15	18000	0.0003645	1e-07
323.15	20000	0.0004173	1e-07
323.15	22000	0.0004987	4e-07
323.15	24000	0.0005578	6e-07
323.15	26000	0.0006401	6e-07
333.15	10000	7.46e-05	1e-07
333.15	12000	0.0001216	1e-07
333.15	14000	0.0002247	1e-07
333.15	16000	0.0003515	2e-07
333.15	18000	0.000475	3e-07
333.15	20000	0.0005874	2e-07
333.15	22000	0.0007167	3e-07
333.15	24000	0.000811	9e-07
333.15	26000	0.0009321	1.6e-06
343.15	10000	5.7e-05	1e-07
343.15	12000	0.0001139	1e-07
343.15	14000	0.0002419	2e-07
343.15	16000	0.0003921	2e-07
343.15	18000	0.0005803	1e-07
343.15	20000	0.0007776	1e-07
343.15	22000	0.0009386	3e-07
343.15	24000	0.0011483	1e-06
343.15	26000	0.0013365	1.5e-06
