Measured thermophysical data. Osmotic coefficient data and an excess Gibbs energy function for single-phase complex system of glucose + alcohol +water
Source: Fluid Phase Equilib., 2009, 10.1016/j.fluid.2008.11.016
Compound 1: D-glucose, C6H12O6, InChI=1S/C6H12O6/c7-1-3(9)5(11)6(12)4(10)2-8/h1,3-6,8-12H,2H2/t3-,4+,5+,6+/m0/s1
Compound 2: glycerol, C3H8O3, InChI=1S/C3H8O3/c4-1-3(6)2-5/h3-6H,1-2H2
Compound 3: 1,2-ethanediol, C2H6O2, InChI=1S/C2H6O2/c3-1-2-4/h3-4H,1-2H2
Compound 4: 2,3-butanediol, C4H10O2, InChI=1S/C4H10O2/c1-3(5)4(2)6/h3-6H,1-2H3
Compound 5: water, H2O, InChI=1S/H2O/h1H2

System: D-glucose + glycerol + water; phases: Liquid, Gas
Fixed: Temperature, K = 298.15
Property: Osmotic coefficient (Liquid); method: ISOPIE
Molality, mol/kg of glycerol	Molality, mol/kg of D-glucose	Osmotic coefficient	uncertainty
0.087	0.436	0.811	0.007
0.087	1.748	0.911	0.003
0.092	0.917	0.823	0.007
0.1	3.984	0.907	0.004
0.165	0.413	0.687	0.012
0.18	0.9	0.758	0.009
0.255	2.055	0.821	0.007
0.33	4.17	0.822	0.007
0.428	0.428	0.483	0.02
0.488	0.976	0.612	0.015
0.522	2.088	0.722	0.011
0.539	4.312	0.758	0.009
0.902	0.451	0.382	0.024
1.037	2.074	0.601	0.015
1.05	1.05	0.451	0.021
1.266	5.064	0.601	0.015
1.322	0.441	0.323	0.026
1.461	0.974	0.402	0.023
1.839	2.452	0.502	0.019
1.886	0.472	0.284	0.028
1.959	0.98	0.36	0.025
2.188	0.438	0.255	0.029
2.242	5.979	0.481	0.02
2.456	2.456	0.454	0.021
2.459	0.984	0.325	0.026
2.614	0.436	0.234	0.03
3.045	0.435	0.217	0.03
3.1	6.2	0.415	0.023
3.103	1.034	0.297	0.027
3.464	0.433	0.203	0.031
3.84	1.097	0.275	0.028
3.951	0.439	0.19	0.031
4.146	3.317	0.369	0.024
4.351	0.435	0.179	0.032
4.536	7.258	0.338	0.026
4.651	1.163	0.258	0.029
5.1	3.4	0.333	0.026
5.169	6.892	0.311	0.027
5.279	1.173	0.248	0.029
5.425	3.1	0.32	0.026
5.656	1.131	0.243	0.029
5.825	2.913	0.309	0.027
6.168	2.741	0.298	0.027
6.471	2.588	0.289	0.028
6.982	7.048	0.248	0.029
7.263	6.932	0.24	0.029
7.515	7.011	0.233	0.03
7.793	7.167	0.226	0.03

System: D-glucose + 1,2-ethanediol + water; phases: Liquid, Gas
Fixed: Temperature, K = 298.15
Property: Osmotic coefficient (Liquid); method: ISOPIE
Molality, mol/kg of 1,2-ethanediol	Molality, mol/kg of D-glucose	Osmotic coefficient	uncertainty
0.088	0.88	0.879	0.006
0.089	1.78	0.914	0.006
0.091	0.457	0.775	0.009
0.102	4.08	0.905	0.006
0.135	4.185	0.852	0.007
0.156	1.56	0.869	0.006
0.16	0.4	0.698	0.012
0.181	0.905	0.822	0.008
0.488	1.952	0.721	0.011
0.51	0.51	0.497	0.019
0.516	1.032	0.677	0.013
0.599	4.792	0.699	0.012
1.026	0.513	0.385	0.024
1.042	2.084	0.612	0.015
1.043	1.043	0.542	0.018
1.221	4.884	0.625	0.015
1.401	0.467	0.336	0.026
1.542	1.028	0.474	0.02
1.761	0.44	0.304	0.027
1.876	0.938	0.443	0.022
2.105	2.807	0.498	0.019
2.132	0.426	0.281	0.028
2.205	0.882	0.417	0.023
2.407	2.407	0.477	0.02
2.435	6.493	0.502	0.019
2.495	0.416	0.264	0.029
2.592	0.864	0.396	0.023
2.789	0.398	0.252	0.029
3.007	0.859	0.378	0.024
3.081	0.385	0.243	0.029
3.181	6.362	0.449	0.021
3.401	0.378	0.236	0.03
3.455	0.864	0.363	0.025
3.872	0.86	0.352	0.025
3.876	0.388	0.233	0.03
4.051	3.241	0.417	0.023
4.312	2.875	0.41	0.023
4.318	0.864	0.343	0.025
4.652	2.658	0.403	0.023
4.655	7.448	0.389	0.024
5.012	2.506	0.396	0.023
5.295	2.353	0.391	0.024
5.687	2.275	0.385	0.024
6.515	8.687	0.334	0.026
7.639	8.73	0.311	0.027
7.81	7.81	0.308	0.027
7.931	7.779	0.306	0.027
8.2	7.74	0.303	0.027

System: D-glucose + 2,3-butanediol + water; phases: Liquid, Gas
Fixed: Temperature, K = 298.15
Property: Osmotic coefficient (Liquid); method: ISOPIE
Molality, mol/kg of 2,3-butanediol	Molality, mol/kg of D-glucose	Osmotic coefficient	uncertainty
0.087	0.437	0.789	0.008
0.09	1.798	0.892	0.004
0.092	0.923	0.795	0.008
0.1	3.996	0.899	0.004
0.134	1.076	0.749	0.01
0.195	0.488	0.632	0.014
0.23	2.3	0.822	0.007
0.232	4.64	0.841	0.006
0.512	0.512	0.42	0.022
0.512	2.048	0.692	0.012
0.522	1.044	0.521	0.019
0.562	4.496	0.724	0.011
0.995	0.498	0.327	0.026
1.147	1.147	0.388	0.024
1.173	2.346	0.487	0.02
1.421	0.474	0.272	0.028
1.478	5.912	0.52	0.019
1.813	1.209	0.322	0.026
1.84	2.453	0.385	0.024
1.929	0.482	0.236	0.03
2.299	6.131	0.428	0.022
2.394	1.197	0.289	0.028
2.482	0.496	0.211	0.031
2.963	1.185	0.264	0.029
3.024	0.504	0.193	0.031
3.143	3.143	0.299	0.027
3.515	1.172	0.244	0.029
3.524	0.503	0.18	0.032
3.53	2.824	0.283	0.028
3.98	0.498	0.17	0.032
4.005	1.144	0.229	0.03
4.01	2.673	0.27	0.028
4.426	8.852	0.312	0.027
4.461	0.496	0.161	0.032
4.471	1.118	0.216	0.03
4.725	2.7	0.258	0.029
4.831	1.074	0.207	0.031
4.861	0.486	0.154	0.033
5.101	8.162	0.289	0.028
5.167	1.033	0.199	0.031
5.532	2.766	0.247	0.029
6.338	2.817	0.238	0.03
7.242	2.897	0.228	0.03
8.132	10.843	0.217	0.03
8.75	10	0.207	0.031
9.524	9.524	0.197	0.031
10.455	9.293	0.188	0.031
12.124	9.699	0.18	0.032
