Measured thermophysical data. Vapor-liquid equilibria of difluoromethane + N,N-dimethylacetamide, difluoromethane + dimethylether diethylene glycol and  1,1-difluoroethane + dimethylether diethylene glycol systems
Source: Fluid Phase Equilib., 2013, 10.1016/j.fluid.2013.03.009
Compound 1: difluoromethane, CH2F2, InChI=1S/CH2F2/c2-1-3/h1H2, purity 99.98%
Compound 2: 1,1-difluoroethane, C2H4F2, InChI=1S/C2H4F2/c1-2(3)4/h2H,1H3, purity 99.98%
Compound 3: N,N-dimethylethanamide, C4H9NO, InChI=1S/C4H9NO/c1-4(6)5(2)3/h1-3H3, purity 99.9%
Compound 4: 2,5,8-trioxanonane, C6H14O3, InChI=1S/C6H14O3/c1-7-3-5-9-6-4-8-2/h3-6H2,1-2H3, purity 99.9%

System: difluoromethane + N,N-dimethylethanamide; phases: Gas, Liquid
Property: Vapor or sublimation pressure, kPa (Gas); method: Closed cell (Static) method
Temperature, K	Mole fraction of difluoromethane	Vapor or sublimation pressure, kPa	uncertainty
293.15	0.1269	185.2	44.9
293.15	0.2355	347.7	44.5
293.15	0.3354	494.2	43.9
293.15	0.4397	645.6	44.3
293.15	0.5371	790.9	43.7
293.15	0.6245	913.2	42
293.15	0.7205	1045.4	41
293.15	0.8086	1161.5	43.9
293.15	0.9348	1353.8	46.5
303.15	0.1239	219.6	52.8
303.15	0.2315	414.4	56.2
303.15	0.3121	572	57.3
303.15	0.4368	806.2	56.7
303.15	0.5379	996.8	59.4
303.15	0.6271	1183.9	59.3
303.15	0.714	1342.7	56.2
303.15	0.8043	1507.3	58.3
303.15	0.9355	1768.4	64.4
313.15	0.1274	282.8	69.1
313.15	0.2139	480.4	68.8
313.15	0.3155	712.9	70.9
313.15	0.4288	986.1	75.7
313.15	0.5183	1224	76.3
313.15	0.6291	1490	73.5
313.15	0.7382	1757.9	72.6
313.15	0.8243	1972.7	71.8
313.15	0.9264	2217.8	89.6
323.15	0.1239	325.2	86.2
323.15	0.2308	636.4	89.1
323.15	0.3369	958.1	93.6
323.15	0.4058	1183.2	96.9
323.15	0.5352	1597.7	92.7
323.15	0.6385	1900.1	88.1
323.15	0.7103	2108.9	97.3
323.15	0.8123	2457.5	101.6
323.15	0.9436	2893	105.3
333.15	0.1264	397.9	103.2
333.15	0.2308	758.4	110
333.15	0.3353	1163.6	116.1
333.15	0.4367	1554.4	121
333.15	0.5253	1929	122.2
333.15	0.6094	2249.4	114.6
333.15	0.7155	2652.3	130.9
333.15	0.819	3157.6	125.5
333.15	0.9219	3512.9	122.8
343.15	0.1239	457.6	126.3
343.15	0.2215	869.8	133.3
343.15	0.331	1376.5	142.7
343.15	0.4261	1842.9	149
343.15	0.5357	2391.7	143.9
343.15	0.6244	2790.5	151.6
343.15	0.7318	3387.1	171
343.15	0.8166	3882.9	164.8
343.15	0.9075	4338.8	160
353.15	0.1233	529.4	149.3
353.15	0.1908	865.3	157.2
353.15	0.2964	1433.5	172.5
353.15	0.4147	2150.5	176
353.15	0.5298	2800.6	183.5
353.15	0.6147	3376.4	187.9
353.15	0.7025	3879.4	196.2
353.15	0.8366	4812.9	211.7
353.15	0.9013	5278	217

System: difluoromethane + 2,5,8-trioxanonane; phases: Gas, Liquid
Property: Vapor or sublimation pressure, kPa (Gas); method: Closed cell (Static) method
Temperature, K	Mole fraction of difluoromethane	Vapor or sublimation pressure, kPa	uncertainty
293.15	0.1212	142.8	38.5
293.15	0.1861	225.9	39.9
293.15	0.2937	371.3	41.7
293.15	0.3348	433.6	45.6
293.15	0.5239	735.2	49.7
293.15	0.6374	934.5	50.7
293.15	0.7118	1049.8	46.2
293.15	0.8102	1198.1	47.6
293.15	0.9326	1395.6	49.2
303.15	0.1253	189.3	46.2
303.15	0.202	309.9	52.3
303.15	0.3334	553.2	59
303.15	0.435	769.4	62.9
303.15	0.5167	936.8	62.2
303.15	0.6134	1137.7	62.4
303.15	0.7593	1439.2	63.5
303.15	0.8197	1572.9	65.5
303.15	0.9264	1806.2	74.7
313.15	0.1249	236.4	61.4
313.15	0.2352	465.5	63.9
313.15	0.3197	651.5	69.3
313.15	0.4303	915.2	76.5
313.15	0.5284	1184	76.5
313.15	0.6155	1386.7	78.4
313.15	0.7356	1723.5	89.7
313.15	0.844	2067.3	92.7
313.15	0.9285	2323.2	96.5
323.15	0.1283	302.2	72.9
323.15	0.2289	547.6	75.2
323.15	0.331	809.6	81.2
323.15	0.43	1092.8	90.7
323.15	0.5173	1371.7	100.9
323.15	0.6258	1749	103.4
323.15	0.7133	2045	103.5
323.15	0.814	2392	116.7
323.15	0.9278	2873.5	132.4
333.15	0.1278	361.4	94.5
333.15	0.2245	669.6	92.7
333.15	0.3225	962.4	94.2
333.15	0.4321	1320	103.1
333.15	0.5243	1655	117.2
333.15	0.6255	2076	131.2
333.15	0.7241	2523.3	134.3
333.15	0.8222	2955	141.6
333.15	0.9269	3477	163.6
343.15	0.1286	435.8	110.8
343.15	0.2162	763.2	110.9
343.15	0.3175	1133.5	115.8
343.15	0.4284	1581	127.1
343.15	0.5229	2004	139.1
343.15	0.6394	2557.1	147.9
343.15	0.7254	3002	165.9
343.15	0.8269	3599	184.5
343.15	0.9178	4182	193.3
353.15	0.1247	504.5	128
353.15	0.2276	943.6	130.1
353.15	0.3288	1389.5	139.2
353.15	0.4162	1819.4	157
353.15	0.527	2423.2	169.1
353.15	0.6062	2890.4	191
353.15	0.7155	3617	220.1
353.15	0.8012	4323	248

System: 1,1-difluoroethane + 2,5,8-trioxanonane; phases: Gas, Liquid
Property: Vapor or sublimation pressure, kPa (Gas); method: Closed cell (Static) method
Temperature, K	Mole fraction of 1,1-difluoroethane	Vapor or sublimation pressure, kPa	uncertainty
293.15	0.2217	110.8	16.5
293.15	0.3201	164.6	16
293.15	0.4084	209.5	16.5
293.15	0.508	266.8	16.7
293.15	0.6282	330.6	16.1
293.15	0.7296	383.7	16.2
293.15	0.8129	428.5	14.9
293.15	0.9318	481.9	14
303.15	0.2273	151.2	22.1
303.15	0.3381	235.1	21.4
303.15	0.4667	322.7	22.6
303.15	0.5695	400.8	22.1
303.15	0.6258	438	20.4
303.15	0.6962	486.9	21
303.15	0.821	573.2	21.2
303.15	0.9213	642.9	24.9
313.15	0.2329	199.8	28.5
313.15	0.3263	293.5	28.8
313.15	0.4235	382.2	28.4
313.15	0.5082	464.9	26.7
313.15	0.6118	549	26.3
313.15	0.7092	634.2	27.1
313.15	0.8277	745.9	29.8
313.15	0.9354	856.3	37.1
323.15	0.2274	252.6	38
323.15	0.3209	372.8	37.8
323.15	0.4033	473.2	35.3
323.15	0.501	581.8	35.8
323.15	0.6372	751	36.9
323.15	0.7102	836.8	33.9
323.15	0.8275	966.2	38.8
323.15	0.9306	1120	47.9
333.15	0.2289	320.1	44.4
333.15	0.328	470.2	45.1
333.15	0.4271	618.5	46.4
333.15	0.5064	745.3	48
333.15	0.6144	917.8	46.8
333.15	0.7262	1086.3	45.7
333.15	0.8169	1225	49.5
333.15	0.9239	1409.1	58
343.15	0.2209	383.4	55
343.15	0.3544	635.8	58
343.15	0.4133	756.5	55.5
343.15	0.5217	948.3	56.1
343.15	0.6279	1156.6	57.6
343.15	0.711	1310.8	57.1
343.15	0.8275	1534.2	64.4
343.15	0.9349	1789.2	78.8
353.15	0.2368	517.9	72.1
353.15	0.334	751.3	70
353.15	0.4073	914.7	70.5
353.15	0.4989	1137.3	69
353.15	0.619	1400.9	70.4
353.15	0.7671	1763.2	75
353.15	0.8741	2035.9	82.3
353.15	0.9322	2217.4	94.3
