Measured thermophysical data. Liquid pharmaceuticals formulation by eutectic formation
Source: Fluid Phase Equilib., 2017, 10.1016/j.fluid.2017.05.009
Compound 1: choline chloride, C5H14ClNO, InChI=1S/C5H14NO.ClH/c1-6(2,3)4-5-7;/h7H,4-5H2,1-3H3;1H/q+1;/p-1
Compound 2: phenol, C6H6O, InChI=1S/C6H6O/c7-6-4-2-1-3-5-6/h1-5,7H
Compound 3: 1,2-benzenediol, C6H6O2, InChI=1S/C6H6O2/c7-5-3-1-2-4-6(5)8/h1-4,7-8H
Compound 4: 1,3-benzenediol, C6H6O2, InChI=1S/C6H6O2/c7-5-2-1-3-6(8)4-5/h1-4,7-8H
Compound 5: 1,4-benzenediol, C6H6O2, InChI=1S/C6H6O2/c7-5-1-2-6(8)4-3-5/h1-4,7-8H
Compound 6: 2-methylphenol, C7H8O, InChI=1S/C7H8O/c1-6-4-2-3-5-7(6)8/h2-5,8H,1H3
Compound 7: 3,4-dimethylphenol, C8H10O, InChI=1S/C8H10O/c1-6-3-4-8(9)5-7(6)2/h3-5,9H,1-2H3
Compound 8: 2,4,6-trimethylphenol, C9H12O, InChI=1S/C9H12O/c1-6-4-7(2)9(10)8(3)5-6/h4-5,10H,1-3H3
Compound 9: 3-methyl-6-isopropylphenol, C10H14O, InChI=1S/C10H14O/c1-7(2)9-5-4-8(3)6-10(9)11/h4-7,11H,1-3H3
Compound 10: 2,6-bis(1,1-dimethylethyl)-4-methylphenol, C15H24O, InChI=1S/C15H24O/c1-10-12(14(2,3)4)8-11(16)9-13(10)15(5,6)7/h8-9,16H,1-7H3
Compound 11: 2-hydroxybenzoic acid, C7H6O3, InChI=1S/C7H6O3/c8-6-4-2-1-3-5(6)7(9)10/h1-4,8H,(H,9,10)
Compound 12: 4-chlorophenol, C6H5ClO, InChI=1S/C6H5ClO/c7-5-1-3-6(8)4-2-5/h1-4,8H
Compound 13: 4-methoxyphenol, C7H8O2, InChI=1S/C7H8O2/c1-9-7-4-2-6(8)3-5-7/h2-5,8H,1H3
Compound 14: N-acetyl-p-aminophenol, C8H9NO2, InChI=1S/C8H9NO2/c1-6(10)9-7-2-4-8(11)5-3-7/h2-5,11H,1H3,(H,9,10)
Compound 15: benzoic acid, C7H6O2, InChI=1S/C7H6O2/c8-7(9)6-4-2-1-3-5-6/h1-5H,(H,8,9)
Compound 16: 2-acetoxybenzoic acid, C9H8O4, InChI=1S/C9H8O4/c1-6(10)13-8-5-3-2-4-7(8)9(11)12/h2-5H,1H3,(H,11,12)
Compound 17: ranitidine, C13H22N4O3S, InChI=1S/C13H22N4O3S/c1-14-13(9-17(18)19)15-6-7-21-10-12-5-4-11(20-12)8-16(2)3/h4-5,9,14-15H,6-8,10H2,1-3H3
Compound 18: adiphenine hydrochloride, C20H26ClNO2, InChI=1S/C20H25NO2.ClH/c1-3-21(4-2)15-16-23-20(22)19(17-11-7-5-8-12-17)18-13-9-6-10-14-18;/h5-14,19H,3-4,15-16H2,1-2H3;1H
Compound 19: N1-.beta.-phenethylbiguanide hydrochloride, C10H16ClN5, InChI=1S/C10H15N5.ClH/c11-9(12)15-10(13)14-7-6-8-4-2-1-3-5-8;/h1-5H,6-7H2,(H6,11,12,13,14,15);1H
Compound 20: ticlopidine hydrochloride, C14H15Cl2NS, InChI=1S/C14H14ClNS.ClH/c15-13-4-2-1-3-11(13)9-16-7-5-14-12(10-16)6-8-17-14;/h1-4,6,8H,5,7,9-10H2;1H
Compound 21: tetracycline hydrochloride, C22H25ClN2O8, InChI=1S/C22H24N2O8.ClH/c1-21(31)8-5-4-6-11(25)12(8)16(26)13-9(21)7-10-15(24(2)3)17(27)14(20(23)30)19(29)22(10,32)18(13)28;/h4-6,9-10,15,25,27-28,31-32H,7H2,1-3H3,(H2,23,30);1H
Compound 22: glycerol, C3H8O3, InChI=1S/C3H8O3/c4-1-3(6)2-5/h3-6H,1-2H2

System: phenol; phases: Crystal, Liquid, Air at 1 atmosphere
Property: Normal melting temperature, K (Crystal); method: DTA
Normal melting temperature, K	uncertainty
314.15	2

System: phenol; phases: Crystal
Property: Molar heat capacity at constant pressure, J/K/mol (Crystal); method: DSC
Temperature, K	Pressure, kPa	Molar heat capacity at constant pressure, J/K/mol	uncertainty
298	101.325	127.2	13.5

System: 1,2-benzenediol; phases: Crystal, Liquid, Air at 1 atmosphere
Property: Normal melting temperature, K (Crystal); method: DTA
Normal melting temperature, K	uncertainty
378.15	2

System: 1,2-benzenediol; phases: Crystal
Property: Molar heat capacity at constant pressure, J/K/mol (Crystal); method: DSC
Temperature, K	Pressure, kPa	Molar heat capacity at constant pressure, J/K/mol	uncertainty
298	101.325	140.1	14.9

System: 1,3-benzenediol; phases: Crystal, Liquid, Air at 1 atmosphere
Property: Normal melting temperature, K (Crystal); method: DTA
Normal melting temperature, K	uncertainty
383.15	2

System: 1,3-benzenediol; phases: Crystal
Property: Molar heat capacity at constant pressure, J/K/mol (Crystal); method: DSC
Temperature, K	Pressure, kPa	Molar heat capacity at constant pressure, J/K/mol	uncertainty
298	101.325	131	13.9

System: 1,4-benzenediol; phases: Crystal, Liquid, Air at 1 atmosphere
Property: Normal melting temperature, K (Crystal); method: DTA
Normal melting temperature, K	uncertainty
445.15	2

System: 1,4-benzenediol; phases: Crystal
Property: Molar heat capacity at constant pressure, J/K/mol (Crystal); method: DSC
Temperature, K	Pressure, kPa	Molar heat capacity at constant pressure, J/K/mol	uncertainty
298	101.325	131.9	14

System: 2-methylphenol; phases: Crystal, Liquid, Air at 1 atmosphere
Property: Normal melting temperature, K (Crystal); method: DTA
Normal melting temperature, K	uncertainty
304.15	2

System: 2-methylphenol; phases: Crystal
Property: Molar heat capacity at constant pressure, J/K/mol (Crystal); method: DSC
Temperature, K	Pressure, kPa	Molar heat capacity at constant pressure, J/K/mol	uncertainty
298	101.325	178	18.9

System: 3,4-dimethylphenol; phases: Crystal, Liquid, Air at 1 atmosphere
Property: Normal melting temperature, K (Crystal); method: DTA
Normal melting temperature, K	uncertainty
341.15	2

System: 3,4-dimethylphenol; phases: Crystal
Property: Molar heat capacity at constant pressure, J/K/mol (Crystal); method: DSC
Temperature, K	Pressure, kPa	Molar heat capacity at constant pressure, J/K/mol	uncertainty
298	101.325	256.5	27.2

System: 2,4,6-trimethylphenol; phases: Crystal, Liquid, Air at 1 atmosphere
Property: Normal melting temperature, K (Crystal); method: DTA
Normal melting temperature, K	uncertainty
346.15	2

System: 2,4,6-trimethylphenol; phases: Crystal
Property: Molar heat capacity at constant pressure, J/K/mol (Crystal); method: DSC
Temperature, K	Pressure, kPa	Molar heat capacity at constant pressure, J/K/mol	uncertainty
298	101.325	213.1	22.6

System: 3-methyl-6-isopropylphenol; phases: Crystal, Liquid, Air at 1 atmosphere
Property: Normal melting temperature, K (Crystal); method: DTA
Normal melting temperature, K	uncertainty
324.15	2

System: 2,6-bis(1,1-dimethylethyl)-4-methylphenol; phases: Crystal, Liquid, Air at 1 atmosphere
Property: Normal melting temperature, K (Crystal); method: DTA
Normal melting temperature, K	uncertainty
343.15	2

System: 2-hydroxybenzoic acid; phases: Crystal, Liquid, Air at 1 atmosphere
Property: Normal melting temperature, K (Crystal); method: DTA
Normal melting temperature, K	uncertainty
432.15	2

System: 2-hydroxybenzoic acid; phases: Crystal
Property: Molar heat capacity at constant pressure, J/K/mol (Crystal); method: DSC
Temperature, K	Pressure, kPa	Molar heat capacity at constant pressure, J/K/mol	uncertainty
298	101.325	160.9	17.1

System: 4-chlorophenol; phases: Crystal, Liquid, Air at 1 atmosphere
Property: Normal melting temperature, K (Crystal); method: DTA
Normal melting temperature, K	uncertainty
316.15	2

System: 4-chlorophenol; phases: Crystal
Property: Molar heat capacity at constant pressure, J/K/mol (Crystal); method: DSC
Temperature, K	Pressure, kPa	Molar heat capacity at constant pressure, J/K/mol	uncertainty
298	101.325	183	19.4

System: 4-methoxyphenol; phases: Crystal, Liquid, Air at 1 atmosphere
Property: Normal melting temperature, K (Crystal); method: DTA
Normal melting temperature, K	uncertainty
330.15	2

System: 4-methoxyphenol; phases: Crystal
Property: Molar heat capacity at constant pressure, J/K/mol (Crystal); method: DSC
Temperature, K	Pressure, kPa	Molar heat capacity at constant pressure, J/K/mol	uncertainty
298	101.325	197.3	20.9

System: N-acetyl-p-aminophenol; phases: Crystal, Liquid, Air at 1 atmosphere
Property: Normal melting temperature, K (Crystal); method: DTA
Normal melting temperature, K	uncertainty
442.15	2

System: N-acetyl-p-aminophenol; phases: Crystal
Property: Molar heat capacity at constant pressure, J/K/mol (Crystal); method: DSC
Temperature, K	Pressure, kPa	Molar heat capacity at constant pressure, J/K/mol	uncertainty
298	101.325	175	18.6

System: benzoic acid; phases: Crystal, Liquid, Air at 1 atmosphere
Property: Normal melting temperature, K (Crystal); method: DTA
Normal melting temperature, K	uncertainty
395.15	

System: benzoic acid; phases: Crystal
Property: Molar heat capacity at constant pressure, J/K/mol (Crystal); method: DSC
Temperature, K	Pressure, kPa	Molar heat capacity at constant pressure, J/K/mol	uncertainty
298	101.325	146.6	15.5

System: 2-acetoxybenzoic acid; phases: Crystal, Liquid, Air at 1 atmosphere
Property: Normal melting temperature, K (Crystal); method: DTA
Normal melting temperature, K	uncertainty
408.15	2

System: 2-acetoxybenzoic acid; phases: Crystal
Property: Molar heat capacity at constant pressure, J/K/mol (Crystal); method: DSC
Temperature, K	Pressure, kPa	Molar heat capacity at constant pressure, J/K/mol	uncertainty
298	101.325	239	25.3

System: ranitidine; phases: Crystal, Liquid, Air at 1 atmosphere
Property: Normal melting temperature, K (Crystal); method: DTA
Normal melting temperature, K	uncertainty
406.15	2

System: adiphenine hydrochloride; phases: Crystal, Liquid, Air at 1 atmosphere
Property: Normal melting temperature, K (Crystal); method: DTA
Normal melting temperature, K	uncertainty
392.15	2

System: N1-.beta.-phenethylbiguanide hydrochloride; phases: Crystal, Liquid, Air at 1 atmosphere
Property: Normal melting temperature, K (Crystal); method: DTA
Normal melting temperature, K	uncertainty
448.15	2

System: ticlopidine hydrochloride; phases: Crystal, Liquid, Air at 1 atmosphere
Property: Normal melting temperature, K (Crystal); method: DTA
Normal melting temperature, K	uncertainty
478.15	2

System: choline chloride + phenol; phases: Liquid
Property: Molar heat capacity at constant pressure, J/K/mol (Liquid); method: DSC
Mole fraction of choline chloride	Temperature, K	Pressure, kPa	Molar heat capacity at constant pressure, J/K/mol	uncertainty
0.333	298	101	186	19.7

System: choline chloride + 1,3-benzenediol; phases: Liquid, Crystal of unknown type
Property: Solid-liquid equilibrium temperature, K (Liquid); method: DTA
Mole fraction of choline chloride	Pressure, kPa	Solid-liquid equilibrium temperature, K	uncertainty
0.5	101	279.15	1

System: choline chloride + 1,3-benzenediol; phases: Liquid
Property: Molar heat capacity at constant pressure, J/K/mol (Liquid); method: DSC
Mole fraction of choline chloride	Temperature, K	Pressure, kPa	Molar heat capacity at constant pressure, J/K/mol	uncertainty
0.5	298	101	208.5	22.1

System: choline chloride + 1,2-benzenediol; phases: Liquid, Crystal of unknown type
Property: Solid-liquid equilibrium temperature, K (Liquid); method: DTA
Mole fraction of choline chloride	Pressure, kPa	Solid-liquid equilibrium temperature, K	uncertainty
0.333	101	325.15	2

System: choline chloride + 1,2-benzenediol; phases: Liquid
Property: Molar heat capacity at constant pressure, J/K/mol (Liquid); method: DSC
Mole fraction of choline chloride	Temperature, K	Pressure, kPa	Molar heat capacity at constant pressure, J/K/mol	uncertainty
0.5	298	101	232.2	24.6

System: choline chloride + 1,4-benzenediol; phases: Liquid, Crystal of unknown type
Property: Solid-liquid equilibrium temperature, K (Liquid); method: DTA
Mole fraction of choline chloride	Pressure, kPa	Solid-liquid equilibrium temperature, K	uncertainty
0.5	101	332.15	2

System: choline chloride + 1,4-benzenediol; phases: Liquid
Property: Molar heat capacity at constant pressure, J/K/mol (Liquid); method: DSC
Mole fraction of choline chloride	Temperature, K	Pressure, kPa	Molar heat capacity at constant pressure, J/K/mol	uncertainty
0.5	298	101	231	24.5

System: choline chloride + 2-methylphenol; phases: Liquid, Crystal of unknown type
Property: Solid-liquid equilibrium temperature, K (Liquid); method: DTA
Mole fraction of choline chloride	Pressure, kPa	Solid-liquid equilibrium temperature, K	uncertainty
0.333	101	257.15	3

System: choline chloride + 2-methylphenol; phases: Liquid
Property: Molar heat capacity at constant pressure, J/K/mol (Liquid); method: DSC
Mole fraction of choline chloride	Temperature, K	Pressure, kPa	Molar heat capacity at constant pressure, J/K/mol	uncertainty
0.333	298	101	227.8	24.2

System: choline chloride + 3,4-dimethylphenol; phases: Liquid, Crystal of unknown type
Property: Solid-liquid equilibrium temperature, K (Liquid); method: DTA
Mole fraction of choline chloride	Pressure, kPa	Solid-liquid equilibrium temperature, K	uncertainty
0.333	101	273.15	1

System: choline chloride + 3,4-dimethylphenol; phases: Liquid
Property: Molar heat capacity at constant pressure, J/K/mol (Liquid); method: DSC
Mole fraction of choline chloride	Temperature, K	Pressure, kPa	Molar heat capacity at constant pressure, J/K/mol	uncertainty
0.333	298	101	287.6	30.5

System: choline chloride + 2,4,6-trimethylphenol; phases: Liquid, Crystal of unknown type
Property: Solid-liquid equilibrium temperature, K (Liquid); method: DTA
Mole fraction of choline chloride	Pressure, kPa	Solid-liquid equilibrium temperature, K	uncertainty
0.333	101	307.15	3

System: choline chloride + 2,4,6-trimethylphenol; phases: Liquid
Property: Molar heat capacity at constant pressure, J/K/mol (Liquid); method: DSC
Mole fraction of choline chloride	Temperature, K	Pressure, kPa	Molar heat capacity at constant pressure, J/K/mol	uncertainty
0.333	298	101	274.6	29.1

System: choline chloride + 2-hydroxybenzoic acid; phases: Liquid, Crystal of unknown type
Property: Solid-liquid equilibrium temperature, K (Liquid); method: DTA
Mole fraction of choline chloride	Pressure, kPa	Solid-liquid equilibrium temperature, K	uncertainty
0.5	101	341.15	3

System: choline chloride + 2-hydroxybenzoic acid; phases: Liquid
Property: Molar heat capacity at constant pressure, J/K/mol (Liquid); method: DSC
Mole fraction of choline chloride	Temperature, K	Pressure, kPa	Molar heat capacity at constant pressure, J/K/mol	uncertainty
0.5	298	101	236	25

System: choline chloride + 4-chlorophenol; phases: Liquid
Property: Molar heat capacity at constant pressure, J/K/mol (Liquid); method: DSC
Mole fraction of choline chloride	Temperature, K	Pressure, kPa	Molar heat capacity at constant pressure, J/K/mol	uncertainty
0.333	298	101	209.5	22.2

System: choline chloride + 4-methoxyphenol; phases: Liquid
Property: Molar heat capacity at constant pressure, J/K/mol (Liquid); method: DSC
Mole fraction of choline chloride	Temperature, K	Pressure, kPa	Molar heat capacity at constant pressure, J/K/mol	uncertainty
0.333	298	101	236.8	25.1

System: choline chloride + N-acetyl-p-aminophenol; phases: Liquid, Crystal of unknown type
Property: Solid-liquid equilibrium temperature, K (Liquid); method: DTA
Mole fraction of choline chloride	Pressure, kPa	Solid-liquid equilibrium temperature, K	uncertainty
0.5	101	314.15	2

System: benzoic acid + choline chloride; phases: Liquid, Crystal of unknown type
Property: Solid-liquid equilibrium temperature, K (Liquid); method: DTA
Mole fraction of choline chloride	Pressure, kPa	Solid-liquid equilibrium temperature, K	uncertainty
0.333	101	351.15	2

System: benzoic acid + choline chloride; phases: Liquid
Property: Molar heat capacity at constant pressure, J/K/mol (Liquid); method: DSC
Mole fraction of choline chloride	Temperature, K	Pressure, kPa	Molar heat capacity at constant pressure, J/K/mol	uncertainty
0.333	298	101	211.4	22.4

System: 2-acetoxybenzoic acid + choline chloride; phases: Liquid
Property: Molar heat capacity at constant pressure, J/K/mol (Liquid); method: DSC
Mole fraction of choline chloride	Temperature, K	Pressure, kPa	Molar heat capacity at constant pressure, J/K/mol	uncertainty
0.333	298	101	263.9	28

System: choline chloride + 3-methyl-6-isopropylphenol; phases: Liquid, Crystal of unknown type
Property: Solid-liquid equilibrium temperature, K (Liquid); method: DTA
Mole fraction of choline chloride	Pressure, kPa	Solid-liquid equilibrium temperature, K	uncertainty
0.5	101	340.15	1

System: glycerol + ticlopidine hydrochloride; phases: Liquid, Crystal of unknown type
Property: Solid-liquid equilibrium temperature, K (Liquid); method: DTA
Mole fraction of glycerol	Pressure, kPa	Solid-liquid equilibrium temperature, K	uncertainty
0.333	101	340.15	4

System: glycerol + tetracycline hydrochloride; phases: Liquid, Crystal of unknown type
Property: Solid-liquid equilibrium temperature, K (Liquid); method: DTA
Mole fraction of glycerol	Pressure, kPa	Solid-liquid equilibrium temperature, K	uncertainty
0.333	101	335.15	3

System: adiphenine hydrochloride + glycerol; phases: Liquid, Crystal of unknown type
Property: Solid-liquid equilibrium temperature, K (Liquid); method: DTA
Mole fraction of glycerol	Pressure, kPa	Solid-liquid equilibrium temperature, K	uncertainty
0.333	101	182.15	4
