Measured thermophysical data. Phase equilibrium properties of binary and ternary mixtures containing 2-butanol, 2,2,4- trimethylpentane and 1-hexene at 313.15 K
Source: Fluid Phase Equilib., 2014, 10.1016/j.fluid.2014.02.018
Compound 1: butan-2-ol, C4H10O, InChI=1S/C4H10O/c1-3-4(2)5/h4-5H,3H2,1-2H3, purity 99.5%
Compound 2: hex-1-ene, C6H12, InChI=1S/C6H12/c1-3-5-6-4-2/h3H,1,4-6H2,2H3, purity 96%
Compound 3: 2,2,4-trimethylpentane, C8H18, InChI=1S/C8H18/c1-7(2)6-8(3,4)5/h7H,6H2,1-5H3, purity 99.7%

System: butan-2-ol; phases: Liquid, Gas
Property: Vapor or sublimation pressure, kPa (Liquid); method: Closed cell (Static) method
Temperature, K	Vapor or sublimation pressure, kPa	uncertainty
313.15	6.045	0.02

System: hex-1-ene; phases: Liquid, Gas
Property: Vapor or sublimation pressure, kPa (Liquid); method: Closed cell (Static) method
Temperature, K	Vapor or sublimation pressure, kPa	uncertainty
313.15	44.978	0.201

System: 2,2,4-trimethylpentane; phases: Liquid, Gas
Property: Vapor or sublimation pressure, kPa (Liquid); method: Closed cell (Static) method
Temperature, K	Vapor or sublimation pressure, kPa	uncertainty
313.15	12.947	0.031

System: butan-2-ol + hex-1-ene; phases: Gas, Liquid
Fixed: Temperature, K = 313.15
Property: Vapor or sublimation pressure, kPa (Gas); method: Closed cell (Static) method
Mole fraction of butan-2-ol	Vapor or sublimation pressure, kPa	uncertainty
0	44.987	0.259
0.0482	45.335	0.261
0.0984	45.066	0.259
0.1499	44.639	0.257
0.1996	44.131	0.254
0.251	43.521	0.251
0.3009	42.866	0.247
0.3505	42.117	0.243
0.4009	41.302	0.239
0.4009	41.243	0.239
0.4507	40.381	0.234
0.451	40.336	0.234
0.5009	39.331	0.228
0.5011	39.352	0.229
0.5509	38.189	0.223
0.5516	38.176	0.223
0.6003	36.809	0.216
0.6011	36.827	0.216
0.6516	35.121	0.207
0.7007	33.211	0.198
0.752	30.766	0.187
0.7989	28.058	0.178
0.8579	23.765	0.162
0.8949	20.335	0.163
0.9437	14.604	0.164
1	6.035	0.044

System: butan-2-ol + 2,2,4-trimethylpentane + hex-1-ene; phases: Gas, Liquid
Fixed: Temperature, K = 313.15
Property: Vapor or sublimation pressure, kPa (Gas); method: Closed cell (Static) method
Mole fraction of butan-2-ol	Mole fraction of 2,2,4-trimethylpentane	Vapor or sublimation pressure, kPa	uncertainty
1	0	6.053	0.04
0.6997	0.3003	13.8	0.118
0.6804	0.2921	15.632	0.121
0.6626	0.2845	17.232	0.125
0.6299	0.2705	19.953	0.131
0.5925	0.2545	22.763	0.134
0.5601	0.2406	24.98	0.141
0.5246	0.2254	27.193	0.149
0.4908	0.2109	29.119	0.156
0.4561	0.196	30.929	0.162
0.4211	0.181	32.624	0.168
0.3843	0.1652	34.272	0.175
0.3505	0.1507	35.667	0.18
0	1	12.941	0.071
0.3001	0.6999	15.325	0.095
0.2903	0.6769	16.545	0.101
0.2832	0.6605	17.444	0.104
0.2688	0.6269	19.25	0.111
0.2537	0.5918	21.092	0.118
0.2394	0.5584	22.79	0.125
0.2242	0.5231	24.541	0.131
0.2096	0.489	26.19	0.138
0.1944	0.4536	27.849	0.144
0.1797	0.4192	29.421	0.152
0.1648	0.3844	30.965	0.159
0.1499	0.3498	32.464	0.164
0	0	44.971	0.216
0.3013	0	42.891	0.207
0.2921	0.0303	41.662	0.204
0.2832	0.0598	40.631	0.2
0.2664	0.1156	38.732	0.193
0.2556	0.1511	37.572	0.187
0.2406	0.2007	35.983	0.18
0.2254	0.251	34.426	0.173
0.2105	0.3006	32.932	0.168
0.1953	0.3508	31.456	0.16
0.1802	0.4008	30.031	0.155
0.1652	0.4508	28.642	0.148
0.1501	0.5008	27.274	0.142
1	0	6.049	0.04
0.6977	0	33.435	0.171
0.6797	0.0257	32.456	0.241
0.6623	0.0505	31.571	0.167
0.6272	0.1006	29.939	0.163
0.5924	0.1503	28.487	0.155
0.5573	0.2005	27.177	0.15
0.5224	0.2504	25.993	0.145
0.4875	0.3003	24.915	0.138
0.4526	0.3504	23.93	0.134
0.4177	0.4003	23.025	0.128
0.3828	0.4504	22.183	0.126
0.3479	0.5004	21.399	0.121
0	1	12.949	0.071
0	0.6948	22.85	0.12
0.0214	0.68	23.728	0.126
0.0471	0.6621	24.132	0.128
0.0993	0.6259	24.29	0.13
0.1499	0.5907	24.226	0.13
0.2112	0.5481	24.043	0.13
0.2495	0.5215	23.874	0.129
0.2999	0.4865	23.618	0.129
0.3501	0.4516	23.325	0.13
0.4001	0.4168	22.989	0.127
0.45	0.3822	22.61	0.128
0.5001	0.3473	22.177	0.128
0	0	44.975	0.216
0	0.3006	35.416	0.176
0.0247	0.2932	36.018	0.179
0.0496	0.2857	36.142	0.179
0.0997	0.2707	35.999	0.179
0.1497	0.2556	35.694	0.178
0.2	0.2405	35.31	0.177
0.2501	0.2254	34.868	0.175
0.3005	0.2103	34.365	0.173
0.3503	0.1953	33.811	0.172
0.4002	0.1803	33.2	0.17
0.4504	0.1652	32.515	0.168
0.5004	0.1502	31.745	0.166
