Measured thermophysical data. Absorption of SO2 in different electrolyte solutions, seawater and brine
Source: Fluid Phase Equilib., 2015, 10.1016/j.fluid.2015.05.041
Compound 1: water, H2O, InChI=1S/H2O/h1H2, purity 99.9%
Compound 2: nitrogen, N2, InChI=1S/N2/c1-2, purity 99.9%
Compound 3: sulfur dioxide, O2S, InChI=1S/O2S/c1-3-2, purity 98%

System: sulfur dioxide + nitrogen + water; phases: Gas, Liquid
Fixed: Pressure, kPa = 101.3
Property: Partial pressure, kPa of sulfur dioxide (Gas); method: UV light absoprtion
Temperature, K	Molality, mol/kg of sulfur dioxide	Partial pressure, kPa of sulfur dioxide	uncertainty
298.15	0.0015	0.0128	0.0024
298.15	0.003	0.0336	0.0056
298.15	0.0042	0.0528	0.0119
298.15	0.0054	0.0936	0.0187
298.15	0.0066	0.1255	0.0224
298.15	0.0078	0.1621	0.0298
298.15	0.0089	0.2009	0.0338
298.15	0.01	0.2317	0.0341
298.15	0.0113	0.2646	0.0382
298.15	0.0122	0.2985	0.042
323.15	0.0012	0.0252	0.0067
323.15	0.0021	0.0723	0.0146
323.15	0.0028	0.1255	0.0249
323.15	0.0035	0.1825	0.0311
323.15	0.0043	0.2382	0.0354
323.15	0.0051	0.2859	0.0381
323.15	0.006	0.3306	0.0417
323.15	0.007	0.3766	0.0478
323.15	0.0079	0.4206	0.0546
