Measured thermophysical data. Vapor liquid equilibrium measurements and correlations for the binary mixture of difluoromethane + isobutane and the ternary mixture of propane + isobutane + difluoromethane
Source: Fluid Phase Equilib., 2007, 10.1016/j.fluid.2007.06.029
Compound 1: propane, C3H8, InChI=1S/C3H8/c1-3-2/h3H2,1-2H3, purity 99.99%
Compound 2: 2-methylpropane, C4H10, InChI=1S/C4H10/c1-4(2)3/h4H,1-3H3, purity 99.99%
Compound 3: difluoromethane, CH2F2, InChI=1S/CH2F2/c2-1-3/h1H2, purity 99.99%

System: difluoromethane + 2-methylpropane; phases: Liquid, Gas
Property: Vapor or sublimation pressure, kPa (Liquid); method: Closed cell (Static) method
Mole fraction of difluoromethane	Temperature, K	Vapor or sublimation pressure, kPa	uncertainty
0.017	290	298.5	87.1
0.0196	260	132.3	56.7
0.0229	270	190.3	56.4
0.0366	310	698.6	82.1
0.0368	290	437.4	83.2
0.0386	260	203.7	42.5
0.0469	280	323.6	77
0.0607	290	543.8	69.7
0.0663	270	362	45.6
0.0716	260	281	31.1
0.0748	280	466.4	51.6
0.0796	310	933.3	81.9
0.0933	290	697.2	48.6
0.1167	280	592.2	39.2
0.1176	260	365.3	20.9
0.1215	270	489.1	24.5
0.1222	310	1164.7	63
0.1746	290	925.5	34.4
0.1813	280	746.8	23.6
0.1943	260	448.2	10.7
0.2281	310	1566.6	47.1
0.2305	270	634.7	11.4
0.2678	290	1091.7	22.7
0.3067	280	890.9	15.7
0.3248	310	1791.1	31.5
0.3594	290	1192.9	13.7
0.3714	260	522.8	8.8
0.3951	321.8	2426.8	30.7
0.423	270	725.6	9.5
0.4404	310	1999.8	20.5
0.443	280	996.1	16.6
0.4995	321.8	2630.6	30.8
0.5232	301.8	1722.3	26.9
0.5244	290	1299.5	12
0.6461	310	2204.8	17.3

System: difluoromethane + 2-methylpropane; phases: Gas, Liquid
Property: Mole fraction of difluoromethane (Gas); method: Chromatography
Mole fraction of difluoromethane	Temperature, K	Mole fraction of difluoromethane	uncertainty
0.017	290	0.1024	0.0251
0.0196	260	0.2871	0.0305
0.0229	270	0.2711	0.0227
0.0366	310	0.2614	0.0175
0.0368	290	0.3634	0.0237
0.0386	260	0.5155	0.0211
0.0469	280	0.3697	0.0209
0.0607	290	0.4746	0.0179
0.0663	270	0.5954	0.018
0.0716	260	0.6419	0.0163
0.0748	280	0.5491	0.0171
0.0796	310	0.4334	0.0168
0.0933	290	0.5812	0.0159
0.1167	280	0.6437	0.0157
0.1176	260	0.7253	0.0154
0.1215	270	0.7002	0.0154
0.1222	310	0.5233	0.0158
0.1746	290	0.6906	0.0154
0.1813	280	0.7233	0.0153
0.1943	260	0.7807	0.0151
0.2281	310	0.6347	0.0154
0.2305	270	0.7804	0.0151
0.2678	290	0.7445	0.0152
0.3067	280	0.7775	0.0151
0.3248	310	0.6695	0.0153
0.3594	290	0.7659	0.0151
0.3714	260	0.8173	0.0151
0.3951	321.8	0.7075	0.0152
0.423	270	0.8146	0.0151
0.4404	310	0.7401	0.0152
0.443	280	0.8036	0.0151
0.4995	321.8	0.7466	0.0152
0.5232	301.8	0.7888	0.0152
0.5244	290	0.8081	0.0151
0.6461	310	0.8161	0.0151

System: propane + difluoromethane + 2-methylpropane; phases: Liquid, Gas
Property: Mole fraction of 2-methylpropane (Liquid); method: Chromatography
Property: Mole fraction of 2-methylpropane (Gas); method: Chromatography
Property: Mole fraction of propane (Gas); method: Chromatography
Temperature, K	Pressure, kPa	Mole fraction of propane	Mole fraction of 2-methylpropane	uncertainty	Mole fraction of 2-methylpropane	uncertainty	Mole fraction of propane	uncertainty
260	192.4	0.4474	0.5526	0.0153	0.2795	0.0152	0.7205	
260	266.5	0.4322	0.535	0.0154	0.2023	0.0151	0.5099	
260	354.9	0.4253	0.5002	0.0154	0.1586	0.0151	0.389	
260	426.7	0.407	0.4882	0.0154	0.1315	0.015	0.3246	
260	516	0.3732	0.4522	0.0153	0.1092	0.015	0.2655	
260	586.1	0.3146	0.3812	0.0152	0.0942	0.015	0.222	
270	264.9	0.4464	0.5536	0.0153	0.3303	0.0153	0.6697	
270	503	0.4022	0.4826	0.0154	0.4374	0.0155	0.387	
270	719.4	0.3336	0.4477	0.0153	0.1185	0.015	0.2405	
280	646.9	0.4271	0.4747	0.0154	0.1796	0.0151	0.399	
280	846.1	0.3938	0.4479	0.0153	0.1399	0.015	0.3087	
280	1067.1	0.3033	0.3388	0.0152	0.1208	0.015	0.2291	
290	513.2	0.5042	0.4958	0.0154	0.2924	0.0152	0.7076	
290	616.8	0.4821	0.4746	0.0154	0.2419	0.0151	0.5805	
290	708.4	0.4727	0.477	0.0154	0.2157	0.0151	0.5109	
290	805.8	0.4627	0.4546	0.0153	0.1908	0.0151	0.4563	
290	922.1	0.4494	0.4506	0.0153	0.1695	0.0151	0.4013	
290	1023	0.4304	0.4267	0.0153	0.1529	0.0151	0.3597	
290	1105.5	0.4145	0.4187	0.0153	0.1423	0.015	0.3293	
290	1237.4	0.3832	0.3843	0.0152	0.1235	0.015	0.2871	
