Measured thermophysical data. Experimental determination and modelling of the solubilities of sodium sulfate and potassium sulfate in sub- and supercritical water
Source: Fluid Phase Equilib., 2019, 10.1016/j.fluid.2018.10.022
Compound 1: sodium sulfate, Na2O4S, InChI=1S/2Na.H2O4S/c;;1-5(2,3)4/h;;(H2,1,2,3,4)/q2*+1;/p-2, purity 99.7%
Compound 2: potassium sulfate, K2O4S, InChI=1S/2K.H2O4S/c;;1-5(2,3)4/h;;(H2,1,2,3,4)/q2*+1;/p-2, purity 99.7%
Compound 3: water, H2O, InChI=1S/H2O/h1H2, purity 99.9%

System: sodium sulfate + water; phases: Fluid (supercritical or subcritical phases), Crystal
Property: Molality, mol/kg of sodium sulfate (Fluid (supercritical or subcritical phases)); method: Ionic chromatography
Temperature, K	Pressure, kPa	Molality, mol/kg of sodium sulfate	uncertainty
703.15	20600	8.94e-06	3.16e-06
723.15	21900	7.16e-06	2.96e-06
723.15	24000	1.32e-05	3.8e-06
703.15	22600	2e-05	1e-05
673.15	26400	0.00016	3e-05
673.15	18300	3.52e-05	3.5e-06
673.15	20400	4.13e-05	1.07e-05
673.15	22100	7.61e-05	1.79e-05
673.15	24300	0.00011	2e-05
703.15	18600	4.64e-06	1.93e-06
703.15	22500	1.83e-05	6.8e-06
703.15	24700	4.11e-05	1.16e-05
703.15	26000	6.19e-05	2.09e-05
723.15	18100	1.19e-06	3.1e-07
723.15	20000	1.62e-06	1.85e-06
723.15	26100	1.64e-05	3.2e-06

System: sodium sulfate + water; phases: Liquid, Crystal
Fixed: Temperature, K = 643.15
Property: Molality, mol/kg of sodium sulfate (Liquid); method: Ionic chromatography
Pressure, kPa	Molality, mol/kg of sodium sulfate	uncertainty
21900	0.03862	0.00155
23800	0.06204	0.00249
26300	0.10081	0.00404

System: sodium sulfate + water; phases: Gas, Crystal
Fixed: Temperature, K = 643.15
Property: Mole fraction of sodium sulfate (Gas); method: Chromatography
Pressure, kPa	Mole fraction of sodium sulfate	uncertainty
18000	2.3e-06	1e-07
20000	3.4e-06	1e-07

System: potassium sulfate + water; phases: Fluid (supercritical or subcritical phases), Crystal
Property: Molality, mol/kg of potassium sulfate (Fluid (supercritical or subcritical phases)); method: Ionic Chromatography
Temperature, K	Pressure, kPa	Molality, mol/kg of potassium sulfate	uncertainty
663.15	18100	0.00184	0.00037
663.15	20000	0.00266	0.0005
663.15	22350	0.00431	0.00108
663.15	24000	0.00803	0.00276
663.15	26100	0.01679	0.00354
693.15	18500	0.00047	6e-05
693.15	20400	0.00081	0.00022
693.15	22500	0.00161	0.00036
693.15	24500	0.00256	0.00042
693.15	26550	0.00383	0.00175
723.15	18400	0.00028	4e-05
723.15	20350	0.00037	8e-05
723.15	22600	0.00065	0.00011
723.15	24400	0.00086	0.00012
723.15	26500	0.00109	0.00015

System: potassium sulfate + water; phases: Liquid, Crystal
Fixed: Temperature, K = 633.15
Property: Molality, mol/kg of potassium sulfate (Liquid); method: Ionic chromatography
Pressure, kPa	Molality, mol/kg of potassium sulfate	uncertainty
20550	0.09659	0.03287
22300	0.16736	0.02335
24500	0.20247	0.01562
26700	0.22133	0.01495

System: potassium sulfate + water; phases: Gas, Crystal
Property: Mole fraction of potassium sulfate (Gas); method: Chromatography
Temperature, K	Pressure, kPa	Mole fraction of potassium sulfate	uncertainty
633.15	18100	9.8e-05	6e-06
