Measured thermophysical data. Mean activity coefficients measurement of sodium chloride and thermodynamic modeling of sodium chloride and polysodium acrylate aqueous mixtures at T= (298.2 and 303.2) K
Source: Fluid Phase Equilib., 2014, 10.1016/j.fluid.2014.07.002
Compound 1: sodium chloride, ClNa, InChI=1S/ClH.Na/h1H;/q;+1/p-1
Compound 2: water, H2O, InChI=1S/H2O/h1H2, purity 99.9%

System: sodium chloride + water; phases: Liquid
Fixed: Temperature, K = 298.2
Fixed: Pressure, kPa = 101
Property: Mean ionic activity coefficient of sodium chloride (Liquid); method: potentionmetric method
Molality, mol/kg of sodium chloride	Mean ionic activity coefficient of sodium chloride	uncertainty
0.001	0.9651	0.0388
0.0101	0.9019	0.0388
0.0502	0.8201	0.0387
0.0993	0.7773	0.0387
0.2495	0.7184	0.0387
0.4993	0.6797	0.0387
0.7496	0.6629	0.0387
0.9996	0.6555	0.0387
1.2493	0.6537	0.0387
1.4996	0.6556	0.0387
1.7486	0.6603	0.0387
1.9991	0.6673	0.0387
2.4994	0.687	0.0387
2.9997	0.713	0.0387
