Measured thermophysical data. Vapour liquid equilibria, azeotropic data, excess enthalpies, activity coefficients at infinite dilution and solid liquid equilibria for binary alcohol ketone systems
Source: Fluid Phase Equilib., 2008, 10.1016/j.fluid.2008.02.021
Compound 1: 2-octanone, C8H16O, InChI=1S/C8H16O/c1-3-4-5-6-7-8(2)9/h3-7H2,1-2H3
Compound 2: cyclohexanone, C6H10O, InChI=1S/C6H10O/c7-6-4-2-1-3-5-6/h1-5H2
Compound 3: hexan-1-ol, C6H14O, InChI=1S/C6H14O/c1-2-3-4-5-6-7/h7H,2-6H2,1H3
Compound 4: cyclohexanol, C6H12O, InChI=1S/C6H12O/c7-6-4-2-1-3-5-6/h6-7H,1-5H2
Compound 5: pentan-1-ol, C5H12O, InChI=1S/C5H12O/c1-2-3-4-5-6/h6H,2-5H2,1H3
Compound 6: methanol, CH4O, InChI=1S/CH4O/c1-2/h2H,1H3
Compound 7: ethanol, C2H6O, InChI=1S/C2H6O/c1-2-3/h3H,2H2,1H3
Compound 8: 2-heptanone, C7H14O, InChI=1S/C7H14O/c1-3-4-5-6-7(2)8/h3-6H2,1-2H3
Compound 9: propan-1-ol, C3H8O, InChI=1S/C3H8O/c1-2-3-4/h4H,2-3H2,1H3
Compound 10: butan-1-ol, C4H10O, InChI=1S/C4H10O/c1-2-3-4-5/h5H,2-4H2,1H3

System: 2-octanone; phases: Crystal, Liquid, Air at 1 atmosphere
Property: Normal melting temperature, K (Crystal); method: VISOBS:UFactor:2
Normal melting temperature, K	uncertainty
253.4	0.3

System: 2-octanone; phases: Liquid, Gas
Property: Vapor or sublimation pressure, kPa (Liquid); method: Closed cell (Static) method
Temperature, K	Vapor or sublimation pressure, kPa	uncertainty
323.15	0.8706	0.02133
363.15	6.39681	0.04666

System: cyclohexanone; phases: Crystal, Liquid, Air at 1 atmosphere
Property: Normal melting temperature, K (Crystal); method: VISOBS
Normal melting temperature, K	uncertainty
245.9	0.2

System: cyclohexanone; phases: Liquid, Gas
Property: Vapor or sublimation pressure, kPa (Liquid); method: Closed cell (Static) method
Temperature, K	Vapor or sublimation pressure, kPa	uncertainty
323.15	2.23048	0.028
363.15	13.04693	0.05866

System: hexan-1-ol; phases: Crystal, Liquid, Air at 1 atmosphere
Property: Normal melting temperature, K (Crystal); method: VISOBS:UFactor:2
Normal melting temperature, K	uncertainty
229	1

System: hexan-1-ol; phases: Liquid, Gas
Property: Vapor or sublimation pressure, kPa (Liquid); method: Closed cell (Static) method
Temperature, K	Vapor or sublimation pressure, kPa	uncertainty
323.15	0.72261	0.0267
363.15	7.22874	0.04933

System: cyclohexanol; phases: Crystal, Liquid, Air at 1 atmosphere
Property: Normal melting temperature, K (Crystal); method: VISOBS
Normal melting temperature, K	uncertainty
297.2	0.2

System: cyclohexanol; phases: Liquid, Gas
Property: Vapor or sublimation pressure, kPa (Liquid); method: Closed cell (Static) method
Temperature, K	Vapor or sublimation pressure, kPa	uncertainty
323.15	0.73994	0.016
363.15	6.8821	0.03866

System: 2-octanone + hexan-1-ol; phases: Liquid, Gas
Property: Azeotropic pressure, kPa (Liquid); method: micro spinning band column
Temperature, K	Azeotropic pressure, kPa	uncertainty
321.75	96.5	11.3
379.25	1593	22
430.95	10339	59

System: 2-octanone + hexan-1-ol; phases: Liquid, Crystal
Fixed: Pressure, kPa = 101
Property: Solid-liquid equilibrium temperature, K (Liquid); method: VISOBS:UFactor:2
Mole fraction of hexan-1-ol	Solid-liquid equilibrium temperature, K	uncertainty
0	253.4	0.3
0.053	252.7	0.3
0.102	251.9	0.4
0.153	251	1
0.201	250.3	0.4
0.25	249.5	0.4
0.301	248.7	0.4
0.35	247.9	0.4
0.402	247	1
0.45	246.4	0.3
0.499	245.6	0.4
0.55	244.8	0.4
0.598	243.7	0.4
0.65	242.9	0.4
0.7	241.1	0.5
0.75	239.4	0.5
0.799	237.7	0.6
0.847	234.5	0.9
0.898	229.7	1

System: 2-octanone + hexan-1-ol; phases: Liquid, Crystal
Fixed: Pressure, kPa = 101
Property: Solid-liquid equilibrium temperature, K (Liquid); method: VISOBS:UFactor:2
Mole fraction of hexan-1-ol	Solid-liquid equilibrium temperature, K	uncertainty
0.947	226.7	0.5
1	229	1

System: 2-octanone + hexan-1-ol; phases: Liquid, Gas
Property: Azeotropic composition: mole fraction of hexan-1-ol (Liquid); method: micro spinning band column
Temperature, K	Azeotropic composition: mole fraction of hexan-1-ol	uncertainty
321.75	0.496	0.007
379.25	0.782	0.004
430.95	0.901	0.002

System: 2-octanone + hexan-1-ol; phases: Liquid, Gas
Property: Vapor or sublimation pressure, kPa (Liquid); method: Closed cell (Static) method
Temperature, K	Mole fraction of hexan-1-ol	Vapor or sublimation pressure, kPa	uncertainty
323.15	0	0.8706	0.02133
323.15	0.0015	0.87459	0.02133
323.15	0.003	0.87593	0.02133
323.15	0.0065	0.87859	0.02133
323.15	0.01	0.88126	0.02133
323.15	0.0151	0.88526	0.02133
323.15	0.0227	0.88793	0.02266
323.15	0.0338	0.89193	0.02266
323.15	0.0507	0.89859	0.02266
323.15	0.0722	0.90793	0.02266
323.15	0.0991	0.91726	0.02266
323.15	0.131	0.92659	0.02266
323.15	0.168	0.93459	0.02266
323.15	0.213	0.94259	0.024
323.15	0.261	0.94926	0.024
323.15	0.311	0.95059	0.024
323.15	0.362	0.95325	0.024
323.15	0.413	0.95592	0.024
323.15	0.463	0.95325	0.024
323.15	0.511	0.95059	0.024
323.15	0.556	0.94792	0.024
323.15	0.644	0.92792	0.024
323.15	0.688	0.91326	0.02266
323.15	0.732	0.89593	0.02266
323.15	0.774	0.87859	0.02266
323.15	0.813	0.8586	0.02266
323.15	0.85	0.8386	0.02133
323.15	0.882	0.8186	0.02133
323.15	0.909	0.80127	0.02133
323.15	0.931	0.78527	0.02133
323.15	0.949	0.76927	0.0267
323.15	0.964	0.75994	0.0267
323.15	0.975	0.7506	0.0267
323.15	0.983	0.74394	0.0267
323.15	0.988	0.73861	0.0267
323.15	0.991	0.73461	0.0267
323.15	0.994	0.73061	0.0267
323.15	0.997	0.72661	0.0267
323.15	0.999	0.72261	0.0267
323.15	1	0.72261	0.0267
363.15	0	6.39681	0.04666
363.15	0.0015	6.40081	0.04666
363.15	0.003	6.41014	0.04666
363.15	0.0065	6.42614	0.04666
363.15	0.01	6.4408	0.04666
363.15	0.0152	6.46347	0.04666
363.15	0.0228	6.49547	0.04666
363.15	0.0339	6.53946	0.04666
363.15	0.0508	6.60746	0.04666
363.15	0.0722	6.68478	0.048
363.15	0.0992	6.77678	0.048
363.15	0.131	6.88077	0.048
363.15	0.168	6.99142	0.04933
363.15	0.213	7.11275	0.04933
363.15	0.261	7.23007	0.04933
363.15	0.311	7.33406	0.05066
363.15	0.363	7.42606	0.05066
363.15	0.413	7.50338	0.05066
363.15	0.463	7.56871	0.052
363.15	0.511	7.61804	0.052
363.15	0.513	7.61671	0.052
363.15	0.556	7.63404	0.052
363.15	0.6	7.63937	0.052
363.15	0.644	7.63537	0.052
363.15	0.689	7.61937	0.052
363.15	0.732	7.59671	0.052
363.15	0.774	7.57138	0.052
363.15	0.813	7.53805	0.05066
363.15	0.849	7.49938	0.05066
363.15	0.882	7.46072	0.05066
363.15	0.908	7.41939	0.05066
363.15	0.93	7.38206	0.05066
363.15	0.949	7.3474	0.05066
363.15	0.963	7.31806	0.05066
363.15	0.974	7.2914	0.05066
363.15	0.982	7.2754	0.05066
363.15	0.987	7.2634	0.05066
363.15	0.991	7.2514	0.05066
363.15	0.994	7.2434	0.05066
363.15	0.997	7.23407	0.04933
363.15	0.999	7.23407	0.04933
363.15	1	7.22874	0.04933

System: 2-octanone + hexan-1-ol; phases: Liquid
Fixed: Pressure, kPa = 1617
Property: Excess molar enthalpy (molar enthalpy of mixing), kJ/mol (Liquid); method: Flow calorimetry
Temperature, K	Mole fraction of hexan-1-ol	Excess molar enthalpy (molar enthalpy of mixing), kJ/mol	uncertainty
363.15	0.062	0.3426	0.0044
363.15	0.122	0.6351	0.0074
363.15	0.181	0.878	0.01
363.15	0.238	1.0736	0.0117
363.15	0.294	1.2214	0.0132
363.15	0.349	1.3332	0.0143
363.15	0.402	1.403	0.015
363.15	0.455	1.4409	0.0154
363.15	0.506	1.445	0.015
363.15	0.557	1.4274	0.0153
363.15	0.605	1.3694	0.0147
363.15	0.652	1.2973	0.014
363.15	0.699	1.2027	0.013
363.15	0.745	1.0844	0.0119
363.15	0.79	0.9478	0.0105
363.15	0.833	0.7931	0.0089
363.15	0.876	0.6183	0.0072
363.15	0.918	0.4272	0.0053
363.15	0.96	0.2198	0.0032
413.15	0.062	0.247	0.004
413.15	0.122	0.4678	0.0057
413.15	0.181	0.6551	0.0076
413.15	0.238	0.8122	0.0091
413.15	0.294	0.9276	0.0103
413.15	0.349	1.0223	0.0112
413.15	0.402	1.0832	0.0119
413.15	0.455	1.1217	0.0122
413.15	0.506	1.1345	0.0124
413.15	0.556	1.1262	0.0123
413.15	0.605	1.0861	0.0119
413.15	0.652	1.0327	0.0113
413.15	0.699	0.9602	0.0106
413.15	0.745	0.8636	0.0096
413.15	0.79	0.7583	0.0086
413.15	0.833	0.6367	0.0074
413.15	0.876	0.5015	0.006
413.15	0.918	0.3508	0.0045
413.15	0.96	0.1797	0.0028

System: cyclohexanol + cyclohexanone; phases: Liquid, Crystal
Fixed: Pressure, kPa = 101
Property: Solid-liquid equilibrium temperature, K (Liquid); method: VISOBS
Mole fraction of cyclohexanone	Solid-liquid equilibrium temperature, K	uncertainty
0	297.2	0.2
0.048	293.7	0.8
0.103	289.4	0.7
0.152	286.6	0.7
0.202	282.8	0.7
0.25	279.7	0.7
0.301	276.6	0.6
0.35	273.7	0.6
0.4	271.2	0.5
0.45	268.8	0.4
0.502	267.3	0.5
0.55	264.1	0.6
0.618	260.7	0.5
0.649	259.7	0.4
0.699	258	1
0.75	255.9	0.5
0.802	253.5	0.5
0.853	251.4	0.5
0.903	249.2	0.5
0.953	247.1	0.4
1	245.9	0.2

System: cyclohexanol + cyclohexanone; phases: Liquid, Gas
Property: Vapor or sublimation pressure, kPa (Liquid); method: Closed cell (Static) method
Temperature, K	Mole fraction of cyclohexanone	Vapor or sublimation pressure, kPa	uncertainty
323.15	0	0.73994	0.016
323.15	0.0011	0.74794	0.016
323.15	0.0032	0.76127	0.01733
323.15	0.0056	0.7733	0.01067
323.15	0.0092	0.78927	0.01733
323.15	0.0138	0.80793	0.01733
323.15	0.0198	0.82793	0.01733
323.15	0.0287	0.8586	0.01867
323.15	0.0425	0.89859	0.01867
323.15	0.0602	0.94792	0.0267
323.15	0.0827	1.00525	0.0267
323.15	0.11	1.07058	0.02133
323.15	0.141	1.13857	0.02266
323.15	0.181	1.21723	0.024
323.15	0.223	1.29589	0.02533
323.15	0.269	1.37455	0.02266
323.15	0.316	1.45055	0.024
323.15	0.364	1.52387	0.024
323.15	0.412	1.59187	0.024
323.15	0.44	1.6572	0.024
323.15	0.464	1.65853	0.02533
323.15	0.505	1.71719	0.02533
323.15	0.507	1.70919	0.02533
323.15	0.548	1.77319	0.02533
323.15	0.599	1.81718	0.02533
323.15	0.647	1.86918	0.02533
323.15	0.694	1.92118	0.02533
323.15	0.74	1.9732	0.0267
323.15	0.785	2.02117	0.02666
323.15	0.827	2.06783	0.02666
323.15	0.865	2.10783	0.02666
323.15	0.895	2.13982	0.02666
323.15	0.922	2.16249	0.02666
323.15	0.943	2.18382	0.028
323.15	0.96	2.19715	0.028
323.15	0.974	2.20915	0.028
323.15	0.983	2.21582	0.028
323.15	0.998	2.22782	0.028
323.15	0.999	2.22915	0.028
323.15	1	2.23048	0.028
363.15	0	6.8821	0.03866
363.15	0.0012	6.91276	0.03866
363.15	0.0035	6.96476	0.03866
363.15	0.0061	7.00876	0.03866
363.15	0.01	7.06742	0.03866
363.15	0.014	7.12475	0.03866
363.15	0.0198	7.20741	0.03866
363.15	0.029	7.3114	0.04
363.15	0.0427	7.46072	0.04
363.15	0.0604	7.6407	0.04
363.15	0.0828	7.85402	0.04133
363.15	0.11	8.10067	0.04266
363.15	0.141	8.37264	0.04266
363.15	0.18	8.69795	0.044
363.15	0.223	9.02592	0.04533
363.15	0.269	9.3699	0.04666
363.15	0.316	9.69787	0.048
363.15	0.364	10.01518	0.048
363.15	0.412	10.31782	0.04933
363.15	0.459	10.60446	0.05066
363.15	0.464	10.67512	0.05066
363.15	0.505	10.87244	0.05066
363.15	0.507	10.86311	0.05066
363.15	0.552	11.06176	0.052
363.15	0.599	11.26974	0.052
363.15	0.647	11.47906	0.05333
363.15	0.694	11.68704	0.05333
363.15	0.74	11.89502	0.05466
363.15	0.785	12.09767	0.05466
363.15	0.826	12.28432	0.056
363.15	0.864	12.45631	0.056
363.15	0.895	12.58696	0.05733
363.15	0.921	12.70162	0.05733
363.15	0.943	12.79628	0.05733
363.15	0.96	12.86428	0.05733
363.15	0.973	12.9256	0.05866
363.15	0.982	12.96027	0.05866
363.15	0.988	12.9856	0.05866
363.15	0.991	13.0016	0.05866
363.15	0.995	13.0176	0.05866
363.15	0.998	13.03226	0.05866
363.15	0.999	13.03626	0.05866
363.15	1	13.04693	0.05866

System: cyclohexanol + cyclohexanone; phases: Liquid
Property: Excess molar enthalpy (molar enthalpy of mixing), kJ/mol (Liquid); method: Flow calorimetry
Temperature, K	Pressure, kPa	Mole fraction of cyclohexanone	Excess molar enthalpy (molar enthalpy of mixing), kJ/mol	uncertainty
363.15	1651	0.051	0.2721	0.0037
363.15	1651	0.102	0.5205	0.0062
363.15	1651	0.153	0.7339	0.0083
363.15	1651	0.204	0.9195	0.0102
363.15	1651	0.254	1.0686	0.0117
363.15	1651	0.305	1.1913	0.0129
363.15	1651	0.355	1.2828	0.0138
363.15	1651	0.406	1.3449	0.0144
363.15	1651	0.456	1.3788	0.0148
363.15	1651	0.506	1.3958	0.015
363.15	1651	0.555	1.3707	0.0147
363.15	1651	0.605	1.3235	0.0142
363.15	1651	0.655	1.2501	0.0135
363.15	1651	0.705	1.1489	0.0125
363.15	1651	0.754	1.0196	0.0112
363.15	1651	0.803	0.8698	0.0097
363.15	1651	0.853	0.6881	0.0079
363.15	1651	0.902	0.4823	0.0058
363.15	1651	0.951	0.2491	0.0035
413.15	1582	0.051	0.1625	0.0026
413.15	1582	0.102	0.3111	0.0041
413.15	1582	0.153	0.4437	0.0054
413.15	1582	0.203	0.5613	0.0066
413.15	1582	0.254	0.6567	0.0076
413.15	1582	0.304	0.7327	0.0083
413.15	1582	0.355	0.7943	0.0089
413.15	1582	0.405	0.8315	0.0093
413.15	1582	0.455	0.8523	0.0095
413.15	1582	0.505	0.8632	0.0096
413.15	1582	0.555	0.8464	0.0095
413.15	1582	0.605	0.8165	0.0092
413.15	1582	0.655	0.766	0.009
413.15	1582	0.704	0.7014	0.008
413.15	1582	0.754	0.6207	0.0072
413.15	1582	0.803	0.5262	0.0063
413.15	1582	0.853	0.412	0.005
413.15	1582	0.902	0.2849	0.0038
413.15	1582	0.951	0.1463	0.0025

System: pentan-1-ol + 2-heptanone; phases: Liquid, Gas
Property: Azeotropic pressure, kPa (Liquid); method: micro spinning band column
Temperature, K	Azeotropic pressure, kPa	uncertainty
314.35	158.5	11.8
350	1275	25
409.7	10095.5	55.6

System: pentan-1-ol + 2-heptanone; phases: Gas, Liquid
Property: Azeotropic composition: mole fraction of 2-heptanone (Gas); method: By T or P extreme
Temperature, K	Azeotropic composition: mole fraction of 2-heptanone	uncertainty
314.35	0.281	0.005
350	0.524	0.007
409.7	0.938	0.002

System: methanol + 2-octanone; phases: Liquid
Fixed: Pressure, kPa = 101
Fixed: Mole fraction of methanol = 0
Property: Activity coefficient of methanol (Liquid); method: extrapolation
Temperature, K	Activity coefficient of methanol	uncertainty
303.17	3.14	0.16
313.15	2.95	0.15
323.16	2.78	0.14
333.18	2.62	0.13

System: ethanol + 2-octanone; phases: Liquid
Fixed: Pressure, kPa = 101
Fixed: Mole fraction of ethanol = 0
Property: Activity coefficient of ethanol (Liquid); method: extrapolation
Temperature, K	Activity coefficient of ethanol	uncertainty
303.15	3.27	0.16
313.16	3.07	0.15
323.14	2.87	0.14
333.15	2.73	0.14

System: propan-1-ol + 2-octanone; phases: Liquid
Fixed: Pressure, kPa = 101
Fixed: Mole fraction of propan-1-ol = 0
Property: Activity coefficient of propan-1-ol (Liquid); method: extrapolation
Temperature, K	Activity coefficient of propan-1-ol	uncertainty
303.15	3.31	0.17
313.16	3.08	0.15
323.15	2.94	0.15
333.16	2.8	0.14

System: butan-1-ol + 2-octanone; phases: Liquid
Fixed: Pressure, kPa = 101
Fixed: Mole fraction of butan-1-ol = 0
Property: Activity coefficient of butan-1-ol (Liquid); method: extrapolation
Temperature, K	Activity coefficient of butan-1-ol	uncertainty
303.14	3.3	0.17
313.15	3.19	0.16
323.17	3.1	0.16
333.15	3	0.15
