Measured thermophysical data. Pressure-volume-temperature-composition relations for carbon dioxide + pyrrolidinium-based ionic liquid binary systems
Source: Fluid Phase Equilib., 2013, 10.1016/j.fluid.2013.09.036
Compound 1: carbon dioxide, CO2, InChI=1S/CO2/c2-1-3, purity 99.99%
Compound 2: 1-methyl-1-propylpyrrolidinium bis[(trifluoromethyl)sulfonyl]imide, C10H18F6N2O4S2, InChI=1S/C8H18N.C2F6NO4S2/c1-3-6-9(2)7-4-5-8-9;3-1(4,5)14(10,11)9-15(12,13)2(6,7)8/h3-8H2,1-2H3;/q+1;-1, purity 99%
Compound 3: 1-(methoxymethyl)-1-methylpyrrolidinium 1,1,1-trifluoro-N-[(trifluoromethyl)sulfonyl]methanesulfonamide, C9H16F6N2O5S2, InChI=1S/C7H16NO.C2F6NO4S2/c1-8(7-9-2)5-3-4-6-8;3-1(4,5)14(10,11)9-15(12,13)2(6,7)8/h3-7H2,1-2H3;/q+1;-1, purity 99%
Compound 4: 1-(methoxymethyl)-1-methylpyrrolidinium bis(fluorosulfonyl)amide, C7H16F2N2O5S2, InChI=1S/C7H16NO.F2NO4S2/c1-8(7-9-2)5-3-4-6-8;1-8(4,5)3-9(2,6)7/h3-7H2,1-2H3;/q+1;-1, purity 99%

System: 1-methyl-1-propylpyrrolidinium bis[(trifluoromethyl)sulfonyl]imide; phases: Liquid
Fixed: Pressure, kPa = 101.325
Property: Mass density, kg/m3 (Liquid); method: Vibrating tube method
Temperature, K	Mass density, kg/m3	uncertainty
278.15	1446.23	1.55
283.15	1441.6	1.55
288.15	1437	1.54
293.15	1432.46	1.54
298.15	1427.91	1.53
303.15	1423.37	1.53
313.15	1414.36	1.51
323.15	1405.44	1.5
333.15	1396.6	1.49
343.15	1387.82	1.48
353.15	1379.12	1.47
363.15	1370.48	1.46

System: 1-methyl-1-propylpyrrolidinium bis[(trifluoromethyl)sulfonyl]imide; phases: Liquid
Fixed: Pressure, kPa = 101.325
Property: Viscosity, Pa*s (Liquid); method: Unspecified
Temperature, K	Viscosity, Pa*s	uncertainty
278.15	0.1694	0.0068
283.15	0.1272	0.0051
288.15	0.09784	0.00395
293.15	0.07689	0.0031
298.15	0.06152	0.00248
303.15	0.04999	0.00202
313.15	0.03445	0.00139
323.15	0.02491	0.001
333.15	0.01871	0.00075
343.15	0.01451	0.00058
353.15	0.01155	0.00047
363.15	0.009398	0.000379

System: 1-methyl-1-propylpyrrolidinium bis[(trifluoromethyl)sulfonyl]imide; phases: Liquid
Fixed: Pressure, kPa = 101.325
Property: Electrical conductivity, S/m (Liquid); method: Unspecified
Temperature, K	Electrical conductivity, S/m	uncertainty
278.15	0.1582	0.0063
283.15	0.2057	0.0082
288.15	0.2615	0.0105
293.15	0.3265	0.0131
298.15	0.4	0.016
303.15	0.4829	0.0193
313.15	0.6749	0.027
323.15	0.9025	0.0361
333.15	1.164	0.047
343.15	1.46	0.058
353.15	1.782	0.071

System: carbon dioxide + 1-methyl-1-propylpyrrolidinium bis[(trifluoromethyl)sulfonyl]imide; phases: Liquid, Gas
Property: Mole fraction of carbon dioxide (Liquid); method: Volumetric analysis
Pressure, kPa	Temperature, K	Mole fraction of carbon dioxide	uncertainty
525.5	298.15	0.134	0.004
1123.1	298.15	0.255	0.004
1476.5	298.15	0.316	0.004
1913.1	298.15	0.376	0.004
2237.6	298.15	0.418	0.004
2800.7	298.15	0.478	0.004
3281.6	298.15	0.523	0.004
3998.7	298.15	0.578	0.004
4567.3	298.15	0.616	0.004
567.7	313.15	0.113	0.004
1217.5	313.15	0.218	0.004
1606.5	313.15	0.273	0.004
2083.3	313.15	0.327	0.004
2445	313.15	0.369	0.004
3072.7	313.15	0.425	0.004
3613.6	313.15	0.468	0.004
4415.1	313.15	0.519	0.004
5100.5	313.15	0.561	0.004
618.4	333.15	0.093	0.004
1333.3	333.15	0.18	0.004
1767.4	333.15	0.229	0.004
2294.9	333.15	0.275	0.004
2702.9	333.15	0.316	0.004
3411.9	333.15	0.368	0.004
4029.9	333.15	0.409	0.004
4942.5	333.15	0.455	0.004
5777.2	333.15	0.501	0.004

System: carbon dioxide + 1-methyl-1-propylpyrrolidinium bis[(trifluoromethyl)sulfonyl]imide; phases: Liquid
Property: Molar volume, m3/mol (Liquid); method: Other PVT measurement
Pressure, kPa	Mole fraction of carbon dioxide	Temperature, K	Molar volume, m3/mol	uncertainty
525.5	0.134	298.15	0.0002522	3e-06
1123.1	0.255	298.15	0.0002222	2.7e-06
1476.5	0.316	298.15	0.0002071	2.5e-06
1913.1	0.376	298.15	0.0001924	2.3e-06
2237.6	0.418	298.15	0.000182	2.2e-06
2800.7	0.478	298.15	0.0001674	2e-06
3281.6	0.523	298.15	0.0001565	1.9e-06
3998.7	0.578	298.15	0.0001431	1.7e-06
4567.3	0.616	298.15	0.0001339	1.6e-06
567.7	0.113	313.15	0.0002606	3.1e-06
1217.5	0.218	313.15	0.0002344	2.8e-06
1606.5	0.273	313.15	0.0002203	2.6e-06
2083.3	0.327	313.15	0.000207	2.5e-06
2445	0.369	313.15	0.0001966	2.4e-06
3072.7	0.425	313.15	0.0001827	2.2e-06
3613.6	0.468	313.15	0.0001718	2.1e-06
4415.1	0.519	313.15	0.0001596	1.9e-06
5100.5	0.561	313.15	0.000149	1.8e-06
618.4	0.093	333.15	0.0002678	3.2e-06
1333.3	0.18	333.15	0.0002455	2.9e-06
1767.4	0.229	333.15	0.0002327	2.8e-06
2294.9	0.275	333.15	0.0002214	2.7e-06
2702.9	0.316	333.15	0.0002107	2.5e-06
3411.9	0.368	333.15	0.0001978	2.4e-06
4029.9	0.409	333.15	0.0001874	2.3e-06
4942.5	0.455	333.15	0.0001767	2.1e-06
5777.2	0.501	333.15	0.000165	2e-06

System: carbon dioxide + 1-(methoxymethyl)-1-methylpyrrolidinium 1,1,1-trifluoro-N-[(trifluoromethyl)sulfonyl]methanesulfonamide; phases: Liquid, Gas
Property: Mole fraction of carbon dioxide (Liquid); method: Volumetric analysis
Pressure, kPa	Temperature, K	Mole fraction of carbon dioxide	uncertainty
528.6	298.15	0.141	0.004
930.4	298.15	0.227	0.004
1605.6	298.15	0.343	0.004
2162.5	298.15	0.419	0.004
2669.2	298.15	0.476	0.004
3025.8	298.15	0.511	0.004
3532	298.15	0.555	0.004
4146.5	298.15	0.601	0.004
4621.9	298.15	0.631	0.004
657.1	313.15	0.135	0.004
1103.4	313.15	0.21	0.004
1461.2	313.15	0.261	0.004
1819.1	313.15	0.308	0.004
2372.2	313.15	0.369	0.004
2851.2	313.15	0.415	0.004
3436.6	313.15	0.464	0.004
4343.2	313.15	0.527	0.004
4546.5	313.15	0.539	0.004
664.8	333.15	0.103	0.004
1073.1	333.15	0.157	0.004
1710.5	333.15	0.23	0.004
2250.6	333.15	0.282	0.004
2674.1	333.15	0.32	0.004
3128	333.15	0.356	0.004
3541.1	333.15	0.385	0.004
4055	333.15	0.418	0.004
5243.2	333.15	0.483	0.004

System: carbon dioxide + 1-(methoxymethyl)-1-methylpyrrolidinium 1,1,1-trifluoro-N-[(trifluoromethyl)sulfonyl]methanesulfonamide; phases: Liquid
Property: Molar volume, m3/mol (Liquid); method: Other PVT measurement
Pressure, kPa	Mole fraction of carbon dioxide	Temperature, K	Molar volume, m3/mol	uncertainty
528.6	0.141	298.15	0.0002434	2.9e-06
930.4	0.227	298.15	0.0002227	2.7e-06
1605.6	0.343	298.15	0.0001952	2.3e-06
2162.5	0.419	298.15	0.0001773	2.1e-06
2669.2	0.476	298.15	0.0001638	2e-06
3025.8	0.511	298.15	0.0001555	1.9e-06
3532	0.555	298.15	0.000145	1.7e-06
4146.5	0.601	298.15	0.0001341	1.6e-06
4621.9	0.631	298.15	0.0001269	1.5e-06
657.1	0.135	313.15	0.0002479	3e-06
1103.4	0.21	313.15	0.0002302	2.8e-06
1461.2	0.261	313.15	0.000218	2.6e-06
1819.1	0.308	313.15	0.0002066	2.5e-06
2372.2	0.369	313.15	0.0001919	2.3e-06
2851.2	0.415	313.15	0.0001809	2.2e-06
3436.6	0.464	313.15	0.000169	2e-06
4343.2	0.527	313.15	0.0001536	1.8e-06
4546.5	0.539	313.15	0.0001509	1.8e-06
664.8	0.103	333.15	0.000259	3.1e-06
1073.1	0.157	333.15	0.0002461	3e-06
1710.5	0.23	333.15	0.0002285	2.7e-06
2250.6	0.282	333.15	0.0002157	2.6e-06
2674.1	0.32	333.15	0.0002066	2.5e-06
3128	0.356	333.15	0.0001978	2.4e-06
3541.1	0.385	333.15	0.0001906	2.3e-06
4055	0.418	333.15	0.0001824	2.2e-06
5243.2	0.483	333.15	0.0001665	2e-06

System: carbon dioxide + 1-(methoxymethyl)-1-methylpyrrolidinium bis(fluorosulfonyl)amide; phases: Liquid, Gas
Property: Mole fraction of carbon dioxide (Liquid); method: Volumetric Analysis
Pressure, kPa	Temperature, K	Mole fraction of carbon dioxide	uncertainty
592.4	298.15	0.13	0.004
1052.3	298.15	0.213	0.004
1496.9	298.15	0.282	0.004
1824.7	298.15	0.326	0.004
2530.6	298.15	0.406	0.004
3022.4	298.15	0.454	0.004
3587.3	298.15	0.501	0.004
4115.6	298.15	0.538	0.004
4600.7	298.15	0.569	0.004
696.2	313.15	0.116	0.004
1173.9	313.15	0.183	0.004
1500.7	313.15	0.223	0.004
1939.8	313.15	0.273	0.004
2566.9	313.15	0.334	0.004
3096.9	313.15	0.378	0.004
3529	313.15	0.411	0.004
3965.6	313.15	0.44	0.004
4630	313.15	0.48	0.004
674.6	333.15	0.084	0.004
1089.9	333.15	0.128	0.004
1522.8	333.15	0.171	0.004
1737.7	333.15	0.19	0.004
2395.5	333.15	0.244	0.004
2714.6	333.15	0.269	0.004
3315.3	333.15	0.309	0.004
4107	333.15	0.358	0.004
4917.1	333.15	0.4	0.004

System: carbon dioxide + 1-(methoxymethyl)-1-methylpyrrolidinium bis(fluorosulfonyl)amide; phases: Liquid
Property: Molar volume, m3/mol (Liquid); method: Other PVT measurement
Pressure, kPa	Mole fraction of carbon dioxide	Temperature, K	Molar volume, m3/mol	uncertainty
592.4	0.13	298.15	0.000197	2.4e-06
1052.3	0.213	298.15	0.0001817	2.2e-06
1496.9	0.282	298.15	0.0001691	2e-06
1824.7	0.326	298.15	0.000161	1.9e-06
2530.6	0.406	298.15	0.0001462	1.8e-06
3022.4	0.454	298.15	0.0001375	1.7e-06
3587.3	0.501	298.15	0.0001288	1.5e-06
4115.6	0.538	298.15	0.0001219	1.5e-06
4600.7	0.569	298.15	0.0001164	1.4e-06
696.2	0.116	313.15	0.0002015	2.4e-06
1173.9	0.183	313.15	0.0001891	2.3e-06
1500.7	0.223	313.15	0.0001816	2.2e-06
1939.8	0.273	313.15	0.0001725	2.1e-06
2566.9	0.334	313.15	0.000161	1.9e-06
3096.9	0.378	313.15	0.0001527	1.8e-06
3529	0.411	313.15	0.0001466	1.8e-06
3965.6	0.44	313.15	0.0001411	1.7e-06
4630.9	0.48	313.15	0.0001337	1.6e-06
674.6	0.084	333.15	0.0002096	2.5e-06
1089.9	0.128	333.15	0.0002011	2.4e-06
1522.8	0.171	333.15	0.0001931	2.3e-06
1737.7	0.19	333.15	0.0001894	2.3e-06
2395.5	0.244	333.15	0.0001792	2.2e-06
2714.6	0.269	333.15	0.0001746	2.1e-06
3315.3	0.309	333.15	0.000167	2e-06
4107	0.358	333.15	0.0001579	1.9e-06
4917.1	0.4	333.15	0.0001502	1.8e-06
