Measured thermophysical data. Vapor-liquid equilibrium of difluoromethane +1,1,1,2-tetrafluoroethane systems over a temperature range from 258.15 to 343.15K
Source: Fluid Phase Equilib., 2006, 10.1016/j.fluid.2006.09.017
Compound 1: difluoromethane, CH2F2, InChI=1S/CH2F2/c2-1-3/h1H2, purity 99.9%
Compound 2: 1,1,1,2-tetrafluoroethane, C2H2F4, InChI=1S/C2H2F4/c3-1-2(4,5)6/h1H2, purity 99.9%

System: difluoromethane; phases: Liquid, Gas
Property: Vapor or sublimation pressure, kPa (Liquid); method: EBULLIO:UFactor:8
Temperature, K	Vapor or sublimation pressure, kPa	uncertainty
258.15	488.1	15.4
268.15	690.6	21.7
275.15	866.5	27.2
283.15	1107	34.6
293.15	1475	46
303.15	1928	60.1
313.15	2478	77.1
323.15	3141	97.6
333.15	3933	122.2
343.15	4877	151.4

System: 1,1,1,2-tetrafluoroethane; phases: Liquid, Gas
Property: Vapor or sublimation pressure, kPa (Liquid); method: EBULLIO:UFactor:8
Temperature, K	Vapor or sublimation pressure, kPa	uncertainty
258.15	163.9	5.9
263.15	200.6	6.8
268.15	243.3	7.9
275.15	314.6	10.1
283.15	414.6	13.2
293.15	571.7	18
303.15	770.2	24.2
313.15	1017	31.8
323.15	1318	41.2
333.15	1682	52.4
343.15	2117	65.9

System: difluoromethane + 1,1,1,2-tetrafluoroethane; phases: Liquid, Gas
Property: Vapor or sublimation pressure, kPa (Liquid); method: EBULLIO:UFactor:8
Mole fraction of difluoromethane	Temperature, K	Vapor or sublimation pressure, kPa	uncertainty
0	258.15	163.9	5.9
0	263.15	200.6	6.8
0	268.15	243.3	7.9
0	275.15	314.6	10.1
0	283.15	414.6	13.2
0	293.15	571.7	18
0	303.15	770.2	24.2
0	313.15	1017	31.8
0	323.15	1318	41.2
0	333.15	1682	52.4
0	343.15	2117	65.9
0.1432	275.15	379.7	12.1
0.1627	283.15	526.1	16.7
0.1691	333.15	2035.5	63.5
0.177	343.15	2573.9	80.2
0.18	323.15	1638.5	51.2
0.1982	258.15	278.1	9
0.203	268.15	338.3	10.8
0.2186	283.15	573.2	18.1
0.2322	275.15	445.7	14.2
0.2363	263.15	293.4	9.4
0.2504	313.15	1365.5	42.8
0.2561	323.15	1786.2	55.8
0.2567	333.15	2261.7	70.6
0.2583	343.15	2809.8	87.6
0.2742	313.15	1414.4	44.5
0.2763	293.15	800	25.2
0.2797	303.15	1101.4	34.5
0.2851	258.15	296.6	9.5
0.3067	263.15	317.5	10.2
0.332	283.15	650.3	20.5
0.3377	303.15	1160.5	36.4
0.3431	268.15	409.4	13
0.3589	293.15	872.6	27.4
0.3644	275.15	540.1	17.1
0.3843	343.15	3167.9	98.6
0.3869	263.15	355.2	11.3
0.3875	258.15	322.8	10.3
0.4009	333.15	2613.3	81.4
0.4202	313.15	1616.5	50.5
0.4277	323.15	2130.2	66.4
0.4339	283.15	711.5	22.4
0.4347	303.15	1303.2	40.8
0.4358	293.15	955.3	30
0.4501	275.15	595.7	18.8
0.463	258.15	345.6	11
0.4654	268.15	462.4	14.7
0.4929	263.15	396.4	12.6
0.4983	343.15	3509.3	109.2
0.505	333.15	2854.6	88.9
0.5207	313.15	1769.9	55.2
0.5212	323.15	2311.3	72
0.5328	293.15	1025.7	32.1
0.5329	303.15	1412.3	44.1
0.5567	258.15	367.9	11.7
0.5777	263.15	425.5	13.5
0.5834	275.15	670.5	21.1
0.5838	283.15	823	25.9
0.6096	268.15	522.3	16.5
0.6412	333.15	3159.5	98.4
0.6495	323.15	2496.8	77.8
0.6511	333.15	3191.6	99.4
0.6539	258.15	395.3	12.6
0.6586	313.15	1980.9	61.8
0.6596	293.15	1147.8	35.9
0.6747	303.15	1550.9	48.4
0.6809	268.15	556.6	17.6
0.6898	275.15	717.2	22.6
0.6912	263.15	466.7	14.8
0.6919	323.15	2634.3	82
0.6974	293.15	1194.6	37.4
0.6993	313.15	2025.3	63.1
0.7023	303.15	1578.9	49.3
0.7095	283.15	912.6	28.6
0.7201	268.15	578.6	18.3
0.737	258.15	422.3	13.4
0.7508	263.15	492.7	15.6
0.7616	275.15	745.2	23.4
0.7643	293.15	1271.2	39.8
0.7649	313.15	2148.2	67
0.7652	333.15	3416.4	106.3
0.774	323.15	2727.7	84.9
0.7744	268.15	605.6	19.1
0.7756	303.15	1662.7	51.9
0.7772	283.15	965.7	30.3
0.8114	275.15	771.8	24.3
0.8247	263.15	521.9	16.5
0.8292	333.15	3574.3	111.2
0.831	323.15	2887.8	89.9
0.8343	283.15	994.6	31.2
0.8366	313.15	2246.7	70
0.8402	258.15	445.2	14.1
0.8496	303.15	1751.5	54.6
0.8548	293.15	1352.3	42.3
0.8591	275.15	800.7	25.1
0.8654	268.15	639.7	20.1
0.8729	283.15	1029.8	32.2
0.8741	263.15	538.7	17
0.8909	323.15	2976.2	92.6
0.8931	313.15	2331.1	72.6
0.8943	293.15	1390.5	43.4
0.8948	258.15	463.1	14.7
0.8949	303.15	1791.4	55.9
0.9134	263.15	552.6	17.5
0.9207	275.15	828.5	26
0.9251	268.15	659.5	20.8
0.9436	258.15	473.5	15
0.9446	263.15	562.8	17.8
0.9459	283.15	1072.8	33.6
0.9524	268.15	668.9	21.1
0.9637	293.15	1452.6	45.4
0.9785	323.15	3088.4	96
0.9804	313.15	2448.6	76.2
0.9824	303.15	1890.6	59
1	258.15	488.1	15.4
1	268.15	690.6	21.7
1	275.15	866.5	27.2
1	283.15	1107	34.6
1	293.15	1475	46
1	303.15	1928	60.1
1	313.15	2478	77.1
1	323.15	3141	97.6
1	333.15	3933	122.2
1	343.15	4877	151.4

System: difluoromethane + 1,1,1,2-tetrafluoroethane; phases: Gas, Liquid
Property: Mole fraction of difluoromethane (Gas); method: CHROM:UFactor:24
Mole fraction of difluoromethane	Temperature, K	Mole fraction of difluoromethane	uncertainty
0	258.15	0	0.0001
0	263.15	0	0.0001
0	268.15	0	0.0001
0	275.15	0	0.0001
0	283.15	0	0.0001
0	293.15	0	0.0001
0	303.15	0	0.0001
0	313.15	0	0.0001
0	323.15	0	0.0001
0	333.15	0	0.0001
0	343.15	0	0.0001
0.1432	275.15	0.2605	0.0582
0.1627	283.15	0.3108	0.0694
0.1691	333.15	0.3047	0.0681
0.177	343.15	0.3071	0.0686
0.18	323.15	0.3255	0.0727
0.1982	258.15	0.4021	0.0898
0.203	268.15	0.3941	0.088
0.2186	283.15	0.4133	0.0922
0.2322	275.15	0.4371	0.0976
0.2363	263.15	0.4534	0.1012
0.2504	313.15	0.4543	0.1014
0.2561	323.15	0.5093	0.1095
0.2567	333.15	0.4184	0.0934
0.2583	343.15	0.4342	0.0969
0.2742	313.15	0.4975	0.1111
0.2763	293.15	0.4619	0.1031
0.2797	303.15	0.48	0.1071
0.2851	258.15	0.5452	0.1015
0.3067	263.15	0.5335	0.1041
0.332	283.15	0.554	0.0995
0.3377	303.15	0.5437	0.1018
0.3431	268.15	0.6022	0.0888
0.3589	293.15	0.5556	0.0992
0.3644	275.15	0.6232	0.0841
0.3843	343.15	0.5601	0.0982
0.3869	263.15	0.6368	0.0811
0.3875	258.15	0.6693	0.0738
0.4009	333.15	0.5886	0.0918
0.4202	313.15	0.6604	0.0758
0.4277	323.15	0.6098	0.0871
0.4339	283.15	0.6856	0.0702
0.4347	303.15	0.667	0.0743
0.4358	293.15	0.6742	0.0727
0.4501	275.15	0.7039	0.0661
0.463	258.15	0.7191	0.0627
0.4654	268.15	0.7245	0.0615
0.4929	263.15	0.7423	0.0575
0.4983	343.15	0.6842	0.0705
0.505	333.15	0.6597	0.0759
0.5207	313.15	0.7208	0.0623
0.5212	323.15	0.7111	0.0645
0.5328	293.15	0.7361	0.0589
0.5329	303.15	0.7549	0.0547
0.5567	258.15	0.7723	0.0508
0.5777	263.15	0.7978	0.0451
0.5834	275.15	0.7975	0.0452
0.5838	283.15	0.7885	0.0472
0.6096	268.15	0.8097	0.0425
0.6412	333.15	0.7399	0.0606
0.6495	323.15	0.7288	0.0605
0.6511	333.15	0.8266	0.0425
0.6539	258.15	0.8574	0.0318
0.6586	313.15	0.8322	0.0375
0.6596	293.15	0.822	0.0397
0.6747	303.15	0.8308	0.0378
0.6809	268.15	0.8524	0.033
0.6898	275.15	0.8566	0.032
0.6912	263.15	0.8623	0.0307
0.6919	323.15	0.8312	0.0377
0.6974	293.15	0.8632	0.0306
0.6993	313.15	0.8608	0.0311
0.7023	303.15	0.8613	0.031
0.7095	283.15	0.8534	0.0327
0.7201	268.15	0.8811	0.0266
0.737	258.15	0.899	0.0226
0.7508	263.15	0.9053	0.0212
0.7616	275.15	0.8877	0.0251
0.7643	293.15	0.91	0.0201
0.7649	313.15	0.9047	0.0213
0.7652	333.15	0.8609	0.031
0.774	323.15	0.8759	0.0277
0.7744	268.15	0.9208	0.0177
0.7756	303.15	0.9002	0.0223
0.7772	283.15	0.8951	0.0234
0.8114	275.15	0.9148	0.019
0.8247	263.15	0.9313	0.0153
0.8292	333.15	0.9114	0.0198
0.831	323.15	0.8974	0.0229
0.8343	283.15	0.9154	0.0189
0.8366	313.15	0.9385	0.0137
0.8402	258.15	0.9443	0.0125
0.8496	303.15	0.9356	0.0144
0.8548	293.15	0.9532	0.0105
0.8591	275.15	0.9446	0.0124
0.8654	268.15	0.9488	0.0114
0.8729	283.15	0.9529	0.0105
0.8741	263.15	0.9519	0.0108
0.8909	323.15	0.9506	0.0111
0.8931	313.15	0.9652	0.0078
0.8943	293.15	0.972	0.0063
0.8948	258.15	0.9698	0.0068
0.8949	303.15	0.9565	0.0097
0.9134	263.15	0.964	0.0081
0.9207	275.15	0.9704	0.0066
0.9251	268.15	0.9722	0.0062
0.9436	258.15	0.9835	0.004
0.9446	263.15	0.9749	0.0057
0.9459	283.15	0.9773	0.0051
0.9524	268.15	0.9811	0.0044
0.9637	293.15	0.9929	0.0025
0.9785	323.15	0.9954	0.0023
0.9804	313.15	0.9929	0.0026
0.9824	303.15	0.9913	0.0028
1	258.15	1	0.0001
1	268.15	1	0.0001
1	275.15	1	0.0001
1	283.15	1	0.0001
1	293.15	1	0.0001
1	303.15	1	0.0001
1	313.15	1	0.0001
1	323.15	1	0.0001
1	333.15	1	0.0001
1	343.15	1	0.0001
