Measured thermophysical data. On the behaviour of solutions of xenon in liquid cycloalkanes: Solubility of xenon in cyclopentane
Source: Fluid Phase Equilib., 2011, 10.1016/j.fluid.2011.02.001
Compound 1: xenon, Xe, InChI=1S/Xe, purity 99.99%
Compound 2: cyclopentane, C5H10, InChI=1S/C5H10/c1-2-4-5-3-1/h1-5H2, purity 99%

System: cyclopentane + xenon; phases: Liquid, Gas
Property: Vapor or sublimation pressure, kPa (Liquid); method: Closed cell (Static) method
Mole fraction of xenon	Temperature, K	Vapor or sublimation pressure, kPa	uncertainty
0.01491	286.23	85.7	0.42
0.0158	313.66	166.6	0.7
0.01687	304.46	141.2	0.6
0.01733	269.43	64.55	0.32
0.01797	265.64	60.73	0.27
0.01814	295.21	120.5	0.5
0.01919	258.69	54.49	0.25
0.01959	286.23	104.1	0.5
0.02129	277.18	90.43	0.38
0.03478	254.6	84.69	0.81

System: cyclopentane + xenon; phases: Gas, Liquid
Property: Mole fraction of xenon (Gas); method: molar balance
Mole fraction of xenon	Temperature, K	Mole fraction of xenon	uncertainty
0.01491	286.23	0.7033	0.028
0.0158	313.66	0.556	0.0281
0.01687	304.46	0.6251	0.028
0.01733	269.43	0.8201	0.028
0.01797	265.64	0.8424	0.028
0.01814	295.21	0.6939	0.028
0.01919	258.69	0.8789	0.028
0.01959	286.23	0.7568	0.028
0.02129	277.18	0.8141	0.028
0.03478	254.6	0.939	0.028
