Measured thermophysical data. Liquid-liquid equilibria for the ternary system containing 1-Butanol + methoxy(methoxymethoxy)methane + water at temperatures of 303.15, 323.15 and 343.15 K
Source: Fluid Phase Equilib., 2016, 10.1016/j.fluid.2015.11.009
Compound 1: butan-1-ol, C4H10O, InChI=1S/C4H10O/c1-2-3-4-5/h5H,2-4H2,1H3, purity 99.85%
Compound 2: water, H2O, InChI=1S/H2O/h1H2, purity 99.99%
Compound 3: 2,4,6-trioxaheptane, C4H10O3, InChI=1S/C4H10O3/c1-5-3-7-4-6-2/h3-4H2,1-2H3, purity 99.98%

System: butan-1-ol; phases: Liquid
Property: Mass density, kg/m3 (Liquid); method: Pycnometric method
Temperature, K	Pressure, kPa	Mass density, kg/m3	uncertainty
298.15	101.325	805.2	0.3

System: butan-1-ol; phases: Liquid
Property: Refractive index (Na D-line) (Liquid); method: Standard Abbe refractometry
Temperature, K	Pressure, kPa	Refractive index (Na D-line)	uncertainty
298.15	101.325	1.3967	0.0004

System: water; phases: Liquid
Property: Mass density, kg/m3 (Liquid); method: Pycnometric method
Temperature, K	Pressure, kPa	Mass density, kg/m3	uncertainty
298.15	101.325	997	0.3

System: water; phases: Liquid
Property: Refractive index (Na D-line) (Liquid); method: Standard Abbe refractometry
Temperature, K	Pressure, kPa	Refractive index (Na D-line)	uncertainty
298.15	101.325	1.3325	0.0004

System: 2,4,6-trioxaheptane; phases: Liquid
Property: Mass density, kg/m3 (Liquid); method: Pycnometric method
Temperature, K	Pressure, kPa	Mass density, kg/m3	uncertainty
298.15	101.325	957.8	0.3

System: 2,4,6-trioxaheptane; phases: Liquid
Property: Refractive index (Na D-line) (Liquid); method: Standard Abbe refractometry
Temperature, K	Pressure, kPa	Refractive index (Na D-line)	uncertainty
298.15	101.325	1.3789	0.0004

System: butan-1-ol + 2,4,6-trioxaheptane + water; phases: Liquid mixture 2, Liquid mixture 1
Fixed: Pressure, kPa = 101
Property: Mole fraction of 2,4,6-trioxaheptane (Liquid mixture 2); method: Chromatography
Property: Mole fraction of butan-1-ol (Liquid mixture 1); method: Chromatography
Property: Mole fraction of 2,4,6-trioxaheptane (Liquid mixture 1); method: Chromatography
Temperature, K	Mole fraction of butan-1-ol	Mole fraction of 2,4,6-trioxaheptane	uncertainty	Mole fraction of butan-1-ol	uncertainty	Mole fraction of 2,4,6-trioxaheptane	uncertainty
303.15	0.6927	0.0661	0.0026	0.069	0.0024	0.022	
303.15	0.6399	0.1073	0.0026	0.0737	0.0022	0.0301	
303.15	0.573	0.1589	0.0027	0.0814	0.0022	0.0563	
303.15	0.4536	0.24	0.0029	0.0935	0.0022	0.1031	
303.15	0.3392	0.2943	0.003	0.1056	0.0022	0.1515	
303.15	0.2929	0.3137	0.003	0.1226	0.0026	0.1886	
303.15	0.2614	0.306	0.0037	0.1446	0.0034	0.2061	
303.15	0.0733	0.7804	0.0056	0.0296	0.0054	0.3407	
303.15	0.1116	0.6858	0.0091	0.048	0.0054	0.348	
303.15	0.1479	0.4593	0.006	0.1075	0.018	0.3494	
323.15	0.6213	0.1141	0.0025	0.0843	0.0021	0.0351	
323.15	0.5558	0.1582	0.0026	0.0825	0.0021	0.0488	
323.15	0.4322	0.2328	0.0029	0.0892	0.0021	0.0917	
323.15	0.3188	0.3075	0.0032	0.1018	0.0022	0.1513	
323.15	0.252	0.3445	0.0037	0.1174	0.0022	0.2086	
323.15	0.0711	0.7434	0.0059	0.0292	0.0058	0.3457	
323.15	0.106	0.6473	0.008	0.0478	0.0055	0.3446	
323.15	0.1491	0.4616	0.005	0.0973	0.0066	0.3247	
343.15	0.6823	0.0399	0.0024	0.0726	0.0022	0.0094	
343.15	0.5204	0.1357	0.0026	0.0829	0.0021	0.0435	
343.15	0.4111	0.2112	0.0029	0.0872	0.0022	0.0799	
343.15	0.3033	0.2949	0.0031	0.1073	0.0022	0.1389	
343.15	0.2256	0.316	0.0035	0.1326	0.0024	0.2167	
343.15	0.0641	0.706	0.0094	0.0279	0.0113	0.3477	
343.15	0.0928	0.578	0.0098	0.0388	0.0077	0.3735	
343.15	0.12	0.4529	0.0053	0.0914	0.0022	0.3591	
