Measured thermophysical data. Measurements and correlation at different temperatures of liquid-liquid equilibria of 2-butanol or 2-methyl-2-butanol + 1,2,3-propanetriol + water ternary systems
Source: Fluid Phase Equilib., 2014, 10.1016/j.fluid.2014.06.015
Compound 1: glycerol, C3H8O3, InChI=1S/C3H8O3/c4-1-3(6)2-5/h3-6H,1-2H2
Compound 2: butan-2-ol, C4H10O, InChI=1S/C4H10O/c1-3-4(2)5/h4-5H,3H2,1-2H3
Compound 3: 2-methylbutan-2-ol, C5H12O, InChI=1S/C5H12O/c1-4-5(2,3)6/h6H,4H2,1-3H3
Compound 4: water, H2O, InChI=1S/H2O/h1H2

System: glycerol; phases: Liquid
Property: Mass density, kg/m3 (Liquid); method: Vibrating tube method
Temperature, K	Pressure, kPa	Mass density, kg/m3	uncertainty
298.15	101.325	1258.52	0.22

System: glycerol; phases: Liquid
Property: Refractive index (Na D-line) (Liquid); method: Standard Abbe refractometry
Temperature, K	Pressure, kPa	Refractive index (Na D-line)	uncertainty
298.15	101.325	1.4726	0.0005

System: butan-2-ol; phases: Liquid
Property: Mass density, kg/m3 (Liquid); method: Vibrating tube method
Temperature, K	Pressure, kPa	Mass density, kg/m3	uncertainty
298.15	101.325	802.35	0.13

System: butan-2-ol; phases: Liquid
Property: Refractive index (Na D-line) (Liquid); method: Standard Abbe refractometry
Temperature, K	Pressure, kPa	Refractive index (Na D-line)	uncertainty
298.15	101.325	1.3936	0.0005

System: 2-methylbutan-2-ol; phases: Liquid
Property: Mass density, kg/m3 (Liquid); method: Vibrating tube method
Temperature, K	Pressure, kPa	Mass density, kg/m3	uncertainty
298.15	101.325	804.21	0.24

System: 2-methylbutan-2-ol; phases: Liquid
Property: Refractive index (Na D-line) (Liquid); method: Standard Abbe refractometry
Temperature, K	Pressure, kPa	Refractive index (Na D-line)	uncertainty
298.15	101.325	1.4026	0.0005

System: water; phases: Liquid
Property: Mass density, kg/m3 (Liquid); method: Vibrating tube method
Temperature, K	Pressure, kPa	Mass density, kg/m3	uncertainty
298.15	101.325	997.06	0.23

System: water; phases: Liquid
Property: Refractive index (Na D-line) (Liquid); method: Standard Abbe refractometry
Temperature, K	Pressure, kPa	Refractive index (Na D-line)	uncertainty
298.15	101.325	1.3325	0.0005

System: glycerol + butan-2-ol + water; phases: Liquid mixture 1, Liquid mixture 2
Fixed: Pressure, kPa = 101
Property: Mole fraction of butan-2-ol (Liquid mixture 1); method: Chromatography
Property: Mole fraction of butan-2-ol (Liquid mixture 2); method: Chromatography
Property: Mole fraction of glycerol (Liquid mixture 2); method: Chromatography
Temperature, K	Mole fraction of glycerol	Mole fraction of butan-2-ol	uncertainty	Mole fraction of butan-2-ol	uncertainty	Mole fraction of glycerol	uncertainty
283.2	0	0.273	0.003	0.076	0.002	0	
323.2	0.034	0.324	0.004	0.056	0.002	0.055	
323.2	0.041	0.315	0.004	0.062	0.002	0.07	
283.2	0.151	0.399	0.004	0.106	0.005	0.265	
323.2	0.051	0.305	0.004	0.067	0.002	0.079	
323.2	0.061	0.293	0.004	0.072	0.002	0.093	
283.2	0.021	0.333	0.005	0.064	0.002	0.047	
283.2	0.04	0.356	0.004	0.063	0.002	0.072	
283.2	0.053	0.377	0.004	0.063	0.002	0.096	
283.2	0.069	0.389	0.004	0.064	0.002	0.121	
283.2	0.079	0.405	0.004	0.07	0.002	0.145	
303.2	0.076	0.341	0.003	0.073	0.002	0.121	
283.2	0.092	0.406	0.004	0.072	0.002	0.164	
283.2	0.114	0.411	0.004	0.086	0.002	0.213	
283.2	0.189	0.375	0.004	0.127	0.004	0.276	
283.2	0.232	0.329	0.004	0.172	0.004	0.306	
303.2	0	0.332	0.003	0.048	0.002	0	
303.2	0.014	0.338	0.003	0.049	0.002	0.029	
303.2	0.026	0.341	0.003	0.053	0.002	0.047	
303.2	0.04	0.345	0.003	0.058	0.002	0.074	
303.2	0.056	0.346	0.003	0.064	0.002	0.098	
303.2	0.098	0.325	0.004	0.088	0.002	0.148	
283.2	0.013	0.309	0.006	0.065	0.002	0.034	
303.2	0.114	0.295	0.005	0.099	0.003	0.163	
323.2	0	0.351	0.003	0.038	0.002	0	
323.2	0.007	0.341	0.004	0.042	0.002	0.013	
323.2	0.013	0.338	0.003	0.045	0.002	0.025	
323.2	0.025	0.331	0.003	0.05	0.002	0.041	

System: glycerol + 2-methylbutan-2-ol + water; phases: Liquid mixture 1, Liquid mixture 2
Fixed: Pressure, kPa = 101
Property: Mole fraction of 2-methylbutan-2-ol (Liquid mixture 1); method: Chromatography
Property: Mole fraction of 2-methylbutan-2-ol (Liquid mixture 2); method: Chromatography
Property: Mole fraction of glycerol (Liquid mixture 2); method: Chromatography
Temperature, K	Mole fraction of glycerol	Mole fraction of 2-methylbutan-2-ol	uncertainty	Mole fraction of 2-methylbutan-2-ol	uncertainty	Mole fraction of glycerol	uncertainty
283.2	0	0.383	0.003	0.021	0.002	0	
283.2	0.197	0.433	0.004	0.065	0.002	0.386	
283.2	0.287	0.356	0.003	0.116	0.002	0.436	
323.2	0	0.451	0.004	0.018	0.002	0	
323.2	0.021	0.464	0.004	0.018	0.002	0.038	
323.2	0.038	0.465	0.004	0.019	0.002	0.074	
323.2	0.051	0.468	0.004	0.021	0.002	0.102	
323.2	0.069	0.471	0.004	0.024	0.002	0.136	
323.2	0.119	0.461	0.004	0.035	0.002	0.244	
323.2	0.091	0.47	0.004	0.029	0.002	0.186	
323.2	0.164	0.438	0.004	0.055	0.002	0.331	
283.2	0.029	0.429	0.005	0.022	0.002	0.041	
323.2	0.22	0.399	0.004	0.074	0.002	0.379	
283.2	0.041	0.447	0.004	0.023	0.002	0.072	
283.2	0.051	0.454	0.004	0.024	0.002	0.097	
283.2	0.068	0.463	0.004	0.026	0.002	0.133	
283.2	0.106	0.467	0.004	0.034	0.002	0.243	
283.2	0.089	0.469	0.004	0.029	0.002	0.18	
283.2	0.142	0.465	0.004	0.044	0.002	0.304	
283.2	0.154	0.461	0.004	0.048	0.002	0.325	
