Measured thermophysical data. Liquid + liquid equilibria for the quaternary systems of (water + acetic acid + mixed solvent) at 298.2 K and atmospheric pressure
Source: Fluid Phase Equilib., 2010, 10.1016/j.fluid.2010.08.020
Compound 1: water, H2O, InChI=1S/H2O/h1H2
Compound 2: dipropyl ether, C6H14O, InChI=1S/C6H14O/c1-3-5-7-6-4-2/h3-6H2,1-2H3, purity 99%
Compound 3: diisopropyl ether, C6H14O, InChI=1S/C6H14O/c1-5(2)7-6(3)4/h5-6H,1-4H3, purity 99%

System: water + dipropyl ether + diisopropyl ether; phases: Liquid mixture 1, Liquid mixture 2
Fixed: Temperature, K = 298.2
Fixed: Pressure, kPa = 101
Property: Mass fraction of diisopropyl ether (Liquid mixture 1); method: Titration method
Mass fraction of water	Mass fraction of diisopropyl ether	uncertainty
0.9955	0.004	0.0005
0.0011	0.896	0.0229
0.9981	0.0013	0.0006
0.0046	0.6978	0.0462
0.9939	0.003	0.0005
0.0059	0.4951	0.0251
0.9983	0.0005	0.0005
0.002	0.3014	0.0617
0.9979	0.0002	0.0002
0.0017	0.0988	0.0827
