Measured thermophysical data. Experimental investigation of the vapour-liquid equilibrium of binary and ternary mixtures containing dibutyl ether (DBE), cyclohexane and toluene at 313.15 K
Source: Fluid Phase Equilib., 2006, 10.1016/j.fluid.2005.11.026
Compound 1: dibutyl ether, C8H18O, InChI=1S/C8H18O/c1-3-5-7-9-8-6-4-2/h3-8H2,1-2H3
Compound 2: cyclohexane, C6H12, InChI=1S/C6H12/c1-2-4-6-5-3-1/h1-6H2
Compound 3: toluene, C7H8, InChI=1S/C7H8/c1-7-5-3-2-4-6-7/h2-6H,1H3

System: dibutyl ether; phases: Liquid, Gas
Fixed: Temperature, K = 313.15
Property: Vapor or sublimation pressure, kPa (Liquid); method: Closed cell (Static) method
Vapor or sublimation pressure, kPa	uncertainty
2.062	0.022
2.079	0.023
2.075	0.023

System: cyclohexane; phases: Liquid, Gas
Fixed: Temperature, K = 313.15
Property: Vapor or sublimation pressure, kPa (Liquid); method: Closed cell (Static) method
Vapor or sublimation pressure, kPa	uncertainty
24.618	0.096
24.619	0.096
24.623	0.096

System: toluene; phases: Liquid, Gas
Fixed: Temperature, K = 313.15
Property: Vapor or sublimation pressure, kPa (Liquid); method: Closed cell (Static) method
Vapor or sublimation pressure, kPa	uncertainty
7.881	0.041
7.888	0.041
7.889	0.041

System: toluene + dibutyl ether; phases: Liquid, Gas
Fixed: Temperature, K = 313.15
Property: Vapor or sublimation pressure, kPa (Liquid); method: Closed cell (Static) method
Mole fraction of dibutyl ether	Vapor or sublimation pressure, kPa	uncertainty
0	7.881	0.041
0.0457	7.622	0.04
0.0997	7.308	0.039
0.1493	7.029	0.038
0.1995	6.75	0.038
0.2521	6.45	0.037
0.2995	6.171	0.036
0.3031	6.175	0.051
0.3518	5.873	0.035
0.3975	5.609	0.034
0.398	5.614	0.034
0.4484	5.316	0.033
0.449	5.32	0.033
0.4991	5.027	0.032
0.503	5.007	0.032
0.5497	4.735	0.031
0.5506	4.728	0.031
0.6018	4.437	0.03
0.6021	4.43	0.03
0.6445	4.2	0.042
0.6494	4.156	0.029
0.6991	3.861	0.028
0.7491	3.57	0.028
0.8001	3.266	0.027
0.8497	2.969	0.026
0.8985	2.677	0.025
0.9524	2.355	0.024
1	2.062	0.022

System: cyclohexane + dibutyl ether; phases: Liquid, Gas
Fixed: Temperature, K = 313.15
Property: Vapor or sublimation pressure, kPa (Liquid); method: Closed cell (Static) method
Mole fraction of dibutyl ether	Vapor or sublimation pressure, kPa	uncertainty
0	24.618	0.096
0.0464	23.565	0.095
0.1048	22.243	0.091
0.1511	21.21	0.087
0.1998	20.118	0.084
0.2524	18.932	0.08
0.3011	17.832	0.077
0.3044	17.76	0.077
0.3502	16.726	0.073
0.3973	15.649	0.07
0.4003	15.578	0.07
0.4479	14.494	0.067
0.4484	14.487	0.066
0.4985	13.351	0.064
0.5006	13.298	0.064
0.547	12.249	0.06
0.5478	12.232	0.06
0.598	11.093	0.056
0.5991	11.069	0.056
0.6534	9.848	0.052
0.6988	8.812	0.049
0.756	7.518	0.046
0.7999	6.525	0.043
0.8381	5.68	0.041
0.8539	5.308	0.04
0.8964	4.352	0.037
0.955	3.055	0.034
1	2.062	0.022

System: toluene + cyclohexane; phases: Liquid, Gas
Fixed: Temperature, K = 313.15
Property: Vapor or sublimation pressure, kPa (Liquid); method: Closed cell (Static) method
Mole fraction of toluene	Vapor or sublimation pressure, kPa	uncertainty
0.3183	20.531	0.083
0.6735	15.115	0.067

System: toluene + cyclohexane + dibutyl ether; phases: Liquid, Gas
Fixed: Temperature, K = 313.15
Property: Vapor or sublimation pressure, kPa (Liquid); method: Closed cell (Static) method
Mole fraction of dibutyl ether	Mole fraction of toluene	Vapor or sublimation pressure, kPa	uncertainty
0	0	24.619	0.096
0	0.3183	20.531	0.083
0	0.6735	15.115	0.067
0	1	7.888	0.041
0.0001	0	24.623	0.096
0.0001	1	7.889	0.041
0.027	0.3097	20.034	0.083
0.0282	0.6545	14.706	0.066
0.0508	0.3021	19.592	0.087
0.0544	0.6368	14.343	0.069
0.0989	0.6069	13.684	0.068
0.0993	0.2867	18.692	0.081
0.1451	0.2721	17.836	0.078
0.1496	0.5726	12.985	0.066
0.152	0.5006	14.159	0.069
0.1547	0.3557	16.406	0.074
0.1652	0.3798	15.796	0.073
0.1673	0.4503	14.604	0.069
0.1794	0.4125	14.939	0.07
0.1836	0.3967	15.063	0.071
0.1953	0.449	13.95	0.068
0.1975	0.351	15.418	0.072
0.1998	0.2546	16.8	0.076
0.2045	0.5356	12.214	0.064
0.2093	0.4813	13.049	0.066
0.2127	0.3013	15.797	0.073
0.2244	0.5158	12.034	0.063
0.2291	0.2474	16.196	0.074
0.2403	0.5526	10.933	0.061
0.243	0.2016	16.516	0.074
0.25	0.2387	15.846	0.072
0.2524	0.5034	11.543	0.062
0.2584	0.1512	16.851	0.075
0.2594	0.5963	9.576	0.057
0.2722	0.6258	8.623	0.055
0.2762	0.0928	17.218	0.076
0.2855	0.6565	7.605	0.054
0.2895	0.0488	17.486	0.077
0.2932	0.6741	6.989	0.052
0.2957	0.0284	17.599	0.077
0.3	0.2227	14.897	0.07
0.3007	0.4708	10.875	0.06
0.3031	0.6969	6.175	0.051
0.3044	0	17.76	0.077
0.3176	0.1752	15.181	0.07
0.3494	0.1927	14.183	0.067
0.3494	0.207	13.957	0.067
0.3522	0.4361	10.174	0.057
0.3821	0.5441	7.285	0.051
0.3835	0.2115	13.096	0.065
0.4006	0.4035	9.522	0.056
0.4015	0.1904	12.972	0.064
0.4177	0.2303	11.994	0.062
0.4223	0.496	7.181	0.051
0.4461	0.246	11.058	0.06
0.45	0.175	12.056	0.061
0.4502	0.3701	8.863	0.054
0.4653	0.4448	7.056	0.05
0.4826	0.2661	9.846	0.056
0.501	0.3359	8.19	0.052
0.5019	0.1584	11.073	0.059
0.5108	0.3905	6.914	0.049
0.512	0.2824	8.84	0.053
0.5474	0.3018	7.626	0.051
0.553	0.3401	6.776	0.049
0.577	0.3182	6.591	0.048
0.5988	0.2855	6.624	0.048
0.6045	0.3334	5.62	0.046
0.6191	0.3414	5.105	0.044
0.6445	0.3555	4.2	0.042
0.6461	0.2291	6.453	0.048
0.6916	0.1748	6.282	0.046
0.7363	0.1214	6.102	0.046
0.7778	0.0719	5.937	0.044
0.7943	0.0522	5.869	0.044
0.8381	0	5.68	0.041
1	0	2.079	0.023
1	0	2.075	0.023
