Measured thermophysical data. Measurement and correlation of vapor liquid equilibria for ethanol + ethyl laurate and ethanol + ethyl myristate systems near critical temperature of ethanol
Source: Fluid Phase Equilib., 2008, 10.1016/j.fluid.2007.11.014
Compound 1: ethanol, C2H6O, InChI=1S/C2H6O/c1-2-3/h3H,2H2,1H3
Compound 2: ethyl dodecanoate, C14H28O2, InChI=1S/C14H28O2/c1-3-5-6-7-8-9-10-11-12-13-14(15)16-4-2/h3-13H2,1-2H3
Compound 3: ethyl tetradecanoate, C16H32O2, InChI=1S/C16H32O2/c1-3-5-6-7-8-9-10-11-12-13-14-15-16(17)18-4-2/h3-15H2,1-2H3

System: ethanol + ethyl dodecanoate; phases: Liquid, Gas
Property: Vapor or sublimation pressure, kPa (Liquid); method: CCELL:UFactor:4
Mole fraction of ethanol	Temperature, K	Vapor or sublimation pressure, kPa	uncertainty
0.439	543	2510	70
0.467	523	2230	50
0.52	543	3080	60
0.589	523	2940	60
0.613	543	3850	70
0.655	493	2270	60
0.677	523	3600	80
0.697	543	4600	80
0.714	493	2570	70
0.761	523	4240	80
0.767	543	5310	90
0.776	493	2860	70
0.827	493	3130	80
0.833	543	6090	100
0.834	523	4840	90
0.861	523	5030	100
0.864	543	6480	110
0.893	493	3430	90
0.897	523	5420	100
0.914	543	7090	120
0.937	493	3710	90
0.941	523	5910	110

System: ethanol + ethyl dodecanoate; phases: Gas, Liquid
Property: Mole fraction of ethanol (Gas); method: Chromatography
Mole fraction of ethanol	Temperature, K	Mole fraction of ethanol	uncertainty
0.439	543	0.9952	0.001
0.467	523	0.9971	0.001
0.52	543	0.9958	0.001
0.589	523	0.997	0.001
0.613	543	0.9961	0.001
0.655	493	0.9987	0.001
0.677	523	0.9979	0.001
0.697	543	0.9952	0.001
0.714	493	0.999	0.001
0.761	523	0.9981	0.001
0.767	543	0.9945	0.001
0.776	493	0.999	0.001
0.827	493	0.9996	0.0004
0.833	543	0.9918	0.0011
0.834	523	0.9983	0.001
0.861	523	0.9977	0.001
0.864	543	0.9877	0.0013
0.893	493	0.9993	0.0007
0.897	523	0.9978	0.0012
0.914	543	0.9657	0.0019
0.937	493	0.9995	0.0005
0.941	523	0.9988	0.0012

System: ethanol + ethyl tetradecanoate; phases: Liquid, Gas
Property: Vapor or sublimation pressure, kPa (Liquid); method: CCELL:UFactor:4
Mole fraction of ethanol	Temperature, K	Vapor or sublimation pressure, kPa	uncertainty
0.452	543	2570	60
0.483	523	2260	70
0.552	543	3310	70
0.583	523	2920	70
0.608	493	2110	80
0.638	543	4030	70
0.675	493	2410	60
0.678	523	3600	70
0.715	543	4720	80
0.725	493	2660	70
0.77	493	2870	80
0.77	523	4320	80
0.777	543	5400	90
0.834	543	6100	110
0.842	493	3280	90
0.846	523	5000	90
0.891	543	6930	120
0.919	523	5710	100
0.928	493	3720	90

System: ethanol + ethyl tetradecanoate; phases: Gas, Liquid
Property: Mole fraction of ethanol (Gas); method: Chromatography
Mole fraction of ethanol	Temperature, K	Mole fraction of ethanol	uncertainty
0.452	543	0.9978	0.001
0.483	523	0.999	0.001
0.552	543	0.9982	0.001
0.583	523	0.9988	0.001
0.608	493	0.999	0.001
0.638	543	0.9988	0.001
0.675	493	0.999	0.001
0.678	523	0.9989	0.001
0.715	543	0.9992	0.0008
0.725	493	0.9991	0.0009
0.77	493	0.9993	0.0007
0.77	523	0.9991	0.0009
0.777	543	0.9993	0.0007
0.834	543	0.9994	0.0006
0.842	493	0.9994	0.0006
0.846	523	0.9994	0.0006
0.891	543	0.9858	0.0014
0.919	523	0.9998	0.0002
0.928	493	0.9995	0.0005
