Measured thermophysical data. Liquid liquid equilibria of the ternary system water + acetic acid + dimethyl adipate
Source: Fluid Phase Equilib., 2005, 10.1016/j.fluid.2004.11.025
Compound 1: water, H2O, InChI=1S/H2O/h1H2
Compound 2: acetic acid, C2H4O2, InChI=1S/C2H4O2/c1-2(3)4/h1H3,(H,3,4), purity 99.8%
Compound 3: dimethyl 1,6-hexanedioate, C8H14O4, InChI=1S/C8H14O4/c1-11-7(9)5-3-4-6-8(10)12-2/h3-6H2,1-2H3, purity 99%

System: water; phases: Liquid
Property: Refractive index (Na D-line) (Liquid); method: Standard Abbe refractometry
Temperature, K	Pressure, kPa	Refractive index (Na D-line)	uncertainty
298.15	101.325	1.3324	0.0007

System: acetic acid; phases: Liquid, Gas
Property: Normal boiling temperature, K (Liquid); method: Fischer boiling point apparatus
Normal boiling temperature, K	uncertainty
391.2	0.2

System: acetic acid; phases: Liquid
Property: Refractive index (Na D-line) (Liquid); method: Standard Abbe refractometry
Temperature, K	Pressure, kPa	Refractive index (Na D-line)	uncertainty
298.15	101.325	1.3713	0.0007

System: acetic acid; phases: Liquid
Property: Mass density, kg/m3 (Liquid); method: VIBTUB:UFactor:4
Temperature, K	Pressure, kPa	Mass density, kg/m3	uncertainty
293.15	101.325	1049.42	0.29

System: dimethyl 1,6-hexanedioate; phases: Liquid, Gas
Property: Normal boiling temperature, K (Liquid); method: Fischer boiling point apparatus
Normal boiling temperature, K	uncertainty
498.2	0.2

System: dimethyl 1,6-hexanedioate; phases: Liquid
Property: Refractive index (Na D-line) (Liquid); method: Standard Abbe refractometry
Temperature, K	Pressure, kPa	Refractive index (Na D-line)	uncertainty
298.15	101.325	1.4215	0.0012

System: dimethyl 1,6-hexanedioate; phases: Liquid
Property: Mass density, kg/m3 (Liquid); method: VIBTUB:UFactor:4
Temperature, K	Pressure, kPa	Mass density, kg/m3	uncertainty
293.15	101.325	1061.9	0.61

System: dimethyl 1,6-hexanedioate + water; phases: Liquid mixture 1, Liquid mixture 2
Fixed: Pressure, kPa = 101.3
Property: Mole fraction of dimethyl 1,6-hexanedioate (Liquid mixture 1); method: CHROM:UFactor:8
Temperature, K	Mole fraction of dimethyl 1,6-hexanedioate	uncertainty
298.15	0.0031	0.00025
308.15	0.003	0.00024
318.15	0.0028	0.00022

System: dimethyl 1,6-hexanedioate + water; phases: Liquid mixture 2, Liquid mixture 1
Fixed: Pressure, kPa = 101.3
Property: Mole fraction of water (Liquid mixture 2); method: CHROM:UFactor:8
Temperature, K	Mole fraction of water	uncertainty
298.15	0.2117	0.0169
308.15	0.2547	0.0204
318.15	0.3097	0.0248

System: acetic acid + dimethyl 1,6-hexanedioate + water; phases: Liquid mixture 1, Liquid mixture 2
Fixed: Pressure, kPa = 101.3
Property: Mole fraction of acetic acid (Liquid mixture 1); method: CHROM:UFactor:8
Property: Mole fraction of acetic acid (Liquid mixture 2); method: CHROM:UFactor:8
Property: Mole fraction of water (Liquid mixture 2); method: CHROM:UFactor:8
Temperature, K	Mole fraction of water	Mole fraction of acetic acid	uncertainty	Mole fraction of acetic acid	uncertainty	Mole fraction of water	uncertainty
298.15	0.9807	0.016	0.0013	0.0647	0.0052	0.3007	
298.15	0.964	0.0317	0.0025	0.1161	0.0093	0.3814	
298.15	0.9434	0.0494	0.004	0.1545	0.0124	0.4602	
298.15	0.9279	0.0624	0.005	0.1782	0.0143	0.5331	
298.15	0.8911	0.0884	0.0071	0.1822	0.0146	0.6249	
308.15	0.9843	0.0123	0.001	0.0622	0.005	0.3407	
308.15	0.9714	0.0246	0.002	0.1127	0.009	0.3956	
308.15	0.9556	0.039	0.0031	0.1487	0.0119	0.4763	
308.15	0.9372	0.0554	0.0044	0.1644	0.0132	0.5375	
308.15	0.9102	0.0763	0.0061	0.1789	0.0143	0.6005	
318.15	0.9715	0.0239	0.0019	0.0723	0.0058	0.3497	
318.15	0.9594	0.0355	0.0028	0.1108	0.0089	0.3888	
318.15	0.9415	0.0512	0.0041	0.1482	0.0119	0.4617	
318.15	0.924	0.0655	0.0052	0.173	0.0138	0.5409	
318.15	0.8783	0.0956	0.0076	0.1811	0.0145	0.6168	

System: acetic acid + dimethyl 1,6-hexanedioate + water; phases: Liquid mixture 2, Liquid mixture 1
Fixed: Pressure, kPa = 101.3
Property: Mole fraction of acetic acid (Liquid mixture 2); method: CHROM:UFactor:8
Temperature, K	Mole fraction of water	Mole fraction of acetic acid	uncertainty
298.15	0.2117	0	0.0001
298.15	0.3804	0.1144	0.0092
298.15	0.4386	0.1469	0.0118
298.15	0.4971	0.1622	0.013
298.15	0.583	0.1815	0.0145
298.15	0.6997	0.1697	0.0136
298.15	0.7837	0.1424	0.0114
298.15	0.862	0.1033	0.0083
298.15	0.9198	0.0693	0.0055
298.15	0.9544	0.0393	0.0031
298.15	0.9809	0.0156	0.0012
298.15	0.9969	0	0.0001
308.15	0.2547	0	0.0001
308.15	0.3719	0.0935	0.0075
308.15	0.4717	0.1446	0.0116
308.15	0.5207	0.1699	0.0136
308.15	0.5998	0.1796	0.0144
308.15	0.7098	0.164	0.0131
308.15	0.7926	0.1373	0.011
308.15	0.8431	0.1172	0.0094
308.15	0.8977	0.0853	0.0068
308.15	0.9382	0.0539	0.0043
308.15	0.9772	0.0191	0.0015
308.15	0.997	0	0.0001
318.15	0.3097	0	0.0001
318.15	0.4123	0.098	0.0078
318.15	0.4962	0.1389	0.0111
318.15	0.5072	0.1685	0.0135
318.15	0.6149	0.171	0.0137
318.15	0.718	0.1578	0.0126
318.15	0.8052	0.1298	0.0104
318.15	0.8501	0.1117	0.0089
318.15	0.9025	0.0788	0.0063
318.15	0.9378	0.0539	0.0043
318.15	0.9706	0.0253	0.002
318.15	0.9972	0	0.0001
