Measured thermophysical data. Separation of 2-phenylethanol (PEA) from water using ionic liquids
Source: Fluid Phase Equilib., 2016, 10.1016/j.fluid.2016.04.022
Compound 1: 2-phenylethanol, C8H10O, InChI=1S/C8H10O/c9-7-6-8-4-2-1-3-5-8/h1-5,9H,6-7H2, purity 99%
Compound 2: water, H2O, InChI=1S/H2O/h1H2, purity 99.8%
Compound 3: N,N-diethyl-2-methoxy-N-methylethan-1-aminium bis((trifluoromethyl)sulfonyl)amide, C10H20F6N2O5S2, InChI=1S/C8H20NO.C2F6NO4S2/c1-5-9(3,6-2)7-8-10-4;3-1(4,5)14(10,11)9-15(12,13)2(6,7)8/h5-8H2,1-4H3;/q+1;-1, purity 99%
Compound 4: methyltrioctylammonium 1,1,1-trifluoro-N-[(trifluoromethyl)sulfonyl]methanesulfonamide, C27H54F6N2O4S2, InChI=1S/C25H54N.C2F6NO4S2/c1-5-8-11-14-17-20-23-26(4,24-21-18-15-12-9-6-2)25-22-19-16-13-10-7-3;3-1(4,5)14(10,11)9-15(12,13)2(6,7)8/h5-25H2,1-4H3;/q+1;-1, purity 99%
Compound 5: triethyloctylammonium bis[(trifluoromethyl)sulfonyl]imide, C16H32F6N2O4S2, InChI=1S/C14H32N.C2F6NO4S2/c1-5-9-10-11-12-13-14-15(6-2,7-3)8-4;3-1(4,5)14(10,11)9-15(12,13)2(6,7)8/h5-14H2,1-4H3;/q+1;-1, purity 99%
Compound 6: butyltrimethylammonium bis(trifluoromethylsulfonyl)imide, C9H18F6N2O4S2, InChI=1S/C7H18N.C2F6NO4S2/c1-5-6-7-8(2,3)4;3-1(4,5)14(10,11)9-15(12,13)2(6,7)8/h5-7H2,1-4H3;/q+1;-1, purity 99%
Compound 7: choline bis(trifluoromethylsulfonyl)imide, C7H14F6N2O5S2, InChI=1S/C5H14NO.C2F6NO4S2/c1-6(2,3)4-5-7;3-1(4,5)14(10,11)9-15(12,13)2(6,7)8/h7H,4-5H2,1-3H3;/q+1;-1, purity 99%

System: butyltrimethylammonium bis(trifluoromethylsulfonyl)imide; phases: Crystal 1, Liquid, Air at 1 atmosphere
Property: Molar enthalpy of transition or fusion, kJ/mol (Crystal 1); method: DSC
Molar enthalpy of transition or fusion, kJ/mol	uncertainty
9.89	0.32

System: butyltrimethylammonium bis(trifluoromethylsulfonyl)imide; phases: Crystal 2, Crystal 1, Air at 1 atmosphere
Property: Triple point temperature, K (Crystal 2); method: DSC
Triple point temperature, K	uncertainty
232.7	0.8

System: butyltrimethylammonium bis(trifluoromethylsulfonyl)imide; phases: Crystal 2, Crystal 1, Air at 1 atmosphere
Property: Molar enthalpy of transition or fusion, kJ/mol (Crystal 2); method: DSC
Molar enthalpy of transition or fusion, kJ/mol	uncertainty
1.08	0.22

System: butyltrimethylammonium bis(trifluoromethylsulfonyl)imide; phases: Crystal, Liquid, Air at 1 atmosphere
Property: Normal melting temperature, K (Crystal); method: VISOBS
Normal melting temperature, K	uncertainty
276.8	0.3

System: butyltrimethylammonium bis(trifluoromethylsulfonyl)imide; phases: Crystal of unknown type, Liquid
Property: Solid-liquid equilibrium temperature, K (Crystal of unknown type); method: VISOBS
Pressure, kPa	Solid-liquid equilibrium temperature, K	uncertainty
101	280.3	0.2

System: choline bis(trifluoromethylsulfonyl)imide; phases: Crystal 1, Liquid, Air at 1 atmosphere
Property: Molar enthalpy of transition or fusion, kJ/mol (Crystal 1); method: DSC
Molar enthalpy of transition or fusion, kJ/mol	uncertainty
4.68	0.26

System: choline bis(trifluoromethylsulfonyl)imide; phases: Crystal 2, Crystal 1, Air at 1 atmosphere
Property: Triple point temperature, K (Crystal 2); method: DSC
Triple point temperature, K	uncertainty
274.6	0.8

System: choline bis(trifluoromethylsulfonyl)imide; phases: Crystal 2, Crystal 1, Air at 1 atmosphere
Property: Molar enthalpy of transition or fusion, kJ/mol (Crystal 2); method: DSC
Molar enthalpy of transition or fusion, kJ/mol	uncertainty
11.29	0.34

System: choline bis(trifluoromethylsulfonyl)imide; phases: Crystal 1, Liquid, Air at 1 atmosphere
Property: Normal melting temperature, K (Crystal 1); method: VISOBS
Normal melting temperature, K	uncertainty
292	0.3

System: choline bis(trifluoromethylsulfonyl)imide; phases: Crystal of unknown type, Liquid
Property: Solid-liquid equilibrium temperature, K (Crystal of unknown type); method: VISOBS
Pressure, kPa	Solid-liquid equilibrium temperature, K	uncertainty
101	295.2	0.2

System: 2-phenylethanol + butyltrimethylammonium bis(trifluoromethylsulfonyl)imide; phases: Liquid, Crystal of unknown type
Fixed: Pressure, kPa = 101.3
Property: Solid-liquid equilibrium temperature, K (Liquid); method: VISOBS
Mole fraction of butyltrimethylammonium bis(trifluoromethylsulfonyl)imide	Solid-liquid equilibrium temperature, K	uncertainty
1	276.8	0.3
0.9454	271	0.3
0.8805	267.9	0.3
0.8707	267.5	0.3
0.8249	265.4	0.3
0.7859	263.7	0.3
0.7297	261.4	0.3
0.6834	259.5	0.3
0.6339	257.3	0.3
0.57	254.9	0.3

System: 2-phenylethanol + choline bis(trifluoromethylsulfonyl)imide; phases: Liquid, Crystal of unknown type
Fixed: Pressure, kPa = 101.3
Property: Solid-liquid equilibrium temperature, K (Liquid); method: VISOBS
Mole fraction of choline bis(trifluoromethylsulfonyl)imide	Solid-liquid equilibrium temperature, K	uncertainty
1	292	0.3
0.9362	287.5	0.3
0.8705	281.7	0.3
0.8102	276.6	0.3

System: 2-phenylethanol + choline bis(trifluoromethylsulfonyl)imide; phases: Liquid, Crystal of unknown type
Fixed: Pressure, kPa = 101.3
Property: Solid-liquid equilibrium temperature, K (Liquid); method: VISOBS
Mole fraction of choline bis(trifluoromethylsulfonyl)imide	Solid-liquid equilibrium temperature, K	uncertainty
0.7547	272.1	0.3
0.7108	269.3	0.3
0.6517	266.1	0.3
0.606	263.8	0.3
0.5545	261.5	0.3

System: water + N,N-diethyl-2-methoxy-N-methylethan-1-aminium bis((trifluoromethyl)sulfonyl)amide; phases: Liquid mixture 1, Liquid mixture 2
Fixed: Pressure, kPa = 101.3
Property: Liquid-liquid equilibrium temperature, K (Liquid mixture 1); method: VISOBS
Mole fraction of N,N-diethyl-2-methoxy-N-methylethan-1-aminium bis((trifluoromethyl)sulfonyl)amide	Liquid-liquid equilibrium temperature, K	uncertainty
0.6689	292.5	0.4
0.6512	298.6	0.4
0.637	302.9	0.4
0.6231	306.3	0.4
0.6085	312.4	0.4
0.5941	316.9	0.4
0.5821	321.8	0.4
0.57	325.5	0.4
0.5494	332.3	0.4
0.5339	337.2	0.4
0.5211	341.5	0.4
0.5089	345.4	0.4

System: water + N,N-diethyl-2-methoxy-N-methylethan-1-aminium bis((trifluoromethyl)sulfonyl)amide; phases: Liquid mixture 2, Liquid mixture 1
Fixed: Pressure, kPa = 101.3
Property: Mole fraction of N,N-diethyl-2-methoxy-N-methylethan-1-aminium bis((trifluoromethyl)sulfonyl)amide (Liquid mixture 2); method: conductivity
Temperature, K	Mole fraction of N,N-diethyl-2-methoxy-N-methylethan-1-aminium bis((trifluoromethyl)sulfonyl)amide	uncertainty
298.2	0.0006	0.0001
308.6	0.0006	0.0001
318.2	0.0007	0.0001
328.2	0.0008	0.0001
338.2	0.0008	0.0001
308.15	0.62	

System: water + methyltrioctylammonium 1,1,1-trifluoro-N-[(trifluoromethyl)sulfonyl]methanesulfonamide; phases: Liquid mixture 1, Liquid mixture 2
Fixed: Pressure, kPa = 101.3
Property: Liquid-liquid equilibrium temperature, K (Liquid mixture 1); method: VISOBS
Mole fraction of methyltrioctylammonium 1,1,1-trifluoro-N-[(trifluoromethyl)sulfonyl]methanesulfonamide	Liquid-liquid equilibrium temperature, K	uncertainty
0.9565	289.2	0.5
0.9466	293.2	0.6
0.9394	298.2	0.7
0.9345	301.6	0.6
0.9217	308.4	0.7
0.9189	310.1	0.7
0.9011	317.8	0.4
0.8841	322.8	0.4

System: water + methyltrioctylammonium 1,1,1-trifluoro-N-[(trifluoromethyl)sulfonyl]methanesulfonamide; phases: Liquid mixture 2, Liquid mixture 1
Property: Mole fraction of methyltrioctylammonium 1,1,1-trifluoro-N-[(trifluoromethyl)sulfonyl]methanesulfonamide (Liquid mixture 2); method: Chromatography
Temperature, K	Pressure, kPa	Mole fraction of methyltrioctylammonium 1,1,1-trifluoro-N-[(trifluoromethyl)sulfonyl]methanesulfonamide	uncertainty
308.15	101.3	0.922	

System: water + methyltrioctylammonium 1,1,1-trifluoro-N-[(trifluoromethyl)sulfonyl]methanesulfonamide; phases: Liquid mixture 1, Liquid mixture 2
Fixed: Pressure, kPa = 101.3
Property: Liquid-liquid equilibrium temperature, K (Liquid mixture 1); method: VISOBS
Mole fraction of methyltrioctylammonium 1,1,1-trifluoro-N-[(trifluoromethyl)sulfonyl]methanesulfonamide	Liquid-liquid equilibrium temperature, K	uncertainty
0.9189	276.1	0.4
0.9011	281.2	0.5
0.8873	289.2	0.4
0.8682	293.6	0.4
0.8521	299.2	0.4
0.8247	308.5	0.4
0.8004	314.6	0.3
0.774	320.2	0.3
0.7517	326	0.4

System: water + triethyloctylammonium bis[(trifluoromethyl)sulfonyl]imide; phases: Liquid mixture 1, Liquid mixture 2
Fixed: Pressure, kPa = 101.3
Property: Liquid-liquid equilibrium temperature, K (Liquid mixture 1); method: VISOBS
Mole fraction of triethyloctylammonium bis[(trifluoromethyl)sulfonyl]imide	Liquid-liquid equilibrium temperature, K	uncertainty
0.8927	292	0.6
0.8822	298.2	0.6
0.8719	304.2	0.6
0.8629	307.8	0.5
0.8523	311.9	0.5
0.8473	314.4	0.4
0.8367	317.4	0.4
0.822	321.4	0.4
0.8119	325	0.4
0.8006	328.3	0.4

System: water + triethyloctylammonium bis[(trifluoromethyl)sulfonyl]imide; phases: Liquid mixture 2, Liquid mixture 1
Fixed: Pressure, kPa = 101.3
Property: Mole fraction of triethyloctylammonium bis[(trifluoromethyl)sulfonyl]imide (Liquid mixture 2); method: conductivity
Temperature, K	Mole fraction of triethyloctylammonium bis[(trifluoromethyl)sulfonyl]imide	uncertainty
298.2	1.16e-05	1.16e-05
308.2	1.71e-05	1.71e-05
318.2	2.29e-05	2e-05
328.2	3e-05	2e-05
338.2	3.7e-05	2e-05
308.15	0.862	

System: water + triethyloctylammonium bis[(trifluoromethyl)sulfonyl]imide; phases: Liquid mixture 1, Liquid mixture 2
Fixed: Pressure, kPa = 101.3
Property: Liquid-liquid equilibrium temperature, K (Liquid mixture 1); method: VISOBS
Mole fraction of triethyloctylammonium bis[(trifluoromethyl)sulfonyl]imide	Liquid-liquid equilibrium temperature, K	uncertainty
0.8872	272.7	0.5
0.8694	279.9	0.4
0.8418	287.1	0.4
0.8268	292.2	0.4
0.8009	298.9	0.4
0.7868	303.2	0.4
0.7636	311.3	0.4
0.7298	317.5	0.4
0.7057	327.5	0.5

System: 2-phenylethanol + water + butyltrimethylammonium bis(trifluoromethylsulfonyl)imide; phases: Liquid mixture 2, Liquid mixture 1
Fixed: Temperature, K = 308.15
Fixed: Pressure, kPa = 101.3
Property: Mole fraction of 2-phenylethanol (Liquid mixture 2); method: Chromatography
Property: Mole fraction of butyltrimethylammonium bis(trifluoromethylsulfonyl)imide (Liquid mixture 1); method: Chromatography
Property: Mole fraction of 2-phenylethanol (Liquid mixture 1); method: Chromatography
Mole fraction of butyltrimethylammonium bis(trifluoromethylsulfonyl)imide	Mole fraction of 2-phenylethanol	uncertainty	Mole fraction of butyltrimethylammonium bis(trifluoromethylsulfonyl)imide	uncertainty	Mole fraction of 2-phenylethanol	uncertainty
0.693	0		0		0	
0.632	0.036	0.008	0		0	
0.59	0.079	0.008	0		0.001	
0.483	0.182	0.008	0		0.002	
0.403	0.243	0.006	0		0.002	
0.385	0.269	0.008	0		0.002	
0.326	0.306	0.006	0		0.003	
0.317	0.339	0.006	0		0.004	
0.272	0.373	0.008	0		0.004	
0.232	0.405	0.009	0		0.004	
0.185	0.456	0.009	0		0.004	
0.169	0.458	0.008	0		0.004	
0.11	0.511	0.009	0		0.005	
0.063	0.552	0.008	0		0.005	
0.028	0.578	0.007	0		0.005	
0	0.582	0.007	0		0.004	

System: 2-phenylethanol + water + choline bis(trifluoromethylsulfonyl)imide; phases: Liquid mixture 2, Liquid mixture 1
Fixed: Temperature, K = 308.15
Fixed: Pressure, kPa = 101.3
Property: Mole fraction of choline bis(trifluoromethylsulfonyl)imide (Liquid mixture 2); method: Chromatography
Property: Mole fraction of choline bis(trifluoromethylsulfonyl)imide (Liquid mixture 1); method: Chromatography
Property: Mole fraction of 2-phenylethanol (Liquid mixture 1); method: Chromatography
Mole fraction of 2-phenylethanol	Mole fraction of choline bis(trifluoromethylsulfonyl)imide	uncertainty	Mole fraction of choline bis(trifluoromethylsulfonyl)imide	uncertainty	Mole fraction of 2-phenylethanol	uncertainty
0	0.272	0.006	0		0	
0.018	0.252	0.008	0		0.001	
0.06	0.217	0.008	0		0.002	
0.087	0.196	0.007	0		0.002	
0.131	0.173	0.007	0		0.003	
0.157	0.158	0.007	0		0.003	
0.218	0.129	0.007	0		0.003	
0.236	0.122	0.006	0		0.004	
0.274	0.11	0.007	0		0.004	
0.339	0.076	0.007	0		0.004	
0.405	0.049	0.006	0		0.004	
0.55	0.006	0.006	0		0.004	
0.582	0		0		0.004	

System: 2-phenylethanol + water + N,N-diethyl-2-methoxy-N-methylethan-1-aminium bis((trifluoromethyl)sulfonyl)amide; phases: Liquid mixture 2, Liquid mixture 1
Fixed: Temperature, K = 308.15
Fixed: Pressure, kPa = 101.3
Property: Mole fraction of 2-phenylethanol (Liquid mixture 2); method: Chromatography
Property: Mole fraction of N,N-diethyl-2-methoxy-N-methylethan-1-aminium bis((trifluoromethyl)sulfonyl)amide (Liquid mixture 1); method: Chromatography
Property: Mole fraction of 2-phenylethanol (Liquid mixture 1); method: Chromatography
Mole fraction of N,N-diethyl-2-methoxy-N-methylethan-1-aminium bis((trifluoromethyl)sulfonyl)amide	Mole fraction of 2-phenylethanol	uncertainty	Mole fraction of N,N-diethyl-2-methoxy-N-methylethan-1-aminium bis((trifluoromethyl)sulfonyl)amide	uncertainty	Mole fraction of 2-phenylethanol	uncertainty
0.62	0		0		0	
0.539	0.074	0.008	0		0.001	
0.486	0.125	0.009	0		0.001	
0.43	0.187	0.008	0		0.002	
0.362	0.244	0.009	0		0.002	
0.311	0.31	0.009	0		0.003	
0.26	0.363	0.009	0		0.003	
0.199	0.413	0.008	0		0.003	
0.117	0.471	0.009	0		0.004	
0.077	0.524	0.009	0		0.004	
0.025	0.564	0.008	0		0.004	
0	0.582	0.007	0		0.004	

System: 2-phenylethanol + water + methyltrioctylammonium 1,1,1-trifluoro-N-[(trifluoromethyl)sulfonyl]methanesulfonamide; phases: Liquid mixture 2, Liquid mixture 1
Fixed: Temperature, K = 308.15
Fixed: Pressure, kPa = 101.3
Property: Mole fraction of 2-phenylethanol (Liquid mixture 2); method: Chromatography
Property: Mole fraction of methyltrioctylammonium 1,1,1-trifluoro-N-[(trifluoromethyl)sulfonyl]methanesulfonamide (Liquid mixture 1); method: Chromatography
Property: Mole fraction of 2-phenylethanol (Liquid mixture 1); method: Chromatography
Mole fraction of methyltrioctylammonium 1,1,1-trifluoro-N-[(trifluoromethyl)sulfonyl]methanesulfonamide	Mole fraction of 2-phenylethanol	uncertainty	Mole fraction of methyltrioctylammonium 1,1,1-trifluoro-N-[(trifluoromethyl)sulfonyl]methanesulfonamide	uncertainty	Mole fraction of 2-phenylethanol	uncertainty
0.922	0		0		0	
0.731	0.137	0.007	0		0.001	
0.66	0.19	0.008	0		0.001	
0.386	0.41	0.008	0		0.002	
0.212	0.555	0.007	0		0.003	
0.2	0.562	0.007	0		0.003	
0.192	0.564	0.007	0		0.003	
0.13	0.596	0.007	0		0.003	
0.105	0.605	0.007	0		0.003	
0.042	0.627	0.007	0		0.003	
0	0.582	0.007	0		0.004	

System: 2-phenylethanol + water + triethyloctylammonium bis[(trifluoromethyl)sulfonyl]imide; phases: Liquid mixture 2, Liquid mixture 1
Fixed: Temperature, K = 308.15
Fixed: Pressure, kPa = 101.3
Property: Mole fraction of 2-phenylethanol (Liquid mixture 2); method: Chromatography
Property: Mole fraction of triethyloctylammonium bis[(trifluoromethyl)sulfonyl]imide (Liquid mixture 1); method: Chromatography
Property: Mole fraction of 2-phenylethanol (Liquid mixture 1); method: Chromatography
Mole fraction of triethyloctylammonium bis[(trifluoromethyl)sulfonyl]imide	Mole fraction of 2-phenylethanol	uncertainty	Mole fraction of triethyloctylammonium bis[(trifluoromethyl)sulfonyl]imide	uncertainty	Mole fraction of 2-phenylethanol	uncertainty
0.862	0		0		0	
0.626	0.182	0.008	0		0.001	
0.469	0.309	0.008	0		0.001	
0.41	0.35	0.007	0		0.001	
0.324	0.393	0.008	0		0.002	
0.257	0.445	0.008	0		0.002	
0.214	0.483	0.008	0		0.002	
0.175	0.512	0.008	0		0.002	
0.159	0.516	0.007	0		0.002	
0.141	0.527	0.008	0		0.003	
0.117	0.54	0.007	0		0.003	
0.095	0.55	0.007	0		0.003	
0.021	0.587	0.007	0		0.003	
0	0.582	0.007	0		0.004	

System: 2-phenylethanol + water; phases: Liquid mixture 2, Liquid mixture 1
Property: Mole fraction of 2-phenylethanol (Liquid mixture 2); method: Chromatography
Temperature, K	Pressure, kPa	Mole fraction of 2-phenylethanol	uncertainty
308.15	101.3	0.582	0.007

System: water + choline bis(trifluoromethylsulfonyl)imide; phases: Liquid mixture 2, Liquid mixture 1
Property: Mole fraction of choline bis(trifluoromethylsulfonyl)imide (Liquid mixture 2); method: Chromatography
Temperature, K	Pressure, kPa	Mole fraction of choline bis(trifluoromethylsulfonyl)imide	uncertainty
308.15	101.3	0.272	0.006

System: water + butyltrimethylammonium bis(trifluoromethylsulfonyl)imide; phases: Liquid mixture 2, Liquid mixture 1
Property: Mole fraction of butyltrimethylammonium bis(trifluoromethylsulfonyl)imide (Liquid mixture 2); method: Chromatography
Temperature, K	Pressure, kPa	Mole fraction of butyltrimethylammonium bis(trifluoromethylsulfonyl)imide	uncertainty
308.15	101.3	0.693	
