Measured thermophysical data. Isobaric vapor liquid equilibrium for the binary systems of 1-propanol + 1-(methoxymethoxy)-butane and 1-butanol + 1-(methoxymethoxy)- butane at 101.3 kPa
Source: Fluid Phase Equilib., 2015, 10.1016/j.fluid.2014.12.029
Compound 1: propan-1-ol, C3H8O, InChI=1S/C3H8O/c1-2-3-4/h4H,2-3H2,1H3, purity 99.7%
Compound 2: butan-1-ol, C4H10O, InChI=1S/C4H10O/c1-2-3-4-5/h5H,2-4H2,1H3, purity 99.7%
Compound 3: 1-(methoxymethoxy)-butane, C6H14O2, InChI=1S/C6H14O2/c1-3-4-5-8-6-7-2/h3-6H2,1-2H3

System: propan-1-ol; phases: Liquid, Gas
Property: Normal boiling temperature, K (Liquid); method: Ebulliometric method (Recirculating still)
Normal boiling temperature, K	uncertainty
370.31	0.2

System: propan-1-ol; phases: Liquid
Property: Mass density, kg/m3 (Liquid); method: Pycnometric method
Temperature, K	Pressure, kPa	Mass density, kg/m3	uncertainty
298.15	101.325	799.3	0.7

System: propan-1-ol; phases: Liquid
Property: Refractive index (Na D-line) (Liquid); method: Standard Abbe refractometry
Temperature, K	Pressure, kPa	Refractive index (Na D-line)	uncertainty
298.15	101.325	1.3833	0.0007

System: butan-1-ol; phases: Liquid, Gas
Property: Normal boiling temperature, K (Liquid); method: Ebulliometric method (Recirculating still)
Normal boiling temperature, K	uncertainty
390.84	0.2

System: butan-1-ol; phases: Liquid
Property: Mass density, kg/m3 (Liquid); method: Pycnometric method
Temperature, K	Pressure, kPa	Mass density, kg/m3	uncertainty
298.15	101.325	805.2	0.7

System: butan-1-ol; phases: Liquid
Property: Refractive index (Na D-line) (Liquid); method: Standard Abbe refractometry
Temperature, K	Pressure, kPa	Refractive index (Na D-line)	uncertainty
298.15	101.325	1.3967	0.0007

System: butan-1-ol; phases: Liquid, Gas
Property: Boiling temperature at pressure P, K (Liquid); method: Ebulliometric method (Recirculating still)
Pressure, kPa	Boiling temperature at pressure P, K	uncertainty
101.33	390.88	0.2
80	384.38	0.2
53.33	373.9	0.2
40.47	367.34	0.2
26.67	357.79	0.2
20	351.41	0.2
13.33	343.02	0.2
8	333.27	0.21

System: 1-(methoxymethoxy)-butane; phases: Liquid, Gas
Property: Normal boiling temperature, K (Liquid); method: Ebulliometric method (Recirculating still)
Normal boiling temperature, K	uncertainty
392.59	0.2

System: 1-(methoxymethoxy)-butane; phases: Liquid
Property: Mass density, kg/m3 (Liquid); method: Pycnometric method
Temperature, K	Pressure, kPa	Mass density, kg/m3	uncertainty
298.15	101.325	837.1	0.8

System: 1-(methoxymethoxy)-butane; phases: Liquid
Property: Refractive index (Na D-line) (Liquid); method: Standard Abbe refractometry
Temperature, K	Pressure, kPa	Refractive index (Na D-line)	uncertainty
298.15	101.325	1.387	0.0007

System: 1-(methoxymethoxy)-butane; phases: Liquid, Gas
Property: Boiling temperature at pressure P, K (Liquid); method: Ebulliometric method (Recirculating still)
Pressure, kPa	Boiling temperature at pressure P, K	uncertainty
8.01	322.39	0.21
20	344.03	0.2
30	354.88	0.2
34.84	358.96	0.2
39.85	362.81	0.2
50	369.65	0.2
55.02	372.54	0.2

System: propan-1-ol + 1-(methoxymethoxy)-butane; phases: Gas, Liquid
Fixed: Pressure, kPa = 101.3
Property: Mole fraction of propan-1-ol (Gas); method: Chromatography
Mole fraction of propan-1-ol	Mole fraction of propan-1-ol	uncertainty
0	0	
0.0303	0.0978	0.0056
0.0375	0.1165	0.0063
0.0563	0.1735	0.0055
0.0862	0.2382	0.0052
0.1107	0.2912	0.0051
0.1375	0.34	0.0047
0.2032	0.4341	0.0048
0.287	0.5154	0.0049
0.353	0.5697	0.0044
0.4175	0.6146	0.004
0.515	0.672	0.0036
0.5973	0.7152	0.0033
0.6614	0.751	0.0031
0.7313	0.7907	0.0029
0.767	0.809	0.0028
0.7897	0.8237	0.0028
0.7939	0.8265	0.0028
0.8246	0.8473	0.0026
0.8297	0.8502	0.0026
0.8523	0.8638	0.0027
0.8656	0.8757	0.0028
0.8805	0.886	0.0027
0.9079	0.909	0.0027
0.9338	0.9314	0.0028
0.9615	0.9585	0.0029
0.9888	0.9872	0.0029
1	1	

System: propan-1-ol + 1-(methoxymethoxy)-butane; phases: Liquid, Gas
Fixed: Pressure, kPa = 101.3
Property: Boiling temperature at pressure P, K (Liquid); method: Ebulliometric method (Recirculating still)
Mole fraction of propan-1-ol	Boiling temperature at pressure P, K	uncertainty
0	392.59	0.21
0.0303	390.03	0.26
0.0375	389.52	0.29
0.0563	387.47	0.26
0.0862	385.92	0.24
0.1107	384.35	0.25
0.1375	382.73	0.23
0.2032	379.95	0.23
0.287	377.08	0.22
0.353	375.31	0.22
0.4175	374.2	0.22
0.515	372.8	0.22
0.5973	371.81	0.22
0.6614	371.24	0.22
0.7313	370.78	0.22
0.767	370.51	0.21
0.7897	370.46	0.22
0.7939	370.41	0.22
0.8246	370.33	0.21
0.8297	370.3	0.21
0.8523	370.23	0.21
0.8656	370.22	0.21
0.8805	370.19	0.21
0.9079	370.18	0.21
0.9338	370.18	0.21
0.9615	370.19	0.21
0.9888	370.29	0.21
1	370.34	0.21

System: butan-1-ol + 1-(methoxymethoxy)-butane; phases: Gas, Liquid
Fixed: Pressure, kPa = 101.3
Property: Mole fraction of butan-1-ol (Gas); method: Chromatography
Mole fraction of butan-1-ol	Mole fraction of butan-1-ol	uncertainty
0	0	
0.0091	0.0164	0.0038
0.0337	0.0545	0.0035
0.0927	0.1375	0.0034
0.1892	0.2524	0.0037
0.2659	0.3267	0.0039
0.3082	0.3621	0.004
0.3871	0.4232	0.0044
0.4504	0.4692	0.0047
0.4831	0.4926	0.0049
0.5031	0.5085	0.0049
0.5728	0.5609	0.0045
0.6257	0.5999	0.0043
0.7318	0.6855	0.0037
0.7644	0.7126	0.0036
0.775	0.7241	0.0036
0.8105	0.7576	0.0035
0.8405	0.7896	0.0035
0.8683	0.8202	0.0034
0.9023	0.8598	0.0034
0.9409	0.911	0.0035
0.9721	0.9558	0.0036
0.9926	0.988	0.0037
1	1	

System: butan-1-ol + 1-(methoxymethoxy)-butane; phases: Liquid, Gas
Fixed: Pressure, kPa = 101.3
Property: Boiling temperature at pressure P, K (Liquid); method: Ebulliometric method (Recirculating still)
Mole fraction of butan-1-ol	Boiling temperature at pressure P, K	uncertainty
0	392.59	0.21
0.0091	392.34	0.22
0.0337	391.6	0.22
0.0927	390.18	0.22
0.1892	388.64	0.22
0.2659	387.99	0.22
0.3082	387.58	0.22
0.3871	387.09	0.21
0.4504	386.94	0.21
0.4831	386.91	0.21
0.5031	386.88	0.21
0.5728	386.96	0.21
0.6257	387.18	0.21
0.7318	387.53	0.21
0.7644	387.75	0.22
0.775	387.83	0.22
0.8105	388.13	0.22
0.8405	388.48	0.22
0.8683	388.79	0.22
0.9023	389.26	0.22
0.9409	389.81	0.22
0.9721	390.32	0.22
0.9926	390.75	0.22
1	390.9	0.21
