Measured thermophysical data. Isobaric vapor liquid and vapor liquid liquid equilibrium data for the water ethanol hexane system
Source: Fluid Phase Equilib., 2007, 10.1016/j.fluid.2007.04.011
Compound 1: water, H2O, InChI=1S/H2O/h1H2
Compound 2: ethanol, C2H6O, InChI=1S/C2H6O/c1-2-3/h3H,2H2,1H3, purity 99.8%
Compound 3: hexane, C6H14, InChI=1S/C6H14/c1-3-5-6-4-2/h3-6H2,1-2H3, purity 99.5%

System: ethanol + hexane + water; phases: Liquid mixture 1, Liquid mixture 2, Gas
Fixed: Pressure, kPa = 101.3
Property: Mole fraction of ethanol (Liquid mixture 1); method: Chromatography
Property: Mole fraction of ethanol (Liquid mixture 2); method: Chromatography
Property: Mole fraction of ethanol (Gas); method: Chromatography
Property: Mole fraction of water (Liquid mixture 1); method: Chromatography
Property: Mole fraction of water (Liquid mixture 2); method: Chromatography
Property: Mole fraction of water (Gas); method: Chromatography
Temperature, K	Mole fraction of ethanol	uncertainty	Mole fraction of ethanol	uncertainty	Mole fraction of ethanol	uncertainty	Mole fraction of water	uncertainty	Mole fraction of water	uncertainty	Mole fraction of water	uncertainty
334.44	0	0.001	0	0.001	0	0.001	0.002	0.002	1	0.001	0.214	0.005
332.57	0.004	0.004	0.035	0.005	0.076	0.006	0.001	0.001	0.965	0.005	0.159	0.005
330.8	0.015	0.005	0.106	0.01	0.15	0.006	0.002	0.002	0.893	0.01	0.139	0.004
330.54	0.021	0.004	0.131	0.014	0.162	0.006	0.002	0.002	0.869	0.015	0.137	0.004
330.05	0.028	0.005	0.208	0.018	0.185	0.007	0.003	0.003	0.791	0.018	0.128	0.005
329.92	0.039	0.012	0.244	0.031	0.195	0.007	0.003	0.003	0.754	0.031	0.124	0.005
329.82	0.049	0.011	0.266	0.033	0.197	0.008	0.004	0.004	0.732	0.033	0.123	0.005
329.77	0.06	0.012	0.293	0.037	0.202	0.007	0.005	0.004	0.704	0.039	0.122	0.005
329.71	0.065	0.012	0.322	0.042	0.207	0.008	0.006	0.004	0.674	0.045	0.12	0.005
329.56	0.08	0.018	0.376	0.064	0.214	0.009	0.007	0.005	0.616	0.069	0.117	0.006
329.51	0.087	0.026	0.433	0.063	0.221	0.009	0.008	0.006	0.555	0.075	0.114	0.006
329.48	0.101	0.025	0.461	0.063	0.225	0.009	0.01	0.005	0.524	0.075	0.112	0.006
329.45	0.113	0.033	0.492	0.076	0.229	0.011	0.012	0.007	0.489	0.093	0.11	0.006
329.42	0.133	0.037	0.541	0.01	0.235	0.006	0.015	0.01	0.431	0.038	0.107	0.005
329.26	0.142	0.007	0.575	0.022	0.239	0.005	0.016	0.004	0.379	0.033	0.104	0.005
329.28	0.172	0.028	0.593	0.037	0.242	0.007	0.022	0.006	0.353	0.056	0.103	0.005
329.48	0.203	0.026	0.613	0.065	0.246	0.009	0.029	0.006	0.324	0.077	0.101	0.006
329.5	0.235	0.025	0.624	0.063	0.248	0.009	0.037	0.005	0.296	0.074	0.1	0.006
329.53	0.272	0.033	0.62	0.084	0.253	0.012	0.047	0.006	0.248	0.099	0.096	0.007
329.55	0.297	0.028	0.609	0.08	0.254	0.011	0.055	0.006	0.234	0.091	0.096	0.006
329.56	0.316	0.028	0.604	0.073	0.256	0.011	0.061	0.006	0.219	0.085	0.095	0.006

System: ethanol + hexane + water; phases: Liquid, Gas
Property: Azeotropic composition: mole fraction of ethanol (Liquid); method: By X=Y
Mole fraction of water	Temperature, K	Azeotropic composition: mole fraction of ethanol	uncertainty
0.105	329.21	0.236	0.006

System: ethanol + hexane + water; phases: Liquid, Gas
Property: Azeotropic composition: mole fraction of ethanol (Liquid); method: By X=Y
Mole fraction of water	Pressure, kPa	Azeotropic composition: mole fraction of ethanol	uncertainty
0.105	101.3	0.236	0.006

System: ethanol + hexane + water; phases: Liquid, Gas
Fixed: Pressure, kPa = 101.3
Property: Mole fraction of water (Liquid); method: Chromatography
Property: Mole fraction of water (Gas); method: Chromatography
Property: Mole fraction of ethanol (Gas); method: Chromatography
Temperature, K	Mole fraction of ethanol	Mole fraction of water	uncertainty	Mole fraction of water	uncertainty	Mole fraction of ethanol	uncertainty
349.66	0.679	0.317	0.005	0.215	0.004	0.683	
346.18	0.844	0.139	0.004	0.105	0.004	0.669	
346.66	0.756	0.234	0.004	0.159	0.004	0.636	
342.64	0.831	0.135	0.004	0.089	0.004	0.563	
345.91	0.579	0.408	0.005	0.209	0.004	0.529	
341.71	0.724	0.253	0.004	0.135	0.004	0.485	
338.04	0.803	0.138	0.004	0.078	0.004	0.438	
344.36	0.594	0.39	0.005	0.189	0.004	0.494	
335.28	0.693	0.246	0.004	0.102	0.004	0.34	
332.55	0.67	0.263	0.004	0.1	0.004	0.297	
345.88	0.528	0.46	0.005	0.216	0.004	0.504	
342.2	0.557	0.428	0.005	0.175	0.004	0.435	
332.71	0.609	0.344	0.005	0.11	0.004	0.282	
332.66	0.729	0.156	0.004	0.077	0.004	0.313	
329.51	0.559	0.154	0.004	0.103	0.004	0.253	
329.71	0.624	0.123	0.004	0.098	0.004	0.257	
330.34	0.718	0.263	0.004	0.08	0.004	0.279	
343.86	0.713	0.267	0.004	0.154	0.004	0.536	
351.1	0.708	0.291	0.005	0.22	0.004	0.752	
351.2	0.964	0.035	0.004	0.036	0.004	0.957	
329.73	0.936	0.03	0.004	0.025	0.004	0.686	
329.73	0.88	0.029	0.004	0.02	0.004	0.484	
329.73	0.848	0.035	0.004	0.025	0.004	0.437	
329.71	0.676	0.073	0.004	0.054	0.004	0.313	
330.23	0.628	0.272	0.004	0.102	0.004	0.25	
330.25	0.574	0.103	0.004	0.079	0.004	0.277	
330.63	0.653	0.19	0.004	0.09	0.004	0.27	
332.36	0.697	0.019	0.004	0.017	0.004	0.355	
334.33	0.799	0.02	0.004	0.012	0.004	0.403	
334.64	0.828	0.016	0.004	0.012	0.004	0.408	
332.08	0.665	0.013	0.004	0.012	0.004	0.351	
331.72	0.592	0.013	0.004	0.013	0.004	0.338	
331.5	0.524	0.013	0.004	0.014	0.004	0.333	
331.39	0.456	0.014	0.004	0.015	0.004	0.327	
331.29	0.371	0.012	0.004	0.015	0.004	0.324	
331.25	0.309	0.009	0.004	0.017	0.004	0.319	
331.26	0.247	0.013	0.004	0.017	0.004	0.313	
333.16	0.75	0.013	0.004	0.008	0.004	0.375	
334.59	0.815	0.018	0.004	0.012	0.004	0.419	
331.09	0.658	0.094	0.004	0.062	0.004	0.301	
331.21	0.678	0.11	0.004	0.07	0.004	0.3	
330.75	0.635	0.094	0.004	0.068	0.004	0.298	
331.84	0.7	0.072	0.004	0.051	0.004	0.324	
333.91	0.783	0.055	0.004	0.037	0.004	0.377	
333.95	0.774	0.054	0.004	0.037	0.004	0.371	
331.79	0.676	0.049	0.004	0.039	0.004	0.332	
331.9	0.734	0.048	0.004	0.033	0.004	0.351	
332.03	0.666	0.145	0.004	0.08	0.004	0.289	
332.22	0.727	0.122	0.004	0.068	0.004	0.316	
