Measured thermophysical data. Thermodynamics of mixtures with strongly negative deviations from Raoult's law. XV. Permittivities and refractive indices for 1-alkanol + n-hexylamine systems at (293.15-303.15) K. Application of the Kirkwood- Frohlich model
Source: Fluid Phase Equilib., 2018, 10.1016/j.fluid.2018.04.007
Compound 1: methanol, CH4O, InChI=1S/CH4O/c1-2/h2H,1H3, purity 99.99%
Compound 2: propan-1-ol, C3H8O, InChI=1S/C3H8O/c1-2-3-4/h4H,2-3H2,1H3, purity 99.84%
Compound 3: butan-1-ol, C4H10O, InChI=1S/C4H10O/c1-2-3-4-5/h5H,2-4H2,1H3, purity 99.86%
Compound 4: pentan-1-ol, C5H12O, InChI=1S/C5H12O/c1-2-3-4-5-6/h6H,2-5H2,1H3, purity 99.9%
Compound 5: heptan-1-ol, C7H16O, InChI=1S/C7H16O/c1-2-3-4-5-6-7-8/h8H,2-7H2,1H3, purity 99.8%
Compound 6: 1-hexanamine, C6H15N, InChI=1S/C6H15N/c1-2-3-4-5-6-7/h2-7H2,1H3, purity 99.9%

System: methanol; phases: Liquid
Fixed: Pressure, kPa = 101
Fixed: Frequency, MHz = 1
Property: Relative permittivity at various frequencies (Liquid); method: Parallel plate capacitor
Temperature, K	Relative permittivity at various frequencies	uncertainty
293.15	33.569	0.975
298.15	32.619	0.962
303.15	31.652	0.948

System: methanol; phases: Liquid
Fixed: Pressure, kPa = 101
Property: Refractive index (Na D-line) (Liquid); method: Standard Abbe refractometry
Temperature, K	Refractive index (Na D-line)	uncertainty
293.15	1.32862	0.00033
298.15	1.32654	0.00033
303.15	1.32439	0.00033

System: methanol; phases: Liquid
Fixed: Pressure, kPa = 101
Property: Mass density, kg/m3 (Liquid); method: Vibrating tube method
Temperature, K	Mass density, kg/m3	uncertainty
293.15	791.63	1.9
298.15	786.95	1.89
303.15	782.22	1.88

System: propan-1-ol; phases: Liquid
Fixed: Pressure, kPa = 101
Fixed: Frequency, MHz = 1
Property: Relative permittivity at various frequencies (Liquid); method: Parallel plate capacitor
Temperature, K	Relative permittivity at various frequencies	uncertainty
293.15	21.15	0.78
298.15	20.449	0.768
303.15	19.784	0.756

System: propan-1-ol; phases: Liquid
Fixed: Pressure, kPa = 101
Property: Refractive index (Na D-line) (Liquid); method: Standard Abbe refractometry
Temperature, K	Refractive index (Na D-line)	uncertainty
293.15	1.38514	0.00033
298.15	1.38306	0.00033
303.15	1.38102	0.00033

System: propan-1-ol; phases: Liquid
Fixed: Pressure, kPa = 101
Property: Mass density, kg/m3 (Liquid); method: Vibrating tube method
Temperature, K	Mass density, kg/m3	uncertainty
293.15	803.66	1.93
298.15	799.68	1.92
303.15	795.66	1.91

System: butan-1-ol; phases: Liquid
Fixed: Pressure, kPa = 101
Fixed: Frequency, MHz = 1
Property: Relative permittivity at various frequencies (Liquid); method: Parallel plate capacitor
Temperature, K	Relative permittivity at various frequencies	uncertainty
293.15	18.192	0.727
298.15	17.545	0.714
303.15	16.933	0.702

System: butan-1-ol; phases: Liquid
Fixed: Pressure, kPa = 101
Property: Refractive index (Na D-line) (Liquid); method: Standard Abbe refractometry
Temperature, K	Refractive index (Na D-line)	uncertainty
293.15	1.39931	0.00033
298.15	1.39733	0.00033
303.15	1.39529	0.00033

System: butan-1-ol; phases: Liquid
Fixed: Pressure, kPa = 101
Property: Mass density, kg/m3 (Liquid); method: Vibrating tube method
Temperature, K	Mass density, kg/m3	uncertainty
293.15	809.85	1.95
298.15	806.06	1.94
303.15	802.22	1.93

System: pentan-1-ol; phases: Liquid
Fixed: Pressure, kPa = 101
Fixed: Frequency, MHz = 1
Property: Relative permittivity at various frequencies (Liquid); method: Parallel plate capacitor
Temperature, K	Relative permittivity at various frequencies	uncertainty
293.15	15.701	0.678
298.15	15.102	0.665
303.15	14.536	0.654

System: pentan-1-ol; phases: Liquid
Fixed: Pressure, kPa = 101
Property: Refractive index (Na D-line) (Liquid); method: Standard Abbe refractometry
Temperature, K	Refractive index (Na D-line)	uncertainty
293.15	1.40985	0.00033
298.15	1.40793	0.00033
303.15	1.4059	0.00033

System: pentan-1-ol; phases: Liquid
Fixed: Pressure, kPa = 101
Property: Mass density, kg/m3 (Liquid); method: Vibrating tube method
Temperature, K	Mass density, kg/m3	uncertainty
293.15	814.66	1.96
298.15	811.03	1.95
303.15	807.35	1.94

System: heptan-1-ol; phases: Liquid
Fixed: Pressure, kPa = 101
Fixed: Frequency, MHz = 1
Property: Relative permittivity at various frequencies (Liquid); method: Parallel plate capacitor
Temperature, K	Relative permittivity at various frequencies	uncertainty
293.15	12.019	0.598
298.15	11.504	0.586
303.15	11.014	0.575

System: heptan-1-ol; phases: Liquid
Fixed: Pressure, kPa = 101
Property: Refractive index (Na D-line) (Liquid); method: Standard Abbe refractometry
Temperature, K	Refractive index (Na D-line)	uncertainty
293.15	1.42425	0.00033
298.15	1.42235	0.00033
303.15	1.42047	0.00033

System: heptan-1-ol; phases: Liquid
Fixed: Pressure, kPa = 101
Property: Mass density, kg/m3 (Liquid); method: Vibrating tube method
Temperature, K	Mass density, kg/m3	uncertainty
293.15	822.37	1.98
298.15	818.9	1.97
303.15	815.37	1.96

System: 1-hexanamine; phases: Liquid
Fixed: Pressure, kPa = 101
Fixed: Frequency, MHz = 1
Property: Relative permittivity at various frequencies (Liquid); method: Parallel plate capacitor
Temperature, K	Relative permittivity at various frequencies	uncertainty
293.15	3.964	0.369
298.15	3.904	0.367
303.15	3.846	0.365

System: 1-hexanamine; phases: Liquid
Fixed: Pressure, kPa = 101
Property: Refractive index (Na D-line) (Liquid); method: Standard Abbe refractometry
Temperature, K	Refractive index (Na D-line)	uncertainty
293.15	1.41808	0.00033
298.15	1.41563	0.00033
303.15	1.41321	0.00033

System: 1-hexanamine; phases: Liquid
Fixed: Pressure, kPa = 101
Property: Mass density, kg/m3 (Liquid); method: Vibrating tube method
Temperature, K	Mass density, kg/m3	uncertainty
293.15	764.43	1.84
298.15	760.19	1.83
303.15	755.9	1.82

System: methanol + 1-hexanamine; phases: Liquid
Fixed: Pressure, kPa = 101
Fixed: Frequency, MHz = 1
Property: Relative permittivity at various frequencies (Liquid); method: Parallel plate capacitor
Temperature, K	Mole fraction of methanol	Relative permittivity at various frequencies	uncertainty
293.15	0	3.964	0.369
293.15	0.0534	4.367	0.385
293.15	0.122	4.964	0.405
293.15	0.1906	5.681	0.429
293.15	0.3081	7.244	0.477
293.15	0.395	8.783	0.52
293.15	0.4982	11.109	0.579
293.15	0.6035	14.21	0.65
293.15	0.7016	17.646	0.72
293.15	0.8002	21.864	0.798
293.15	0.8485	24.251	0.84
293.15	0.8984	26.928	0.884
293.15	0.9496	30.037	0.933
293.15	0.9834	32.343	0.968
293.15	1	33.569	0.975
298.15	0	3.904	0.367
298.15	0.0534	4.293	0.382
298.15	0.122	4.87	0.402
298.15	0.1906	5.564	0.426
298.15	0.3081	7.085	0.472
298.15	0.395	8.557	0.514
298.15	0.4982	10.806	0.572
298.15	0.6035	13.794	0.641
298.15	0.7016	17.127	0.71
298.15	0.8002	21.254	0.787
298.15	0.8485	23.597	0.829
298.15	0.8984	26.203	0.872
298.15	0.9496	29.216	0.92
298.15	0.9834	31.44	0.955
298.15	1	32.619	0.962
303.15	0	3.964	0.369
303.15	0.0534	4.367	0.385
303.15	0.122	4.964	0.405
303.15	0.1906	5.681	0.429
303.15	0.3081	7.244	0.477
303.15	0.395	8.783	0.52
303.15	0.4982	11.109	0.579
303.15	0.6035	14.21	0.65
303.15	0.7016	17.646	0.72
303.15	0.8002	21.864	0.798
303.15	0.8485	24.251	0.84
303.15	0.8984	26.928	0.884
303.15	0.9496	30.037	0.933
303.15	0.9834	32.343	0.968
303.15	1	33.569	0.975

System: methanol + 1-hexanamine; phases: Liquid
Fixed: Pressure, kPa = 101
Property: Refractive index (Na D-line) (Liquid); method: Standard Abbe refractometry
Temperature, K	Mole fraction of methanol	Refractive index (Na D-line)	uncertainty
293.15	0	1.41808	0.00033
293.15	0.0534	1.41741	0.00033
293.15	0.0942	1.41681	0.00033
293.15	0.1871	1.41513	0.00033
293.15	0.2977	1.4125	0.00033
293.15	0.4039	1.40889	0.00033
293.15	0.4917	1.4048	0.00034
293.15	0.5977	1.3979	0.00035
293.15	0.6997	1.38836	0.00037
293.15	0.7995	1.37505	0.0004
293.15	0.8475	1.36685	0.00044
293.15	0.8978	1.35657	0.00049
293.15	0.9496	1.34385	0.00053
293.15	0.9834	1.33399	0.00058
293.15	1	1.32862	0.00033
298.15	0	1.41563	0.00033
298.15	0.0534	1.41499	0.00033
298.15	0.0942	1.41442	0.00033
298.15	0.1871	1.41282	0.00033
298.15	0.2977	1.41017	0.00033
298.15	0.4039	1.40657	0.00033
298.15	0.4917	1.40243	0.00034
298.15	0.5977	1.3955	0.00035
298.15	0.6997	1.38615	0.00037
298.15	0.7995	1.37296	0.0004
298.15	0.8475	1.36479	0.00044
298.15	0.8978	1.3546	0.00049
298.15	0.9496	1.34182	0.00053
298.15	0.9834	1.33194	0.00058
298.15	1	1.32654	0.00033
303.15	0	1.41321	0.00033
303.15	0.0534	1.41261	0.00033
303.15	0.0942	1.41204	0.00033
303.15	0.1871	1.4104	0.00033
303.15	0.2977	1.40773	0.00033
303.15	0.4039	1.40412	0.00033
303.15	0.4917	1.4	0.00034
303.15	0.5977	1.39316	0.00035
303.15	0.6997	1.38372	0.00037
303.15	0.7995	1.37067	0.0004
303.15	0.8475	1.36257	0.00044
303.15	0.8978	1.3524	0.00048
303.15	0.9496	1.33968	0.00053
303.15	0.9834	1.3298	0.00058
303.15	1	1.32439	0.00033

System: propan-1-ol + 1-hexanamine; phases: Liquid
Fixed: Pressure, kPa = 101
Fixed: Frequency, MHz = 1
Property: Relative permittivity at various frequencies (Liquid); method: Parallel plate capacitor
Temperature, K	Mole fraction of propan-1-ol	Relative permittivity at various frequencies	uncertainty
293.15	0	3.964	0.369
293.15	0.0708	4.411	0.386
293.15	0.1073	4.663	0.395
293.15	0.147	4.953	0.405
293.15	0.1935	5.33	0.418
293.15	0.307	6.436	0.453
293.15	0.3941	7.471	0.483
293.15	0.5056	9.113	0.528
293.15	0.6097	10.99	0.576
293.15	0.6977	12.847	0.619
293.15	0.8044	15.469	0.675
293.15	0.8406	16.431	0.695
293.15	0.8989	18.08	0.727
293.15	0.9504	19.605	0.755
293.15	1	21.15	0.78
298.15	0	3.904	0.367
298.15	0.0708	4.336	0.383
298.15	0.1073	4.578	0.392
298.15	0.147	4.857	0.402
298.15	0.1935	5.222	0.414
298.15	0.307	6.286	0.448
298.15	0.3941	7.279	0.478
298.15	0.5056	8.85	0.521
298.15	0.6097	10.649	0.567
298.15	0.6977	12.426	0.609
298.15	0.8044	14.948	0.664
298.15	0.8406	15.885	0.684
298.15	0.8989	17.478	0.715
298.15	0.9504	18.955	0.743
298.15	1	20.449	0.768
303.15	0	3.846	0.365
303.15	0.0708	4.263	0.381
303.15	0.1073	4.499	0.389
303.15	0.147	4.77	0.399
303.15	0.1935	5.123	0.411
303.15	0.307	6.148	0.444
303.15	0.3941	7.102	0.473
303.15	0.5056	8.605	0.515
303.15	0.6097	10.324	0.559
303.15	0.6977	12.034	0.6
303.15	0.8044	14.463	0.654
303.15	0.8406	15.354	0.673
303.15	0.8989	16.902	0.704
303.15	0.9504	18.33	0.731
303.15	1	19.784	0.756

System: propan-1-ol + 1-hexanamine; phases: Liquid
Fixed: Pressure, kPa = 101
Property: Refractive index (Na D-line) (Liquid); method: Standard Abbe refractometry
Temperature, K	Mole fraction of propan-1-ol	Refractive index (Na D-line)	uncertainty
293.15	0	1.41808	0.00033
293.15	0.052	1.41775	0.00033
293.15	0.1015	1.41735	0.00033
293.15	0.1475	1.41693	0.00033
293.15	0.2108	1.41627	0.00033
293.15	0.2983	1.41509	0.00033
293.15	0.3967	1.41351	0.00033
293.15	0.4998	1.41113	0.00033
293.15	0.604	1.40784	0.00033
293.15	0.6965	1.40408	0.00033
293.15	0.8013	1.39877	0.00034
293.15	0.8505	1.39588	0.00034
293.15	0.8953	1.39295	0.00034
293.15	0.9486	1.38914	0.00035
293.15	1	1.38514	0.00033
298.15	0	1.41563	0.00033
298.15	0.052	1.41529	0.00033
298.15	0.1015	1.41492	0.00033
298.15	0.1475	1.41452	0.00033
298.15	0.2108	1.41393	0.00033
298.15	0.2983	1.41276	0.00033
298.15	0.3967	1.4112	0.00033
298.15	0.4998	1.40876	0.00033
298.15	0.604	1.40551	0.00033
298.15	0.6965	1.40199	0.00033
298.15	0.8013	1.39675	0.00034
298.15	0.8505	1.39373	0.00034
298.15	0.8953	1.39085	0.00034
298.15	0.9486	1.38704	0.00035
298.15	1	1.38306	0.00033
303.15	0	1.41321	0.00033
303.15	0.052	1.41292	0.00033
303.15	0.1015	1.41258	0.00033
303.15	0.1475	1.41223	0.00033
303.15	0.2108	1.4116	0.00033
303.15	0.2983	1.41049	0.00033
303.15	0.3967	1.40878	0.00033
303.15	0.4998	1.40642	0.00033
303.15	0.604	1.40323	0.00033
303.15	0.6965	1.39964	0.00033
303.15	0.8013	1.39454	0.00034
303.15	0.8505	1.39168	0.00034
303.15	0.8953	1.38884	0.00034
303.15	0.9486	1.38505	0.00035
303.15	1	1.38102	0.00033

System: butan-1-ol + 1-hexanamine; phases: Liquid
Fixed: Pressure, kPa = 101
Fixed: Frequency, MHz = 1
Property: Relative permittivity at various frequencies (Liquid); method: Parallel plate capacitor
Temperature, K	Mole fraction of butan-1-ol	Relative permittivity at various frequencies	uncertainty
293.15	0	3.965	0.37
293.15	0.051	4.258	0.38
293.15	0.0969	4.538	0.39
293.15	0.1402	4.828	0.401
293.15	0.2052	5.294	0.416
293.15	0.3095	6.164	0.444
293.15	0.4059	7.139	0.474
293.15	0.5054	8.352	0.508
293.15	0.593	9.623	0.541
293.15	0.6983	11.376	0.585
293.15	0.8047	13.472	0.632
293.15	0.8525	14.558	0.656
293.15	0.9035	15.741	0.68
293.15	0.946	16.795	0.701
293.15	1	18.192	0.727
298.15	0	3.904	0.367
298.15	0.051	4.186	0.378
298.15	0.0969	4.46	0.388
298.15	0.1402	4.739	0.398
298.15	0.2052	5.19	0.413
298.15	0.3095	6.028	0.44
298.15	0.4059	6.965	0.469
298.15	0.5054	8.121	0.501
298.15	0.593	9.333	0.534
298.15	0.6983	11.005	0.576
298.15	0.8047	13.003	0.622
298.15	0.8525	14.054	0.645
298.15	0.9035	15.182	0.669
298.15	0.946	16.197	0.689
298.15	1	17.545	0.714
303.15	0	3.845	0.365
303.15	0.051	4.12	0.375
303.15	0.0969	4.385	0.385
303.15	0.1402	4.656	0.395
303.15	0.2052	5.094	0.41
303.15	0.3095	5.898	0.436
303.15	0.4059	6.797	0.464
303.15	0.5054	7.905	0.495
303.15	0.593	9.058	0.527
303.15	0.6983	10.656	0.567
303.15	0.8047	12.566	0.612
303.15	0.8525	13.565	0.634
303.15	0.9035	14.656	0.658
303.15	0.946	15.632	0.678
303.15	1	16.933	0.702

System: butan-1-ol + 1-hexanamine; phases: Liquid
Fixed: Pressure, kPa = 101
Property: Refractive index (Na D-line) (Liquid); method: Standard Abbe refractometry
Temperature, K	Mole fraction of butan-1-ol	Refractive index (Na D-line)	uncertainty
293.15	0	1.4181	0.00033
293.15	0.0552	1.41812	0.00033
293.15	0.0896	1.418	0.00033
293.15	0.1588	1.41781	0.00033
293.15	0.1967	1.41768	0.00033
293.15	0.3035	1.41702	0.00033
293.15	0.4077	1.41603	0.00033
293.15	0.4984	1.41487	0.00033
293.15	0.6004	1.41298	0.00033
293.15	0.6977	1.41065	0.00033
293.15	0.7982	1.40746	0.00033
293.15	0.8451	1.40577	0.00033
293.15	0.8996	1.40359	0.00033
293.15	0.9461	1.40166	0.00033
293.15	1	1.39931	0.00033
298.15	0	1.41565	0.00033
298.15	0.0552	1.41564	0.00033
298.15	0.0896	1.41556	0.00033
298.15	0.1588	1.41542	0.00033
298.15	0.1967	1.41529	0.00033
298.15	0.3035	1.4147	0.00033
298.15	0.4077	1.41381	0.00033
298.15	0.4984	1.41267	0.00033
298.15	0.6004	1.41079	0.00033
298.15	0.6977	1.40845	0.00033
298.15	0.7982	1.40534	0.00033
298.15	0.8451	1.40368	0.00033
298.15	0.8996	1.40158	0.00033
298.15	0.9461	1.39965	0.00033
298.15	1	1.39733	0.00033
303.15	0	1.41322	0.00033
303.15	0.0552	1.41324	0.00033
303.15	0.0896	1.41319	0.00033
303.15	0.1588	1.41306	0.00033
303.15	0.1967	1.41294	0.00033
303.15	0.3035	1.4124	0.00033
303.15	0.4077	1.41148	0.00033
303.15	0.4984	1.4104	0.00033
303.15	0.6004	1.40852	0.00033
303.15	0.6977	1.40621	0.00033
303.15	0.7982	1.40316	0.00033
303.15	0.8451	1.40155	0.00033
303.15	0.8996	1.39949	0.00033
303.15	0.9461	1.39765	0.00033
303.15	1	1.39529	0.00033

System: pentan-1-ol + 1-hexanamine; phases: Liquid
Fixed: Pressure, kPa = 101
Fixed: Frequency, MHz = 1
Property: Relative permittivity at various frequencies (Liquid); method: Parallel plate capacitor
Temperature, K	Mole fraction of pentan-1-ol	Relative permittivity at various frequencies	uncertainty
293.15	0	3.967	0.37
293.15	0.052	4.248	0.38
293.15	0.1079	4.563	0.391
293.15	0.1601	4.876	0.402
293.15	0.2014	5.146	0.411
293.15	0.31	5.924	0.437
293.15	0.3982	6.653	0.459
293.15	0.5031	7.689	0.489
293.15	0.6013	8.827	0.52
293.15	0.6916	10.025	0.551
293.15	0.7952	11.649	0.591
293.15	0.8396	12.419	0.609
293.15	0.9006	13.582	0.634
293.15	0.9431	14.457	0.653
293.15	1	15.701	0.678
298.15	0	3.905	0.367
298.15	0.052	4.176	0.377
298.15	0.1079	4.485	0.389
298.15	0.1601	4.785	0.399
298.15	0.2014	5.047	0.408
298.15	0.31	5.796	0.433
298.15	0.3982	6.494	0.454
298.15	0.5031	7.486	0.484
298.15	0.6013	8.567	0.513
298.15	0.6916	9.702	0.543
298.15	0.7952	11.246	0.581
298.15	0.8396	11.973	0.598
298.15	0.9006	13.084	0.623
298.15	0.9431	13.913	0.642
298.15	1	15.102	0.665
303.15	0	3.846	0.365
303.15	0.052	4.11	0.375
303.15	0.1079	4.408	0.386
303.15	0.1601	4.701	0.396
303.15	0.2014	4.957	0.405
303.15	0.31	5.675	0.429
303.15	0.3982	6.348	0.45
303.15	0.5031	7.298	0.478
303.15	0.6013	8.319	0.507
303.15	0.6916	9.397	0.535
303.15	0.7952	10.864	0.572
303.15	0.8396	11.555	0.589
303.15	0.9006	12.61	0.613
303.15	0.9431	13.397	0.63
303.15	1	14.536	0.654

System: pentan-1-ol + 1-hexanamine; phases: Liquid
Fixed: Pressure, kPa = 101
Property: Refractive index (Na D-line) (Liquid); method: Standard Abbe refractometry
Temperature, K	Mole fraction of pentan-1-ol	Refractive index (Na D-line)	uncertainty
293.15	0	1.41813	0.00033
293.15	0.0472	1.41838	0.00033
293.15	0.1005	1.41862	0.00033
293.15	0.1648	1.41884	0.00033
293.15	0.2022	1.41896	0.00033
293.15	0.3102	1.41908	0.00033
293.15	0.3982	1.41895	0.00033
293.15	0.5002	1.41846	0.00033
293.15	0.6005	1.41756	0.00033
293.15	0.7122	1.41609	0.00033
293.15	0.7963	1.41463	0.00033
293.15	0.8457	1.41364	0.00033
293.15	0.8982	1.41246	0.00033
293.15	0.9362	1.41153	0.00033
293.15	1	1.40985	0.00033
298.15	0	1.41563	0.00033
298.15	0.0472	1.41592	0.00033
298.15	0.1005	1.41622	0.00033
298.15	0.1648	1.41649	0.00033
298.15	0.2022	1.4166	0.00033
298.15	0.3102	1.41679	0.00033
298.15	0.3982	1.41671	0.00033
298.15	0.5002	1.41623	0.00033
298.15	0.6005	1.41543	0.00033
298.15	0.7122	1.41403	0.00033
298.15	0.7963	1.41259	0.00033
298.15	0.8457	1.41164	0.00033
298.15	0.8982	1.41048	0.00033
298.15	0.9362	1.40957	0.00033
298.15	1	1.40793	0.00033
303.15	0	1.41324	0.00033
303.15	0.0472	1.4136	0.00033
303.15	0.1005	1.41392	0.00033
303.15	0.1648	1.41424	0.00033
303.15	0.2022	1.41438	0.00033
303.15	0.3102	1.41458	0.00033
303.15	0.3982	1.41451	0.00033
303.15	0.5002	1.41407	0.00033
303.15	0.6005	1.41329	0.00033
303.15	0.7122	1.41193	0.00033
303.15	0.7963	1.41054	0.00033
303.15	0.8457	1.40958	0.00033
303.15	0.8982	1.40844	0.00033
303.15	0.9362	1.40754	0.00033
303.15	1	1.4059	0.00033

System: heptan-1-ol + 1-hexanamine; phases: Liquid
Fixed: Pressure, kPa = 101
Fixed: Frequency, MHz = 1
Property: Relative permittivity at various frequencies (Liquid); method: Parallel plate capacitor
Temperature, K	Mole fraction of heptan-1-ol	Relative permittivity at various frequencies	uncertainty
293.15	0	3.963	0.369
293.15	0.0503	4.202	0.378
293.15	0.095	4.414	0.386
293.15	0.1606	4.731	0.397
293.15	0.2073	4.97	0.405
293.15	0.3067	5.497	0.423
293.15	0.4038	6.064	0.441
293.15	0.4991	6.671	0.46
293.15	0.6036	7.425	0.482
293.15	0.7001	8.239	0.504
293.15	0.8007	9.272	0.532
293.15	0.8524	9.877	0.547
293.15	0.8904	10.381	0.56
293.15	0.9402	11.091	0.577
293.15	1	12.019	0.598
298.15	0	3.903	0.367
298.15	0.0503	4.133	0.376
298.15	0.095	4.339	0.383
298.15	0.1606	4.644	0.394
298.15	0.2073	4.882	0.402
298.15	0.3067	5.392	0.419
298.15	0.4038	5.934	0.437
298.15	0.4991	6.508	0.455
298.15	0.6036	7.224	0.476
298.15	0.7001	7.981	0.497
298.15	0.8007	8.951	0.524
298.15	0.8524	9.521	0.538
298.15	0.8904	9.983	0.55
298.15	0.9402	10.642	0.567
298.15	1	11.504	0.586
303.15	0	3.848	0.365
303.15	0.0503	4.07	0.374
303.15	0.095	4.271	0.381
303.15	0.1606	4.567	0.391
303.15	0.2073	4.796	0.399
303.15	0.3067	5.291	0.416
303.15	0.4038	5.811	0.433
303.15	0.4991	6.358	0.45
303.15	0.6036	7.035	0.47
303.15	0.7001	7.746	0.491
303.15	0.8007	8.651	0.516
303.15	0.8524	9.177	0.529
303.15	0.8904	9.607	0.541
303.15	0.9402	10.222	0.556
303.15	1	11.014	0.575

System: heptan-1-ol + 1-hexanamine; phases: Liquid
Fixed: Pressure, kPa = 101
Property: Refractive index (Na D-line) (Liquid); method: Standard Abbe refractometry
Temperature, K	Mole fraction of heptan-1-ol	Refractive index (Na D-line)	uncertainty
293.15	0	1.41807	0.00033
293.15	0.056	1.41916	0.00033
293.15	0.1018	1.41999	0.00033
293.15	0.1463	1.42077	0.00033
293.15	0.2047	1.42171	0.00033
293.15	0.3044	1.4231	0.00033
293.15	0.4059	1.42423	0.00033
293.15	0.5044	1.42503	0.00033
293.15	0.602	1.4255	0.00033
293.15	0.7029	1.42563	0.00033
293.15	0.7979	1.42545	0.00033
293.15	0.8534	1.42521	0.00033
293.15	0.8986	1.42496	0.00033
293.15	0.9472	1.42464	0.00033
293.15	1	1.42425	0.00033
298.15	0	1.41563	0.00033
298.15	0.056	1.41674	0.00033
298.15	0.1018	1.41761	0.00033
298.15	0.1463	1.4184	0.00033
298.15	0.2047	1.41937	0.00033
298.15	0.3044	1.4208	0.00033
298.15	0.4059	1.42197	0.00033
298.15	0.5044	1.4228	0.00033
298.15	0.602	1.42331	0.00033
298.15	0.7029	1.42351	0.00033
298.15	0.7979	1.42339	0.00033
298.15	0.8534	1.4232	0.00033
298.15	0.8986	1.42299	0.00033
298.15	0.9472	1.42271	0.00033
298.15	1	1.42235	0.00033
303.15	0	1.41321	0.00033
303.15	0.056	1.41434	0.00033
303.15	0.1018	1.41523	0.00033
303.15	0.1463	1.41604	0.00033
303.15	0.2047	1.41703	0.00033
303.15	0.3044	1.41853	0.00033
303.15	0.4059	1.41974	0.00033
303.15	0.5044	1.42062	0.00033
303.15	0.602	1.42116	0.00033
303.15	0.7029	1.42142	0.00033
303.15	0.7979	1.42136	0.00033
303.15	0.8534	1.4212	0.00033
303.15	0.8986	1.42103	0.00033
303.15	0.9472	1.42079	0.00033
303.15	1	1.42047	0.00033
