Measured thermophysical data. Solubility and thermodynamic functions of cefazolin acid in pure and mixed solvents at (278.15 308.15) K
Source: Fluid Phase Equilib., 2015, 10.1016/j.fluid.2014.12.020
Compound 1: cefazolin acid, C14H14N8O4S3, InChI=1S/C14H14N8O4S3/c1-6-17-18-14(29-6)28-4-7-3-27-12-9(11(24)22(12)10(7)13(25)26)16-8(23)2-21-5-15-19-20-21/h5,9,12H,2-4H2,1H3,(H,16,23)(H,25,26)/t9-,12-/m1/s1, purity 99.5%
Compound 2: propan-2-ol, C3H8O, InChI=1S/C3H8O/c1-3(2)4/h3-4H,1-2H3, purity 99.5%
Compound 3: methanol, CH4O, InChI=1S/CH4O/c1-2/h2H,1H3, purity 99.5%
Compound 4: acetone, C3H6O, InChI=1S/C3H6O/c1-3(2)4/h1-2H3, purity 99.5%
Compound 5: dimethylformamide, C3H7NO, InChI=1S/C3H7NO/c1-4(2)3-5/h3H,1-2H3, purity 99.5%
Compound 6: water, H2O, InChI=1S/H2O/h1H2, purity 99%

System: propan-2-ol + cefazolin acid; phases: Liquid, Crystal
Fixed: Pressure, kPa = 101
Property: Mole fraction of cefazolin acid (Liquid); method: UV spectrophotometry
Temperature, K	Mole fraction of cefazolin acid	uncertainty
278.15	2.8427e-06	2.843e-07
283.15	2.8589e-06	2.866e-07
288.15	4.7864e-06	4.797e-07
293.15	5.8646e-06	5.871e-07
298.15	7.3357e-06	7.354e-07
303.15	1.0824e-05	1.084e-06
308.15	1.3262e-05	1.327e-06

System: water + cefazolin acid; phases: Liquid, Crystal
Fixed: Pressure, kPa = 101
Property: Mole fraction of cefazolin acid (Liquid); method: UV spectrophotometry
Temperature, K	Mole fraction of cefazolin acid	uncertainty
278.15	8.7146e-06	8.744e-07
283.15	1.2181e-05	1.219e-06
288.15	1.3775e-05	1.378e-06
293.15	1.5272e-05	1.528e-06
298.15	1.7913e-05	1.793e-06
303.15	2.2413e-05	2.243e-06
308.15	2.51e-05	2.511e-06

System: methanol + cefazolin acid; phases: Liquid, Crystal
Fixed: Pressure, kPa = 101
Property: Mole fraction of cefazolin acid (Liquid); method: UV spectrophotometry
Temperature, K	Mole fraction of cefazolin acid	uncertainty
278.15	7.8891e-05	7.891e-06
283.15	8.0391e-05	8.042e-06
288.15	9.3305e-05	9.334e-06
293.15	9.9217e-05	9.926e-06
298.15	0.00011148	1.116e-05
303.15	0.0001366	1.367e-05
308.15	0.00016511	1.652e-05

System: acetone + cefazolin acid; phases: Liquid, Crystal
Fixed: Pressure, kPa = 101
Property: Mole fraction of cefazolin acid (Liquid); method: UV spectrophotometry
Temperature, K	Mole fraction of cefazolin acid	uncertainty
278.15	7.9475e-05	7.993e-06
283.15	0.00012135	1.216e-05
288.15	0.00014666	1.468e-05
293.15	0.00016612	1.662e-05
298.15	0.00017812	1.782e-05
303.15	0.00019559	1.957e-05
308.15	0.0002126	2.127e-05

System: dimethylformamide + cefazolin acid; phases: Liquid, Crystal
Fixed: Pressure, kPa = 101
Property: Mole fraction of cefazolin acid (Liquid); method: UV spectrophotometry
Temperature, K	Mole fraction of cefazolin acid	uncertainty
278.15	0.14424	0.01443
283.15	0.16096	0.0161
288.15	0.1615	0.01615
293.15	0.16207	0.01621
298.15	0.16558	0.01656
303.15	0.16713	0.01672
308.15	0.16967	0.01697

System: propan-2-ol + dimethylformamide + cefazolin acid; phases: Liquid, Crystal
Fixed: Pressure, kPa = 101
Property: Mole fraction of cefazolin acid (Liquid); method: UV spectrophotometry
Temperature, K	Solvent: Mole fraction of propan-2-ol	Mole fraction of cefazolin acid	uncertainty
278.15	0.0999	0.12404	0.01241
278.15	0.1999	0.093008	0.009303
278.15	0.2999	0.060988	0.0061
278.15	0.3998	0.035002	0.003501
278.15	0.4998	0.01546	0.00155
278.15	0.5997	0.0054146	0.000543
278.15	0.6997	0.0014504	0.0001462
278.15	0.7997	0.00033163	3.361e-05
278.15	0.8999	4.4875e-05	4.489e-06
283.15	0.0999	0.12543	0.01255
283.15	0.1999	0.096598	0.009662
283.15	0.2999	0.061266	0.006128
283.15	0.3998	0.035513	0.003552
283.15	0.4998	0.0157	0.0016
283.15	0.5997	0.0054791	0.000548
283.15	0.6997	0.0014911	0.0001492
283.15	0.7997	0.00033963	3.397e-05
283.15	0.8999	4.9359e-05	4.939e-06
288.15	0.0999	0.12636	0.01264
288.15	0.1999	0.098872	0.00989
288.15	0.2999	0.062457	0.006247
288.15	0.3998	0.035822	0.003583
288.15	0.4998	0.015709	0.001571
288.15	0.5997	0.0055157	0.0005517
288.15	0.6997	0.0016482	0.0001649
288.15	0.7997	0.00038066	3.808e-05
288.15	0.8999	5.7356e-05	5.74e-06
293.15	0.0999	0.1268	0.0127
293.15	0.1999	0.10116	0.01012
293.15	0.2999	0.062829	0.006284
293.15	0.3998	0.036841	0.003685
293.15	0.4998	0.016038	0.001604
293.15	0.5997	0.0057477	0.000575
293.15	0.6997	0.0017589	0.0001759
293.15	0.7997	0.00041937	4.195e-05
293.15	0.8999	6.7581e-05	6.763e-06
298.15	0.0999	0.12719	0.01272
298.15	0.1999	0.10229	0.01023
298.15	0.2999	0.063537	0.006356
298.15	0.3998	0.03842	0.00384
298.15	0.4998	0.016227	0.001623
298.15	0.5997	0.0064584	0.0006461
298.15	0.6997	0.0018032	0.0001804
298.15	0.7997	0.0004475	4.48e-05
298.15	0.8999	7.9018e-05	7.908e-06
303.15	0.0999	0.12731	0.01273
303.15	0.1999	0.10236	0.01024
303.15	0.2999	0.070532	0.007056
303.15	0.3998	0.038693	0.00387
303.15	0.4998	0.017425	0.001743
303.15	0.5997	0.0069348	0.0006937
303.15	0.6997	0.001959	0.000196
303.15	0.7997	0.00053863	5.392e-05
303.15	0.8999	9.4806e-05	9.49e-06
308.15	0.0999	0.12753	0.01276
308.15	0.1999	0.10282	0.01028
308.15	0.2999	0.075131	0.007515
308.15	0.3998	0.039151	0.003918
308.15	0.4998	0.019943	0.001997
308.15	0.5997	0.0074146	0.000744
308.15	0.6997	0.0022974	0.0002318
308.15	0.7997	0.00067891	6.862e-05
308.15	0.8999	0.00011683	1.169e-05
