Measured thermophysical data. Molar volumes and viscosities of LiClO4 and LiBr in propylene carbonate + 1,2-dimethoxyethane mixed solvents at 298.15K
Source: Fluid Phase Equilib., 2006, 10.1016/j.fluid.2006.04.001
Compound 1: lithium perchlorate, ClLiO4, InChI=1S/ClHO4.Li/c2-1(3,4)5;/h(H,2,3,4,5);/q;+1/p-1
Compound 2: lithium bromide, BrLi, InChI=1S/BrH.Li/h1H;/q;+1/p-1
Compound 3: 4-methyl-1,3-dioxolan-2-one, C4H6O3, InChI=1S/C4H6O3/c1-3-2-6-4(5)7-3/h3H,2H2,1H3
Compound 4: 1,2-dimethoxyethane, C4H10O2, InChI=1S/C4H10O2/c1-5-3-4-6-2/h3-4H2,1-2H3

System: 4-methyl-1,3-dioxolan-2-one; phases: Liquid
Fixed: Pressure, kPa = 101
Fixed: Temperature, K = 298.15
Property: Mass density, kg/m3 (Liquid); method: VIBTUB:UFactor:4
Mass density, kg/m3	uncertainty
1199.44	0.72
1199.21	0.72

System: 4-methyl-1,3-dioxolan-2-one; phases: Liquid
Fixed: Temperature, K = 298.15
Fixed: Pressure, kPa = 101
Property: Viscosity, Pa*s (Liquid); method: Capillary tube (Ostwald; Ubbelohde) method
Viscosity, Pa*s	uncertainty
0.002507	2.3e-05
0.00251	2.4e-05

System: 1,2-dimethoxyethane; phases: Liquid
Fixed: Pressure, kPa = 101
Fixed: Temperature, K = 298.15
Property: Mass density, kg/m3 (Liquid); method: VIBTUB:UFactor:4
Mass density, kg/m3	uncertainty
861.31	0.49
861.52	0.49

System: 1,2-dimethoxyethane; phases: Liquid
Fixed: Temperature, K = 298.15
Fixed: Pressure, kPa = 101
Property: Viscosity, Pa*s (Liquid); method: Capillary tube (Ostwald; Ubbelohde) method
Viscosity, Pa*s	uncertainty
0.000412	4e-06
0.000413	4e-06

System: 4-methyl-1,3-dioxolan-2-one + 1,2-dimethoxyethane + lithium perchlorate; phases: Liquid
Fixed: Pressure, kPa = 101
Fixed: Temperature, K = 298.15
Property: Mass density, kg/m3 (Liquid); method: VIBTUB:UFactor:4
Solvent: Mole fraction of 1,2-dimethoxyethane	Molality, mol/kg of lithium perchlorate	Mass density, kg/m3	uncertainty
0	0	1199.44	0.72
0	0.01378	1200.45	0.73
0	0.02963	1201.61	0.73
0	0.04994	1202.09	0.73
0	0.06953	1204.5	0.74
0	0.0997	1206.66	0.74
0	0.1536	1210.48	0.75
0	0.2127	1214.66	0.75
0.2	0	1039.95	2.28
0.2	0.01483	1041.2	0.71
0.2	0.02516	1042.07	0.61
0.2	0.03531	1042.91	0.89
0.2	0.04963	1044.1	0.45
0.2	0.06462	1045.34	0.54
0.2	0.08335	1046.89	0.42
0.45	0	957.62	1.43
0.45	0.01871	959.2	7.43
0.45	0.02232	959.51	0.58
0.45	0.03515	960.59	0.37
0.45	0.05145	961.95	0.37
0.45	0.06693	963.24	0.37
0.45	0.07945	964.28	2.43
0.7	0	957.62	1.68
0.7	0.01871	959.2	8.29
0.7	0.02232	959.51	0.73
0.7	0.03515	960.59	0.42
0.7	0.05145	961.95	0.37
0.7	0.06693	963.24	0.37
0.7	0.07945	964.28	2.28
1	0	861.31	0.49
1	0.0151	862.55	0.49
1	0.02556	863.4	0.49
1	0.03544	864.2	0.49
1	0.05101	865.47	0.49
1	0.06535	866.63	0.49
1	0.07952	867.78	0.49

System: 4-methyl-1,3-dioxolan-2-one + 1,2-dimethoxyethane + lithium perchlorate; phases: Liquid
Fixed: Temperature, K = 298.15
Fixed: Pressure, kPa = 101
Property: Viscosity, Pa*s (Liquid); method: Capillary tube (Ostwald; Ubbelohde) method
Solvent: Mole fraction of 1,2-dimethoxyethane	Amount concentration (molarity), mol/dm3 of lithium perchlorate	Viscosity, Pa*s	uncertainty
0	0	0.002507	2.3e-05
0	0.01651	0.002554	2.4e-05
0	0.03549	0.002606	2.4e-05
0	0.05005	0.00265	2.5e-05
0	0.05976	0.002675	2.5e-05
0	0.08313	0.002741	2.6e-05
0	0.119	0.002849	2.7e-05
0.2	0	0.001617	1.5e-05
0.2	0.01714	0.001645	1.6e-05
0.2	0.02793	0.00166	1.6e-05
0.2	0.03964	0.001678	1.6e-05
0.2	0.05589	0.001705	1.6e-05
0.2	0.07216	0.001733	1.6e-05
0.2	0.09019	0.001762	1.7e-05
0.45	0	0.001009	1e-05
0.45	0.01542	0.001026	1e-05
0.45	0.02615	0.001035	1e-05
0.45	0.03668	0.001046	1e-05
0.45	0.05155	0.001059	1e-05
0.45	0.06709	0.001073	1e-05
0.45	0.08649	0.001092	1.1e-05
0.7	0	0.00066	7e-06
0.7	0.01791	0.000673	7e-06
0.7	0.02137	0.000675	7e-06
0.7	0.03364	0.000682	7e-06
0.7	0.04922	0.000692	7e-06
0.7	0.06401	0.000702	7e-06
0.7	0.07597	0.000708	7e-06
1	0	0.000412	4e-06
1	0.013	0.000416	4e-06
1	0.02201	0.000418	4e-06
1	0.03051	0.00042	4e-06
1	0.04391	0.000424	4e-06
1	0.05624	0.000427	4e-06
1	0.06843	0.000431	4e-06

System: 4-methyl-1,3-dioxolan-2-one + 1,2-dimethoxyethane + lithium bromide; phases: Liquid
Fixed: Temperature, K = 298.15
Fixed: Pressure, kPa = 101
Property: Mass density, kg/m3 (Liquid); method: VIBTUB:UFactor:4
Solvent: Mole fraction of 1,2-dimethoxyethane	Molality, mol/kg of lithium bromide	Mass density, kg/m3	uncertainty
0	0	1199.21	0.72
0	0.01499	1200.42	0.73
0	0.03048	1201.66	0.73
0	0.05002	1203.2	0.73
0	0.08114	1205.64	0.74
0	0.108	1207.73	0.74
0	0.152	1211.13	0.75
0.2	0	1126.24	0.57
0.2	0.02186	1127.97	0.58
0.2	0.03751	1129.19	0.58
0.2	0.05053	1130.17	0.58
0.2	0.06898	1131.57	0.59
0.2	0.08389	1132.67	0.59
0.2	0.1043	1134.2	0.62
0.45	0	1039.55	0.41
0.45	0.009946	1040.34	0.41
0.45	0.01988	1041.11	0.41
0.45	0.03478	1042.25	0.41
0.45	0.05013	1043.39	0.42
0.45	0.05973	1044.11	0.42
0.45	0.07632	1045.34	0.42
0.7	0	957.4	0.37
0.7	0.01538	958.58	0.38
0.7	0.02515	959.32	0.38
0.7	0.03666	960.16	0.37
0.7	0.05977	961.81	0.37
0.7	0.07955	963.22	0.37
0.7	0.09979	964.64	0.41
1	0	861.52	0.49
1	0.01982	862.95	0.49
1	0.03046	863.7	0.49
1	0.03923	864.32	0.49
1	0.04936	865.03	0.49
1	0.07861	867.05	0.49
1	0.09828	868.41	0.48

System: 4-methyl-1,3-dioxolan-2-one + 1,2-dimethoxyethane + lithium bromide; phases: Liquid
Fixed: Temperature, K = 298.15
Fixed: Pressure, kPa = 101
Property: Viscosity, Pa*s (Liquid); method: Capillary tube (Ostwald; Ubbelohde) method
Solvent: Mole fraction of 1,2-dimethoxyethane	Amount concentration (molarity), mol/dm3 of lithium bromide	Viscosity, Pa*s	uncertainty
0	0	0.00251	2.4e-05
0	0.01796	0.002561	2.4e-05
0	0.03652	0.002613	2.4e-05
0	0.0501	0.002657	2.5e-05
0	0.05993	0.002679	2.5e-05
0	0.09716	0.002805	2.6e-05
0	0.1292	0.002891	2.7e-05
0.2	0	0.001616	1.5e-05
0.2	0.02461	0.001653	1.6e-05
0.2	0.04222	0.001677	1.6e-05
0.2	0.05686	0.001697	1.6e-05
0.2	0.07759	0.001725	1.6e-05
0.2	0.09433	0.001748	1.7e-05
0.2	0.1172	0.001781	1.7e-05
0.45	0	0.001007	1e-05
0.45	0.01034	0.001017	1e-05
0.45	0.02066	0.001026	1e-05
0.45	0.03614	0.001038	1e-05
0.45	0.05208	0.001053	1e-05
0.45	0.06204	0.001058	1e-05
0.7	0	0.000659	7e-06
0.7	0.01472	0.000669	7e-06
0.7	0.02407	0.000673	7e-06
0.7	0.03509	0.000678	7e-06
0.7	0.05719	0.000689	7e-06
0.7	0.0761	0.000698	7e-06
0.7	0.09543	0.000706	7e-06
1	0	0.000413	4e-06
1	0.01707	0.000418	4e-06
1	0.02624	0.00042	4e-06
1	0.03379	0.000422	4e-06
1	0.04252	0.000423	4e-06
1	0.0677	0.000428	4e-06
1	0.08463	0.000432	4e-06

System: 4-methyl-1,3-dioxolan-2-one + lithium perchlorate; phases: Liquid
Fixed: Pressure, kPa = 101
Fixed: Temperature, K = 298.15
Property: Mass density, kg/m3 (Liquid); method: VIBTUB:UFactor:4
Molality, mol/kg of lithium perchlorate	Mass density, kg/m3	uncertainty
0.01378	1200.45	0.75
0.02963	1201.61	0.75
0.04994	1202.09	0.75
0.06953	1204.5	0.75
0.0997	1206.66	0.76
0.1536	1210.48	0.76
0.2127	1214.66	0.77

System: 4-methyl-1,3-dioxolan-2-one + lithium perchlorate; phases: Liquid
Fixed: Temperature, K = 298.15
Fixed: Pressure, kPa = 101
Property: Viscosity, Pa*s (Liquid); method: Capillary tube (Ostwald; Ubbelohde) method
Amount concentration (molarity), mol/dm3 of lithium perchlorate	Viscosity, Pa*s	uncertainty
0.01651	0.002554	2.4e-05
0.03549	0.002606	2.4e-05
0.05005	0.00265	2.5e-05
0.05976	0.002675	2.5e-05
0.08313	0.002741	2.6e-05
0.119	0.002849	2.7e-05

System: 4-methyl-1,3-dioxolan-2-one + 1,2-dimethoxyethane; phases: Liquid
Fixed: Pressure, kPa = 101
Fixed: Temperature, K = 298.15
Property: Mass density, kg/m3 (Liquid); method: VIBTUB:UFactor:4
Mole fraction of 1,2-dimethoxyethane	Mass density, kg/m3	uncertainty
0.2	1039.95	0.4
0.45	957.62	0.38
0.7	957.62	0.37
0.2	1126.24	0.57
0.45	1039.55	0.41
0.7	957.4	0.37

System: 4-methyl-1,3-dioxolan-2-one + 1,2-dimethoxyethane; phases: Liquid
Fixed: Temperature, K = 298.15
Fixed: Pressure, kPa = 101
Property: Viscosity, Pa*s (Liquid); method: Capillary tube (Ostwald; Ubbelohde) method
Mole fraction of 1,2-dimethoxyethane	Viscosity, Pa*s	uncertainty
0.2	0.001617	1.5e-05
0.45	0.001009	1e-05
0.7	0.00066	7e-06
0.2	0.001616	1.5e-05
0.45	0.001007	1e-05
0.7	0.000659	7e-06

System: 1,2-dimethoxyethane + lithium perchlorate; phases: Liquid
Fixed: Pressure, kPa = 101
Fixed: Temperature, K = 298.15
Property: Mass density, kg/m3 (Liquid); method: VIBTUB:UFactor:4
Molality, mol/kg of lithium perchlorate	Mass density, kg/m3	uncertainty
0.0151	862.55	0.55
0.02556	863.4	0.55
0.03544	864.2	0.55
0.05101	865.47	0.55
0.06535	866.63	0.55
0.07952	867.78	0.55

System: 1,2-dimethoxyethane + lithium perchlorate; phases: Liquid
Fixed: Temperature, K = 298.15
Fixed: Pressure, kPa = 101
Property: Viscosity, Pa*s (Liquid); method: Capillary tube (Ostwald; Ubbelohde) method
Amount concentration (molarity), mol/dm3 of lithium perchlorate	Viscosity, Pa*s	uncertainty
0.013	0.000416	4e-06
0.02201	0.000418	4e-06
0.03051	0.00042	4e-06
0.04391	0.000424	4e-06
0.05624	0.000427	4e-06
0.06843	0.000431	4e-06

System: 4-methyl-1,3-dioxolan-2-one + lithium bromide; phases: Liquid
Fixed: Temperature, K = 298.15
Fixed: Pressure, kPa = 101
Property: Mass density, kg/m3 (Liquid); method: VIBTUB:UFactor:4
Molality, mol/kg of lithium bromide	Mass density, kg/m3	uncertainty
0.01499	1200.42	0.72
0.03048	1201.66	0.73
0.05002	1203.2	0.73
0.08114	1205.64	0.74
0.108	1207.73	0.74
0.152	1211.13	0.74

System: 4-methyl-1,3-dioxolan-2-one + lithium bromide; phases: Liquid
Fixed: Temperature, K = 298.15
Fixed: Pressure, kPa = 101
Property: Viscosity, Pa*s (Liquid); method: Capillary tube (Ostwald; Ubbelohde) method
Amount concentration (molarity), mol/dm3 of lithium bromide	Viscosity, Pa*s	uncertainty
0.01796	0.002561	2.4e-05
0.03652	0.002613	2.4e-05
0.0501	0.002657	2.5e-05
0.05993	0.002679	2.5e-05
0.09716	0.002805	2.6e-05
0.1292	0.002891	2.7e-05

System: 1,2-dimethoxyethane + lithium bromide; phases: Liquid
Fixed: Temperature, K = 298.15
Fixed: Pressure, kPa = 101
Property: Mass density, kg/m3 (Liquid); method: VIBTUB:UFactor:4
Molality, mol/kg of lithium bromide	Mass density, kg/m3	uncertainty
0.01982	862.95	0.49
0.03046	863.7	0.49
0.03923	864.32	0.49
0.04936	865.03	0.49
0.07861	867.05	0.49
0.09828	868.41	0.48

System: 1,2-dimethoxyethane + lithium bromide; phases: Liquid
Fixed: Temperature, K = 298.15
Fixed: Pressure, kPa = 101
Property: Viscosity, Pa*s (Liquid); method: Capillary tube (Ostwald; Ubbelohde) method
Amount concentration (molarity), mol/dm3 of lithium bromide	Viscosity, Pa*s	uncertainty
0.01707	0.000418	4e-06
0.02624	0.00042	4e-06
0.03379	0.000422	4e-06
0.04252	0.000423	4e-06
0.0677	0.000428	4e-06
0.08463	0.000432	4e-06
