Measured thermophysical data. Measurements of binary diffusion coefficients and retention factors for dibenzo-24-crown-8 and 15-crown-5 in supercritical carbon dioxide by chromatographic impulse response technique
Source: Fluid Phase Equilib., 2007, 10.1016/j.fluid.2007.01.035
Compound 1: dibenzo-24-crown-8, C24H32O8, InChI=1S/C24H32O8/c1-2-6-22-21(5-1)29-17-13-25-9-10-27-15-19-31-23-7-3-4-8-24(23)32-20-16-28-12-11-26-14-18-30-22/h1-8H,9-20H2
Compound 2: 1,4,7,10,13-pentaoxacyclopentadecane, C10H20O5, InChI=1S/C10H20O5/c1-2-12-5-6-14-9-10-15-8-7-13-4-3-11-1/h1-10H2
Compound 3: 2-methyl-3-(3,7,11,15-tetramethyl-2-hexadecenyl)-1,4-naphthoquinone, C31H46O2, InChI=1S/C31H46O2/c1-22(2)12-9-13-23(3)14-10-15-24(4)16-11-17-25(5)20-21-27-26(6)30(32)28-18-7-8-19-29(28)31(27)33/h7-8,18-20,22-24H,9-17,21H2,1-6H3/b25-20+/t23-,24-/m1/s1
Compound 4: carbon dioxide, CO2, InChI=1S/CO2/c2-1-3

System: carbon dioxide + dibenzo-24-crown-8; phases: Liquid, Gas
Property: Binary diffusion coefficient, m2/s (Liquid); method: Open capillary
Temperature, K	Pressure, kPa	Binary diffusion coefficient, m2/s	uncertainty
308.18	20000	4.88e-09	0.3
308.18	25070	4.58e-09	0.3
308.18	27000	4.49e-09	0.3
308.18	30000	4.35e-09	0.3
308.18	31570	4.3e-09	0.3
308.18	34000	4.14e-09	0.3
308.18	30000	4.34e-09	0.3
308.18	34000	4.15e-09	0.3
308.18	30000	4.36e-09	0.3
313.2	15010	6.12e-09	0.3
313.2	15980	5.98e-09	0.3
313.2	15990	5.96e-09	0.3
313.2	16000	5.96e-09	0.3
313.2	16990	5.84e-09	0.3
313.2	18000	5.72e-09	0.3
313.2	18010	5.8e-09	0.3
313.2	19000	5.58e-09	0.3
313.2	20000	5.49e-09	0.3
313.2	21000	5.39e-09	0.3
313.2	22000	5.31e-09	0.3
313.2	23000	5.26e-09	0.3
313.2	24000	5.18e-09	0.3
313.2	25000	5.11e-09	0.3
313.2	26000	5.04e-09	0.3
313.2	26010	5.07e-09	0.3
313.2	30000	4.89e-09	0.3
313.2	35000	4.61e-09	0.3
313.2	16000	5.98e-09	0.3

System: carbon dioxide + 1,4,7,10,13-pentaoxacyclopentadecane; phases: Liquid, Gas
Property: Binary diffusion coefficient, m2/s (Liquid); method: Open capillary
Temperature, K	Pressure, kPa	Binary diffusion coefficient, m2/s	uncertainty
308.18	7970	1.418e-08	0.5
308.18	9000	1.266e-08	0.5
308.18	11010	1.049e-08	0.5
308.18	14010	8.87e-09	0.5
313.2	8770	1.648e-08	0.5
313.2	8890	1.628e-08	0.5
313.2	8990	1.511e-08	0.5
313.2	9050	1.529e-08	0.5
313.2	9160	1.511e-08	0.5
313.2	9170	1.405e-08	0.5
313.2	9500	1.365e-08	0.5
313.2	9510	1.4e-08	0.5
313.2	9810	1.393e-08	0.5
313.2	9830	1.381e-08	0.5
313.2	10010	1.272e-08	0.5
313.2	11000	1.198e-08	0.5
313.2	11010	1.167e-08	0.5
313.2	12020	1.098e-08	0.5
313.2	13000	1.045e-08	0.5
313.2	15020	9.59e-09	0.5
313.2	16010	9.22e-09	0.5
313.2	18010	8.73e-09	0.5
313.2	22010	8.25e-09	0.5
313.2	24000	7.94e-09	0.5
313.2	26010	7.84e-09	0.5
313.2	29000	7.38e-09	0.5
313.2	30040	7.18e-09	0.5
313.2	11000	1.145e-08	0.5
313.2	11000	1.148e-08	0.5
313.2	11000	1.159e-08	0.5

System: 2-methyl-3-(3,7,11,15-tetramethyl-2-hexadecenyl)-1,4-naphthoquinone + carbon dioxide; phases: Liquid, Gas
Fixed: Temperature, K = 313.2
Property: Binary diffusion coefficient, m2/s (Liquid); method: OPENCP:UFactor:4
Pressure, kPa	Binary diffusion coefficient, m2/s	uncertainty
10000	8.19e-09	0.37
11000	7.42e-09	0.34
12010	7.07e-09	0.32
13010	6.53e-09	0.3
13020	6.58e-09	0.3
14010	6.61e-09	0.3
15000	6.32e-09	0.29
15990	6.15e-09	0.29
18010	6.05e-09	0.28
20000	5.72e-09	0.27
25000	5.23e-09	0.25
30000	4.69e-09	0.23
11000	7.46e-09	0.34
13010	7.02e-09	0.32
25000	5.13e-09	0.25
11000	7.71e-09	0.35
