Measured thermophysical data. Vapour liquid equilibrium of carboxylic acid systems: Propionic acid + valeric acid and isobutyric acid + valeric acid
Source: Fluid Phase Equilib., 2005, 10.1016/j.fluid.2005.08.006
Compound 1: hexane, C6H14, InChI=1S/C6H14/c1-3-5-6-4-2/h3-6H2,1-2H3, purity 99%
Compound 2: decane, C10H22, InChI=1S/C10H22/c1-3-5-7-9-10-8-6-4-2/h3-10H2,1-2H3, purity 99%
Compound 3: cyclohexane, C6H12, InChI=1S/C6H12/c1-2-4-6-5-3-1/h1-6H2, purity 99.5%
Compound 4: ethanol, C2H6O, InChI=1S/C2H6O/c1-2-3/h3H,2H2,1H3, purity 99.5%
Compound 5: propanoic acid, C3H6O2, InChI=1S/C3H6O2/c1-2-3(4)5/h2H2,1H3,(H,4,5), purity 99.5%
Compound 6: 2-methylpropanoic acid, C4H8O2, InChI=1S/C4H8O2/c1-3(2)4(5)6/h3H,1-2H3,(H,5,6), purity 99.5%
Compound 7: pentanoic acid, C5H10O2, InChI=1S/C5H10O2/c1-2-3-4-5(6)7/h2-4H2,1H3,(H,6,7), purity 99%

System: hexane; phases: Liquid
Property: Refractive index (Na D-line) (Liquid); method: Standard Abbe refractometry
Temperature, K	Pressure, kPa	Refractive index (Na D-line)	uncertainty
293.15	101.325	1.3749	0.0007

System: decane; phases: Liquid
Property: Refractive index (Na D-line) (Liquid); method: Standard Abbe refractometry
Temperature, K	Pressure, kPa	Refractive index (Na D-line)	uncertainty
293.15	101.325	1.4105	0.0007

System: cyclohexane; phases: Liquid
Property: Refractive index (Na D-line) (Liquid); method: Standard Abbe refractometry
Temperature, K	Pressure, kPa	Refractive index (Na D-line)	uncertainty
293.15	101.325	1.4265	0.0007

System: ethanol; phases: Liquid
Property: Refractive index (Na D-line) (Liquid); method: Standard Abbe refractometry
Temperature, K	Pressure, kPa	Refractive index (Na D-line)	uncertainty
293.15	101.325	1.3612	0.0007

System: propanoic acid; phases: Liquid
Property: Refractive index (Na D-line) (Liquid); method: Standard Abbe refractometry
Temperature, K	Pressure, kPa	Refractive index (Na D-line)	uncertainty
293.15	101.325	1.381	0.0007

System: 2-methylpropanoic acid; phases: Liquid
Property: Refractive index (Na D-line) (Liquid); method: Standard Abbe refractometry
Temperature, K	Pressure, kPa	Refractive index (Na D-line)	uncertainty
293.15	101.325	1.3933	0.0007

System: pentanoic acid; phases: Liquid
Property: Refractive index (Na D-line) (Liquid); method: Standard Abbe refractometry
Temperature, K	Pressure, kPa	Refractive index (Na D-line)	uncertainty
293.15	101.325	1.4087	0.0007

System: propanoic acid + pentanoic acid; phases: Liquid, Gas
Fixed: Pressure, kPa = 20
Property: Boiling temperature at pressure P, K (Liquid); method: Ebulliometric method (Recirculating still)
Mole fraction of propanoic acid	Boiling temperature at pressure P, K	uncertainty
0.035	408.19	0.61
0.121	402.3	0.61
0.201	397.85	0.61
0.287	393.63	0.61
0.38	390.14	0.61
0.516	385.79	0.61
0.673	380.23	0.61
0.787	376.69	0.61
0.88	373.45	0.61
0.922	371.9	0.61
0.955	370.82	0.61
0.973	370.01	0.61

System: propanoic acid + pentanoic acid; phases: Liquid, Gas
Property: Vapor or sublimation pressure, kPa (Liquid); method: EBULLIO:UFactor:16
Mole fraction of propanoic acid	Temperature, K	Vapor or sublimation pressure, kPa	uncertainty
0.005	403.15	15.23	1.43
0.007	413.15	22.24	1.52
0.025	393.15	10.78	1.38
0.025	413.15	23.35	1.54
0.029	403.15	16.51	1.45
0.06	393.15	12.05	1.39
0.084	403.15	18.78	1.47
0.086	413.15	27.33	1.58
0.147	413.15	30.85	1.63
0.151	393.15	15.21	1.43
0.153	403.15	21.31	1.51
0.258	403.15	26.2	1.57
0.261	413.15	38.41	1.72
0.264	393.15	18.73	1.47
0.403	413.15	48.71	1.85
0.417	403.15	34.64	1.67
0.418	393.15	24.49	1.55
0.483	413.15	54.24	1.92
0.588	393.15	31.56	1.63
0.598	403.15	44.9	1.8
0.634	413.15	65.9	2.06
0.726	393.15	37.51	1.71
0.728	403.15	52.25	1.89
0.794	413.15	78.93	2.23
0.847	403.15	60.04	1.99
0.849	393.15	43.13	1.78
0.897	413.15	88.9	2.35
0.926	393.15	46.92	1.82
0.928	403.15	65.8	2.06
0.965	393.15	48.16	1.84
0.98	393.15	48.76	1.85
0.985	403.15	68.85	2.13
0.986	413.15	96.1	2.48
0.99	393.15	49.48	1.86
0.993	413.15	97.72	2.5
0.994	403.15	69.87	2.19

System: propanoic acid + pentanoic acid; phases: Gas, Liquid
Property: Mole fraction of propanoic acid (Gas); method: CHROM:UFactor:4
Mole fraction of propanoic acid	Temperature, K	Mole fraction of propanoic acid	uncertainty
0.005	403.15	0.033	0.008
0.007	413.15	0.029	0.007
0.025	393.15	0.111	0.008
0.025	413.15	0.093	0.007
0.029	403.15	0.152	0.009
0.035	408.19	0.133	0.006
0.06	393.15	0.235	0.01
0.084	403.15	0.334	0.014
0.086	413.15	0.255	0.011
0.121	402.3	0.351	0.014
0.147	413.15	0.382	0.015
0.151	393.15	0.457	0.017
0.153	403.15	0.472	0.018
0.201	397.85	0.498	0.019
0.258	403.15	0.613	0.015
0.261	413.15	0.568	0.016
0.264	393.15	0.615	0.015
0.287	393.63	0.628	0.014
0.38	390.14	0.718	0.011
0.403	413.15	0.714	0.011
0.417	403.15	0.756	0.009
0.418	393.15	0.761	0.009
0.483	413.15	0.769	0.009
0.516	385.79	0.821	0.007
0.588	393.15	0.859	0.005
0.598	403.15	0.854	0.006
0.634	413.15	0.861	0.005
0.673	380.23	0.904	0.004
0.726	393.15	0.916	0.004
0.728	403.15	0.911	0.004
0.787	376.69	0.941	0.003
0.794	413.15	0.93	0.003
0.847	403.15	0.953	0.003
0.849	393.15	0.956	0.003
0.88	373.45	0.967	0.002
0.897	413.15	0.967	0.002
0.922	371.9	0.979	0.002
0.926	393.15	0.978	0.002
0.928	403.15	0.975	0.002
0.955	370.82	0.987	0.002
0.965	393.15	0.99	0.002
0.973	370.01	0.992	0.002
0.98	393.15	0.994	0.002
0.985	403.15	0.994	0.002
0.986	413.15	0.995	0.002
0.99	393.15	0.997	0.002
0.993	413.15	0.998	0.002
0.994	403.15	0.998	0.002

System: 2-methylpropanoic acid + pentanoic acid; phases: Liquid, Gas
Fixed: Pressure, kPa = 20
Property: Boiling temperature at pressure P, K (Liquid); method: Ebulliometric method (Recirculating still)
Mole fraction of 2-methylpropanoic acid	Boiling temperature at pressure P, K	uncertainty
0.013	410.95	0.61
0.022	410.48	0.61
0.052	409.11	0.61
0.12	406.53	0.61
0.221	402.85	0.61
0.445	396.75	0.61
0.593	392.76	0.61
0.82	387.52	0.61
0.924	384.85	0.61
0.964	383.68	0.61
0.982	383.05	0.61
0.99	382.66	0.61

System: 2-methylpropanoic acid + pentanoic acid; phases: Liquid, Gas
Property: Vapor or sublimation pressure, kPa (Liquid); method: Ebulliometric method (Recirculating still)
Mole fraction of 2-methylpropanoic acid	Temperature, K	Vapor or sublimation pressure, kPa	uncertainty
0.008	413.15	21.7	0.11
0.009	393.15	10.12	0.09
0.009	403.15	14.94	0.1
0.023	413.15	22.13	0.11
0.024	403.15	15.23	0.1
0.025	393.15	10.36	0.09
0.047	403.15	15.85	0.1
0.048	393.15	10.8	0.09
0.048	413.15	23.07	0.11
0.104	413.15	25	0.11
0.106	403.15	17.25	0.1
0.11	393.15	11.78	0.09
0.222	413.15	29.43	0.12
0.226	393.15	13.8	0.09
0.226	403.15	20.35	0.1
0.367	413.15	34.79	0.12
0.371	393.15	16.8	0.1
0.371	403.15	24.43	0.11
0.554	413.15	42.47	0.13
0.556	403.15	29.81	0.11
0.557	393.15	20.49	0.1
0.67	403.15	33.69	0.12
0.673	413.15	48.9	0.14
0.678	393.15	23.71	0.1
0.772	413.15	54.37	0.14
0.816	393.15	27.13	0.11
0.819	403.15	39.09	0.12
0.873	413.15	59.33	0.14
0.897	403.15	41.94	0.12
0.898	393.15	29.11	0.11
0.927	413.15	61.88	0.14
0.966	403.15	44.18	0.12
0.968	393.15	30.32	0.11
0.988	393.15	30.76	0.11
0.99	403.15	44.97	0.16
0.991	413.15	64.24	0.14

System: 2-methylpropanoic acid + pentanoic acid; phases: Gas, Liquid
Property: Mole fraction of 2-methylpropanoic acid (Gas); method: CHROM:UFactor:4
Mole fraction of 2-methylpropanoic acid	Temperature, K	Mole fraction of 2-methylpropanoic acid	uncertainty
0.008	413.15	0.021	0.005
0.009	393.15	0.024	0.005
0.009	403.15	0.024	0.005
0.013	410.95	0.034	0.004
0.022	410.48	0.054	0.004
0.023	413.15	0.054	0.005
0.024	403.15	0.058	0.005
0.025	393.15	0.061	0.006
0.047	403.15	0.112	0.006
0.048	393.15	0.115	0.006
0.048	413.15	0.107	0.006
0.052	409.11	0.123	0.006
0.104	413.15	0.216	0.009
0.106	403.15	0.229	0.009
0.11	393.15	0.244	0.01
0.12	406.53	0.256	0.01
0.221	402.85	0.424	0.016
0.222	413.15	0.405	0.015
0.226	393.15	0.445	0.017
0.226	403.15	0.429	0.017
0.367	413.15	0.59	0.016
0.371	393.15	0.628	0.014
0.371	403.15	0.615	0.015
0.445	396.75	0.683	0.012
0.554	413.15	0.764	0.009
0.556	403.15	0.775	0.009
0.557	393.15	0.779	0.008
0.593	392.76	0.8	0.008
0.67	403.15	0.85	0.006
0.673	413.15	0.847	0.006
0.678	393.15	0.856	0.006
0.772	413.15	0.903	0.004
0.816	393.15	0.925	0.003
0.819	403.15	0.925	0.003
0.82	387.52	0.926	0.004
0.873	413.15	0.944	0.003
0.897	403.15	0.957	0.003
0.898	393.15	0.958	0.003
0.924	384.85	0.969	0.002
0.927	413.15	0.969	0.002
0.964	383.68	0.985	0.002
0.966	403.15	0.985	0.002
0.968	393.15	0.987	0.002
0.982	383.05	0.992	0.002
0.988	393.15	0.995	0.002
0.99	382.66	0.995	0.002
0.99	403.15	0.996	0.002
0.991	413.15	0.996	0.002
