Measured thermophysical data. Effective extraction of benzene and thiophene by novel deep eutectic solvents from hexane / aromatic mixture at different temperatures
Source: Fluid Phase Equilib., 2019, 10.1016/j.fluid.2018.11.025
Compound 1: hexane, C6H14, InChI=1S/C6H14/c1-3-5-6-4-2/h3-6H2,1-2H3, purity 99%
Compound 2: 1,2-ethanediol, C2H6O2, InChI=1S/C2H6O2/c3-1-2-4/h3-4H,1-2H2, purity 99.8%
Compound 3: diethylene glycol, C4H10O3, InChI=1S/C4H10O3/c5-1-3-7-4-2-6/h5-6H,1-4H2, purity 99.8%
Compound 4: triethylene glycol, C6H14O4, InChI=1S/C6H14O4/c7-1-3-9-5-6-10-4-2-8/h7-8H,1-6H2, purity 99%
Compound 5: 2-aminoethan-1-ol, C2H7NO, InChI=1S/C2H7NO/c3-1-2-4/h4H,1-3H2, purity 99%
Compound 6: diethanolamine, C4H11NO2, InChI=1S/C4H11NO2/c6-3-1-5-2-4-7/h5-7H,1-4H2, purity 98.5%
Compound 7: triethanolamine, C6H15NO3, InChI=1S/C6H15NO3/c8-4-1-7(2-5-9)3-6-10/h8-10H,1-6H2, purity 99%
Compound 8: choline chloride, C5H14ClNO, InChI=1S/C5H14NO.ClH/c1-6(2,3)4-5-7;/h7H,4-5H2,1-3H3;1H/q+1;/p-1, purity 99%
Compound 9: benzene, C6H6, InChI=1S/C6H6/c1-2-4-6-5-3-1/h1-6H, purity 99.5%
Compound 10: thiophene, C4H4S, InChI=1S/C4H4S/c1-2-4-5-3-1/h1-4H, purity 99%

System: hexane + 1,2-ethanediol; phases: Liquid mixture 1, Liquid mixture 2
Property: Mole fraction of hexane (Liquid mixture 1); method: Titration method
Temperature, K	Pressure, kPa	Mole fraction of hexane	uncertainty
298.2	101	0.01	0.003

System: hexane + diethylene glycol; phases: Liquid mixture 1, Liquid mixture 2
Property: Mole fraction of hexane (Liquid mixture 1); method: Titration method
Temperature, K	Pressure, kPa	Mole fraction of hexane	uncertainty
298.2	101	0.009	0.003

System: hexane + triethylene glycol; phases: Liquid mixture 1, Liquid mixture 2
Property: Mole fraction of hexane (Liquid mixture 1); method: Titration method
Temperature, K	Pressure, kPa	Mole fraction of hexane	uncertainty
298.2	101	0.011	0.003

System: hexane + 2-aminoethan-1-ol; phases: Liquid mixture 1, Liquid mixture 2
Property: Mole fraction of hexane (Liquid mixture 1); method: Titration method
Temperature, K	Pressure, kPa	Mole fraction of hexane	uncertainty
298.2	101	0.012	0.003

System: hexane + diethanolamine; phases: Liquid mixture 1, Liquid mixture 2
Property: Mole fraction of hexane (Liquid mixture 1); method: Titration method
Temperature, K	Pressure, kPa	Mole fraction of hexane	uncertainty
298.2	101	0.012	0.003

System: hexane + triethanolamine; phases: Liquid mixture 1, Liquid mixture 2
Property: Mole fraction of hexane (Liquid mixture 1); method: Titration method
Temperature, K	Pressure, kPa	Mole fraction of hexane	uncertainty
298.2	101	0.014	0.003

System: hexane + choline chloride + 1,2-ethanediol; phases: Liquid mixture 1, Liquid mixture 2
Fixed: Pressure, kPa = 101
Fixed: Temperature, K = 298.2
Property: Mole fraction of hexane (Liquid mixture 1); method: Titration method
Solvent: Mole fraction of choline chloride	Mole fraction of hexane	uncertainty
0.167	0.009	0.003
0.125	0.01	0.003

System: hexane + choline chloride + diethylene glycol; phases: Liquid mixture 1, Liquid mixture 2
Fixed: Pressure, kPa = 101
Fixed: Temperature, K = 298.2
Property: Mole fraction of hexane (Liquid mixture 1); method: Titration method
Solvent: Mole fraction of choline chloride	Mole fraction of hexane	uncertainty
0.167	0.01	0.003
0.125	0.011	0.003

System: hexane + choline chloride + triethylene glycol; phases: Liquid mixture 1, Liquid mixture 2
Fixed: Pressure, kPa = 101
Fixed: Temperature, K = 298.2
Property: Mole fraction of hexane (Liquid mixture 1); method: Titration method
Solvent: Mole fraction of choline chloride	Mole fraction of hexane	uncertainty
0.167	0.007	0.003
0.125	0.009	0.003

System: hexane + choline chloride + 2-aminoethan-1-ol; phases: Liquid mixture 1, Liquid mixture 2
Fixed: Pressure, kPa = 101
Fixed: Temperature, K = 298.2
Property: Mole fraction of hexane (Liquid mixture 1); method: Titration method
Solvent: Mole fraction of choline chloride	Mole fraction of hexane	uncertainty
0.167	0.016	0.003
0.125	0.017	0.003

System: hexane + choline chloride + diethanolamine; phases: Liquid mixture 1, Liquid mixture 2
Fixed: Pressure, kPa = 101
Fixed: Temperature, K = 298.2
Property: Mole fraction of hexane (Liquid mixture 1); method: Titration method
Solvent: Mole fraction of choline chloride	Mole fraction of hexane	uncertainty
0.167	0.015	0.003
0.125	0.011	0.003

System: hexane + choline chloride + triethanolamine; phases: Liquid mixture 1, Liquid mixture 2
Fixed: Pressure, kPa = 101
Fixed: Temperature, K = 298.2
Property: Mole fraction of hexane (Liquid mixture 1); method: Titration method
Solvent: Mole fraction of choline chloride	Mole fraction of hexane	uncertainty
0.167	0.018	0.003
0.125	0.015	0.003

System: benzene + 1,2-ethanediol; phases: Liquid mixture 1, Liquid mixture 2
Property: Mole fraction of benzene (Liquid mixture 1); method: Titration method
Temperature, K	Pressure, kPa	Mole fraction of benzene	uncertainty
298.2	101	0.034	0.003

System: benzene + diethylene glycol; phases: Liquid mixture 1, Liquid mixture 2
Property: Mole fraction of benzene (Liquid mixture 1); method: Titration method
Temperature, K	Pressure, kPa	Mole fraction of benzene	uncertainty
298.2	101	0.03	0.003

System: benzene + triethylene glycol; phases: Liquid mixture 1, Liquid mixture 2
Property: Mole fraction of benzene (Liquid mixture 1); method: Titration method
Temperature, K	Pressure, kPa	Mole fraction of benzene	uncertainty
298.2	101	0.023	0.003

System: benzene + 2-aminoethan-1-ol; phases: Liquid mixture 1, Liquid mixture 2
Property: Mole fraction of benzene (Liquid mixture 1); method: Titration method
Temperature, K	Pressure, kPa	Mole fraction of benzene	uncertainty
298.2	101	0.098	0.003

System: benzene + diethanolamine; phases: Liquid mixture 1, Liquid mixture 2
Property: Mole fraction of benzene (Liquid mixture 1); method: Titration method
Temperature, K	Pressure, kPa	Mole fraction of benzene	uncertainty
298.2	101	0.087	0.003

System: benzene + triethanolamine; phases: Liquid mixture 1, Liquid mixture 2
Property: Mole fraction of benzene (Liquid mixture 1); method: Titration method
Temperature, K	Pressure, kPa	Mole fraction of benzene	uncertainty
298.2	101	0.08	0.003

System: benzene + choline chloride + 1,2-ethanediol; phases: Liquid mixture 1, Liquid mixture 2
Fixed: Pressure, kPa = 101
Fixed: Temperature, K = 298.2
Property: Mole fraction of benzene (Liquid mixture 1); method: Titration method
Solvent: Mole fraction of choline chloride	Mole fraction of benzene	uncertainty
0.167	0.042	0.003
0.125	0.033	0.003

System: benzene + choline chloride + diethylene glycol; phases: Liquid mixture 1, Liquid mixture 2
Fixed: Pressure, kPa = 101
Fixed: Temperature, K = 298.2
Property: Mole fraction of benzene (Liquid mixture 1); method: Titration method
Solvent: Mole fraction of choline chloride	Mole fraction of benzene	uncertainty
0.167	0.035	0.003
0.125	0.031	0.003

System: benzene + choline chloride + triethylene glycol; phases: Liquid mixture 1, Liquid mixture 2
Fixed: Pressure, kPa = 101
Fixed: Temperature, K = 298.2
Property: Mole fraction of benzene (Liquid mixture 1); method: Titration method
Solvent: Mole fraction of choline chloride	Mole fraction of benzene	uncertainty
0.167	0.027	0.003
0.125	0.023	0.003

System: benzene + choline chloride + 2-aminoethan-1-ol; phases: Liquid mixture 1, Liquid mixture 2
Fixed: Pressure, kPa = 101
Fixed: Temperature, K = 298.2
Property: Mole fraction of benzene (Liquid mixture 1); method: Titration method
Solvent: Mole fraction of choline chloride	Mole fraction of benzene	uncertainty
0.167	0.114	0.004
0.125	0.092	0.004

System: benzene + choline chloride + diethanolamine; phases: Liquid mixture 1, Liquid mixture 2
Fixed: Pressure, kPa = 101
Fixed: Temperature, K = 298.2
Property: Mole fraction of benzene (Liquid mixture 1); method: Titration method
Solvent: Mole fraction of choline chloride	Mole fraction of benzene	uncertainty
0.167	0.109	0.004
0.125	0.089	0.004

System: benzene + choline chloride + triethanolamine; phases: Liquid mixture 1, Liquid mixture 2
Fixed: Pressure, kPa = 101
Fixed: Temperature, K = 298.2
Property: Mole fraction of benzene (Liquid mixture 1); method: Titration method
Solvent: Mole fraction of choline chloride	Mole fraction of benzene	uncertainty
0.167	0.095	0.004
0.125	0.078	0.004

System: thiophene + 1,2-ethanediol; phases: Liquid mixture 1, Liquid mixture 2
Property: Mole fraction of thiophene (Liquid mixture 1); method: Titration method
Temperature, K	Pressure, kPa	Mole fraction of thiophene	uncertainty
298.2	101	0.066	0.003

System: thiophene + diethylene glycol; phases: Liquid mixture 1, Liquid mixture 2
Property: Mole fraction of thiophene (Liquid mixture 1); method: Titration method
Temperature, K	Pressure, kPa	Mole fraction of thiophene	uncertainty
298.2	101	0.061	0.003

System: thiophene + triethylene glycol; phases: Liquid mixture 1, Liquid mixture 2
Property: Mole fraction of thiophene (Liquid mixture 1); method: Titration method
Temperature, K	Pressure, kPa	Mole fraction of thiophene	uncertainty
298.2	101	0.058	0.003

System: thiophene + 2-aminoethan-1-ol; phases: Liquid mixture 1, Liquid mixture 2
Property: Mole fraction of thiophene (Liquid mixture 1); method: Titration method
Temperature, K	Pressure, kPa	Mole fraction of thiophene	uncertainty
298.2	101	0.117	0.003

System: thiophene + diethanolamine; phases: Liquid mixture 1, Liquid mixture 2
Property: Mole fraction of thiophene (Liquid mixture 1); method: Titration method
Temperature, K	Pressure, kPa	Mole fraction of thiophene	uncertainty
298.2	101	0.096	0.003

System: thiophene + triethanolamine; phases: Liquid mixture 1, Liquid mixture 2
Property: Mole fraction of thiophene (Liquid mixture 1); method: Titration method
Temperature, K	Pressure, kPa	Mole fraction of thiophene	uncertainty
298.2	101	0.093	0.003

System: thiophene + choline chloride + 1,2-ethanediol; phases: Liquid mixture 1, Liquid mixture 2
Fixed: Pressure, kPa = 101
Fixed: Temperature, K = 298.2
Property: Mole fraction of thiophene (Liquid mixture 1); method: Titration method
Solvent: Mole fraction of choline chloride	Mole fraction of thiophene	uncertainty
0.167	0.071	0.004
0.125	0.062	0.004

System: thiophene + choline chloride + diethylene glycol; phases: Liquid mixture 1, Liquid mixture 2
Fixed: Pressure, kPa = 101
Fixed: Temperature, K = 298.2
Property: Mole fraction of thiophene (Liquid mixture 1); method: Titration method
Solvent: Mole fraction of choline chloride	Mole fraction of thiophene	uncertainty
0.167	0.067	0.004
0.125	0.062	0.004

System: thiophene + choline chloride + triethylene glycol; phases: Liquid mixture 1, Liquid mixture 2
Fixed: Pressure, kPa = 101
Fixed: Temperature, K = 298.2
Property: Mole fraction of thiophene (Liquid mixture 1); method: Titration method
Solvent: Mole fraction of choline chloride	Mole fraction of thiophene	uncertainty
0.167	0.062	0.004
0.125	0.058	0.003

System: thiophene + choline chloride + 2-aminoethan-1-ol; phases: Liquid mixture 1, Liquid mixture 2
Fixed: Pressure, kPa = 101
Fixed: Temperature, K = 298.2
Property: Mole fraction of thiophene (Liquid mixture 1); method: Titration method
Solvent: Mole fraction of choline chloride	Mole fraction of thiophene	uncertainty
0.167	0.145	0.005
0.125	0.112	0.004

System: thiophene + choline chloride + diethanolamine; phases: Liquid mixture 1, Liquid mixture 2
Fixed: Pressure, kPa = 101
Fixed: Temperature, K = 298.2
Property: Mole fraction of thiophene (Liquid mixture 1); method: Titration method
Solvent: Mole fraction of choline chloride	Mole fraction of thiophene	uncertainty
0.167	0.111	0.004
0.125	0.098	0.004

System: thiophene + choline chloride + triethanolamine; phases: Liquid mixture 1, Liquid mixture 2
Fixed: Pressure, kPa = 101
Fixed: Temperature, K = 298.2
Property: Mole fraction of thiophene (Liquid mixture 1); method: Titration method
Solvent: Mole fraction of choline chloride	Mole fraction of thiophene	uncertainty
0.167	0.106	0.004
0.125	0.096	0.004
