Measured thermophysical data. Solubility of 1-methyl-4-nitropyrazole in seventeen pure solvents at temperatures from 283.15 K to 323.15 K
Source: Fluid Phase Equilib., 2018, 10.1016/j.fluid.2018.05.023
Compound 1: 1-methyl-4-nitropyrazole, C4H5N3O2, InChI=1S/C4H5N3O2/c1-6-3-4(2-5-6)7(8)9/h2-3H,1H3
Compound 2: water, H2O, InChI=1S/H2O/h1H2, purity 99.8%
Compound 3: toluene, C7H8, InChI=1S/C7H8/c1-7-5-3-2-4-6-7/h2-6H,1H3, purity 99%
Compound 4: 1,2-dichlorobenzene, C6H4Cl2, InChI=1S/C6H4Cl2/c7-5-3-1-2-4-6(5)8/h1-4H, purity 99%
Compound 5: methanol, CH4O, InChI=1S/CH4O/c1-2/h2H,1H3, purity 99.5%
Compound 6: ethanol, C2H6O, InChI=1S/C2H6O/c1-2-3/h3H,2H2,1H3, purity 99.5%
Compound 7: propan-1-ol, C3H8O, InChI=1S/C3H8O/c1-2-3-4/h4H,2-3H2,1H3, purity 99%
Compound 8: propan-2-ol, C3H8O, InChI=1S/C3H8O/c1-3(2)4/h3-4H,1-2H3, purity 99%
Compound 9: butan-1-ol, C4H10O, InChI=1S/C4H10O/c1-2-3-4-5/h5H,2-4H2,1H3, purity 99%
Compound 10: butan-2-ol, C4H10O, InChI=1S/C4H10O/c1-3-4(2)5/h4-5H,3H2,1-2H3, purity 99%
Compound 11: pentan-1-ol, C5H12O, InChI=1S/C5H12O/c1-2-3-4-5-6/h6H,2-5H2,1H3, purity 99%
Compound 12: pentan-2-ol, C5H12O, InChI=1S/C5H12O/c1-3-4-5(2)6/h5-6H,3-4H2,1-2H3, purity 99%
Compound 13: methyl ethanoate, C3H6O2, InChI=1S/C3H6O2/c1-3(4)5-2/h1-2H3, purity 99%
Compound 14: ethyl acetate, C4H8O2, InChI=1S/C4H8O2/c1-3-6-4(2)5/h3H2,1-2H3, purity 99%
Compound 15: acetone, C3H6O, InChI=1S/C3H6O/c1-3(2)4/h1-2H3, purity 99%
Compound 16: butanone, C4H8O, InChI=1S/C4H8O/c1-3-4(2)5/h3H2,1-2H3, purity 99%
Compound 17: acetic acid, C2H4O2, InChI=1S/C2H4O2/c1-2(3)4/h1H3,(H,3,4), purity 99%
Compound 18: acetonitrile, C2H3N, InChI=1S/C2H3N/c1-2-3/h1H3, purity 99%

System: 1-methyl-4-nitropyrazole; phases: Crystal, Liquid, Air at 1 atmosphere
Property: Molar enthalpy of transition or fusion, kJ/mol (Crystal); method: DSC
Molar enthalpy of transition or fusion, kJ/mol	uncertainty
9.876	0.468

System: 1-methyl-4-nitropyrazole; phases: Crystal, Liquid, Air at 1 atmosphere
Property: Normal melting temperature, K (Crystal); method: DTA
Normal melting temperature, K	uncertainty
365.15	1.06

System: 1-methyl-4-nitropyrazole + toluene; phases: Liquid, Crystal
Fixed: Pressure, kPa = 101
Property: Mole fraction of 1-methyl-4-nitropyrazole (Liquid); method: gravimetric
Temperature, K	Mole fraction of 1-methyl-4-nitropyrazole	uncertainty
283.15	0.007138	0.007138
288.15	0.008233	0.008233
293.15	0.009504	0.009504
298.15	0.011192	0.011192
303.15	0.013156	0.013156
308.15	0.015635	0.015635
313.15	0.018851	0.018851
318.15	0.023173	0.023173
323.15	0.02756	0.02756

System: 1-methyl-4-nitropyrazole + 1,2-dichlorobenzene; phases: Liquid, Crystal
Fixed: Pressure, kPa = 101
Property: Mole fraction of 1-methyl-4-nitropyrazole (Liquid); method: gravimetric
Temperature, K	Mole fraction of 1-methyl-4-nitropyrazole	uncertainty
283.15	0.000121	0.000121
288.15	0.000147	0.000147
293.15	0.000179	0.000179
298.15	0.000215	0.000215
303.15	0.000266	0.000266
308.15	0.000331	0.000331
313.15	0.000402	0.000402
318.15	0.000492	0.000492
323.15	0.000607	0.000607

System: 1-methyl-4-nitropyrazole + water; phases: Liquid, Crystal
Fixed: Pressure, kPa = 101
Property: Mole fraction of 1-methyl-4-nitropyrazole (Liquid); method: gravimetric
Temperature, K	Mole fraction of 1-methyl-4-nitropyrazole	uncertainty
283.15	7.5e-05	7.5e-05
288.15	9.4e-05	9.4e-05
293.15	0.000113	0.000113
298.15	0.000127	0.000127
303.15	0.000154	0.000154
308.15	0.000181	0.000181
313.15	0.000222	0.000222
318.15	0.000273	0.000273
323.15	0.000331	0.000331

System: 1-methyl-4-nitropyrazole + methanol; phases: Liquid, Crystal
Fixed: Pressure, kPa = 101
Property: Mole fraction of 1-methyl-4-nitropyrazole (Liquid); method: gravimetric
Temperature, K	Mole fraction of 1-methyl-4-nitropyrazole	uncertainty
283.15	0.006278	0.006278
288.15	0.006992	0.006992
293.15	0.007544	0.007544
298.15	0.008347	0.008347
303.15	0.009231	0.009231
308.15	0.010284	0.010284
313.15	0.011324	0.011324
318.15	0.012633	0.012633
323.15	0.014006	0.014006

System: 1-methyl-4-nitropyrazole + ethanol; phases: Liquid, Crystal
Fixed: Pressure, kPa = 101
Property: Mole fraction of 1-methyl-4-nitropyrazole (Liquid); method: gravimetric
Temperature, K	Mole fraction of 1-methyl-4-nitropyrazole	uncertainty
283.15	0.004834	0.004834
288.15	0.005109	0.005109
293.15	0.005458	0.005458
298.15	0.005808	0.005808
303.15	0.006334	0.006334
308.15	0.006945	0.006945
313.15	0.007358	0.007358
318.15	0.007847	0.007847
323.15	0.008231	0.008231

System: 1-methyl-4-nitropyrazole + propan-1-ol; phases: Liquid, Crystal
Fixed: Pressure, kPa = 101
Property: Mole fraction of 1-methyl-4-nitropyrazole (Liquid); method: gravimetric
Temperature, K	Mole fraction of 1-methyl-4-nitropyrazole	uncertainty
283.15	0.002085	0.002085
288.15	0.002288	0.002288
293.15	0.002585	0.002585
298.15	0.002956	0.002956
303.15	0.003314	0.003314
308.15	0.003822	0.003822
313.15	0.004246	0.004246
318.15	0.004867	0.004867
323.15	0.005529	0.005529

System: 1-methyl-4-nitropyrazole + propan-2-ol; phases: Liquid, Crystal
Fixed: Pressure, kPa = 101
Property: Mole fraction of 1-methyl-4-nitropyrazole (Liquid); method: gravimetric
Temperature, K	Mole fraction of 1-methyl-4-nitropyrazole	uncertainty
283.15	0.001849	0.001849
288.15	0.002347	0.002347
293.15	0.002924	0.002924
298.15	0.003634	0.003634
303.15	0.004548	0.004548
308.15	0.005657	0.005657
313.15	0.00697	0.00697
318.15	0.008501	0.008501
323.15	0.01024	0.01024

System: 1-methyl-4-nitropyrazole + butan-1-ol; phases: Liquid, Crystal
Fixed: Pressure, kPa = 101
Property: Mole fraction of 1-methyl-4-nitropyrazole (Liquid); method: gravimetric
Temperature, K	Mole fraction of 1-methyl-4-nitropyrazole	uncertainty
283.15	0.002047	0.002047
288.15	0.00266	0.00266
293.15	0.00323	0.00323
298.15	0.004381	0.004381
303.15	0.005594	0.005594
308.15	0.007092	0.007092
313.15	0.0091	0.0091
318.15	0.012274	0.012274
323.15	0.015435	0.015435

System: 1-methyl-4-nitropyrazole + butan-2-ol; phases: Liquid, Crystal
Fixed: Pressure, kPa = 101
Property: Mole fraction of 1-methyl-4-nitropyrazole (Liquid); method: gravimetric
Temperature, K	Mole fraction of 1-methyl-4-nitropyrazole	uncertainty
283.15	0.000727	0.000727
288.15	0.000891	0.000891
293.15	0.001121	0.001121
298.15	0.001513	0.001513
303.15	0.002131	0.002131
308.15	0.002867	0.002867
313.15	0.003819	0.003819
318.15	0.005008	0.005008
323.15	0.006324	0.006324

System: 1-methyl-4-nitropyrazole + pentan-1-ol; phases: Liquid, Crystal
Fixed: Pressure, kPa = 101
Property: Mole fraction of 1-methyl-4-nitropyrazole (Liquid); method: gravimetric
Temperature, K	Mole fraction of 1-methyl-4-nitropyrazole	uncertainty
283.15	0.001598	0.001598
288.15	0.001824	0.001824
293.15	0.002103	0.002103
298.15	0.0024	0.0024
303.15	0.002775	0.002775
308.15	0.003247	0.003247
313.15	0.003801	0.003801
318.15	0.004694	0.004694
323.15	0.005401	0.005401

System: 1-methyl-4-nitropyrazole + pentan-2-ol; phases: Liquid, Crystal
Fixed: Pressure, kPa = 101
Property: Mole fraction of 1-methyl-4-nitropyrazole (Liquid); method: gravimetric
Temperature, K	Mole fraction of 1-methyl-4-nitropyrazole	uncertainty
283.15	0.000501	0.000501
288.15	0.000685	0.000685
293.15	0.000871	0.000871
298.15	0.0011	0.0011
303.15	0.001415	0.001415
308.15	0.001754	0.001754
313.15	0.002213	0.002213
318.15	0.002778	0.002778
323.15	0.00348	0.00348

System: 1-methyl-4-nitropyrazole + methyl ethanoate; phases: Liquid, Crystal
Fixed: Pressure, kPa = 101
Property: Mole fraction of 1-methyl-4-nitropyrazole (Liquid); method: gravimetric
Temperature, K	Mole fraction of 1-methyl-4-nitropyrazole	uncertainty
283.15	0.016142	0.016142
288.15	0.018531	0.018531
293.15	0.022003	0.022003
298.15	0.025507	0.025507
303.15	0.029314	0.029314
308.15	0.035081	0.035081
313.15	0.040119	0.04
318.15	0.046143	0.04
323.15	0.0519	0.04

System: 1-methyl-4-nitropyrazole + ethyl acetate; phases: Liquid, Crystal
Fixed: Pressure, kPa = 101
Property: Mole fraction of 1-methyl-4-nitropyrazole (Liquid); method: gravimetric
Temperature, K	Mole fraction of 1-methyl-4-nitropyrazole	uncertainty
283.15	0.012618	0.012618
288.15	0.0143	0.0143
293.15	0.016204	0.016204
298.15	0.018341	0.018341
303.15	0.020758	0.020758
308.15	0.023469	0.023469
313.15	0.026514	0.026514
318.15	0.029918	0.029918
323.15	0.033728	0.033728

System: 1-methyl-4-nitropyrazole + acetone; phases: Liquid, Crystal
Fixed: Pressure, kPa = 101
Property: Mole fraction of 1-methyl-4-nitropyrazole (Liquid); method: gravimetric
Temperature, K	Mole fraction of 1-methyl-4-nitropyrazole	uncertainty
283.15	0.01922	0.01922
288.15	0.023857	0.023857
293.15	0.029936	0.029936
298.15	0.037938	0.037938
303.15	0.048532	0.040001
308.15	0.062618	0.040002
313.15	0.081421	0.040003
318.15	0.10666	0.040005
323.15	0.140664	0.040007

System: 1-methyl-4-nitropyrazole + butanone; phases: Liquid, Crystal
Fixed: Pressure, kPa = 101
Property: Mole fraction of 1-methyl-4-nitropyrazole (Liquid); method: gravimetric
Temperature, K	Mole fraction of 1-methyl-4-nitropyrazole	uncertainty
283.15	0.0093	0.0093
288.15	0.009802	0.009802
293.15	0.011221	0.011221
298.15	0.013898	0.013898
303.15	0.016169	0.016169
308.15	0.017726	0.017726
313.15	0.021	0.021
318.15	0.024231	0.024231
323.15	0.028548	0.028548

System: 1-methyl-4-nitropyrazole + acetic acid; phases: Liquid, Crystal
Fixed: Pressure, kPa = 101
Property: Mole fraction of 1-methyl-4-nitropyrazole (Liquid); method: gravimetric
Temperature, K	Mole fraction of 1-methyl-4-nitropyrazole	uncertainty
283.15	0.000218	0.000218
288.15	0.000296	0.000296
293.15	0.00039	0.00039
298.15	0.000508	0.000508
303.15	0.000633	0.000633
308.15	0.000776	0.000776
313.15	0.000925	0.000925
318.15	0.001081	0.001081
323.15	0.001205	0.001205

System: 1-methyl-4-nitropyrazole + acetonitrile; phases: Liquid, Crystal
Fixed: Pressure, kPa = 101
Property: Mole fraction of 1-methyl-4-nitropyrazole (Liquid); method: gravimetric
Temperature, K	Mole fraction of 1-methyl-4-nitropyrazole	uncertainty
283.15	0.002986	0.002986
288.15	0.003344	0.003344
293.15	0.00423	0.00423
298.15	0.005074	0.005074
303.15	0.006	0.006
308.15	0.006732	0.006732
313.15	0.007564	0.007564
318.15	0.009368	0.009368
323.15	0.01172	0.01172
