Measured thermophysical data. Study of the pseudo-ternary aqueous two-phase systems of deep eutectic solvent (choline chloride:sugars) + K2HPO4 + water
Source: Fluid Phase Equilib., 2017, 10.1016/j.fluid.2017.05.018
Compound 1: choline chloride, C5H14ClNO, InChI=1S/C5H14NO.ClH/c1-6(2,3)4-5-7;/h7H,4-5H2,1-3H3;1H/q+1;/p-1, purity 98%
Compound 2: dipotassium hydrogen phosphate, HK2O4P, InChI=1S/2K.H3O4P/c;;1-5(2,3)4/h;;(H3,1,2,3,4)/q2*+1;/p-2, purity 98%
Compound 3: water, H2O, InChI=1S/H2O/h1H2

System: choline chloride + water + dipotassium hydrogen phosphate; phases: Liquid mixture 1, Liquid mixture 2
Fixed: Temperature, K = 298.15
Fixed: Pressure, kPa = 101.3
Property: Mass fraction of choline chloride (Liquid mixture 1); method: Titration method
Mass fraction of dipotassium hydrogen phosphate	Mass fraction of choline chloride	uncertainty
0.062	0.521	0.016
0.079	0.463	0.016
0.087	0.445	0.014
0.1	0.424	0.014
0.114	0.392	0.013
0.123	0.376	0.012
0.136	0.36	0.012
0.145	0.339	0.011
0.159	0.322	0.01
0.185	0.293	0.009
0.188	0.295	0.009
0.203	0.277	0.009
0.211	0.267	0.009
0.212	0.268	0.009
0.226	0.248	0.008
0.243	0.233	0.008
0.25	0.222	0.008
0.255	0.215	0.007
0.27	0.204	0.007
0.274	0.198	0.007
0.297	0.172	0.006
0.298	0.175	0.006
0.32	0.15	0.005
0.338	0.136	0.005
0.35	0.124	0.004
0.367	0.111	0.004
0.391	0.092	0.004
0.413	0.083	0.003
0.438	0.07	0.003
0.467	0.058	0.003
0.492	0.045	0.003
0.526	0.032	0.002
0.577	0.019	0.002

System: choline chloride + water + dipotassium hydrogen phosphate; phases: Liquid
Fixed: Temperature, K = 298.15
Fixed: Pressure, kPa = 101.3
Property: Mass density, kg/m3 (Liquid); method: Vibrating tube method
Mass fraction of dipotassium hydrogen phosphate	Mass fraction of choline chloride	Mass density, kg/m3	uncertainty
0.13	0.373	1157	2
0.111	0.405	1146	2
0.097	0.433	1135	2
0.082	0.467	1127	2
0.071	0.494	1125	2
0.063	0.517	1121	2
0.419	0.078	1457	2
0.451	0.062	1483	2
0.479	0.048	1489	2
0.495	0.045	1498	2
0.514	0.035	1499	2
0.533	0.028	1492	2

System: choline chloride + water + dipotassium hydrogen phosphate; phases: Liquid mixture 2, Liquid mixture 1
Fixed: Temperature, K = 298.15
Fixed: Pressure, kPa = 101.3
Property: Mass fraction of choline chloride (Liquid mixture 2); method: gravimetric method + binodal data
Property: Mass fraction of dipotassium hydrogen phosphate (Liquid mixture 1); method: gravimetric method + binodal data
Property: Mass fraction of choline chloride (Liquid mixture 1); method: gravimetric method + binodal data
Mass fraction of dipotassium hydrogen phosphate	Mass fraction of choline chloride	uncertainty	Mass fraction of dipotassium hydrogen phosphate	uncertainty	Mass fraction of choline chloride	uncertainty
0.495	0.045	0.009	0.082	0.009	0.467	
0.514	0.035	0.009	0.071	0.009	0.494	
0.533	0.028	0.009	0.063	0.009	0.517	
0.419	0.078	0.009	0.13	0.01	0.373	
0.451	0.062	0.009	0.111	0.009	0.405	
0.479	0.048	0.009	0.097	0.009	0.433	
