Measured thermophysical data. Differential scanning calorimetry determination of Solid-Liquid equilibria phase diagrams for binary monocarboxylic acids solutions
Source: Fluid Phase Equilib., 2019, 10.1016/j.fluid.2018.12.035
Compound 1: formic acid, CH2O2, InChI=1S/CH2O2/c2-1-3/h1H,(H,2,3), purity 99%
Compound 2: acetic acid, C2H4O2, InChI=1S/C2H4O2/c1-2(3)4/h1H3,(H,3,4), purity 99%
Compound 3: propanoic acid, C3H6O2, InChI=1S/C3H6O2/c1-2-3(4)5/h2H2,1H3,(H,4,5), purity 99%
Compound 4: butanoic acid, C4H8O2, InChI=1S/C4H8O2/c1-2-3-4(5)6/h2-3H2,1H3,(H,5,6), purity 99%
Compound 5: pentanoic acid, C5H10O2, InChI=1S/C5H10O2/c1-2-3-4-5(6)7/h2-4H2,1H3,(H,6,7), purity 99%

System: acetic acid + propanoic acid; phases: Liquid, Crystal
Fixed: Pressure, kPa = 84.5
Property: Solid-liquid equilibrium temperature, K (Liquid); method: DTA
Mole fraction of acetic acid	Solid-liquid equilibrium temperature, K	uncertainty
0	251	2
0.031	250	2
0.058	248	2
0.058	248	2
0.12	244	2
0.12	244	2
0.188	240	2
0.247	237	2
0.297	235	2
0.297	235	2
0.335	233	2
0.354	231	2

System: acetic acid + propanoic acid; phases: Liquid, Crystal
Fixed: Pressure, kPa = 84.5
Property: Solid-liquid equilibrium temperature, K (Liquid); method: DTA
Mole fraction of acetic acid	Solid-liquid equilibrium temperature, K	uncertainty
0.382	234	2
0.431	240	2
0.492	246	2
0.492	247	2
0.558	251	2
0.62	259	2
0.62	259	2
0.684	265	2
0.684	265	2
0.743	270	2
0.743	269	2
0.79	274	2
0.79	274	2
0.858	280	2
0.858	280	2
0.913	285	2
0.913	284	2
0.971	290	2

System: acetic acid + propanoic acid; phases: Liquid, Crystal, Crystal
Property: Eutectic composition: mole fraction of acetic acid (Liquid); method: Derived from phase diagram analysis
Pressure, kPa	Eutectic composition: mole fraction of acetic acid	uncertainty
84.5	0.377	0.003

System: acetic acid + propanoic acid; phases: Liquid, Crystal, Crystal
Property: Eutectic temperature, K (Liquid); method: DTA
Pressure, kPa	Eutectic temperature, K	uncertainty
84.5	232	2

System: butanoic acid + acetic acid; phases: Liquid, Crystal
Fixed: Pressure, kPa = 84.5
Property: Solid-liquid equilibrium temperature, K (Liquid); method: DTA
Mole fraction of butanoic acid	Solid-liquid equilibrium temperature, K	uncertainty
0	290	2
0.05	283	2
0.05	283	2
0.098	280	2
0.098	281	2
0.147	276	2
0.147	276	2
0.194	273	2
0.194	273	2
0.244	269	2
0.291	263	2
0.344	257	2
0.344	257	2
0.399	252	2
0.399	252	2
0.441	250	2
0.487	247	2
0.487	247	2
0.538	244	2
0.538	245	2
0.565	241	2

System: butanoic acid + acetic acid; phases: Liquid, Crystal
Fixed: Pressure, kPa = 84.5
Property: Solid-liquid equilibrium temperature, K (Liquid); method: DTA
Mole fraction of butanoic acid	Solid-liquid equilibrium temperature, K	uncertainty
0.586	244	2
0.636	246	2
0.636	246	2
0.683	249	2
0.683	249	2
0.736	252	2
0.736	251	2
0.783	255	2
0.783	255	2
0.834	257	2
0.834	257	2
0.882	261	2
0.882	261	2
0.931	265	2
0.931	264	2
0.979	269	2

System: butanoic acid + acetic acid; phases: Liquid, Crystal, Crystal
Property: Eutectic composition: mole fraction of acetic acid (Liquid); method: Derived from phase diagram analysis
Pressure, kPa	Eutectic composition: mole fraction of acetic acid	uncertainty
84.5	0.432	0.004

System: butanoic acid + acetic acid; phases: Liquid, Crystal, Crystal
Property: Eutectic temperature, K (Liquid); method: DTA
Pressure, kPa	Eutectic temperature, K	uncertainty
84.5	241	2

System: formic acid + acetic acid; phases: Liquid, Crystal
Fixed: Pressure, kPa = 84.5
Property: Solid-liquid equilibrium temperature, K (Liquid); method: DTA
Mole fraction of formic acid	Solid-liquid equilibrium temperature, K	uncertainty
0	290	2
0.058	285	2
0.058	284	2
0.14	279	2
0.14	279	2
0.192	276	2
0.254	271	2
0.254	271	2
0.305	266	2
0.368	263	2
0.432	256	2
0.432	256	2
0.495	251	2
0.495	251	2
0.549	248	2

System: formic acid + acetic acid; phases: Liquid, Crystal
Fixed: Pressure, kPa = 84.5
Property: Solid-liquid equilibrium temperature, K (Liquid); method: DTA
Mole fraction of formic acid	Solid-liquid equilibrium temperature, K	uncertainty
0.602	250	2
0.602	250	2
0.661	255	2
0.661	255	2
0.719	260	2
0.719	260	2
0.776	263	2
0.776	264	2
0.832	268	2
0.902	273	2
0.902	273	2
0.972	283	2

System: formic acid + acetic acid; phases: Liquid, Crystal, Crystal
Property: Eutectic composition: mole fraction of formic acid (Liquid); method: Derived from phase diagram analysis
Pressure, kPa	Eutectic composition: mole fraction of formic acid	uncertainty
84.5	0.559	0.004

System: formic acid + acetic acid; phases: Liquid, Crystal, Crystal
Property: Eutectic temperature, K (Liquid); method: DTA
Pressure, kPa	Eutectic temperature, K	uncertainty
84.5	245	1

System: formic acid + butanoic acid; phases: Liquid, Crystal
Fixed: Pressure, kPa = 84.5
Property: Solid-liquid equilibrium temperature, K (Liquid); method: DTA
Mole fraction of formic acid	Solid-liquid equilibrium temperature, K	uncertainty
0	269	2
0.071	266	2
0.139	262	2
0.186	260	2
0.26	258	2
0.334	255	2
0.411	253	2
0.483	252	2
0.516	251	2
0.582	251	2

System: formic acid + butanoic acid; phases: Liquid, Crystal
Fixed: Pressure, kPa = 84.5
Property: Solid-liquid equilibrium temperature, K (Liquid); method: DTA
Mole fraction of formic acid	Solid-liquid equilibrium temperature, K	uncertainty
0.602	253	2
0.641	256	2
0.712	262	2
0.785	266	2
0.857	271	2
0.931	276	2
0.972	283	2

System: formic acid + butanoic acid; phases: Liquid, Crystal, Crystal
Property: Eutectic composition: mole fraction of formic acid (Liquid); method: Derived from phase diagram analysis
Pressure, kPa	Eutectic composition: mole fraction of formic acid	uncertainty
84.5	0.584	0.004

System: formic acid + butanoic acid; phases: Liquid, Crystal, Crystal
Property: Eutectic temperature, K (Liquid); method: DTA
Pressure, kPa	Eutectic temperature, K	uncertainty
84.5	247	1

System: formic acid + propanoic acid; phases: Liquid, Crystal
Fixed: Pressure, kPa = 84.5
Property: Solid-liquid equilibrium temperature, K (Liquid); method: DTA
Mole fraction of formic acid	Solid-liquid equilibrium temperature, K	uncertainty
0	252	2
0.071	248	2
0.071	248	2
0.129	245	2
0.129	246	2
0.198	242	2
0.259	240	2
0.31	236	2
0.343	235	2
0.343	235	2

System: formic acid + propanoic acid; phases: Liquid, Crystal
Fixed: Pressure, kPa = 84.5
Property: Solid-liquid equilibrium temperature, K (Liquid); method: DTA
Mole fraction of formic acid	Solid-liquid equilibrium temperature, K	uncertainty
0.39	238	2
0.448	241	2
0.448	241	2
0.49	244	2
0.555	248	2
0.555	247	2
0.609	252	2
0.609	251	2
0.68	257	2
0.68	257	2
0.739	262	2
0.739	262	2
0.797	266	2
0.797	266	2
0.856	270	2
0.916	274	2
0.916	275	2
0.972	283	2

System: formic acid + propanoic acid; phases: Liquid, Crystal, Crystal
Property: Eutectic composition: mole fraction of formic acid (Liquid); method: Derived from phase diagram analysis
Pressure, kPa	Eutectic composition: mole fraction of formic acid	uncertainty
84.5	0.35	0.003

System: formic acid + propanoic acid; phases: Liquid, Crystal, Crystal
Property: Eutectic temperature, K (Liquid); method: DTA
Pressure, kPa	Eutectic temperature, K	uncertainty
84.5	234	1

System: formic acid + pentanoic acid; phases: Liquid, Crystal
Fixed: Pressure, kPa = 84.5
Property: Solid-liquid equilibrium temperature, K (Liquid); method: DTA
Mole fraction of formic acid	Solid-liquid equilibrium temperature, K	uncertainty
0	239	2
0.06	237	2
0.06	237	2
0.118	234	2
0.118	234	2

System: formic acid + pentanoic acid; phases: Liquid, Crystal
Fixed: Pressure, kPa = 84.5
Property: Solid-liquid equilibrium temperature, K (Liquid); method: DTA
Mole fraction of formic acid	Solid-liquid equilibrium temperature, K	uncertainty
0.157	232	2
0.176	233	2
0.232	237	2
0.287	240	2
0.287	240	2
0.346	244	2
0.346	243	2
0.467	249	2
0.523	252	2
0.523	251	2
0.583	256	2
0.635	258	2
0.702	259	2
0.738	264	2
0.738	264	2
0.855	271	2
0.914	274	2
0.914	274	2
0.972	283	2

System: formic acid + pentanoic acid; phases: Liquid, Crystal, Crystal
Property: Eutectic composition: mole fraction of formic acid (Liquid); method: Derived from phase diagram analysis
Pressure, kPa	Eutectic composition: mole fraction of formic acid	uncertainty
84.5	0.142	0.002

System: formic acid + pentanoic acid; phases: Liquid, Crystal, Crystal
Property: Eutectic temperature, K (Liquid); method: DTA
Pressure, kPa	Eutectic temperature, K	uncertainty
84.5	231	2

System: butanoic acid + pentanoic acid; phases: Liquid, Crystal
Fixed: Pressure, kPa = 84.5
Property: Solid-liquid equilibrium temperature, K (Liquid); method: DTA
Mole fraction of butanoic acid	Solid-liquid equilibrium temperature, K	uncertainty
0	239	2
0.068	235	2
0.068	235	2
0.147	232	2
0.147	232	2
0.197	230	2
0.197	230	2
0.246	228	2
0.246	227	2
0.295	226	2
0.295	226	2
0.391	222	2

System: butanoic acid + pentanoic acid; phases: Liquid, Crystal
Fixed: Pressure, kPa = 84.5
Property: Solid-liquid equilibrium temperature, K (Liquid); method: DTA
Mole fraction of butanoic acid	Solid-liquid equilibrium temperature, K	uncertainty
0.44	226	2
0.44	226	2
0.491	231	2
0.512	232	2
0.512	232	2
0.585	237	2
0.585	237	2
0.642	244	2
0.642	244	2
0.687	247	2
0.687	247	2
0.736	251	2
0.736	251	2
0.782	253	2
0.804	255	2
0.804	256	2
0.832	258	2
0.832	258	2
0.882	260	2
0.882	260	2
0.93	265	2
0.93	265	2
0.979	269	2

System: butanoic acid + pentanoic acid; phases: Liquid, Crystal, Crystal
Property: Eutectic composition: mole fraction of butanoic acid (Liquid); method: Derived from phase diagram analysis
Pressure, kPa	Eutectic composition: mole fraction of butanoic acid	uncertainty
84.5	0.399	0.004

System: butanoic acid + pentanoic acid; phases: Liquid, Crystal, Crystal
Property: Eutectic temperature, K (Liquid); method: DTA
Pressure, kPa	Eutectic temperature, K	uncertainty
84.5	222	2

System: butanoic acid + propanoic acid; phases: Liquid, Crystal
Fixed: Pressure, kPa = 84.5
Property: Solid-liquid equilibrium temperature, K (Liquid); method: DTA
Mole fraction of butanoic acid	Solid-liquid equilibrium temperature, K	uncertainty
0	252	2
0.079	248	2
0.079	247	2
0.15	240	2
0.15	240	2
0.218	235	2
0.278	233	2
0.278	233	2
0.335	228	2

System: butanoic acid + propanoic acid; phases: Liquid, Crystal
Fixed: Pressure, kPa = 84.5
Property: Solid-liquid equilibrium temperature, K (Liquid); method: DTA
Mole fraction of butanoic acid	Solid-liquid equilibrium temperature, K	uncertainty
0.396	228	2
0.396	228	2
0.453	230	2
0.453	230	2
0.511	235	2
0.511	235	2
0.571	240	2
0.571	240	2
0.66	245	2
0.66	245	2
0.745	251	2
0.745	251	2
0.804	256	2
0.804	256	2
0.872	260	2
0.872	260	2
0.979	269	2

System: butanoic acid + propanoic acid; phases: Liquid, Crystal, Crystal
Property: Eutectic composition: mole fraction of propanoic acid (Liquid); method: Derived from phase diagram analysis
Pressure, kPa	Eutectic composition: mole fraction of propanoic acid	uncertainty
84.5	0.628	0.003

System: butanoic acid + propanoic acid; phases: Liquid, Crystal, Crystal
Property: Eutectic temperature, K (Liquid); method: DTA
Pressure, kPa	Eutectic temperature, K	uncertainty
84.5	225	2

System: propanoic acid + pentanoic acid; phases: Liquid, Crystal
Fixed: Pressure, kPa = 84.5
Property: Solid-liquid equilibrium temperature, K (Liquid); method: DTA
Mole fraction of propanoic acid	Solid-liquid equilibrium temperature, K	uncertainty
0	239	2
0.096	234	2
0.096	234	2
0.158	231	2
0.158	231	2
0.218	228	2
0.218	228	2
0.274	225	2
0.274	226	2
0.337	223	2
0.426	219	2
0.526	215	2
0.526	215	2

System: propanoic acid + pentanoic acid; phases: Liquid, Crystal
Fixed: Pressure, kPa = 84.5
Property: Solid-liquid equilibrium temperature, K (Liquid); method: DTA
Mole fraction of propanoic acid	Solid-liquid equilibrium temperature, K	uncertainty
0.565	219	2
0.621	223	2
0.678	227	2
0.728	232	2
0.8	238	2
0.867	240	2
0.926	246	2
0.995	252	2

System: propanoic acid + pentanoic acid; phases: Liquid, Crystal, Crystal
Property: Eutectic composition: mole fraction of propanoic acid (Liquid); method: Derived from phase diagram analysis
Pressure, kPa	Eutectic composition: mole fraction of propanoic acid	uncertainty
84.5	0.572	0.004

System: propanoic acid + pentanoic acid; phases: Liquid, Crystal, Crystal
Property: Eutectic temperature, K (Liquid); method: DTA
Pressure, kPa	Eutectic temperature, K	uncertainty
84.5	215	2

System: acetic acid + pentanoic acid; phases: Liquid, Crystal
Fixed: Pressure, kPa = 84.5
Property: Solid-liquid equilibrium temperature, K (Liquid); method: DTA
Mole fraction of acetic acid	Solid-liquid equilibrium temperature, K	uncertainty
0	239	2
0.05	236	2
0.05	236	2
0.099	234	2
0.099	234	2
0.146	232	2
0.146	232	2
0.199	230	2
0.199	229	2
0.263	226	2
0.263	226	2

System: acetic acid + pentanoic acid; phases: Liquid, Crystal
Fixed: Pressure, kPa = 84.5
Property: Solid-liquid equilibrium temperature, K (Liquid); method: DTA
Mole fraction of acetic acid	Solid-liquid equilibrium temperature, K	uncertainty
0.292	231	2
0.292	230	2
0.341	234	2
0.341	234	2
0.389	237	2
0.389	237	2
0.438	243	2
0.486	249	2
0.486	249	2
0.534	255	2
0.585	258	2
0.585	257	2
0.681	266	2
0.681	266	2
0.728	270	2
0.728	270	2
0.772	274	2
0.772	274	2
0.826	277	2
0.826	277	2
0.876	281	2
0.876	282	2
0.922	285	2
0.922	285	2
0.971	290	2

System: acetic acid + pentanoic acid; phases: Liquid, Crystal, Crystal
Property: Eutectic composition: mole fraction of acetic acid (Liquid); method: Derived from phase diagram analysis
Pressure, kPa	Eutectic composition: mole fraction of acetic acid	uncertainty
84.5	0.27	0.003

System: acetic acid + pentanoic acid; phases: Liquid, Crystal, Crystal
Property: Eutectic temperature, K (Liquid); method: DTA
Pressure, kPa	Eutectic temperature, K	uncertainty
84.5	227	2
