Measured thermophysical data. Solubility of CF4 in lower alcohols
Source: Fluid Phase Equilib., 2010, 10.1016/j.fluid.2010.02.007
Compound 1: methanol, CH4O, InChI=1S/CH4O/c1-2/h2H,1H3, purity 99.9%
Compound 2: tetrafluoromethane, CF4, InChI=1S/CF4/c2-1(3,4)5, purity 99%
Compound 3: ethanol, C2H6O, InChI=1S/C2H6O/c1-2-3/h3H,2H2,1H3, purity 99.8%
Compound 4: propan-1-ol, C3H8O, InChI=1S/C3H8O/c1-2-3-4/h4H,2-3H2,1H3, purity 99.5%
Compound 5: butan-1-ol, C4H10O, InChI=1S/C4H10O/c1-2-3-4-5/h5H,2-4H2,1H3, purity 99.5%

System: methanol + tetrafluoromethane; phases: Liquid, Gas
Fixed: Pressure, kPa of tetrafluoromethane = 101.325
Property: Mole fraction of tetrafluoromethane (Liquid); method: Volumetric method
Temperature, K	Mole fraction of tetrafluoromethane	uncertainty
288.15	0.0003091	2e-06
290.61	0.0003021	2e-06
293.15	0.0002991	2e-06
295.8	0.0002896	2e-06
298.37	0.0002878	2e-06
300.65	0.0002839	2e-06
303.25	0.0002813	2e-06
305.67	0.0002797	2e-06
308.2	0.0002791	2e-06

System: ethanol + tetrafluoromethane; phases: Liquid, Gas
Fixed: Pressure, kPa of tetrafluoromethane = 101.325
Property: Mole fraction of tetrafluoromethane (Liquid); method: Volumetric method
Temperature, K	Mole fraction of tetrafluoromethane	uncertainty
288.15	0.0004767	2e-06
290.75	0.0004756	2e-06
293.15	0.0004749	2e-06
295.73	0.0004732	2e-06
298.15	0.0004737	2e-06
300.88	0.0004718	2e-06
303.05	0.0004691	2e-06
305.65	0.0004668	2e-06
308.03	0.0004654	2e-06

System: propan-1-ol + tetrafluoromethane; phases: Liquid, Gas
Fixed: Pressure, kPa of tetrafluoromethane = 101.325
Property: Mole fraction of tetrafluoromethane (Liquid); method: Volumetric method
Temperature, K	Mole fraction of tetrafluoromethane	uncertainty
288.15	0.0005536	2e-06
290.65	0.0005486	2e-06
293.15	0.0005482	2e-06
295.6	0.000546	2e-06
298.15	0.0005439	2e-06
300.65	0.0005424	2e-06
303.04	0.0005409	2e-06
305.65	0.0005383	2e-06
307.93	0.0005352	2e-06

System: butan-1-ol + tetrafluoromethane; phases: Liquid, Gas
Fixed: Pressure, kPa of tetrafluoromethane = 101.325
Property: Mole fraction of tetrafluoromethane (Liquid); method: Volumetric method
Temperature, K	Mole fraction of tetrafluoromethane	uncertainty
288.15	0.0005933	2e-06
290.65	0.000591	2e-06
293.15	0.0005825	2e-06
295.6	0.0005784	2e-06
298.15	0.000576	2e-06
300.75	0.0005733	2e-06
303.05	0.0005721	2e-06
305.65	0.0005678	2e-06
308.03	0.0005665	2e-06
