Measured thermophysical data. Liquid solid equilibria under high pressure of tetradecane + pentadecane and tetradecane + hexadecane binary systems
Source: Fluid Phase Equilib., 2005, 10.1016/j.fluid.2005.06.028
Compound 1: tetradecane, C14H30, InChI=1S/C14H30/c1-3-5-7-9-11-13-14-12-10-8-6-4-2/h3-14H2,1-2H3, purity 99%
Compound 2: pentadecane, C15H32, InChI=1S/C15H32/c1-3-5-7-9-11-13-15-14-12-10-8-6-4-2/h3-15H2,1-2H3, purity 99%
Compound 3: hexadecane, C16H34, InChI=1S/C16H34/c1-3-5-7-9-11-13-15-16-14-12-10-8-6-4-2/h3-16H2,1-2H3, purity 99%

System: tetradecane; phases: Crystal, Liquid
Property: Solid-liquid equilibrium temperature, K (Crystal); method: VISOBS:UFactor:6
Pressure, kPa	Solid-liquid equilibrium temperature, K	uncertainty
100	279.2	0.9
20000	284.2	0.9
40000	289.1	0.9
60000	293.8	0.9
80000	297.9	0.9
100000	301.7	0.9

System: pentadecane; phases: Crystal, Liquid
Property: Solid-liquid equilibrium temperature, K (Crystal); method: VISOBS:UFactor:6
Pressure, kPa	Solid-liquid equilibrium temperature, K	uncertainty
100	283.2	0.9
20000	287.8	0.9
40000	291.9	0.9
60000	296.2	0.9
80000	300.1	0.9
100000	303.9	0.9

System: hexadecane; phases: Crystal 1, Liquid
Property: Solid-liquid equilibrium temperature, K (Crystal 1); method: VISOBS:UFactor:6
Pressure, kPa	Solid-liquid equilibrium temperature, K	uncertainty
100	291.5	0.9
20000	296	0.9
40000	300.4	0.9
60000	304.8	0.9
80000	309.7	0.9
100000	313.5	0.9

System: hexadecane + tetradecane; phases: Liquid, Crystal
Property: Solid-liquid equilibrium temperature, K (Liquid); method: VISOBS:UFactor:6
Pressure, kPa	Mole fraction of hexadecane	Solid-liquid equilibrium temperature, K	uncertainty
100	0	279.2	0.9
100	0.05	278.1	0.9
100	0.1	277.5	0.9
100	0.15	276.7	0.9
20000	0	284.2	0.9
20000	0.05	282.9	0.9
20000	0.1	282.2	0.9
20000	0.15	281.5	0.9
40000	0	289.1	0.9
40000	0.05	287.5	0.9
40000	0.1	286.7	0.9
40000	0.15	285.8	0.9
60000	0	293.8	0.9
60000	0.05	291.8	0.9
60000	0.1	291.2	0.9
60000	0.15	290.1	0.9
80000	0	297.9	0.9
80000	0.05	296.3	0.9
80000	0.1	295.4	0.9
80000	0.15	294.1	0.9
100000	0	301.7	0.9
100000	0.05	300.4	0.9
100000	0.1	299.5	0.9
100000	0.15	298.5	0.9

System: hexadecane + tetradecane; phases: Liquid, Crystal 2
Property: Solid-liquid equilibrium temperature, K (Liquid); method: VISOBS:UFactor:6
Pressure, kPa	Mole fraction of hexadecane	Solid-liquid equilibrium temperature, K	uncertainty
100	0.175	276.2	0.9
100	0.2	276.5	0.9
100	0.25	277	0.9
100	0.4	279.5	0.9
20000	0.175	280.3	0.9
20000	0.2	280.7	0.9
20000	0.25	281.3	0.9
20000	0.4	284.2	0.9
40000	0.175	284.4	0.9
40000	0.2	284.7	0.9
40000	0.25	285.4	0.9
40000	0.4	288.1	0.9
60000	0.175	288.2	0.9
60000	0.2	288.5	0.9
60000	0.25	289.3	0.9
60000	0.4	292	0.9
80000	0.175	291.9	0.9
80000	0.2	292.3	0.9
80000	0.25	292.9	0.9
80000	0.4	295.8	0.9
100000	0.175	295.6	0.9
100000	0.2	295.9	0.9
100000	0.25	296.5	0.9
100000	0.4	299.3	0.9

System: hexadecane + tetradecane; phases: Liquid, Crystal 1
Property: Solid-liquid equilibrium temperature, K (Liquid); method: VISOBS:UFactor:6
Pressure, kPa	Mole fraction of hexadecane	Solid-liquid equilibrium temperature, K	uncertainty
100	0.5	283.2	0.9
100	0.6	285.1	0.9
100	0.75	288.3	0.9
100	0.83	288.9	0.9
100	0.9	290.3	0.9
100	1	291.5	0.9
20000	0.5	288	0.9
20000	0.6	289.8	0.9
20000	0.75	293	0.9
20000	0.83	293.6	0.9
20000	0.9	295.1	0.9
20000	1	296	0.9
40000	0.5	292	0.9
40000	0.6	294.1	0.9
40000	0.75	297.4	0.9
40000	0.83	298.2	0.9
40000	0.9	299.6	0.9
40000	1	300.4	0.9
60000	0.5	296.7	0.9
60000	0.6	299.1	0.9
60000	0.75	301.8	0.9
60000	0.83	302.9	0.9
60000	0.9	304.1	0.9
60000	1	304.8	0.9
80000	0.5	300.9	0.9
80000	0.6	303.7	0.9
80000	0.75	306.3	0.9
80000	0.83	307.2	0.9
80000	0.9	308.4	0.9
80000	1	309.7	0.9
100000	0.5	305.1	0.9
100000	0.6	307.4	0.9
100000	0.75	310.6	0.9
100000	0.83	311.4	0.9
100000	0.9	312.7	0.9
100000	1	313.5	0.9

System: tetradecane + pentadecane; phases: Liquid, Crystal
Property: Solid-liquid equilibrium temperature, K (Liquid); method: VISOBS:UFactor:6
Pressure, kPa	Mole fraction of pentadecane	Solid-liquid equilibrium temperature, K	uncertainty
100	0.2	276.7	0.9
100	0.25	276.9	0.9
100	0.5	278.7	0.9
100	0.75	280.8	0.9
100	1	283.2	0.9
20000	0.2	280.9	0.9
20000	0.25	281.2	0.9
20000	0.5	283	0.9
20000	0.75	285.2	0.9
20000	1	287.8	0.9
40000	0.2	285.1	0.9
40000	0.25	285.3	0.9
40000	0.5	287.3	0.9
40000	0.75	289.5	0.9
40000	1	291.9	0.9
60000	0.2	289.1	0.9
60000	0.25	289.4	0.9
60000	0.5	291.3	0.9
60000	0.75	293.5	0.9
60000	1	296.2	0.9
80000	0.2	292.9	0.9
80000	0.25	293.2	0.9
80000	0.5	295.1	0.9
80000	0.75	297.4	0.9
80000	1	300.1	0.9
100000	0.2	296.7	0.9
100000	0.25	296.9	0.9
100000	0.5	298.8	0.9
100000	0.75	301.1	0.9
100000	1	303.9	0.9

System: tetradecane + pentadecane; phases: Liquid, Crystal
Property: Solid-liquid equilibrium temperature, K (Liquid); method: VISOBS:UFactor:6
Pressure, kPa	Mole fraction of pentadecane	Solid-liquid equilibrium temperature, K	uncertainty
100	0	279.2	0.9
100	0.05	278.1	0.9
100	0.1	277.4	0.9
100	0.125	277.1	0.9
100	0.15	276.2	0.9
20000	0	284.2	0.9
20000	0.05	282.8	0.9
20000	0.1	282.1	0.9
20000	0.125	281.7	0.9
20000	0.15	280.6	0.9
40000	0	289.1	0.9
40000	0.05	287.4	0.9
40000	0.1	286.7	0.9
40000	0.125	286.4	0.9
40000	0.15	284.8	0.9
60000	0	293.8	0.9
60000	0.05	291.9	0.9
60000	0.1	291.2	0.9
60000	0.125	290.7	0.9
60000	0.15	288.8	0.9
80000	0	297.9	0.9
80000	0.05	296.3	0.9
80000	0.1	295.5	0.9
80000	0.125	294.9	0.9
80000	0.15	292.7	0.9
100000	0	301.7	0.9
100000	0.05	300.4	0.9
100000	0.1	299.7	0.9
100000	0.125	298.9	0.9
100000	0.15	296.3	0.9
