Measured thermophysical data. Solubility of silybin in aqueous hydrochloric acid solution
Source: Fluid Phase Equilib., 2007, 10.1016/j.fluid.2007.03.009
Compound 1: silybin, C25H22O10, InChI=1S/C25H22O10/c1-32-17-6-11(2-4-14(17)28)24-20(10-26)33-16-5-3-12(7-18(16)34-24)25-23(31)22(30)21-15(29)8-13(27)9-19(21)35-25/h2-9,20,23-29,31H,10H2,1H3/t20-,23+,24-,25-/m1/s1
Compound 2: water, H2O, InChI=1S/H2O/h1H2, purity 98%
Compound 3: hydrogen chloride, ClH, InChI=1S/ClH/h1H, purity 98%

System: hydrogen chloride + water + silybin; phases: Liquid, Crystal
Fixed: Pressure, kPa = 101
Property: Mass fraction of silybin (Liquid); method: uv-vis spectrometer
Temperature, K	Solvent: Amount concentration (molarity), mol/dm3 of hydrogen chloride	Mass fraction of silybin	uncertainty
293.15	7.08e-07	4.24e-05	2e-06
293.15	2.63e-06	1.98e-05	2e-06
293.15	4.17e-06	1.8e-05	2e-06
293.15	1.585e-05	1.58e-05	2e-06
293.15	0.000151	1.38e-05	2e-06
293.15	0.00148	1.29e-05	2e-06
293.15	0.0138	1.2e-05	2e-06
298.15	7.08e-07	5.4e-05	2e-06
298.15	2.63e-06	2.52e-05	2e-06
298.15	4.17e-06	2.01e-05	2e-06
298.15	1.585e-05	1.74e-05	2e-06
298.15	0.000151	1.41e-05	2e-06
298.15	0.00148	1.35e-05	2e-06
298.15	0.0138	1.22e-05	2e-06
303.15	7.08e-07	6.91e-05	2e-06
303.15	2.63e-06	3e-05	2e-06
303.15	4.17e-06	2.41e-05	2e-06
303.15	1.585e-05	2.02e-05	2e-06
303.15	0.000151	1.74e-05	2e-06
303.15	0.00148	1.54e-05	2e-06
303.15	0.0138	1.41e-05	2e-06
308.15	7.08e-07	8.33e-05	2e-06
308.15	2.63e-06	4.35e-05	2e-06
308.15	4.17e-06	3.32e-05	2e-06
308.15	1.585e-05	2.63e-05	2e-06
308.15	0.000151	2.13e-05	2e-06
308.15	0.00148	1.77e-05	2e-06
308.15	0.0138	1.54e-05	2e-06
313.05	7.08e-07	9.97e-05	2e-06
313.05	2.63e-06	5.55e-05	2e-06
313.05	4.17e-06	4.33e-05	2e-06
313.05	1.585e-05	3.35e-05	2e-06
313.05	0.000151	2.77e-05	2e-06
313.05	0.00148	2.33e-05	2e-06
313.05	0.0138	1.85e-05	2e-06
318.15	7.08e-07	0.00012	2e-06
318.15	2.63e-06	7.71e-05	2e-06
318.15	4.17e-06	6.43e-05	2e-06
318.15	1.585e-05	4.99e-05	2e-06
318.15	0.000151	4.01e-05	2e-06
318.15	0.00148	3.44e-05	2e-06
318.15	0.0138	2.85e-05	2e-06
