Measured thermophysical data. Solubility of CO2 in 3-amino-1-propanol and in N-methyldiethanolamine aqueous solutions: Experimental investigation and correlation using the CPA equation of state
Source: Fluid Phase Equilib., 2019, 10.1016/j.fluid.2019.112254
Compound 1: water, H2O, InChI=1S/H2O/h1H2, purity 99.8%
Compound 2: carbon dioxide, CO2, InChI=1S/CO2/c2-1-3, purity 99.9%
Compound 3: N-methyldiethanolamine, C5H13NO2, InChI=1S/C5H13NO2/c1-6(2-4-7)3-5-8/h7-8H,2-5H2,1H3, purity 99%
Compound 4: 3-amino-1-propanol, C3H9NO, InChI=1S/C3H9NO/c4-2-1-3-5/h5H,1-4H2, purity 99%

System: carbon dioxide + N-methyldiethanolamine + water; phases: Liquid, Gas
Property: Mole fraction of carbon dioxide (Liquid); method: pressure decay method
Temperature, K	Solvent: Mass fraction of N-methyldiethanolamine	Pressure, kPa of carbon dioxide	Mole fraction of carbon dioxide	uncertainty
298.15	0.234	24	0.7	0.02
298.15	0.234	58	0.84	0.02
298.15	0.234	160	0.95	0.02
298.15	0.234	300	0.99	0.01
298.15	0.234	455	1.02	0.04
298.15	0.234	583	1.05	0.04
298.15	0.234	700	1.06	0.04
298.15	0.234	871	1.08	0.04
313.15	0.234	20	0.48	0.02
313.15	0.234	46	0.67	0.02
313.15	0.234	98	0.8	0.02
313.15	0.234	210	0.9	0.02
313.15	0.234	353	0.95	0.02
313.15	0.234	514	0.98	0.02
313.15	0.234	646	1.01	0.02
313.15	0.234	775	1.01	0.04
313.15	0.234	917	1.02	0.04
313.15	0.234	955	1.04	0.04
323.15	0.234	11	0.26	0.02
323.15	0.234	29	0.47	0.02
323.15	0.234	72	0.65	0.02
323.15	0.234	134	0.77	0.02
323.15	0.234	251	0.86	0.02
323.15	0.234	396	0.91	0.02
323.15	0.234	556	0.95	0.02
323.15	0.234	688	0.98	0.02
323.15	0.234	820	0.99	0.01
323.15	0.234	960	1.01	0.04
323.15	0.234	1007	1.02	0.04
333.15	0.234	16	0.26	0.02
333.15	0.234	48	0.45	0.02
333.15	0.234	105	0.61	0.02
333.15	0.234	180	0.72	0.02
333.15	0.234	305	0.81	0.02
333.15	0.234	450	0.87	0.02
333.15	0.234	609	0.91	0.02
333.15	0.234	744	0.94	0.04
333.15	0.234	878	0.96	0.04
333.15	0.234	1014	0.98	0.02
333.15	0.234	1075	0.98	0.02
298.15	0.152	50	0.82	0.04
298.15	0.152	155	0.93	0.06
298.15	0.152	196	1	
298.15	0.152	228	1.01	0.1
298.15	0.152	406	1.04	0.06
298.15	0.152	580	1.1	0.06
298.15	0.152	724	1.14	0.08
298.15	0.152	925	1.18	0.08
313.15	0.152	65	0.77	0.04
313.15	0.152	94	0.86	0.08
313.15	0.152	304	0.98	0.02
313.15	0.152	404	1.03	0.06
313.15	0.152	621	1.07	0.1
313.15	0.152	827	1.08	0.06
313.15	0.152	1038	1.12	0.08
313.15	0.152	1216	1.13	0.1
323.15	0.152	90	0.74	0.04
323.15	0.152	123	0.82	0.08
323.15	0.152	336	0.94	0.06
323.15	0.152	435	1	
323.15	0.152	665	1.03	0.1
323.15	0.152	874	1.05	0.06
323.15	0.152	1091	1.09	0.08
323.15	0.152	1279	1.1	0.1
333.15	0.152	127	0.69	0.06
333.15	0.152	159	0.77	0.08
333.15	0.152	372	0.89	0.06
333.15	0.152	473	0.96	0.04
333.15	0.152	707	0.99	0.01
333.15	0.152	925	1.02	0.08
333.15	0.152	1148	1.06	0.08
333.15	0.152	1341	1.07	0.1

System: carbon dioxide + 3-amino-1-propanol + water; phases: Liquid, Gas
Property: Mole fraction of carbon dioxide (Liquid); method: pressure decay method
Temperature, K	Solvent: Mass fraction of 3-amino-1-propanol	Pressure, kPa of carbon dioxide	Mole fraction of carbon dioxide	uncertainty
298.15	0.151	13	0.67	0.02
298.15	0.151	82	0.83	0.02
298.15	0.151	211	0.92	0.02
298.15	0.151	364	0.98	0.02
298.15	0.151	441	0.99	0.01
298.15	0.151	586	1.03	0.02
298.15	0.151	717	1.03	0.04
298.15	0.151	930	1.06	0.04
313.15	0.151	24	0.66	0.02
313.15	0.151	118	0.79	0.02
313.15	0.151	257	0.88	0.02
313.15	0.151	423	0.93	0.02
313.15	0.151	515	0.93	0.02
313.15	0.151	668	0.97	0.03
313.15	0.151	801	0.97	0.03
313.15	0.151	1023	1.01	0.04
323.15	0.151	34	0.65	0.02
323.15	0.151	143	0.77	0.02
323.15	0.151	291	0.85	0.02
323.15	0.151	463	0.9	0.02
323.15	0.151	560	0.91	0.02
323.15	0.151	715	0.94	0.04
323.15	0.151	852	0.95	0.04
323.15	0.151	1082	0.98	0.02
333.15	0.151	46	0.64	0.02
333.15	0.151	170	0.75	0.02
333.15	0.151	329	0.82	0.02
333.15	0.151	505	0.87	0.02
333.15	0.151	608	0.88	0.02
333.15	0.151	766	0.91	0.04
333.15	0.151	909	0.92	0.04
333.15	0.151	1145	0.95	0.04
298.15	0.1	59	0.82	0.04
298.15	0.1	235	0.98	0.02
298.15	0.1	396	1.05	0.08
298.15	0.1	584	1.08	0.06
298.15	0.1	684	1.11	0.06
298.15	0.1	828	1.15	0.08
298.15	0.1	1077	1.2	0.12
313.15	0.1	88	0.79	0.04
313.15	0.1	271	0.94	0.06
313.15	0.1	441	1.01	0.08
313.15	0.1	646	1.03	0.06
313.15	0.1	751	1.06	0.06
313.15	0.1	906	1.09	0.1
313.15	0.1	1171	1.14	0.12
323.15	0.1	110	0.76	0.04
323.15	0.1	300	0.91	0.06
323.15	0.1	478	0.98	0.02
323.15	0.1	682	1	
323.15	0.1	798	1.03	0.06
323.15	0.1	958	1.06	0.08
323.15	0.1	1231	1.11	0.12
333.15	0.1	135	0.73	0.04
333.15	0.1	333	0.87	0.06
333.15	0.1	512	0.95	0.05
333.15	0.1	726	0.97	0.03
333.15	0.1	841	1	
333.15	0.1	1003	1.04	0.08
333.15	0.1	1291	1.08	0.12
