Measured thermophysical data. Absorption and solubility measurement of CO2 in water-based ZnO and SiO2 nanofluids
Source: Fluid Phase Equilib., 2015, 10.1016/j.fluid.2015.02.012
Compound 1: carbon dioxide, CO2, InChI=1S/CO2/c2-1-3, purity 99.998%
Compound 2: water, H2O, InChI=1S/H2O/h1H2, purity 99%

System: carbon dioxide + water; phases: Liquid, Gas
Property: Molality, mol/kg of carbon dioxide (Liquid); method: volumetric
Temperature, K	Pressure, kPa of carbon dioxide	Molality, mol/kg of carbon dioxide	uncertainty
275.15	99	0.086	0.018
275.15	693	0.491	0.016
275.15	1024	0.697	0.01
275.15	1355	0.892	0.008
278.15	109	0.058	0.006
278.15	808	0.482	0.004
278.15	1309	0.747	0.002
278.15	1660	0.903	0.002
278.15	1924	0.985	0.015
278.15	2193	1.083	0.014
281.15	158	0.101	0.016
281.15	854	0.475	0.012
281.15	1567	0.817	0.006
281.15	2399	1.121	0.006
281.15	3283	1.34	0.03
288.15	182	0.075	0.014
288.15	762	0.325	0.01
288.15	1321	0.572	0.006
288.15	2084	0.842	0.004
288.15	2693	1.027	0.005
288.15	3556	1.216	0.018
298.15	276	0.109	0.012
298.15	978	0.331	0.01
298.15	1666	0.546	0.006
298.15	2458	0.736	0.004
298.15	3222	0.903	0.026
298.15	3657	1.008	0.02
313.15	236	0.074	0.032
313.15	894	0.24	0.026
313.15	1760	0.461	0.022
313.15	2496	0.634	0.016
313.15	3202	0.789	0.01
313.15	3692	0.887	0.006
