Measured thermophysical data. Phase equilibria for benzene-cyclohexene and activity coefficients at infinite dilution for the ternary systems with ionic liquids
Source: Fluid Phase Equilib., 2010, 10.1016/j.fluid.2010.04.010
Compound 1: benzene, C6H6, InChI=1S/C6H6/c1-2-4-6-5-3-1/h1-6H
Compound 2: cyclohexene, C6H10, InChI=1S/C6H10/c1-2-4-6-5-3-1/h1-2H,3-6H2
Compound 3: 1-hexyl-3-methylpyridinium 1,1,1-trifluoro-N-[(trifluoromethyl)sulfonyl]methanesulfonamide, C14H20F6N2O4S2, InChI=1S/C12H20N.C2F6NO4S2/c1-3-4-5-6-9-13-10-7-8-12(2)11-13;3-1(4,5)14(10,11)9-15(12,13)2(6,7)8/h7-8,10-11H,3-6,9H2,1-2H3;/q+1;-1, purity 99%
Compound 4: 1-hexyl-3-methylimidazolium tetrafluoroborate, C10H19BF4N2, InChI=1S/C10H19N2.BF4/c1-3-4-5-6-7-12-9-8-11(2)10-12;2-1(3,4)5/h8-10H,3-7H2,1-2H3;/q+1;-1, purity 99%
Compound 5: 1-butyl-3-methylimidazolium tetrafluoroborate, C8H15BF4N2, InChI=1S/C8H15N2.BF4/c1-3-4-5-10-7-6-9(2)8-10;2-1(3,4)5/h6-8H,3-5H2,1-2H3;/q+1;-1, purity 99%

System: benzene + 1-hexyl-3-methylpyridinium 1,1,1-trifluoro-N-[(trifluoromethyl)sulfonyl]methanesulfonamide; phases: Liquid, Gas
Fixed: Mole fraction of benzene = 0
Property: Activity coefficient of benzene (Liquid); method: Dilutor technique
Temperature, K	Activity coefficient of benzene	uncertainty
303.15	0.673	0.004
313.15	0.683	0.004
323.15	0.691	0.004
333.15	0.701	0.004

System: benzene + cyclohexene; phases: Liquid, Crystal
Fixed: Pressure, kPa = 101
Property: Solid-liquid equilibrium temperature, K (Liquid); method: VISOBS
Mole fraction of benzene	Solid-liquid equilibrium temperature, K	uncertainty
0.3146	227.86	0.16
0.414	237.89	0.16
0.5028	245.02	0.16
0.6117	253.65	0.16
0.7086	260.6	0.16
0.8012	266.41	0.16
0.891	272.5	0.16
1	280.47	0.16

System: benzene + cyclohexene; phases: Gas, Liquid
Fixed: Temperature, K = 322.46
Property: Mole fraction of benzene (Gas); method: Chromatography
Mole fraction of benzene	Mole fraction of benzene	uncertainty
0.091	0.107	0.006
0.189	0.215	0.006
0.282	0.309	0.006
0.38	0.403	0.006
0.48	0.492	0.007
0.581	0.583	0.006
0.681	0.673	0.006
0.787	0.775	0.006
0.892	0.879	0.006

System: benzene + 1-butyl-3-methylimidazolium tetrafluoroborate; phases: Liquid, Gas
Fixed: Mole fraction of benzene = 0
Property: Activity coefficient of benzene (Liquid); method: Dilutor technique
Temperature, K	Activity coefficient of benzene	uncertainty
313.15	2.341	0.004
323.15	2.246	0.004
333.15	2.218	0.004

System: cyclohexene + 1-hexyl-3-methylpyridinium 1,1,1-trifluoro-N-[(trifluoromethyl)sulfonyl]methanesulfonamide; phases: Liquid, Gas
Fixed: Mole fraction of cyclohexene = 0
Property: Activity coefficient of cyclohexene (Liquid); method: Dilutor technique
Temperature, K	Activity coefficient of cyclohexene	uncertainty
303.15	3.337	0.004
313.15	3.205	0.004
323.15	3.131	0.004
333.15	3.018	0.004

System: cyclohexene + 1-hexyl-3-methylimidazolium tetrafluoroborate; phases: Liquid, Gas
Fixed: Mole fraction of cyclohexene = 0
Property: Activity coefficient of cyclohexene (Liquid); method: Dilutor technique
Temperature, K	Activity coefficient of cyclohexene	uncertainty
303.15	7.74	0.004
313.15	7.632	0.004
323.15	7.496	0.004
333.15	7.052	0.004

System: benzene + 1-hexyl-3-methylimidazolium tetrafluoroborate; phases: Liquid, Gas
Fixed: Mole fraction of benzene = 0
Property: Activity coefficient of benzene (Liquid); method: Dilutor technique
Temperature, K	Activity coefficient of benzene	uncertainty
303.15	1.385	0.004
313.15	1.446	0.004
323.15	1.562	0.004
333.15	1.912	0.004
