Measured thermophysical data. Salt influence on MIBK/water liquid-liquid equilibrium: Measuring and modeling with ePC-SAFT and COSMO-RS
Source: Fluid Phase Equilib., 2016, 10.1016/j.fluid.2015.11.018
Compound 1: 4-methylpentan-2-one, C6H12O, InChI=1S/C6H12O/c1-5(2)4-6(3)7/h5H,4H2,1-3H3, purity 99.5%
Compound 2: water, H2O, InChI=1S/H2O/h1H2, purity 99.8%
Compound 3: lithium chloride, ClLi, InChI=1S/ClH.Li/h1H;/q;+1/p-1, purity 99%
Compound 4: sodium chloride, ClNa, InChI=1S/ClH.Na/h1H;/q;+1/p-1, purity 99%
Compound 5: potassium chloride, ClK, InChI=1S/ClH.K/h1H;/q;+1/p-1, purity 99.5%
Compound 6: lithium sulfate, Li2O4S, InChI=1S/2Li.H2O4S/c;;1-5(2,3)4/h;;(H2,1,2,3,4)/q2*+1;/p-2, purity 99.99%
Compound 7: sodium sulfate, Na2O4S, InChI=1S/2Na.H2O4S/c;;1-5(2,3)4/h;;(H2,1,2,3,4)/q2*+1;/p-2, purity 99%
Compound 8: lithium nitrate, LiNO3, InChI=1S/Li.NO3/c;2-1(3)4/q+1;-1, purity 98%
Compound 9: sodium nitrate, NNaO3, InChI=1S/NO3.Na/c2-1(3)4;/q-1;+1, purity 99.5%
Compound 10: lithium acetate, C2H3LiO2, InChI=1S/C2H4O2.Li/c1-2(3)4;/h1H3,(H,3,4);/q;+1/p-1, purity 99.95%
Compound 11: sodium ethanoate, C2H3NaO2, InChI=1S/C2H4O2.Na/c1-2(3)4;/h1H3,(H,3,4);/q;+1/p-1, purity 99%

System: 4-methylpentan-2-one + water; phases: Liquid mixture 1, Liquid mixture 2
Property: Mass fraction of water (Liquid mixture 1); method: Chromatography
Temperature, K	Pressure, kPa	Mass fraction of water	uncertainty
298.15	100	0.9877	0.0123

System: 4-methylpentan-2-one + water; phases: Liquid mixture 2, Liquid mixture 1
Property: Mass fraction of water (Liquid mixture 2); method: Chromatography
Temperature, K	Pressure, kPa	Mass fraction of water	uncertainty
298.15	100	0.0194	0.0194

System: 4-methylpentan-2-one + lithium chloride + water; phases: Liquid mixture 1, Liquid mixture 2
Fixed: Temperature, K = 298.15
Fixed: Pressure, kPa = 100
Property: Mass fraction of 4-methylpentan-2-one (Liquid mixture 1); method: Chromatography
Property: Mass fraction of 4-methylpentan-2-one (Liquid mixture 2); method: Chromatography
Property: Mass fraction of water (Liquid mixture 2); method: Chromatography
Mass fraction of water	Mass fraction of 4-methylpentan-2-one	uncertainty	Mass fraction of 4-methylpentan-2-one	uncertainty	Mass fraction of water	uncertainty
0.8286	0.0013	0.0013	0.9868	0.0001	0.0132	
0.7007	0.0007	0.0007	0.9939	0.0002	0.0061	
0.6288	0.0003	0.0003	0.9964	0.0002	0.0036	
0.6111	0.0002	0.0002	0.9973	0.0001	0.0027	

System: 4-methylpentan-2-one + sodium chloride + water; phases: Liquid mixture 2, Liquid mixture 1
Fixed: Temperature, K = 298.15
Fixed: Pressure, kPa = 100
Property: Mass fraction of 4-methylpentan-2-one (Liquid mixture 2); method: Chromatography
Property: Mass fraction of 4-methylpentan-2-one (Liquid mixture 1); method: Chromatography
Property: Mass fraction of water (Liquid mixture 1); method: Chromatography
Mass fraction of water	Mass fraction of 4-methylpentan-2-one	uncertainty	Mass fraction of 4-methylpentan-2-one	uncertainty	Mass fraction of water	uncertainty
0.0208	0.9789	0.0024	0.0029	0.0001	0.8091	
0.0212	0.9785	0.0024	0.0022	0.0001	0.7755	
0.0195	0.9802	0.0024	0.001	0.0001	0.7427	
0.0179	0.9814	0.0024	0.0156	0.0001	0.9546	
0.0175	0.9818	0.0024	0.0123	0.0001	0.9316	
0.0144	0.9853	0.0024	0.0099	0.0001	0.9091	
0.0144	0.9852	0.0024	0.007	0.0001	0.8888	
0.0135	0.9858	0.0024	0.0039	0.0001	0.8474	

System: 4-methylpentan-2-one + potassium chloride + water; phases: Liquid mixture 2, Liquid mixture 1
Fixed: Temperature, K = 298.15
Fixed: Pressure, kPa = 100
Property: Mass fraction of 4-methylpentan-2-one (Liquid mixture 2); method: Chromatography
Property: Mass fraction of 4-methylpentan-2-one (Liquid mixture 1); method: Chromatography
Property: Mass fraction of water (Liquid mixture 1); method: Chromatography
Mass fraction of water	Mass fraction of 4-methylpentan-2-one	uncertainty	Mass fraction of 4-methylpentan-2-one	uncertainty	Mass fraction of water	uncertainty
0.0182	0.9814	0.0002	0.0192	0.0024	0.9392	
0.0183	0.9813	0.0002	0.0148	0.0027	0.9141	
0.0181	0.9815	0.0002	0.0128	0.0025	0.888	
0.0172	0.9824	0.0002	0.0108	0.0025	0.8609	
0.0164	0.9832	0.0002	0.0075	0.0025	0.8185	
0.0164	0.9833	0.0002	0.0067	0.0024	0.792	
0.0156	0.984	0.001	0.0057	0.0024	0.7664	
0.0149	0.9848	0.0001	0.006	0.002	0.7528	

System: 4-methylpentan-2-one + water + lithium sulfate; phases: Liquid mixture 2, Liquid mixture 1
Fixed: Temperature, K = 298.15
Fixed: Pressure, kPa = 100
Property: Mass fraction of 4-methylpentan-2-one (Liquid mixture 2); method: Chromatography
Property: Mass fraction of water (Liquid mixture 1); method: Chromatography
Property: Mass fraction of 4-methylpentan-2-one (Liquid mixture 1); method: Chromatography
Mass fraction of water	Mass fraction of 4-methylpentan-2-one	uncertainty	Mass fraction of water	uncertainty	Mass fraction of 4-methylpentan-2-one	uncertainty
0.9678	0.0208	0.0002	0.0188	0.0106	0.9809	
0.9392	0.0131	0.0001	0.0187	0.0106	0.981	
0.9026	0.0081	0.0001	0.0179	0.0106	0.9818	
0.8803	0.006	0.0001	0.0175	0.0106	0.9823	
0.8655	0.0053	0.0001	0.0173	0.0106	0.9824	
0.8388	0.0038	0.0001	0.0168	0.0106	0.9829	
0.8009	0.0033	0.0001	0.0159	0.0106	0.9839	
0.7753	0.0029	0.0001	0.0156	0.0106	0.9841	

System: 4-methylpentan-2-one + water + sodium sulfate; phases: Liquid mixture 2, Liquid mixture 1
Fixed: Temperature, K = 298.15
Fixed: Pressure, kPa = 100
Property: Mass fraction of 4-methylpentan-2-one (Liquid mixture 2); method: Chromatography
Property: Mass fraction of 4-methylpentan-2-one (Liquid mixture 1); method: Chromatography
Property: Mass fraction of water (Liquid mixture 1); method: Chromatography
Mass fraction of water	Mass fraction of 4-methylpentan-2-one	uncertainty	Mass fraction of 4-methylpentan-2-one	uncertainty	Mass fraction of water	uncertainty
0.0177	0.9819	0.0002	0.0164	0.0024	0.9538	
0.0187	0.9809	0.0003	0.0157	0.0027	0.9419	
0.0188	0.9809	0.0003	0.0139	0.0031	0.9312	
0.0183	0.9814	0.0003	0.0117	0.0029	0.92	
0.019	0.9807	0.0002	0.0099	0.0029	0.9104	
0.0184	0.9813	0.0003	0.0071	0.0027	0.8877	
0.0181	0.9816	0.0003	0.0046	0.0024	0.8672	
0.0179	0.9818	0.0002	0.0043	0.0024	0.8577	

System: 4-methylpentan-2-one + water + lithium nitrate; phases: Liquid mixture 1, Liquid mixture 2
Fixed: Temperature, K = 298.15
Fixed: Pressure, kPa = 100
Property: Mass fraction of 4-methylpentan-2-one (Liquid mixture 1); method: Chromatography
Property: Mass fraction of water (Liquid mixture 2); method: Chromatography
Property: Mass fraction of 4-methylpentan-2-one (Liquid mixture 2); method: Chromatography
Mass fraction of water	Mass fraction of 4-methylpentan-2-one	uncertainty	Mass fraction of water	uncertainty	Mass fraction of 4-methylpentan-2-one	uncertainty
0.9452	0.0252	0.0024	0.0181	0.0002	0.9812	
0.9161	0.0255	0.0024	0.0182	0.0002	0.9811	
0.8857	0.0246	0.0024	0.017	0.001	0.9823	
0.8629	0.0233	0.0025	0.017	0.001	0.9823	
0.7776	0.0182	0.0025	0.0148	0.0002	0.9844	
0.7417	0.0161	0.0025	0.0135	0.0002	0.9857	
0.7094	0.0142	0.0025	0.0126	0.0002	0.9866	
0.6851	0.0126	0.0024	0.0119	0.0002	0.9872	

System: 4-methylpentan-2-one + sodium nitrate + water; phases: Liquid mixture 1, Liquid mixture 2
Fixed: Temperature, K = 298.15
Fixed: Pressure, kPa = 100
Property: Mass fraction of 4-methylpentan-2-one (Liquid mixture 1); method: Chromatography
Property: Mass fraction of 4-methylpentan-2-one (Liquid mixture 2); method: Chromatography
Property: Mass fraction of water (Liquid mixture 2); method: Chromatography
Mass fraction of water	Mass fraction of 4-methylpentan-2-one	uncertainty	Mass fraction of 4-methylpentan-2-one	uncertainty	Mass fraction of water	uncertainty
0.9424	0.0188	0.0024	0.9797	0.0003	0.0194	
0.9076	0.0188	0.0024	0.9804	0.0003	0.0187	
0.8742	0.0162	0.0025	0.9788	0.0002	0.0202	
0.8487	0.0141	0.0024	0.9793	0.0003	0.0198	
0.7455	0.0081	0.0025	0.9816	0.0003	0.0175	
0.6706	0.0054	0.0024	0.9837	0.0002	0.0154	
0.6085	0.0042	0.0024	0.9851	0.0002	0.014	
0.5583	0.0033	0.0024	0.9855	0.0001	0.0136	

System: 4-methylpentan-2-one + lithium acetate + water; phases: Liquid mixture 1, Liquid mixture 2
Fixed: Temperature, K = 298.15
Fixed: Pressure, kPa = 100
Property: Mass fraction of 4-methylpentan-2-one (Liquid mixture 1); method: Chromatography
Property: Mass fraction of water (Liquid mixture 2); method: Chromatography
Property: Mass fraction of 4-methylpentan-2-one (Liquid mixture 2); method: Chromatography
Mass fraction of water	Mass fraction of 4-methylpentan-2-one	uncertainty	Mass fraction of water	uncertainty	Mass fraction of 4-methylpentan-2-one	uncertainty
0.9509	0.0169	0.0024	0.0187	0.0002	0.9813	
0.9228	0.0154	0.0025	0.0176	0.0001	0.9824	
0.8952	0.0136	0.0026	0.0174	0.0002	0.9826	
0.8719	0.0102	0.0026	0.0172	0.0001	0.9828	
0.8263	0.0072	0.0024	0.016	0.001	0.984	
0.7852	0.0078	0.0024	0.0144	0.0001	0.9856	
0.7445	0.0056	0.0024	0.014	0.001	0.986	
0.712	0.0049	0.0024	0.0125	0.0001	0.9875	

System: 4-methylpentan-2-one + sodium ethanoate + water; phases: Liquid mixture 1, Liquid mixture 2
Fixed: Temperature, K = 298.15
Fixed: Pressure, kPa = 100
Property: Mass fraction of 4-methylpentan-2-one (Liquid mixture 1); method: Chromatography
Property: Mass fraction of 4-methylpentan-2-one (Liquid mixture 2); method: Chromatography
Property: Mass fraction of water (Liquid mixture 2); method: Chromatography
Mass fraction of water	Mass fraction of 4-methylpentan-2-one	uncertainty	Mass fraction of 4-methylpentan-2-one	uncertainty	Mass fraction of water	uncertainty
0.942	0.018	0.002	0.9812	0.0002	0.0188	
0.9077	0.0164	0.0027	0.9819	0.0003	0.0181	
0.8788	0.0112	0.0027	0.9828	0.0001	0.0172	
0.8487	0.0092	0.0025	0.983	0.001	0.017	
0.7961	0.0072	0.0024	0.9846	0.0002	0.0154	
0.772	0.0057	0.0024	0.9853	0.0002	0.0147	
0.7484	0.0053	0.0024	0.9857	0.0002	0.0143	
0.7305	0.0053	0.0024	0.9859	0.0001	0.0141	
