Measured thermophysical data. Study of liquid-liquid equilibria at different temperatures of water + ethanol + 1-butyl-1-methylpyrrolidinium bis(trifluoromethylsulfonyl) imide ternary system
Source: Fluid Phase Equilib., 2016, 10.1016/j.fluid.2016.02.003
Compound 1: ethanol, C2H6O, InChI=1S/C2H6O/c1-2-3/h3H,2H2,1H3, purity 99.9%
Compound 2: water, H2O, InChI=1S/H2O/h1H2, purity 99.8%
Compound 3: 1-butyl-1-methylpyrrolidinium bis[(trifluoromethyl)sulfonyl]imide, C11H20F6N2O4S2, InChI=1S/C9H20N.C2F6NO4S2/c1-3-4-7-10(2)8-5-6-9-10;3-1(4,5)14(10,11)9-15(12,13)2(6,7)8/h3-9H2,1-2H3;/q+1;-1, purity 99%

System: ethanol + water + 1-butyl-1-methylpyrrolidinium bis[(trifluoromethyl)sulfonyl]imide; phases: Liquid mixture 1, Liquid mixture 2
Fixed: Pressure, kPa = 101.3
Property: Mole fraction of ethanol (Liquid mixture 1); method: Chromatography
Property: Mole fraction of ethanol (Liquid mixture 2); method: Chromatography
Property: Mole fraction of water (Liquid mixture 2); method: Chromatography
Temperature, K	Mole fraction of water	Mole fraction of ethanol	uncertainty	Mole fraction of ethanol	uncertainty	Mole fraction of water	uncertainty
283.2	0.169	0		0		0.999	
283.2	0.347	0.369	0.004	0.283	0.003	0.708	
283.2	0.401	0.4	0.004	0.338	0.004	0.641	
303.2	0.239	0		0		0.999	
303.2	0.268	0.101	0.008	0.048	0.003	0.952	
303.2	0.319	0.233	0.005	0.113	0.003	0.886	
303.2	0.471	0.357	0.003	0.255	0.003	0.731	
303.2	0.516	0.357	0.003	0.282	0.003	0.695	
303.2	0.255	0.043	0.008	0.021	0.003	0.979	
303.2	0.285	0.154	0.005	0.072	0.003	0.927	
303.2	0.355	0.289	0.004	0.151	0.003	0.847	
283.2	0.183	0.029	0.006	0.023	0.003	0.977	
303.2	0.403	0.336	0.003	0.201	0.003	0.794	
323.2	0.307	0		0		0.999	
323.2	0.331	0.055	0.006	0.019	0.003	0.981	
323.2	0.349	0.123	0.006	0.043	0.003	0.957	
323.2	0.371	0.191	0.005	0.071	0.003	0.928	
323.2	0.404	0.242	0.004	0.097	0.003	0.902	
323.2	0.447	0.293	0.003	0.137	0.003	0.86	
323.2	0.516	0.317	0.003	0.183	0.003	0.809	
333.2	0.36	0		0		0.999	
333.2	0.377	0.06	0.009	0.017	0.003	0.982	
283.2	0.195	0.073	0.009	0.052	0.003	0.948	
333.2	0.392	0.134	0.007	0.041	0.003	0.958	
333.2	0.416	0.193	0.004	0.064	0.003	0.935	
333.2	0.501	0.288	0.003	0.14	0.003	0.856	
333.2	0.495	0.284	0.003	0.134	0.003	0.862	
333.2	0.586	0.273	0.003	0.179	0.003	0.807	
283.2	0.204	0.114	0.008	0.078	0.003	0.922	
283.2	0.225	0.19	0.007	0.118	0.003	0.881	
283.2	0.256	0.262	0.005	0.164	0.003	0.835	
283.2	0.297	0.324	0.004	0.217	0.003	0.779	
283.2	0.337	0.366	0.004	0.271	0.003	0.721	
283.2	0.343	0.372	0.004	0.281	0.003	0.71	

System: water + 1-butyl-1-methylpyrrolidinium bis[(trifluoromethyl)sulfonyl]imide; phases: Liquid mixture 1, Liquid mixture 2
Fixed: Pressure, kPa = 101.3
Property: Mole fraction of water (Liquid mixture 1); method: Chromatography
Temperature, K	Mole fraction of water	uncertainty
283.2	0.169	0.002
323.2	0.307	0.003
333.2	0.36	0.003
303.2	0.239	0.003

System: water + 1-butyl-1-methylpyrrolidinium bis[(trifluoromethyl)sulfonyl]imide; phases: Liquid mixture 2, Liquid mixture 1
Fixed: Pressure, kPa = 101.3
Property: Mole fraction of water (Liquid mixture 2); method: Chromatography
Temperature, K	Mole fraction of water	uncertainty
283.2	0.999	0.001
323.2	0.999	0.001
333.2	0.999	0.001
303.2	0.999	0.001
