Measured thermophysical data. Solubility and solution thermodynamics of 2,3,4,5-tetrabromothiophene in (ethanol + trichloromethane) binary solvent mixtures
Source: Fluid Phase Equilib., 2014, 10.1016/j.fluid.2013.11.023
Compound 1: perbromothiophene, C4Br4S, InChI=1S/C4Br4S/c5-1-2(6)4(8)9-3(1)7
Compound 2: ethanol, C2H6O, InChI=1S/C2H6O/c1-2-3/h3H,2H2,1H3, purity 99.7%
Compound 3: trichloromethane, CHCl3, InChI=1S/CHCl3/c2-1(3)4/h1H, purity 99%

System: perbromothiophene; phases: Crystal, Liquid, Air at 1 atmosphere
Property: Normal melting temperature, K (Crystal); method: DTA
Normal melting temperature, K	uncertainty
391.75	4

System: ethanol + trichloromethane + perbromothiophene; phases: Liquid, Crystal
Fixed: Pressure, kPa = 101
Property: Mole fraction of perbromothiophene (Liquid); method: gravimetric method
Temperature, K	Solvent: Mole fraction of ethanol	Mole fraction of perbromothiophene	uncertainty
278.15	0	0.01984	8e-05
278.15	0.314	0.00944	6e-05
278.15	0.526	0.00486	6e-05
278.15	0.68	0.00271	6e-05
278.15	0.795	0.00191	6e-05
278.15	0.886	0.00145	6e-05
278.15	0.959	0.00136	6e-05
278.15	1	0.00126	6e-05
282.15	0	0.02308	8e-05
282.15	0.314	0.01087	7e-05
282.15	0.526	0.00551	6e-05
282.15	0.68	0.00313	6e-05
282.15	0.795	0.00204	6e-05
282.15	0.886	0.00155	6e-05
282.15	0.959	0.00149	6e-05
282.15	1	0.00134	6e-05
286.15	0	0.02653	9e-05
286.15	0.314	0.01268	7e-05
286.15	0.526	0.00648	6e-05
286.15	0.68	0.00364	6e-05
286.15	0.795	0.00236	6e-05
286.15	0.886	0.00179	6e-05
286.15	0.959	0.00167	6e-05
286.15	1	0.00151	6e-05
290.15	0	0.03038	0.0001
290.15	0.314	0.01472	7e-05
290.15	0.526	0.00773	6e-05
290.15	0.68	0.00431	6e-05
290.15	0.795	0.00277	6e-05
290.15	0.886	0.00212	6e-05
290.15	0.959	0.00192	6e-05
290.15	1	0.00181	6e-05
294.15	0	0.03493	0.00011
294.15	0.314	0.01693	7e-05
294.15	0.526	0.00887	6e-05
294.15	0.68	0.00507	6e-05
294.15	0.795	0.0032	6e-05
294.15	0.886	0.00245	6e-05
294.15	0.959	0.00217	6e-05
294.15	1	0.00206	6e-05
298.15	0	0.04007	0.00012
298.15	0.314	0.01943	8e-05
298.15	0.526	0.01041	7e-05
298.15	0.68	0.00603	6e-05
298.15	0.795	0.004	6e-05
298.15	0.886	0.00296	6e-05
298.15	0.959	0.00249	6e-05
298.15	1	0.00241	6e-05
302.15	0	0.04578	0.00013
302.15	0.314	0.02258	8e-05
302.15	0.526	0.01212	7e-05
302.15	0.68	0.00707	6e-05
302.15	0.795	0.00467	6e-05
302.15	0.886	0.00344	6e-05
302.15	0.959	0.00286	6e-05
302.15	1	0.00268	6e-05
306.15	0	0.05168	0.00014
306.15	0.314	0.02516	9e-05
306.15	0.526	0.01379	7e-05
306.15	0.68	0.00816	6e-05
306.15	0.795	0.0055	6e-05
306.15	0.886	0.00401	6e-05
306.15	0.959	0.00332	6e-05
306.15	1	0.00305	6e-05
310.15	0	0.05884	0.00016
310.15	0.314	0.02959	9e-05
310.15	0.526	0.01628	7e-05
310.15	0.68	0.00945	6e-05
310.15	0.795	0.0061	6e-05
310.15	0.886	0.00456	6e-05
310.15	0.959	0.00373	6e-05
310.15	1	0.00353	6e-05
314.15	0	0.066	0.00017
314.15	0.314	0.03127	9e-05
314.15	0.526	0.01753	7e-05
314.15	0.68	0.01052	7e-05
314.15	0.795	0.00711	6e-05
314.15	0.886	0.00505	6e-05
314.15	0.959	0.00428	6e-05
314.15	1	0.00389	6e-05
318.15	0	0.0745	0.00019
318.15	0.314	0.03569	0.00011
318.15	0.526	0.01926	8e-05
318.15	0.68	0.01196	7e-05
318.15	0.795	0.00814	6e-05
318.15	0.886	0.0059	6e-05
318.15	0.959	0.00489	6e-05
318.15	1	0.00473	6e-05
322.15	0	0.08285	0.00021
322.15	0.314	0.03998	0.00013
322.15	0.526	0.02171	9e-05
322.15	0.68	0.01329	7e-05
322.15	0.795	0.00917	6e-05
322.15	0.886	0.00666	6e-05
322.15	0.959	0.0056	6e-05
322.15	1	0.00533	6e-05

System: trichloromethane + perbromothiophene; phases: Liquid, Crystal
Fixed: Pressure, kPa = 101
Property: Mole fraction of perbromothiophene (Liquid); method: gravimetric method
Temperature, K	Mole fraction of perbromothiophene	uncertainty
278.15	0.01984	8e-05
282.15	0.02308	8e-05
286.15	0.02653	9e-05
290.15	0.03038	0.0001
294.15	0.03493	0.00011
298.15	0.04007	0.00012
302.15	0.04578	0.00013
306.15	0.05168	0.00014
310.15	0.05884	0.00016
314.15	0.066	0.00017
318.15	0.0745	0.00019
322.15	0.08285	0.00021

System: ethanol + perbromothiophene; phases: Liquid, Crystal
Fixed: Pressure, kPa = 101
Property: Mole fraction of perbromothiophene (Liquid); method: gravimetric method
Temperature, K	Mole fraction of perbromothiophene	uncertainty
278.15	0.00126	6e-05
282.15	0.00134	6e-05
286.15	0.00151	6e-05
290.15	0.00181	6e-05
294.15	0.00206	6e-05
298.15	0.00241	6e-05
302.15	0.00268	6e-05
306.15	0.00305	6e-05
310.15	0.00353	6e-05
314.15	0.00389	6e-05
318.15	0.00473	6e-05
322.15	0.00533	6e-05
