Measured thermophysical data. Phase behaviour in the vicinity of the three-phase solid liquid vapour line in asymmetric nonpolar systems at high pressures
Source: Fluid Phase Equilib., 2006, 10.1016/j.fluid.2005.11.031
Compound 1: eicosane, C20H42, InChI=1S/C20H42/c1-3-5-7-9-11-13-15-17-19-20-18-16-14-12-10-8-6-4-2/h3-20H2,1-2H3, purity 99%
Compound 2: tetracontane, C40H82, InChI=1S/C40H82/c1-3-5-7-9-11-13-15-17-19-21-23-25-27-29-31-33-35-37-39-40-38-36-34-32-30-28-26-24-22-20-18-16-14-12-10-8-6-4-2/h3-40H2,1-2H3, purity 98%
Compound 3: ethene, C2H4, InChI=1S/C2H4/c1-2/h1-2H2, purity 99.95%
Compound 4: propane, C3H8, InChI=1S/C3H8/c1-3-2/h3H2,1-2H3, purity 99.95%

System: ethene + eicosane; phases: Liquid, Gas, Crystal
Property: Vapor or sublimation pressure, kPa (Liquid); method: Closed cell (Static) method
Temperature, K	Vapor or sublimation pressure, kPa	uncertainty
290.66	9530	170
290.95	8560	160
291.34	7540	130
291.68	7050	120
291.94	6590	120
293.98	5500	100

System: ethene + eicosane; phases: Liquid, Gas
Property: Vapor or sublimation pressure, kPa (Liquid); method: Closed cell (Static) method
Mole fraction of eicosane	Temperature, K	Vapor or sublimation pressure, kPa	uncertainty
0.089	292.04	9200	370
0.089	298.31	10380	370
0.089	323.16	14830	250
0.089	348.12	18260	300
0.12	292.25	8010	510
0.12	296.05	8710	540
0.12	300.95	9570	560
0.12	323.15	13710	540
0.12	348.15	17310	490
0.147	293.02	6960	330
0.147	295.97	7480	370
0.147	301.92	8510	400
0.147	323.16	12290	630
0.147	348.12	15950	750
0.221	295.51	5950	460
0.221	297.04	6050	460
0.221	323.15	9230	930
0.221	348.15	12200	1130

System: ethene + eicosane; phases: Liquid, Crystal
Property: Solid-liquid equilibrium temperature, K (Liquid); method: VISOBS
Mole fraction of eicosane	Pressure, kPa	Solid-liquid equilibrium temperature, K	uncertainty
0.089	290810	10.99	4.55
0.089	291240	20.12	4.55
0.089	292980	35.27	3.31
0.089	294950	50.23	3.68
0.12	291390	9.28	4.79
0.12	291600	11.12	5.16
0.12	292560	20.03	3.98
0.12	294600	35.05	3.43
0.12	296990	50.04	3.67
0.147	291910	8.25	3.19
0.147	292100	9.94	3.39
0.147	293450	19.99	3.57
0.147	295910	35.14	4.17
0.147	298460	50.15	4.53
0.221	294130	6.16	5.26
0.221	294710	9.29	5.89
0.221	296800	20.16	5.89
0.221	299740	35.09	6.43
0.221	302500	50	6.59

System: propane + tetracontane; phases: Liquid, Crystal
Property: Solid-liquid equilibrium temperature, K (Liquid); method: VISOBS
Mole fraction of tetracontane	Pressure, kPa	Solid-liquid equilibrium temperature, K	uncertainty
0.005	2630	323.75	0.45
0.005	5040	322.96	0.48
0.005	10070	322.26	0.47
0.005	20030	322.15	0.48
0.005	30050	322.68	0.53
0.005	40040	323.57	0.57
0.005	50010	324.71	0.56
0.005	60090	325.9	0.57
0.005	70090	327.29	0.58
0.005	80020	328.59	0.56
0.005	95210	330.86	0.6
0.007	2580	325.46	0.57
0.007	5250	324.94	0.59
0.007	10060	324.33	0.65
0.007	20040	324.17	0.74
0.007	30010	324.83	0.72
0.007	40060	325.86	0.74
0.007	50110	326.9	0.7
0.007	60890	328.25	0.81
0.007	71050	329.63	0.69
0.007	81260	330.98	0.82
0.007	95240	333.2	0.74
0.008	3160	325.95	0.69
0.008	5110	325.14	0.53
0.008	10070	324.72	0.55
0.008	20090	325.14	0.55
0.008	25050	325.33	0.23
0.008	30090	325.55	0.59
0.008	40090	326.58	0.64
0.008	50050	327.48	0.73
0.008	70100	330.05	0.82
0.008	90160	333.22	0.32
0.008	106130	336.2	0.48
0.01	2540	327.97	0.24
0.01	5060	326.82	0.29
0.01	9980	326.31	0.32
0.01	20110	326.24	0.35
0.01	30030	327	0.39
0.01	40070	328.17	0.41
0.01	50030	329.53	0.45
0.01	70060	332.51	0.49
0.01	95100	336.04	0.56
0.017	2780	328.21	0.21
0.017	5020	328.09	0.25
0.017	10090	327.88	0.28
0.017	20060	328.3	0.33
0.017	30190	329.23	0.37
0.017	40050	330.43	0.39
0.017	50050	331.9	0.41
0.017	60110	333.44	0.51
0.017	70230	334.97	0.44
0.017	80100	336.52	0.54
0.017	95120	338.9	0.49
0.039	2460	330.14	0.39
0.039	3070	330.3	0.39
0.039	3080	330.35	0.39
0.039	5100	330.39	0.47
0.039	5210	330.24	0.47
0.039	10100	330.61	0.52
0.039	20190	331.77	0.65
0.039	30130	333.2	0.73
0.039	40180	334.77	0.79
0.039	50200	336.43	0.82
0.039	60200	338.24	0.85
0.039	70220	339.86	0.89
0.039	80240	341.57	0.91
0.039	95350	344.23	0.95
