Measured thermophysical data. Isobaric molar heat capacities of the ternary system dimethyl carbonate + p-xylene + n-decane
Source: Fluid Phase Equilib., 2005, 10.1016/j.fluid.2005.03.026
Compound 1: dimethyl carbonate, C3H6O3, InChI=1S/C3H6O3/c1-5-3(4)6-2/h1-2H3
Compound 2: decane, C10H22, InChI=1S/C10H22/c1-3-5-7-9-10-8-6-4-2/h3-10H2,1-2H3
Compound 3: 1,4-dimethylbenzene, C8H10, InChI=1S/C8H10/c1-7-3-5-8(2)6-4-7/h3-6H,1-2H3

System: dimethyl carbonate; phases: Liquid
Fixed: Pressure, kPa = 101.3
Property: Molar heat capacity at constant pressure, J/K/mol (Liquid); method: Small sample (50 mg) DSC
Temperature, K	Molar heat capacity at constant pressure, J/K/mol	uncertainty
288.15	163.61	2.53
298.15	164.65	2.55
308.15	165.92	2.57

System: decane; phases: Liquid
Fixed: Pressure, kPa = 101.3
Property: Molar heat capacity at constant pressure, J/K/mol (Liquid); method: Small sample (50 mg) DSC
Temperature, K	Molar heat capacity at constant pressure, J/K/mol	uncertainty
288.15	310.09	4.8
298.15	315.04	4.88
308.15	320.03	4.96

System: 1,4-dimethylbenzene; phases: Liquid
Fixed: Pressure, kPa = 101.3
Property: Molar heat capacity at constant pressure, J/K/mol (Liquid); method: Small sample (50 mg) DSC
Temperature, K	Molar heat capacity at constant pressure, J/K/mol	uncertainty
288.15	178.86	2.77
298.15	182.56	2.83
308.15	186.15	2.88

System: 1,4-dimethylbenzene + dimethyl carbonate; phases: Liquid
Fixed: Pressure, kPa = 101.3
Property: Molar heat capacity at constant pressure, J/K/mol (Liquid); method: Small sample (50 mg) DSC
Temperature, K	Mole fraction of dimethyl carbonate	Molar heat capacity at constant pressure, J/K/mol	uncertainty
288.15	0	178.86	2.77
288.15	0.04522	178.07	2.76
288.15	0.09687	177.32	2.75
288.15	0.20026	175.72	2.72
288.15	0.31356	173.97	2.7
288.15	0.41254	172.39	2.67
288.15	0.49465	171.06	2.65
288.15	0.53681	170.43	2.64
288.15	0.65276	168.55	2.61
288.15	0.84448	165.6	2.57
288.15	0.90003	164.89	2.55
288.15	1	163.61	2.53
298.15	0	182.56	2.83
298.15	0.04522	181.79	2.82
298.15	0.09687	180.82	2.8
298.15	0.20026	178.96	2.77
298.15	0.31356	176.99	2.74
298.15	0.41254	175.09	2.71
298.15	0.49465	173.56	2.69
298.15	0.53681	172.79	2.68
298.15	0.65276	170.61	2.64
298.15	0.84448	167.14	2.59
298.15	0.90003	166.25	2.58
298.15	1	164.65	2.55
308.15	0	186.15	2.88
308.15	0.04522	185.28	2.87
308.15	0.09687	184.22	2.85
308.15	0.20026	182.14	2.82
308.15	0.31356	179.84	2.79
308.15	0.41254	177.74	2.75
308.15	0.49465	176.04	2.73
308.15	0.53681	175.13	2.71
308.15	0.65276	172.04	2.67
308.15	0.84448	168.84	2.62
308.15	0.90003	167.79	2.6
308.15	1	165.92	2.57

System: decane + dimethyl carbonate; phases: Liquid
Fixed: Pressure, kPa = 101.3
Property: Molar heat capacity at constant pressure, J/K/mol (Liquid); method: Small sample (50 mg) DSC
Temperature, K	Mole fraction of dimethyl carbonate	Molar heat capacity at constant pressure, J/K/mol	uncertainty
288.15	0	310.09	4.8
288.15	0.0486	302.45	4.69
288.15	0.10152	294.55	4.56
288.15	0.1491	287.67	4.46
288.15	0.19802	280.61	4.35
288.15	0.3041	266.76	4.13
288.15	0.40146	255.05	3.95
288.15	0.44966	250.05	3.87
288.15	0.55047	242.42	3.76
288.15	0.60107	237.62	3.68
288.15	0.64542	231.62	3.59
288.15	0.69448	223.46	3.46
288.15	0.79432	202.82	3.14
288.15	0.89753	179.17	2.78
288.15	0.94905	170.97	2.65
298.15	0	315.04	4.88
298.15	0.0486	307.21	4.76
298.15	0.10152	298.95	4.63
298.15	0.1491	291.87	4.52
298.15	0.19802	284.73	4.41
298.15	0.3041	269.88	4.18
298.15	0.40146	256.83	3.98
298.15	0.44966	250.5	3.88
298.15	0.55047	236.43	3.66
298.15	0.60107	229.81	3.56
298.15	0.64542	223.97	3.47
298.15	0.69448	216.47	3.35
298.15	0.79432	198.92	3.08
298.15	0.84635	189.34	2.93
298.15	0.89753	180.34	2.79
298.15	0.94905	172.02	2.66
308.15	0	320.03	4.96
308.15	0.0486	311.97	4.83
308.15	0.10152	303.55	4.7
308.15	0.1491	296.24	4.59
308.15	0.19802	288.82	4.47
308.15	0.3041	273.33	4.23
308.15	0.40146	259.45	4.02
308.15	0.44966	252.64	3.91
308.15	0.55047	238.36	3.69
308.15	0.60107	230.9	3.58
308.15	0.69448	216.49	3.35
308.15	0.79432	199.64	3.09
308.15	0.84635	190.56	2.95
308.15	0.89753	181.8	2.82
308.15	0.94905	173.51	2.69

System: decane + 1,4-dimethylbenzene; phases: Liquid
Fixed: Pressure, kPa = 101.3
Property: Molar heat capacity at constant pressure, J/K/mol (Liquid); method: Small sample (50 mg) DSC
Temperature, K	Mole fraction of 1,4-dimethylbenzene	Molar heat capacity at constant pressure, J/K/mol	uncertainty
288.15	0.05066	303.41	4.7
288.15	0.10917	295.7	4.58
288.15	0.19835	283.92	4.4
288.15	0.31051	269	4.17
288.15	0.34266	264.73	4.1
288.15	0.45385	250.03	3.87
288.15	0.49194	244.95	3.79
288.15	0.59951	230.71	3.57
288.15	0.69745	217.77	3.37
288.15	0.78657	206.1	3.19
288.15	0.8403	199.13	3.08
288.15	0.89935	191.5	2.97
288.15	0.94994	185.04	2.87
298.15	0.05066	308.28	4.78
298.15	0.10917	300.41	4.65
298.15	0.19835	288.58	4.47
298.15	0.31051	273.63	4.24
298.15	0.34266	269.34	4.17
298.15	0.45385	254.47	3.94
298.15	0.49194	249.41	3.86
298.15	0.59951	235.12	3.64
298.15	0.69745	222.04	3.44
298.15	0.78657	210.33	3.26
298.15	0.8403	203.21	3.15
298.15	0.89935	195.54	3.03
298.15	0.94994	188.96	2.93
308.15	0.05066	313.15	4.85
308.15	0.10917	305.32	4.73
308.15	0.19835	293.34	4.54
308.15	0.31051	278.21	4.31
308.15	0.34266	273.97	4.24
308.15	0.45385	258.95	4.01
308.15	0.49194	253.84	3.93
308.15	0.59951	239.35	3.71
308.15	0.69745	226.15	3.5
308.15	0.78657	214.31	3.32
308.15	0.8403	207.08	3.21
308.15	0.89935	199.3	3.09
308.15	0.94994	192.6	2.98

System: 1,4-dimethylbenzene + decane + dimethyl carbonate; phases: Liquid
Fixed: Pressure, kPa = 101.3
Property: Molar heat capacity at constant pressure, J/K/mol (Liquid); method: Small sample (50 mg) DSC
Temperature, K	Mole fraction of dimethyl carbonate	Mole fraction of 1,4-dimethylbenzene	Molar heat capacity at constant pressure, J/K/mol	uncertainty
288.15	0.04927	0.90008	184.4	2.86
288.15	0.05135	0.05173	295.15	4.57
288.15	0.09816	0.30654	254.71	3.95
288.15	0.09892	0.40318	241.93	3.75
288.15	0.1	0.50141	228.88	3.55
288.15	0.1006	0.10293	281.04	4.35
288.15	0.10098	0.20191	267.85	4.15
288.15	0.10126	0.69516	203.08	3.15
288.15	0.10156	0.59074	216.98	3.36
288.15	0.17475	0.75565	184.83	2.86
288.15	0.19391	0.09895	268.32	4.16
288.15	0.19869	0.39377	228.78	3.54
288.15	0.19993	0.5951	202.12	3.13
288.15	0.20061	0.69926	188.44	2.92
288.15	0.22433	0.21947	248.08	3.84
288.15	0.22446	0.43002	220.14	3.41
288.15	0.25737	0.1866	247.68	3.84
288.15	0.28504	0.59469	189.79	2.94
288.15	0.28999	0.50629	200.8	3.11
288.15	0.29352	0.10022	254.35	3.94
288.15	0.29618	0.30774	226.11	3.5
288.15	0.34714	0.29787	220.26	3.41
288.15	0.39142	0.0998	241.61	3.74
288.15	0.39238	0.20262	226.97	3.52
288.15	0.39559	0.50356	185.6	2.88
288.15	0.40437	0.29554	212.47	3.29
288.15	0.416	0.10958	236.76	3.67
288.15	0.44085	0.32328	203.23	3.15
288.15	0.49578	0.40299	184.34	2.86
288.15	0.49718	0.19946	212.45	3.29
288.15	0.529	0.25128	200.27	3.1
288.15	0.58633	0.0864	216.14	3.35
288.15	0.59281	0.31208	182.14	2.82
288.15	0.61302	0.19521	195.89	3.03
288.15	0.68644	0.10542	197.92	3.07
288.15	0.70211	0.19539	181.67	2.81
288.15	0.70508	0.15237	187.45	2.9
288.15	0.82079	0.12488	173.36	2.69
298.15	0.04927	0.90008	188.17	2.92
298.15	0.05135	0.05173	299.88	4.65
298.15	0.09816	0.30654	259.08	4.01
298.15	0.09892	0.40318	246.05	3.81
298.15	0.1	0.50141	232.98	3.61
298.15	0.1006	0.10293	285.54	4.42
298.15	0.10098	0.20191	272.23	4.22
298.15	0.10126	0.69516	206.96	3.21
298.15	0.10156	0.59074	220.93	3.42
298.15	0.17475	0.75565	188.36	2.92
298.15	0.19391	0.09895	272.18	4.22
298.15	0.19869	0.39377	232.46	3.6
298.15	0.19993	0.5951	205.65	3.19
298.15	0.20061	0.69926	191.89	2.97
298.15	0.22433	0.21947	251.84	3.9
298.15	0.22446	0.43002	223.74	3.47
298.15	0.25737	0.1866	251.22	3.89
298.15	0.28504	0.59469	192.99	2.99
298.15	0.28999	0.50629	204.05	3.16
298.15	0.29352	0.10022	257.63	3.99
298.15	0.29618	0.30774	229.46	3.55
298.15	0.34714	0.29787	223.37	3.46
298.15	0.39142	0.0998	244.09	3.78
298.15	0.39238	0.20262	229.7	3.56
298.15	0.39559	0.50356	188.45	2.92
298.15	0.40437	0.29554	215.31	3.34
298.15	0.416	0.10958	239.09	3.7
298.15	0.44085	0.32328	205.97	3.19
298.15	0.49578	0.40299	186.92	2.9
298.15	0.49718	0.19946	214.69	3.33
298.15	0.529	0.25128	202.61	3.14
298.15	0.58633	0.0864	217.35	3.37
298.15	0.59281	0.31208	184.39	2.86
298.15	0.61302	0.19521	197.82	3.06
298.15	0.68644	0.10542	199.19	3.09
298.15	0.70211	0.19539	183.54	2.84
298.15	0.70508	0.15237	189.17	2.93
298.15	0.82079	0.12488	174.98	2.71
308.15	0.04927	0.90008	191.75	2.97
308.15	0.05135	0.05173	304.61	4.72
308.15	0.09816	0.30654	263.25	4.08
308.15	0.09892	0.40318	250.16	3.88
308.15	0.1	0.50141	236.88	3.67
308.15	0.1006	0.10293	290.01	4.49
308.15	0.10098	0.20191	276.63	4.29
308.15	0.10126	0.69516	210.83	3.27
308.15	0.10156	0.59074	224.75	3.48
308.15	0.17475	0.75565	191.66	2.97
308.15	0.19391	0.09895	276.3	4.28
308.15	0.19869	0.39377	236.11	3.66
308.15	0.19993	0.5951	209.2	3.24
308.15	0.20061	0.69926	195.23	3.02
308.15	0.22433	0.21947	255.48	3.96
308.15	0.22446	0.43002	227.37	3.52
308.15	0.25737	0.1866	254.88	3.95
308.15	0.28504	0.59469	196.22	3.04
308.15	0.28999	0.50629	207.24	3.21
308.15	0.29352	0.10022	261.11	4.05
308.15	0.29618	0.30774	232.91	3.61
308.15	0.34714	0.29787	226.56	3.51
308.15	0.39142	0.0998	246.92	3.83
308.15	0.39238	0.20262	232.77	3.61
308.15	0.39559	0.50356	191.39	2.97
308.15	0.40437	0.29554	218.18	3.38
308.15	0.416	0.10958	241.84	3.75
308.15	0.44085	0.32328	208.75	3.23
308.15	0.49578	0.40299	189.53	2.94
308.15	0.49718	0.19946	217.27	3.37
308.15	0.529	0.25128	205.08	3.18
308.15	0.58633	0.0864	219.36	3.4
308.15	0.59281	0.31208	186.77	2.89
308.15	0.61302	0.19521	200.07	3.1
308.15	0.68644	0.10542	200.93	3.11
308.15	0.70211	0.19539	185.65	2.88
308.15	0.70508	0.15237	191.19	2.96
308.15	0.82079	0.12488	176.73	2.74
