Measured thermophysical data. Vapor liquid equilibria of the 1,1,1-trifluoroethane (HFC-143a) + propane (HC-290) system
Source: Fluid Phase Equilib., 2006, 10.1016/j.fluid.2006.06.022
Compound 1: 1,1,1-trifluoroethane, C2H3F3, InChI=1S/C2H3F3/c1-2(3,4)5/h1H3
Compound 2: propane, C3H8, InChI=1S/C3H8/c1-3-2/h3H2,1-2H3

System: 1,1,1-trifluoroethane; phases: Liquid, Gas
Property: Vapor or sublimation pressure, kPa (Liquid); method: Ebulliometric method (Recirculating still)
Temperature, K	Vapor or sublimation pressure, kPa	uncertainty
313.15	1831	9
323.15	2307	10
333.15	2874	13

System: propane; phases: Liquid, Gas
Property: Vapor or sublimation pressure, kPa (Liquid); method: Ebulliometric method (Recirculating still)
Temperature, K	Vapor or sublimation pressure, kPa	uncertainty
313.15	1374	6
323.15	1712	8
333.15	2115	9
343.15	2586	11
353.15	3151	14
363.15	3767	16

System: propane + 1,1,1-trifluoroethane; phases: Liquid, Gas
Property: Vapor or sublimation pressure, kPa (Liquid); method: Ebulliometric method (Recirculating still)
Mole fraction of 1,1,1-trifluoroethane	Temperature, K	Vapor or sublimation pressure, kPa	uncertainty
0	313.15	1374	6
0	323.15	1712	8
0	333.15	2115	9
0	343.15	2586	11
0	353.15	3151	14
0	363.15	3767	16
0.0131	363.15	3858	17
0.0197	353.15	3252	15
0.021	313.15	1447	7
0.0375	363.15	3997	18
0.0441	313.15	1520	7
0.0593	333.15	2353	11
0.0732	353.15	3516	16
0.0934	313.15	1637	8
0.0966	343.15	2999	14
0.1184	323.15	2083	10
0.1201	353.15	3719	16
0.1638	333.15	2656	12
0.166	313.15	1775	8
0.1716	353.15	3912	17
0.1893	343.15	3292	15
0.2247	323.15	2291	10
0.2276	353.15	4079	17
0.2863	313.15	1923	9
0.2865	343.15	3520	16
0.2916	353.15	4202	18
0.3147	323.15	2416	11
0.3656	333.15	3018	13
0.4314	323.15	2519	12
0.4372	313.15	2036	9
0.4426	343.15	3782	16
0.48	343.15	3824	16
0.4914	343.15	3840	16
0.5291	343.15	3871	17
0.5523	323.15	2586	12
0.5852	313.15	2082	10
0.6211	343.15	3931	17
0.6235	323.15	2596	12
0.6243	333.15	3206	14
0.7066	313.15	2075	10
0.7321	323.15	2583	12
0.7451	333.15	3192	14
0.8074	313.15	2036	9
0.8189	333.15	3145	14
0.8427	333.15	3120	14
0.8666	323.15	2501	11
0.8988	313.15	1966	9
0.9054	333.15	3051	13
0.9472	323.15	2406	11
0.9503	333.15	2986	13
1	313.15	1831	9
1	323.15	2307	10
1	333.15	2874	13

System: propane + 1,1,1-trifluoroethane; phases: Gas, Liquid
Property: Mole fraction of 1,1,1-trifluoroethane (Gas); method: Chromatography
Mole fraction of 1,1,1-trifluoroethane	Temperature, K	Mole fraction of 1,1,1-trifluoroethane	uncertainty
0	313.15	0	0.0001
0	323.15	0	0.0001
0	333.15	0	0.0001
0	343.15	0	0.0001
0	353.15	0	0.0001
0	363.15	0	0.0001
0.0131	363.15	0.0201	0.0017
0.0197	353.15	0.0358	0.0019
0.021	313.15	0.0555	0.0026
0.0375	363.15	0.0523	0.0017
0.0441	313.15	0.1047	0.0023
0.0593	333.15	0.116	0.0021
0.0732	353.15	0.1139	0.0019
0.0934	313.15	0.1874	0.0023
0.0966	343.15	0.1618	0.0022
0.1184	323.15	0.2116	0.0025
0.1201	353.15	0.17	0.0021
0.1638	333.15	0.2525	0.0026
0.166	313.15	0.2771	0.0028
0.1716	353.15	0.2216	0.0023
0.1893	343.15	0.2684	0.0027
0.2247	323.15	0.3255	0.0032
0.2276	353.15	0.2671	0.0026
0.2863	313.15	0.3867	0.0037
0.2865	343.15	0.3552	0.0035
0.2916	353.15	0.2918	0.0028
0.3147	323.15	0.4018	0.0038
0.3656	333.15	0.4298	0.0041
0.4314	323.15	0.4885	0.0046
0.4372	313.15	0.4974	0.0047
0.4426	343.15	0.4792	0.0045
0.48	343.15	0.507	0.0047
0.4914	343.15	0.5151	0.0046
0.5291	343.15	0.5408	0.0044
0.5523	323.15	0.5779	0.004
0.5852	313.15	0.5985	0.0038
0.6211	343.15	0.6187	0.0037
0.6235	323.15	0.6288	0.0036
0.6243	333.15	0.6289	0.0036
0.7066	313.15	0.6889	0.003
0.7321	323.15	0.7151	0.0028
0.7451	333.15	0.7304	0.0027
0.8074	313.15	0.7753	0.0024
0.8189	333.15	0.7991	0.0022
0.8427	333.15	0.8221	0.0021
0.8666	323.15	0.8388	0.002
0.8988	313.15	0.8669	0.0019
0.9054	333.15	0.8854	0.0018
0.9472	323.15	0.9281	0.0017
0.9503	333.15	0.935	0.0017
1	313.15	1	0.0001
1	323.15	1	0.0001
1	333.15	1	0.0001
