Measured thermophysical data. Experimental and theoretical study of interaction between organic compounds and 1- (4-sulfobutyl)-3-methylimidazolium based ionic liquids
Source: Fluid Phase Equilib., 2014, 10.1016/j.fluid.2014.06.021
Compound 1: decane, C10H22, InChI=1S/C10H22/c1-3-5-7-9-10-8-6-4-2/h3-10H2,1-2H3, purity 99%
Compound 2: undecane, C11H24, InChI=1S/C11H24/c1-3-5-7-9-11-10-8-6-4-2/h3-11H2,1-2H3, purity 99%
Compound 3: dodecane, C12H26, InChI=1S/C12H26/c1-3-5-7-9-11-12-10-8-6-4-2/h3-12H2,1-2H3, purity 99%
Compound 4: tridecane, C13H28, InChI=1S/C13H28/c1-3-5-7-9-11-13-12-10-8-6-4-2/h3-13H2,1-2H3, purity 99%
Compound 5: tetradecane, C14H30, InChI=1S/C14H30/c1-3-5-7-9-11-13-14-12-10-8-6-4-2/h3-14H2,1-2H3, purity 99%
Compound 6: cycloheptane, C7H14, InChI=1S/C7H14/c1-2-4-6-7-5-3-1/h1-7H2, purity 99%
Compound 7: benzene, C6H6, InChI=1S/C6H6/c1-2-4-6-5-3-1/h1-6H, purity 99%
Compound 8: toluene, C7H8, InChI=1S/C7H8/c1-7-5-3-2-4-6-7/h2-6H,1H3, purity 99%
Compound 9: ethylbenzene, C8H10, InChI=1S/C8H10/c1-2-8-6-4-3-5-7-8/h3-7H,2H2,1H3, purity 99%
Compound 10: 1,3-dimethylbenzene, C8H10, InChI=1S/C8H10/c1-7-4-3-5-8(2)6-7/h3-6H,1-2H3, purity 99%
Compound 11: 1,4-dimethylbenzene, C8H10, InChI=1S/C8H10/c1-7-3-5-8(2)6-4-7/h3-6H,1-2H3, purity 99%
Compound 12: 1,2-dimethylbenzene, C8H10, InChI=1S/C8H10/c1-7-5-3-4-6-8(7)2/h3-6H,1-2H3, purity 99%
Compound 13: 1-hexyne, C6H10, InChI=1S/C6H10/c1-3-5-6-4-2/h1H,4-6H2,2H3, purity 99%
Compound 14: 1-heptyne, C7H12, InChI=1S/C7H12/c1-3-5-7-6-4-2/h1H,4-7H2,2H3, purity 99%
Compound 15: butanone, C4H8O, InChI=1S/C4H8O/c1-3-4(2)5/h3H2,1-2H3, purity 99%
Compound 16: pentan-2-one, C5H10O, InChI=1S/C5H10O/c1-3-4-5(2)6/h3-4H2,1-2H3, purity 99%
Compound 17: pentan-3-one, C5H10O, InChI=1S/C5H10O/c1-3-5(6)4-2/h3-4H2,1-2H3, purity 99%
Compound 18: methanol, CH4O, InChI=1S/CH4O/c1-2/h2H,1H3, purity 99%
Compound 19: ethanol, C2H6O, InChI=1S/C2H6O/c1-2-3/h3H,2H2,1H3, purity 99%
Compound 20: propan-1-ol, C3H8O, InChI=1S/C3H8O/c1-2-3-4/h4H,2-3H2,1H3, purity 99%
Compound 21: propan-2-ol, C3H8O, InChI=1S/C3H8O/c1-3(2)4/h3-4H,1-2H3, purity 99%
Compound 22: 2-methyl-1-propanol, C4H10O, InChI=1S/C4H10O/c1-4(2)3-5/h4-5H,3H2,1-2H3, purity 99%
Compound 23: butan-1-ol, C4H10O, InChI=1S/C4H10O/c1-2-3-4-5/h5H,2-4H2,1H3, purity 99%
Compound 24: diethyl ether, C4H10O, InChI=1S/C4H10O/c1-3-5-4-2/h3-4H2,1-2H3, purity 99%
Compound 25: diisopropyl ether, C6H14O, InChI=1S/C6H14O/c1-5(2)7-6(3)4/h5-6H,1-4H3, purity 99%
Compound 26: trichloromethane, CHCl3, InChI=1S/CHCl3/c2-1(3)4/h1H, purity 99%
Compound 27: dichloromethane, CH2Cl2, InChI=1S/CH2Cl2/c2-1-3/h1H2, purity 99%
Compound 28: tetrachloromethane, CCl4, InChI=1S/CCl4/c2-1(3,4)5, purity 99%
Compound 29: acetonitrile, C2H3N, InChI=1S/C2H3N/c1-2-3/h1H3, purity 99%
Compound 30: nitromethane, CH3NO2, InChI=1S/CH3NO2/c1-2(3)4/h1H3, purity 99%
Compound 31: 1-nitropropane, C3H7NO2, InChI=1S/C3H7NO2/c1-2-3-4(5)6/h2-3H2,1H3, purity 99%
Compound 32: thiophene, C4H4S, InChI=1S/C4H4S/c1-2-4-5-3-1/h1-4H, purity 99%
Compound 33: 1-(4-sulfobutyl)-3-methylimidazolium bis(trifluoromethanesulfonyl)imide, C10H15F6N3O7S3, InChI=1S/C8H14N2O3S.C2F6NO4S2/c1-9-5-6-10(8-9)4-2-3-7-14(11,12)13;3-1(4,5)14(10,11)9-15(12,13)2(6,7)8/h5-6,8H,2-4,7H2,1H3;/q;-1/p+1, purity 98%
Compound 34: 1-(4-sulfobutyl)-3-methylimidazolium trifluoromethanesulfonate, C9H15F3N2O6S2, InChI=1S/C8H14N2O3S.CHF3O3S/c1-9-5-6-10(8-9)4-2-3-7-14(11,12)13;2-1(3,4)8(5,6)7/h5-6,8H,2-4,7H2,1H3;(H,5,6,7), purity 98%
Compound 35: 1-methyl-3-(4-sulfobutyl)-imidazolium hydrogensulfate, C8H16N2O7S2, InChI=1S/C8H14N2O3S.H2O4S/c1-9-5-6-10(8-9)4-2-3-7-14(11,12)13;1-5(2,3)4/h5-6,8H,2-4,7H2,1H3;(H2,1,2,3,4), purity 98%

System: 1-(4-sulfobutyl)-3-methylimidazolium bis(trifluoromethanesulfonyl)imide; phases: Liquid
Fixed: Pressure, kPa = 101.325
Property: Mass density, kg/m3 (Liquid); method: Vibrating tube method
Temperature, K	Mass density, kg/m3	uncertainty
298.15	1577	2
299.45	1575.8	2.3
300.75	1574.9	2.3
302.15	1573.7	2.3
303.45	1572.7	2.3
304.75	1571.5	2.3
305.85	1570.5	2.3
307.15	1569.2	2.3
308.65	1568	2
310.35	1566.7	2.2
311.75	1565.5	2.2
313.05	1564.3	2.2
314.45	1563.2	2.2
315.85	1562	2
317.25	1560.9	2.2
318.75	1559.8	2.2
320.05	1558.8	2.2
321.45	1557.7	2.2
322.85	1556.4	2.2
324.65	1554.8	2.2
326.65	1553.4	2.2
328.45	1551.8	2.2
338.55	1543.9	2.2
343.5	1539.7	2.2

System: 1-(4-sulfobutyl)-3-methylimidazolium trifluoromethanesulfonate; phases: Liquid
Fixed: Pressure, kPa = 101.325
Property: Mass density, kg/m3 (Liquid); method: Vibrating tube method
Temperature, K	Mass density, kg/m3	uncertainty
298.15	1478.4	2
299.45	1478	2
300.75	1477	2
302.15	1476.1	2
303.45	1475.3	2
304.75	1474.7	2
305.85	1473.8	2
307.15	1472.8	2
308.65	1472	2
310.35	1470.9	2
311.75	1470.1	2
313.05	1469.3	2
314.45	1468.2	2
315.85	1467.3	2
317.25	1466.3	2
318.75	1465.6	2
320.05	1464.8	2
321.45	1463.7	2
322.85	1462.7	1.9
324.65	1461.5	1.9
326.65	1461.3	1.9
328.45	1460.2	1.9
338.55	1453.7	1.9
343.5	1450.6	1.9

System: 1-methyl-3-(4-sulfobutyl)-imidazolium hydrogensulfate; phases: Liquid
Fixed: Pressure, kPa = 101.325
Property: Mass density, kg/m3 (Liquid); method: Vibrating tube method
Temperature, K	Mass density, kg/m3	uncertainty
298.15	1437.7	1.9
299.45	1436.9	1.9
300.75	1436.3	1.9
302.15	1435.4	1.9
303.45	1434.8	1.9
304.75	1434	2
305.85	1433.3	1.9
307.15	1432.4	1.9
308.65	1431.7	1.9
310.35	1430.8	1.9
311.75	1430	2
313.05	1429.3	1.9
314.45	1428.5	1.9
315.85	1427.8	1.9
317.25	1426.9	1.8
318.75	1426.4	1.8
320.05	1425.8	1.8
321.45	1424.7	1.8
322.85	1423.9	1.8
324.65	1423.2	1.8
326.65	1422.1	1.8
328.45	1421.2	1.8
338.55	1414.5	1.8
343.5	1411.7	1.8

System: decane + 1-(4-sulfobutyl)-3-methylimidazolium bis(trifluoromethanesulfonyl)imide; phases: Liquid
Fixed: Pressure, kPa = 101.33
Fixed: Mole fraction of decane = 0
Property: Activity coefficient of decane (Liquid); method: Chromatography
Temperature, K	Activity coefficient of decane	uncertainty
323.15	370.76	25.5
333.15	335.67	23.08
343.15	280.87	19.31

System: undecane + 1-(4-sulfobutyl)-3-methylimidazolium bis(trifluoromethanesulfonyl)imide; phases: Liquid
Fixed: Pressure, kPa = 101.33
Fixed: Mole fraction of undecane = 0
Property: Activity coefficient of undecane (Liquid); method: Chromatography
Temperature, K	Activity coefficient of undecane	uncertainty
323.15	514.86	35.44
333.15	447.99	30.82
343.15	425.18	29.25

System: dodecane + 1-(4-sulfobutyl)-3-methylimidazolium bis(trifluoromethanesulfonyl)imide; phases: Liquid
Fixed: Pressure, kPa = 101.33
Fixed: Mole fraction of dodecane = 0
Property: Activity coefficient of dodecane (Liquid); method: Chromatography
Temperature, K	Activity coefficient of dodecane	uncertainty
323.15	683.5	47.1
333.15	587.89	40.47
343.15	556.81	38.33

System: tridecane + 1-(4-sulfobutyl)-3-methylimidazolium bis(trifluoromethanesulfonyl)imide; phases: Liquid
Fixed: Pressure, kPa = 101.33
Fixed: Mole fraction of tridecane = 0
Property: Activity coefficient of tridecane (Liquid); method: Chromatography
Temperature, K	Activity coefficient of tridecane	uncertainty
323.15	1080.79	74.52
333.15	910.66	62.76
343.15	831.96	57.32

System: tetradecane + 1-(4-sulfobutyl)-3-methylimidazolium bis(trifluoromethanesulfonyl)imide; phases: Liquid
Fixed: Pressure, kPa = 101.33
Fixed: Mole fraction of tetradecane = 0
Property: Activity coefficient of tetradecane (Liquid); method: Chromatography
Temperature, K	Activity coefficient of tetradecane	uncertainty
323.15	1175.76	81.07
333.15	1055.66	72.78
343.15	940.75	64.84

System: cycloheptane + 1-(4-sulfobutyl)-3-methylimidazolium bis(trifluoromethanesulfonyl)imide; phases: Liquid
Fixed: Pressure, kPa = 101.33
Fixed: Mole fraction of cycloheptane = 0
Property: Activity coefficient of cycloheptane (Liquid); method: Chromatography
Temperature, K	Activity coefficient of cycloheptane	uncertainty
323.15	92.5	6.4
333.15	143.54	9.86
343.15	179.88	12.35

System: benzene + 1-(4-sulfobutyl)-3-methylimidazolium bis(trifluoromethanesulfonyl)imide; phases: Liquid
Fixed: Pressure, kPa = 101.33
Fixed: Mole fraction of benzene = 0
Property: Activity coefficient of benzene (Liquid); method: Chromatography
Temperature, K	Activity coefficient of benzene	uncertainty
323.15	1.95	0.13
333.15	2.07	0.14
343.15	2.15	0.15

System: toluene + 1-(4-sulfobutyl)-3-methylimidazolium bis(trifluoromethanesulfonyl)imide; phases: Liquid
Fixed: Pressure, kPa = 101.33
Fixed: Mole fraction of toluene = 0
Property: Activity coefficient of toluene (Liquid); method: Chromatography
Temperature, K	Activity coefficient of toluene	uncertainty
323.15	3.1	0.2
333.15	3.28	0.22
343.15	3.31	0.23

System: ethylbenzene + 1-(4-sulfobutyl)-3-methylimidazolium bis(trifluoromethanesulfonyl)imide; phases: Liquid
Fixed: Pressure, kPa = 101.33
Fixed: Mole fraction of ethylbenzene = 0
Property: Activity coefficient of ethylbenzene (Liquid); method: Chromatography
Temperature, K	Activity coefficient of ethylbenzene	uncertainty
323.15	5.37	0.37
333.15	5.79	0.39
343.15	5.8	0.4

System: 1,3-dimethylbenzene + 1-(4-sulfobutyl)-3-methylimidazolium bis(trifluoromethanesulfonyl)imide; phases: Liquid
Fixed: Pressure, kPa = 101.33
Fixed: Mole fraction of 1,3-dimethylbenzene = 0
Property: Activity coefficient of 1,3-dimethylbenzene (Liquid); method: Chromatography
Temperature, K	Activity coefficient of 1,3-dimethylbenzene	uncertainty
323.15	5.19	0.35
333.15	5.49	0.37
343.15	5.57	0.38

System: 1,4-dimethylbenzene + 1-(4-sulfobutyl)-3-methylimidazolium bis(trifluoromethanesulfonyl)imide; phases: Liquid
Fixed: Pressure, kPa = 101.33
Fixed: Mole fraction of 1,4-dimethylbenzene = 0
Property: Activity coefficient of 1,4-dimethylbenzene (Liquid); method: Chromatography
Temperature, K	Activity coefficient of 1,4-dimethylbenzene	uncertainty
323.15	5.11	0.35
333.15	5.47	0.37
343.15	5.55	0.38

System: 1,2-dimethylbenzene + 1-(4-sulfobutyl)-3-methylimidazolium bis(trifluoromethanesulfonyl)imide; phases: Liquid
Fixed: Pressure, kPa = 101.33
Fixed: Mole fraction of 1,2-dimethylbenzene = 0
Property: Activity coefficient of 1,2-dimethylbenzene (Liquid); method: Chromatography
Temperature, K	Activity coefficient of 1,2-dimethylbenzene	uncertainty
323.15	4.39	0.3
333.15	4.64	0.32
343.15	4.8	0.3

System: butanone + 1-(4-sulfobutyl)-3-methylimidazolium bis(trifluoromethanesulfonyl)imide; phases: Liquid
Fixed: Pressure, kPa = 101.33
Fixed: Mole fraction of butanone = 0
Property: Activity coefficient of butanone (Liquid); method: Chromatography
Temperature, K	Activity coefficient of butanone	uncertainty
323.15	0.24	0.03
333.15	0.27	0.03
343.15	0.3	0.1

System: pentan-2-one + 1-(4-sulfobutyl)-3-methylimidazolium bis(trifluoromethanesulfonyl)imide; phases: Liquid
Fixed: Pressure, kPa = 101.33
Fixed: Mole fraction of pentan-2-one = 0
Property: Activity coefficient of pentan-2-one (Liquid); method: Chromatography
Temperature, K	Activity coefficient of pentan-2-one	uncertainty
323.15	0.42	0.04
333.15	0.52	0.04
343.15	0.64	0.04

System: pentan-3-one + 1-(4-sulfobutyl)-3-methylimidazolium bis(trifluoromethanesulfonyl)imide; phases: Liquid
Fixed: Pressure, kPa = 101.33
Fixed: Mole fraction of pentan-3-one = 0
Property: Activity coefficient of pentan-3-one (Liquid); method: Chromatography
Temperature, K	Activity coefficient of pentan-3-one	uncertainty
323.15	0.54	0.04
333.15	0.64	0.04
343.15	0.77	0.05

System: methanol + 1-(4-sulfobutyl)-3-methylimidazolium bis(trifluoromethanesulfonyl)imide; phases: Liquid
Fixed: Pressure, kPa = 101.33
Fixed: Mole fraction of methanol = 0
Property: Activity coefficient of methanol (Liquid); method: Chromatography
Temperature, K	Activity coefficient of methanol	uncertainty
323.15	0.06	0.03
333.15	0.08	0.03
343.15	0.09	0.03

System: ethanol + 1-(4-sulfobutyl)-3-methylimidazolium bis(trifluoromethanesulfonyl)imide; phases: Liquid
Fixed: Pressure, kPa = 101.33
Fixed: Mole fraction of ethanol = 0
Property: Activity coefficient of ethanol (Liquid); method: Chromatography
Temperature, K	Activity coefficient of ethanol	uncertainty
333.15	0.08	0.03
343.15	0.1	0.1

System: propan-1-ol + 1-(4-sulfobutyl)-3-methylimidazolium bis(trifluoromethanesulfonyl)imide; phases: Liquid
Fixed: Pressure, kPa = 101.33
Fixed: Mole fraction of propan-1-ol = 0
Property: Activity coefficient of propan-1-ol (Liquid); method: Chromatography
Temperature, K	Activity coefficient of propan-1-ol	uncertainty
333.15	0.13	0.03
343.15	0.16	0.03

System: propan-2-ol + 1-(4-sulfobutyl)-3-methylimidazolium bis(trifluoromethanesulfonyl)imide; phases: Liquid
Fixed: Pressure, kPa = 101.33
Fixed: Mole fraction of propan-2-ol = 0
Property: Activity coefficient of propan-2-ol (Liquid); method: Chromatography
Temperature, K	Activity coefficient of propan-2-ol	uncertainty
333.15	0.09	0.03
343.15	0.11	0.03

System: 2-methyl-1-propanol + 1-(4-sulfobutyl)-3-methylimidazolium bis(trifluoromethanesulfonyl)imide; phases: Liquid
Fixed: Pressure, kPa = 101.33
Fixed: Mole fraction of 2-methyl-1-propanol = 0
Property: Activity coefficient of 2-methyl-1-propanol (Liquid); method: Chromatography
Temperature, K	Activity coefficient of 2-methyl-1-propanol	uncertainty
333.15	0.22	0.03
343.15	0.26	0.03

System: butan-1-ol + 1-(4-sulfobutyl)-3-methylimidazolium bis(trifluoromethanesulfonyl)imide; phases: Liquid
Fixed: Pressure, kPa = 101.33
Fixed: Mole fraction of butan-1-ol = 0
Property: Activity coefficient of butan-1-ol (Liquid); method: Chromatography
Temperature, K	Activity coefficient of butan-1-ol	uncertainty
333.15	0.19	0.03
343.15	0.23	0.03

System: diethyl ether + 1-(4-sulfobutyl)-3-methylimidazolium bis(trifluoromethanesulfonyl)imide; phases: Liquid
Fixed: Pressure, kPa = 101.33
Fixed: Mole fraction of diethyl ether = 0
Property: Activity coefficient of diethyl ether (Liquid); method: Chromatography
Temperature, K	Activity coefficient of diethyl ether	uncertainty
323.15	0.4	0.1
333.15	0.53	0.04
343.15	0.65	0.04

System: trichloromethane + 1-(4-sulfobutyl)-3-methylimidazolium bis(trifluoromethanesulfonyl)imide; phases: Liquid
Fixed: Pressure, kPa = 101.33
Fixed: Mole fraction of trichloromethane = 0
Property: Activity coefficient of trichloromethane (Liquid); method: Chromatography
Temperature, K	Activity coefficient of trichloromethane	uncertainty
323.15	1.81	0.12
333.15	1.83	0.12
343.15	1.86	0.13

System: dichloromethane + 1-(4-sulfobutyl)-3-methylimidazolium bis(trifluoromethanesulfonyl)imide; phases: Liquid
Fixed: Pressure, kPa = 101.33
Fixed: Mole fraction of dichloromethane = 0
Property: Activity coefficient of dichloromethane (Liquid); method: Chromatography
Temperature, K	Activity coefficient of dichloromethane	uncertainty
323.15	1.08	0.07
333.15	1.18	0.08
343.15	1.28	0.08

System: tetrachloromethane + 1-(4-sulfobutyl)-3-methylimidazolium bis(trifluoromethanesulfonyl)imide; phases: Liquid
Fixed: Pressure, kPa = 101.33
Fixed: Mole fraction of tetrachloromethane = 0
Property: Activity coefficient of tetrachloromethane (Liquid); method: Chromatography
Temperature, K	Activity coefficient of tetrachloromethane	uncertainty
323.15	7.71	0.53
333.15	7.99	0.54
343.15	8.1	0.6

System: acetonitrile + 1-(4-sulfobutyl)-3-methylimidazolium bis(trifluoromethanesulfonyl)imide; phases: Liquid
Fixed: Pressure, kPa = 101.33
Fixed: Mole fraction of acetonitrile = 0
Property: Activity coefficient of acetonitrile (Liquid); method: Chromatography
Temperature, K	Activity coefficient of acetonitrile	uncertainty
323.15	0.4	0.1
333.15	0.42	0.04
343.15	0.45	0.04

System: nitromethane + 1-(4-sulfobutyl)-3-methylimidazolium bis(trifluoromethanesulfonyl)imide; phases: Liquid
Fixed: Pressure, kPa = 101.33
Fixed: Mole fraction of nitromethane = 0
Property: Activity coefficient of nitromethane (Liquid); method: Chromatography
Temperature, K	Activity coefficient of nitromethane	uncertainty
323.15	0.6	0.1
333.15	0.6	0.1
343.15	0.6	0.1

System: 1-nitropropane + 1-(4-sulfobutyl)-3-methylimidazolium bis(trifluoromethanesulfonyl)imide; phases: Liquid
Fixed: Pressure, kPa = 101.33
Fixed: Mole fraction of 1-nitropropane = 0
Property: Activity coefficient of 1-nitropropane (Liquid); method: Chromatography
Temperature, K	Activity coefficient of 1-nitropropane	uncertainty
323.15	1.17	0.07
333.15	1.17	0.07
343.15	1.18	0.08

System: thiophene + 1-(4-sulfobutyl)-3-methylimidazolium bis(trifluoromethanesulfonyl)imide; phases: Liquid
Fixed: Pressure, kPa = 101.33
Fixed: Mole fraction of thiophene = 0
Property: Activity coefficient of thiophene (Liquid); method: Chromatography
Temperature, K	Activity coefficient of thiophene	uncertainty
323.15	0.83	0.05
333.15	0.83	0.05
343.15	0.82	0.05

System: dodecane + 1-(4-sulfobutyl)-3-methylimidazolium trifluoromethanesulfonate; phases: Liquid
Fixed: Pressure, kPa = 101.33
Fixed: Mole fraction of dodecane = 0
Property: Activity coefficient of dodecane (Liquid); method: Chromatography
Temperature, K	Activity coefficient of dodecane	uncertainty
323.15	1492.66	103.08
333.15	1021.71	70.47
343.15	997.47	68.75

System: tridecane + 1-(4-sulfobutyl)-3-methylimidazolium trifluoromethanesulfonate; phases: Liquid
Fixed: Pressure, kPa = 101.33
Fixed: Mole fraction of tridecane = 0
Property: Activity coefficient of tridecane (Liquid); method: Chromatography
Temperature, K	Activity coefficient of tridecane	uncertainty
323.15	1936.91	133.76
333.15	1550.28	107.02
343.15	1220.66	84.23

System: cycloheptane + 1-(4-sulfobutyl)-3-methylimidazolium trifluoromethanesulfonate; phases: Liquid
Fixed: Pressure, kPa = 101.33
Fixed: Mole fraction of cycloheptane = 0
Property: Activity coefficient of cycloheptane (Liquid); method: Chromatography
Temperature, K	Activity coefficient of cycloheptane	uncertainty
323.15	225.46	15.49
333.15	269.71	18.54
343.15	287.15	19.74

System: benzene + 1-(4-sulfobutyl)-3-methylimidazolium trifluoromethanesulfonate; phases: Liquid
Fixed: Pressure, kPa = 101.33
Fixed: Mole fraction of benzene = 0
Property: Activity coefficient of benzene (Liquid); method: Chromatography
Temperature, K	Activity coefficient of benzene	uncertainty
323.15	3.36	0.23
333.15	3.29	0.22
343.15	3.2	0.2

System: toluene + 1-(4-sulfobutyl)-3-methylimidazolium trifluoromethanesulfonate; phases: Liquid
Fixed: Pressure, kPa = 101.33
Fixed: Mole fraction of toluene = 0
Property: Activity coefficient of toluene (Liquid); method: Chromatography
Temperature, K	Activity coefficient of toluene	uncertainty
323.15	5.74	0.39
333.15	5.54	0.38
343.15	5.54	0.38

System: ethylbenzene + 1-(4-sulfobutyl)-3-methylimidazolium trifluoromethanesulfonate; phases: Liquid
Fixed: Pressure, kPa = 101.33
Fixed: Mole fraction of ethylbenzene = 0
Property: Activity coefficient of ethylbenzene (Liquid); method: Chromatography
Temperature, K	Activity coefficient of ethylbenzene	uncertainty
323.15	10.85	0.74
333.15	10.31	0.7
343.15	10.29	0.7

System: 1,3-dimethylbenzene + 1-(4-sulfobutyl)-3-methylimidazolium trifluoromethanesulfonate; phases: Liquid
Fixed: Pressure, kPa = 101.33
Fixed: Mole fraction of 1,3-dimethylbenzene = 0
Property: Activity coefficient of 1,3-dimethylbenzene (Liquid); method: Chromatography
Temperature, K	Activity coefficient of 1,3-dimethylbenzene	uncertainty
323.15	10.37	0.71
333.15	10.1	0.7
343.15	9.84	0.67

System: 1,4-dimethylbenzene + 1-(4-sulfobutyl)-3-methylimidazolium trifluoromethanesulfonate; phases: Liquid
Fixed: Pressure, kPa = 101.33
Fixed: Mole fraction of 1,4-dimethylbenzene = 0
Property: Activity coefficient of 1,4-dimethylbenzene (Liquid); method: Chromatography
Temperature, K	Activity coefficient of 1,4-dimethylbenzene	uncertainty
323.15	10.07	0.69
333.15	9.86	0.67
343.15	9.52	0.65

System: 1,2-dimethylbenzene + 1-(4-sulfobutyl)-3-methylimidazolium trifluoromethanesulfonate; phases: Liquid
Fixed: Pressure, kPa = 101.33
Fixed: Mole fraction of 1,2-dimethylbenzene = 0
Property: Activity coefficient of 1,2-dimethylbenzene (Liquid); method: Chromatography
Temperature, K	Activity coefficient of 1,2-dimethylbenzene	uncertainty
323.15	8.26	0.56
333.15	8.21	0.56
343.15	7.97	0.54

System: 1-hexyne + 1-(4-sulfobutyl)-3-methylimidazolium trifluoromethanesulfonate; phases: Liquid
Fixed: Pressure, kPa = 101.33
Fixed: Mole fraction of 1-hexyne = 0
Property: Activity coefficient of 1-hexyne (Liquid); method: Chromatography
Temperature, K	Activity coefficient of 1-hexyne	uncertainty
323.15	15.51	1.06
333.15	14.45	0.99
343.15	13.51	0.92

System: 1-heptyne + 1-(4-sulfobutyl)-3-methylimidazolium trifluoromethanesulfonate; phases: Liquid
Fixed: Pressure, kPa = 101.33
Fixed: Mole fraction of 1-heptyne = 0
Property: Activity coefficient of 1-heptyne (Liquid); method: Chromatography
Temperature, K	Activity coefficient of 1-heptyne	uncertainty
323.15	25.9	1.77
333.15	25.7	1.76
343.15	24.75	1.69

System: butanone + 1-(4-sulfobutyl)-3-methylimidazolium trifluoromethanesulfonate; phases: Liquid
Fixed: Pressure, kPa = 101.33
Fixed: Mole fraction of butanone = 0
Property: Activity coefficient of butanone (Liquid); method: Chromatography
Temperature, K	Activity coefficient of butanone	uncertainty
323.15	1.06	0.07
333.15	1	0.06
343.15	0.96	0.06

System: pentan-2-one + 1-(4-sulfobutyl)-3-methylimidazolium trifluoromethanesulfonate; phases: Liquid
Fixed: Pressure, kPa = 101.33
Fixed: Mole fraction of pentan-2-one = 0
Property: Activity coefficient of pentan-2-one (Liquid); method: Chromatography
Temperature, K	Activity coefficient of pentan-2-one	uncertainty
323.15	2.11	0.14
333.15	2.14	0.15
343.15	2.19	0.15

System: pentan-3-one + 1-(4-sulfobutyl)-3-methylimidazolium trifluoromethanesulfonate; phases: Liquid
Fixed: Pressure, kPa = 101.33
Fixed: Mole fraction of pentan-3-one = 0
Property: Activity coefficient of pentan-3-one (Liquid); method: Chromatography
Temperature, K	Activity coefficient of pentan-3-one	uncertainty
323.15	2.31	0.16
333.15	2.33	0.16
343.15	2.44	0.17

System: diethyl ether + 1-(4-sulfobutyl)-3-methylimidazolium trifluoromethanesulfonate; phases: Liquid
Fixed: Pressure, kPa = 101.33
Fixed: Mole fraction of diethyl ether = 0
Property: Activity coefficient of diethyl ether (Liquid); method: Chromatography
Temperature, K	Activity coefficient of diethyl ether	uncertainty
323.15	4.51	0.31
333.15	4.36	0.3
343.15	4.21	0.29

System: diisopropyl ether + 1-(4-sulfobutyl)-3-methylimidazolium trifluoromethanesulfonate; phases: Liquid
Fixed: Pressure, kPa = 101.33
Fixed: Mole fraction of diisopropyl ether = 0
Property: Activity coefficient of diisopropyl ether (Liquid); method: Chromatography
Temperature, K	Activity coefficient of diisopropyl ether	uncertainty
323.15	11.74	0.8
333.15	13.34	0.91
343.15	14.92	1.02

System: trichloromethane + 1-(4-sulfobutyl)-3-methylimidazolium trifluoromethanesulfonate; phases: Liquid
Fixed: Pressure, kPa = 101.33
Fixed: Mole fraction of trichloromethane = 0
Property: Activity coefficient of trichloromethane (Liquid); method: Chromatography
Temperature, K	Activity coefficient of trichloromethane	uncertainty
323.15	2.12	0.14
333.15	2.18	0.15
343.15	2.19	0.15

System: dichloromethane + 1-(4-sulfobutyl)-3-methylimidazolium trifluoromethanesulfonate; phases: Liquid
Fixed: Pressure, kPa = 101.33
Fixed: Mole fraction of dichloromethane = 0
Property: Activity coefficient of dichloromethane (Liquid); method: Chromatography
Temperature, K	Activity coefficient of dichloromethane	uncertainty
323.15	1.3	0.08
333.15	1.46	0.1
343.15	1.61	0.11

System: tetrachloromethane + 1-(4-sulfobutyl)-3-methylimidazolium trifluoromethanesulfonate; phases: Liquid
Fixed: Pressure, kPa = 101.33
Fixed: Mole fraction of tetrachloromethane = 0
Property: Activity coefficient of tetrachloromethane (Liquid); method: Chromatography
Temperature, K	Activity coefficient of tetrachloromethane	uncertainty
323.15	12.45	0.85
333.15	12.1	0.83
343.15	11.44	0.78

System: acetonitrile + 1-(4-sulfobutyl)-3-methylimidazolium trifluoromethanesulfonate; phases: Liquid
Fixed: Pressure, kPa = 101.33
Fixed: Mole fraction of acetonitrile = 0
Property: Activity coefficient of acetonitrile (Liquid); method: Chromatography
Temperature, K	Activity coefficient of acetonitrile	uncertainty
323.15	0.68	0.05
333.15	0.67	0.05
343.15	0.68	0.05

System: nitromethane + 1-(4-sulfobutyl)-3-methylimidazolium trifluoromethanesulfonate; phases: Liquid
Fixed: Pressure, kPa = 101.33
Fixed: Mole fraction of nitromethane = 0
Property: Activity coefficient of nitromethane (Liquid); method: Chromatography
Temperature, K	Activity coefficient of nitromethane	uncertainty
323.15	0.72	0.05
333.15	0.71	0.05
343.15	0.71	0.05

System: 1-nitropropane + 1-(4-sulfobutyl)-3-methylimidazolium trifluoromethanesulfonate; phases: Liquid
Fixed: Pressure, kPa = 101.33
Fixed: Mole fraction of 1-nitropropane = 0
Property: Activity coefficient of 1-nitropropane (Liquid); method: Chromatography
Temperature, K	Activity coefficient of 1-nitropropane	uncertainty
323.15	1.84	0.12
333.15	1.8	0.12
343.15	1.77	0.12

System: thiophene + 1-(4-sulfobutyl)-3-methylimidazolium trifluoromethanesulfonate; phases: Liquid
Fixed: Pressure, kPa = 101.33
Fixed: Mole fraction of thiophene = 0
Property: Activity coefficient of thiophene (Liquid); method: Chromatography
Temperature, K	Activity coefficient of thiophene	uncertainty
323.15	2.24	0.15
333.15	2.23	0.15
343.15	2.22	0.15

System: undecane + 1-methyl-3-(4-sulfobutyl)-imidazolium hydrogensulfate; phases: Liquid
Fixed: Pressure, kPa = 101.33
Fixed: Mole fraction of undecane = 0
Property: Activity coefficient of undecane (Liquid); method: Chromatography
Temperature, K	Activity coefficient of undecane	uncertainty
323.15	1492.46	102.97
333.15	1366.45	94.25
343.15	1307.22	90.15

System: dodecane + 1-methyl-3-(4-sulfobutyl)-imidazolium hydrogensulfate; phases: Liquid
Fixed: Pressure, kPa = 101.33
Fixed: Mole fraction of dodecane = 0
Property: Activity coefficient of dodecane (Liquid); method: Chromatography
Temperature, K	Activity coefficient of dodecane	uncertainty
323.15	1305.79	90.06
333.15	1195.58	82.44
343.15	1143.76	78.86

System: tridecane + 1-methyl-3-(4-sulfobutyl)-imidazolium hydrogensulfate; phases: Liquid
Fixed: Pressure, kPa = 101.33
Fixed: Mole fraction of tridecane = 0
Property: Activity coefficient of tridecane (Liquid); method: Chromatography
Temperature, K	Activity coefficient of tridecane	uncertainty
323.15	1538.49	106.15
333.15	1408.58	97.16
343.15	1347.52	92.94

System: tetradecane + 1-methyl-3-(4-sulfobutyl)-imidazolium hydrogensulfate; phases: Liquid
Fixed: Pressure, kPa = 101.33
Fixed: Mole fraction of tetradecane = 0
Property: Activity coefficient of tetradecane (Liquid); method: Chromatography
Temperature, K	Activity coefficient of tetradecane	uncertainty
323.15	1912.7	132.04
333.15	1751.09	120.85
343.15	1675.18	115.6

System: benzene + 1-methyl-3-(4-sulfobutyl)-imidazolium hydrogensulfate; phases: Liquid
Fixed: Pressure, kPa = 101.33
Fixed: Mole fraction of benzene = 0
Property: Activity coefficient of benzene (Liquid); method: Chromatography
Temperature, K	Activity coefficient of benzene	uncertainty
323.15	14.37	0.98
333.15	12.46	0.85
343.15	12.18	0.83

System: toluene + 1-methyl-3-(4-sulfobutyl)-imidazolium hydrogensulfate; phases: Liquid
Fixed: Pressure, kPa = 101.33
Fixed: Mole fraction of toluene = 0
Property: Activity coefficient of toluene (Liquid); method: Chromatography
Temperature, K	Activity coefficient of toluene	uncertainty
323.15	28.31	1.94
333.15	26.62	1.82
343.15	24.88	1.7

System: ethylbenzene + 1-methyl-3-(4-sulfobutyl)-imidazolium hydrogensulfate; phases: Liquid
Fixed: Pressure, kPa = 101.33
Fixed: Mole fraction of ethylbenzene = 0
Property: Activity coefficient of ethylbenzene (Liquid); method: Chromatography
Temperature, K	Activity coefficient of ethylbenzene	uncertainty
323.15	62.71	4.3
333.15	57.59	3.94
343.15	54.45	3.73

System: 1,3-dimethylbenzene + 1-methyl-3-(4-sulfobutyl)-imidazolium hydrogensulfate; phases: Liquid
Fixed: Pressure, kPa = 101.33
Fixed: Mole fraction of 1,3-dimethylbenzene = 0
Property: Activity coefficient of 1,3-dimethylbenzene (Liquid); method: Chromatography
Temperature, K	Activity coefficient of 1,3-dimethylbenzene	uncertainty
323.15	62.81	4.3
333.15	55.4	3.79
343.15	54.49	3.73

System: 1,4-dimethylbenzene + 1-methyl-3-(4-sulfobutyl)-imidazolium hydrogensulfate; phases: Liquid
Fixed: Pressure, kPa = 101.33
Fixed: Mole fraction of 1,4-dimethylbenzene = 0
Property: Activity coefficient of 1,4-dimethylbenzene (Liquid); method: Chromatography
Temperature, K	Activity coefficient of 1,4-dimethylbenzene	uncertainty
323.15	56.6	3.88
333.15	54.42	3.73
343.15	50.59	3.46

System: 1,2-dimethylbenzene + 1-methyl-3-(4-sulfobutyl)-imidazolium hydrogensulfate; phases: Liquid
Fixed: Pressure, kPa = 101.33
Fixed: Mole fraction of 1,2-dimethylbenzene = 0
Property: Activity coefficient of 1,2-dimethylbenzene (Liquid); method: Chromatography
Temperature, K	Activity coefficient of 1,2-dimethylbenzene	uncertainty
323.15	43.76	3
333.15	41.32	2.83
343.15	40.76	2.79

System: butanone + 1-methyl-3-(4-sulfobutyl)-imidazolium hydrogensulfate; phases: Liquid
Fixed: Pressure, kPa = 101.33
Fixed: Mole fraction of butanone = 0
Property: Activity coefficient of butanone (Liquid); method: Chromatography
Temperature, K	Activity coefficient of butanone	uncertainty
323.15	5.49	0.37
333.15	5.17	0.35
343.15	4.47	0.3

System: pentan-2-one + 1-methyl-3-(4-sulfobutyl)-imidazolium hydrogensulfate; phases: Liquid
Fixed: Pressure, kPa = 101.33
Fixed: Mole fraction of pentan-2-one = 0
Property: Activity coefficient of pentan-2-one (Liquid); method: Chromatography
Temperature, K	Activity coefficient of pentan-2-one	uncertainty
323.15	13.43	0.92
333.15	13.19	0.9
343.15	12.52	0.85

System: pentan-3-one + 1-methyl-3-(4-sulfobutyl)-imidazolium hydrogensulfate; phases: Liquid
Fixed: Pressure, kPa = 101.33
Fixed: Mole fraction of pentan-3-one = 0
Property: Activity coefficient of pentan-3-one (Liquid); method: Chromatography
Temperature, K	Activity coefficient of pentan-3-one	uncertainty
323.15	14.15	0.97
333.15	13.76	0.94
343.15	13.25	0.9

System: trichloromethane + 1-methyl-3-(4-sulfobutyl)-imidazolium hydrogensulfate; phases: Liquid
Fixed: Pressure, kPa = 101.33
Fixed: Mole fraction of trichloromethane = 0
Property: Activity coefficient of trichloromethane (Liquid); method: Chromatography
Temperature, K	Activity coefficient of trichloromethane	uncertainty
323.15	6.65	0.45
333.15	6.73	0.46
343.15	6.84	0.47

System: dichloromethane + 1-methyl-3-(4-sulfobutyl)-imidazolium hydrogensulfate; phases: Liquid
Fixed: Pressure, kPa = 101.33
Fixed: Mole fraction of dichloromethane = 0
Property: Activity coefficient of dichloromethane (Liquid); method: Chromatography
Temperature, K	Activity coefficient of dichloromethane	uncertainty
323.15	3.5	0.24
333.15	3.48	0.24
343.15	3.37	0.23

System: acetonitrile + 1-methyl-3-(4-sulfobutyl)-imidazolium hydrogensulfate; phases: Liquid
Fixed: Pressure, kPa = 101.33
Fixed: Mole fraction of acetonitrile = 0
Property: Activity coefficient of acetonitrile (Liquid); method: Chromatography
Temperature, K	Activity coefficient of acetonitrile	uncertainty
323.15	1.74	0.12
333.15	1.73	0.12
343.15	1.73	0.12

System: nitromethane + 1-methyl-3-(4-sulfobutyl)-imidazolium hydrogensulfate; phases: Liquid
Fixed: Pressure, kPa = 101.33
Fixed: Mole fraction of nitromethane = 0
Property: Activity coefficient of nitromethane (Liquid); method: Chromatography
Temperature, K	Activity coefficient of nitromethane	uncertainty
323.15	1.58	0.1
333.15	1.59	0.11
343.15	1.6	0.11

System: 1-nitropropane + 1-methyl-3-(4-sulfobutyl)-imidazolium hydrogensulfate; phases: Liquid
Fixed: Pressure, kPa = 101.33
Fixed: Mole fraction of 1-nitropropane = 0
Property: Activity coefficient of 1-nitropropane (Liquid); method: Chromatography
Temperature, K	Activity coefficient of 1-nitropropane	uncertainty
323.15	7.05	0.48
333.15	6.92	0.47
343.15	6.82	0.46

System: thiophene + 1-methyl-3-(4-sulfobutyl)-imidazolium hydrogensulfate; phases: Liquid
Fixed: Pressure, kPa = 101.33
Fixed: Mole fraction of thiophene = 0
Property: Activity coefficient of thiophene (Liquid); method: Chromatography
Temperature, K	Activity coefficient of thiophene	uncertainty
323.15	6.56	0.45
333.15	6.43	0.44
343.15	6.13	0.42
