Measured thermophysical data. Solutions of alkyl methanoates and alkanes: Simultaneous modeling of phase equilibria and mixing properties. Estimation of behavior by UNIFAC with recalculation of parameters
Source: Fluid Phase Equilib., 2015, 10.1016/j.fluid.2015.05.031
Compound 1: methyl methanoate, C2H4O2, InChI=1S/C2H4O2/c1-4-2-3/h2H,1H3, purity 99%
Compound 2: ethyl methanoate, C3H6O2, InChI=1S/C3H6O2/c1-2-5-3-4/h3H,2H2,1H3, purity 97%
Compound 3: propyl methanoate, C4H8O2, InChI=1S/C4H8O2/c1-2-3-6-4-5/h4H,2-3H2,1H3, purity 97%
Compound 4: butyl methanoate, C5H10O2, InChI=1S/C5H10O2/c1-2-3-4-7-5-6/h5H,2-4H2,1H3, purity 97%
Compound 5: heptane, C7H16, InChI=1S/C7H16/c1-3-5-7-6-4-2/h3-7H2,1-2H3, purity 99%
Compound 6: octane, C8H18, InChI=1S/C8H18/c1-3-5-7-8-6-4-2/h3-8H2,1-2H3, purity 99%
Compound 7: nonane, C9H20, InChI=1S/C9H20/c1-3-5-7-9-8-6-4-2/h3-9H2,1-2H3, purity 99%

System: methyl methanoate; phases: Liquid, Gas
Property: Boiling temperature at pressure P, K (Liquid); method: Ebulliometric method (Recirculating still)
Pressure, kPa	Boiling temperature at pressure P, K	uncertainty
101.32	304.7	0.05

System: methyl methanoate; phases: Liquid
Property: Mass density, kg/m3 (Liquid); method: Vibrating tube method
Temperature, K	Pressure, kPa	Mass density, kg/m3	uncertainty
298.15	101.325	966.1	0.23

System: methyl methanoate; phases: Liquid
Property: Mass density, kg/m3 (Liquid); method: Vibrating tube method
Temperature, K	Pressure, kPa	Mass density, kg/m3	uncertainty
291.15	101	976.46	0.23

System: methyl methanoate; phases: Liquid, Gas
Property: Vapor or sublimation pressure, kPa (Liquid); method: Ebulliometric method (Recirculating still)
Temperature, K	Vapor or sublimation pressure, kPa	uncertainty
304.7	101.32	0.45594

System: ethyl methanoate; phases: Liquid, Gas
Property: Boiling temperature at pressure P, K (Liquid); method: Ebulliometric method (Recirculating still)
Pressure, kPa	Boiling temperature at pressure P, K	uncertainty
101.32	327.33	0.07

System: ethyl methanoate; phases: Liquid
Property: Mass density, kg/m3 (Liquid); method: Vibrating tube method
Temperature, K	Pressure, kPa	Mass density, kg/m3	uncertainty
298.15	101.325	914.7	1.62

System: ethyl methanoate; phases: Liquid
Fixed: Pressure, kPa = 101
Property: Mass density, kg/m3 (Liquid); method: Vibrating tube method
Temperature, K	Mass density, kg/m3	uncertainty
291.15	923.66	1.64
308.15	901.03	1.57
318.15	887.76	1.53

System: ethyl methanoate; phases: Liquid, Gas
Property: Vapor or sublimation pressure, kPa (Liquid); method: Ebulliometric method (Recirculating still)
Temperature, K	Vapor or sublimation pressure, kPa	uncertainty
327.33	101.32	0.7599

System: propyl methanoate; phases: Liquid, Gas
Property: Boiling temperature at pressure P, K (Liquid); method: Ebulliometric method (Recirculating still)
Pressure, kPa	Boiling temperature at pressure P, K	uncertainty
101.32	353.92	0.07

System: propyl methanoate; phases: Liquid
Property: Mass density, kg/m3 (Liquid); method: Vibrating tube method
Temperature, K	Pressure, kPa	Mass density, kg/m3	uncertainty
298.15	101.325	899.83	1.57

System: propyl methanoate; phases: Liquid
Fixed: Pressure, kPa = 101
Property: Mass density, kg/m3 (Liquid); method: Vibrating tube method
Temperature, K	Mass density, kg/m3	uncertainty
291.15	908	1.59
308.15	888.15	1.54
318.15	875.84	1.5

System: propyl methanoate; phases: Liquid, Gas
Property: Vapor or sublimation pressure, kPa (Liquid); method: Ebulliometric method (Recirculating still)
Temperature, K	Vapor or sublimation pressure, kPa	uncertainty
353.92	101.32	0.7599

System: butyl methanoate; phases: Liquid, Gas
Property: Boiling temperature at pressure P, K (Liquid); method: Ebulliometric method (Recirculating still)
Pressure, kPa	Boiling temperature at pressure P, K	uncertainty
101.32	380.13	0.07

System: butyl methanoate; phases: Liquid
Property: Mass density, kg/m3 (Liquid); method: Vibrating tube method
Temperature, K	Pressure, kPa	Mass density, kg/m3	uncertainty
298.15	101.325	888.33	1.54

System: butyl methanoate; phases: Liquid
Fixed: Pressure, kPa = 101
Property: Mass density, kg/m3 (Liquid); method: Vibrating tube method
Temperature, K	Mass density, kg/m3	uncertainty
291.15	895.73	1.56
308.15	877.73	1.51
318.15	866.77	1.47

System: butyl methanoate; phases: Liquid, Gas
Property: Vapor or sublimation pressure, kPa (Liquid); method: Ebulliometric method (Recirculating still)
Temperature, K	Vapor or sublimation pressure, kPa	uncertainty
380.13	101.32	0.7599

System: heptane; phases: Liquid, Gas
Property: Boiling temperature at pressure P, K (Liquid); method: Ebulliometric method (Recirculating still)
Pressure, kPa	Boiling temperature at pressure P, K	uncertainty
101.32	371.56	0.05

System: heptane; phases: Liquid
Property: Mass density, kg/m3 (Liquid); method: Vibrating tube method
Temperature, K	Pressure, kPa	Mass density, kg/m3	uncertainty
298.15	101.325	679.66	0.25

System: heptane; phases: Liquid
Fixed: Pressure, kPa = 101
Property: Mass density, kg/m3 (Liquid); method: Vibrating tube method
Temperature, K	Mass density, kg/m3	uncertainty
291.15	685.59	0.25
308.15	670.98	0.25
318.15	662.3	0.25

System: heptane; phases: Liquid, Gas
Property: Vapor or sublimation pressure, kPa (Liquid); method: Ebulliometric method (Recirculating still)
Temperature, K	Vapor or sublimation pressure, kPa	uncertainty
371.56	101.32	0.45594

System: octane; phases: Liquid, Gas
Property: Boiling temperature at pressure P, K (Liquid); method: Ebulliometric method (Recirculating still)
Pressure, kPa	Boiling temperature at pressure P, K	uncertainty
101.32	398.83	0.05

System: octane; phases: Liquid
Property: Mass density, kg/m3 (Liquid); method: Vibrating tube method
Temperature, K	Pressure, kPa	Mass density, kg/m3	uncertainty
298.15	101.325	698.52	0.25

System: octane; phases: Liquid
Fixed: Pressure, kPa = 101
Property: Mass density, kg/m3 (Liquid); method: Vibrating tube method
Temperature, K	Mass density, kg/m3	uncertainty
291.15	704.17	0.25
308.15	690.31	0.25
318.15	682.06	0.25

System: octane; phases: Liquid, Gas
Property: Vapor or sublimation pressure, kPa (Liquid); method: Ebulliometric method (Recirculating still)
Temperature, K	Vapor or sublimation pressure, kPa	uncertainty
398.83	101.32	0.45594

System: nonane; phases: Liquid, Gas
Property: Boiling temperature at pressure P, K (Liquid); method: Ebulliometric method (Recirculating still)
Pressure, kPa	Boiling temperature at pressure P, K	uncertainty
101.32	423.94	0.05

System: nonane; phases: Liquid
Property: Mass density, kg/m3 (Liquid); method: Vibrating tube method
Temperature, K	Pressure, kPa	Mass density, kg/m3	uncertainty
298.15	101.325	713.85	0.25

System: nonane; phases: Liquid
Fixed: Pressure, kPa = 101
Property: Mass density, kg/m3 (Liquid); method: Vibrating tube method
Temperature, K	Mass density, kg/m3	uncertainty
291.15	719.27	0.24
308.15	705.97	0.25
318.15	698.04	0.25

System: nonane; phases: Liquid, Gas
Property: Vapor or sublimation pressure, kPa (Liquid); method: Ebulliometric method (Recirculating still)
Temperature, K	Vapor or sublimation pressure, kPa	uncertainty
423.94	101.32	0.45594

System: methyl methanoate + heptane; phases: Liquid
Fixed: Pressure, kPa = 101
Property: Mass density, kg/m3 (Liquid); method: Vibrating tube method
Temperature, K	Mole fraction of methyl methanoate	Mass density, kg/m3	uncertainty
291.15	0	685.59	0.25
291.15	0.0639	691.14	0.25
291.15	0.1041	695.02	0.25
291.15	0.1546	700.27	0.25
291.15	0.2009	705.75	0.25
291.15	0.2583	713.62	0.25
291.15	0.3011	719.67	0.25
291.15	0.3514	728.12	0.25
291.15	0.3978	736.28	0.25
291.15	0.4553	747.59	0.26
291.15	0.501	757.72	0.26
291.15	0.5519	769.98	0.26
291.15	0.602	783.62	0.26
291.15	0.6552	799.74	0.27
291.15	0.7012	815.32	0.28
291.15	0.7521	834.25	0.29
291.15	0.8037	856.78	0.3
291.15	0.852	879.27	0.31
291.15	0.8985	904.98	0.33
291.15	0.9492	936.93	0.36
291.15	1	976.46	0.23
298.15	0	679.66	0.25
298.15	0.0521	684.07	0.25
298.15	0.1025	688.82	0.25
298.15	0.1564	694.24	0.25
298.15	0.199	699.12	0.25
298.15	0.251	706	0.25
298.15	0.2988	712.78	0.25
298.15	0.3472	720.02	0.25
298.15	0.4036	729.93	0.25
298.15	0.4504	739.2	0.26
298.15	0.4941	748.36	0.26
298.15	0.554	762.45	0.26
298.15	0.5989	774.42	0.26
298.15	0.6564	791.41	0.27
298.15	0.6999	806.1	0.28
298.15	0.7511	825.1	0.28
298.15	0.8026	846.86	0.29
298.15	0.8521	870.08	0.31
298.15	0.902	897.51	0.33
298.15	0.9487	927.25	0.36
298.15	1	966.1	0.23

System: methyl methanoate + heptane; phases: Liquid
Fixed: Pressure, kPa = 101
Property: Excess molar enthalpy (molar enthalpy of mixing), kJ/mol (Liquid); method: Calvet calorimetry
Temperature, K	Mole fraction of methyl methanoate	Excess molar enthalpy (molar enthalpy of mixing), kJ/mol	uncertainty
291.15	0.069	0.609	0.014
291.15	0.17	1.286	0.028
291.15	0.256	1.729	0.037
291.15	0.32	1.991	0.043
291.15	0.392	2.177	0.046
291.15	0.444	2.255	0.048
291.15	0.503	2.289	0.049
291.15	0.549	2.269	0.048
291.15	0.598	2.203	0.047
291.15	0.627	2.133	0.046
291.15	0.671	2.022	0.043
291.15	0.717	1.874	0.04
291.15	0.758	1.715	0.037
291.15	0.805	1.494	0.032
291.15	0.852	1.253	0.027
291.15	0.89	0.987	0.022
291.15	0.931	0.693	0.016
291.15	0.968	0.407	0.01
298.15	0.121	1.011	0.022
298.15	0.196	1.514	0.033
298.15	0.267	1.879	0.04
298.15	0.348	2.171	0.046
298.15	0.419	2.336	0.05
298.15	0.476	2.391	0.051
298.15	0.528	2.385	0.051
298.15	0.573	2.339	0.05
298.15	0.612	2.276	0.049
298.15	0.66	2.148	0.046
298.15	0.701	2.002	0.043
298.15	0.747	1.814	0.039
298.15	0.789	1.618	0.035
298.15	0.829	1.378	0.03
298.15	0.868	1.154	0.025
298.15	0.907	0.895	0.02
298.15	0.943	0.625	0.014
298.15	0.973	0.341	0.009

System: methyl methanoate + heptane; phases: Liquid, Gas
Fixed: Pressure, kPa = 101.32
Property: Boiling temperature at pressure P, K (Liquid); method: Ebulliometric method (Recirculating still)
Mole fraction of methyl methanoate	Boiling temperature at pressure P, K	uncertainty
0	371.56	0.09
0.006	367.67	2.47
0.013	363.52	2.19
0.023	358.34	1.93
0.033	353.86	1.6
0.042	350.79	1.28
0.062	344.59	1.08
0.092	337.26	0.96
0.111	332.97	0.71
0.157	325.59	0.55
0.166	324.37	0.55
0.218	319.14	0.34
0.291	314.05	0.28
0.33	311.98	0.2
0.396	309.27	0.16
0.443	308.57	0.28
0.449	308.18	0.28
0.54	307.47	0.1
0.676	306.58	0.1
0.77	306.24	0.09
0.818	306.19	0.1
0.883	305.75	0.1
0.937	305.45	0.1
0.976	305	0.1
0.986	304.91	0.11
1	304.7	0.09

System: methyl methanoate + heptane; phases: Gas, Liquid
Fixed: Pressure, kPa = 101.32
Property: Mole fraction of methyl methanoate (Gas); method: Density calibration data
Mole fraction of methyl methanoate	Mole fraction of methyl methanoate	uncertainty
0	0	
0.006	0.099	0.064
0.013	0.207	0.054
0.023	0.329	0.043
0.033	0.423	0.033
0.042	0.482	0.023
0.062	0.586	0.017
0.092	0.69	0.013
0.111	0.737	0.009
0.157	0.811	0.006
0.166	0.82	0.006
0.218	0.858	0.005
0.291	0.89	0.005
0.33	0.9	0.004
0.396	0.919	0.004
0.443	0.921	0.004
0.449	0.922	0.004
0.54	0.932	0.004
0.676	0.937	0.004
0.77	0.94	0.004
0.818	0.945	0.004
0.883	0.954	0.004
0.937	0.967	0.004
0.976	0.983	0.004
0.986	0.989	0.005
1	1	

System: methyl methanoate + octane; phases: Liquid
Fixed: Pressure, kPa = 101
Property: Mass density, kg/m3 (Liquid); method: Vibrating tube method
Temperature, K	Mole fraction of methyl methanoate	Mass density, kg/m3	uncertainty
291.15	0	704.17	0.25
291.15	0.0536	707.45	0.25
291.15	0.1137	712.28	0.25
291.15	0.1547	715.89	0.25
291.15	0.204	721.07	0.25
291.15	0.2519	726.33	0.25
291.15	0.3039	732.8	0.25
291.15	0.3536	739.63	0.25
291.15	0.404	747.53	0.25
291.15	0.4485	755.25	0.25
291.15	0.5059	766.45	0.25
291.15	0.5516	776.37	0.26
291.15	0.6001	788.04	0.26
291.15	0.6507	801.77	0.26
291.15	0.7021	817.89	0.27
291.15	0.7498	834.46	0.28
291.15	0.801	854.97	0.29
291.15	0.8496	876.97	0.31
291.15	0.8987	903.9	0.33
291.15	0.9484	935.34	0.37
291.15	1	976.46	0.23
298.15	0	698.52	0.25
298.15	0.0297	700.47	0.25
298.15	0.0917	705.28	0.25
298.15	0.1332	708.34	0.25
298.15	0.2017	714.88	0.25
298.15	0.2416	719	0.25
298.15	0.3038	726.48	0.25
298.15	0.352	732.97	0.25
298.15	0.3979	739.97	0.25
298.15	0.4465	748	0.25
298.15	0.5009	758.04	0.25
298.15	0.5483	767.97	0.26
298.15	0.598	779.83	0.26
298.15	0.6501	793.37	0.26
298.15	0.7007	808.78	0.27
298.15	0.7513	826.49	0.28
298.15	0.8039	846.86	0.29
298.15	0.8486	867.89	0.31
298.15	0.9247	909.52	0.32
298.15	0.9482	925.15	0.38
298.15	1	966.1	0.23

System: methyl methanoate + octane; phases: Liquid
Fixed: Pressure, kPa = 101
Property: Excess molar enthalpy (molar enthalpy of mixing), kJ/mol (Liquid); method: Calvet calorimetry
Temperature, K	Mole fraction of methyl methanoate	Excess molar enthalpy (molar enthalpy of mixing), kJ/mol	uncertainty
291.15	0.121	1.011	0.022
291.15	0.196	1.514	0.033
291.15	0.267	1.879	0.04
291.15	0.348	2.171	0.046
291.15	0.419	2.336	0.05
291.15	0.476	2.391	0.051
291.15	0.528	2.385	0.051
291.15	0.573	2.339	0.05
291.15	0.612	2.276	0.049
291.15	0.66	2.148	0.046
291.15	0.701	2.002	0.043
291.15	0.747	1.814	0.039
291.15	0.789	1.618	0.035
291.15	0.829	1.378	0.03
291.15	0.868	1.154	0.025
291.15	0.907	0.895	0.02
291.15	0.943	0.625	0.014
291.15	0.973	0.341	0.009
298.15	0.076	0.653	0.015
298.15	0.162	1.232	0.027
298.15	0.27	1.876	0.04
298.15	0.367	2.291	0.049
298.15	0.426	2.435	0.052
298.15	0.492	2.531	0.054
298.15	0.543	2.532	0.054
298.15	0.585	2.484	0.053
298.15	0.591	2.492	0.053
298.15	0.632	2.425	0.052
298.15	0.679	2.321	0.05
298.15	0.73	2.158	0.046
298.15	0.786	1.94	0.041
298.15	0.838	1.689	0.036
298.15	0.882	1.397	0.03
298.15	0.928	1.035	0.023
298.15	0.965	0.676	0.016
298.15	0.987	0.303	0.012

System: methyl methanoate + octane; phases: Liquid, Gas
Fixed: Pressure, kPa = 101.32
Property: Boiling temperature at pressure P, K (Liquid); method: Ebulliometric method (Recirculating still)
Mole fraction of methyl methanoate	Boiling temperature at pressure P, K	uncertainty
0	398.83	0.09
0.016	380.17	4.19
0.026	371.94	2.93
0.039	363.25	2.51
0.051	356.28	1.9
0.062	352.4	1.41
0.13	332.26	0.9
0.194	323.04	0.52
0.24	318.17	0.43
0.278	314.24	0.32
0.346	309.95	0.19
0.404	309.14	0.11
0.462	308.36	0.11
0.505	307.8	0.09
0.592	308.14	0.1
0.719	306.84	0.1
0.791	306.54	0.1
0.824	306.53	0.1
0.852	306.28	0.1
0.868	306.25	0.1
0.893	305.99	0.1
0.905	305.89	0.1
0.924	305.76	0.1
0.924	305.73	0.1
0.948	305.48	0.1
0.962	305.33	0.1
0.974	305.28	0.1
0.98	305.15	0.12
0.984	305.06	0.12
0.993	304.92	0.13
1	304.7	0.09

System: methyl methanoate + octane; phases: Gas, Liquid
Fixed: Pressure, kPa = 101.32
Property: Mole fraction of methyl methanoate (Gas); method: Density calibration data
Mole fraction of methyl methanoate	Mole fraction of methyl methanoate	uncertainty
0	0	
0.016	0.419	0.087
0.026	0.554	0.044
0.039	0.67	0.031
0.051	0.743	0.02
0.062	0.78	0.014
0.13	0.906	0.006
0.194	0.94	0.004
0.24	0.953	0.004
0.278	0.962	0.004
0.346	0.97	0.004
0.404	0.972	0.004
0.462	0.974	0.004
0.505	0.977	0.004
0.592	0.977	0.004
0.719	0.98	0.004
0.791	0.981	0.004
0.824	0.981	0.004
0.852	0.982	0.004
0.868	0.981	0.004
0.893	0.983	0.004
0.905	0.983	0.004
0.924	0.985	0.004
0.924	0.984	0.004
0.948	0.988	0.004
0.962	0.99	0.004
0.974	0.993	0.004
0.98	0.994	0.004
0.984	0.995	0.004
0.993	0.998	0.002
1	1	

System: methyl methanoate + nonane; phases: Liquid
Fixed: Pressure, kPa = 101
Property: Mass density, kg/m3 (Liquid); method: Vibrating tube method
Temperature, K	Mole fraction of methyl methanoate	Mass density, kg/m3	uncertainty
291.15	0	719.27	0.24
291.15	0.0514	722.55	0.24
291.15	0.0978	725.22	0.24
291.15	0.153	729.4	0.24
291.15	0.1992	733.01	0.24
291.15	0.2597	738.77	0.25
291.15	0.304	743.49	0.25
291.15	0.358	750.14	0.25
291.15	0.4029	756.42	0.25
291.15	0.4475	763.17	0.25
291.15	0.5016	772.34	0.25
291.15	0.5475	781.14	0.25
291.15	0.6005	792.83	0.26
291.15	0.647	804.44	0.26
291.15	0.7024	820.19	0.27
291.15	0.7486	835.41	0.28
291.15	0.8015	855.65	0.28
291.15	0.8481	875.83	0.3
291.15	0.9011	903.59	0.33
291.15	0.9483	933.41	0.38
291.15	1	976.46	0.23
298.15	0	713.85	0.24
298.15	0.0553	716.79	0.24
298.15	0.0965	719.34	0.24
298.15	0.1264	721.26	0.25
298.15	0.1991	726.75	0.25
298.15	0.2405	730.69	0.25
298.15	0.2879	735.48	0.25
298.15	0.3473	741.96	0.25
298.15	0.3968	748.54	0.25
298.15	0.4554	757.03	0.25
298.15	0.5023	764.92	0.25
298.15	0.5484	773.43	0.25
298.15	0.594	783.31	0.25
298.15	0.6374	793.43	0.26
298.15	0.701	811.22	0.26
298.15	0.7541	827.74	0.27
298.15	0.8019	846.55	0.29
298.15	0.8504	867.8	0.3
298.15	0.9014	894.05	0.32
298.15	0.9508	924.99	0.37
298.15	1	966.1	0.23

System: methyl methanoate + nonane; phases: Liquid
Fixed: Temperature, K = 291.15
Fixed: Pressure, kPa = 101
Property: Excess molar enthalpy (molar enthalpy of mixing), kJ/mol (Liquid); method: Calvet calorimetry
Mole fraction of methyl methanoate	Excess molar enthalpy (molar enthalpy of mixing), kJ/mol	uncertainty
0.128	1.158	0.025
0.241	1.904	0.041
0.325	2.294	0.049
0.39	2.486	0.053
0.451	2.579	0.055
0.505	2.59	0.055
0.554	2.554	0.054
0.597	2.484	0.053
0.636	2.407	0.051
0.677	2.289	0.049
0.713	2.178	0.046
0.75	2.052	0.044
0.788	1.888	0.04
0.825	1.715	0.037
0.859	1.511	0.033
0.893	1.267	0.028
0.925	0.997	0.022
0.946	0.762	0.018
0.965	0.527	0.014
0.982	0.288	0.011

System: methyl methanoate + nonane; phases: Liquid, Gas
Fixed: Pressure, kPa = 101.32
Property: Boiling temperature at pressure P, K (Liquid); method: Ebulliometric method (Recirculating still)
Mole fraction of methyl methanoate	Boiling temperature at pressure P, K	uncertainty
0	423.94	0.09
0.008	413.55	5.18
0.014	405.82	5.17
0.02	398.05	4.92
0.026	391.05	3.58
0.041	378.85	2.7
0.067	363.02	1.92
0.11	345.24	1.46
0.137	337.8	0.85
0.208	323.99	0.68
0.254	318.4	0.36
0.328	313.31	0.25
0.39	310.58	0.14
0.446	310.14	0.12
0.492	308.71	0.12
0.549	308.3	0.1
0.589	307.75	0.1
0.649	307.44	0.1
0.732	307.08	0.1
0.792	306.72	0.1
0.856	306.49	0.09
0.906	306.42	0.1
0.937	306.16	0.11
0.965	305.66	0.13
0.987	305.12	0.14
1	304.7	0.09

System: methyl methanoate + nonane; phases: Gas, Liquid
Fixed: Pressure, kPa = 101.32
Property: Mole fraction of methyl methanoate (Gas); method: Density calibration data
Mole fraction of methyl methanoate	Mole fraction of methyl methanoate	uncertainty
0	0	
0.008	0.233	0.11
0.014	0.385	0.092
0.02	0.509	0.073
0.026	0.604	0.043
0.041	0.739	0.024
0.067	0.856	0.012
0.11	0.935	0.007
0.137	0.954	0.004
0.208	0.978	0.004
0.254	0.984	0.004
0.328	0.988	0.004
0.39	0.99	0.004
0.446	0.99	0.004
0.492	0.991	0.004
0.549	0.992	0.004
0.589	0.992	0.004
0.649	0.993	0.004
0.732	0.993	0.004
0.792	0.993	0.004
0.856	0.993	0.004
0.906	0.994	0.004
0.937	0.995	0.004
0.965	0.996	0.004
0.987	0.998	0.002
1	1	

System: ethyl methanoate + heptane; phases: Liquid
Fixed: Pressure, kPa = 101
Property: Mass density, kg/m3 (Liquid); method: Vibrating tube method
Temperature, K	Mole fraction of ethyl methanoate	Mass density, kg/m3	uncertainty
291.15	0	685.59	0.25
291.15	0.0607	692.03	0.27
291.15	0.1195	698.77	0.3
291.15	0.1653	704.48	0.33
291.15	0.2179	711.65	0.36
291.15	0.2621	718.03	0.39
291.15	0.3094	725.43	0.42
291.15	0.3616	734.23	0.46
291.15	0.4068	742.37	0.5
291.15	0.4546	751.53	0.55
291.15	0.5019	761.23	0.6
291.15	0.5473	771.27	0.65
291.15	0.6043	784.84	0.73
291.15	0.6528	797.21	0.8
291.15	0.6969	809.42	0.88
291.15	0.7532	826.26	0.98
291.15	0.8011	841.87	1.08
291.15	0.8512	859.66	1.2
291.15	0.897	877.4	1.32
291.15	0.9472	898.67	1.47
291.15	1	923.66	1.64
298.15	0	679.66	0.25
298.15	0.0563	685.44	0.27
298.15	0.1125	691.55	0.3
298.15	0.1616	697.62	0.32
298.15	0.2133	704.72	0.35
298.15	0.2489	709.75	0.38
298.15	0.3055	718.37	0.41
298.15	0.3511	725.66	0.45
298.15	0.4047	735.04	0.5
298.15	0.4526	744.14	0.54
298.15	0.4947	752.5	0.59
298.15	0.5429	762.84	0.64
298.15	0.6014	776.44	0.72
298.15	0.6486	788.4	0.79
298.15	0.6951	800.94	0.86
298.15	0.7514	817.16	0.96
298.15	0.7999	833.05	1.06
298.15	0.8502	850.7	1.18
298.15	0.8966	868.2	1.3
298.15	0.9468	889.63	1.45
298.15	1	914.7	1.61
308.15	0	670.98	0.25
308.15	0.0561	676.57	0.27
308.15	0.1089	682.02	0.3
308.15	0.1541	687.38	0.32
308.15	0.2104	694.72	0.35
308.15	0.2491	700.07	0.37
308.15	0.2922	706.2	0.4
308.15	0.3523	715.72	0.45
308.15	0.4063	724.89	0.49
308.15	0.449	732.63	0.53
308.15	0.4987	742.37	0.58
308.15	0.5475	752.63	0.64
308.15	0.6019	765.15	0.71
308.15	0.6508	777.41	0.77
308.15	0.7007	790.55	0.85
308.15	0.7527	805.64	0.95
308.15	0.7999	820.65	1.04
308.15	0.8498	837.95	1.15
308.15	0.8966	855.52	1.27
308.15	0.9484	877.06	1.42
308.15	1	901.03	1.57
318.15	0	662.3	0.25
318.15	0.0629	668.2	0.28
318.15	0.1286	675.24	0.31
318.15	0.1814	681.59	0.33
318.15	0.236	688.37	0.36
318.15	0.2883	695.79	0.4
318.15	0.3212	700.72	0.42
318.15	0.3767	709.46	0.46
318.15	0.4245	717.77	0.5
318.15	0.4712	726.25	0.54
318.15	0.5238	736.82	0.6
318.15	0.5719	747.17	0.66
318.15	0.6254	759.48	0.72
318.15	0.6708	771.02	0.79
318.15	0.7167	783.41	0.86
318.15	0.7651	797.57	0.95
318.15	0.8147	813.38	1.05
318.15	0.8586	828.74	1.14
318.15	0.906	846.34	1.26
318.15	0.9528	865.69	1.39
318.15	1	887.76	1.53

System: ethyl methanoate + heptane; phases: Liquid
Fixed: Pressure, kPa = 101
Property: Excess molar enthalpy (molar enthalpy of mixing), kJ/mol (Liquid); method: Calvet calorimetry
Temperature, K	Mole fraction of ethyl methanoate	Excess molar enthalpy (molar enthalpy of mixing), kJ/mol	uncertainty
291.15	0.118	0.732	0.016
291.15	0.221	1.147	0.025
291.15	0.31	1.437	0.031
291.15	0.391	1.615	0.035
291.15	0.456	1.69	0.036
291.15	0.512	1.707	0.036
291.15	0.557	1.69	0.036
291.15	0.621	1.604	0.034
291.15	0.664	1.519	0.033
291.15	0.716	1.385	0.03
291.15	0.767	1.216	0.026
291.15	0.819	1.008	0.022
291.15	0.871	0.769	0.017
291.15	0.917	0.522	0.012
291.15	0.964	0.253	0.007
318.15	0.099	0.526	0.012
318.15	0.196	0.958	0.021
318.15	0.291	1.309	0.028
318.15	0.372	1.555	0.033
318.15	0.448	1.68	0.036
318.15	0.509	1.739	0.037
318.15	0.555	1.735	0.037
318.15	0.591	1.723	0.037
318.15	0.632	1.686	0.036
318.15	0.676	1.625	0.035
318.15	0.722	1.519	0.033
318.15	0.77	1.383	0.03
318.15	0.817	1.201	0.026
318.15	0.859	0.994	0.022
318.15	0.9	0.764	0.017
318.15	0.941	0.495	0.012
318.15	0.972	0.245	0.007

System: ethyl methanoate + heptane; phases: Liquid, Gas
Fixed: Pressure, kPa = 101.32
Property: Boiling temperature at pressure P, K (Liquid); method: Ebulliometric method (Recirculating still)
Mole fraction of ethyl methanoate	Boiling temperature at pressure P, K	uncertainty
0	371.56	0.09
0.029	363.75	0.97
0.052	359.02	0.74
0.081	354.16	0.61
0.105	351.12	0.5
0.13	348.14	0.41
0.161	345.46	0.33
0.209	341.92	0.28
0.246	339.85	0.24
0.282	337.97	0.2
0.32	336.66	0.18
0.361	335.05	0.17
0.382	334.65	0.14
0.42	333.75	0.15
0.442	333.13	0.15
0.475	332.4	0.14
0.533	331.38	0.14
0.577	330.77	0.13
0.624	330.16	0.13
0.689	329.43	0.13
0.728	329.05	0.14
0.785	328.51	0.14
0.832	328.12	0.14
0.869	327.85	0.14
0.903	327.61	0.14
0.932	327.45	0.14
0.956	327.33	0.15
0.974	327.27	0.15
0.988	327.28	0.15
0.998	327.29	0.15
1	327.33	0.15

System: ethyl methanoate + heptane; phases: Gas, Liquid
Fixed: Pressure, kPa = 101.32
Property: Mole fraction of ethyl methanoate (Gas); method: Density calibration data
Mole fraction of ethyl methanoate	Mole fraction of ethyl methanoate	uncertainty
0	0	
0.029	0.217	0.026
0.052	0.336	0.018
0.081	0.446	0.015
0.105	0.51	0.013
0.13	0.569	0.011
0.161	0.619	0.01
0.209	0.682	0.009
0.246	0.716	0.009
0.282	0.743	0.008
0.32	0.761	0.008
0.361	0.781	0.008
0.382	0.787	0.007
0.42	0.799	0.007
0.442	0.807	0.007
0.475	0.816	0.007
0.533	0.831	0.007
0.577	0.84	0.007
0.624	0.851	0.006
0.689	0.865	0.006
0.728	0.874	0.006
0.785	0.889	0.006
0.832	0.902	0.005
0.869	0.915	0.005
0.903	0.93	0.005
0.932	0.946	0.005
0.956	0.962	0.005
0.974	0.975	0.005
0.988	0.987	0.006
0.998	0.998	0.002
1	1	

System: ethyl methanoate + octane; phases: Liquid
Fixed: Pressure, kPa = 101
Property: Mass density, kg/m3 (Liquid); method: Vibrating tube method
Temperature, K	Mole fraction of ethyl methanoate	Mass density, kg/m3	uncertainty
291.15	0	704.17	0.25
291.15	0.057	709.13	0.27
291.15	0.1053	713.52	0.29
291.15	0.1655	719.78	0.33
291.15	0.2075	724.42	0.35
291.15	0.2501	729.58	0.38
291.15	0.3088	737.24	0.42
291.15	0.3589	744.41	0.46
291.15	0.3958	750.03	0.5
291.15	0.4483	758.69	0.55
291.15	0.4956	767.05	0.6
291.15	0.5419	775.93	0.65
291.15	0.5958	787.23	0.72
291.15	0.6442	798.34	0.79
291.15	0.6963	811.33	0.88
291.15	0.7538	827.31	0.98
291.15	0.7973	840.56	1.07
291.15	0.8463	857.49	1.19
291.15	0.8978	876.89	1.32
291.15	0.9448	896.6	1.46
291.15	1	923.66	1.64
298.15	0	698.52	0.25
298.15	0.0668	704.09	0.28
298.15	0.1149	708.75	0.3
298.15	0.1531	712.29	0.32
298.15	0.2113	718.67	0.35
298.15	0.2477	722.93	0.38
298.15	0.3071	730.53	0.42
298.15	0.3515	736.79	0.45
298.15	0.3942	742.98	0.49
298.15	0.4536	752.65	0.55
298.15	0.4976	760.42	0.59
298.15	0.5437	769.07	0.65
298.15	0.597	780.15	0.72
298.15	0.6472	791.37	0.79
298.15	0.697	803.71	0.87
298.15	0.7545	819.59	0.97
298.15	0.8003	833.64	1.06
298.15	0.8477	849.63	1.17
298.15	0.8961	867.66	1.3
298.15	0.949	889.64	1.45
298.15	1	914.7	1.61
308.15	0	690.31	0.25
308.15	0.0653	695.43	0.28
308.15	0.1197	700.22	0.3
308.15	0.1587	704.09	0.32
308.15	0.2108	709.55	0.35
308.15	0.2555	714.65	0.38
308.15	0.3131	721.77	0.42
308.15	0.357	727.65	0.45
308.15	0.4071	734.94	0.5
308.15	0.4562	742.78	0.54
308.15	0.5009	750.4	0.59
308.15	0.5486	759.36	0.64
308.15	0.6036	770.44	0.71
308.15	0.6533	781.7	0.78
308.15	0.7003	793.11	0.86
308.15	0.7547	807.92	0.95
308.15	0.8011	821.61	1.04
308.15	0.8483	837.43	1.15
308.15	0.8988	855.84	1.27
308.15	0.9493	876.4	1.42
308.15	1	901.03	1.57
318.15	0	682.06	0.25
318.15	0.0637	686.88	0.27
318.15	0.1246	691.94	0.3
318.15	0.171	696.4	0.33
318.15	0.2187	701.27	0.35
318.15	0.2565	705.56	0.38
318.15	0.3124	712.22	0.41
318.15	0.3493	716.94	0.44
318.15	0.4068	725.3	0.49
318.15	0.4556	732.72	0.53
318.15	0.5041	740.66	0.58
318.15	0.548	748.76	0.63
318.15	0.6043	759.93	0.7
318.15	0.6512	770.1	0.76
318.15	0.6999	781.6	0.84
318.15	0.7541	795.97	0.93
318.15	0.8014	809.47	1.02
318.15	0.8528	826.44	1.13
318.15	0.9	843.67	1.25
318.15	0.9495	864.07	1.38
318.15	1	887.76	1.53

System: ethyl methanoate + octane; phases: Liquid
Fixed: Pressure, kPa = 101
Property: Excess molar enthalpy (molar enthalpy of mixing), kJ/mol (Liquid); method: Calvet calorimetry
Temperature, K	Mole fraction of ethyl methanoate	Excess molar enthalpy (molar enthalpy of mixing), kJ/mol	uncertainty
291.15	0.127	0.738	0.016
291.15	0.233	1.166	0.025
291.15	0.325	1.474	0.032
291.15	0.404	1.645	0.035
291.15	0.465	1.722	0.037
291.15	0.527	1.746	0.037
291.15	0.57	1.725	0.037
291.15	0.599	1.695	0.036
291.15	0.626	1.636	0.035
291.15	0.673	1.556	0.033
291.15	0.722	1.418	0.03
291.15	0.771	1.256	0.027
291.15	0.821	1.056	0.023
291.15	0.871	0.809	0.018
291.15	0.917	0.555	0.013
291.15	0.962	0.273	0.007
318.15	0.095	0.923	0.02
318.15	0.241	1.455	0.031
318.15	0.346	1.735	0.037
318.15	0.422	1.841	0.039
318.15	0.482	1.864	0.04
318.15	0.535	1.844	0.039
318.15	0.58	1.791	0.038
318.15	0.615	1.73	0.037
318.15	0.634	1.692	0.036
318.15	0.696	1.523	0.033
318.15	0.761	1.306	0.028
318.15	0.827	1.044	0.023
318.15	0.885	0.738	0.016
318.15	0.927	0.489	0.011
318.15	0.973	0.2	0.006

System: ethyl methanoate + octane; phases: Liquid, Gas
Fixed: Pressure, kPa = 101.32
Property: Boiling temperature at pressure P, K (Liquid); method: Ebulliometric method (Recirculating still)
Mole fraction of ethyl methanoate	Boiling temperature at pressure P, K	uncertainty
0	398.83	0.09
0.01	393.02	2.12
0.017	389.91	1.88
0.025	385.97	1.7
0.036	381.8	1.33
0.062	373.57	1.06
0.098	365.24	0.82
0.137	358.27	0.63
0.177	352.96	0.5
0.216	348.65	0.4
0.249	345.99	0.28
0.31	342.35	0.23
0.371	339.75	0.19
0.457	336.85	0.16
0.554	334.47	0.15
0.643	332.65	0.14
0.729	331.32	0.14
0.803	330.29	0.15
0.867	329.41	0.15
0.916	328.68	0.15
0.949	328.2	0.16
0.974	327.81	0.16
0.99	327.55	0.16
1	327.33	0.15

System: ethyl methanoate + octane; phases: Gas, Liquid
Fixed: Pressure, kPa = 101.32
Property: Mole fraction of ethyl methanoate (Gas); method: Density calibration data
Mole fraction of ethyl methanoate	Mole fraction of ethyl methanoate	uncertainty
0	0	
0.01	0.15	0.053
0.017	0.222	0.043
0.025	0.309	0.036
0.036	0.395	0.025
0.062	0.537	0.019
0.098	0.659	0.014
0.137	0.742	0.011
0.177	0.797	0.009
0.216	0.834	0.007
0.249	0.855	0.007
0.31	0.881	0.006
0.371	0.898	0.006
0.457	0.917	0.005
0.554	0.931	0.005
0.643	0.941	0.005
0.729	0.95	0.005
0.803	0.958	0.004
0.867	0.967	0.004
0.916	0.976	0.004
0.949	0.984	0.004
0.974	0.99	0.004
0.99	0.995	0.004
1	1	

System: ethyl methanoate + nonane; phases: Liquid
Fixed: Pressure, kPa = 101
Property: Mass density, kg/m3 (Liquid); method: Vibrating tube method
Temperature, K	Mole fraction of ethyl methanoate	Mass density, kg/m3	uncertainty
291.15	0	719.27	0.24
291.15	0.0586	723.39	0.27
291.15	0.1164	727.9	0.3
291.15	0.1724	732.81	0.33
291.15	0.214	736.84	0.36
291.15	0.2626	741.96	0.39
291.15	0.3015	746.15	0.42
291.15	0.3593	753.34	0.47
291.15	0.4077	759.91	0.51
291.15	0.4542	766.57	0.56
291.15	0.5045	774.56	0.61
291.15	0.5465	781.94	0.66
291.15	0.5937	790.85	0.72
291.15	0.6502	802.7	0.81
291.15	0.7008	814.5	0.89
291.15	0.749	826.95	0.97
291.15	0.7991	841.72	1.08
291.15	0.8489	857.68	1.19
291.15	0.8971	875.77	1.32
291.15	0.9471	897.1	1.47
291.15	1	923.66	1.64
298.15	0	713.85	0.24
298.15	0.077	719.03	0.28
298.15	0.1217	722.77	0.3
298.15	0.1634	726.26	0.33
298.15	0.2058	730.02	0.35
298.15	0.2608	735.67	0.39
298.15	0.3061	740.63	0.42
298.15	0.3561	746.62	0.46
298.15	0.4039	752.8	0.5
298.15	0.4477	759.06	0.55
298.15	0.5015	767.34	0.6
298.15	0.5478	775.21	0.66
298.15	0.6016	785.23	0.73
298.15	0.6492	795.16	0.79
298.15	0.7004	807.09	0.88
298.15	0.7501	819.62	0.96
298.15	0.7986	833.66	1.06
298.15	0.8484	849.71	1.17
298.15	0.8972	867.53	1.3
298.15	0.9481	888.5	1.45
298.15	1	914.7	1.61
308.15	0	705.97	0.25
308.15	0.0554	709.73	0.27
308.15	0.1171	713.95	0.3
308.15	0.1651	718.06	0.33
308.15	0.2047	721.44	0.35
308.15	0.2559	726.35	0.38
308.15	0.3135	732.4	0.42
308.15	0.3556	737.37	0.46
308.15	0.3999	742.9	0.49
308.15	0.4509	749.87	0.54
308.15	0.4986	757.06	0.59
308.15	0.5516	765.72	0.65
308.15	0.6014	774.89	0.71
308.15	0.6527	785.29	0.78
308.15	0.698	795.33	0.85
308.15	0.7496	808.2	0.94
308.15	0.8033	823.22	1.05
308.15	0.8485	837.71	1.15
308.15	0.8982	855.3	1.27
308.15	0.9473	875.3	1.41
308.15	1	901.03	1.57
318.15	0	698.04	0.25
318.15	0.0738	702.6	0.28
318.15	0.1178	705.65	0.3
318.15	0.1679	709.7	0.33
318.15	0.2133	713.45	0.35
318.15	0.2557	717.54	0.38
318.15	0.3047	722.45	0.41
318.15	0.3469	727.13	0.44
318.15	0.4105	734.71	0.5
318.15	0.4507	740.1	0.53
318.15	0.5022	747.67	0.59
318.15	0.5498	755.22	0.64
318.15	0.5998	764.01	0.7
318.15	0.651	774.17	0.77
318.15	0.6969	783.98	0.84
318.15	0.749	796.69	0.92
318.15	0.8021	811.15	1.02
318.15	0.8479	825.07	1.12
318.15	0.9008	843.84	1.25
318.15	0.9473	862.62	1.38
318.15	1	887.76	1.53

System: ethyl methanoate + nonane; phases: Liquid
Fixed: Pressure, kPa = 101
Property: Excess molar enthalpy (molar enthalpy of mixing), kJ/mol (Liquid); method: Calvet calorimetry
Temperature, K	Mole fraction of ethyl methanoate	Excess molar enthalpy (molar enthalpy of mixing), kJ/mol	uncertainty
291.15	0.139	0.792	0.017
291.15	0.248	1.203	0.026
291.15	0.332	1.482	0.032
291.15	0.394	1.621	0.035
291.15	0.455	1.712	0.037
291.15	0.504	1.747	0.037
291.15	0.547	1.757	0.038
291.15	0.578	1.734	0.037
291.15	0.602	1.709	0.037
291.15	0.66	1.603	0.034
291.15	0.704	1.504	0.032
291.15	0.75	1.369	0.029
291.15	0.795	1.198	0.026
291.15	0.842	0.999	0.022
291.15	0.886	0.774	0.017
291.15	0.929	0.51	0.012
291.15	0.967	0.254	0.007
318.15	0.115	0.721	0.016
318.15	0.22	1.252	0.027
318.15	0.293	1.528	0.033
318.15	0.351	1.694	0.036
318.15	0.404	1.832	0.039
318.15	0.446	1.882	0.04
318.15	0.482	1.921	0.041
318.15	0.515	1.929	0.041
318.15	0.543	1.914	0.041
318.15	0.615	1.866	0.04
318.15	0.656	1.807	0.039
318.15	0.698	1.723	0.037
318.15	0.741	1.603	0.034
318.15	0.785	1.454	0.031
318.15	0.83	1.257	0.027
318.15	0.876	1.009	0.022
318.15	0.918	0.71	0.016
318.15	0.961	0.378	0.01

System: ethyl methanoate + nonane; phases: Liquid, Gas
Fixed: Pressure, kPa = 101.32
Property: Boiling temperature at pressure P, K (Liquid); method: Ebulliometric method (Recirculating still)
Mole fraction of ethyl methanoate	Boiling temperature at pressure P, K	uncertainty
0	423.94	0.09
0.006	418.52	2.91
0.01	415.58	2.98
0.018	410.63	2.52
0.033	401.14	2.29
0.046	394.64	1.9
0.06	388.33	1.63
0.079	381.15	1.25
0.115	370.97	1.02
0.151	362.9	0.76
0.191	356.6	0.57
0.215	353.98	0.45
0.257	349.39	0.41
0.288	346.8	0.34
0.343	342.47	0.27
0.395	340.26	0.18
0.438	339.28	0.16
0.482	337.66	0.16
0.523	336.96	0.15
0.563	335.93	0.16
0.626	334.4	0.15
0.679	333.45	0.15
0.732	332.55	0.15
0.757	332.08	0.15
0.805	331.38	0.15
0.858	330.66	0.15
0.905	329.83	0.16
0.943	329.01	0.18
0.975	327.9	0.19
1	327.33	0.15

System: ethyl methanoate + nonane; phases: Gas, Liquid
Fixed: Pressure, kPa = 101.32
Property: Mole fraction of ethyl methanoate (Gas); method: Density calibration data
Mole fraction of ethyl methanoate	Mole fraction of ethyl methanoate	uncertainty
0	0	
0.006	0.124	0.065
0.01	0.193	0.067
0.018	0.299	0.049
0.033	0.473	0.04
0.046	0.572	0.028
0.06	0.655	0.021
0.079	0.733	0.014
0.115	0.821	0.01
0.151	0.873	0.007
0.191	0.906	0.006
0.215	0.917	0.005
0.257	0.934	0.005
0.288	0.942	0.005
0.343	0.955	0.004
0.395	0.961	0.004
0.438	0.964	0.004
0.482	0.968	0.004
0.523	0.971	0.004
0.563	0.974	0.004
0.626	0.978	0.004
0.679	0.98	0.004
0.732	0.982	0.004
0.757	0.984	0.004
0.805	0.986	0.004
0.858	0.988	0.004
0.905	0.991	0.004
0.943	0.993	0.004
0.975	0.995	0.004
1	1	

System: propyl methanoate + heptane; phases: Liquid
Fixed: Pressure, kPa = 101
Property: Mass density, kg/m3 (Liquid); method: Vibrating tube method
Temperature, K	Mole fraction of propyl methanoate	Mass density, kg/m3	uncertainty
291.15	0	685.59	0.25
291.15	0.0622	693.56	0.28
291.15	0.1132	700.68	0.3
291.15	0.1624	707.78	0.33
291.15	0.2145	715.89	0.36
291.15	0.2635	723.8	0.39
291.15	0.3074	731.37	0.42
291.15	0.356	740.07	0.46
291.15	0.4061	749.46	0.51
291.15	0.4528	758.68	0.55
291.15	0.4978	767.98	0.6
291.15	0.5521	779.73	0.67
291.15	0.6034	791.46	0.74
291.15	0.6516	803.02	0.81
291.15	0.7009	815.47	0.89
291.15	0.7515	829	0.98
291.15	0.7975	841.95	1.07
291.15	0.8485	857.17	1.19
291.15	0.9003	873.39	1.31
291.15	0.9483	889.55	1.44
291.15	1	908	1.59
298.15	0	679.66	0.25
298.15	0.0648	688.03	0.28
298.15	0.1127	694.42	0.3
298.15	0.1639	701.85	0.33
298.15	0.2115	709.01	0.35
298.15	0.2535	715.84	0.38
298.15	0.3126	725.66	0.42
298.15	0.3529	732.82	0.46
298.15	0.4042	742.35	0.5
298.15	0.4528	751.72	0.55
298.15	0.5026	762	0.6
298.15	0.5512	772.46	0.66
298.15	0.6031	784.11	0.73
298.15	0.6503	795.38	0.8
298.15	0.7003	807.99	0.88
298.15	0.7497	820.99	0.97
298.15	0.8008	835.2	1.07
298.15	0.8463	848.6	1.16
298.15	0.9001	865.5	1.29
298.15	0.9501	882.15	1.43
298.15	1	899.83	1.57
308.15	0	670.98	0.25
308.15	1	888.15	1.54
318.15	0	662.3	0.25
318.15	0.0673	670.44	0.28
318.15	0.1143	676.6	0.3
318.15	0.164	683.43	0.32
318.15	0.2097	690.18	0.35
318.15	0.2593	697.72	0.38
318.15	0.3114	706.08	0.41
318.15	0.3513	712.94	0.44
318.15	0.4032	722.2	0.49
318.15	0.4496	730.9	0.53
318.15	0.5019	741.25	0.58
318.15	0.5521	751.71	0.64
318.15	0.6031	762.84	0.7
318.15	0.6511	774.01	0.77
318.15	0.7003	786.04	0.84
318.15	0.7505	798.98	0.93
318.15	0.8033	813.52	1.03
318.15	0.851	827.2	1.13
318.15	0.9011	842.47	1.24
318.15	0.951	858.78	1.37
318.15	1	875.84	1.5
308.15	0.0686	679.5	0.28
308.15	0.1199	686.39	0.3
308.15	0.1683	693.43	0.33
308.15	0.2066	699.08	0.35
308.15	0.2635	707.94	0.38
308.15	0.3142	716.37	0.42
308.15	0.358	723.98	0.45
308.15	0.4065	732.89	0.5
308.15	0.4541	741.99	0.54
308.15	0.502	751.65	0.59
308.15	0.5523	762.32	0.65
308.15	0.6027	773.56	0.72
308.15	0.652	785.08	0.79
308.15	0.702	797.6	0.86
308.15	0.754	811.22	0.95
308.15	0.8045	825.16	1.05
308.15	0.8493	838.3	1.15
308.15	0.8995	853.92	1.27
308.15	0.9511	870.78	1.4

System: propyl methanoate + heptane; phases: Liquid
Fixed: Pressure, kPa = 101
Property: Excess molar enthalpy (molar enthalpy of mixing), kJ/mol (Liquid); method: Calvet calorimetry
Temperature, K	Mole fraction of propyl methanoate	Excess molar enthalpy (molar enthalpy of mixing), kJ/mol	uncertainty
291.15	0.105	0.558	0.012
291.15	0.199	0.899	0.019
291.15	0.28	1.129	0.024
291.15	0.352	1.27	0.027
291.15	0.416	1.347	0.029
291.15	0.469	1.372	0.029
291.15	0.516	1.372	0.029
291.15	0.558	1.351	0.029
291.15	0.596	1.317	0.028
291.15	0.629	1.27	0.027
291.15	0.681	1.17	0.025
291.15	0.733	1.041	0.022
291.15	0.789	0.885	0.019
291.15	0.846	0.687	0.015
291.15	0.902	0.481	0.011
291.15	0.954	0.236	0.006
318.15	0.076	0.505	0.011
318.15	0.163	0.866	0.019
318.15	0.252	1.156	0.025
318.15	0.328	1.331	0.029
318.15	0.394	1.428	0.031
318.15	0.448	1.468	0.031
318.15	0.493	1.469	0.031
318.15	0.534	1.452	0.031
318.15	0.55	1.433	0.031
318.15	0.595	1.385	0.03
318.15	0.64	1.335	0.029
318.15	0.689	1.231	0.026
318.15	0.742	1.095	0.024
318.15	0.795	0.933	0.02
318.15	0.852	0.726	0.016
318.15	0.908	0.482	0.011
318.15	0.962	0.203	0.006

System: propyl methanoate + heptane; phases: Liquid, Gas
Fixed: Pressure, kPa = 101.32
Property: Boiling temperature at pressure P, K (Liquid); method: Ebulliometric method (Recirculating still)
Mole fraction of propyl methanoate	Boiling temperature at pressure P, K	uncertainty
0	371.56	0.09
0.046	367.2	0.36
0.072	365.4	0.28
0.105	363.28	0.23
0.147	361.46	0.19
0.189	359.86	0.17
0.234	358.41	0.16
0.276	357.3	0.14
0.318	356.63	0.13
0.38	355.34	0.13
0.424	354.81	0.12
0.475	354.12	0.13
0.515	353.73	0.12
0.556	353.32	0.12
0.608	353.06	0.13
0.658	352.7	0.13
0.687	352.49	0.13
0.728	352.31	0.13
0.763	352.2	0.13
0.796	352.17	0.13
0.827	352.16	0.14
0.861	352.22	0.14
0.888	352.28	0.14
0.905	352.37	0.14
0.926	352.51	0.14
0.947	352.65	0.15
0.972	353.11	0.16
0.985	353.3	0.19
1	353.92	0.15

System: propyl methanoate + heptane; phases: Gas, Liquid
Fixed: Pressure, kPa = 101.32
Property: Mole fraction of propyl methanoate (Gas); method: Density calibration data
Mole fraction of propyl methanoate	Mole fraction of propyl methanoate	uncertainty
0	0	
0.046	0.149	0.013
0.072	0.218	0.01
0.105	0.282	0.008
0.147	0.35	0.008
0.189	0.41	0.008
0.234	0.456	0.008
0.276	0.495	0.009
0.318	0.527	0.009
0.38	0.57	0.009
0.424	0.597	0.009
0.475	0.625	0.009
0.515	0.643	0.009
0.556	0.653	0.009
0.608	0.681	0.009
0.658	0.706	0.008
0.687	0.725	0.008
0.728	0.749	0.008
0.763	0.768	0.008
0.796	0.789	0.008
0.827	0.811	0.008
0.861	0.835	0.007
0.888	0.857	0.007
0.905	0.875	0.007
0.926	0.895	0.007
0.947	0.917	0.007
0.972	0.955	0.007
0.985	0.973	0.008
1	1	

System: propyl methanoate + octane; phases: Liquid
Fixed: Pressure, kPa = 101
Property: Mass density, kg/m3 (Liquid); method: Vibrating tube method
Temperature, K	Mole fraction of propyl methanoate	Mass density, kg/m3	uncertainty
291.15	0	704.17	0.25
291.15	0.0674	711.48	0.28
291.15	0.1143	716.41	0.3
291.15	0.1598	722.01	0.32
291.15	0.2081	728.08	0.35
291.15	0.2587	735.05	0.39
291.15	0.3075	742.13	0.42
291.15	0.3571	749.63	0.46
291.15	0.4015	756.81	0.5
291.15	0.4509	765.2	0.55
291.15	0.5015	774.45	0.61
291.15	0.552	784.24	0.67
291.15	0.6004	794.17	0.74
291.15	0.6492	804.88	0.81
291.15	0.6988	816.47	0.89
291.15	0.7521	829.91	0.98
291.15	0.8002	842.77	1.08
291.15	0.8474	856.5	1.18
291.15	0.8968	871.78	1.3
291.15	0.9462	888.12	1.44
291.15	1	908	1.59
298.15	0	698.52	0.25
298.15	0.0657	705.19	0.28
298.15	0.1187	711.14	0.3
298.15	0.1636	716.57	0.33
298.15	0.2142	722.9	0.36
298.15	0.2494	727.45	0.38
298.15	0.3081	735.87	0.42
298.15	0.3466	741.54	0.45
298.15	0.41	751.75	0.51
298.15	0.4486	758.29	0.55
298.15	0.4984	767.15	0.6
298.15	0.5495	776.96	0.66
298.15	0.5972	786.58	0.72
298.15	0.6518	798.41	0.8
298.15	0.6984	809.15	0.88
298.15	0.749	821.69	0.96
298.15	0.7994	835.09	1.06
298.15	0.8457	848.16	1.16
298.15	0.8944	863.15	1.28
298.15	0.9456	879.97	1.41
298.15	1	899.83	1.57
308.15	0	690.31	0.25
308.15	0.0693	697.19	0.28
308.15	0.117	702.54	0.3
308.15	0.1642	707.94	0.33
308.15	0.2042	712.92	0.35
308.15	0.2594	720.14	0.38
308.15	0.3121	727.45	0.42
308.15	0.3566	733.99	0.46
308.15	0.4118	742.66	0.5
308.15	0.4508	749.2	0.54
308.15	0.5044	758.65	0.6
308.15	0.553	767.77	0.66
308.15	0.5975	776.67	0.71
308.15	0.6517	788.23	0.79
308.15	0.703	799.93	0.87
308.15	0.7478	810.86	0.94
308.15	0.8014	824.96	1.05
308.15	0.8476	837.95	1.14
308.15	0.898	853.19	1.26
308.15	0.9467	869.25	1.39
308.15	1	888.15	1.54
318.15	0	682.06	0.25
318.15	0.0527	687.13	0.27
318.15	0.109	692.99	0.3
318.15	0.1525	697.81	0.32
318.15	0.2015	703.56	0.35
318.15	0.248	709.43	0.37
318.15	0.3028	716.74	0.41
318.15	0.3537	724.03	0.45
318.15	0.4043	731.77	0.49
318.15	0.4494	739.05	0.53
318.15	0.4986	747.59	0.58
318.15	0.5502	757.02	0.64
318.15	0.6023	767.21	0.71
318.15	0.6504	777.15	0.77
318.15	0.6989	787.96	0.84
318.15	0.7487	799.95	0.93
318.15	0.797	812.33	1.02
318.15	0.8436	825.3	1.11
318.15	0.8951	840.44	1.23
318.15	0.9455	856.57	1.35
318.15	1	875.84	1.5

System: propyl methanoate + octane; phases: Liquid
Fixed: Pressure, kPa = 101
Property: Excess molar enthalpy (molar enthalpy of mixing), kJ/mol (Liquid); method: Calvet calorimetry
Temperature, K	Mole fraction of propyl methanoate	Excess molar enthalpy (molar enthalpy of mixing), kJ/mol	uncertainty
291.15	0.12	0.652	0.014
291.15	0.218	0.977	0.021
291.15	0.296	1.201	0.026
291.15	0.362	1.326	0.028
291.15	0.421	1.39	0.03
291.15	0.472	1.417	0.03
291.15	0.519	1.42	0.03
291.15	0.542	1.417	0.03
291.15	0.572	1.387	0.03
291.15	0.621	1.32	0.028
291.15	0.652	1.257	0.027
291.15	0.701	1.171	0.025
291.15	0.753	1.033	0.022
291.15	0.807	0.863	0.019
291.15	0.861	0.661	0.014
291.15	0.913	0.447	0.01
291.15	0.958	0.235	0.006
318.15	0.108	0.628	0.014
318.15	0.213	1.031	0.022
318.15	0.312	1.289	0.028
318.15	0.387	1.418	0.03
318.15	0.449	1.484	0.032
318.15	0.502	1.511	0.032
318.15	0.548	1.511	0.032
318.15	0.582	1.495	0.032
318.15	0.585	1.493	0.032
318.15	0.637	1.441	0.031
318.15	0.704	1.322	0.028
318.15	0.768	1.149	0.025
318.15	0.841	0.878	0.019
318.15	0.907	0.559	0.013
318.15	0.961	0.248	0.007

System: propyl methanoate + octane; phases: Liquid, Gas
Fixed: Pressure, kPa = 101.32
Property: Boiling temperature at pressure P, K (Liquid); method: Ebulliometric method (Recirculating still)
Mole fraction of propyl methanoate	Boiling temperature at pressure P, K	uncertainty
0	398.83	0.09
0.015	395.55	0.83
0.027	393.27	0.76
0.04	390.82	0.68
0.061	387.5	0.59
0.086	384.13	0.51
0.113	381.04	0.46
0.139	378.19	0.4
0.163	376.23	0.33
0.213	372.33	0.29
0.246	370.79	0.22
0.285	368.89	0.22
0.328	366.9	0.2
0.386	364.71	0.17
0.45	363.05	0.17
0.476	361.85	0.15
0.54	360.87	0.14
0.579	360.05	0.15
0.64	358.8	0.14
0.694	357.95	0.14
0.746	357.16	0.14
0.801	356.43	0.15
0.849	355.75	0.15
0.885	355.22	0.15
0.917	354.63	0.15
0.944	354.31	0.15
0.968	354.04	0.15
0.985	353.91	0.15
1	353.92	0.15

System: propyl methanoate + octane; phases: Gas, Liquid
Fixed: Pressure, kPa = 101.32
Property: Mole fraction of propyl methanoate (Gas); method: Density calibration data
Mole fraction of propyl methanoate	Mole fraction of propyl methanoate	uncertainty
0	0	
0.015	0.092	0.024
0.027	0.158	0.021
0.04	0.223	0.018
0.061	0.308	0.015
0.086	0.389	0.013
0.113	0.458	0.012
0.139	0.517	0.011
0.163	0.558	0.01
0.213	0.631	0.01
0.246	0.662	0.009
0.285	0.696	0.009
0.328	0.728	0.008
0.386	0.764	0.008
0.45	0.789	0.008
0.476	0.807	0.007
0.54	0.824	0.007
0.579	0.837	0.007
0.64	0.856	0.006
0.694	0.872	0.006
0.746	0.888	0.006
0.801	0.905	0.005
0.849	0.923	0.005
0.885	0.936	0.005
0.917	0.951	0.005
0.944	0.964	0.005
0.968	0.978	0.005
0.985	0.988	0.005
1	1	

System: propyl methanoate + nonane; phases: Liquid
Fixed: Pressure, kPa = 101
Property: Mass density, kg/m3 (Liquid); method: Vibrating tube method
Temperature, K	Mole fraction of propyl methanoate	Mass density, kg/m3	uncertainty
291.15	0	719.27	0.24
291.15	0.0691	725.35	0.28
291.15	0.1224	730.38	0.3
291.15	0.1705	735.27	0.33
291.15	0.2129	739.95	0.36
291.15	0.2627	745.74	0.39
291.15	0.3046	750.88	0.42
291.15	0.3626	758.65	0.47
291.15	0.4069	764.92	0.51
291.15	0.4543	772.12	0.56
291.15	0.5009	779.64	0.61
291.15	0.5498	788.18	0.67
291.15	0.6009	797.76	0.74
291.15	0.649	807.4	0.81
291.15	0.699	818.3	0.89
291.15	0.7519	830.79	0.98
291.15	0.8	843.22	1.08
291.15	0.8485	856.64	1.18
291.15	0.8978	871.67	1.3
291.15	0.9475	888.39	1.44
291.15	1	908	1.59
298.15	0	713.85	0.24
298.15	0.0735	720.17	0.28
298.15	0.1237	724.8	0.3
298.15	0.1681	729.29	0.33
298.15	0.2114	733.93	0.36
298.15	0.2626	739.71	0.39
298.15	0.3109	745.6	0.43
298.15	0.3597	752.03	0.47
298.15	0.4024	757.95	0.51
298.15	0.4505	765.15	0.55
298.15	0.5015	773.26	0.61
298.15	0.548	781.22	0.66
298.15	0.5998	790.71	0.73
298.15	0.6562	801.93	0.81
298.15	0.6995	811.23	0.88
298.15	0.7523	823.53	0.97
298.15	0.8014	836.11	1.07
298.15	0.8472	848.75	1.17
298.15	0.8957	863.4	1.28
298.15	0.9484	880.81	1.42
298.15	1	899.83	1.57
308.15	0	705.97	0.25
308.15	0.0748	712.25	0.28
308.15	0.1212	716.44	0.3
308.15	0.1644	720.63	0.33
308.15	0.21	725.3	0.35
308.15	0.2589	730.78	0.39
308.15	0.3023	735.9	0.42
308.15	0.3608	743.36	0.46
308.15	0.4012	748.82	0.5
308.15	0.447	755.51	0.54
308.15	0.4977	763.26	0.6
308.15	0.549	771.83	0.65
308.15	0.605	782.01	0.73
308.15	0.6531	791.36	0.79
308.15	0.6973	800.7	0.86
308.15	0.7538	813.62	0.96
308.15	0.8063	826.72	1.06
308.15	0.849	838.05	1.15
308.15	0.8977	852.57	1.26
308.15	0.9426	867.25	1.38
308.15	1	888.15	1.54
318.15	0	698.04	0.25
318.15	0.06	702.81	0.27
318.15	0.118	707.76	0.3
318.15	0.1663	712.38	0.33
318.15	0.2099	716.65	0.35
318.15	0.2565	721.69	0.38
318.15	0.3026	727.02	0.41
318.15	0.3528	733.15	0.45
318.15	0.4002	739.41	0.49
318.15	0.4558	747.23	0.54
318.15	0.498	753.71	0.59
318.15	0.5447	761.25	0.64
318.15	0.6082	772.48	0.72
318.15	0.6522	780.86	0.78
318.15	0.6973	790.02	0.85
318.15	0.7531	802.5	0.94
318.15	0.8016	814.38	1.03
318.15	0.8512	827.56	1.13
318.15	0.8982	841.34	1.23
318.15	0.9475	857.11	1.36
318.15	1	875.84	1.5

System: propyl methanoate + nonane; phases: Liquid
Fixed: Pressure, kPa = 101
Property: Excess molar enthalpy (molar enthalpy of mixing), kJ/mol (Liquid); method: Calvet calorimetry
Temperature, K	Mole fraction of propyl methanoate	Excess molar enthalpy (molar enthalpy of mixing), kJ/mol	uncertainty
291.15	0.109	0.495	0.011
291.15	0.205	0.83	0.018
291.15	0.289	1.079	0.023
291.15	0.366	1.249	0.027
291.15	0.428	1.343	0.029
291.15	0.48	1.382	0.03
291.15	0.531	1.398	0.03
291.15	0.575	1.386	0.03
291.15	0.591	1.374	0.029
291.15	0.635	1.319	0.028
291.15	0.678	1.248	0.027
291.15	0.727	1.142	0.025
291.15	0.776	1.006	0.022
291.15	0.824	0.84	0.018
291.15	0.874	0.645	0.014
291.15	0.92	0.439	0.01
291.15	0.962	0.224	0.006
318.15	0.097	0.586	0.013
318.15	0.195	0.994	0.021
318.15	0.29	1.324	0.028
318.15	0.374	1.523	0.033
318.15	0.451	1.626	0.035
318.15	0.516	1.649	0.035
318.15	0.574	1.631	0.035
318.15	0.608	1.583	0.034
318.15	0.656	1.484	0.032
318.15	0.707	1.368	0.029
318.15	0.76	1.204	0.026
318.15	0.819	0.973	0.021
318.15	0.874	0.726	0.016
318.15	0.925	0.468	0.011
318.15	0.967	0.225	0.006

System: propyl methanoate + nonane; phases: Liquid, Gas
Fixed: Pressure, kPa = 101.32
Property: Boiling temperature at pressure P, K (Liquid); method: Ebulliometric method (Recirculating still)
Mole fraction of propyl methanoate	Boiling temperature at pressure P, K	uncertainty
0	423.94	0.09
0.007	421.18	1.42
0.019	417.17	1.23
0.033	413.2	1.08
0.054	407.74	0.95
0.074	403.55	0.83
0.098	398.69	0.72
0.123	394.85	0.59
0.173	387.73	0.52
0.222	382.22	0.43
0.264	378.16	0.35
0.3	375.74	0.28
0.346	372.84	0.27
0.382	370.67	0.23
0.412	369.59	0.2
0.44	368.34	0.19
0.486	366.7	0.18
0.516	365.69	0.18
0.54	364.77	0.18
0.597	362.88	0.17
0.683	360.54	0.16
0.755	359.03	0.16
0.82	357.72	0.16
0.872	356.37	0.16
0.929	355.54	0.16
0.967	354.75	0.18
0.983	354.08	0.18
1	353.92	0.15

System: propyl methanoate + nonane; phases: Gas, Liquid
Fixed: Pressure, kPa = 101.32
Property: Mole fraction of propyl methanoate (Gas); method: Density calibration data
Mole fraction of propyl methanoate	Mole fraction of propyl methanoate	uncertainty
0	0	
0.007	0.063	0.034
0.019	0.161	0.03
0.033	0.255	0.024
0.054	0.371	0.02
0.074	0.453	0.016
0.098	0.536	0.015
0.123	0.601	0.012
0.173	0.698	0.01
0.222	0.758	0.009
0.264	0.797	0.008
0.3	0.822	0.007
0.346	0.847	0.007
0.382	0.865	0.006
0.412	0.875	0.006
0.44	0.885	0.006
0.486	0.898	0.006
0.516	0.905	0.005
0.54	0.912	0.005
0.597	0.927	0.005
0.683	0.943	0.005
0.755	0.953	0.004
0.82	0.963	0.004
0.872	0.971	0.004
0.929	0.981	0.004
0.967	0.99	0.004
0.983	0.994	0.004
1	1	

System: heptane + butyl methanoate; phases: Liquid
Fixed: Pressure, kPa = 101
Property: Mass density, kg/m3 (Liquid); method: Vibrating tube method
Temperature, K	Mole fraction of butyl methanoate	Mass density, kg/m3	uncertainty
291.15	0	685.59	0.25
291.15	0.0562	694	0.28
291.15	0.1051	701.51	0.3
291.15	0.1587	710.3	0.33
291.15	0.2073	718.53	0.35
291.15	0.2555	726.87	0.39
291.15	0.3101	736.64	0.43
291.15	0.3519	744.45	0.46
291.15	0.4054	754.71	0.51
291.15	0.4515	763.82	0.55
291.15	0.5065	775.03	0.62
291.15	0.5529	784.79	0.67
291.15	0.6035	795.84	0.74
291.15	0.6569	807.8	0.82
291.15	0.7067	819.31	0.9
291.15	0.7523	830.25	0.98
291.15	0.8037	842.95	1.08
291.15	0.8512	854.92	1.18
291.15	0.9009	868.07	1.3
291.15	0.9484	881.04	1.42
291.15	1	895.73	1.56
298.15	0	679.66	0.25
298.15	0.0581	688.17	0.28
298.15	0.1095	696.16	0.3
298.15	0.159	704.14	0.33
298.15	0.2124	713.02	0.36
298.15	0.2546	720.27	0.38
298.15	0.3017	728.68	0.42
298.15	0.3491	737.37	0.45
298.15	0.4004	747.11	0.5
298.15	0.4466	756.15	0.54
298.15	0.5012	767.23	0.6
298.15	0.5515	777.7	0.66
298.15	0.6015	788.47	0.73
298.15	0.656	800.67	0.81
298.15	0.7084	812.73	0.89
298.15	0.7529	823.45	0.97
298.15	0.8007	835.03	1.06
298.15	0.8503	847.7	1.17
298.15	0.8976	860.01	1.27
298.15	0.9442	872.48	1.39
298.15	1	888.33	1.54
308.15	0	670.98	0.25
308.15	0.057	679.32	0.28
308.15	0.1094	687.36	0.3
308.15	0.1645	696.15	0.33
308.15	0.2077	703.21	0.35
308.15	0.2514	710.65	0.38
308.15	0.3043	720.02	0.42
308.15	0.3474	727.82	0.45
308.15	0.3987	737.44	0.49
308.15	0.4472	746.84	0.54
308.15	0.4976	756.93	0.59
308.15	0.5802	774.18	0.69
308.15	0.6016	778.78	0.72
308.15	0.6549	790.52	0.79
308.15	0.7018	801.24	0.87
308.15	0.7464	811.75	0.94
308.15	0.7983	824.31	1.04
308.15	0.8484	836.92	1.14
308.15	0.8958	849.25	1.25
308.15	0.9451	862.52	1.37
308.15	1	877.73	1.51
318.15	0	662.3	0.25
318.15	0.0649	671.61	0.28
318.15	0.1168	679.42	0.3
318.15	0.167	687.35	0.33
318.15	0.2101	694.35	0.35
318.15	0.2602	702.8	0.38
318.15	0.3097	711.45	0.42
318.15	0.3567	719.93	0.45
318.15	0.4011	728.19	0.49
318.15	0.4518	737.9	0.54
318.15	0.4988	747.23	0.59
318.15	0.552	758.18	0.65
318.15	0.6016	768.6	0.71
318.15	0.6536	780	0.78
318.15	0.7051	791.6	0.86
318.15	0.752	802.64	0.94
318.15	0.7983	813.81	1.02
318.15	0.8519	827.26	1.13
318.15	0.8998	839.57	1.23
318.15	0.9481	852.46	1.35
318.15	1	866.77	1.47

System: heptane + butyl methanoate; phases: Liquid
Fixed: Pressure, kPa = 101
Property: Excess molar enthalpy (molar enthalpy of mixing), kJ/mol (Liquid); method: Calvet calorimetry
Temperature, K	Mole fraction of butyl methanoate	Excess molar enthalpy (molar enthalpy of mixing), kJ/mol	uncertainty
291.15	0.085	0.373	0.008
291.15	0.176	0.682	0.015
291.15	0.256	0.888	0.019
291.15	0.329	1.017	0.022
291.15	0.407	1.101	0.024
291.15	0.473	1.129	0.024
291.15	0.532	1.119	0.024
291.15	0.579	1.083	0.023
291.15	0.621	1.009	0.022
291.15	0.681	0.919	0.02
291.15	0.744	0.778	0.017
291.15	0.811	0.616	0.013
291.15	0.879	0.426	0.009
291.15	0.941	0.223	0.005
318.15	0.069	0.392	0.009
318.15	0.143	0.685	0.015
318.15	0.225	0.928	0.02
318.15	0.295	1.084	0.023
318.15	0.361	1.187	0.025
318.15	0.429	1.241	0.027
318.15	0.488	1.242	0.027
318.15	0.539	1.21	0.026
318.15	0.584	1.161	0.025
318.15	0.64	1.077	0.023
318.15	0.691	0.98	0.021
318.15	0.747	0.856	0.018
318.15	0.802	0.715	0.016
318.15	0.855	0.553	0.012
318.15	0.905	0.381	0.009
318.15	0.956	0.192	0.005

System: heptane + butyl methanoate; phases: Liquid, Gas
Fixed: Pressure, kPa = 101.32
Property: Boiling temperature at pressure P, K (Liquid); method: Ebulliometric method (Recirculating still)
Mole fraction of butyl methanoate	Boiling temperature at pressure P, K	uncertainty
0	371.56	0.09
0.03	370.91	0.12
0.052	370.55	0.11
0.085	370.06	0.11
0.128	369.57	0.11
0.182	369.17	0.1
0.24	368.91	0.1
0.297	368.8	0.11
0.339	368.78	0.11
0.353	368.79	0.11
0.355	368.81	0.11
0.393	368.9	0.11
0.418	368.97	0.11
0.451	369.05	0.12
0.478	369.19	0.12
0.512	369.35	0.12
0.536	369.55	0.12
0.568	369.72	0.12
0.6	369.98	0.13
0.633	370.4	0.13
0.674	370.83	0.13
0.713	371.29	0.14
0.742	371.81	0.15
0.773	372.42	0.15
0.806	373.05	0.16
0.841	373.87	0.17
0.875	374.67	0.17
0.904	375.46	0.19
0.927	376.25	0.2
0.949	376.98	0.2
0.969	377.77	0.29
1	380.13	0.15

System: heptane + butyl methanoate; phases: Gas, Liquid
Fixed: Pressure, kPa = 101.32
Property: Mole fraction of butyl methanoate (Gas); method: Density calibration data
Mole fraction of butyl methanoate	Mole fraction of butyl methanoate	uncertainty
0	0	
0.03	0.047	0.007
0.052	0.077	0.007
0.085	0.119	0.006
0.128	0.166	0.006
0.182	0.214	0.005
0.24	0.263	0.005
0.297	0.303	0.005
0.339	0.329	0.005
0.353	0.339	0.005
0.355	0.341	0.005
0.393	0.357	0.005
0.418	0.371	0.006
0.451	0.389	0.006
0.478	0.407	0.006
0.512	0.429	0.007
0.536	0.445	0.007
0.568	0.466	0.008
0.6	0.489	0.008
0.633	0.513	0.009
0.674	0.545	0.009
0.713	0.578	0.009
0.742	0.605	0.009
0.773	0.636	0.009
0.806	0.672	0.01
0.841	0.716	0.01
0.875	0.762	0.01
0.904	0.806	0.01
0.927	0.846	0.009
0.949	0.885	0.009
0.969	0.924	0.01
1	1	

System: octane + butyl methanoate; phases: Liquid
Fixed: Pressure, kPa = 101
Property: Mass density, kg/m3 (Liquid); method: Vibrating tube method
Temperature, K	Mole fraction of butyl methanoate	Mass density, kg/m3	uncertainty
291.15	0	704.17	0.25
291.15	0.0588	711.27	0.27
291.15	0.1096	717.82	0.3
291.15	0.1641	725.06	0.33
291.15	0.2118	731.76	0.36
291.15	0.2563	738.3	0.39
291.15	0.3001	744.97	0.42
291.15	0.354	753.55	0.46
291.15	0.3994	761.05	0.51
291.15	0.4522	770.18	0.56
291.15	0.4997	778.82	0.61
291.15	0.5535	788.96	0.68
291.15	0.598	797.74	0.74
291.15	0.6473	807.82	0.81
291.15	0.7008	819.29	0.89
291.15	0.7666	834.32	1.01
291.15	0.7968	841.48	1.07
291.15	0.8495	854.47	1.18
291.15	0.8977	866.97	1.29
291.15	0.9455	880.04	1.41
291.15	1	895.73	1.56
298.15	0	698.52	0.25
298.15	0.0498	704.38	0.27
298.15	0.1025	710.98	0.29
298.15	0.1595	718.49	0.32
298.15	0.2049	724.85	0.35
298.15	0.2558	732.08	0.39
298.15	0.2994	738.71	0.42
298.15	0.3587	748	0.47
298.15	0.4019	755.12	0.5
298.15	0.4523	763.71	0.55
298.15	0.5029	772.83	0.61
298.15	0.555	782.64	0.67
298.15	0.5997	791.37	0.73
298.15	0.6495	801.53	0.8
298.15	0.7039	813.13	0.89
298.15	0.7505	823.7	0.97
298.15	0.7972	834.64	1.06
298.15	0.8473	847.1	1.16
298.15	0.8993	860.23	1.28
298.15	0.9469	873.16	1.4
298.15	1	888.33	1.54
308.15	0	690.31	0.25
308.15	0.0639	697.81	0.28
308.15	0.1101	703.56	0.3
308.15	0.1652	710.7	0.33
308.15	0.1974	715.08	0.35
308.15	0.2617	724.25	0.39
308.15	0.3065	730.92	0.42
308.15	0.3601	739.3	0.46
308.15	0.4064	746.82	0.5
308.15	0.4556	755.17	0.55
308.15	0.5002	763.04	0.6
308.15	0.554	772.95	0.66
308.15	0.5989	781.64	0.72
308.15	0.6505	792.04	0.79
308.15	0.7086	804.33	0.88
308.15	0.7493	813.42	0.95
308.15	0.799	824.9	1.04
308.15	0.8495	837.18	1.14
308.15	0.8994	849.92	1.25
308.15	0.9467	862.64	1.37
308.15	1	877.73	1.51
318.15	0	682.06	0.25
318.15	0.06	688.94	0.28
318.15	0.1127	695.37	0.3
318.15	0.163	701.8	0.32
318.15	0.2054	707.44	0.35
318.15	0.2551	714.4	0.38
318.15	0.2975	720.56	0.41
318.15	0.347	728.07	0.45
318.15	0.3919	735.22	0.48
318.15	0.4462	744.18	0.53
318.15	0.4983	753.23	0.59
318.15	0.5391	760.59	0.63
318.15	0.596	771.32	0.7
318.15	0.6454	781.1	0.77
318.15	0.698	792.08	0.85
318.15	0.7493	803.23	0.93
318.15	0.797	814.1	1.02
318.15	0.848	826.22	1.12
318.15	0.8988	839.18	1.23
318.15	0.946	851.61	1.34
318.15	1	866.77	1.47

System: octane + butyl methanoate; phases: Liquid
Fixed: Pressure, kPa = 101
Property: Excess molar enthalpy (molar enthalpy of mixing), kJ/mol (Liquid); method: Calvet calorimetry
Temperature, K	Mole fraction of butyl methanoate	Excess molar enthalpy (molar enthalpy of mixing), kJ/mol	uncertainty
291.15	0.094	0.421	0.009
291.15	0.182	0.713	0.015
291.15	0.257	0.906	0.02
291.15	0.327	1.036	0.022
291.15	0.387	1.111	0.024
291.15	0.443	1.152	0.025
291.15	0.492	1.164	0.025
291.15	0.504	1.177	0.025
291.15	0.551	1.154	0.025
291.15	0.602	1.104	0.024
291.15	0.657	1.025	0.022
291.15	0.715	0.918	0.02
291.15	0.76	0.811	0.018
291.15	0.821	0.645	0.014
291.15	0.884	0.446	0.01
291.15	0.943	0.25	0.006
318.15	0.086	0.496	0.011
318.15	0.169	0.808	0.017
318.15	0.254	1.024	0.022
318.15	0.336	1.163	0.025
318.15	0.411	1.241	0.027
318.15	0.475	1.267	0.027
318.15	0.534	1.256	0.027
318.15	0.58	1.221	0.026
318.15	0.603	1.194	0.026
318.15	0.666	1.088	0.023
318.15	0.743	0.896	0.019
318.15	0.823	0.632	0.014
318.15	0.88	0.421	0.009
318.15	0.948	0.166	0.004

System: octane + butyl methanoate; phases: Liquid, Gas
Fixed: Pressure, kPa = 101.32
Property: Boiling temperature at pressure P, K (Liquid); method: Ebulliometric method (Recirculating still)
Mole fraction of butyl methanoate	Boiling temperature at pressure P, K	uncertainty
0	398.83	0.09
0.033	396.39	0.28
0.058	394.96	0.25
0.09	393.05	0.24
0.126	391.15	0.2
0.171	389.5	0.18
0.217	387.81	0.16
0.273	386.45	0.15
0.316	385.34	0.14
0.364	384.29	0.13
0.408	383.57	0.13
0.463	382.57	0.13
0.5	382.08	0.13
0.537	381.63	0.13
0.575	381.19	0.13
0.617	380.78	0.13
0.665	380.37	0.13
0.717	380.02	0.13
0.765	379.65	0.14
0.801	379.39	0.14
0.835	379.22	0.14
0.874	379.13	0.14
0.916	379.15	0.14
0.94	379.18	0.14
0.96	379.24	0.15
0.978	379.28	0.17
1	380.13	0.15

System: octane + butyl methanoate; phases: Gas, Liquid
Fixed: Pressure, kPa = 101.32
Property: Mole fraction of butyl methanoate (Gas); method: Density calibration data
Mole fraction of butyl methanoate	Mole fraction of butyl methanoate	uncertainty
0	0	
0.033	0.09	0.011
0.058	0.145	0.01
0.09	0.213	0.009
0.126	0.282	0.008
0.171	0.349	0.008
0.217	0.414	0.008
0.273	0.47	0.008
0.316	0.507	0.009
0.364	0.546	0.009
0.408	0.575	0.009
0.463	0.613	0.009
0.5	0.637	0.009
0.537	0.657	0.009
0.575	0.681	0.009
0.617	0.706	0.008
0.665	0.733	0.008
0.717	0.764	0.008
0.765	0.794	0.008
0.801	0.819	0.007
0.835	0.846	0.007
0.874	0.871	0.007
0.916	0.908	0.006
0.94	0.931	0.006
0.96	0.952	0.006
0.978	0.971	0.006
1	1	

System: nonane + butyl methanoate; phases: Liquid
Fixed: Pressure, kPa = 101
Property: Mass density, kg/m3 (Liquid); method: Vibrating tube method
Temperature, K	Mole fraction of butyl methanoate	Mass density, kg/m3	uncertainty
291.15	0	719.27	0.24
291.15	0.065	725.74	0.28
291.15	0.1154	731.16	0.3
291.15	0.1638	736.66	0.33
291.15	0.2124	742.4	0.36
291.15	0.2547	747.71	0.39
291.15	0.3139	755.51	0.43
291.15	0.3612	762.09	0.47
291.15	0.4045	768.45	0.51
291.15	0.4499	775.41	0.56
291.15	0.4945	782.58	0.61
291.15	0.5506	792.09	0.68
291.15	0.5967	800.32	0.74
291.15	0.6472	809.92	0.81
291.15	0.7021	820.98	0.9
291.15	0.7535	831.93	0.99
291.15	0.7975	841.89	1.07
291.15	0.8473	853.87	1.18
291.15	0.8981	866.85	1.29
291.15	0.9467	880.12	1.41
291.15	1	895.73	1.56
298.15	0	713.85	0.24
298.15	0.0657	720.31	0.28
298.15	0.1117	725.13	0.3
298.15	0.1632	730.81	0.33
298.15	0.2059	735.86	0.35
298.15	0.2625	742.86	0.39
298.15	0.3087	748.88	0.43
298.15	0.3544	755.1	0.46
298.15	0.4033	762.14	0.51
298.15	0.4479	768.85	0.55
298.15	0.496	776.5	0.6
298.15	0.556	786.59	0.68
298.15	0.5977	794.07	0.73
298.15	0.6481	803.48	0.8
298.15	0.7058	814.99	0.89
298.15	0.7541	825.28	0.98
298.15	0.8	835.49	1.06
298.15	0.8469	846.73	1.16
298.15	0.8977	859.57	1.27
298.15	0.9467	872.86	1.4
298.15	1	888.33	1.54
308.15	0	705.97	0.25
308.15	0.0624	711.99	0.27
308.15	0.1149	717.4	0.3
308.15	0.1612	722.45	0.32
308.15	0.2069	727.67	0.35
308.15	0.2618	734.32	0.39
308.15	0.3057	739.95	0.42
308.15	0.3495	745.78	0.46
308.15	0.4009	753.02	0.5
308.15	0.447	759.89	0.55
308.15	0.4934	767.11	0.59
308.15	0.5529	776.96	0.66
308.15	0.5977	784.75	0.72
308.15	0.6489	794.29	0.79
308.15	0.6998	804.2	0.87
308.15	0.747	814	0.95
308.15	0.7985	825.37	1.04
308.15	0.843	835.72	1.13
308.15	0.8967	849.15	1.25
308.15	0.9466	862.29	1.37
308.15	1	877.73	1.51
318.15	0	698.04	0.25
318.15	0.0713	704.73	0.28
318.15	0.1118	708.82	0.3
318.15	0.1652	714.49	0.33
318.15	0.2111	719.67	0.35
318.15	0.2652	726.04	0.39
318.15	0.3144	732.3	0.42
318.15	0.3589	738.19	0.46
318.15	0.4051	744.57	0.5
318.15	0.4601	752.65	0.55
318.15	0.498	758.5	0.59
318.15	0.5578	768.27	0.66
318.15	0.5983	775.23	0.71
318.15	0.6527	785.12	0.78
318.15	0.7059	795.44	0.86
318.15	0.7565	805.93	0.95
318.15	0.797	814.72	1.02
318.15	0.8495	826.77	1.12
318.15	0.9005	839.43	1.23
318.15	0.9466	851.6	1.34
318.15	1	866.77	1.47

System: nonane + butyl methanoate; phases: Liquid
Fixed: Pressure, kPa = 101
Property: Excess molar enthalpy (molar enthalpy of mixing), kJ/mol (Liquid); method: Calvet calorimetry
Temperature, K	Mole fraction of butyl methanoate	Excess molar enthalpy (molar enthalpy of mixing), kJ/mol	uncertainty
291.15	0.103	0.496	0.011
291.15	0.197	0.797	0.017
291.15	0.28	1.02	0.022
291.15	0.351	1.148	0.025
291.15	0.42	1.229	0.026
291.15	0.476	1.257	0.027
291.15	0.525	1.258	0.027
291.15	0.584	1.215	0.026
291.15	0.632	1.154	0.025
291.15	0.684	1.063	0.023
291.15	0.737	0.946	0.02
291.15	0.794	0.796	0.017
291.15	0.849	0.616	0.013
291.15	0.904	0.415	0.009
291.15	0.954	0.222	0.006
318.15	0.082	0.452	0.01
318.15	0.169	0.801	0.017
318.15	0.253	1.067	0.023
318.15	0.338	1.25	0.027
318.15	0.412	1.345	0.029
318.15	0.477	1.381	0.03
318.15	0.533	1.372	0.029
318.15	0.577	1.331	0.028
318.15	0.616	1.287	0.028
318.15	0.641	1.24	0.027
318.15	0.686	1.159	0.025
318.15	0.734	1.049	0.023
318.15	0.782	0.914	0.02
318.15	0.83	0.761	0.017
318.15	0.878	0.583	0.013
318.15	0.925	0.385	0.009
318.15	0.968	0.187	0.005

System: nonane + butyl methanoate; phases: Liquid, Gas
Fixed: Pressure, kPa = 101.32
Property: Boiling temperature at pressure P, K (Liquid); method: Ebulliometric method (Recirculating still)
Mole fraction of butyl methanoate	Boiling temperature at pressure P, K	uncertainty
0	423.94	0.09
0.03	419.32	0.58
0.052	416.55	0.49
0.073	414.14	0.47
0.096	411.5	0.44
0.123	408.81	0.41
0.144	406.79	0.37
0.167	404.87	0.32
0.191	403.24	0.3
0.222	400.98	0.27
0.257	399.16	0.24
0.294	397.13	0.24
0.314	396.19	0.21
0.343	394.85	0.2
0.385	393.1	0.19
0.437	391.35	0.18
0.483	389.7	0.17
0.503	389.24	0.16
0.538	388.15	0.15
0.57	387.6	0.14
0.628	386.59	0.15
0.67	385.69	0.15
0.723	384.67	0.15
0.758	384.01	0.15
0.812	383.1	0.16
0.859	381.87	0.17
0.895	381.06	0.16
0.931	380.42	0.16
0.956	380.06	0.16
0.975	379.74	0.15
1	380.13	0.15

System: nonane + butyl methanoate; phases: Gas, Liquid
Fixed: Pressure, kPa = 101.32
Property: Mole fraction of butyl methanoate (Gas); method: Density calibration data
Mole fraction of butyl methanoate	Mole fraction of butyl methanoate	uncertainty
0	0	
0.03	0.13	0.017
0.052	0.208	0.014
0.073	0.273	0.013
0.096	0.338	0.012
0.123	0.404	0.011
0.144	0.45	0.01
0.167	0.491	0.01
0.191	0.527	0.01
0.222	0.573	0.01
0.257	0.612	0.009
0.294	0.649	0.009
0.314	0.664	0.009
0.343	0.687	0.009
0.385	0.72	0.009
0.437	0.752	0.008
0.483	0.783	0.008
0.503	0.792	0.008
0.538	0.812	0.007
0.57	0.823	0.007
0.628	0.85	0.007
0.67	0.866	0.006
0.723	0.886	0.006
0.758	0.9	0.006
0.812	0.919	0.005
0.859	0.936	0.005
0.895	0.949	0.005
0.931	0.964	0.005
0.956	0.974	0.005
0.975	0.983	0.005
1	1	
