Measured thermophysical data. Experimental solid-liquid-liquid equilibrium data for the H2O + NaOH + pyrrolidine ternary system. Application to theextraction of N-aminopyrrolidine
Source: Fluid Phase Equilib., 2014, 10.1016/j.fluid.2014.07.019
Compound 1: pyrrolidine, C4H9N, InChI=1S/C4H9N/c1-2-4-5-3-1/h5H,1-4H2, purity 99%
Compound 2: sodium hydroxide, HNaO, InChI=1S/Na.H2O/h;1H2/q+1;/p-1, purity 99.5%
Compound 3: water, H2O, InChI=1S/H2O/h1H2, purity 99.8%

System: pyrrolidine + sodium hydroxide + water; phases: Liquid mixture 1, Liquid mixture 2
Fixed: Pressure, kPa = 100
Property: Mass fraction of pyrrolidine (Liquid mixture 1); method: Chromatography
Property: Mass fraction of sodium hydroxide (Liquid mixture 2); method: Chromatography
Property: Mass fraction of pyrrolidine (Liquid mixture 2); method: Chromatography
Temperature, K	Mass fraction of sodium hydroxide	Mass fraction of pyrrolidine	uncertainty	Mass fraction of sodium hydroxide	uncertainty	Mass fraction of pyrrolidine	uncertainty
293.15	0.16	0.016	0.004	0.006	0.002	0.48	
323.15	0.199	0.013	0.001	0.011	0.001	0.648	
323.15	0.282	0.009	0.001	0.005	0.001	0.795	
323.15	0.358	0.012	0.001	0.01	0.001	0.88	
323.15	0.433	0.012	0.001	0.007	0.003	0.935	
283.15	0.449	0		0.003	0.003	0.928	
283.15	0.463	0.0007	0.0007	0.002	0.002	0.943	
283.15	0.14	0.038	0.007	0.021	0.002	0.387	
283.15	0.16	0.022	0.005	0.013	0.003	0.499	
283.15	0.193	0.009	0.003	0.005	0.001	0.576	
283.15	0.235	0.004	0.001	0.006	0.001	0.67	
283.15	0.268	0.005	0.001	0.007	0.001	0.721	
283.15	0.312	0		0.004	0.001	0.803	
293.15	0.195	0.006	0.002	0.005	0.005	0.569	
293.15	0.259	0.0002	0.0002	0.056	0.004	0.749	
293.15	0.351	5e-05	5e-05	0.007	0.007	0.822	
293.15	0.431	0.031	0.003	0.004	0.002	0.925	
323.15	0.145	0.021	0.008	0.017	0.003	0.427	
323.15	0.153	0.014	0.008	0.012	0.001	0.481	

System: pyrrolidine + sodium hydroxide + water; phases: Liquid mixture 1, Liquid mixture 2, Crystal of intercomponent compound 1
Fixed: Pressure, kPa = 100
Property: Mass fraction of pyrrolidine (Liquid mixture 1); method: titration + gravimetry
Temperature, K	Mass fraction of pyrrolidine	uncertainty
293.15	0	
323.15	0.011	0.001
283.15	0.02	0.001

System: pyrrolidine + sodium hydroxide + water; phases: Liquid mixture 2, Liquid mixture 1, Crystal of intercomponent compound 1
Fixed: Pressure, kPa = 100
Property: Mass fraction of pyrrolidine (Liquid mixture 2); method: titration + gravimetry
Temperature, K	Mass fraction of pyrrolidine	uncertainty
293.15	0.969	0.031
323.15	0.979	0.021
283.15	0.967	0.033

System: pyrrolidine + sodium hydroxide + water; phases: Liquid mixture 2, Liquid mixture 1, Crystal of intercomponent compound 1
Fixed: Pressure, kPa = 100
Property: Mass fraction of sodium hydroxide (Liquid mixture 2); method: Titration method
Temperature, K	Mass fraction of sodium hydroxide	uncertainty
293.15	0	
323.15	0.005	0.001
283.15	0.007	0.001

System: pyrrolidine + sodium hydroxide + water; phases: Liquid mixture 1, Liquid mixture 2, Crystal of intercomponent compound 1
Fixed: Pressure, kPa = 100
Property: Mass fraction of sodium hydroxide (Liquid mixture 1); method: Titration method
Temperature, K	Mass fraction of sodium hydroxide	uncertainty
293.15	0.519	0.031
323.15	0.583	0.035
283.15	0.485	0.029
