Measured thermophysical data. Volume expansion prediction of supercritical CO 2  + crude oil
Source: Fluid Phase Equilib., 2017, 10.1016/j.fluid.2017.02.010
Compound 1: carbon dioxide, CO2, InChI=1S/CO2/c2-1-3, purity 99.996%
Compound 2: hexane, C6H14, InChI=1S/C6H14/c1-3-5-6-4-2/h3-6H2,1-2H3, purity 97%
Compound 3: nonane, C9H20, InChI=1S/C9H20/c1-3-5-7-9-8-6-4-2/h3-9H2,1-2H3, purity 99%
Compound 4: dodecane, C12H26, InChI=1S/C12H26/c1-3-5-7-9-11-12-10-8-6-4-2/h3-12H2,1-2H3, purity 99%
Compound 5: tetradecane, C14H30, InChI=1S/C14H30/c1-3-5-7-9-11-13-14-12-10-8-6-4-2/h3-14H2,1-2H3, purity 98%
Compound 6: hexadecane, C16H34, InChI=1S/C16H34/c1-3-5-7-9-11-13-15-16-14-12-10-8-6-4-2/h3-16H2,1-2H3, purity 98.5%
Compound 7: benzene, C6H6, InChI=1S/C6H6/c1-2-4-6-5-3-1/h1-6H, purity 97%
Compound 8: cyclohexane, C6H12, InChI=1S/C6H12/c1-2-4-6-5-3-1/h1-6H2, purity 99.5%
Compound 9: hexylcyclohexane, C12H24, InChI=1S/C12H24/c1-2-3-4-6-9-12-10-7-5-8-11-12/h12H,2-11H2,1H3, purity 99%
Compound 10: 1-cyclohexylpropane, C9H18, InChI=1S/C9H18/c1-2-6-9-7-4-3-5-8-9/h9H,2-8H2,1H3, purity 98%
Compound 11: 1,1'-bicyclohexyl, C12H22, InChI=1S/C12H22/c1-3-7-11(8-4-1)12-9-5-2-6-10-12/h11-12H,1-10H2, purity 98%
Compound 12: cyclohexylbenzene, C12H16, InChI=1S/C12H16/c1-3-7-11(8-4-1)12-9-5-2-6-10-12/h1,3-4,7-8,12H,2,5-6,9-10H2, purity 97%

System: hexane; phases: Liquid
Property: Mass density, kg/m3 (Liquid); method: Other PVT measurement
Temperature, K	Pressure, kPa	Mass density, kg/m3	uncertainty
293.15	101.325	659	10

System: hexane; phases: Liquid
Fixed: Pressure, kPa = 30000
Property: Amount density, mol/m3 (Liquid); method: Other PVT measurement
Temperature, K	Amount density, mol/m3	uncertainty
323.15	7710	155
343.15	7600	152
363.15	7480	150
383.15	7380	148

System: hexane; phases: Liquid
Fixed: Temperature, K = 323.15
Property: Molar volume, m3/mol (Liquid); method: Other PVT measurement
Pressure, kPa	Molar volume, m3/mol	uncertainty
29884	0.953	0.04
24908	0.959	0.04
19932	0.965	0.04
14954	0.972	0.04
9980	0.98	0.04
5016	0.989	0.04
3023	0.993	0.04
1029	0.997	0.04
236	1	0.04

System: nonane; phases: Liquid
Property: Mass density, kg/m3 (Liquid); method: Other PVT measurement
Temperature, K	Pressure, kPa	Mass density, kg/m3	uncertainty
293.15	101.325	718	10

System: nonane; phases: Liquid
Fixed: Pressure, kPa = 30000
Property: Amount density, mol/m3 (Liquid); method: Other PVT measurement
Temperature, K	Amount density, mol/m3	uncertainty
323.15	5620	112
343.15	5550	111
363.15	5500	110
383.15	5440	109

System: dodecane; phases: Liquid
Property: Mass density, kg/m3 (Liquid); method: Other PVT measurement
Temperature, K	Pressure, kPa	Mass density, kg/m3	uncertainty
293.15	101.325	753	10

System: dodecane; phases: Liquid
Fixed: Pressure, kPa = 30000
Property: Amount density, mol/m3 (Liquid); method: Other PVT measurement
Temperature, K	Amount density, mol/m3	uncertainty
323.15	4440	89
343.15	4370	87
363.15	4330	87
383.15	4260	85

System: tetradecane; phases: Liquid
Property: Mass density, kg/m3 (Liquid); method: Other PVT measurement
Temperature, K	Pressure, kPa	Mass density, kg/m3	uncertainty
293.15	101.325	767	10

System: tetradecane; phases: Liquid
Fixed: Pressure, kPa = 30000
Property: Amount density, mol/m3 (Liquid); method: Other PVT measurement
Temperature, K	Amount density, mol/m3	uncertainty
323.15	3860	77
343.15	3800	76
363.15	3740	75
383.15	3680	74

System: hexadecane; phases: Liquid
Property: Mass density, kg/m3 (Liquid); method: Other PVT measurement
Temperature, K	Pressure, kPa	Mass density, kg/m3	uncertainty
293.15	101.325	773	10

System: hexadecane; phases: Liquid
Fixed: Pressure, kPa = 30000
Property: Amount density, mol/m3 (Liquid); method: Other PVT measurement
Temperature, K	Amount density, mol/m3	uncertainty
323.15	3420	68
343.15	3380	68
363.15	3330	67
383.15	3300	66

System: benzene; phases: Liquid
Property: Mass density, kg/m3 (Liquid); method: Other PVT measurement
Temperature, K	Pressure, kPa	Mass density, kg/m3	uncertainty
293.15	101.325	877	10

System: benzene; phases: Liquid
Fixed: Pressure, kPa = 30000
Property: Amount density, mol/m3 (Liquid); method: Other PVT measurement
Temperature, K	Amount density, mol/m3	uncertainty
323.15	11800	237
343.15	11560	232
363.15	11300	227
383.15	11060	222

System: cyclohexane; phases: Liquid
Property: Mass density, kg/m3 (Liquid); method: Other PVT measurement
Temperature, K	Pressure, kPa	Mass density, kg/m3	uncertainty
293.15	101.325	778	10

System: cyclohexane; phases: Liquid
Fixed: Pressure, kPa = 30000
Property: Amount density, mol/m3 (Liquid); method: Other PVT measurement
Temperature, K	Amount density, mol/m3	uncertainty
323.15	9230	185
343.15	9100	182
363.15	8980	180
383.15	8860	177

System: hexylcyclohexane; phases: Liquid
Property: Mass density, kg/m3 (Liquid); method: Other PVT measurement
Temperature, K	Pressure, kPa	Mass density, kg/m3	uncertainty
293.15	101.325	810	10

System: hexylcyclohexane; phases: Liquid
Fixed: Pressure, kPa = 30000
Property: Amount density, mol/m3 (Liquid); method: Other PVT measurement
Temperature, K	Amount density, mol/m3	uncertainty
323.15	4800	96
343.15	4720	94
363.15	4660	93
383.15	4600	92

System: 1-cyclohexylpropane; phases: Liquid
Property: Mass density, kg/m3 (Liquid); method: Other PVT measurement
Temperature, K	Pressure, kPa	Mass density, kg/m3	uncertainty
293.15	101.325	790	10

System: 1-cyclohexylpropane; phases: Liquid
Fixed: Pressure, kPa = 30000
Property: Amount density, mol/m3 (Liquid); method: Other PVT measurement
Temperature, K	Amount density, mol/m3	uncertainty
323.15	6260	125
343.15	6180	124
363.15	6090	122
383.15	6020	121

System: 1,1'-bicyclohexyl; phases: Liquid
Property: Mass density, kg/m3 (Liquid); method: Other PVT measurement
Temperature, K	Pressure, kPa	Mass density, kg/m3	uncertainty
293.15	101.325	890	10

System: 1,1'-bicyclohexyl; phases: Liquid
Fixed: Pressure, kPa = 30000
Property: Amount density, mol/m3 (Liquid); method: Other PVT measurement
Temperature, K	Amount density, mol/m3	uncertainty
323.15	5320	107
343.15	5260	105
363.15	5200	104
383.15	5150	103

System: cyclohexylbenzene; phases: Liquid
Property: Mass density, kg/m3 (Liquid); method: Other PVT measurement
Temperature, K	Pressure, kPa	Mass density, kg/m3	uncertainty
293.15	101.325	940	10

System: cyclohexylbenzene; phases: Liquid
Fixed: Pressure, kPa = 30000
Property: Amount density, mol/m3 (Liquid); method: Other PVT measurement
Temperature, K	Amount density, mol/m3	uncertainty
323.15	5870	118
343.15	5800	117
363.15	5720	115
383.15	5620	113

System: benzene + carbon dioxide; phases: Fluid (supercritical or subcritical phases)
Fixed: Pressure, kPa = 30000
Property: Molar volume, m3/mol (Fluid (supercritical or subcritical phases)); method: Other PVT measurement
Temperature, K	Mole fraction of carbon dioxide	Molar volume, m3/mol	uncertainty
323.15	0.25	1.21	0.04
343.15	0.25	1.21	0.04
363.15	0.25	1.21	0.04
383.15	0.25	1.22	0.04
323.15	0.5	1.66	0.04
343.15	0.5	1.68	0.04
363.15	0.5	1.69	0.04
383.15	0.5	1.7	0.04
323.15	0.75	2.8	0.04
343.15	0.75	2.85	0.04
363.15	0.75	2.9	0.04
383.15	0.75	3.05	0.04

System: cyclohexane + carbon dioxide; phases: Fluid (supercritical or subcritical phases)
Fixed: Pressure, kPa = 30000
Property: Molar volume, m3/mol (Fluid (supercritical or subcritical phases)); method: Other PVT measurement
Temperature, K	Mole fraction of carbon dioxide	Molar volume, m3/mol	uncertainty
323.15	0.25	1.2	0.04
343.15	0.25	1.22	0.04
363.15	0.25	1.22	0.04
383.15	0.25	1.24	0.04
323.15	0.5	1.44	0.04
343.15	0.5	1.44	0.04
363.15	0.5	1.47	0.04
383.15	0.5	1.5	0.04
323.15	0.75	2.4	0.04
343.15	0.75	2.47	0.04
363.15	0.75	2.56	0.04
383.15	0.75	2.69	0.04

System: cyclohexane + carbon dioxide; phases: Liquid
Fixed: Temperature, K = 323.15
Fixed: Mole fraction of carbon dioxide = 0.25
Property: Molar volume, m3/mol (Liquid); method: Other PVT measurement
Pressure, kPa	Molar volume, m3/mol	uncertainty
29945	0.96	0.002
24969	0.966	0.002
19989	0.972	0.002
15010	0.979	0.002
10031	0.987	0.002
5054	0.996	0.002
3884	0.998	0.002
3325	1	0.002
2878	1	0.002

System: cyclohexane + carbon dioxide; phases: Liquid
Fixed: Temperature, K = 323.15
Fixed: Mole fraction of carbon dioxide = 0.5
Property: Molar volume, m3/mol (Liquid); method: Other PVT measurement
Pressure, kPa	Molar volume, m3/mol	uncertainty
29940	0.964	0.002
24967	0.97	0.002
19989	0.976	0.002
15012	0.983	0.002
10034	0.991	0.002
8044	0.994	0.002
7008	0.997	0.002
5971	0.998	0.002
5550	1	0.002

System: cyclohexane + carbon dioxide; phases: Liquid
Fixed: Temperature, K = 323.15
Fixed: Mole fraction of carbon dioxide = 0.25
Property: Molar volume, m3/mol (Liquid); method: Other PVT measurement
Pressure, kPa	Molar volume, m3/mol	uncertainty
29859	0.965	0.002
24900	0.971	0.002
19929	0.977	0.002
14692	0.984	0.002
9993	0.993	0.002
9000	0.994	0.002
8546	0.995	0.002
7729	0.997	0.002
7362	1	0.002

System: hexane + carbon dioxide; phases: Fluid (supercritical or subcritical phases)
Fixed: Pressure, kPa = 30000
Property: Molar volume, m3/mol (Fluid (supercritical or subcritical phases)); method: Other PVT measurement
Temperature, K	Mole fraction of carbon dioxide	Molar volume, m3/mol	uncertainty
323.15	0.25	1.13	0.02
343.15	0.25	1.14	0.02
363.15	0.25	1.15	0.02
383.15	0.25	1.17	0.02
323.15	0.5	1.38	0.03
343.15	0.5	1.4	0.03
363.15	0.5	1.41	0.03
383.15	0.5	1.43	0.03
323.15	0.75	2.16	0.04
343.15	0.75	2.21	0.04
363.15	0.75	2.3	0.05
383.15	0.75	2.42	0.05

System: hexane + carbon dioxide; phases: Liquid, Gas
Fixed: Temperature, K = 323.15
Property: Vapor or sublimation pressure, kPa (Liquid); method: Closed cell (Static) method
Mole fraction of carbon dioxide	Vapor or sublimation pressure, kPa	uncertainty
0.25	2878	39
0.5	5550	63
0.75	7362	79

System: carbon dioxide + 1-cyclohexylpropane; phases: Fluid (supercritical or subcritical phases)
Fixed: Pressure, kPa = 30000
Property: Molar volume, m3/mol (Fluid (supercritical or subcritical phases)); method: Other PVT measurement
Temperature, K	Mole fraction of 1-cyclohexylpropane	Molar volume, m3/mol	uncertainty
323.15	0.25	1.12	0.04
343.15	0.25	1.11	0.04
363.15	0.25	1.1	0.04
383.15	0.25	1.12	0.04
323.15	0.5	1.29	0.04
343.15	0.5	1.29	0.04
363.15	0.5	1.3	0.04
383.15	0.5	1.31	0.04
323.15	0.75	1.92	0.04
343.15	0.75	1.95	0.04
363.15	0.75	1.99	0.04
383.15	0.75	2.06	0.04

System: carbon dioxide + cyclohexylbenzene; phases: Fluid (supercritical or subcritical phases)
Fixed: Pressure, kPa = 30000
Property: Molar volume, m3/mol (Fluid (supercritical or subcritical phases)); method: Other PVT measurement
Temperature, K	Mole fraction of cyclohexylbenzene	Molar volume, m3/mol	uncertainty
323.15	0.25	1.09	0.04
343.15	0.25	1.09	0.04
363.15	0.25	1.1	0.04
383.15	0.25	1.1	0.04
323.15	0.5	1.26	0.04
343.15	0.5	1.27	0.04
363.15	0.5	1.28	0.04
383.15	0.5	1.29	0.04
323.15	0.75	1.81	0.04
343.15	0.75	1.84	0.04
363.15	0.75	1.88	0.04
383.15	0.75	1.91	0.04

System: nonane + carbon dioxide; phases: Fluid (supercritical or subcritical phases)
Fixed: Pressure, kPa = 30000
Property: Molar volume, m3/mol (Fluid (supercritical or subcritical phases)); method: Other PVT measurement
Temperature, K	Mole fraction of carbon dioxide	Molar volume, m3/mol	uncertainty
323.15	0.25	1.1	0.04
343.15	0.25	1.1	0.04
363.15	0.25	1.1	0.04
383.15	0.25	1.1	0.04
323.15	0.5	1.33	0.04
343.15	0.5	1.33	0.04
363.15	0.5	1.34	0.04
383.15	0.5	1.36	0.04
323.15	0.75	1.84	0.04
343.15	0.75	1.87	0.04
363.15	0.75	1.93	0.04
383.15	0.75	1.98	0.04

System: 1,1'-bicyclohexyl + carbon dioxide; phases: Fluid (supercritical or subcritical phases)
Fixed: Pressure, kPa = 30000
Property: Molar volume, m3/mol (Fluid (supercritical or subcritical phases)); method: Other PVT measurement
Temperature, K	Mole fraction of carbon dioxide	Molar volume, m3/mol	uncertainty
323.15	0.25	1.09	0.04
343.15	0.25	1.09	0.04
363.15	0.25	1.11	0.04
383.15	0.25	1.11	0.04
323.15	0.5	1.24	0.04
343.15	0.5	1.25	0.04
363.15	0.5	1.25	0.04
383.15	0.5	1.25	0.04
323.15	0.75	1.76	0.04
343.15	0.75	1.79	0.04
363.15	0.75	1.81	0.04
383.15	0.75	1.85	0.04

System: carbon dioxide + hexylcyclohexane; phases: Fluid (supercritical or subcritical phases)
Fixed: Pressure, kPa = 30000
Property: Molar volume, m3/mol (Fluid (supercritical or subcritical phases)); method: Other PVT measurement
Temperature, K	Mole fraction of hexylcyclohexane	Molar volume, m3/mol	uncertainty
323.15	0.25	1.1	0.04
343.15	0.25	1.1	0.04
363.15	0.25	1.11	0.04
383.15	0.25	1.11	0.04
323.15	0.5	1.22	0.04
343.15	0.5	1.22	0.04
363.15	0.5	1.21	0.04
383.15	0.5	1.21	0.04
323.15	0.75	1.69	0.04
343.15	0.75	1.7	0.04
363.15	0.75	1.72	0.04
383.15	0.75	1.75	0.04

System: dodecane + carbon dioxide; phases: Fluid (supercritical or subcritical phases)
Fixed: Pressure, kPa = 30000
Property: Molar volume, m3/mol (Fluid (supercritical or subcritical phases)); method: Other PVT measurement
Temperature, K	Mole fraction of carbon dioxide	Molar volume, m3/mol	uncertainty
323.15	0.25	1.09	0.04
343.15	0.25	1.09	0.04
363.15	0.25	1.1	0.04
383.15	0.25	1.1	0.04
323.15	0.5	1.26	0.04
343.15	0.5	1.24	0.04
363.15	0.5	1.24	0.04
383.15	0.5	1.22	0.04
323.15	0.75	1.68	0.04
343.15	0.75	1.62	0.04
363.15	0.75	1.66	0.04
383.15	0.75	1.69	0.04

System: carbon dioxide + tetradecane; phases: Fluid (supercritical or subcritical phases)
Fixed: Pressure, kPa = 30000
Property: Molar volume, m3/mol (Fluid (supercritical or subcritical phases)); method: Other PVT measurement
Temperature, K	Mole fraction of tetradecane	Molar volume, m3/mol	uncertainty
323.15	0.25	1.05	0.04
343.15	0.25	1.05	0.04
363.15	0.25	1.05	0.04
383.15	0.25	1.05	0.04
323.15	0.5	1.2	0.04
343.15	0.5	1.21	0.04
363.15	0.5	1.21	0.04
383.15	0.5	1.22	0.04
323.15	0.75	1.59	0.04
343.15	0.75	1.61	0.04
363.15	0.75	1.63	0.04
383.15	0.75	1.65	0.04

System: carbon dioxide + hexadecane; phases: Fluid (supercritical or subcritical phases)
Fixed: Pressure, kPa = 30000
Property: Molar volume, m3/mol (Fluid (supercritical or subcritical phases)); method: Other PVT measurement
Temperature, K	Mole fraction of hexadecane	Molar volume, m3/mol	uncertainty
323.15	0.25	1.02	0.04
343.15	0.25	1.07	0.04
363.15	0.25	1.08	0.04
383.15	0.25	1.08	0.04
323.15	0.5	1.17	0.04
343.15	0.5	1.18	0.04
363.15	0.5	1.17	0.04
383.15	0.5	1.18	0.04
323.15	0.75	1.5	0.04
343.15	0.75	1.5	0.04
363.15	0.75	1.52	0.04
383.15	0.75	1.55	0.04
