Measured thermophysical data. Excess Gibbs energies of binary mixtures formed by nitrobenzene with selected compounds at 94.95 kPa
Source: Fluid Phase Equilib., 2007, 10.1016/j.fluid.2006.12.010
Compound 1: nitrobenzene, C6H5NO2, InChI=1S/C6H5NO2/c8-7(9)6-4-2-1-3-5-6/h1-5H
Compound 2: bromobenzene, C6H5Br, InChI=1S/C6H5Br/c7-6-4-2-1-3-5-6/h1-5H
Compound 3: dimethylformamide, C3H7NO, InChI=1S/C3H7NO/c1-4(2)3-5/h3H,1-2H3
Compound 4: 2-methylphenol, C7H8O, InChI=1S/C7H8O/c1-6-4-2-3-5-7(6)8/h2-5,8H,1H3
Compound 5: 3-methylphenol, C7H8O, InChI=1S/C7H8O/c1-6-3-2-4-7(8)5-6/h2-5,8H,1H3
Compound 6: 4-methylphenol, C7H8O, InChI=1S/C7H8O/c1-6-2-4-7(8)5-3-6/h2-5,8H,1H3

System: nitrobenzene; phases: Liquid
Property: Refractive index (Na D-line) (Liquid); method: Standard Abbe refractometry
Temperature, K	Pressure, kPa	Refractive index (Na D-line)	uncertainty
298.15	101.325	1.55	0.0008

System: nitrobenzene; phases: Liquid
Property: Mass density, kg/m3 (Liquid); method: PYCNOM:UFactor:4
Temperature, K	Pressure, kPa	Mass density, kg/m3	uncertainty
298.15	101.325	1198	2.2

System: nitrobenzene; phases: Liquid, Gas
Property: Vapor or sublimation pressure, kPa (Liquid); method: EBULLIO:UFactor:16
Temperature, K	Vapor or sublimation pressure, kPa	uncertainty
481.15	94.95	5

System: bromobenzene; phases: Liquid
Property: Refractive index (Na D-line) (Liquid); method: Standard Abbe refractometry
Temperature, K	Pressure, kPa	Refractive index (Na D-line)	uncertainty
293.15	101.325	1.5571	0.0008

System: bromobenzene; phases: Liquid
Property: Mass density, kg/m3 (Liquid); method: PYCNOM:UFactor:4
Temperature, K	Pressure, kPa	Mass density, kg/m3	uncertainty
293.15	101.325	1488.2	2.8

System: bromobenzene; phases: Liquid, Gas
Property: Vapor or sublimation pressure, kPa (Liquid); method: EBULLIO:UFactor:16
Temperature, K	Vapor or sublimation pressure, kPa	uncertainty
426.85	94.95	5

System: dimethylformamide; phases: Liquid
Property: Refractive index (Na D-line) (Liquid); method: Standard Abbe refractometry
Temperature, K	Pressure, kPa	Refractive index (Na D-line)	uncertainty
293.15	101.325	1.4305	0.0008

System: dimethylformamide; phases: Liquid
Property: Mass density, kg/m3 (Liquid); method: PYCNOM:UFactor:4
Temperature, K	Pressure, kPa	Mass density, kg/m3	uncertainty
293.15	101.325	948.7	1.6

System: dimethylformamide; phases: Liquid, Gas
Property: Vapor or sublimation pressure, kPa (Liquid); method: EBULLIO:UFactor:32
Temperature, K	Vapor or sublimation pressure, kPa	uncertainty
424.15	94.95	5

System: 2-methylphenol; phases: Liquid
Property: Refractive index (Na D-line) (Liquid); method: Standard Abbe refractometry
Temperature, K	Pressure, kPa	Refractive index (Na D-line)	uncertainty
298.15	101.325	1.5467	0.0008

System: 2-methylphenol; phases: Liquid
Property: Mass density, kg/m3 (Liquid); method: PYCNOM:UFactor:4
Temperature, K	Pressure, kPa	Mass density, kg/m3	uncertainty
298.15	101.325	1046	1.8

System: 2-methylphenol; phases: Liquid, Gas
Property: Vapor or sublimation pressure, kPa (Liquid); method: EBULLIO:UFactor:16
Temperature, K	Vapor or sublimation pressure, kPa	uncertainty
463.55	94.95	5

System: 3-methylphenol; phases: Liquid
Property: Refractive index (Na D-line) (Liquid); method: Standard Abbe refractometry
Temperature, K	Pressure, kPa	Refractive index (Na D-line)	uncertainty
298.15	101.325	1.5395	0.0008

System: 3-methylphenol; phases: Liquid
Property: Mass density, kg/m3 (Liquid); method: PYCNOM:UFactor:4
Temperature, K	Pressure, kPa	Mass density, kg/m3	uncertainty
298.15	101.325	1030	1.8

System: 3-methylphenol; phases: Liquid, Gas
Property: Vapor or sublimation pressure, kPa (Liquid); method: EBULLIO:UFactor:16
Temperature, K	Vapor or sublimation pressure, kPa	uncertainty
473.55	94.95	5

System: 4-methylphenol; phases: Liquid
Property: Refractive index (Na D-line) (Liquid); method: Standard Abbe refractometry
Temperature, K	Pressure, kPa	Refractive index (Na D-line)	uncertainty
298.15	101.325	1.5391	0.0008

System: 4-methylphenol; phases: Crystal
Property: Mass density, kg/m3 (Crystal); method: PYCNOM:UFactor:4
Temperature, K	Pressure, kPa	Mass density, kg/m3	uncertainty
298.15	101.325	1154	2.1

System: 4-methylphenol; phases: Liquid, Gas
Property: Vapor or sublimation pressure, kPa (Liquid); method: EBULLIO:UFactor:16
Temperature, K	Vapor or sublimation pressure, kPa	uncertainty
475.35	94.95	5

System: nitrobenzene + bromobenzene; phases: Liquid, Gas
Fixed: Pressure, kPa = 94.95
Property: Boiling temperature at pressure P, K (Liquid); method: EBULLIO:UFactor:16
Mole fraction of bromobenzene	Boiling temperature at pressure P, K	uncertainty
0	481.15	1.37
0.0652	478.25	1.37
0.1302	474.95	1.37
0.2154	470.65	1.37
0.31	465.65	1.37
0.3805	461.85	1.37
0.4515	457.85	1.37
0.5175	454.05	1.37
0.5844	450.15	1.37
0.6695	445.05	1.37
0.7598	439.65	1.37
0.8105	436.65	1.37
0.8636	433.55	1.37
1	426.85	1.37

System: dimethylformamide + nitrobenzene; phases: Liquid, Gas
Fixed: Pressure, kPa = 94.95
Property: Boiling temperature at pressure P, K (Liquid); method: EBULLIO:UFactor:32
Mole fraction of dimethylformamide	Boiling temperature at pressure P, K	uncertainty
0	481.15	2.74
0.0845	475.55	2.74
0.1693	469.25	2.74
0.2199	465.45	2.74
0.2896	460.35	2.74
0.3696	454.65	2.74
0.4496	449.35	2.74
0.5201	445.65	2.74
0.59	445.05	2.74
0.6655	441.15	2.74
0.7419	437.35	2.74
0.8916	427.85	2.74
0.9501	425.85	2.74
1	424.15	2.74

System: 2-methylphenol + nitrobenzene; phases: Liquid, Gas
Fixed: Pressure, kPa = 94.95
Property: Boiling temperature at pressure P, K (Liquid); method: EBULLIO:UFactor:16
Mole fraction of 2-methylphenol	Boiling temperature at pressure P, K	uncertainty
0	481.15	1.37
0.0652	475.65	1.37
0.1301	473.95	1.37
0.2206	472.45	1.37
0.3096	472.25	1.37
0.3665	470.55	1.37
0.415	469.95	1.37
0.5005	468.95	1.37
0.584	468.05	1.37
0.6775	467.05	1.37
0.7696	466.05	1.37
0.8205	465.55	1.37
0.863	465.05	1.37
1	463.55	1.37

System: nitrobenzene + 3-methylphenol; phases: Liquid, Gas
Fixed: Pressure, kPa = 94.95
Property: Boiling temperature at pressure P, K (Liquid); method: EBULLIO:UFactor:16
Mole fraction of 3-methylphenol	Boiling temperature at pressure P, K	uncertainty
0	481.15	1.37
0.0655	480.45	1.37
0.1307	479.76	1.37
0.2205	478.75	1.37
0.3109	477.85	1.37
0.381	477.15	1.37
0.4527	476.45	1.37
0.5338	475.75	1.37
0.6137	475.15	1.37
0.6858	474.65	1.37
0.7605	474.15	1.37
0.8145	473.85	1.37
0.869	473.65	1.37
1	473.55	1.37

System: nitrobenzene + 4-methylphenol; phases: Liquid, Gas
Fixed: Pressure, kPa = 94.95
Property: Boiling temperature at pressure P, K (Liquid); method: EBULLIO:UFactor:16
Mole fraction of 4-methylphenol	Boiling temperature at pressure P, K	uncertainty
0	481.15	1.37
0.0646	480.55	1.37
0.129	479.95	1.37
0.2199	478.55	1.37
0.3078	478.15	1.37
0.4189	476.95	1.37
0.4498	476.65	1.37
0.5305	475.85	1.37
0.61	475.05	1.37
0.7012	474.25	1.37
0.8078	473.65	1.37
0.8712	473.55	1.37
0.9329	473.75	1.37
1	475.35	1.37
