Measured thermophysical data. Prediction of solubility of CO2 in ethanol-[EMIM] [Tf2N] ionic liquid mixtures using artificial neural networks based on genetic algorithm
Source: Fluid Phase Equilib., 2014, 10.1016/j.fluid.2014.02.030
Compound 1: 1-ethyl-3-methylimidazolium bis((trifluoromethyl)sulfonyl)imide, C8H11F6N3O4S2, InChI=1S/C6H11N2.C2F6NO4S2/c1-3-8-5-4-7(2)6-8;3-1(4,5)14(10,11)9-15(12,13)2(6,7)8/h4-6H,3H2,1-2H3;/q+1;-1, purity 97%
Compound 2: carbon dioxide, CO2, InChI=1S/CO2/c2-1-3, purity 99.9%
Compound 3: ethanol, C2H6O, InChI=1S/C2H6O/c1-2-3/h3H,2H2,1H3, purity 99.8%

System: ethanol + carbon dioxide + 1-ethyl-3-methylimidazolium bis((trifluoromethyl)sulfonyl)imide; phases: Liquid, Gas
Property: Mole fraction of carbon dioxide (Liquid); method: gravimetric method
Temperature, K	Pressure, kPa	Solvent: Mass fraction of ethanol	Mole fraction of carbon dioxide	uncertainty
313.2	1220	1	0.056	0.006
313.2	2240	1	0.111	0.007
313.2	3030	1	0.164	0.007
313.2	4210	1	0.226	0.008
313.2	4740	1	0.259	0.009
313.2	5280	1	0.304	0.012
313.2	6200	1	0.403	0.015
333.2	720	1	0.028	0.006
333.2	1840	1	0.076	0.006
333.2	2480	1	0.101	0.006
333.2	3350	1	0.143	0.007
333.2	4490	1	0.187	0.007
333.2	4930	1	0.213	0.008
333.2	6200	1	0.269	0.008
313.2	1110	0.8	0.057	0.006
313.2	2170	0.8	0.124	0.006
313.2	2290	0.8	0.121	0.006
313.2	3000	0.8	0.176	0.007
313.2	3830	0.8	0.217	0.007
313.2	4590	0.8	0.265	0.009
313.2	5340	0.8	0.32	0.011
313.2	6200	0.8	0.398	0.014
333.2	830	0.8	0.033	0.006
333.2	1820	0.8	0.079	0.006
333.2	2490	0.8	0.11	0.006
333.2	3320	0.8	0.149	0.007
333.2	3820	0.8	0.165	0.007
333.2	4900	0.8	0.219	0.008
333.2	5300	0.8	0.236	0.006
333.2	5360	0.8	0.237	0.006
333.2	6200	0.8	0.287	0.009
313.2	1230	0.5	0.082	0.006
313.2	1940	0.5	0.127	0.007
313.2	2970	0.5	0.193	0.007
313.2	3820	0.5	0.252	0.008
313.2	4480	0.5	0.284	0.009
313.2	5300	0.5	0.346	0.011
313.2	6200	0.5	0.423	0.012
333.2	1300	0.5	0.069	0.006
333.2	2500	0.5	0.128	0.007
333.2	3230	0.5	0.163	0.007
333.2	4470	0.5	0.219	0.007
333.2	5340	0.5	0.265	0.008
333.2	6200	0.5	0.308	0.009
313.2	1270	0.2	0.101	0.006
313.2	2200	0.2	0.176	0.007
313.2	3290	0.2	0.252	0.008
313.2	4100	0.2	0.317	0.008
313.2	5320	0.2	0.396	0.009
313.2	5960	0.2	0.425	0.021
313.2	6200	0.2	0.441	0.062
333.2	610	0.2	0.053	0.006
333.2	1830	0.2	0.12	0.006
333.2	2350	0.2	0.155	0.007
333.2	3340	0.2	0.22	0.007
333.2	4500	0.2	0.278	0.008
333.2	4910	0.2	0.295	0.007
333.2	5640	0.2	0.322	0.007
313.2	1210	0	0.221	0.007
313.2	2840	0	0.443	0.01
313.2	3500	0	0.524	0.01
313.2	4730	0	0.667	0.009
313.2	6200	0	0.715	0.008
333.2	950	0	0.137	0.007
333.2	1370	0	0.193	0.007
333.2	2610	0	0.348	0.008
333.2	3870	0	0.473	0.009
333.2	4320	0	0.5	0.008
333.2	5420	0	0.565	0.009
