Measured thermophysical data. Solubilities of cholesterol and desmosterol in binary solvent mixtures of n-hexane + ethanol
Source: Fluid Phase Equilib., 2009, 10.1016/j.fluid.2009.08.016
Compound 1: .DELTA.5-cholesten-3.beta.-ol, C27H46O, InChI=1S/C27H46O/c1-18(2)7-6-8-19(3)23-11-12-24-22-10-9-20-17-21(28)13-15-26(20,4)25(22)14-16-27(23,24)5/h9,18-19,21-25,28H,6-8,10-17H2,1-5H3/t19-,21+,22+,23-,24+,25+,26+,27-/m1/s1
Compound 2: desmosterol, C27H44O, InChI=1S/C27H44O/c1-18(2)7-6-8-19(3)23-11-12-24-22-10-9-20-17-21(28)13-15-26(20,4)25(22)14-16-27(23,24)5/h7,9,19,21-25,28H,6,8,10-17H2,1-5H3/t19-,21+,22+,23-,24+,25+,26+,27-/m1/s1
Compound 3: ethanol, C2H6O, InChI=1S/C2H6O/c1-2-3/h3H,2H2,1H3
Compound 4: hexane, C6H14, InChI=1S/C6H14/c1-3-5-6-4-2/h3-6H2,1-2H3

System: .DELTA.5-cholesten-3.beta.-ol; phases: Crystal, Liquid, Air at 1 atmosphere
Property: Molar enthalpy of transition or fusion, kJ/mol (Crystal); method: DSC
Molar enthalpy of transition or fusion, kJ/mol	uncertainty
28.5	0.8

System: .DELTA.5-cholesten-3.beta.-ol; phases: Crystal, Liquid, Air at 1 atmosphere
Property: Normal melting temperature, K (Crystal); method: DTA
Normal melting temperature, K	uncertainty
421.7	0.5

System: ethanol + hexane + desmosterol; phases: Liquid, Crystal
Fixed: Pressure, kPa = 101
Property: Mole fraction of desmosterol (Liquid); method: Chromatography
Temperature, K	Solvent: Mole fraction of ethanol	Mole fraction of desmosterol	uncertainty
293.2	0	0.00618	0.00026
293.2	0.1249	0.01997	0.00053
293.2	0.2341	0.02969	0.00128
293.2	0.36	0.03546	0.00085
293.2	0.4575	0.03717	0.00122
293.2	0.5534	0.03575	0.00075
293.2	0.6632	0.03052	0.0011
293.2	0.8014	0.02285	0.00089
293.2	0.905	0.01687	0.0005
293.2	1	0.00443	0.00017
298.2	0	0.00776	0.00021
298.2	0.1249	0.02466	0.00064
298.2	0.2341	0.03704	0.00144
298.2	0.36	0.04367	0.00145
298.2	0.4575	0.04555	0.00131
298.2	0.5534	0.04201	0.00106
298.2	0.6632	0.03685	0.00107
298.2	0.8014	0.02902	0.00091
298.2	0.905	0.02019	0.00061
298.2	1	0.00551	0.00014
303.2	0	0.00971	0.00037
303.2	0.1249	0.03133	0.00116
303.2	0.2341	0.0471	0.00132
303.2	0.36	0.05374	0.001
303.2	0.4575	0.05772	0.0017
303.2	0.5534	0.05227	0.0015
303.2	0.6632	0.04541	0.00181
303.2	0.8014	0.03376	0.00124
303.2	0.905	0.02483	0.00079
303.2	1	0.00683	0.00022
313.2	0	0.01624	0.0007
313.2	0.1249	0.04939	0.00071
313.2	0.2341	0.06684	0.00205
313.2	0.36	0.07422	0.00218
313.2	0.4575	0.07857	0.00232
313.2	0.5534	0.0736	0.00253
313.2	0.6632	0.06729	0.00171
313.2	0.8014	0.04977	0.00101
313.2	0.905	0.03309	0.00101
313.2	1	0.01122	0.00025
323.2	0	0.03467	0.00134
323.2	0.1249	0.07367	0.00094
323.2	0.2341	0.08784	0.00233
323.2	0.36	0.09322	0.00223
323.2	0.4575	0.09841	0.00307
323.2	0.5534	0.09291	0.00308
323.2	0.6632	0.08453	0.00256
323.2	0.8014	0.07278	0.00203
323.2	0.905	0.05214	0.00148
323.2	1	0.0173	0.00039

System: .DELTA.5-cholesten-3.beta.-ol + ethanol + hexane; phases: Liquid, Crystal
Fixed: Pressure, kPa = 101
Property: Mole fraction of .DELTA.5-cholesten-3.beta.-ol (Liquid); method: Chromatography
Temperature, K	Solvent: Mole fraction of ethanol	Mole fraction of .DELTA.5-cholesten-3.beta.-ol	uncertainty
293.2	0	0.00429	6e-05
293.2	0.1249	0.01863	0.00031
293.2	0.2341	0.02615	0.0011
293.2	0.36	0.03137	0.00075
293.2	0.4575	0.03219	0.00064
293.2	0.5534	0.02983	0.00074
293.2	0.6632	0.0271	0.00073
293.2	0.8014	0.01853	0.00068
293.2	0.905	0.00953	0.00027
293.2	1	0.00331	0.00015
298.2	0	0.00469	9e-05
298.2	0.1249	0.02195	0.00043
298.2	0.2341	0.03041	0.00076
298.2	0.36	0.0354	0.00098
298.2	0.4575	0.03557	0.00092
298.2	0.5534	0.0339	0.00106
298.2	0.6632	0.03	0.00075
298.2	0.8014	0.02073	0.00054
298.2	0.905	0.01106	0.00036
298.2	1	0.00379	0.00014
303.2	0	0.00629	9e-05
303.2	0.1249	0.02479	0.00067
303.2	0.2341	0.03424	0.001
303.2	0.36	0.04079	0.0017
303.2	0.4575	0.0411	0.00136
303.2	0.5534	0.03861	0.00121
303.2	0.6632	0.03417	0.00104
303.2	0.8014	0.02421	0.00051
303.2	0.905	0.01318	0.0004
303.2	1	0.00455	0.00018
313.2	0	0.00903	0.00015
313.2	0.1249	0.03331	0.00078
313.2	0.2341	0.04409	0.00097
313.2	0.36	0.0503	0.00119
313.2	0.4575	0.05158	0.00218
313.2	0.5534	0.04865	0.00135
313.2	0.6632	0.04431	0.00126
313.2	0.8014	0.03281	0.00097
313.2	0.905	0.01855	0.00055
313.2	1	0.00683	0.00017
323.2	0	0.01318	0.0003
323.2	0.1249	0.049	0.0013
323.2	0.2341	0.05992	0.00146
323.2	0.36	0.06355	0.00167
323.2	0.4575	0.06557	0.00167
323.2	0.5534	0.06275	0.00225
323.2	0.6632	0.05723	0.00098
323.2	0.8014	0.04281	0.00076
323.2	0.905	0.02561	0.00062
323.2	1	0.00943	0.0003
