Measured thermophysical data. Measurement of thermal diffusivity for carbon dioxide (CO2) at T = 293.15-406.15 K and pressures up to 11 MPa by dynamic light scattering (DLS)
Source: Fluid Phase Equilib., 2018, 10.1016/j.fluid.2018.07.012
Compound 1: carbon dioxide, CO2, InChI=1S/CO2/c2-1-3, purity 99.999%

System: carbon dioxide; phases: Fluid (supercritical or subcritical phases)
Property: Thermal diffusivity, m2/s (Fluid (supercritical or subcritical phases)); method: Dynamic light scattering
Temperature, K	Pressure, kPa	Thermal diffusivity, m2/s	uncertainty
297.45	7000	2.67e-08	9e-10
305.32	7050	3.23e-08	2e-09
316.1	7000	6.47e-08	1.9e-09
326.51	7010	8.98e-08	2.5e-09
336.92	7000	1.079e-07	2.9e-09
346.99	7020	1.314e-07	3.5e-09
357.15	7030	1.461e-07	3.9e-09
367.01	7010	1.622e-07	4.2e-09
377.05	7040	1.817e-07	4.7e-09
386.82	7010	2.095e-07	5.5e-09
396.68	7010	2.198e-07	5.7e-09
406.44	7020	2.378e-07	6.1e-09
297.27	7520	2.9e-08	1e-09
305.77	7510	1.22e-08	1e-09
316.65	7490	5.72e-08	1.8e-09
326.93	7480	7.92e-08	2.3e-09
337.46	7510	1.023e-07	2.8e-09
347.28	7500	1.175e-07	3.2e-09
357.37	7500	1.366e-07	3.6e-09
367.19	7600	1.538e-07	4.1e-09
377.25	7480	1.754e-07	4.6e-09
386.8	7480	1.867e-07	4.9e-09
396.85	7490	2.04e-07	5.3e-09
406.5	7500	2.202e-07	5.7e-09
295.33	8060	3.64e-08	1.1e-09
302.43	8030	2.25e-08	8e-10
307	8060	8.8e-09	5e-10
312.35	8020	2.68e-08	1.1e-09
317.56	8000	4.32e-08	1.5e-09
324.99	8160	6.12e-08	1.8e-09
333.97	8140	8.06e-08	2.3e-09
343.12	8000	9.67e-08	2.7e-09
354.57	8000	1.155e-07	3.1e-09
364.02	8020	1.309e-07	3.5e-09
374.62	8010	1.492e-07	4e-09
383.53	8040	1.66e-07	4.4e-09
394.36	7960	1.889e-07	4.9e-09
403.62	8070	1.982e-07	5.2e-09
302.5	8980	2.81e-08	1e-09
307.3	9050	2.14e-08	8e-10
312.44	9010	9.3e-09	6e-10
317.11	9010	1.99e-08	8e-10
324.73	9080	4.26e-08	1.4e-09
333.51	9020	6e-08	1.8e-09
343.7	9050	7.77e-08	2.2e-09
353.95	9020	9.9e-08	2.7e-09
363.43	9020	1.067e-07	2.9e-09
373.59	9010	1.238e-07	3.3e-09
383.71	9020	1.406e-07	3.7e-09
393.82	9040	1.565e-07	4.1e-09
403.05	9020	1.664e-07	4.3e-09
295.4	10050	4.04e-08	1.2e-09
303.34	10000	3.28e-08	1.1e-09
307.42	10540	2.76e-08	9e-10
313.93	10020	1.71e-08	7e-10
317.19	10190	1.4e-08	8e-10
322.67	10290	2.13e-08	9e-10
334.01	10320	4.36e-08	1.4e-09
343.72	10060	6.38e-08	1.8e-09
353.14	10270	7.34e-08	2.1e-09
363.07	10000	8.99e-08	2.5e-09
373.34	10090	1.039e-07	2.8e-09
382.51	10040	1.226e-07	3.3e-09
392.06	10550	1.323e-07	3.5e-09
402.64	10200	1.455e-07	3.8e-09
293.55	10990	4.54e-08	1.4e-09
302.29	11020	3.74e-08	1.2e-09
314.2	11020	2.66e-08	1e-09
323.48	11000	1.97e-08	8e-10
328.26	11000	2.63e-08	9e-10
333.11	11010	3.22e-08	1.1e-09
343.95	10970	5.2e-08	1.6e-09
345.99	11010	5.38e-08	1.6e-09
356.06	11030	7.11e-08	2e-09
365.89	11050	8.37e-08	2.3e-09
375.92	11040	9.69e-08	2.6e-09
385.64	10990	1.153e-07	3.1e-09
395.37	11030	1.229e-07	3.3e-09
405.15	11090	1.3e-07	3.5e-09
