Measured thermophysical data. Isobaric vapor liquid equilibria for water + acetic acid + (N-methyl pyrrolidone or N-methyl acetamide)
Source: Fluid Phase Equilib., 2006, 10.1016/j.fluid.2006.02.002
Compound 1: acetic acid, C2H4O2, InChI=1S/C2H4O2/c1-2(3)4/h1H3,(H,3,4), purity 99.9%
Compound 2: water, H2O, InChI=1S/H2O/h1H2, purity 99.9%
Compound 3: N-methylpyrrolidone, C5H9NO, InChI=1S/C5H9NO/c1-6-4-2-3-5(6)7/h2-4H2,1H3, purity 99.9%
Compound 4: N-methylacetamide, C3H7NO, InChI=1S/C3H7NO/c1-3(5)4-2/h1-2H3,(H,4,5), purity 99.9%

System: acetic acid; phases: Liquid, Gas
Property: Normal boiling temperature, K (Liquid); method: EBULLIO:FP
Normal boiling temperature, K	uncertainty
390.85	0.2

System: water; phases: Liquid, Gas
Property: Normal boiling temperature, K (Liquid); method: EBULLIO:FP
Normal boiling temperature, K	uncertainty
372.96	0.2

System: N-methylpyrrolidone; phases: Liquid, Gas
Property: Normal boiling temperature, K (Liquid); method: EBULLIO:FP
Normal boiling temperature, K	uncertainty
477.01	0.2

System: N-methylacetamide; phases: Liquid, Gas
Property: Normal boiling temperature, K (Liquid); method: EBULLIO:FP
Normal boiling temperature, K	uncertainty
478.07	0.2

System: acetic acid + N-methylpyrrolidone; phases: Liquid, Gas
Fixed: Pressure, kPa = 101.33
Property: Boiling temperature at pressure P, K (Liquid); method: EBULLIO:UFactor:32
Mole fraction of acetic acid	Boiling temperature at pressure P, K	uncertainty
0.06	475.02	0.99
0.1081	472.68	0.99
0.1761	470.4	0.99
0.2443	467.13	0.99
0.3035	463.42	0.99
0.3452	460.54	1
0.3924	456.52	1
0.4418	451.92	1.01
0.469	448.17	1.02
0.503	444.28	1.01
0.539	440.81	1.01
0.5598	437.56	1.02
0.5803	435.11	1.02
0.6104	430.83	1.03
0.6556	424.42	1.02
0.6864	420.45	1.01
0.7112	417.71	1.02
0.7549	411.22	1.01
0.7935	407.99	1
0.8319	403.67	1.01
0.8661	400.75	1

System: acetic acid + N-methylpyrrolidone; phases: Gas, Liquid
Fixed: Pressure, kPa = 101.33
Property: Mole fraction of acetic acid (Gas); method: CHROM:UFactor:12
Mole fraction of acetic acid	Mole fraction of acetic acid	uncertainty
0.06	0.1123	0.0136
0.1081	0.2112	0.0238
0.1761	0.3266	0.0366
0.2443	0.4606	0.0515
0.3035	0.5834	0.0466
0.3452	0.6593	0.0381
0.3924	0.7231	0.031
0.4418	0.791	0.0235
0.469	0.8186	0.0204
0.503	0.873	0.0145
0.539	0.9045	0.0115
0.5598	0.9167	0.0105
0.5803	0.934	0.0091
0.6104	0.9506	0.0079
0.6556	0.9631	0.0071
0.6864	0.9683	0.0068
0.7112	0.9808	0.0063
0.7549	0.9822	0.0063
0.7935	0.9877	0.0061
0.8319	0.99	0.0061
0.8661	0.9931	0.006

System: acetic acid + N-methylacetamide; phases: Liquid, Gas
Fixed: Pressure, kPa = 101.33
Property: Boiling temperature at pressure P, K (Liquid); method: EBULLIO:UFactor:64
Mole fraction of acetic acid	Boiling temperature at pressure P, K	uncertainty
0.0779	475.6	1.97
0.1335	472.95	1.97
0.168	470.85	1.97
0.1998	468.26	1.97
0.2203	465.68	1.97
0.2512	463.02	1.97
0.283	460.69	1.97
0.2989	458.1	1.97
0.334	455.35	1.97
0.351	452.52	1.97
0.3752	449.88	1.97
0.4143	444.8	1.97
0.4457	442.56	1.97
0.4717	439.7	1.97
0.4872	437.44	1.97
0.5057	434.8	1.97
0.5562	429.55	1.97
0.5978	424.45	1.97
0.6141	423.01	1.97
0.6313	420.31	1.97
0.6607	417.47	1.97
0.6827	414.75	1.97
0.7074	412.03	1.97
0.7334	409.36	1.97
0.7605	407	1.97
0.8264	402.93	1.97
0.9046	397.6	1.97
0.9337	395.62	1.97
0.9613	393.16	1.97

System: acetic acid + N-methylacetamide; phases: Gas, Liquid
Fixed: Pressure, kPa = 101.33
Property: Mole fraction of acetic acid (Gas); method: CHROM:UFactor:12
Mole fraction of acetic acid	Mole fraction of acetic acid	uncertainty
0.0779	0.1555	0.0179
0.1335	0.2802	0.0316
0.168	0.3596	0.0404
0.1998	0.4348	0.0487
0.2203	0.4859	0.0544
0.2512	0.5581	0.0495
0.283	0.6256	0.042
0.2989	0.6656	0.0375
0.334	0.7147	0.032
0.351	0.7472	0.0283
0.3752	0.7756	0.0252
0.4143	0.8291	0.0192
0.4457	0.8601	0.0157
0.4717	0.8899	0.0129
0.4872	0.9037	0.0116
0.5057	0.9171	0.0104
0.5562	0.9404	0.0086
0.5978	0.9523	0.0077
0.6141	0.9569	0.0075
0.6313	0.9651	0.007
0.6607	0.9731	0.0066
0.6827	0.9791	0.0064
0.7074	0.9896	0.0061
0.7334	0.9911	0.0061
0.7605	0.9932	0.006
0.8264	0.9948	0.0052
0.9046	0.9955	0.0045
0.9337	0.9966	0.0034
0.9613	0.9978	0.0022

System: acetic acid + N-methylpyrrolidone + water; phases: Liquid, Gas
Fixed: Pressure, kPa = 101.33
Property: Mole fraction of acetic acid (Liquid); method: CHROM:UFactor:12
Property: Mole fraction of acetic acid (Gas); method: CHROM:UFactor:12
Property: Mole fraction of water (Gas); method: CHROM:UFactor:12
Temperature, K	Mole fraction of water	Mole fraction of acetic acid	uncertainty	Mole fraction of acetic acid	uncertainty	Mole fraction of water	uncertainty
396.41	0.227	0.4501	0.0418	0.3177	0.0354	0.6643	
398.83	0.2114	0.443	0.0412	0.3063	0.0342	0.6713	
401.05	0.1797	0.473	0.044	0.3195	0.0356	0.6608	
403.66	0.1915	0.4342	0.0404	0.306	0.0341	0.666	
405.91	0.1765	0.4276	0.0397	0.3012	0.0336	0.6653	
406.89	0.1697	0.4332	0.0403	0.3051	0.034	0.6573	
407.67	0.186	0.3999	0.0372	0.2792	0.0311	0.6765	
408.01	0.1605	0.4196	0.039	0.2907	0.0324	0.6645	
409.32	0.1336	0.4587	0.0426	0.3426	0.0382	0.6141	
410.65	0.146	0.4293	0.0399	0.3077	0.0343	0.6458	
410.86	0.1412	0.4496	0.0418	0.3364	0.0375	0.6257	
415.98	0.0751	0.576	0.0394	0.5999	0.0446	0.3707	
415.99	0.0421	0.6358	0.0339	0.7972	0.0226	0.1829	
416.42	0.0466	0.6205	0.0353	0.7492	0.028	0.2255	
417.21	0.0506	0.5959	0.0376	0.6986	0.0336	0.2728	

System: acetic acid + N-methylacetamide + water; phases: Liquid, Gas
Fixed: Pressure, kPa = 101.33
Property: Mole fraction of acetic acid (Liquid); method: CHROM:UFactor:12
Property: Mole fraction of acetic acid (Gas); method: CHROM:UFactor:12
Property: Mole fraction of water (Gas); method: CHROM:UFactor:12
Temperature, K	Mole fraction of water	Mole fraction of acetic acid	uncertainty	Mole fraction of acetic acid	uncertainty	Mole fraction of water	uncertainty
407.04	0.236	0.2769	0.0257	0.1643	0.0183	0.7991	
407.64	0.2366	0.2523	0.0235	0.1496	0.0167	0.8044	
408.29	0.2284	0.2623	0.0244	0.1544	0.0172	0.8055	
409.27	0.2153	0.2688	0.025	0.1621	0.0181	0.7946	
410.75	0.2306	0.241	0.0224	0.1515	0.0169	0.7951	
411.06	0.218	0.2413	0.0224	0.1601	0.0179	0.783	
411.56	0.2098	0.2443	0.0227	0.1582	0.0176	0.7809	
411.7	0.2315	0.244	0.0227	0.1567	0.0175	0.789	
412.22	0.2196	0.2542	0.0236	0.1521	0.017	0.7935	
412.9	0.185	0.249	0.0231	0.1692	0.0189	0.771	
414.38	0.1912	0.2511	0.0233	0.1721	0.0192	0.7597	
416.55	0.1821	0.1748	0.0162	0.0991	0.0117	0.8155	
420.03	0.1438	0.2552	0.0237	0.1974	0.022	0.7132	
423.35	0.1347	0.2498	0.0232	0.2082	0.0232	0.6865	
425.95	0.1293	0.2412	0.0224	0.2238	0.025	0.6551	

System: acetic acid + N-methylacetamide + water; phases: Gas, Liquid
Property: Mole fraction of acetic acid (Gas); method: Phase equilibration
Temperature, K	Mole fraction of water	Mole fraction of acetic acid	Mole fraction of acetic acid	uncertainty
407.04	0.236	0.2769	0.1643	0.0001
407.64	0.2366	0.2523	0.1496	0.0006
408.29	0.2284	0.2623	0.1544	0.0002
409.27	0.2153	0.2688	0.1621	0.0006
410.75	0.2306	0.241	0.1515	0.0008
411.06	0.218	0.2413	0.1601	0.0004
411.56	0.2098	0.2443	0.1582	0.0022
411.7	0.2315	0.244	0.1567	0.001
412.22	0.2196	0.2542	0.1521	0.0005
412.9	0.185	0.249	0.1692	0.0003
414.38	0.1912	0.2511	0.1721	0.0006
416.55	0.1821	0.1748	0.0991	0.0018
420.03	0.1438	0.2552	0.1974	0.0011
423.35	0.1347	0.2498	0.2082	0.0009
425.95	0.1293	0.2412	0.2238	0.0029
