Measured thermophysical data. Total pressure and excess Gibbs energy for the ternary mixture di-isopropyl ether + 1-propanol + benzene and its corresponding binary systems at 313.15K
Source: Fluid Phase Equilib., 2006, 10.1016/j.fluid.2005.11.014
Compound 1: diisopropyl ether, C6H14O, InChI=1S/C6H14O/c1-5(2)7-6(3)4/h5-6H,1-4H3
Compound 2: propan-1-ol, C3H8O, InChI=1S/C3H8O/c1-2-3-4/h4H,2-3H2,1H3
Compound 3: benzene, C6H6, InChI=1S/C6H6/c1-2-4-6-5-3-1/h1-6H

System: diisopropyl ether; phases: Liquid, Gas
Fixed: Temperature, K = 313.15
Property: Vapor or sublimation pressure, kPa (Liquid); method: Closed cell (Static) method
Vapor or sublimation pressure, kPa	uncertainty
37.102	0.155
37.108	0.155
37.106	0.155
37.119	0.155

System: propan-1-ol; phases: Liquid, Gas
Fixed: Temperature, K = 313.15
Property: Vapor or sublimation pressure, kPa (Liquid); method: Closed cell (Static) method
Vapor or sublimation pressure, kPa	uncertainty
7.003	0.038
7	0.038

System: benzene; phases: Liquid, Gas
Fixed: Temperature, K = 313.15
Property: Vapor or sublimation pressure, kPa (Liquid); method: Closed cell (Static) method
Vapor or sublimation pressure, kPa	uncertainty
24.39	0.097
24.372	0.097

System: propan-1-ol + diisopropyl ether; phases: Liquid, Gas
Fixed: Temperature, K = 313.15
Property: Vapor or sublimation pressure, kPa (Liquid); method: Closed cell (Static) method
Mole fraction of diisopropyl ether	Vapor or sublimation pressure, kPa	uncertainty
0	7.003	0.038
0.051	11.275	0.052
0.1015	14.917	0.064
0.1495	17.859	0.074
0.1985	20.387	0.082
0.2479	22.542	0.089
0.2982	24.411	0.096
0.2982	24.386	0.096
0.3481	25.992	0.102
0.3983	27.345	0.107
0.4495	28.545	0.112
0.4977	29.542	0.116
0.4994	29.587	0.116
0.5482	30.49	0.12
0.5992	31.374	0.124
0.6501	32.163	0.127
0.7006	32.964	0.131
0.701	32.932	0.131
0.7524	33.69	0.135
0.8038	34.426	0.139
0.8538	35.138	0.143
0.9058	35.861	0.147
0.9555	36.54	0.151
1	37.102	0.155

System: propan-1-ol + benzene; phases: Liquid, Gas
Fixed: Temperature, K = 313.15
Property: Vapor or sublimation pressure, kPa (Liquid); method: Closed cell (Static) method
Mole fraction of benzene	Vapor or sublimation pressure, kPa	uncertainty
0	7	0.038
0.0503	10.778	0.05
0.0993	13.771	0.06
0.1492	16.237	0.068
0.1985	18.211	0.074
0.2493	19.837	0.08
0.2987	21.099	0.084
0.349	22.125	0.088
0.399	22.938	0.09
0.3999	22.95	0.09
0.4491	23.594	0.093
0.4501	23.609	0.093
0.4994	24.12	0.095
0.4997	24.119	0.095
0.5487	24.549	0.096
0.551	24.534	0.096
0.5992	24.906	0.097
0.6001	24.895	0.097
0.6505	25.206	0.099
0.7003	25.462	0.1
0.7502	25.668	0.101
0.7998	25.811	0.101
0.8488	25.91	0.102
0.9025	25.899	0.102
0.9487	25.627	0.101
1	24.39	0.097

System: propan-1-ol + benzene; phases: Liquid, Gas
Fixed: Temperature, K = 313.15
Property: Vapor or sublimation pressure, kPa (Liquid); method: Closed cell (Static) method
Mole fraction of propan-1-ol	Vapor or sublimation pressure, kPa	uncertainty
0.3	25.462	0.1
0.7003	21.107	0.084

System: benzene + diisopropyl ether; phases: Liquid, Gas
Fixed: Temperature, K = 313.15
Property: Vapor or sublimation pressure, kPa (Liquid); method: Closed cell (Static) method
Mole fraction of diisopropyl ether	Vapor or sublimation pressure, kPa	uncertainty
0.3002	29.501	0.117
0.7008	34.202	0.139

System: propan-1-ol + benzene + diisopropyl ether; phases: Liquid, Gas
Fixed: Temperature, K = 313.15
Property: Vapor or sublimation pressure, kPa (Liquid); method: Closed cell (Static) method
Mole fraction of diisopropyl ether	Mole fraction of propan-1-ol	Vapor or sublimation pressure, kPa	uncertainty
0	0	24.39	0.097
0	0.3	25.462	0.1
0	0.7003	21.107	0.084
0.0001	0	24.372	0.097
0.0002	0	24.39	0.097
0.0229	0.6842	21.611	0.086
0.0347	0.2896	25.917	0.101
0.0576	0.6599	22.402	0.089
0.0578	0.2827	26.239	0.103
0.0999	0.27	26.805	0.105
0.1122	0.6216	23.664	0.093
0.1495	0.351	26.936	0.105
0.1497	0.5014	25.718	0.1
0.1508	0.2547	27.483	0.108
0.1644	0.3862	26.868	0.105
0.1647	0.4514	26.372	0.103
0.1681	0.5823	24.904	0.098
0.1793	0.4211	26.774	0.104
0.1798	0.4013	26.952	0.105
0.1942	0.4563	26.644	0.104
0.1948	0.3513	27.465	0.107
0.2002	0.2399	28.13	0.11
0.2092	0.4915	26.471	0.103
0.2098	0.3012	27.929	0.109
0.2222	0.5444	26.029	0.102
0.224	0.5266	26.252	0.103
0.2245	0.2522	28.343	0.111
0.2389	0.5617	25.984	0.102
0.2399	0.201	28.739	0.113
0.2499	0.225	28.77	0.113
0.2537	0.5967	25.66	0.1
0.255	0.1507	29.089	0.114
0.2685	0.6317	25.28	0.099
0.2701	0.1004	29.401	0.116
0.2755	0.5071	27.068	0.106
0.2836	0.6673	24.823	0.097
0.2852	0.0499	29.596	0.117
0.2908	0.6841	24.583	0.097
0.2924	0.0258	29.611	0.117
0.2982	0.7018	24.386	0.096
0.2999	0.21	29.398	0.115
0.3002	0	29.501	0.117
0.3289	0.4697	28.044	0.109
0.3498	0.5008	27.974	0.109
0.35	0.1494	30.102	0.119
0.3501	0.1949	30.014	0.118
0.381	0.4332	28.926	0.113
0.3847	0.4511	28.822	0.113
0.3857	0.1647	30.437	0.12
0.3999	0.18	30.6	0.121
0.4201	0.4006	29.595	0.116
0.4207	0.1796	30.755	0.121
0.4323	0.3973	29.746	0.117
0.4506	0.1648	31.197	0.123
0.4546	0.3513	30.3	0.119
0.4558	0.1946	31.056	0.123
0.4807	0.3634	30.478	0.12
0.4899	0.301	30.95	0.122
0.4908	0.2096	31.35	0.124
0.5	0.1499	31.77	0.126
0.5016	0.3487	30.795	0.121
0.525	0.2509	31.57	0.125
0.5265	0.2249	31.648	0.125
0.5601	0.2008	32.158	0.128
0.5612	0.2397	31.924	0.127
0.5949	0.1511	32.717	0.131
0.5964	0.2548	32.202	0.128
0.6307	0.1	33.27	0.134
0.6313	0.2697	32.467	0.129
0.6659	0.0498	33.78	0.136
0.6666	0.2849	32.728	0.13
0.6829	0.0255	34.005	0.138
0.684	0.2923	32.865	0.131
0.7006	0.2994	32.964	0.131
0.7008	0	34.202	0.139
1	0	37.108	0.155
1	0	37.106	0.155
1	0	37.119	0.155
