Measured thermophysical data. A conductance study to analyze the effect of organic solvents onmicellization behavior of carbohydrate-surfactant system at variable temperatures
Source: Fluid Phase Equilib., 2014, 10.1016/j.fluid.2014.05.020
Compound 1: ribose, C5H10O5, InChI=1S/C5H10O5/c6-1-3(8)5(10)4(9)2-7/h1,3-5,7-10H,2H2/t3-,4+,5-/m0/s1, purity 97%
Compound 2: D-raffinose, C18H32O16, InChI=1S/C18H32O16/c19-1-5-8(22)11(25)13(27)16(31-5)30-3-7-9(23)12(26)14(28)17(32-7)34-18(4-21)15(29)10(24)6(2-20)33-18/h5-17,19-29H,1-4H2/t5-,6-,7-,8+,9-,10-,11+,12+,13-,14-,15+,16+,17-,18+/m1/s1, purity 97%
Compound 3: D-sucrose, C12H22O11, InChI=1S/C12H22O11/c13-1-4-6(16)8(18)9(19)11(21-4)23-12(3-15)10(20)7(17)5(2-14)22-12/h4-11,13-20H,1-3H2/t4-,5-,6-,7-,8+,9-,10+,11-,12+/m1/s1, purity 98%
Compound 4: D-glucose, C6H12O6, InChI=1S/C6H12O6/c7-1-3(9)5(11)6(12)4(10)2-8/h1,3-6,8-12H,2H2/t3-,4+,5+,6+/m0/s1, purity 98%
Compound 5: sodium dodecyl sulfate, C12H25NaO4S, InChI=1S/C12H26O4S.Na/c1-2-3-4-5-6-7-8-9-10-11-12-16-17(13,14)15;/h2-12H2,1H3,(H,13,14,15);/q;+1/p-1, purity 95%
Compound 6: water, H2O, InChI=1S/H2O/h1H2

System: sodium dodecyl sulfate + water + ribose; phases: Liquid
Fixed: Pressure, kPa = 101
Property: Electrical conductivity, S/m (Liquid); method: Alternating current cell with electrodes
Temperature, K	Molality, mol/kg of sodium dodecyl sulfate	Solvent: Molality, mol/kg of ribose	Electrical conductivity, S/m	uncertainty
293.15	0.0007	0.05	0.007	0.0001
293.15	0.0015	0.05	0.0132	0.0001
293.15	0.0022	0.05	0.0197	0.0001
293.15	0.0029	0.05	0.0259	0.0002
293.15	0.0037	0.05	0.0315	0.0002
293.15	0.0044	0.05	0.0367	0.0003
293.15	0.0051	0.05	0.0412	0.0003
293.15	0.0058	0.05	0.0452	0.0004
293.15	0.0073	0.05	0.0525	0.0004
293.15	0.0086	0.05	0.059	0.0005
293.15	0.0099	0.05	0.0647	0.0005
293.15	0.0113	0.05	0.0704	0.0005
293.15	0.0126	0.05	0.0754	0.0006
293.15	0.0139	0.05	0.0806	0.0006
293.15	0.0152	0.05	0.0851	0.0006
293.15	0.0164	0.05	0.0896	0.0007
293.15	0.0177	0.05	0.0942	0.0007
293.15	0.0189	0.05	0.0983	0.0007
293.15	0.0201	0.05	0.1026	0.0007
298.15	0.0007	0.05	0.0079	0.0001
298.15	0.0015	0.05	0.0145	0.0001
298.15	0.0022	0.05	0.021	0.0002
298.15	0.0029	0.05	0.0287	0.0002
298.15	0.0037	0.05	0.0354	0.0003
298.15	0.0044	0.05	0.0407	0.0003
298.15	0.0051	0.05	0.0458	0.0003
298.15	0.0058	0.05	0.0504	0.0004
298.15	0.0073	0.05	0.0584	0.0004
298.15	0.0086	0.05	0.066	0.0005
298.15	0.0099	0.05	0.0717	0.0005
298.15	0.0113	0.05	0.0777	0.0006
298.15	0.0126	0.05	0.0833	0.0006
298.15	0.0139	0.05	0.0891	0.0007
298.15	0.0152	0.05	0.094	0.0007
298.15	0.0164	0.05	0.0988	0.0007
298.15	0.0177	0.05	0.1035	0.0008
298.15	0.0189	0.05	0.1084	0.0008
298.15	0.0201	0.05	0.1129	0.0008
303.15	0.0007	0.05	0.0087	0.0001
303.15	0.0015	0.05	0.0163	0.0001
303.15	0.0022	0.05	0.0239	0.0002
303.15	0.0029	0.05	0.0313	0.0002
303.15	0.0037	0.05	0.0386	0.0003
303.15	0.0044	0.05	0.0447	0.0003
303.15	0.0051	0.05	0.0505	0.0004
303.15	0.0058	0.05	0.0557	0.0004
303.15	0.0073	0.05	0.0649	0.0005
303.15	0.0086	0.05	0.0729	0.0005
303.15	0.0099	0.05	0.0803	0.0006
303.15	0.0113	0.05	0.087	0.0006
303.15	0.0126	0.05	0.0933	0.0007
303.15	0.0139	0.05	0.0993	0.0007
303.15	0.0152	0.05	0.1047	0.0008
303.15	0.0164	0.05	0.1101	0.0008
303.15	0.0177	0.05	0.1152	0.0009
303.15	0.0189	0.05	0.1207	0.0009
303.15	0.0201	0.05	0.1259	0.001
308.15	0.0007	0.05	0.0099	0.0001
308.15	0.0015	0.05	0.0178	0.0001
308.15	0.0022	0.05	0.0254	0.0002
308.15	0.0029	0.05	0.0326	0.0002
308.15	0.0037	0.05	0.0404	0.0003
308.15	0.0044	0.05	0.0477	0.0004
308.15	0.0051	0.05	0.0542	0.0004
308.15	0.0058	0.05	0.0597	0.0004
308.15	0.0073	0.05	0.0707	0.0005
308.15	0.0086	0.05	0.0797	0.0006
308.15	0.0099	0.05	0.088	0.0007
308.15	0.0113	0.05	0.0956	0.0007
308.15	0.0126	0.05	0.1027	0.0008
308.15	0.0139	0.05	0.1095	0.0008
308.15	0.0152	0.05	0.1166	0.0009
308.15	0.0164	0.05	0.1229	0.0009
308.15	0.0177	0.05	0.1294	0.001
308.15	0.0189	0.05	0.1353	0.001
308.15	0.0201	0.05	0.1417	0.0011
313.15	0.0007	0.05	0.0104	0.0001
313.15	0.0015	0.05	0.0196	0.0002
313.15	0.0022	0.05	0.0288	0.0002
313.15	0.0029	0.05	0.038	0.0003
313.15	0.0037	0.05	0.0472	0.0004
313.15	0.0044	0.05	0.0553	0.0004
313.15	0.0051	0.05	0.0622	0.0005
313.15	0.0058	0.05	0.0689	0.0005
313.15	0.0073	0.05	0.0805	0.0006
313.15	0.0086	0.05	0.0906	0.0007
313.15	0.0099	0.05	0.0996	0.0008
313.15	0.0113	0.05	0.1086	0.0008
313.15	0.0126	0.05	0.1169	0.0009
313.15	0.0139	0.05	0.1245	0.001
313.15	0.0152	0.05	0.132	0.001
313.15	0.0164	0.05	0.1396	0.0011
313.15	0.0177	0.05	0.147	0.0011
313.15	0.0189	0.05	0.1533	0.0012
313.15	0.0201	0.05	0.1602	0.0012
318.15	0.0007	0.05	0.0132	0.0001
318.15	0.0015	0.05	0.0235	0.0002
318.15	0.0022	0.05	0.0336	0.0003
318.15	0.0029	0.05	0.0435	0.0003
318.15	0.0037	0.05	0.0532	0.0004
318.15	0.0044	0.05	0.0622	0.0005
318.15	0.0051	0.05	0.07	0.0005
318.15	0.0058	0.05	0.0772	0.0006
318.15	0.0073	0.05	0.0897	0.0007
318.15	0.0086	0.05	0.1006	0.0007
318.15	0.0099	0.05	0.1112	0.0008
318.15	0.0113	0.05	0.1217	0.0009
318.15	0.0126	0.05	0.1304	0.0009
318.15	0.0139	0.05	0.1388	0.001
318.15	0.0152	0.05	0.1473	0.0011
318.15	0.0164	0.05	0.1556	0.0011
318.15	0.0177	0.05	0.1631	0.0012
318.15	0.0189	0.05	0.1712	0.0013
318.15	0.0201	0.05	0.1793	0.0013
293.15	0.0007	0.1	0.0065	0.0001
293.15	0.0015	0.1	0.0124	0.0001
293.15	0.0022	0.1	0.0181	0.0002
293.15	0.0029	0.1	0.0241	0.0002
293.15	0.0037	0.1	0.0301	0.0003
293.15	0.0044	0.1	0.0349	0.0003
293.15	0.0051	0.1	0.0395	0.0003
293.15	0.0058	0.1	0.0437	0.0004
293.15	0.0073	0.1	0.0509	0.0004
293.15	0.0086	0.1	0.0573	0.0005
293.15	0.0099	0.1	0.0629	0.0005
293.15	0.0113	0.1	0.0682	0.0005
293.15	0.0126	0.1	0.073	0.0006
293.15	0.0139	0.1	0.078	0.0006
293.15	0.0152	0.1	0.082	0.0007
293.15	0.0164	0.1	0.0865	0.0007
293.15	0.0177	0.1	0.0909	0.0007
293.15	0.0189	0.1	0.095	0.0008
293.15	0.0201	0.1	0.0986	0.0008
298.15	0.0007	0.1	0.0079	0.0001
298.15	0.0015	0.1	0.0144	0.0001
298.15	0.0022	0.1	0.0241	0.0002
298.15	0.0029	0.1	0.0285	0.0002
298.15	0.0037	0.1	0.0348	0.0003
298.15	0.0044	0.1	0.0403	0.0003
298.15	0.0051	0.1	0.0451	0.0003
298.15	0.0058	0.1	0.0496	0.0004
298.15	0.0073	0.1	0.0576	0.0004
298.15	0.0086	0.1	0.0649	0.0005
298.15	0.0099	0.1	0.0717	0.0005
298.15	0.0113	0.1	0.0775	0.0006
298.15	0.0126	0.1	0.0833	0.0006
298.15	0.0139	0.1	0.0887	0.0007
298.15	0.0152	0.1	0.0938	0.0007
298.15	0.0164	0.1	0.0988	0.0007
298.15	0.0177	0.1	0.104	0.0008
298.15	0.0189	0.1	0.1089	0.0008
298.15	0.0201	0.1	0.1139	0.0009
303.15	0.0007	0.1	0.009	0.0001
303.15	0.0015	0.1	0.0164	0.0001
303.15	0.0022	0.1	0.024	0.0002
303.15	0.0029	0.1	0.0312	0.0002
303.15	0.0037	0.1	0.038	0.0003
303.15	0.0044	0.1	0.0441	0.0003
303.15	0.0051	0.1	0.0498	0.0004
303.15	0.0058	0.1	0.055	0.0004
303.15	0.0073	0.1	0.0638	0.0005
303.15	0.0086	0.1	0.0718	0.0005
303.15	0.0099	0.1	0.079	0.0006
303.15	0.0113	0.1	0.0858	0.0006
303.15	0.0126	0.1	0.092	0.0007
303.15	0.0139	0.1	0.098	0.0007
303.15	0.0152	0.1	0.1038	0.0008
303.15	0.0164	0.1	0.1093	0.0008
303.15	0.0177	0.1	0.1149	0.0009
303.15	0.0189	0.1	0.1203	0.0009
303.15	0.0201	0.1	0.1252	0.0009
308.15	0.0007	0.1	0.0103	0.0001
308.15	0.0015	0.1	0.0185	0.0002
308.15	0.0022	0.1	0.0264	0.0002
308.15	0.0029	0.1	0.0339	0.0003
308.15	0.0037	0.1	0.0417	0.0003
308.15	0.0044	0.1	0.0486	0.0004
308.15	0.0051	0.1	0.0549	0.0004
308.15	0.0058	0.1	0.0609	0.0005
308.15	0.0073	0.1	0.0712	0.0005
308.15	0.0086	0.1	0.0803	0.0006
308.15	0.0099	0.1	0.0884	0.0007
308.15	0.0113	0.1	0.0961	0.0007
308.15	0.0126	0.1	0.1033	0.0008
308.15	0.0139	0.1	0.1105	0.0009
308.15	0.0152	0.1	0.1175	0.0009
308.15	0.0164	0.1	0.1239	0.001
308.15	0.0177	0.1	0.1303	0.001
308.15	0.0189	0.1	0.1362	0.0011
308.15	0.0201	0.1	0.1424	0.0011
313.15	0.0007	0.1	0.012	0.0001
313.15	0.0015	0.1	0.0207	0.0002
313.15	0.0022	0.1	0.0297	0.0002
313.15	0.0029	0.1	0.0385	0.0003
313.15	0.0037	0.1	0.047	0.0004
313.15	0.0044	0.1	0.0554	0.0004
313.15	0.0051	0.1	0.0626	0.0005
313.15	0.0058	0.1	0.0689	0.0005
313.15	0.0073	0.1	0.0802	0.0006
313.15	0.0086	0.1	0.0903	0.0007
313.15	0.0099	0.1	0.1004	0.0008
313.15	0.0113	0.1	0.1084	0.0008
313.15	0.0126	0.1	0.1167	0.0009
313.15	0.0139	0.1	0.1248	0.0009
313.15	0.0152	0.1	0.1326	0.001
313.15	0.0164	0.1	0.1402	0.001
313.15	0.0177	0.1	0.1476	0.0011
313.15	0.0189	0.1	0.1546	0.0011
313.15	0.0201	0.1	0.1618	0.0012
318.15	0.0007	0.1	0.0149	0.0002
318.15	0.0015	0.1	0.0247	0.0002
318.15	0.0022	0.1	0.0347	0.0003
318.15	0.0029	0.1	0.0441	0.0004
318.15	0.0037	0.1	0.0537	0.0004
318.15	0.0044	0.1	0.0627	0.0005
318.15	0.0051	0.1	0.0699	0.0005
318.15	0.0058	0.1	0.0777	0.0006
318.15	0.0073	0.1	0.0905	0.0007
318.15	0.0086	0.1	0.1018	0.0008
318.15	0.0099	0.1	0.1118	0.0008
318.15	0.0113	0.1	0.1206	0.0009
318.15	0.0126	0.1	0.13	0.0009
318.15	0.0139	0.1	0.1384	0.001
318.15	0.0152	0.1	0.1461	0.001
318.15	0.0164	0.1	0.1547	0.0011
318.15	0.0177	0.1	0.1624	0.0011
318.15	0.0189	0.1	0.1686	0.0012
318.15	0.0201	0.1	0.1781	0.0013
293.15	0.0007	0.2	0.0071	0.0001
293.15	0.0015	0.2	0.0131	0.0001
293.15	0.0022	0.2	0.0189	0.0002
293.15	0.0029	0.2	0.0246	0.0002
293.15	0.0037	0.2	0.0302	0.0003
293.15	0.0044	0.2	0.0348	0.0003
293.15	0.0051	0.2	0.0389	0.0003
293.15	0.0058	0.2	0.0427	0.0004
293.15	0.0073	0.2	0.0496	0.0004
293.15	0.0086	0.2	0.0557	0.0005
293.15	0.0099	0.2	0.0612	0.0005
293.15	0.0113	0.2	0.0663	0.0006
293.15	0.0126	0.2	0.0708	0.0006
293.15	0.0139	0.2	0.0755	0.0006
293.15	0.0152	0.2	0.0799	0.0007
293.15	0.0164	0.2	0.0843	0.0007
293.15	0.0177	0.2	0.0884	0.0007
293.15	0.0189	0.2	0.0925	0.0008
293.15	0.0201	0.2	0.0967	0.0008
298.15	0.0007	0.2	0.0081	0.0001
298.15	0.0015	0.2	0.0148	0.0001
298.15	0.0022	0.2	0.0213	0.0002
298.15	0.0029	0.2	0.0277	0.0002
298.15	0.0037	0.2	0.0346	0.0003
298.15	0.0044	0.2	0.0398	0.0003
298.15	0.0051	0.2	0.0446	0.0003
298.15	0.0058	0.2	0.0489	0.0004
298.15	0.0073	0.2	0.0567	0.0004
298.15	0.0086	0.2	0.0637	0.0005
298.15	0.0099	0.2	0.07	0.0005
298.15	0.0113	0.2	0.0759	0.0006
298.15	0.0126	0.2	0.0814	0.0006
298.15	0.0139	0.2	0.0864	0.0007
298.15	0.0152	0.2	0.0913	0.0007
298.15	0.0164	0.2	0.0963	0.0007
298.15	0.0177	0.2	0.1009	0.0008
298.15	0.0189	0.2	0.1055	0.0008
298.15	0.0201	0.2	0.1104	0.0008
303.15	0.0007	0.2	0.0085	0.0001
303.15	0.0015	0.2	0.016	0.0001
303.15	0.0022	0.2	0.0232	0.0002
303.15	0.0029	0.2	0.0309	0.0002
303.15	0.0037	0.2	0.0377	0.0003
303.15	0.0044	0.2	0.0438	0.0003
303.15	0.0051	0.2	0.0491	0.0004
303.15	0.0058	0.2	0.0542	0.0004
303.15	0.0073	0.2	0.0629	0.0005
303.15	0.0086	0.2	0.0704	0.0005
303.15	0.0099	0.2	0.0774	0.0006
303.15	0.0113	0.2	0.0839	0.0006
303.15	0.0126	0.2	0.09	0.0007
303.15	0.0139	0.2	0.096	0.0007
303.15	0.0152	0.2	0.1014	0.0008
303.15	0.0164	0.2	0.107	0.0008
303.15	0.0177	0.2	0.1124	0.0008
303.15	0.0189	0.2	0.1177	0.0009
303.15	0.0201	0.2	0.1227	0.0009
308.15	0.0007	0.2	0.0097	0.0001
308.15	0.0015	0.2	0.018	0.0001
308.15	0.0022	0.2	0.0262	0.0002
308.15	0.0029	0.2	0.034	0.0002
308.15	0.0037	0.2	0.0415	0.0003
308.15	0.0044	0.2	0.0483	0.0004
308.15	0.0051	0.2	0.0543	0.0004
308.15	0.0058	0.2	0.0598	0.0004
308.15	0.0073	0.2	0.0695	0.0005
308.15	0.0086	0.2	0.0784	0.0006
308.15	0.0099	0.2	0.086	0.0006
308.15	0.0113	0.2	0.0935	0.0007
308.15	0.0126	0.2	0.1008	0.0008
308.15	0.0139	0.2	0.1071	0.0008
308.15	0.0152	0.2	0.1137	0.0009
308.15	0.0164	0.2	0.1199	0.0009
308.15	0.0177	0.2	0.126	0.001
308.15	0.0189	0.2	0.1321	0.001
308.15	0.0201	0.2	0.138	0.001
313.15	0.0007	0.2	0.0102	0.0002
313.15	0.0015	0.2	0.019	0.0002
313.15	0.0022	0.2	0.0279	0.0003
313.15	0.0029	0.2	0.0368	0.0004
313.15	0.0037	0.2	0.0459	0.0004
313.15	0.0044	0.2	0.0533	0.0005
313.15	0.0051	0.2	0.0601	0.0005
313.15	0.0058	0.2	0.0668	0.0006
313.15	0.0073	0.2	0.0779	0.0006
313.15	0.0086	0.2	0.0878	0.0007
313.15	0.0099	0.2	0.0969	0.0008
313.15	0.0113	0.2	0.105	0.0009
313.15	0.0126	0.2	0.113	0.0009
313.15	0.0139	0.2	0.1208	0.001
313.15	0.0152	0.2	0.1279	0.001
313.15	0.0164	0.2	0.1352	0.0011
313.15	0.0177	0.2	0.1416	0.0011
313.15	0.0189	0.2	0.1479	0.0011
313.15	0.0201	0.2	0.1548	0.0012
318.15	0.0007	0.2	0.0189	0.0004
318.15	0.0015	0.2	0.0286	0.0004
318.15	0.0022	0.2	0.0388	0.0005
318.15	0.0029	0.2	0.0478	0.0005
318.15	0.0037	0.2	0.0574	0.0006
318.15	0.0044	0.2	0.0652	0.0006
318.15	0.0051	0.2	0.0729	0.0007
318.15	0.0058	0.2	0.0796	0.0007
318.15	0.0073	0.2	0.0913	0.0008
318.15	0.0086	0.2	0.1023	0.0008
318.15	0.0099	0.2	0.1127	0.0009
318.15	0.0113	0.2	0.122	0.001
318.15	0.0126	0.2	0.1308	0.0011
318.15	0.0139	0.2	0.1384	0.0011
318.15	0.0152	0.2	0.1467	0.0012
318.15	0.0164	0.2	0.1555	0.0012
318.15	0.0177	0.2	0.1623	0.0013
318.15	0.0189	0.2	0.1682	0.0013
318.15	0.0201	0.2	0.1762	0.0014

System: D-glucose + sodium dodecyl sulfate + water; phases: Liquid
Fixed: Pressure, kPa = 101
Property: Electrical conductivity, S/m (Liquid); method: Alternating current cell with electrodes
Temperature, K	Molality, mol/kg of sodium dodecyl sulfate	Solvent: Molality, mol/kg of D-glucose	Electrical conductivity, S/m	uncertainty
293.15	0.0007	0.05	0.0063	0.0001
293.15	0.0015	0.05	0.0122	0.0001
293.15	0.0022	0.05	0.0181	0.0002
293.15	0.0029	0.05	0.0241	0.0002
293.15	0.0037	0.05	0.03	0.0002
293.15	0.0044	0.05	0.0353	0.0003
293.15	0.0051	0.05	0.0395	0.0003
293.15	0.0058	0.05	0.0438	0.0004
293.15	0.0073	0.05	0.0509	0.0004
293.15	0.0086	0.05	0.0572	0.0005
293.15	0.0099	0.05	0.0631	0.0005
293.15	0.0113	0.05	0.0684	0.0005
293.15	0.0126	0.05	0.0736	0.0006
293.15	0.0139	0.05	0.0783	0.0006
293.15	0.0152	0.05	0.0828	0.0006
293.15	0.0164	0.05	0.0871	0.0007
293.15	0.0177	0.05	0.0913	0.0007
293.15	0.0189	0.05	0.0953	0.0008
293.15	0.0201	0.05	0.0991	0.0008
298.15	0.0007	0.05	0.0075	0.0001
298.15	0.0015	0.05	0.0142	0.0001
298.15	0.0022	0.05	0.0209	0.0002
298.15	0.0029	0.05	0.0276	0.0002
298.15	0.0037	0.05	0.0341	0.0003
298.15	0.0044	0.05	0.0399	0.0003
298.15	0.0051	0.05	0.0449	0.0003
298.15	0.0058	0.05	0.0492	0.0004
298.15	0.0073	0.05	0.0573	0.0004
298.15	0.0086	0.05	0.0643	0.0005
298.15	0.0099	0.05	0.0709	0.0005
298.15	0.0113	0.05	0.0769	0.0006
298.15	0.0126	0.05	0.0824	0.0006
298.15	0.0139	0.05	0.0876	0.0007
298.15	0.0152	0.05	0.0927	0.0007
298.15	0.0164	0.05	0.0976	0.0007
298.15	0.0177	0.05	0.1026	0.0008
298.15	0.0189	0.05	0.1073	0.0008
298.15	0.0201	0.05	0.1119	0.0009
303.15	0.0007	0.05	0.0084	0.0001
303.15	0.0015	0.05	0.0148	0.0001
303.15	0.0022	0.05	0.0235	0.0002
303.15	0.0029	0.05	0.0309	0.0002
303.15	0.0037	0.05	0.0381	0.0003
303.15	0.0044	0.05	0.0444	0.0003
303.15	0.0051	0.05	0.0502	0.0004
303.15	0.0058	0.05	0.0552	0.0004
303.15	0.0073	0.05	0.0643	0.0005
303.15	0.0086	0.05	0.0722	0.0006
303.15	0.0099	0.05	0.0792	0.0006
303.15	0.0113	0.05	0.0859	0.0007
303.15	0.0126	0.05	0.0919	0.0007
303.15	0.0139	0.05	0.0979	0.0008
303.15	0.0152	0.05	0.1039	0.0008
303.15	0.0164	0.05	0.1093	0.0008
303.15	0.0177	0.05	0.115	0.0009
303.15	0.0189	0.05	0.1205	0.0009
303.15	0.0201	0.05	0.1263	0.001
308.15	0.0007	0.05	0.0098	0.0001
308.15	0.0015	0.05	0.0183	0.0001
308.15	0.0022	0.05	0.0268	0.0002
308.15	0.0029	0.05	0.0352	0.0002
308.15	0.0037	0.05	0.0431	0.0003
308.15	0.0044	0.05	0.05	0.0004
308.15	0.0051	0.05	0.0565	0.0004
308.15	0.0058	0.05	0.062	0.0005
308.15	0.0073	0.05	0.072	0.0005
308.15	0.0086	0.05	0.0814	0.0006
308.15	0.0099	0.05	0.0896	0.0007
308.15	0.0113	0.05	0.0971	0.0007
308.15	0.0126	0.05	0.1046	0.0008
308.15	0.0139	0.05	0.1111	0.0008
308.15	0.0152	0.05	0.1179	0.0009
308.15	0.0164	0.05	0.1241	0.0009
308.15	0.0177	0.05	0.1302	0.001
308.15	0.0189	0.05	0.1365	0.0011
308.15	0.0201	0.05	0.1426	0.0011
313.15	0.0007	0.05	0.0081	0.0001
313.15	0.0015	0.05	0.0175	0.0001
313.15	0.0022	0.05	0.027	0.0002
313.15	0.0029	0.05	0.036	0.0003
313.15	0.0037	0.05	0.0451	0.0003
313.15	0.0044	0.05	0.0534	0.0004
313.15	0.0051	0.05	0.0609	0.0004
313.15	0.0058	0.05	0.0677	0.0005
313.15	0.0073	0.05	0.0796	0.0006
313.15	0.0086	0.05	0.0895	0.0006
313.15	0.0099	0.05	0.0988	0.0007
313.15	0.0113	0.05	0.1072	0.0008
313.15	0.0126	0.05	0.1155	0.0008
313.15	0.0139	0.05	0.1233	0.0009
313.15	0.0152	0.05	0.1323	0.001
313.15	0.0164	0.05	0.1385	0.001
313.15	0.0177	0.05	0.1454	0.0011
313.15	0.0189	0.05	0.1533	0.0011
313.15	0.0201	0.05	0.1599	0.0012
318.15	0.0007	0.05	0.0115	0.0002
318.15	0.0015	0.05	0.0222	0.0002
318.15	0.0022	0.05	0.0324	0.0003
318.15	0.0029	0.05	0.0425	0.0004
318.15	0.0037	0.05	0.052	0.0004
318.15	0.0044	0.05	0.0611	0.0005
318.15	0.0051	0.05	0.0688	0.0005
318.15	0.0058	0.05	0.0755	0.0005
318.15	0.0073	0.05	0.0882	0.0006
318.15	0.0086	0.05	0.0994	0.0007
318.15	0.0099	0.05	0.1094	0.0008
318.15	0.0113	0.05	0.1192	0.0009
318.15	0.0126	0.05	0.128	0.0009
318.15	0.0139	0.05	0.1367	0.001
318.15	0.0152	0.05	0.1451	0.001
318.15	0.0164	0.05	0.153	0.0011
318.15	0.0177	0.05	0.1605	0.0011
318.15	0.0189	0.05	0.1683	0.0012
318.15	0.0201	0.05	0.176	0.0012
293.15	0.0007	0.1	0.0071	0.0001
293.15	0.0015	0.1	0.0131	0.0001
293.15	0.0022	0.1	0.0193	0.0002
293.15	0.0029	0.1	0.0251	0.0002
293.15	0.0037	0.1	0.0308	0.0003
293.15	0.0044	0.1	0.0355	0.0003
293.15	0.0051	0.1	0.0398	0.0003
293.15	0.0058	0.1	0.0438	0.0004
293.15	0.0073	0.1	0.0508	0.0004
293.15	0.0086	0.1	0.0569	0.0004
293.15	0.0099	0.1	0.0625	0.0005
293.15	0.0113	0.1	0.0679	0.0005
293.15	0.0126	0.1	0.0729	0.0006
293.15	0.0139	0.1	0.0772	0.0006
293.15	0.0152	0.1	0.0817	0.0006
293.15	0.0164	0.1	0.0859	0.0007
293.15	0.0177	0.1	0.0903	0.0007
293.15	0.0189	0.1	0.0942	0.0007
293.15	0.0201	0.1	0.0984	0.0008
298.15	0.0007	0.1	0.0078	0.0001
298.15	0.0015	0.1	0.0148	0.0001
298.15	0.0022	0.1	0.0214	0.0002
298.15	0.0029	0.1	0.028	0.0002
298.15	0.0037	0.1	0.0346	0.0003
298.15	0.0044	0.1	0.0398	0.0003
298.15	0.0051	0.1	0.0447	0.0003
298.15	0.0058	0.1	0.049	0.0004
298.15	0.0073	0.1	0.0567	0.0004
298.15	0.0086	0.1	0.0637	0.0005
298.15	0.0099	0.1	0.0699	0.0005
298.15	0.0113	0.1	0.0756	0.0006
298.15	0.0126	0.1	0.0813	0.0006
298.15	0.0139	0.1	0.0863	0.0007
298.15	0.0152	0.1	0.0914	0.0007
298.15	0.0164	0.1	0.0961	0.0007
298.15	0.0177	0.1	0.1011	0.0008
298.15	0.0189	0.1	0.1059	0.0008
298.15	0.0201	0.1	0.1105	0.0009
303.15	0.0007	0.1	0.0088	0.0001
303.15	0.0015	0.1	0.0165	0.0001
303.15	0.0022	0.1	0.0238	0.0002
303.15	0.0029	0.1	0.0315	0.0002
303.15	0.0037	0.1	0.0388	0.0003
303.15	0.0044	0.1	0.0451	0.0003
303.15	0.0051	0.1	0.0504	0.0004
303.15	0.0058	0.1	0.0553	0.0004
303.15	0.0073	0.1	0.0643	0.0005
303.15	0.0086	0.1	0.072	0.0005
303.15	0.0099	0.1	0.0794	0.0006
303.15	0.0113	0.1	0.0859	0.0007
303.15	0.0126	0.1	0.0919	0.0007
303.15	0.0139	0.1	0.0981	0.0008
303.15	0.0152	0.1	0.1038	0.0008
303.15	0.0164	0.1	0.1096	0.0008
303.15	0.0177	0.1	0.1148	0.0009
303.15	0.0189	0.1	0.1202	0.0009
303.15	0.0201	0.1	0.1254	0.001
308.15	0.0007	0.1	0.0095	0.0001
308.15	0.0015	0.1	0.0178	0.0001
308.15	0.0022	0.1	0.0264	0.0002
308.15	0.0029	0.1	0.0348	0.0003
308.15	0.0037	0.1	0.0427	0.0003
308.15	0.0044	0.1	0.0494	0.0004
308.15	0.0051	0.1	0.0557	0.0004
308.15	0.0058	0.1	0.0617	0.0005
308.15	0.0073	0.1	0.0715	0.0005
308.15	0.0086	0.1	0.0802	0.0006
308.15	0.0099	0.1	0.0882	0.0007
308.15	0.0113	0.1	0.0956	0.0007
308.15	0.0126	0.1	0.1026	0.0008
308.15	0.0139	0.1	0.1094	0.0008
308.15	0.0152	0.1	0.1162	0.0009
308.15	0.0164	0.1	0.1226	0.0009
308.15	0.0177	0.1	0.129	0.001
308.15	0.0189	0.1	0.1343	0.001
308.15	0.0201	0.1	0.1409	0.0011
313.15	0.0007	0.1	0.011	0.0001
313.15	0.0015	0.1	0.0202	0.0001
313.15	0.0022	0.1	0.0297	0.0002
313.15	0.0029	0.1	0.039	0.0003
313.15	0.0037	0.1	0.0477	0.0003
313.15	0.0044	0.1	0.0555	0.0004
313.15	0.0051	0.1	0.0622	0.0004
313.15	0.0058	0.1	0.0685	0.0005
313.15	0.0073	0.1	0.0799	0.0006
313.15	0.0086	0.1	0.0897	0.0006
313.15	0.0099	0.1	0.0988	0.0007
313.15	0.0113	0.1	0.1077	0.0008
313.15	0.0126	0.1	0.1158	0.0008
313.15	0.0139	0.1	0.1234	0.0009
313.15	0.0152	0.1	0.1308	0.0009
313.15	0.0164	0.1	0.1384	0.001
313.15	0.0177	0.1	0.145	0.001
313.15	0.0189	0.1	0.1523	0.0011
313.15	0.0201	0.1	0.1591	0.0012
318.15	0.0007	0.1	0.0111	0.0001
318.15	0.0015	0.1	0.0211	0.0002
318.15	0.0022	0.1	0.0315	0.0002
318.15	0.0029	0.1	0.0416	0.0003
318.15	0.0037	0.1	0.051	0.0003
318.15	0.0044	0.1	0.0598	0.0004
318.15	0.0051	0.1	0.0677	0.0005
318.15	0.0058	0.1	0.074	0.0005
318.15	0.0073	0.1	0.0864	0.0006
318.15	0.0086	0.1	0.0977	0.0007
318.15	0.0099	0.1	0.1084	0.0007
318.15	0.0113	0.1	0.1171	0.0008
318.15	0.0126	0.1	0.1265	0.0009
318.15	0.0139	0.1	0.1344	0.0009
318.15	0.0152	0.1	0.1426	0.001
318.15	0.0164	0.1	0.1501	0.001
318.15	0.0177	0.1	0.1578	0.0011
318.15	0.0189	0.1	0.1663	0.0011
318.15	0.0201	0.1	0.173	0.0012
293.15	0.0007	0.2	0.0068	0.0001
293.15	0.0015	0.2	0.0125	0.0001
293.15	0.0022	0.2	0.0182	0.0002
293.15	0.0029	0.2	0.024	0.0002
293.15	0.0037	0.2	0.0298	0.0002
293.15	0.0044	0.2	0.0342	0.0003
293.15	0.0051	0.2	0.0382	0.0003
293.15	0.0058	0.2	0.042	0.0003
293.15	0.0073	0.2	0.0487	0.0004
293.15	0.0086	0.2	0.0547	0.0004
293.15	0.0099	0.2	0.0602	0.0005
293.15	0.0113	0.2	0.0651	0.0005
293.15	0.0126	0.2	0.0696	0.0005
293.15	0.0139	0.2	0.074	0.0006
293.15	0.0152	0.2	0.0784	0.0006
293.15	0.0164	0.2	0.0821	0.0006
293.15	0.0177	0.2	0.0863	0.0007
293.15	0.0189	0.2	0.0902	0.0007
293.15	0.0201	0.2	0.0942	0.0007
298.15	0.0007	0.2	0.0078	0.0001
298.15	0.0015	0.2	0.0143	0.0001
298.15	0.0022	0.2	0.0208	0.0002
298.15	0.0029	0.2	0.0271	0.0002
298.15	0.0037	0.2	0.0331	0.0003
298.15	0.0044	0.2	0.0382	0.0003
298.15	0.0051	0.2	0.0428	0.0003
298.15	0.0058	0.2	0.047	0.0004
298.15	0.0073	0.2	0.0544	0.0004
298.15	0.0086	0.2	0.0611	0.0005
298.15	0.0099	0.2	0.0671	0.0005
298.15	0.0113	0.2	0.0727	0.0006
298.15	0.0126	0.2	0.0781	0.0006
298.15	0.0139	0.2	0.083	0.0006
298.15	0.0152	0.2	0.0878	0.0007
298.15	0.0164	0.2	0.0926	0.0007
298.15	0.0177	0.2	0.0972	0.0008
298.15	0.0189	0.2	0.1017	0.0008
298.15	0.0201	0.2	0.1062	0.0008
303.15	0.0007	0.2	0.0084	0.0001
303.15	0.0015	0.2	0.0161	0.0001
303.15	0.0022	0.2	0.0235	0.0002
303.15	0.0029	0.2	0.031	0.0002
303.15	0.0037	0.2	0.0375	0.0003
303.15	0.0044	0.2	0.0432	0.0003
303.15	0.0051	0.2	0.0486	0.0004
303.15	0.0058	0.2	0.0553	0.0004
303.15	0.0073	0.2	0.0619	0.0005
303.15	0.0086	0.2	0.0691	0.0005
303.15	0.0099	0.2	0.0761	0.0006
303.15	0.0113	0.2	0.0822	0.0006
303.15	0.0126	0.2	0.0884	0.0007
303.15	0.0139	0.2	0.0941	0.0007
303.15	0.0152	0.2	0.0995	0.0008
303.15	0.0164	0.2	0.105	0.0008
303.15	0.0177	0.2	0.1099	0.0008
303.15	0.0189	0.2	0.1153	0.0009
303.15	0.0201	0.2	0.1203	0.0009
308.15	0.0007	0.2	0.0091	0.0001
308.15	0.0015	0.2	0.0173	0.0001
308.15	0.0022	0.2	0.0252	0.0002
308.15	0.0029	0.2	0.0331	0.0002
308.15	0.0037	0.2	0.0409	0.0003
308.15	0.0044	0.2	0.0474	0.0003
308.15	0.0051	0.2	0.0533	0.0004
308.15	0.0058	0.2	0.0588	0.0004
308.15	0.0073	0.2	0.0685	0.0005
308.15	0.0086	0.2	0.0771	0.0006
308.15	0.0099	0.2	0.085	0.0006
308.15	0.0113	0.2	0.092	0.0007
308.15	0.0126	0.2	0.0988	0.0007
308.15	0.0139	0.2	0.1052	0.0008
308.15	0.0152	0.2	0.1115	0.0008
308.15	0.0164	0.2	0.1176	0.0009
308.15	0.0177	0.2	0.1238	0.0009
308.15	0.0189	0.2	0.1293	0.001
308.15	0.0201	0.2	0.1351	0.001
313.15	0.0007	0.2	0.01	0.0001
313.15	0.0015	0.2	0.0195	0.0002
313.15	0.0022	0.2	0.0282	0.0002
313.15	0.0029	0.2	0.0367	0.0003
313.15	0.0037	0.2	0.0451	0.0003
313.15	0.0044	0.2	0.0525	0.0004
313.15	0.0051	0.2	0.0588	0.0004
313.15	0.0058	0.2	0.0648	0.0005
313.15	0.0073	0.2	0.0754	0.0006
313.15	0.0086	0.2	0.0849	0.0006
313.15	0.0099	0.2	0.0941	0.0007
313.15	0.0113	0.2	0.1018	0.0007
313.15	0.0126	0.2	0.1092	0.0008
313.15	0.0139	0.2	0.117	0.0009
313.15	0.0152	0.2	0.1241	0.0009
313.15	0.0164	0.2	0.1308	0.001
313.15	0.0177	0.2	0.1374	0.001
313.15	0.0189	0.2	0.144	0.0011
313.15	0.0201	0.2	0.1504	0.0011
318.15	0.0007	0.2	0.0113	0.0001
318.15	0.0015	0.2	0.0217	0.0002
318.15	0.0022	0.2	0.0315	0.0002
318.15	0.0029	0.2	0.0406	0.0003
318.15	0.0037	0.2	0.0501	0.0004
318.15	0.0044	0.2	0.0574	0.0004
318.15	0.0051	0.2	0.0658	0.0005
318.15	0.0058	0.2	0.0727	0.0005
318.15	0.0073	0.2	0.0843	0.0006
318.15	0.0086	0.2	0.0946	0.0007
318.15	0.0099	0.2	0.1044	0.0007
318.15	0.0113	0.2	0.1135	0.0008
318.15	0.0126	0.2	0.1223	0.0009
318.15	0.0139	0.2	0.1312	0.001
318.15	0.0152	0.2	0.1392	0.001
318.15	0.0164	0.2	0.1459	0.0011
318.15	0.0177	0.2	0.1532	0.0011
318.15	0.0189	0.2	0.1598	0.0012
318.15	0.0201	0.2	0.1674	0.0012

System: D-sucrose + sodium dodecyl sulfate + water; phases: Liquid
Fixed: Pressure, kPa = 101
Property: Electrical conductivity, S/m (Liquid); method: Alternating current cell with electrodes
Temperature, K	Molality, mol/kg of sodium dodecyl sulfate	Solvent: Molality, mol/kg of D-sucrose	Electrical conductivity, S/m	uncertainty
293.15	0.0007	0.05	0.0071	0.0001
293.15	0.0015	0.05	0.0127	0.0001
293.15	0.0022	0.05	0.0189	0.0002
293.15	0.0029	0.05	0.0251	0.0002
293.15	0.0037	0.05	0.0308	0.0002
293.15	0.0044	0.05	0.0357	0.0003
293.15	0.0051	0.05	0.0403	0.0003
293.15	0.0058	0.05	0.0441	0.0003
293.15	0.0073	0.05	0.0512	0.0004
293.15	0.0086	0.05	0.0574	0.0004
293.15	0.0099	0.05	0.0631	0.0005
293.15	0.0113	0.05	0.0683	0.0005
293.15	0.0126	0.05	0.0734	0.0006
293.15	0.0139	0.05	0.0779	0.0006
293.15	0.0152	0.05	0.0825	0.0006
293.15	0.0164	0.05	0.0868	0.0007
293.15	0.0177	0.05	0.0906	0.0007
293.15	0.0189	0.05	0.0948	0.0007
293.15	0.0201	0.05	0.0991	0.0007
298.15	0.0007	0.05	0.0079	0.0001
298.15	0.0015	0.05	0.0146	0.0001
298.15	0.0022	0.05	0.0213	0.0002
298.15	0.0029	0.05	0.0279	0.0002
298.15	0.0037	0.05	0.0343	0.0003
298.15	0.0044	0.05	0.0398	0.0003
298.15	0.0051	0.05	0.0446	0.0003
298.15	0.0058	0.05	0.049	0.0004
298.15	0.0073	0.05	0.0569	0.0004
298.15	0.0086	0.05	0.0638	0.0005
298.15	0.0099	0.05	0.07	0.0005
298.15	0.0113	0.05	0.0759	0.0006
298.15	0.0126	0.05	0.0816	0.0006
298.15	0.0139	0.05	0.0867	0.0007
298.15	0.0152	0.05	0.0915	0.0007
298.15	0.0164	0.05	0.0966	0.0007
298.15	0.0177	0.05	0.1012	0.0008
298.15	0.0189	0.05	0.1058	0.0008
298.15	0.0201	0.05	0.1103	0.0008
303.15	0.0007	0.05	0.0087	0.0001
303.15	0.0015	0.05	0.0162	0.0001
303.15	0.0022	0.05	0.024	0.0002
303.15	0.0029	0.05	0.0316	0.0002
303.15	0.0037	0.05	0.0387	0.0003
303.15	0.0044	0.05	0.0446	0.0003
303.15	0.0051	0.05	0.0501	0.0004
303.15	0.0058	0.05	0.055	0.0004
303.15	0.0073	0.05	0.0638	0.0005
303.15	0.0086	0.05	0.072	0.0006
303.15	0.0099	0.05	0.0791	0.0006
303.15	0.0113	0.05	0.086	0.0007
303.15	0.0126	0.05	0.0919	0.0007
303.15	0.0139	0.05	0.0979	0.0008
303.15	0.0152	0.05	0.1036	0.0008
303.15	0.0164	0.05	0.1092	0.0008
303.15	0.0177	0.05	0.1147	0.0009
303.15	0.0189	0.05	0.1197	0.0009
303.15	0.0201	0.05	0.125	0.001
308.15	0.0007	0.05	0.0096	0.0001
308.15	0.0015	0.05	0.018	0.0001
308.15	0.0022	0.05	0.0266	0.0002
308.15	0.0029	0.05	0.0347	0.0003
308.15	0.0037	0.05	0.0425	0.0003
308.15	0.0044	0.05	0.0495	0.0004
308.15	0.0051	0.05	0.0558	0.0004
308.15	0.0058	0.05	0.0616	0.0005
308.15	0.0073	0.05	0.0714	0.0005
308.15	0.0086	0.05	0.0806	0.0006
308.15	0.0099	0.05	0.0888	0.0007
308.15	0.0113	0.05	0.0962	0.0007
308.15	0.0126	0.05	0.1033	0.0008
308.15	0.0139	0.05	0.1101	0.0008
308.15	0.0152	0.05	0.1168	0.0009
308.15	0.0164	0.05	0.1225	0.0009
308.15	0.0177	0.05	0.1284	0.001
308.15	0.0189	0.05	0.1348	0.001
308.15	0.0201	0.05	0.1404	0.0011
313.15	0.0007	0.05	0.0106	0.0001
313.15	0.0015	0.05	0.0198	0.0001
313.15	0.0022	0.05	0.0292	0.0002
313.15	0.0029	0.05	0.0383	0.0003
313.15	0.0037	0.05	0.0469	0.0003
313.15	0.0044	0.05	0.0549	0.0004
313.15	0.0051	0.05	0.0619	0.0004
313.15	0.0058	0.05	0.0679	0.0005
313.15	0.0073	0.05	0.0791	0.0006
313.15	0.0086	0.05	0.0897	0.0006
313.15	0.0099	0.05	0.0985	0.0007
313.15	0.0113	0.05	0.1071	0.0008
313.15	0.0126	0.05	0.115	0.0008
313.15	0.0139	0.05	0.123	0.0009
313.15	0.0152	0.05	0.1304	0.0009
313.15	0.0164	0.05	0.1374	0.001
313.15	0.0177	0.05	0.1444	0.0011
313.15	0.0189	0.05	0.1509	0.0011
313.15	0.0201	0.05	0.1578	0.0011
318.15	0.0007	0.05	0.0113	0.0001
318.15	0.0015	0.05	0.0213	0.0002
318.15	0.0022	0.05	0.0312	0.0002
318.15	0.0029	0.05	0.0412	0.0003
318.15	0.0037	0.05	0.0508	0.0003
318.15	0.0044	0.05	0.0589	0.0004
318.15	0.0051	0.05	0.0672	0.0005
318.15	0.0058	0.05	0.0743	0.0005
318.15	0.0073	0.05	0.0863	0.0006
318.15	0.0086	0.05	0.0982	0.0007
318.15	0.0099	0.05	0.1077	0.0007
318.15	0.0113	0.05	0.1173	0.0008
318.15	0.0126	0.05	0.1264	0.0009
318.15	0.0139	0.05	0.1346	0.0009
318.15	0.0152	0.05	0.1422	0.001
318.15	0.0164	0.05	0.1506	0.001
318.15	0.0177	0.05	0.1584	0.0011
318.15	0.0189	0.05	0.1659	0.0012
318.15	0.0201	0.05	0.1728	0.0012
293.15	0.0007	0.1	0.0068	0.0001
293.15	0.0015	0.1	0.0125	0.0001
293.15	0.0022	0.1	0.0183	0.0001
293.15	0.0029	0.1	0.0239	0.0002
293.15	0.0037	0.1	0.0293	0.0002
293.15	0.0044	0.1	0.034	0.0003
293.15	0.0051	0.1	0.0382	0.0003
293.15	0.0058	0.1	0.0416	0.0003
293.15	0.0073	0.1	0.0482	0.0004
293.15	0.0086	0.1	0.0543	0.0004
293.15	0.0099	0.1	0.0597	0.0005
293.15	0.0113	0.1	0.0645	0.0005
293.15	0.0126	0.1	0.0691	0.0005
293.15	0.0139	0.1	0.0735	0.0006
293.15	0.0152	0.1	0.0775	0.0006
293.15	0.0164	0.1	0.0816	0.0006
293.15	0.0177	0.1	0.0855	0.0007
293.15	0.0189	0.1	0.0893	0.0007
293.15	0.0201	0.1	0.0933	0.0007
298.15	0.0007	0.1	0.0073	0.0001
298.15	0.0015	0.1	0.0137	0.0001
298.15	0.0022	0.1	0.0201	0.0002
298.15	0.0029	0.1	0.0264	0.0002
298.15	0.0037	0.1	0.0328	0.0002
298.15	0.0044	0.1	0.038	0.0003
298.15	0.0051	0.1	0.0425	0.0003
298.15	0.0058	0.1	0.0469	0.0004
298.15	0.0073	0.1	0.0545	0.0004
298.15	0.0086	0.1	0.0608	0.0005
298.15	0.0099	0.1	0.067	0.0005
298.15	0.0113	0.1	0.0726	0.0006
298.15	0.0126	0.1	0.0778	0.0006
298.15	0.0139	0.1	0.083	0.0006
298.15	0.0152	0.1	0.0875	0.0007
298.15	0.0164	0.1	0.0923	0.0007
298.15	0.0177	0.1	0.0965	0.0007
298.15	0.0189	0.1	0.1011	0.0008
298.15	0.0201	0.1	0.1054	0.0008
303.15	0.0007	0.1	0.0083	0.0001
303.15	0.0015	0.1	0.0156	0.0001
303.15	0.0022	0.1	0.0226	0.0002
303.15	0.0029	0.1	0.0296	0.0002
303.15	0.0037	0.1	0.0362	0.0003
303.15	0.0044	0.1	0.0421	0.0003
303.15	0.0051	0.1	0.0476	0.0004
303.15	0.0058	0.1	0.0523	0.0004
303.15	0.0073	0.1	0.0608	0.0005
303.15	0.0086	0.1	0.0681	0.0005
303.15	0.0099	0.1	0.0752	0.0006
303.15	0.0113	0.1	0.0815	0.0006
303.15	0.0126	0.1	0.0875	0.0007
303.15	0.0139	0.1	0.0931	0.0007
303.15	0.0152	0.1	0.0986	0.0008
303.15	0.0164	0.1	0.1038	0.0008
303.15	0.0177	0.1	0.1089	0.0009
303.15	0.0189	0.1	0.1139	0.0009
303.15	0.0201	0.1	0.1189	0.0009
308.15	0.0007	0.1	0.0089	0.0001
308.15	0.0015	0.1	0.0169	0.0001
308.15	0.0022	0.1	0.0249	0.0002
308.15	0.0029	0.1	0.0331	0.0002
308.15	0.0037	0.1	0.0402	0.0003
308.15	0.0044	0.1	0.0472	0.0004
308.15	0.0051	0.1	0.0534	0.0004
308.15	0.0058	0.1	0.0586	0.0004
308.15	0.0073	0.1	0.0677	0.0005
308.15	0.0086	0.1	0.0768	0.0006
308.15	0.0099	0.1	0.0847	0.0006
308.15	0.0113	0.1	0.0921	0.0007
308.15	0.0126	0.1	0.0987	0.0008
308.15	0.0139	0.1	0.1054	0.0008
308.15	0.0152	0.1	0.1118	0.0009
308.15	0.0164	0.1	0.1176	0.0009
308.15	0.0177	0.1	0.1239	0.001
308.15	0.0189	0.1	0.1294	0.001
308.15	0.0201	0.1	0.1353	0.0011
313.15	0.0007	0.1	0.0106	0.0001
313.15	0.0015	0.1	0.0192	0.0002
313.15	0.0022	0.1	0.0279	0.0002
313.15	0.0029	0.1	0.0366	0.0003
313.15	0.0037	0.1	0.0451	0.0004
313.15	0.0044	0.1	0.0528	0.0004
313.15	0.0051	0.1	0.0593	0.0005
313.15	0.0058	0.1	0.0656	0.0005
313.15	0.0073	0.1	0.0765	0.0006
313.15	0.0086	0.1	0.0861	0.0007
313.15	0.0099	0.1	0.0948	0.0007
313.15	0.0113	0.1	0.1031	0.0008
313.15	0.0126	0.1	0.1105	0.0008
313.15	0.0139	0.1	0.1182	0.0009
313.15	0.0152	0.1	0.1275	0.001
313.15	0.0164	0.1	0.1329	0.001
313.15	0.0177	0.1	0.1407	0.0011
313.15	0.0189	0.1	0.147	0.0012
313.15	0.0201	0.1	0.1536	0.0012
318.15	0.0007	0.1	0.0121	0.0001
318.15	0.0015	0.1	0.0216	0.0002
318.15	0.0022	0.1	0.0317	0.0003
318.15	0.0029	0.1	0.0418	0.0003
318.15	0.0037	0.1	0.0512	0.0004
318.15	0.0044	0.1	0.0597	0.0005
318.15	0.0051	0.1	0.0677	0.0005
318.15	0.0058	0.1	0.0747	0.0006
318.15	0.0073	0.1	0.0869	0.0007
318.15	0.0086	0.1	0.0966	0.0008
318.15	0.0099	0.1	0.1069	0.0008
318.15	0.0113	0.1	0.1162	0.0009
318.15	0.0126	0.1	0.1251	0.001
318.15	0.0139	0.1	0.1341	0.0011
318.15	0.0152	0.1	0.1424	0.0011
318.15	0.0164	0.1	0.1508	0.0012
318.15	0.0177	0.1	0.1589	0.0012
318.15	0.0189	0.1	0.1667	0.0013
318.15	0.0201	0.1	0.1745	0.0014
293.15	0.0007	0.2	0.0071	0.0001
293.15	0.0015	0.2	0.0122	0.0001
293.15	0.0022	0.2	0.0176	0.0001
293.15	0.0029	0.2	0.0229	0.0002
293.15	0.0037	0.2	0.0281	0.0002
293.15	0.0044	0.2	0.0324	0.0003
293.15	0.0051	0.2	0.0362	0.0003
293.15	0.0058	0.2	0.0397	0.0003
293.15	0.0073	0.2	0.0461	0.0004
293.15	0.0086	0.2	0.0518	0.0004
293.15	0.0099	0.2	0.0568	0.0005
293.15	0.0113	0.2	0.0612	0.0005
293.15	0.0126	0.2	0.0655	0.0005
293.15	0.0139	0.2	0.0696	0.0006
293.15	0.0152	0.2	0.0738	0.0006
293.15	0.0164	0.2	0.0778	0.0006
293.15	0.0177	0.2	0.0814	0.0006
293.15	0.0189	0.2	0.085	0.0007
293.15	0.0201	0.2	0.0883	0.0007
298.15	0.0007	0.2	0.0074	0.0001
298.15	0.0015	0.2	0.0132	0.0001
298.15	0.0022	0.2	0.0196	0.0002
298.15	0.0029	0.2	0.0256	0.0002
298.15	0.0037	0.2	0.0313	0.0002
298.15	0.0044	0.2	0.0362	0.0003
298.15	0.0051	0.2	0.0405	0.0003
298.15	0.0058	0.2	0.0446	0.0003
298.15	0.0073	0.2	0.0517	0.0004
298.15	0.0086	0.2	0.058	0.0004
298.15	0.0099	0.2	0.0638	0.0005
298.15	0.0113	0.2	0.0689	0.0005
298.15	0.0126	0.2	0.074	0.0006
298.15	0.0139	0.2	0.0787	0.0006
298.15	0.0152	0.2	0.0833	0.0006
298.15	0.0164	0.2	0.0877	0.0007
298.15	0.0177	0.2	0.0921	0.0007
298.15	0.0189	0.2	0.0963	0.0007
298.15	0.0201	0.2	0.1006	0.0008
303.15	0.0007	0.2	0.0094	0.0001
303.15	0.0015	0.2	0.0158	0.0001
303.15	0.0022	0.2	0.0226	0.0002
303.15	0.0029	0.2	0.029	0.0002
303.15	0.0037	0.2	0.0354	0.0003
303.15	0.0044	0.2	0.0409	0.0003
303.15	0.0051	0.2	0.0454	0.0003
303.15	0.0058	0.2	0.0501	0.0004
303.15	0.0073	0.2	0.0582	0.0004
303.15	0.0086	0.2	0.0654	0.0005
303.15	0.0099	0.2	0.0719	0.0005
303.15	0.0113	0.2	0.0777	0.0006
303.15	0.0126	0.2	0.083	0.0006
303.15	0.0139	0.2	0.0882	0.0007
303.15	0.0152	0.2	0.0937	0.0007
303.15	0.0164	0.2	0.0987	0.0007
303.15	0.0177	0.2	0.1035	0.0008
303.15	0.0189	0.2	0.1086	0.0008
303.15	0.0201	0.2	0.113	0.0009
308.15	0.0007	0.2	0.0093	0.0001
308.15	0.0015	0.2	0.0163	0.0001
308.15	0.0022	0.2	0.0238	0.0002
308.15	0.0029	0.2	0.0311	0.0002
308.15	0.0037	0.2	0.0386	0.0003
308.15	0.0044	0.2	0.0446	0.0003
308.15	0.0051	0.2	0.0502	0.0004
308.15	0.0058	0.2	0.0554	0.0004
308.15	0.0073	0.2	0.0644	0.0005
308.15	0.0086	0.2	0.0726	0.0005
308.15	0.0099	0.2	0.0799	0.0006
308.15	0.0113	0.2	0.0866	0.0007
308.15	0.0126	0.2	0.0927	0.0007
308.15	0.0139	0.2	0.0986	0.0008
308.15	0.0152	0.2	0.1046	0.0008
308.15	0.0164	0.2	0.1103	0.0008
308.15	0.0177	0.2	0.1161	0.0009
308.15	0.0189	0.2	0.1213	0.0009
308.15	0.0201	0.2	0.1268	0.001
313.15	0.0007	0.2	0.0111	0.0001
313.15	0.0015	0.2	0.0192	0.0002
313.15	0.0022	0.2	0.0275	0.0003
313.15	0.0029	0.2	0.0358	0.0003
313.15	0.0037	0.2	0.0433	0.0004
313.15	0.0044	0.2	0.0507	0.0005
313.15	0.0051	0.2	0.0566	0.0005
313.15	0.0058	0.2	0.0623	0.0006
313.15	0.0073	0.2	0.0726	0.0007
313.15	0.0086	0.2	0.0817	0.0008
313.15	0.0099	0.2	0.09	0.0009
313.15	0.0113	0.2	0.0972	0.001
313.15	0.0126	0.2	0.1042	0.0011
313.15	0.0139	0.2	0.1114	0.0012
313.15	0.0152	0.2	0.1184	0.0012
313.15	0.0164	0.2	0.1241	0.0013
313.15	0.0177	0.2	0.1306	0.0014
313.15	0.0189	0.2	0.1368	0.0015
313.15	0.0201	0.2	0.1431	0.0015
318.15	0.0007	0.2	0.0133	0.0001
318.15	0.0015	0.2	0.0234	0.0002
318.15	0.0022	0.2	0.0336	0.0003
318.15	0.0029	0.2	0.0435	0.0004
318.15	0.0037	0.2	0.053	0.0005
318.15	0.0044	0.2	0.0625	0.0006
318.15	0.0051	0.2	0.0706	0.0007
318.15	0.0058	0.2	0.0783	0.0008
318.15	0.0073	0.2	0.0921	0.001
318.15	0.0086	0.2	0.1042	0.0011
318.15	0.0099	0.2	0.115	0.0012
318.15	0.0113	0.2	0.1256	0.0014
318.15	0.0126	0.2	0.1359	0.0015
318.15	0.0139	0.2	0.1454	0.0016
318.15	0.0152	0.2	0.154	0.0017
318.15	0.0164	0.2	0.1626	0.0018
318.15	0.0177	0.2	0.1713	0.0019
318.15	0.0189	0.2	0.1811	0.0021
318.15	0.0201	0.2	0.1896	0.0022

System: sodium dodecyl sulfate + D-raffinose + water; phases: Liquid
Fixed: Pressure, kPa = 101
Property: Electrical conductivity, S/m (Liquid); method: Alternating current cell with electrodes
Temperature, K	Molality, mol/kg of sodium dodecyl sulfate	Solvent: Molality, mol/kg of D-raffinose	Electrical conductivity, S/m	uncertainty
293.15	0.0007	0.05	0.0063	0.0001
293.15	0.0015	0.05	0.0123	0.0001
293.15	0.0022	0.05	0.0183	0.0002
293.15	0.0029	0.05	0.0243	0.0002
293.15	0.0037	0.05	0.0302	0.0002
293.15	0.0044	0.05	0.0349	0.0003
293.15	0.0051	0.05	0.0392	0.0003
293.15	0.0058	0.05	0.0429	0.0003
293.15	0.0073	0.05	0.05	0.0004
293.15	0.0086	0.05	0.0563	0.0004
293.15	0.0099	0.05	0.062	0.0005
293.15	0.0113	0.05	0.067	0.0005
293.15	0.0126	0.05	0.0719	0.0006
293.15	0.0139	0.05	0.0764	0.0006
293.15	0.0152	0.05	0.0811	0.0006
293.15	0.0164	0.05	0.0853	0.0007
293.15	0.0177	0.05	0.0896	0.0007
293.15	0.0189	0.05	0.0935	0.0007
293.15	0.0201	0.05	0.0976	0.0008
298.15	0.0007	0.05	0.0074	0.0001
298.15	0.0015	0.05	0.0138	0.0001
298.15	0.0022	0.05	0.0205	0.0002
298.15	0.0029	0.05	0.0269	0.0002
298.15	0.0037	0.05	0.0333	0.0002
298.15	0.0044	0.05	0.0389	0.0003
298.15	0.0051	0.05	0.0436	0.0003
298.15	0.0058	0.05	0.0481	0.0004
298.15	0.0073	0.05	0.0559	0.0004
298.15	0.0086	0.05	0.0629	0.0005
298.15	0.0099	0.05	0.069	0.0005
298.15	0.0113	0.05	0.0748	0.0006
298.15	0.0126	0.05	0.0804	0.0006
298.15	0.0139	0.05	0.086	0.0007
298.15	0.0152	0.05	0.0908	0.0007
298.15	0.0164	0.05	0.096	0.0007
298.15	0.0177	0.05	0.1006	0.0008
298.15	0.0189	0.05	0.1054	0.0008
298.15	0.0201	0.05	0.11	0.0008
303.15	0.0007	0.05	0.0081	0.0001
303.15	0.0015	0.05	0.0154	0.0001
303.15	0.0022	0.05	0.0227	0.0002
303.15	0.0029	0.05	0.0302	0.0002
303.15	0.0037	0.05	0.037	0.0003
303.15	0.0044	0.05	0.0432	0.0003
303.15	0.0051	0.05	0.0488	0.0004
303.15	0.0058	0.05	0.0537	0.0004
303.15	0.0073	0.05	0.0631	0.0005
303.15	0.0086	0.05	0.0708	0.0005
303.15	0.0099	0.05	0.0778	0.0006
303.15	0.0113	0.05	0.0844	0.0006
303.15	0.0126	0.05	0.0907	0.0007
303.15	0.0139	0.05	0.0967	0.0007
303.15	0.0152	0.05	0.1025	0.0008
303.15	0.0164	0.05	0.1078	0.0008
303.15	0.0177	0.05	0.1136	0.0009
303.15	0.0189	0.05	0.1189	0.0009
303.15	0.0201	0.05	0.124	0.0009
308.15	0.0007	0.05	0.0089	0.0001
308.15	0.0015	0.05	0.017	0.0001
308.15	0.0022	0.05	0.0252	0.0002
308.15	0.0029	0.05	0.0334	0.0003
308.15	0.0037	0.05	0.0414	0.0003
308.15	0.0044	0.05	0.0483	0.0004
308.15	0.0051	0.05	0.0544	0.0004
308.15	0.0058	0.05	0.0601	0.0005
308.15	0.0073	0.05	0.0698	0.0005
308.15	0.0086	0.05	0.0789	0.0006
308.15	0.0099	0.05	0.0867	0.0007
308.15	0.0113	0.05	0.0942	0.0007
308.15	0.0126	0.05	0.1013	0.0008
308.15	0.0139	0.05	0.108	0.0008
308.15	0.0152	0.05	0.1145	0.0009
308.15	0.0164	0.05	0.1208	0.0009
308.15	0.0177	0.05	0.127	0.001
308.15	0.0189	0.05	0.1332	0.001
308.15	0.0201	0.05	0.1392	0.0011
313.15	0.0007	0.05	0.0102	0.0001
313.15	0.0015	0.05	0.0194	0.0002
313.15	0.0022	0.05	0.0286	0.0002
313.15	0.0029	0.05	0.0376	0.0003
313.15	0.0037	0.05	0.0463	0.0003
313.15	0.0044	0.05	0.0545	0.0004
313.15	0.0051	0.05	0.0613	0.0004
313.15	0.0058	0.05	0.0677	0.0005
313.15	0.0073	0.05	0.0788	0.0006
313.15	0.0086	0.05	0.0892	0.0006
313.15	0.0099	0.05	0.0993	0.0007
313.15	0.0113	0.05	0.107	0.0008
313.15	0.0126	0.05	0.1156	0.0008
313.15	0.0139	0.05	0.1233	0.0009
313.15	0.0152	0.05	0.1307	0.001
313.15	0.0164	0.05	0.1383	0.001
313.15	0.0177	0.05	0.1455	0.0011
313.15	0.0189	0.05	0.1528	0.0011
313.15	0.0201	0.05	0.16	0.0012
318.15	0.0007	0.05	0.0124	0.0001
318.15	0.0015	0.05	0.0224	0.0002
318.15	0.0022	0.05	0.032	0.0002
318.15	0.0029	0.05	0.0419	0.0003
318.15	0.0037	0.05	0.0511	0.0004
318.15	0.0044	0.05	0.0596	0.0004
318.15	0.0051	0.05	0.067	0.0005
318.15	0.0058	0.05	0.074	0.0005
318.15	0.0073	0.05	0.0868	0.0006
318.15	0.0086	0.05	0.0968	0.0007
318.15	0.0099	0.05	0.1077	0.0007
318.15	0.0113	0.05	0.1166	0.0008
318.15	0.0126	0.05	0.1256	0.0008
318.15	0.0139	0.05	0.1337	0.0009
318.15	0.0152	0.05	0.142	0.001
318.15	0.0164	0.05	0.1499	0.001
318.15	0.0177	0.05	0.1577	0.0011
318.15	0.0189	0.05	0.1647	0.0011
318.15	0.0201	0.05	0.1714	0.0011
293.15	0.0007	0.1	0.0068	0.0001
293.15	0.0015	0.1	0.0123	0.0001
293.15	0.0022	0.1	0.0179	0.0001
293.15	0.0029	0.1	0.0235	0.0002
293.15	0.0037	0.1	0.0286	0.0002
293.15	0.0044	0.1	0.0331	0.0002
293.15	0.0051	0.1	0.037	0.0003
293.15	0.0058	0.1	0.0408	0.0003
293.15	0.0073	0.1	0.047	0.0004
293.15	0.0086	0.1	0.0528	0.0004
293.15	0.0099	0.1	0.0579	0.0005
293.15	0.0113	0.1	0.0628	0.0005
293.15	0.0126	0.1	0.0672	0.0005
293.15	0.0139	0.1	0.0716	0.0006
293.15	0.0152	0.1	0.0757	0.0006
293.15	0.0164	0.1	0.0797	0.0006
293.15	0.0177	0.1	0.0835	0.0006
293.15	0.0189	0.1	0.0874	0.0007
293.15	0.0201	0.1	0.0914	0.0007
298.15	0.0007	0.1	0.007	0.0001
298.15	0.0015	0.1	0.0133	0.0001
298.15	0.0022	0.1	0.0194	0.0002
298.15	0.0029	0.1	0.0259	0.0002
298.15	0.0037	0.1	0.0317	0.0003
298.15	0.0044	0.1	0.0366	0.0003
298.15	0.0051	0.1	0.0408	0.0003
298.15	0.0058	0.1	0.0454	0.0004
298.15	0.0073	0.1	0.0527	0.0004
298.15	0.0086	0.1	0.0592	0.0005
298.15	0.0099	0.1	0.0653	0.0005
298.15	0.0113	0.1	0.0707	0.0006
298.15	0.0126	0.1	0.0756	0.0006
298.15	0.0139	0.1	0.0807	0.0006
298.15	0.0152	0.1	0.0853	0.0007
298.15	0.0164	0.1	0.0899	0.0007
298.15	0.0177	0.1	0.0943	0.0007
298.15	0.0189	0.1	0.0988	0.0008
298.15	0.0201	0.1	0.1033	0.0008
303.15	0.0007	0.1	0.009	0.0001
303.15	0.0015	0.1	0.0158	0.0001
303.15	0.0022	0.1	0.023	0.0002
303.15	0.0029	0.1	0.0302	0.0002
303.15	0.0037	0.1	0.0366	0.0003
303.15	0.0044	0.1	0.0421	0.0003
303.15	0.0051	0.1	0.0474	0.0004
303.15	0.0058	0.1	0.0519	0.0004
303.15	0.0073	0.1	0.0601	0.0005
303.15	0.0086	0.1	0.0675	0.0005
303.15	0.0099	0.1	0.0742	0.0006
303.15	0.0113	0.1	0.0804	0.0006
303.15	0.0126	0.1	0.0862	0.0007
303.15	0.0139	0.1	0.0918	0.0007
303.15	0.0152	0.1	0.0972	0.0008
303.15	0.0164	0.1	0.1025	0.0008
303.15	0.0177	0.1	0.1075	0.0008
303.15	0.0189	0.1	0.1125	0.0009
303.15	0.0201	0.1	0.1171	0.0009
308.15	0.0007	0.1	0.0091	0.0001
308.15	0.0015	0.1	0.0171	0.0001
308.15	0.0022	0.1	0.0253	0.0002
308.15	0.0029	0.1	0.0333	0.0002
308.15	0.0037	0.1	0.0406	0.0003
308.15	0.0044	0.1	0.0473	0.0004
308.15	0.0051	0.1	0.0532	0.0004
308.15	0.0058	0.1	0.0585	0.0004
308.15	0.0073	0.1	0.0679	0.0005
308.15	0.0086	0.1	0.0759	0.0006
308.15	0.0099	0.1	0.0837	0.0006
308.15	0.0113	0.1	0.0906	0.0007
308.15	0.0126	0.1	0.0971	0.0007
308.15	0.0139	0.1	0.1035	0.0008
308.15	0.0152	0.1	0.1097	0.0008
308.15	0.0164	0.1	0.1159	0.0009
308.15	0.0177	0.1	0.1216	0.0009
308.15	0.0189	0.1	0.1275	0.001
308.15	0.0201	0.1	0.1332	0.001
313.15	0.0007	0.1	0.0101	0.0001
313.15	0.0015	0.1	0.019	0.0001
313.15	0.0022	0.1	0.0277	0.0002
313.15	0.0029	0.1	0.0367	0.0003
313.15	0.0037	0.1	0.0446	0.0003
313.15	0.0044	0.1	0.0524	0.0004
313.15	0.0051	0.1	0.0581	0.0004
313.15	0.0058	0.1	0.0638	0.0005
313.15	0.0073	0.1	0.0744	0.0005
313.15	0.0086	0.1	0.0835	0.0006
313.15	0.0099	0.1	0.0919	0.0007
313.15	0.0113	0.1	0.0995	0.0007
313.15	0.0126	0.1	0.1073	0.0008
313.15	0.0139	0.1	0.1149	0.0008
313.15	0.0152	0.1	0.1222	0.0009
313.15	0.0164	0.1	0.129	0.0009
313.15	0.0177	0.1	0.1358	0.001
313.15	0.0189	0.1	0.1426	0.001
313.15	0.0201	0.1	0.1496	0.0011
318.15	0.0007	0.1	0.0115	0.0001
318.15	0.0015	0.1	0.0211	0.0002
318.15	0.0022	0.1	0.0303	0.0002
318.15	0.0029	0.1	0.0394	0.0003
318.15	0.0037	0.1	0.0485	0.0003
318.15	0.0044	0.1	0.0566	0.0004
318.15	0.0051	0.1	0.0638	0.0004
318.15	0.0058	0.1	0.0702	0.0005
318.15	0.0073	0.1	0.0819	0.0006
318.15	0.0086	0.1	0.0921	0.0006
318.15	0.0099	0.1	0.1013	0.0007
318.15	0.0113	0.1	0.111	0.0008
318.15	0.0126	0.1	0.1188	0.0009
318.15	0.0139	0.1	0.1267	0.0009
318.15	0.0152	0.1	0.1338	0.0009
318.15	0.0164	0.1	0.1413	0.001
318.15	0.0177	0.1	0.1483	0.001
318.15	0.0189	0.1	0.1558	0.0011
318.15	0.0201	0.1	0.1616	0.0011
293.15	0.0007	0.2	0.0065	0.0001
293.15	0.0015	0.2	0.0116	0.0001
293.15	0.0022	0.2	0.0167	0.0001
293.15	0.0029	0.2	0.0219	0.0002
293.15	0.0037	0.2	0.0264	0.0002
293.15	0.0044	0.2	0.0304	0.0002
293.15	0.0051	0.2	0.0339	0.0003
293.15	0.0058	0.2	0.0373	0.0003
293.15	0.0073	0.2	0.043	0.0003
293.15	0.0086	0.2	0.048	0.0004
293.15	0.0099	0.2	0.0529	0.0004
293.15	0.0113	0.2	0.057	0.0004
293.15	0.0126	0.2	0.0612	0.0005
293.15	0.0139	0.2	0.065	0.0005
293.15	0.0152	0.2	0.0687	0.0005
293.15	0.0164	0.2	0.0722	0.0006
293.15	0.0177	0.2	0.0755	0.0006
293.15	0.0189	0.2	0.079	0.0006
293.15	0.0201	0.2	0.0827	0.0007
298.15	0.0007	0.2	0.0067	0.0001
298.15	0.0015	0.2	0.0124	0.0001
298.15	0.0022	0.2	0.0183	0.0002
298.15	0.0029	0.2	0.0238	0.0002
298.15	0.0037	0.2	0.0292	0.0002
298.15	0.0044	0.2	0.0335	0.0003
298.15	0.0051	0.2	0.0376	0.0003
298.15	0.0058	0.2	0.0414	0.0003
298.15	0.0073	0.2	0.0479	0.0004
298.15	0.0086	0.2	0.0534	0.0004
298.15	0.0099	0.2	0.0585	0.0005
298.15	0.0113	0.2	0.0638	0.0005
298.15	0.0126	0.2	0.0683	0.0005
298.15	0.0139	0.2	0.0728	0.0006
298.15	0.0152	0.2	0.077	0.0006
298.15	0.0164	0.2	0.0811	0.0006
298.15	0.0177	0.2	0.0853	0.0007
298.15	0.0189	0.2	0.0894	0.0007
298.15	0.0201	0.2	0.0934	0.0007
303.15	0.0007	0.2	0.0085	0.0001
303.15	0.0015	0.2	0.0147	0.0001
303.15	0.0022	0.2	0.0213	0.0002
303.15	0.0029	0.2	0.0277	0.0002
303.15	0.0037	0.2	0.0334	0.0003
303.15	0.0044	0.2	0.0386	0.0003
303.15	0.0051	0.2	0.0432	0.0003
303.15	0.0058	0.2	0.0476	0.0004
303.15	0.0073	0.2	0.0549	0.0004
303.15	0.0086	0.2	0.0615	0.0005
303.15	0.0099	0.2	0.0674	0.0005
303.15	0.0113	0.2	0.0729	0.0006
303.15	0.0126	0.2	0.0783	0.0006
303.15	0.0139	0.2	0.0837	0.0006
303.15	0.0152	0.2	0.0882	0.0007
303.15	0.0164	0.2	0.093	0.0007
303.15	0.0177	0.2	0.0975	0.0007
303.15	0.0189	0.2	0.102	0.0008
303.15	0.0201	0.2	0.107	0.0008
308.15	0.0007	0.2	0.0087	0.0001
308.15	0.0015	0.2	0.0157	0.0001
308.15	0.0022	0.2	0.0228	0.0002
308.15	0.0029	0.2	0.0298	0.0002
308.15	0.0037	0.2	0.0367	0.0003
308.15	0.0044	0.2	0.0424	0.0003
308.15	0.0051	0.2	0.0474	0.0004
308.15	0.0058	0.2	0.0517	0.0004
308.15	0.0073	0.2	0.0603	0.0005
308.15	0.0086	0.2	0.0677	0.0005
308.15	0.0099	0.2	0.0745	0.0006
308.15	0.0113	0.2	0.0806	0.0006
308.15	0.0126	0.2	0.0867	0.0007
308.15	0.0139	0.2	0.0917	0.0007
308.15	0.0152	0.2	0.0976	0.0007
308.15	0.0164	0.2	0.103	0.0008
308.15	0.0177	0.2	0.1081	0.0008
308.15	0.0189	0.2	0.1133	0.0009
308.15	0.0201	0.2	0.1182	0.0009
313.15	0.0007	0.2	0.0098	0.0001
313.15	0.0015	0.2	0.0177	0.0001
313.15	0.0022	0.2	0.0256	0.0002
313.15	0.0029	0.2	0.0337	0.0002
313.15	0.0037	0.2	0.041	0.0003
313.15	0.0044	0.2	0.0476	0.0003
313.15	0.0051	0.2	0.0535	0.0004
313.15	0.0058	0.2	0.0589	0.0004
313.15	0.0073	0.2	0.0684	0.0005
313.15	0.0086	0.2	0.0769	0.0005
313.15	0.0099	0.2	0.0845	0.0006
313.15	0.0113	0.2	0.0914	0.0007
313.15	0.0126	0.2	0.0979	0.0007
313.15	0.0139	0.2	0.1047	0.0008
313.15	0.0152	0.2	0.1108	0.0008
313.15	0.0164	0.2	0.1173	0.0008
313.15	0.0177	0.2	0.123	0.0009
313.15	0.0189	0.2	0.129	0.0009
313.15	0.0201	0.2	0.135	0.001
318.15	0.0007	0.2	0.0099	0.0001
318.15	0.0015	0.2	0.0187	0.0001
318.15	0.0022	0.2	0.0272	0.0002
318.15	0.0029	0.2	0.0354	0.0002
318.15	0.0037	0.2	0.0435	0.0003
318.15	0.0044	0.2	0.0508	0.0003
318.15	0.0051	0.2	0.0569	0.0004
318.15	0.0058	0.2	0.0628	0.0004
318.15	0.0073	0.2	0.0728	0.0005
318.15	0.0086	0.2	0.0823	0.0005
318.15	0.0099	0.2	0.0905	0.0006
318.15	0.0113	0.2	0.0987	0.0007
318.15	0.0126	0.2	0.1056	0.0007
318.15	0.0139	0.2	0.1124	0.0007
318.15	0.0152	0.2	0.1187	0.0008
318.15	0.0164	0.2	0.125	0.0008
318.15	0.0177	0.2	0.1321	0.0009
318.15	0.0189	0.2	0.1378	0.0009
318.15	0.0201	0.2	0.1441	0.0009
