Measured thermophysical data. High temperature and pressure water/oil interfacial tension benchmark data for the Ninth Industrial Fluid Properties Simulation Challenge
Source: Fluid Phase Equilib., 2018, 10.1016/j.fluid.2018.07.032
Compound 1: dodecane, C12H26, InChI=1S/C12H26/c1-3-5-7-9-11-12-10-8-6-4-2/h3-12H2,1-2H3, purity 99%
Compound 2: toluene, C7H8, InChI=1S/C7H8/c1-7-5-3-2-4-6-7/h2-6H,1H3, purity 99.95%
Compound 3: water, H2O, InChI=1S/H2O/h1H2, purity 99.8%

System: water + dodecane; phases: Liquid, Gas
Fixed: Pressure, kPa = 1825
Property: Interfacial tension, N/m (Liquid); method: Pendant drop shape
Temperature, K	Interfacial tension, N/m	uncertainty
383	0.04	0.0002
403	0.0365	0.0002
423	0.0329	0.0002
443	0.0285	0.0002

System: water + toluene; phases: Liquid, Gas
Fixed: Pressure, kPa = 1825
Property: Interfacial tension, N/m (Liquid); method: Pendant drop shape
Temperature, K	Interfacial tension, N/m	uncertainty
383	0.0286	0.0001
403	0.0264	0.0001
423	0.0238	0.0002
443	0.0202	0.0002

System: water + dodecane + toluene; phases: Liquid, Gas
Fixed: Pressure, kPa = 1825
Fixed: Solvent: Mass fraction of dodecane = 0.5
Property: Interfacial tension, N/m (Liquid); method: Pendant drop shape
Temperature, K	Interfacial tension, N/m	uncertainty
383	0.0314	0.0001
403	0.029	0.0001
423	0.0261	0.0002
443	0.0226	0.0002
