Measured thermophysical data. Volumetric behaviour of two pyridinium-based ionic liquids
Source: Fluid Phase Equilib., 2014, 10.1016/j.fluid.2014.08.018
Compound 1: 1-ethyl-2-methylpyridinium bis((trifluoromethyl)sulfonyl)amide, C10H12F6N2O4S2, InChI=1S/C8H12N.C2F6NO4S2/c1-3-9-7-5-4-6-8(9)2;3-1(4,5)14(10,11)9-15(12,13)2(6,7)8/h4-7H,3H2,1-2H3;/q+1;-1, purity 99%
Compound 2: 2-methyl-1-propylpyridinium bis((trifluoromethyl)sulfonyl)amide, C11H14F6N2O4S2, InChI=1S/C9H14N.C2F6NO4S2/c1-3-7-10-8-5-4-6-9(10)2;3-1(4,5)14(10,11)9-15(12,13)2(6,7)8/h4-6,8H,3,7H2,1-2H3;/q+1;-1, purity 99%

System: 1-ethyl-2-methylpyridinium bis((trifluoromethyl)sulfonyl)amide; phases: Liquid
Property: Mass density, kg/m3 (Liquid); method: Vibrating tube method
Temperature, K	Pressure, kPa	Mass density, kg/m3	uncertainty
283.15	100	1520.3	0.7
288.15	100	1515.4	0.7
293.15	100	1510.5	0.7
298.15	100	1505.6	0.7
303.15	100	1500.8	0.7
308.15	100	1495.9	0.7
313.15	100	1491.1	0.7
318.15	100	1486.3	0.7
323.15	100	1481.5	0.7
328.15	100	1476.8	0.7
333.15	100	1472	0.6
283.15	2500	1522.2	0.7
288.15	2500	1517.2	0.7
293.15	2500	1512.4	0.7
298.15	2500	1507.5	0.7
303.15	2500	1502.7	0.7
308.15	2500	1497.9	0.7
313.15	2500	1493.2	0.7
318.15	2500	1488.4	0.7
323.15	2500	1483.7	0.7
328.15	2500	1478.9	0.7
333.15	2500	1474.3	0.7
283.15	5000	1523.8	0.8
288.15	5000	1518.9	0.8
293.15	5000	1514.1	0.8
298.15	5000	1509.2	0.8
303.15	5000	1504.5	0.8
308.15	5000	1499.7	0.8
313.15	5000	1495	0.8
318.15	5000	1490.3	0.8
323.15	5000	1485.6	0.8
328.15	5000	1480.8	0.7
333.15	5000	1476.2	0.7
283.15	7500	1525.4	0.8
288.15	7500	1520.6	0.8
293.15	7500	1515.7	0.8
298.15	7500	1510.9	0.8
303.15	7500	1506.2	0.8
308.15	7500	1501.4	0.8
313.15	7500	1496.8	0.8
318.15	7500	1492.1	0.8
323.15	7500	1487.4	0.8
328.15	7500	1482.7	0.8
333.15	7500	1478.1	0.8
283.15	10000	1527	0.9
288.15	10000	1522.2	0.9
293.15	10000	1517.4	0.9
298.15	10000	1512.5	0.9
303.15	10000	1507.9	0.9
308.15	10000	1503.1	0.9
313.15	10000	1498.5	0.9
318.15	10000	1493.8	0.9
323.15	10000	1489.2	0.9
328.15	10000	1484.5	0.8
333.15	10000	1480	0.8
283.15	15000	1530.1	1
288.15	15000	1525.3	1
293.15	15000	1520.6	1
298.15	15000	1515.8	1
303.15	15000	1511.2	1
308.15	15000	1506.5	1
313.15	15000	1502	1
318.15	15000	1497.3	1
323.15	15000	1492.7	1
328.15	15000	1488.1	0.9
333.15	15000	1483.6	0.9
283.15	20000	1533.1	1.1
288.15	20000	1528.3	1.1
293.15	20000	1523.6	1.1
298.15	20000	1519	1.1
303.15	20000	1514.3	1.1
308.15	20000	1509.7	1.1
313.15	20000	1505.2	1.1
318.15	20000	1500.6	1.1
323.15	20000	1496.2	1.1
328.15	20000	1491.6	1
333.15	20000	1487.2	1
283.15	25000	1536	1.2
288.15	25000	1531.3	1.2
293.15	25000	1526.6	1.2
298.15	25000	1522	1.2
303.15	25000	1517.5	1.2
308.15	25000	1512.9	1.2
313.15	25000	1508.4	1.2
318.15	25000	1503.9	1.2
323.15	25000	1499.5	1.2
328.15	25000	1494.9	1.1
333.15	25000	1490.5	1.1
283.15	30000	1538.8	1.3
288.15	30000	1534.2	1.3
293.15	30000	1529.5	1.3
298.15	30000	1525	1.3
303.15	30000	1520.5	1.3
308.15	30000	1515.9	1.3
313.15	30000	1511.5	1.3
318.15	30000	1507	1.3
323.15	30000	1502.6	1.3
328.15	30000	1498.2	1.2
333.15	30000	1493.9	1.2
283.15	35000	1541.6	1.4
288.15	35000	1536.9	1.4
293.15	35000	1532.4	1.4
298.15	35000	1527.8	1.4
303.15	35000	1523.4	1.4
308.15	35000	1518.9	1.4
313.15	35000	1514.5	1.4
318.15	35000	1510.1	1.4
323.15	35000	1505.7	1.4
328.15	35000	1501.4	1.4
333.15	35000	1497	1.3
283.15	45000	1546.9	1.7
288.15	45000	1542.2	1.7
293.15	45000	1537.8	1.6
298.15	45000	1533.3	1.6
303.15	45000	1528.9	1.6
308.15	45000	1524.5	1.6
313.15	45000	1520.3	1.6
318.15	45000	1515.9	1.6
323.15	45000	1511.7	1.6
328.15	45000	1507.4	1.6
333.15	45000	1503.2	1.6
283.15	55000	1551.8	1.9
288.15	55000	1547.3	1.9
293.15	55000	1542.9	1.9
298.15	55000	1538.5	1.9
303.15	55000	1534.2	1.8
308.15	55000	1529.9	1.8
313.15	55000	1525.7	1.8
318.15	55000	1521.4	1.8
323.15	55000	1517.3	1.8
328.15	55000	1513	1.8
333.15	55000	1509	1.8
283.15	65000	1556.4	2.1
288.15	65000	1552	2.1
293.15	65000	1547.7	2.1
298.15	65000	1543.4	2.1
303.15	65000	1539.2	2.1
308.15	65000	1534.9	2.1
313.15	65000	1530.8	2
318.15	65000	1526.6	2
323.15	65000	1522.5	2
328.15	65000	1518.4	2
333.15	65000	1514.3	2

System: 2-methyl-1-propylpyridinium bis((trifluoromethyl)sulfonyl)amide; phases: Liquid
Property: Mass density, kg/m3 (Liquid); method: Vibrating tube method
Temperature, K	Pressure, kPa	Mass density, kg/m3	uncertainty
283.15	100	1478.5	0.7
288.15	100	1473.7	0.6
293.15	100	1469	0.6
298.15	100	1464.2	0.6
303.15	100	1459.5	0.6
308.15	100	1454.8	0.6
313.15	100	1450	0.6
318.15	100	1445.4	0.6
323.15	100	1440.7	0.6
328.15	100	1436.1	0.6
333.15	100	1431.4	0.6
283.15	2500	1480.5	0.7
288.15	2500	1475.7	0.7
293.15	2500	1470.9	0.7
298.15	2500	1466.1	0.7
303.15	2500	1461.5	0.7
308.15	2500	1456.8	0.7
313.15	2500	1452.1	0.7
318.15	2500	1447.4	0.7
323.15	2500	1442.8	0.7
328.15	2500	1438.3	0.7
333.15	2500	1433.6	0.6
283.15	5000	1482.1	0.7
288.15	5000	1477.3	0.7
293.15	5000	1472.6	0.7
298.15	5000	1467.8	0.7
303.15	5000	1463.2	0.7
308.15	5000	1458.5	0.7
313.15	5000	1453.9	0.7
318.15	5000	1449.3	0.7
323.15	5000	1444.7	0.7
328.15	5000	1440.2	0.7
333.15	5000	1435.5	0.7
283.15	7500	1483.7	0.8
288.15	7500	1479	0.8
293.15	7500	1474.3	0.8
298.15	7500	1469.6	0.8
303.15	7500	1465	0.8
308.15	7500	1460.3	0.8
313.15	7500	1455.8	0.8
318.15	7500	1451.1	0.8
323.15	7500	1446.7	0.7
328.15	7500	1442.1	0.7
333.15	7500	1437.5	0.7
283.15	10000	1485.4	0.8
288.15	10000	1480.6	0.8
293.15	10000	1475.9	0.8
298.15	10000	1471.2	0.8
303.15	10000	1466.6	0.8
308.15	10000	1462	0.8
313.15	10000	1457.5	0.8
318.15	10000	1452.9	0.8
323.15	10000	1448.5	0.8
328.15	10000	1443.9	0.8
333.15	10000	1439.4	0.8
283.15	15000	1488.6	0.9
288.15	15000	1483.7	0.9
293.15	15000	1479.2	0.9
298.15	15000	1474.5	0.9
303.15	15000	1470	0.9
308.15	15000	1465.4	0.9
313.15	15000	1461	0.9
318.15	15000	1456.4	0.9
323.15	15000	1452	0.9
328.15	15000	1447.5	0.9
333.15	15000	1443.1	0.9
283.15	20000	1491.5	1
288.15	20000	1486.8	1
293.15	20000	1482.3	1
298.15	20000	1477.7	1
303.15	20000	1473.2	1
308.15	20000	1468.7	1
313.15	20000	1464.3	1
318.15	20000	1459.9	1
323.15	20000	1455.5	1
328.15	20000	1451	1
333.15	20000	1446.6	1
283.15	25000	1494.5	1.1
288.15	25000	1489.9	1.1
293.15	25000	1485.3	1.1
298.15	25000	1480.8	1.1
303.15	25000	1476.4	1.1
308.15	25000	1471.9	1.1
313.15	25000	1467.5	1.1
318.15	25000	1463.1	1.1
323.15	25000	1458.7	1.1
328.15	25000	1454.5	1.1
333.15	25000	1450.1	1.1
283.15	30000	1497.3	1.2
288.15	30000	1492.7	1.2
293.15	30000	1488.3	1.2
298.15	30000	1483.8	1.2
303.15	30000	1479.5	1.2
308.15	30000	1475	1.2
313.15	30000	1470.7	1.2
318.15	30000	1466.4	1.2
323.15	30000	1462	1.2
328.15	30000	1457.8	1.2
333.15	30000	1453.4	1.2
283.15	35000	1500.1	1.3
288.15	35000	1495.6	1.3
293.15	35000	1491.1	1.3
298.15	35000	1486.6	1.3
303.15	35000	1482.4	1.3
308.15	35000	1478	1.3
313.15	35000	1473.7	1.3
318.15	35000	1469.4	1.3
323.15	35000	1465.2	1.3
328.15	35000	1460.9	1.3
333.15	35000	1456.7	1.2
283.15	45000	1505.5	1.6
288.15	45000	1500.9	1.5
293.15	45000	1496.6	1.5
298.15	45000	1492.2	1.5
303.15	45000	1488	1.5
308.15	45000	1483.7	1.5
313.15	45000	1479.5	1.5
318.15	45000	1475.3	1.5
323.15	45000	1471.2	1.5
328.15	45000	1467.1	1.5
333.15	45000	1462.8	1.4
283.15	55000	1510.5	1.8
288.15	55000	1506	1.8
293.15	55000	1501.8	1.7
298.15	55000	1497.4	1.7
303.15	55000	1493.3	1.7
308.15	55000	1489.1	1.7
313.15	55000	1485	1.7
318.15	55000	1480.8	1.7
323.15	55000	1476.9	1.7
328.15	55000	1472.7	1.7
333.15	55000	1468.6	1.6
283.15	65000	1515.3	2
288.15	65000	1510.9	2
293.15	65000	1506.7	2
298.15	65000	1502.5	1.9
303.15	65000	1498.4	1.9
308.15	65000	1494.2	1.9
313.15	65000	1490.2	1.9
318.15	65000	1486.1	1.9
323.15	65000	1482.1	1.9
328.15	65000	1478.1	1.9
333.15	65000	1474.2	1.8
