Measured thermophysical data. Experimental determination and correlation of acetaminophen solubility in aqueous solutions of choline chloride based deep eutectic solvents at various temperatures
Source: Fluid Phase Equilib., 2018, 10.1016/j.fluid.2018.01.017
Compound 1: N-acetyl-p-aminophenol, C8H9NO2, InChI=1S/C8H9NO2/c1-6(10)9-7-2-4-8(11)5-3-7/h2-5,11H,1H3,(H,9,10), purity 98%
Compound 2: choline chloride, C5H14ClNO, InChI=1S/C5H14NO.ClH/c1-6(2,3)4-5-7;/h7H,4-5H2,1-3H3;1H/q+1;/p-1, purity 99%
Compound 3: urea, CH4N2O, InChI=1S/CH4N2O/c2-1(3)4/h(H4,2,3,4), purity 98%
Compound 4: ethanedioic acid, C2H2O4, InChI=1S/C2H2O4/c3-1(4)2(5)6/h(H,3,4)(H,5,6), purity 99%
Compound 5: propanedioic acid, C3H4O4, InChI=1S/C3H4O4/c4-2(5)1-3(6)7/h1H2,(H,4,5)(H,6,7), purity 99%
Compound 6: water, H2O, InChI=1S/H2O/h1H2, purity 99.9%

System: choline chloride + urea; phases: Liquid
Property: Mass density, kg/m3 (Liquid); method: Vibrating tube method
Mole fraction of choline chloride	Temperature, K	Pressure, kPa	Mass density, kg/m3	uncertainty
0.333	298.15	86.6	1193.926	0.945

System: choline chloride + urea; phases: Liquid
Property: Speed of sound, m/s (Liquid); method: Anton Parr, DSA 5000 densimeter and speed of sound analyzer
Mole fraction of choline chloride	Temperature, K	Pressure, kPa	Speed of sound, m/s	uncertainty
0.333	298.15	86.6	2062.27	2.19

System: choline chloride + urea; phases: Liquid
Property: Refractive index (Na D-line) (Liquid); method: Standard Abbe refractometry
Mole fraction of choline chloride	Temperature, K	Pressure, kPa	Refractive index (Na D-line)	uncertainty
0.333	298.15	86.6	1.5041	0.0006

System: choline chloride + propanedioic acid; phases: Liquid
Property: Mass density, kg/m3 (Liquid); method: Vibrating tube method
Mole fraction of choline chloride	Temperature, K	Pressure, kPa	Mass density, kg/m3	uncertainty
0.5	298.15	86.6	1251.47	0.535

System: choline chloride + propanedioic acid; phases: Liquid
Property: Speed of sound, m/s (Liquid); method: Anton Parr, DSA 5000 densimeter and speed of sound analyzer
Mole fraction of choline chloride	Temperature, K	Pressure, kPa	Speed of sound, m/s	uncertainty
0.5	298.15	86.6	1962.69	1.73

System: choline chloride + propanedioic acid; phases: Liquid
Property: Refractive index (Na D-line) (Liquid); method: Standard Abbe refractometry
Mole fraction of choline chloride	Temperature, K	Pressure, kPa	Refractive index (Na D-line)	uncertainty
0.5	298.15	86.6	1.4887	0.0005

System: choline chloride + ethanedioic acid; phases: Liquid
Property: Mass density, kg/m3 (Liquid); method: Vibrating tube method
Mole fraction of choline chloride	Temperature, K	Pressure, kPa	Mass density, kg/m3	uncertainty
0.5	298.15	86.6	1210.926	0.501

System: choline chloride + ethanedioic acid; phases: Liquid
Property: Speed of sound, m/s (Liquid); method: Anton Parr, DSA 5000 densimeter and speed of sound analyzer
Mole fraction of choline chloride	Temperature, K	Pressure, kPa	Speed of sound, m/s	uncertainty
0.5	298.15	86.6	1925	1.73

System: choline chloride + ethanedioic acid; phases: Liquid
Property: Refractive index (Na D-line) (Liquid); method: Standard Abbe refractometry
Mole fraction of choline chloride	Temperature, K	Pressure, kPa	Refractive index (Na D-line)	uncertainty
0.5	298.15	86.6	1.4809	0.0005

System: N-acetyl-p-aminophenol + water; phases: Liquid, Crystal
Fixed: Pressure, kPa = 101
Property: Mole fraction of N-acetyl-p-aminophenol (Liquid); method: UV-vis spectrometry
Temperature, K	Mole fraction of N-acetyl-p-aminophenol	uncertainty
293.15	0.001589	1.6e-05
298.15	0.001839	1.4e-05
303.15	0.002239	1.5e-05
308.15	0.002545	1.9e-05
313.15	0.003009	2.7e-05
318.15	0.003599	2.6e-05
