Measured thermophysical data. Study of thermodynamic properties of binary solutions of lithium bromide or lithium chloride with methanol
Source: Fluid Phase Equilib., 2005, 10.1016/j.fluid.2005.07.002
Compound 1: lithium bromide, BrLi, InChI=1S/BrH.Li/h1H;/q;+1/p-1, purity 99.5%
Compound 2: lithium chloride, ClLi, InChI=1S/ClH.Li/h1H;/q;+1/p-1, purity 99.5%
Compound 3: methanol, CH4O, InChI=1S/CH4O/c1-2/h2H,1H3, purity 99.8%

System: methanol + lithium bromide; phases: Gas, Liquid
Property: Vapor or sublimation pressure, kPa (Gas); method: Closed cell (Static) method
Molality, mol/kg of lithium bromide	Temperature, K	Vapor or sublimation pressure, kPa	uncertainty
0.22046	298.15	16.765	0.071
0.22046	303.15	21.631	0.087
0.22046	308.15	27.642	0.106
0.22046	313.15	35.046	0.131
0.22046	318.15	44.032	0.16
0.22046	323.15	54.962	0.195
0.30143	298.15	16.696	0.071
0.30143	303.15	21.542	0.086
0.30143	308.15	27.528	0.106
0.30143	313.15	34.903	0.13
0.30143	318.15	43.852	0.159
0.30143	323.15	54.738	0.194
0.58477	298.15	16.417	0.07
0.58477	303.15	21.184	0.085
0.58477	308.15	27.073	0.105
0.58477	313.15	34.328	0.128
0.58477	318.15	43.132	0.157
0.58477	323.15	53.841	0.191
1.13271	298.15	15.771	0.068
1.13271	303.15	20.357	0.082
1.13271	308.15	26.024	0.101
1.13271	313.15	33.012	0.124
1.13271	318.15	41.49	0.152
1.13271	323.15	51.799	0.184
1.84095	298.15	14.716	0.064
1.84095	303.15	19.013	0.078
1.84095	308.15	24.325	0.095
1.84095	313.15	30.874	0.117
1.84095	318.15	38.821	0.143
1.84095	323.15	48.505	0.174
2.26118	298.15	13.996	0.062
2.26118	303.15	18.097	0.075
2.26118	308.15	23.163	0.092
2.26118	313.15	29.413	0.112
2.26118	318.15	37.017	0.137
2.26118	323.15	46.287	0.166
2.6931	298.15	13.176	0.059
2.6931	303.15	17.044	0.071
2.6931	308.15	21.827	0.087
2.6931	313.15	27.744	0.107
2.6931	318.15	34.938	0.13
2.6931	323.15	43.708	0.158
3.31162	298.15	11.88	0.055
3.31162	303.15	15.372	0.066
3.31162	308.15	19.695	0.08
3.31162	313.15	25.068	0.098
3.31162	318.15	31.597	0.119
3.31162	323.15	39.655	0.144
4.80124	298.15	8.138	0.042
4.80124	303.15	10.588	0.05
4.80124	308.15	13.642	0.06
4.80124	313.15	17.476	0.073
4.80124	318.15	22.15	0.088
4.80124	323.15	27.806	0.106
6.2725	298.15	4.733	0.03
6.2725	303.15	6.198	0.036
6.2725	308.15	8.04	0.042
6.2725	313.15	10.385	0.049
6.2725	318.15	13.221	0.059
6.2725	323.15	16.706	0.073
9.41356	298.15	1.545	0.02
9.41356	303.15	2.067	0.022
9.41356	308.15	2.777	0.024
9.41356	313.15	3.677	0.027
9.41356	318.15	4.812	0.031
9.41356	323.15	6.225	0.037
11.51477	298.15	0.855	0.015
11.51477	303.15	1.168	0.02
11.51477	308.15	1.582	0.021
11.51477	313.15	2.111	0.022
11.51477	318.15	2.817	0.025
11.51477	323.15	3.69	0.027

System: methanol + lithium chloride; phases: Gas, Liquid
Property: Vapor or sublimation pressure, kPa (Gas); method: Closed cell (Static) method
Molality, mol/kg of lithium chloride	Temperature, K	Vapor or sublimation pressure, kPa	uncertainty
0.34002	298.15	16.657	0.071
0.34002	303.15	21.493	0.086
0.34002	308.15	27.467	0.106
0.34002	313.15	34.827	0.13
0.34002	318.15	43.759	0.159
0.34002	323.15	54.623	0.194
0.64261	298.15	16.354	0.07
0.64261	303.15	21.103	0.085
0.64261	308.15	26.969	0.104
0.64261	313.15	34.196	0.128
0.64261	318.15	42.968	0.157
0.64261	323.15	53.639	0.19
0.9119	298.15	16.054	0.069
0.9119	303.15	20.718	0.084
0.9119	308.15	26.479	0.103
0.9119	313.15	33.578	0.126
0.9119	318.15	42.191	0.154
0.9119	323.15	52.673	0.187
1.2485	298.15	15.635	0.067
1.2485	303.15	20.178	0.082
1.2485	308.15	25.795	0.1
1.2485	313.15	32.717	0.123
1.2485	318.15	41.111	0.15
1.2485	323.15	51.333	0.183
1.54443	298.15	15.24	0.066
1.54443	303.15	19.674	0.08
1.54443	308.15	25.152	0.098
1.54443	313.15	31.903	0.12
1.54443	318.15	40.094	0.147
1.54443	323.15	50.065	0.179
1.81098	298.15	14.857	0.065
1.81098	303.15	19.178	0.079
1.81098	308.15	24.523	0.096
1.81098	313.15	31.111	0.118
1.81098	318.15	39.103	0.144
1.81098	323.15	48.838	0.175
2.24152	298.15	14.183	0.063
2.24152	303.15	18.313	0.076
2.24152	308.15	23.427	0.092
2.24152	313.15	29.724	0.113
2.24152	318.15	37.367	0.138
2.24152	323.15	46.683	0.168
2.78557	298.15	13.22	0.059
2.78557	303.15	17.072	0.072
2.78557	308.15	21.843	0.087
2.78557	313.15	27.738	0.107
2.78557	318.15	34.899	0.13
2.78557	323.15	43.63	0.158
3.16188	298.15	12.485	0.057
3.16188	303.15	16.127	0.068
3.16188	308.15	20.651	0.083
3.16188	313.15	26.223	0.102
3.16188	318.15	33.004	0.124
3.16188	323.15	41.259	0.15
3.47792	298.15	11.813	0.055
3.47792	303.15	15.258	0.066
3.47792	308.15	19.532	0.08
3.47792	313.15	24.805	0.097
3.47792	318.15	31.217	0.118
3.47792	323.15	39.047	0.143
4.17899	298.15	10.239	0.049
4.17899	303.15	13.24	0.059
4.17899	308.15	16.973	0.071
4.17899	313.15	21.589	0.086
4.17899	318.15	27.213	0.105
4.17899	323.15	34.106	0.127
4.4102	298.15	9.724	0.048
4.4102	303.15	12.598	0.057
4.4102	308.15	16.165	0.068
4.4102	313.15	20.578	0.083
4.4102	318.15	25.95	0.1
4.4102	323.15	32.5	0.121
4.91722	298.15	8.642	0.044
4.91722	303.15	11.229	0.052
4.91722	308.15	14.438	0.063
4.91722	313.15	18.393	0.076
4.91722	318.15	23.203	0.091
4.91722	323.15	29.07	0.11
5.62027	298.15	7.315	0.039
5.62027	303.15	9.556	0.047
5.62027	308.15	12.346	0.056
5.62027	313.15	15.755	0.067
5.62027	318.15	19.974	0.081
5.62027	323.15	25.137	0.097
6.17615	298.15	6.517	0.037
6.17615	303.15	8.497	0.043
6.17615	308.15	10.99	0.051
6.17615	313.15	14.101	0.062
6.17615	318.15	17.908	0.074
6.17615	323.15	22.637	0.089
