Measured thermophysical data. Mutual diffusion coefficients, density, and viscosity of aqueoussolutions of new polyamine CO2absorbents
Source: Fluid Phase Equilib., 2014, 10.1016/j.fluid.2013.11.028
Compound 1: N-methyl-1,3-diaminopropane, C4H12N2, InChI=1S/C4H12N2/c1-6-4-2-3-5/h6H,2-5H2,1H3, purity 99%
Compound 2: di(2-aminoethyl)amine, C4H13N3, InChI=1S/C4H13N3/c5-1-3-7-4-2-6/h7H,1-6H2, purity 98%
Compound 3: N,N,N',N'-tetramethyl-1,2-diaminoethane, C6H16N2, InChI=1S/C6H16N2/c1-7(2)5-6-8(3)4/h5-6H2,1-4H3, purity 99%
Compound 4: N,N,N',N'-tetramethyl-1,3-propanediamine, C7H18N2, InChI=1S/C7H18N2/c1-8(2)6-5-7-9(3)4/h5-7H2,1-4H3, purity 98%
Compound 5: water, H2O, InChI=1S/H2O/h1H2
Compound 6: 1,2-ethanediol, C2H6O2, InChI=1S/C2H6O2/c3-1-2-4/h3-4H,1-2H2, purity 99.9%

System: N-methyl-1,3-diaminopropane; phases: Liquid
Fixed: Pressure, kPa = 101
Property: Mass density, kg/m3 (Liquid); method: Vibrating tube method
Temperature, K	Mass density, kg/m3	uncertainty
303.15	849.1	1
308.15	844.7	1
313.15	840.3	1
318.15	835.9	1
323.15	831.5	1

System: di(2-aminoethyl)amine; phases: Liquid
Fixed: Pressure, kPa = 101
Property: Mass density, kg/m3 (Liquid); method: Vibrating tube method
Temperature, K	Mass density, kg/m3	uncertainty
303.15	942.1	1.2
308.15	937.9	1.2
313.15	933.8	1.2
318.15	929.6	1.2
323.15	925.5	1.2

System: N,N,N',N'-tetramethyl-1,2-diaminoethane; phases: Liquid
Fixed: Pressure, kPa = 101
Property: Mass density, kg/m3 (Liquid); method: Vibrating tube method
Temperature, K	Mass density, kg/m3	uncertainty
303.15	767.3	1
308.15	762.9	1
313.15	759.1	1
318.15	754.7	1
323.15	750.3	1

System: N,N,N',N'-tetramethyl-1,3-propanediamine; phases: Liquid
Fixed: Pressure, kPa = 101
Property: Mass density, kg/m3 (Liquid); method: Vibrating tube method
Temperature, K	Mass density, kg/m3	uncertainty
303.15	774.8	1.1
308.15	770.9	1.1
313.15	767.4	1.1
318.15	765	1.1
323.15	761.4	1.1

System: water; phases: Liquid
Fixed: Pressure, kPa = 101.325
Property: Viscosity, Pa*s (Liquid); method: Falling or rolling sphere viscometry
Temperature, K	Viscosity, Pa*s	uncertainty
303.15	0.000789	1.7e-05
308.15	0.000714	1.5e-05
313.15	0.000651	1.4e-05
318.15	0.000598	1.3e-05
323.15	0.000541	1.2e-05

System: 1,2-ethanediol + water; phases: Liquid
Fixed: Pressure, kPa = 101
Fixed: Mole fraction of 1,2-ethanediol = 0.2
Property: Binary diffusion coefficient, m2/s (Liquid); method: Taylor dispersion method
Temperature, K	Binary diffusion coefficient, m2/s	uncertainty
303.15	8.21e-10	0.038
308.15	9.03e-10	0.041
313.15	9.98e-10	0.045
318.15	1.085e-09	0.049
323.15	1.201e-09	0.054

System: N-methyl-1,3-diaminopropane + water; phases: Liquid
Fixed: Pressure, kPa = 101
Property: Mass density, kg/m3 (Liquid); method: Vibrating tube method
Mass fraction of N-methyl-1,3-diaminopropane	Temperature, K	Mass density, kg/m3	uncertainty
0.1	303.15	988.5	1
0.1	308.15	986.7	1
0.1	313.15	984.7	1
0.1	318.15	982.6	1
0.1	323.15	980.2	1
0.2	303.15	983.9	1
0.2	308.15	981.6	1
0.2	313.15	979.1	1
0.2	318.15	976.4	1
0.2	323.15	973.7	1
0.3	303.15	980.7	1
0.3	308.15	977.7	1
0.3	313.15	974.5	1
0.3	318.15	971.3	1
0.3	323.15	967.9	1
0.4	303.15	975.9	1
0.4	308.15	972.2	1
0.4	313.15	968.4	1
0.4	318.15	964.6	1
0.4	323.15	960.7	1
1	303.15	849.1	1
1	308.15	844.7	1
1	313.15	840.3	1
1	318.15	835.9	1
1	323.15	831.5	1

System: N-methyl-1,3-diaminopropane + water; phases: Liquid
Fixed: Pressure, kPa = 101
Property: Viscosity, Pa*s (Liquid); method: Falling or rolling sphere viscometry
Mass fraction of N-methyl-1,3-diaminopropane	Temperature, K	Viscosity, Pa*s	uncertainty
0.1	303.15	0.001231	2.7e-05
0.1	308.15	0.00109	2.3e-05
0.1	313.15	0.000976	2.1e-05
0.1	318.15	0.000887	1.9e-05
0.1	323.15	0.000808	1.7e-05
0.2	303.15	0.002005	4.4e-05
0.2	308.15	0.001731	3.7e-05
0.2	313.15	0.001512	3.3e-05
0.2	318.15	0.001333	2.9e-05
0.2	323.15	0.001184	2.5e-05
0.3	303.15	0.00341	7.5e-05
0.3	308.15	0.002823	6.1e-05
0.3	313.15	0.002391	5.2e-05
0.3	318.15	0.002059	4.4e-05
0.3	323.15	0.001769	3.8e-05
0.4	303.15	0.005515	0.00012
0.4	308.15	0.004451	9.7e-05
0.4	313.15	0.00366	8e-05
0.4	318.15	0.002979	6.5e-05
0.4	323.15	0.002525	5.5e-05

System: N-methyl-1,3-diaminopropane + water; phases: Liquid
Fixed: Pressure, kPa = 101
Property: Binary diffusion coefficient, m2/s (Liquid); method: Taylor dispersion method
Mass fraction of N-methyl-1,3-diaminopropane	Temperature, K	Binary diffusion coefficient, m2/s	uncertainty
0	303.15	8.45e-10	0.039
0	308.15	9.56e-10	0.044
0	313.15	1.052e-09	0.048
0	318.15	1.185e-09	0.053
0	323.15	1.313e-09	0.059
0.1	303.15	7.35e-10	0.034
0.1	308.15	8.63e-10	0.04
0.1	313.15	9.36e-10	0.043
0.1	318.15	1.054e-09	0.048
0.1	323.15	1.179e-09	0.053
0.2	303.15	6.87e-10	0.032
0.2	308.15	7.69e-10	0.036
0.2	313.15	8.72e-10	0.04
0.2	318.15	9.72e-10	0.044
0.2	323.15	1.085e-09	0.049
0.3	303.15	6.4e-10	0.03
0.3	308.15	7.26e-10	0.034
0.3	313.15	8.25e-10	0.038
0.3	318.15	9.22e-10	0.042
0.3	323.15	1.026e-09	0.047
0.4	303.15	6.08e-10	0.029
0.4	308.15	6.92e-10	0.033
0.4	313.15	7.77e-10	0.036
0.4	318.15	8.73e-10	0.04
0.4	323.15	9.77e-10	0.045

System: di(2-aminoethyl)amine + water; phases: Liquid
Fixed: Pressure, kPa = 101
Property: Mass density, kg/m3 (Liquid); method: Vibrating tube method
Mass fraction of di(2-aminoethyl)amine	Temperature, K	Mass density, kg/m3	uncertainty
0.1	303.15	998.5	1
0.1	308.15	996.7	1
0.1	313.15	994.8	1
0.1	318.15	992.8	1
0.1	323.15	990.6	1
0.2	303.15	1002.9	1
0.2	308.15	1000.8	1
0.2	313.15	998.7	1
0.2	318.15	996.3	1
0.2	323.15	993.9	1
0.3	303.15	1009.8	1
0.3	308.15	1007.2	1
0.3	313.15	1004.5	1
0.3	318.15	1001.8	1
0.3	323.15	998.9	1
0.4	303.15	1016.2	1
0.4	308.15	1013	1
0.4	313.15	1009.9	1
0.4	318.15	1006.7	1
0.4	323.15	1003.4	1
1	303.15	942.1	1.2
1	308.15	937.9	1.2
1	313.15	933.8	1.2
1	318.15	929.6	1.2
1	323.15	925.5	1.2

System: di(2-aminoethyl)amine + water; phases: Liquid
Fixed: Pressure, kPa = 101
Property: Viscosity, Pa*s (Liquid); method: Falling or rolling sphere viscometry
Mass fraction of di(2-aminoethyl)amine	Temperature, K	Viscosity, Pa*s	uncertainty
0.1	303.15	0.001211	2.6e-05
0.1	308.15	0.00108	2.3e-05
0.1	313.15	0.00097	2.1e-05
0.1	318.15	0.00088	1.9e-05
0.1	323.15	0.000799	1.7e-05
0.2	303.15	0.002011	4.5e-05
0.2	308.15	0.001751	3.8e-05
0.2	313.15	0.00154	3.3e-05
0.2	318.15	0.001366	2.9e-05
0.2	323.15	0.001221	2.6e-05
0.3	303.15	0.003572	8.1e-05
0.3	308.15	0.003015	6.6e-05
0.3	313.15	0.002582	5.6e-05
0.3	318.15	0.002234	4.9e-05
0.3	323.15	0.00195	4.2e-05
0.4	303.15	0.00731	0.000161
0.4	308.15	0.005915	0.000131
0.4	313.15	0.004859	0.000107
0.4	318.15	0.004049	8.9e-05
0.4	323.15	0.003302	7.3e-05

System: di(2-aminoethyl)amine + water; phases: Liquid
Fixed: Pressure, kPa = 101
Property: Binary diffusion coefficient, m2/s (Liquid); method: Taylor dispersion method
Mass fraction of di(2-aminoethyl)amine	Temperature, K	Binary diffusion coefficient, m2/s	uncertainty
0	303.15	7.45e-10	0.035
0	308.15	8.43e-10	0.039
0	313.15	9.5e-10	0.043
0	318.15	1.026e-09	0.047
0	323.15	1.189e-09	0.054
0.1	303.15	7.01e-10	0.033
0.1	308.15	7.93e-10	0.037
0.1	313.15	8.95e-10	0.041
0.1	318.15	1.011e-09	0.046
0.1	323.15	1.121e-09	0.051
0.2	303.15	6.64e-10	0.032
0.2	308.15	7.61e-10	0.035
0.2	313.15	8.52e-10	0.039
0.2	318.15	9.38e-10	0.043
0.2	323.15	1.065e-09	0.048
0.3	303.15	6.14e-10	0.029
0.3	308.15	7.14e-10	0.034
0.3	313.15	8.13e-10	0.038
0.3	318.15	8.82e-10	0.041
0.3	323.15	1.006e-09	0.046
0.4	303.15	5.57e-10	0.027
0.4	308.15	6.6e-10	0.031
0.4	313.15	7.41e-10	0.035
0.4	318.15	8.55e-10	0.039
0.4	323.15	9.61e-10	0.044

System: N,N,N',N'-tetramethyl-1,2-diaminoethane + water; phases: Liquid
Fixed: Pressure, kPa = 101
Property: Mass density, kg/m3 (Liquid); method: Vibrating tube method
Mass fraction of N,N,N',N'-tetramethyl-1,2-diaminoethane	Temperature, K	Mass density, kg/m3	uncertainty
0.1	303.15	982.9	1
0.1	308.15	981	1
0.1	313.15	979	1
0.1	318.15	976.7	1
0.1	323.15	974.3	1
0.2	303.15	972.6	1
0.2	308.15	970	1
0.2	313.15	967.3	1
0.2	318.15	964.4	1
0.2	323.15	961.4	1
0.3	303.15	962.1	1
0.3	308.15	958.6	1
0.3	313.15	955.1	1
0.3	318.15	951.5	1
0.3	323.15	947.8	1
0.4	303.15	947.8	1
0.4	308.15	943.7	1
0.4	313.15	939.5	1
0.4	318.15	935.3	1
0.4	323.15	931	1
1	303.15	767.3	1
1	308.15	762.9	1
1	313.15	759.1	1
1	318.15	754.7	1
1	323.15	750.3	1

System: N,N,N',N'-tetramethyl-1,2-diaminoethane + water; phases: Liquid
Fixed: Pressure, kPa = 101
Property: Viscosity, Pa*s (Liquid); method: Falling or rolling sphere viscometry
Mass fraction of N,N,N',N'-tetramethyl-1,2-diaminoethane	Temperature, K	Viscosity, Pa*s	uncertainty
0.1	303.15	0.00134	2.9e-05
0.1	308.15	0.001179	2.5e-05
0.1	313.15	0.001046	2.3e-05
0.1	318.15	0.000933	2e-05
0.1	323.15	0.000839	1.8e-05
0.2	303.15	0.002338	5.2e-05
0.2	308.15	0.001983	4.3e-05
0.2	313.15	0.001704	3.7e-05
0.2	318.15	0.001481	3.2e-05
0.2	323.15	0.001301	2.8e-05
0.3	303.15	0.003963	8.7e-05
0.3	308.15	0.003243	7e-05
0.3	313.15	0.002705	5.9e-05
0.3	318.15	0.002287	4.9e-05
0.3	323.15	0.00196	4.2e-05
0.4	303.15	0.006207	0.000135
0.4	308.15	0.004925	0.000108
0.4	313.15	0.003941	8.6e-05
0.4	318.15	0.003205	7e-05
0.4	323.15	0.002682	5.8e-05

System: N,N,N',N'-tetramethyl-1,2-diaminoethane + water; phases: Liquid
Fixed: Pressure, kPa = 101
Property: Binary diffusion coefficient, m2/s (Liquid); method: Taylor dispersion method
Mass fraction of N,N,N',N'-tetramethyl-1,2-diaminoethane	Temperature, K	Binary diffusion coefficient, m2/s	uncertainty
0	303.15	7.34e-10	0.034
0	308.15	8.35e-10	0.039
0	313.15	9.38e-10	0.043
0	318.15	1.045e-09	0.047
0	323.15	1.177e-09	0.053
0.1	303.15	5.61e-10	0.027
0.1	308.15	6.29e-10	0.03
0.1	313.15	7.16e-10	0.034
0.1	318.15	8.01e-10	0.037
0.1	323.15	9.51e-10	0.044
0.2	303.15	4.62e-10	0.023
0.2	308.15	5.25e-10	0.026
0.2	313.15	5.74e-10	0.028
0.2	318.15	6.38e-10	0.03
0.2	323.15	7.5e-10	0.035
0.3	303.15	3.74e-10	0.02
0.3	308.15	4.4e-10	0.022
0.3	313.15	4.91e-10	0.024
0.3	318.15	5.53e-10	0.027
0.3	323.15	6.29e-10	0.03
0.4	303.15	3.12e-10	0.017
0.4	308.15	3.66e-10	0.019
0.4	313.15	4.25e-10	0.022
0.4	318.15	4.61e-10	0.023
0.4	323.15	5.31e-10	0.026

System: N,N,N',N'-tetramethyl-1,3-propanediamine + water; phases: Liquid
Fixed: Pressure, kPa = 101
Property: Mass density, kg/m3 (Liquid); method: Vibrating tube method
Mass fraction of N,N,N',N'-tetramethyl-1,3-propanediamine	Temperature, K	Mass density, kg/m3	uncertainty
0.1	303.15	983.3	1
0.1	308.15	981.4	1
0.1	313.15	979.3	1
0.1	318.15	977	1
0.1	323.15	974.6	1
0.2	303.15	972.5	1
0.2	308.15	969.8	1
0.2	313.15	967	1
0.2	318.15	964	1
0.2	323.15	961	1
0.3	303.15	960.1	1
0.3	308.15	956.7	1
0.3	313.15	953.1	1
0.3	318.15	949.5	1
0.3	323.15	945.8	1
0.4	303.15	944.6	1
0.4	308.15	940.6	1
0.4	313.15	936.6	1
0.4	318.15	932.5	1
0.4	323.15	928.4	1
1	303.15	774.8	1.1
1	308.15	770.9	1.1
1	313.15	767.4	1.1
1	318.15	765	1.1
1	323.15	761.4	1.1

System: N,N,N',N'-tetramethyl-1,3-propanediamine + water; phases: Liquid
Fixed: Pressure, kPa = 101
Property: Viscosity, Pa*s (Liquid); method: Falling or rolling sphere viscometry
Mass fraction of N,N,N',N'-tetramethyl-1,3-propanediamine	Temperature, K	Viscosity, Pa*s	uncertainty
0.1	303.15	0.001345	2.9e-05
0.1	308.15	0.001183	2.6e-05
0.1	313.15	0.001051	2.3e-05
0.1	318.15	0.000941	2e-05
0.1	323.15	0.000846	1.8e-05
0.2	303.15	0.002335	5.2e-05
0.2	308.15	0.001985	4.3e-05
0.2	313.15	0.001709	3.7e-05
0.2	318.15	0.001488	3.2e-05
0.2	323.15	0.001311	2.8e-05
0.3	303.15	0.003923	8.6e-05
0.3	308.15	0.003192	7e-05
0.3	313.15	0.002669	5.8e-05
0.3	318.15	0.002264	4.9e-05
0.3	323.15	0.001945	4.2e-05
0.4	303.15	0.006081	0.000134
0.4	308.15	0.004853	0.000108
0.4	313.15	0.003838	8.5e-05
0.4	318.15	0.003182	7e-05
0.4	323.15	0.002681	5.9e-05

System: N,N,N',N'-tetramethyl-1,3-propanediamine + water; phases: Liquid
Fixed: Pressure, kPa = 101
Property: Binary diffusion coefficient, m2/s (Liquid); method: Taylor dispersion method
Mass fraction of N,N,N',N'-tetramethyl-1,3-propanediamine	Temperature, K	Binary diffusion coefficient, m2/s	uncertainty
0	303.15	7.01e-10	0.033
0	308.15	7.99e-10	0.037
0	313.15	9.04e-10	0.041
0	318.15	1.01e-09	0.046
0	323.15	1.083e-09	0.049
0.1	303.15	4.86e-10	0.024
0.1	308.15	5.53e-10	0.027
0.1	313.15	6.16e-10	0.029
0.1	318.15	6.82e-10	0.032
0.1	323.15	7.48e-10	0.035
0.2	303.15	3.74e-10	0.02
0.2	308.15	4.41e-10	0.022
0.2	313.15	4.83e-10	0.024
0.2	318.15	5.41e-10	0.026
0.2	323.15	6.07e-10	0.029
0.3	303.15	3.05e-10	0.017
0.3	308.15	3.57e-10	0.019
0.3	313.15	4.09e-10	0.021
0.3	318.15	4.58e-10	0.023
0.3	323.15	5.14e-10	0.025
0.4	303.15	2.56e-10	0.015
0.4	308.15	2.89e-10	0.016
0.4	313.15	3.45e-10	0.018
0.4	318.15	3.82e-10	0.02
0.4	323.15	4.32e-10	0.022
