Measured thermophysical data. Experimental investigation for the solubility of R1234ze(E) in pentaerythritol tetrahexanoate and pentaerythritol tetraoctanoate
Source: Fluid Phase Equilib., 2015, 10.1016/j.fluid.2015.05.008
Compound 1: trans-1,3,3,3-tetrafluoropropene, C3H2F4, InChI=1S/C3H2F4/c4-2-1-3(5,6)7/h1-2H/b2-1+, purity 99.9%
Compound 2: pentaerythritol tetrahexanoate, C29H52O8, InChI=1S/C29H52O8/c1-5-9-13-17-25(30)34-21-29(22-35-26(31)18-14-10-6-2,23-36-27(32)19-15-11-7-3)24-37-28(33)20-16-12-8-4/h5-24H2,1-4H3, purity 98%
Compound 3: pentaerythritol tetraoctanoate, C37H68O8, InChI=1S/C37H68O8/c1-5-9-13-17-21-25-33(38)42-29-37(30-43-34(39)26-22-18-14-10-6-2,31-44-35(40)27-23-19-15-11-7-3)32-45-36(41)28-24-20-16-12-8-4/h5-32H2,1-4H3, purity 98%

System: pentaerythritol tetrahexanoate + trans-1,3,3,3-tetrafluoropropene; phases: Liquid, Gas
Property: Mole fraction of trans-1,3,3,3-tetrafluoropropene (Liquid); method: Phase equilibration
Temperature, K	Pressure, kPa	Mole fraction of trans-1,3,3,3-tetrafluoropropene	uncertainty
283.15	50	0.2105	0.009
283.15	127	0.4553	0.015
283.15	177	0.5867	0.0184
283.15	222	0.6979	0.0216
283.15	259	0.7965	0.0246
283.15	280	0.868	0.0271
283.15	292	0.9193	0.0289
293.15	61	0.1858	0.0073
293.15	159	0.4178	0.0134
293.15	228	0.5506	0.017
293.15	293	0.6692	0.0204
293.15	351	0.7789	0.0237
293.15	386	0.8595	0.0263
293.15	403	0.9161	0.0283
303.15	72	0.1609	0.006
303.15	191	0.3781	0.0119
303.15	279	0.5093	0.0156
303.15	370	0.6329	0.0192
303.15	459	0.7546	0.0228
303.15	516	0.8475	0.0257
303.15	544	0.9115	0.0277
313.15	82	0.1391	0.0051
313.15	221	0.3386	0.0106
313.15	329	0.465	0.0142
313.15	447	0.5902	0.0179
313.15	578	0.7218	0.0218
313.15	672	0.83	0.025
313.15	725	0.905	0.0273
323.15	92	0.1197	0.0043
323.15	249	0.3015	0.0093
323.15	376	0.4207	0.0128
323.15	521	0.5435	0.0165
323.15	699	0.6804	0.0205
323.15	849	0.8047	0.0242
323.15	945	0.8956	0.0269
333.15	101	0.1034	0.0036
333.15	275	0.2675	0.0082
333.15	418	0.3786	0.0115
333.15	589	0.4964	0.0151
333.15	813	0.633	0.0191
333.15	1036	0.769	0.0231
333.15	1203	0.8811	0.0265
343.15	109	0.089	0.0031
343.15	299	0.2374	0.0073
343.15	457	0.3404	0.0103
343.15	650	0.4514	0.0137
343.15	916	0.584	0.0176
343.15	1215	0.7237	0.0218
343.15	1495	0.8582	0.0258
353.15	116	0.0771	0.0026
353.15	327	0.211	0.0065
353.15	498	0.3062	0.0093
353.15	705	0.41	0.0124
353.15	1008	0.5366	0.0162
353.15	1375	0.674	0.0203
353.15	1795	0.8219	0.0247

System: pentaerythritol tetraoctanoate + trans-1,3,3,3-tetrafluoropropene; phases: Liquid, Gas
Property: Mole fraction of trans-1,3,3,3-tetrafluoropropene (Liquid); method: Phase equilibration
Temperature, K	Pressure, kPa	Mole fraction of trans-1,3,3,3-tetrafluoropropene	uncertainty
283.15	61	0.2393	0.0092
283.15	148	0.489	0.0157
283.15	206	0.6259	0.0194
283.15	252	0.7355	0.0227
283.15	283	0.8271	0.0258
283.15	296	0.891	0.0285
283.15	300	0.9355	0.0309
293.15	73	0.2089	0.0076
293.15	181	0.4448	0.0141
293.15	260	0.5839	0.0179
293.15	330	0.7029	0.0214
293.15	384	0.8084	0.0247
293.15	408	0.8829	0.0275
293.15	416	0.9326	0.0306
303.15	84	0.1805	0.0064
303.15	213	0.3994	0.0125
303.15	313	0.5363	0.0164
303.15	412	0.6611	0.02
303.15	502	0.7813	0.0236
303.15	547	0.8709	0.0266
303.15	561	0.9286	0.0291
313.15	94	0.1549	0.0054
313.15	242	0.3555	0.011
313.15	362	0.4866	0.0149
313.15	491	0.6122	0.0185
313.15	630	0.7431	0.0224
313.15	715	0.8526	0.0258
313.15	745	0.9228	0.0281
323.15	103	0.1326	0.0046
323.15	268	0.315	0.0097
323.15	407	0.4381	0.0133
323.15	563	0.5605	0.017
323.15	754	0.6948	0.0209
323.15	907	0.8239	0.0248
323.15	969	0.9141	0.0276
333.15	112	0.1135	0.0039
333.15	292	0.2787	0.0086
333.15	447	0.393	0.012
333.15	627	0.5097	0.0154
333.15	864	0.6411	0.0193
333.15	1103	0.7815	0.0235
333.15	1241	0.9002	0.0271
343.15	120	0.097	0.0033
343.15	314	0.2468	0.0076
343.15	483	0.3523	0.0107
343.15	683	0.4624	0.014
343.15	959	0.5876	0.0177
343.15	1279	0.7284	0.0219
343.15	1551	0.8751	0.0263
353.15	126	0.0824	0.0028
353.15	343	0.2191	0.0067
353.15	519	0.3164	0.0096
353.15	735	0.4198	0.0127
353.15	1043	0.5377	0.0162
353.15	1428	0.6739	0.0203
353.15	1860	0.8306	0.0249
