Measured thermophysical data. Sodium salts solubility in ternary glycerol+water+alcohol mixtures present in purification process of crude glycerol from the biodiesel industry
Source: Fluid Phase Equilib., 2019, 10.1016/j.fluid.2019.05.023
Compound 1: sodium chloride, ClNa, InChI=1S/ClH.Na/h1H;/q;+1/p-1
Compound 2: trisodium phosphate, Na3O4P, InChI=1S/3Na.H3O4P/c;;;1-5(2,3)4/h;;;(H3,1,2,3,4)/q3*+1;/p-3
Compound 3: sodium sulfate, Na2O4S, InChI=1S/2Na.H2O4S/c;;1-5(2,3)4/h;;(H2,1,2,3,4)/q2*+1;/p-2
Compound 4: glycerol, C3H8O3, InChI=1S/C3H8O3/c4-1-3(6)2-5/h3-6H,1-2H2
Compound 5: water, H2O, InChI=1S/H2O/h1H2, purity 99.8%

System: sodium chloride + glycerol + water; phases: Liquid, Crystal
Fixed: Pressure, kPa = 100
Property: Mass ratio of solute to solvent of sodium chloride (Liquid); method: gravimetric
Temperature, K	Solvent: Mass fraction of glycerol	Mass ratio of solute to solvent of sodium chloride	uncertainty
303	0.667	0.12728	0.00078
303	0.8	0.10298	0.00081
303	0.9	0.08473	0.00265
293	0.8	0.09894	0.00158
313	0.8	0.11382	0.00055

System: sodium sulfate + glycerol + water; phases: Liquid, Crystal
Fixed: Pressure, kPa = 100
Property: Mass ratio of solute to solvent of sodium sulfate (Liquid); method: gravimetric
Temperature, K	Solvent: Mass fraction of glycerol	Mass ratio of solute to solvent of sodium sulfate	uncertainty
303	0.667	0.05215	0.00106
303	0.8	0.02958	0.00169
293	0.8	0.03037	0.00026
313	0.8	0.02793	9e-05

System: trisodium phosphate + glycerol + water; phases: Liquid, Crystal
Fixed: Solvent: Mass fraction of glycerol = 0.8
Fixed: Pressure, kPa = 100
Property: Mass ratio of solute to solvent of trisodium phosphate (Liquid); method: UV-vis spectrophotometry
Temperature, K	Mass ratio of solute to solvent of trisodium phosphate	uncertainty
293	0.01184	0.00038
303	0.01059	0.00048
313	0.01051	0.00045
