Measured thermophysical data. Selection of entrainers for the separation of the binary azeotropic system methanol + dimethyl carbonate by extractive distillation
Source: Fluid Phase Equilib., 2011, 10.1016/j.fluid.2011.08.007
Compound 1: methanol, CH4O, InChI=1S/CH4O/c1-2/h2H,1H3
Compound 2: dimethyl carbonate, C3H6O3, InChI=1S/C3H6O3/c1-5-3(4)6-2/h1-2H3
Compound 3: 2-ethoxyethan-1-ol, C4H10O2, InChI=1S/C4H10O2/c1-2-6-4-3-5/h5H,2-4H2,1H3
Compound 4: 4-methylpentan-2-one, C6H12O, InChI=1S/C6H12O/c1-5(2)4-6(3)7/h5H,4H2,1-3H3

System: methanol + dimethyl carbonate; phases: Liquid, Gas
Property: Azeotropic pressure, kPa (Liquid); method: By X=Y
Temperature, K	Azeotropic pressure, kPa	uncertainty
0.838	66.66	0.46
0.848	93.32	0.59

System: methanol + dimethyl carbonate; phases: Gas, Liquid
Property: Vapor or sublimation pressure, kPa (Gas); method: Closed cell (Static) method
Temperature, K	Mole fraction of methanol	Vapor or sublimation pressure, kPa	uncertainty
326.41	0.843	66.66	0.23
326.43	0.814	66.66	0.23
326.47	0.885	66.66	0.23
326.48	0.802	66.66	0.23
326.52	0.905	66.66	0.23
326.55	0.765	66.66	0.23
326.69	0.92	66.66	0.24
326.97	0.668	66.66	0.24
327.13	0.651	66.66	0.24
327.36	1	66.66	0.23
327.49	0.597	66.66	0.24
328.15	0.5	66.66	0.23
328.5	0.443	66.66	0.23
329.87	0.352	66.66	0.24
330.24	0.318	66.66	0.24
330.95	0.287	66.66	0.25
331.92	0.251	66.66	0.28
334.44	0.173	66.66	0.27
334.67	0.843	93.32	0.31
334.76	0.862	93.32	0.31
334.79	0.896	93.32	0.31
334.86	0.787	93.32	0.31
334.89	0.921	93.32	0.31
335.02	0.946	93.32	0.31
335.17	0.716	93.32	0.31
335.33	0.667	93.32	0.31
335.56	1	93.32	0.31
336.11	0.575	93.32	0.32
337.32	0.118	66.66	0.31
337.35	0.451	93.32	0.32
338.55	0.377	93.32	0.33
338.57	0.096	66.66	0.31
339.25	0.337	93.32	0.37
340.04	0.079	66.66	0.36
341.25	0.254	93.32	0.42
341.62	0.059	66.66	0.36
343.34	0.202	93.32	0.44
344.85	0.17	93.32	0.44
345.93	0.151	93.32	0.32
347.15	0.131	93.32	0.79
348.86	0.106	93.32	0.74
350.51	0.079	93.32	0.75
350.64	0	66.66	0.23
352.11	0.065	93.32	0.75
354.2	0.045	93.32	0.32
360.72	0	93.32	0.31

System: methanol + dimethyl carbonate; phases: Gas, Liquid
Property: Mole fraction of methanol (Gas); method: Chromatography
Temperature, K	Mole fraction of methanol	Mole fraction of methanol	uncertainty
326.41	0.843	0.839	0.003
326.43	0.814	0.827	0.003
326.47	0.885	0.866	0.003
326.48	0.802	0.82	0.003
326.52	0.905	0.879	0.003
326.55	0.765	0.8	0.003
326.69	0.92	0.893	0.003
326.97	0.668	0.76	0.003
327.13	0.651	0.756	0.003
327.36	1	1	
327.49	0.597	0.736	0.003
328.15	0.5	0.699	0.003
328.5	0.443	0.68	0.003
329.87	0.352	0.642	0.004
330.24	0.318	0.629	0.004
330.95	0.287	0.614	0.004
331.92	0.251	0.591	0.004
334.44	0.173	0.514	0.005
334.67	0.843	0.841	0.003
334.76	0.862	0.855	0.003
334.79	0.896	0.878	0.003
334.86	0.787	0.816	0.003
334.89	0.921	0.899	0.003
335.02	0.946	0.924	0.003
335.17	0.716	0.785	0.003
335.33	0.667	0.771	0.003
335.56	1	1	
336.11	0.575	0.743	0.003
337.32	0.118	0.451	0.005
337.35	0.451	0.7	0.003
338.55	0.377	0.671	0.004
338.57	0.096	0.401	0.005
339.25	0.337	0.652	0.004
340.04	0.079	0.358	0.005
341.25	0.254	0.608	0.005
341.62	0.059	0.306	0.005
343.34	0.202	0.552	0.006
344.85	0.17	0.509	0.006
345.93	0.151	0.479	0.005
347.15	0.131	0.456	0.012
348.86	0.106	0.402	0.01
350.51	0.079	0.348	0.01
350.64	0	0	
352.11	0.065	0.3	0.009
354.2	0.045	0.23	0.003
360.72	0	0	

System: methanol + 2-ethoxyethan-1-ol; phases: Gas, Liquid
Property: Vapor or sublimation pressure, kPa (Gas); method: Closed cell (Static) method
Temperature, K	Mole fraction of methanol	Vapor or sublimation pressure, kPa	uncertainty
327.36	1	66.66	0.23
328.12	0.97	66.66	0.28
329.19	0.926	66.66	0.28
330.96	0.861	66.66	0.29
333.1	0.786	66.66	0.29
335.56	1	93.32	0.31
335.89	0.7	66.66	0.27
336	0.989	93.32	0.35
336.36	0.975	93.32	0.36
336.59	0.665	66.66	0.26
336.71	0.962	93.32	0.36
337.25	0.935	93.32	0.34
338.21	0.899	93.32	0.36
338.3	0.628	66.66	0.31
339.09	0.868	93.32	0.36
339.47	0.855	93.32	0.36
339.83	0.59	66.66	0.32
340.06	0.834	93.32	0.36
340.77	0.568	66.66	0.34
341.73	0.781	93.32	0.37
343.42	0.726	93.32	0.37
345.01	0.468	66.66	0.34
345.39	0.675	93.32	0.39
346.09	0.448	66.66	0.38
346.33	0.652	93.32	0.39
348.04	0.408	66.66	0.36
348.32	0.604	93.32	0.39
349.39	0.577	93.32	0.39
350.25	0.371	66.66	0.38
350.54	0.55	93.32	0.4
351.43	0.352	66.66	0.38
352.68	0.504	93.32	0.44
353.68	0.316	66.66	0.39
354.29	0.475	93.32	0.44
355.18	0.295	66.66	0.39
356.56	0.275	66.66	0.42
358.15	0.258	66.66	0.43
359.72	0.381	93.32	0.48
361.47	0.218	66.66	0.45
362.54	0.203	66.66	0.44
365.92	0.289	93.32	0.56
366.36	0.17	66.66	0.52
368.3	0.258	93.32	0.58
369.45	0.139	66.66	0.55
369.64	0.244	93.32	0.59
370.78	0.232	93.32	0.59
378.75	0.074	66.66	0.64
383.11	0.123	93.32	0.83
384.35	0.044	66.66	0.76
386.53	0.097	93.32	0.88
389.6	0.02	66.66	0.86
392.78	0.06	93.32	1.09
394.56	0	66.66	0.23
395.43	0.045	93.32	1.11
399.52	0.024	93.32	1.12
405.25	0	93.32	0.31

System: methanol + 2-ethoxyethan-1-ol; phases: Gas, Liquid
Property: Mole fraction of methanol (Gas); method: Chromatography
Temperature, K	Mole fraction of methanol	Mole fraction of methanol	uncertainty
327.36	1	1	
328.12	0.97	0.998	0.002
329.19	0.926	0.995	0.002
330.96	0.861	0.99	0.002
333.1	0.786	0.983	0.002
335.56	1	1	
335.89	0.7	0.973	0.002
336	0.989	0.999	0.001
336.36	0.975	0.998	0.002
336.59	0.665	0.969	0.002
336.71	0.962	0.997	0.002
337.25	0.935	0.995	0.002
338.21	0.899	0.992	0.002
338.3	0.628	0.964	0.002
339.09	0.868	0.989	0.002
339.47	0.855	0.988	0.002
339.83	0.59	0.957	0.002
340.06	0.834	0.986	0.002
340.77	0.568	0.952	0.002
341.73	0.781	0.98	0.002
343.42	0.726	0.973	0.002
345.01	0.468	0.929	0.002
345.39	0.675	0.965	0.002
346.09	0.448	0.923	0.002
346.33	0.652	0.961	0.002
348.04	0.408	0.912	0.002
348.32	0.604	0.952	0.002
349.39	0.577	0.947	0.002
350.25	0.371	0.895	0.002
350.54	0.55	0.941	0.002
351.43	0.352	0.887	0.002
352.68	0.504	0.928	0.002
353.68	0.316	0.869	0.002
354.29	0.475	0.918	0.002
355.18	0.295	0.853	0.003
356.56	0.275	0.839	0.003
358.15	0.258	0.826	0.003
359.72	0.381	0.881	0.002
361.47	0.218	0.789	0.003
362.54	0.203	0.772	0.003
365.92	0.289	0.821	0.003
366.36	0.17	0.723	0.004
368.3	0.258	0.794	0.003
369.45	0.139	0.678	0.004
369.64	0.244	0.78	0.003
370.78	0.232	0.768	0.004
378.75	0.074	0.499	0.006
383.11	0.123	0.593	0.007
384.35	0.044	0.349	0.007
386.53	0.097	0.52	0.008
389.6	0.02	0.179	0.008
392.78	0.06	0.384	0.013
394.56	0	0	
395.43	0.045	0.309	0.014
399.52	0.024	0.184	0.014
405.25	0	0	

System: 2-ethoxyethan-1-ol + dimethyl carbonate; phases: Gas, Liquid
Property: Vapor or sublimation pressure, kPa (Gas); method: Closed cell (Static) method
Temperature, K	Mole fraction of dimethyl carbonate	Vapor or sublimation pressure, kPa	uncertainty
350.64	1	66.66	0.23
350.98	0.985	66.66	0.26
352.21	0.918	66.66	0.25
352.8	0.885	66.66	0.25
353.38	0.854	66.66	0.25
353.97	0.823	66.66	0.25
354.57	0.792	66.66	0.25
355.15	0.764	66.66	0.25
356.78	0.685	66.66	0.26
357.47	0.655	66.66	0.26
357.96	0.632	66.66	0.25
358.58	0.607	66.66	0.26
359.1	0.584	66.66	0.26
360.24	0.543	66.66	0.27
360.72	1	93.32	0.31
360.82	0.988	93.32	0.31
361.6	0.494	66.66	0.26
361.71	0.942	93.32	0.33
362.35	0.914	93.32	0.32
362.38	0.47	66.66	0.28
362.82	0.888	93.32	0.32
363.35	0.861	93.32	0.33
363.44	0.441	66.66	0.27
363.77	0.839	93.32	0.33
364.12	0.421	66.66	0.29
364.22	0.817	93.32	0.33
364.65	0.795	93.32	0.33
365.12	0.774	93.32	0.33
365.56	0.753	93.32	0.33
366	0.732	93.32	0.33
366.29	0.363	66.66	0.28
366.7	0.695	93.32	0.33
367.4	0.334	66.66	0.3
368.2	0.628	93.32	0.34
368.28	0.314	66.66	0.29
369.04	0.597	93.32	0.34
369.13	0.294	66.66	0.31
370.74	0.542	93.32	0.35
371.66	0.511	93.32	0.34
372.18	0.241	66.66	0.32
372.68	0.478	93.32	0.35
373.65	0.45	93.32	0.36
374.62	0.422	93.32	0.36
375.47	0.182	66.66	0.34
376.13	0.386	93.32	0.4
377.24	0.157	66.66	0.36
378.02	0.341	93.32	0.41
378.81	0.137	66.66	0.38
380.14	0.293	93.32	0.43
382.23	0.255	93.32	0.46
382.38	0.093	66.66	0.4
387.75	0.046	66.66	0.49
387.99	0.168	93.32	0.53
393.42	0.105	93.32	0.63
394.56	0	66.66	0.23
400.16	0.04	93.32	0.52
405.25	0	93.32	0.31

System: 2-ethoxyethan-1-ol + dimethyl carbonate; phases: Gas, Liquid
Property: Mole fraction of dimethyl carbonate (Gas); method: Chromatography
Mole fraction of dimethyl carbonate	Temperature, K	Mole fraction of dimethyl carbonate	uncertainty
0	394.56	0	
0	405.25	0	
0.04	400.16	0.178	0.049
0.046	387.75	0.237	0.048
0.093	382.38	0.401	0.03
0.105	393.42	0.385	0.072
0.137	378.81	0.503	0.025
0.157	377.24	0.541	0.021
0.168	387.99	0.522	0.047
0.182	375.47	0.582	0.018
0.241	372.18	0.658	0.014
0.255	382.23	0.644	0.03
0.293	380.14	0.682	0.024
0.294	369.13	0.711	0.014
0.314	368.28	0.727	0.01
0.334	367.4	0.743	0.013
0.341	378.02	0.721	0.02
0.363	366.29	0.764	0.009
0.386	376.13	0.755	0.017
0.421	364.12	0.799	0.008
0.422	374.62	0.779	0.01
0.441	363.44	0.808	0.008
0.45	373.65	0.794	0.011
0.47	362.38	0.821	0.009
0.478	372.68	0.81	0.009
0.494	361.6	0.832	0.007
0.511	371.66	0.826	0.007
0.542	370.74	0.838	0.007
0.543	360.24	0.854	0.006
0.584	359.1	0.868	0.008
0.597	369.04	0.86	0.007
0.607	358.58	0.877	0.008
0.628	368.2	0.872	0.007
0.632	357.96	0.885	0.007
0.655	357.47	0.893	0.007
0.685	356.78	0.901	0.005
0.695	366.7	0.895	0.007
0.732	366	0.908	0.007
0.753	365.56	0.915	0.007
0.764	355.15	0.925	0.007
0.774	365.12	0.922	0.007
0.792	354.57	0.934	0.007
0.795	364.65	0.929	0.006
0.817	364.22	0.935	0.006
0.823	353.97	0.942	0.007
0.839	363.77	0.943	0.007
0.854	353.38	0.952	0.006
0.861	363.35	0.95	0.007
0.885	352.8	0.961	0.006
0.888	362.82	0.96	0.006
0.914	362.35	0.968	0.006
0.918	352.21	0.972	0.007
0.942	361.71	0.978	0.007
0.985	350.98	0.994	0.005
0.988	360.82	0.995	0.005
1	350.64	1	
1	360.72	1	

System: methanol + 4-methylpentan-2-one; phases: Gas, Liquid
Property: Vapor or sublimation pressure, kPa (Gas); method: Closed cell (Static) method
Temperature, K	Mole fraction of methanol	Vapor or sublimation pressure, kPa	uncertainty
327.36	1	66.66	0.23
327.51	0.988	66.66	0.24
327.7	0.967	66.66	0.24
328.18	0.923	66.66	0.24
328.66	0.882	66.66	0.24
329.19	0.832	66.66	0.24
329.76	0.785	66.66	0.25
330.28	0.752	66.66	0.24
330.66	0.72	66.66	0.24
331.3	0.665	66.66	0.24
332.29	0.602	66.66	0.26
333.05	0.559	66.66	0.26
334.08	0.507	66.66	0.25
334.88	0.463	66.66	0.25
335.56	1	93.32	0.31
336.1	0.951	93.32	0.32
336.24	0.415	66.66	0.28
336.54	0.917	93.32	0.32
336.99	0.883	93.32	0.32
337.53	0.841	93.32	0.32
337.79	0.822	93.32	0.32
338	0.358	66.66	0.3
338.27	0.784	93.32	0.32
338.98	0.74	93.32	0.33
339.78	0.684	93.32	0.31
339.89	0.667	93.32	0.31
340.46	0.629	93.32	0.33
341.06	0.275	66.66	0.3
341.71	0.564	93.32	0.33
343.6	0.225	66.66	0.33
344.08	0.461	93.32	0.35
345.66	0.402	93.32	0.34
346.42	0.192	66.66	0.39
346.77	0.358	93.32	0.42
349.1	0.303	93.32	0.49
350.63	0.141	66.66	0.48
350.8	0.266	93.32	0.52
354.38	0.21	93.32	0.66
359.35	0.072	66.66	0.62
363.12	0.123	93.32	0.35
366.7	0.096	93.32	0.32
375.07	0	66.66	0.23
377.15	0.035	93.32	1.28
386.25	0	93.32	0.31

System: methanol + 4-methylpentan-2-one; phases: Gas, Liquid
Property: Mole fraction of methanol (Gas); method: Chromatography
Mole fraction of methanol	Temperature, K	Mole fraction of methanol	uncertainty
0	375.07	0	
0	386.25	0	
0.035	377.15	0.261	0.003
0.072	359.35	0.448	0.039
0.096	366.7	0.501	0.008
0.123	363.12	0.571	0.008
0.141	350.63	0.628	0.021
0.192	346.42	0.696	0.014
0.21	354.38	0.711	0.037
0.225	343.6	0.736	0.01
0.266	350.8	0.758	0.021
0.275	341.06	0.769	0.009
0.303	349.1	0.779	0.018
0.358	338	0.812	0.007
0.358	346.77	0.808	0.013
0.402	345.66	0.822	0.007
0.415	336.24	0.832	0.005
0.461	344.08	0.847	0.009
0.463	334.88	0.844	0.006
0.507	334.08	0.855	0.006
0.559	333.05	0.87	0.006
0.564	341.71	0.874	0.006
0.602	332.29	0.881	0.006
0.629	340.46	0.89	0.005
0.665	331.3	0.897	0.007
0.667	339.89	0.898	0.005
0.684	339.78	0.9	0.004
0.72	330.66	0.914	0.004
0.74	338.98	0.912	0.005
0.752	330.28	0.92	0.004
0.784	338.27	0.922	0.005
0.785	329.76	0.923	0.003
0.822	337.79	0.931	0.005
0.832	329.19	0.934	0.005
0.841	337.53	0.936	0.006
0.882	328.66	0.948	0.007
0.883	336.99	0.947	0.008
0.917	336.54	0.96	0.009
0.923	328.18	0.962	0.007
0.951	336.1	0.975	0.009
0.967	327.7	0.982	0.011
0.988	327.51	0.993	0.007
1	327.36	1	
1	335.56	1	

System: 4-methylpentan-2-one + dimethyl carbonate; phases: Gas, Liquid
Property: Vapor or sublimation pressure, kPa (Gas); method: Closed cell (Static) method
Temperature, K	Mole fraction of dimethyl carbonate	Vapor or sublimation pressure, kPa	uncertainty
350.64	1	66.66	0.23
351.22	0.948	66.66	0.24
352.12	0.873	66.66	0.24
352.79	0.827	66.66	0.24
353.28	0.79	66.66	0.24
353.77	0.756	66.66	0.24
354.28	0.722	66.66	0.24
355.42	0.655	66.66	0.24
356.11	0.613	66.66	0.24
356.81	0.574	66.66	0.25
357.5	0.537	66.66	0.25
358.21	0.506	66.66	0.26
359.68	0.438	66.66	0.25
360.36	0.405	66.66	0.25
360.72	1	93.32	0.31
361.33	0.948	93.32	0.32
361.49	0.358	66.66	0.26
362.32	0.876	93.32	0.32
362.94	0.833	93.32	0.32
363.38	0.293	66.66	0.26
363.57	0.789	93.32	0.32
364.09	0.753	93.32	0.32
364.81	0.701	93.32	0.32
365.13	0.236	66.66	0.26
365.35	0.668	93.32	0.32
366.39	0.614	93.32	0.33
367.51	0.168	66.66	0.27
367.56	0.556	93.32	0.33
368.99	0.491	93.32	0.33
369.04	0.131	66.66	0.28
370.24	0.102	66.66	0.29
370.98	0.408	93.32	0.33
371.61	0.071	66.66	0.3
372.29	0.352	93.32	0.35
372.84	0.044	66.66	0.3
373.65	0.306	93.32	0.36
374.95	0.265	93.32	0.37
375.07	0	66.66	0.23
377.35	0.198	93.32	0.38
379.46	0.144	93.32	0.38
381.04	0.106	93.32	0.37
383.6	0.051	93.32	0.38
386.25	0	93.32	0.31

System: 4-methylpentan-2-one + dimethyl carbonate; phases: Gas, Liquid
Property: Mole fraction of dimethyl carbonate (Gas); method: Chromatography
Mole fraction of dimethyl carbonate	Temperature, K	Mole fraction of dimethyl carbonate	uncertainty
0	375.07	0	
0	386.25	0	
0.044	372.84	0.107	0.032
0.051	383.6	0.12	0.042
0.071	371.61	0.166	0.029
0.102	370.24	0.227	0.029
0.106	381.04	0.231	0.034
0.131	369.04	0.279	0.025
0.144	379.46	0.295	0.042
0.168	367.51	0.34	0.022
0.198	377.35	0.379	0.039
0.236	365.13	0.44	0.019
0.265	374.95	0.469	0.036
0.293	363.38	0.51	0.017
0.306	373.65	0.518	0.032
0.352	372.29	0.567	0.029
0.358	361.49	0.581	0.018
0.405	360.36	0.624	0.016
0.408	370.98	0.616	0.018
0.438	359.68	0.651	0.013
0.491	368.99	0.686	0.021
0.506	358.21	0.702	0.016
0.537	357.5	0.726	0.014
0.556	367.56	0.734	0.012
0.574	356.81	0.751	0.013
0.613	356.11	0.776	0.012
0.614	366.39	0.769	0.014
0.655	355.42	0.801	0.012
0.668	365.35	0.807	0.012
0.701	364.81	0.827	0.012
0.722	354.28	0.842	0.012
0.753	364.09	0.857	0.012
0.756	353.77	0.862	0.011
0.789	363.57	0.878	0.012
0.79	353.28	0.88	0.01
0.827	352.79	0.899	0.01
0.833	362.94	0.901	0.011
0.873	352.12	0.926	0.012
0.876	362.32	0.925	0.011
0.948	351.22	0.97	0.012
0.948	361.33	0.969	0.012
1	350.64	1	
1	360.72	1	

System: methanol + 2-ethoxyethan-1-ol + dimethyl carbonate; phases: Liquid, Gas
Property: Mole fraction of dimethyl carbonate (Liquid); method: Chromatography
Property: Mole fraction of dimethyl carbonate (Gas); method: Chromatography
Property: Mole fraction of methanol (Gas); method: Chromatography
Temperature, K	Pressure, kPa	Mole fraction of methanol	Mole fraction of dimethyl carbonate	uncertainty	Mole fraction of dimethyl carbonate	uncertainty	Mole fraction of methanol	uncertainty
355.06	66.66	0.036	0.564	0.004	0.742	0.003	0.158	
344.09	66.66	0.071	0.832	0.002	0.643	0.004	0.339	
354.44	66.66	0.079	0.441	0.004	0.583	0.004	0.318	
363.53	66.66	0.084	0.224	0.003	0.444	0.004	0.37	
340.21	66.66	0.086	0.904	0.002	0.581	0.004	0.417	
370.73	66.66	0.11	0.053	0.002	0.152	0.002	0.55	
338	66.66	0.161	0.748	0.003	0.473	0.005	0.516	
345.22	66.66	0.179	0.481	0.004	0.452	0.004	0.513	
334.36	66.66	0.183	0.807	0.002	0.433	0.004	0.566	
358.28	66.66	0.241	0.016	0.002	0.043	0.002	0.786	
331.75	66.66	0.261	0.73	0.003	0.385	0.004	0.615	
352.62	66.66	0.317	0.022	0.002	0.05	0.002	0.829	
332.36	66.66	0.337	0.581	0.004	0.352	0.004	0.641	
350.66	66.66	0.34	0.024	0.002	0.053	0.002	0.841	
341.86	66.66	0.346	0.259	0.003	0.275	0.003	0.685	
330.97	66.66	0.351	0.603	0.003	0.342	0.004	0.655	
329.53	66.66	0.369	0.622	0.003	0.333	0.004	0.667	
346.61	66.66	0.369	0.064	0.002	0.119	0.002	0.805	
336.05	66.66	0.38	0.391	0.003	0.309	0.003	0.672	
347.07	66.66	0.4	0.03	0.002	0.06	0.002	0.858	
332.69	66.66	0.412	0.45	0.004	0.31	0.003	0.68	
331.71	66.66	0.416	0.473	0.004	0.313	0.003	0.679	
343.53	66.66	0.417	0.086	0.002	0.137	0.002	0.807	
345.51	66.66	0.424	0.032	0.002	0.063	0.002	0.866	
339.12	66.66	0.426	0.188	0.002	0.226	0.003	0.739	
337.31	66.66	0.433	0.254	0.003	0.254	0.003	0.719	
330.58	66.66	0.433	0.491	0.004	0.307	0.003	0.688	
329.43	66.66	0.448	0.509	0.004	0.304	0.003	0.693	
341.51	66.66	0.45	0.095	0.002	0.143	0.002	0.811	
328.29	66.66	0.467	0.525	0.004	0.297	0.003	0.702	
333.99	66.66	0.483	0.294	0.003	0.261	0.003	0.722	
342.5	66.66	0.485	0.039	0.002	0.07	0.002	0.876	
335.08	66.66	0.496	0.224	0.003	0.23	0.003	0.748	
337.2	66.66	0.509	0.042	0.002	0.073	0.002	0.879	
331.9	66.66	0.514	0.322	0.003	0.261	0.003	0.728	
333.84	66.66	0.52	0.235	0.003	0.234	0.003	0.749	
330.93	66.66	0.532	0.334	0.003	0.261	0.003	0.728	
329.9	66.66	0.548	0.348	0.003	0.26	0.003	0.734	
335.74	66.66	0.557	0.128	0.002	0.163	0.002	0.813	
331.64	66.66	0.564	0.258	0.003	0.235	0.003	0.754	
328.97	66.66	0.568	0.361	0.003	0.259	0.003	0.736	
330.64	66.66	0.585	0.268	0.003	0.234	0.003	0.757	
328.05	66.66	0.587	0.372	0.003	0.256	0.003	0.742	
329.67	66.66	0.608	0.279	0.003	0.235	0.003	0.759	
327.16	66.66	0.608	0.384	0.003	0.256	0.003	0.744	
332.92	66.66	0.621	0.148	0.002	0.172	0.003	0.813	
335.23	66.66	0.643	0.058	0.002	0.089	0.002	0.887	
327.81	66.66	0.654	0.299	0.003	0.232	0.003	0.765	
330.48	66.66	0.677	0.168	0.002	0.18	0.003	0.811	
329.36	66.66	0.707	0.176	0.002	0.181	0.003	0.812	
328.3	66.66	0.737	0.184	0.002	0.183	0.003	0.813	
331.56	66.66	0.739	0.07	0.002	0.099	0.002	0.888	
330.72	66.66	0.765	0.074	0.002	0.102	0.002	0.887	
329.9	66.66	0.79	0.077	0.002	0.103	0.002	0.886	
326.37	66.66	0.797	0.2	0.003	0.184	0.003	0.815	
329.16	66.66	0.814	0.08	0.002	0.107	0.002	0.886	
327.7	66.66	0.862	0.086	0.002	0.111	0.002	0.886	
327.03	66.66	0.885	0.09	0.002	0.114	0.002	0.885	
396.41	93.32	0.012	0.031	0.002	0.139	0.002	0.092	
366.92	93.32	0.013	0.608	0.003	0.814	0.003	0.09	
377.72	93.32	0.024	0.271	0.003	0.599	0.004	0.133	
376.33	93.32	0.027	0.291	0.003	0.612	0.004	0.14	
383.09	93.32	0.069	0.109	0.002	0.291	0.003	0.359	
386.83	93.32	0.084	0.029	0.002	0.092	0.002	0.45	
355.58	93.32	0.108	0.635	0.003	0.571	0.004	0.384	
353.06	93.32	0.117	0.691	0.003	0.555	0.004	0.414	
349.08	93.32	0.135	0.766	0.003	0.525	0.005	0.461	
346.91	93.32	0.147	0.803	0.003	0.501	0.005	0.493	
373.59	93.32	0.196	0.021	0.002	0.052	0.002	0.691	
363.31	93.32	0.199	0.189	0.002	0.301	0.003	0.569	
371.45	93.32	0.212	0.023	0.002	0.054	0.002	0.708	
350.01	93.32	0.233	0.534	0.004	0.406	0.004	0.565	
369.27	93.32	0.235	0.025	0.002	0.056	0.002	0.74	
352.51	93.32	0.238	0.462	0.004	0.384	0.004	0.577	
345.62	93.32	0.243	0.632	0.003	0.405	0.004	0.582	
344.03	93.32	0.248	0.667	0.003	0.398	0.004	0.593	
366.54	93.32	0.257	0.045	0.002	0.088	0.002	0.729	
367.09	93.32	0.258	0.027	0.002	0.059	0.002	0.764	
342.23	93.32	0.259	0.699	0.003	0.391	0.004	0.605	
363.69	93.32	0.265	0.089	0.002	0.149	0.002	0.701	
345.89	93.32	0.327	0.472	0.004	0.34	0.004	0.639	
344.46	93.32	0.333	0.499	0.004	0.33	0.003	0.641	
359.8	93.32	0.338	0.064	0.002	0.107	0.002	0.784	
343.11	93.32	0.342	0.526	0.004	0.335	0.004	0.654	
341.85	93.32	0.347	0.553	0.004	0.334	0.004	0.645	
340.36	93.32	0.359	0.578	0.004	0.331	0.003	0.665	
339.02	93.32	0.369	0.607	0.003	0.325	0.003	0.673	
359.1	93.32	0.374	0.017	0.002	0.034	0.002	0.857	
356.01	93.32	0.401	0.048	0.002	0.081	0.002	0.835	
343.7	93.32	0.412	0.39	0.003	0.292	0.003	0.691	
355.86	93.32	0.426	0.021	0.002	0.038	0.002	0.873	
354.35	93.32	0.428	0.052	0.002	0.084	0.002	0.841	
341.19	93.32	0.432	0.437	0.004	0.298	0.003	0.692	
339.84	93.32	0.446	0.46	0.004	0.298	0.003	0.696	
352.76	93.32	0.453	0.059	0.002	0.092	0.002	0.843	
338.52	93.32	0.458	0.485	0.004	0.295	0.003	0.702	
350.48	93.32	0.462	0.11	0.002	0.145	0.002	0.805	
353.54	93.32	0.466	0.024	0.002	0.043	0.002	0.883	
344.09	93.32	0.479	0.28	0.003	0.243	0.003	0.736	
344.09	93.32	0.479	0.28	0.003	0.243	0.003	0.736	
349.48	93.32	0.5	0.085	0.002	0.116	0.002	0.834	
341.13	93.32	0.509	0.325	0.003	0.254	0.003	0.734	
347.32	93.32	0.513	0.129	0.002	0.156	0.002	0.808	
339.88	93.32	0.524	0.345	0.003	0.257	0.003	0.733	
348.48	93.32	0.526	0.082	0.002	0.112	0.002	0.844	
345.78	93.32	0.536	0.141	0.002	0.162	0.002	0.807	
338.69	93.32	0.541	0.362	0.003	0.257	0.003	0.736	
341.74	93.32	0.541	0.255	0.003	0.227	0.003	0.757	
346.93	93.32	0.546	0.097	0.002	0.125	0.002	0.838	
342.99	93.32	0.551	0.212	0.003	0.203	0.003	0.778	
337.56	93.32	0.562	0.377	0.003	0.252	0.003	0.744	
343.32	93.32	0.565	0.176	0.002	0.183	0.003	0.795	
341.77	93.32	0.567	0.227	0.003	0.208	0.003	0.777	
345.74	93.32	0.57	0.104	0.002	0.129	0.002	0.84	
342.2	93.32	0.576	0.203	0.003	0.195	0.003	0.788	
342.14	93.32	0.586	0.186	0.002	0.187	0.003	0.795	
341.03	93.32	0.596	0.216	0.003	0.198	0.003	0.788	
343.46	93.32	0.606	0.121	0.002	0.142	0.002	0.835	
339.91	93.32	0.615	0.228	0.003	0.202	0.003	0.787	
342.4	93.32	0.625	0.129	0.002	0.148	0.002	0.832	
339.86	93.32	0.634	0.205	0.003	0.191	0.003	0.797	
341.35	93.32	0.661	0.123	0.002	0.141	0.002	0.843	
340.31	93.32	0.668	0.144	0.002	0.156	0.002	0.831	
342.63	93.32	0.682	0.067	0.002	0.089	0.002	0.889	
340.32	93.32	0.683	0.13	0.002	0.145	0.002	0.842	
338.37	93.32	0.711	0.159	0.002	0.163	0.002	0.829	
337.46	93.32	0.734	0.166	0.002	0.165	0.003	0.829	
336.83	93.32	0.75	0.171	0.002	0.167	0.003	0.829	
339.03	93.32	0.762	0.086	0.002	0.107	0.002	0.882	
335.68	93.32	0.792	0.168	0.002	0.164	0.002	0.833	
339.29	93.32	0.807	0.038	0.002	0.056	0.002	0.933	
334.86	93.32	0.816	0.175	0.002	0.166	0.003	0.834	
336.67	93.32	0.827	0.098	0.002	0.117	0.002	0.879	
335.99	93.32	0.847	0.102	0.002	0.12	0.002	0.877	
337.76	93.32	0.855	0.042	0.002	0.06	0.002	0.933	
335.32	93.32	0.869	0.106	0.002	0.122	0.002	0.877	
337.03	93.32	0.879	0.043	0.002	0.062	0.002	0.933	
336.35	93.32	0.902	0.045	0.002	0.064	0.002	0.933	
335.67	93.32	0.926	0.047	0.002	0.067	0.002	0.932	

System: methanol + 4-methylpentan-2-one + dimethyl carbonate; phases: Liquid, Gas
Property: Mole fraction of dimethyl carbonate (Liquid); method: Chromatography
Property: Mole fraction of dimethyl carbonate (Gas); method: Chromatography
Property: Mole fraction of methanol (Gas); method: Chromatography
Temperature, K	Pressure, kPa	Mole fraction of methanol	Mole fraction of dimethyl carbonate	uncertainty	Mole fraction of dimethyl carbonate	uncertainty	Mole fraction of methanol	uncertainty
350.44	66.66	0.041	0.524	0.004	0.564	0.004	0.229	
356.07	66.66	0.045	0.214	0.003	0.311	0.003	0.275	
349.25	66.66	0.045	0.566	0.004	0.577	0.004	0.243	
346.44	66.66	0.056	0.646	0.003	0.591	0.004	0.283	
344.94	66.66	0.064	0.687	0.003	0.591	0.004	0.306	
343.63	66.66	0.071	0.724	0.003	0.591	0.004	0.326	
349.11	66.66	0.085	0.279	0.003	0.314	0.003	0.413	
341.13	66.66	0.085	0.795	0.003	0.589	0.004	0.365	
339.81	66.66	0.093	0.84	0.002	0.588	0.004	0.388	
344.79	66.66	0.114	0.35	0.003	0.328	0.003	0.479	
347.59	66.66	0.119	0.207	0.003	0.223	0.003	0.519	
343.27	66.66	0.129	0.374	0.003	0.332	0.004	0.495	
348.99	66.66	0.131	0.139	0.002	0.161	0.002	0.541	
347.05	66.66	0.136	0.147	0.002	0.163	0.002	0.573	
341.59	66.66	0.146	0.399	0.004	0.335	0.004	0.513	
336.5	66.66	0.162	0.666	0.003	0.429	0.004	0.52	
338.52	66.66	0.181	0.453	0.004	0.336	0.004	0.554	
340.85	66.66	0.189	0.251	0.003	0.214	0.003	0.613	
337.07	66.66	0.2	0.481	0.004	0.338	0.004	0.57	
333.54	66.66	0.205	0.731	0.003	0.406	0.004	0.577	
338.99	66.66	0.215	0.262	0.003	0.215	0.003	0.636	
335.68	66.66	0.22	0.508	0.004	0.333	0.004	0.594	
332.39	66.66	0.225	0.766	0.003	0.406	0.004	0.592	
340.76	66.66	0.236	0.113	0.002	0.108	0.002	0.687	
336.35	66.66	0.258	0.298	0.003	0.223	0.003	0.664	
338.03	66.66	0.288	0.129	0.002	0.113	0.002	0.715	
334.38	66.66	0.309	0.325	0.003	0.229	0.003	0.679	
336.91	66.66	0.323	0.14	0.002	0.118	0.002	0.732	
332.46	66.66	0.355	0.362	0.003	0.24	0.003	0.691	
334.76	66.66	0.37	0.156	0.002	0.127	0.002	0.75	
335.57	66.66	0.386	0.07	0.002	0.063	0.002	0.787	
334.25	66.66	0.386	0.149	0.002	0.122	0.002	0.76	
330.7	66.66	0.406	0.4	0.004	0.251	0.003	0.703	
332.6	66.66	0.449	0.168	0.002	0.132	0.002	0.771	
329.08	66.66	0.461	0.44	0.004	0.265	0.003	0.712	
331.81	66.66	0.474	0.176	0.002	0.138	0.002	0.777	
328.33	66.66	0.49	0.456	0.004	0.271	0.003	0.717	
330.62	66.66	0.499	0.252	0.003	0.186	0.003	0.75	
331.98	66.66	0.538	0.09	0.002	0.08	0.002	0.823	
331.29	66.66	0.568	0.094	0.002	0.085	0.002	0.828	
329.09	66.66	0.57	0.275	0.003	0.191	0.003	0.77	
330.41	66.66	0.57	0.151	0.002	0.127	0.002	0.801	
330.64	66.66	0.609	0.1	0.002	0.09	0.002	0.831	
329.19	66.66	0.635	0.164	0.002	0.141	0.002	0.805	
331.34	66.66	0.637	0.026	0.002	0.027	0.002	0.878	
329.45	66.66	0.67	0.108	0.002	0.102	0.002	0.836	
328.04	66.66	0.703	0.18	0.002	0.158	0.002	0.807	
326.97	66.66	0.76	0.194	0.002	0.177	0.003	0.809	
326.48	66.66	0.786	0.203	0.003	0.19	0.003	0.807	
327.69	66.66	0.819	0.092	0.002	0.106	0.002	0.863	
327.36	66.66	0.84	0.094	0.002	0.11	0.002	0.866	
327.01	66.66	0.856	0.099	0.002	0.117	0.002	0.867	
328.04	66.66	0.867	0.038	0.002	0.048	0.002	0.916	
326.68	66.66	0.873	0.104	0.002	0.125	0.002	0.867	
327.57	66.66	0.894	0.042	0.002	0.06	0.002	0.914	
377.16	93.32	0.023	0.059	0.002	0.116	0.002	0.168	
368.39	93.32	0.033	0.262	0.003	0.386	0.004	0.201	
360.11	93.32	0.039	0.603	0.003	0.624	0.004	0.201	
357.87	93.32	0.046	0.673	0.003	0.642	0.004	0.228	
355.48	93.32	0.056	0.747	0.003	0.628	0.004	0.29	
350.73	93.32	0.122	0.608	0.003	0.449	0.004	0.461	
354.56	93.32	0.141	0.254	0.003	0.245	0.003	0.533	
348.02	93.32	0.146	0.668	0.003	0.444	0.004	0.497	
349.56	93.32	0.149	0.512	0.004	0.381	0.004	0.511	
351.94	93.32	0.152	0.343	0.003	0.295	0.003	0.539	
355.29	93.32	0.156	0.163	0.002	0.167	0.003	0.579	
351.6	93.32	0.17	0.286	0.003	0.252	0.003	0.561	
346.72	93.32	0.18	0.557	0.004	0.369	0.004	0.557	
354.76	93.32	0.181	0.062	0.002	0.066	0.002	0.654	
349.16	93.32	0.185	0.383	0.003	0.296	0.003	0.57	
352.24	93.32	0.188	0.183	0.002	0.172	0.003	0.61	
344.24	93.32	0.21	0.609	0.003	0.37	0.004	0.58	
351.13	93.32	0.214	0.112	0.002	0.105	0.002	0.677	
346.47	93.32	0.215	0.419	0.004	0.299	0.003	0.597	
351.97	93.32	0.221	0.07	0.002	0.068	0.002	0.7	
345.96	93.32	0.243	0.354	0.003	0.262	0.003	0.622	
344.16	93.32	0.261	0.452	0.004	0.301	0.003	0.621	
348.51	93.32	0.261	0.123	0.002	0.111	0.002	0.705	
340.05	93.32	0.277	0.714	0.003	0.369	0.004	0.628	
345.65	93.32	0.284	0.24	0.003	0.187	0.003	0.68	
347.3	93.32	0.305	0.087	0.002	0.077	0.002	0.746	
341.19	93.32	0.306	0.52	0.004	0.309	0.003	0.646	
346.24	93.32	0.312	0.138	0.002	0.116	0.002	0.728	
342.27	93.32	0.323	0.395	0.003	0.26	0.003	0.665	
339.44	93.32	0.348	0.56	0.004	0.314	0.003	0.664	
341.88	93.32	0.374	0.294	0.003	0.204	0.003	0.711	
344.22	93.32	0.376	0.102	0.002	0.085	0.002	0.779	
343.12	93.32	0.384	0.187	0.002	0.143	0.002	0.742	
337.84	93.32	0.388	0.602	0.004	0.317	0.003	0.68	
340.33	93.32	0.416	0.319	0.003	0.213	0.003	0.721	
341.41	93.32	0.434	0.204	0.003	0.152	0.002	0.753	
337.72	93.32	0.445	0.485	0.004	0.28	0.003	0.703	
336.62	93.32	0.481	0.512	0.004	0.289	0.003	0.709	
337.61	93.32	0.51	0.372	0.003	0.234	0.003	0.739	
336.41	93.32	0.555	0.397	0.003	0.243	0.003	0.746	
339.01	93.32	0.573	0.153	0.002	0.123	0.002	0.804	
337.35	93.32	0.587	0.257	0.003	0.187	0.003	0.772	
337.99	93.32	0.623	0.163	0.002	0.133	0.002	0.809	
336.21	93.32	0.638	0.279	0.003	0.202	0.003	0.776	
337.02	93.32	0.673	0.173	0.002	0.144	0.002	0.813	
338.48	93.32	0.675	0.072	0.002	0.07	0.002	0.858	
336.11	93.32	0.724	0.184	0.002	0.155	0.002	0.818	
337.61	93.32	0.725	0.076	0.002	0.077	0.002	0.864	
335.24	93.32	0.766	0.195	0.002	0.171	0.003	0.818	
338.21	93.32	0.766	0.028	0.002	0.034	0.002	0.897	
336.8	93.32	0.778	0.083	0.002	0.086	0.002	0.868	
336.01	93.32	0.826	0.087	0.002	0.097	0.002	0.873	
335.25	93.32	0.872	0.092	0.002	0.109	0.002	0.877	
336.4	93.32	0.892	0.037	0.002	0.049	0.002	0.919	
335.42	93.32	0.944	0.044	0.002	0.063	0.002	0.932	
