Measured thermophysical data. Solubility data of zwitterions in water
Source: Fluid Phase Equilib., 2018, 10.1016/j.fluid.2018.07.020
Compound 1: 3-(triethylammonio)propane-1-sulfonate, C9H21NO3S, InChI=1S/C9H21NO3S/c1-4-10(5-2,6-3)8-7-9-14(11,12)13/h4-9H2,1-3H3
Compound 2: [N222C4S], C10H23NO3S, InChI=1S/C10H23NO3S/c1-4-11(5-2,6-3)9-7-8-10-15(12,13)14/h4-10H2,1-3H3
Compound 3: [N444C3S], C15H33NO3S, InChI=1S/C15H33NO3S/c1-4-7-11-16(12-8-5-2,13-9-6-3)14-10-15-20(17,18)19/h4-15H2,1-3H3
Compound 4: [N444C4S], C16H35NO3S, InChI=1S/C16H35NO3S/c1-4-7-12-17(13-8-5-2,14-9-6-3)15-10-11-16-21(18,19)20/h4-16H2,1-3H3
Compound 5: 3-(trihexylammonio)propane-1-sulfonate, C21H45NO3S, InChI=1S/C21H45NO3S/c1-4-7-10-13-17-22(18-14-11-8-5-2,19-15-12-9-6-3)20-16-21-26(23,24)25/h4-21H2,1-3H3
Compound 6: 4-(trihexylammonio)butane-1-sulfonate, C22H47NO3S, InChI=1S/C22H47NO3S/c1-4-7-10-13-18-23(19-14-11-8-5-2,20-15-12-9-6-3)21-16-17-22-27(24,25)26/h4-22H2,1-3H3
Compound 7: 3-(tributylphosphonio)propane-1-sulfonate, C15H33O3PS, InChI=1S/C15H33O3PS/c1-4-7-11-19(12-8-5-2,13-9-6-3)14-10-15-20(16,17)18/h4-15H2,1-3H3
Compound 8: 4-(tributylphosphonio)butane-1-sulfonate, C16H35O3PS, InChI=1S/C16H35O3PS/c1-4-7-12-20(13-8-5-2,14-9-6-3)15-10-11-16-21(17,18)19/h4-16H2,1-3H3
Compound 9: [PyC3S], C8H11NO3S, InChI=1S/C8H11NO3S/c10-13(11,12)8-4-7-9-5-2-1-3-6-9/h1-3,5-6H,4,7-8H2
Compound 10: water, H2O, InChI=1S/H2O/h1H2

System: 3-(triethylammonio)propane-1-sulfonate; phases: Crystal 2, Crystal 1, Air at 1 atmosphere
Property: Triple point temperature, K (Crystal 2); method: DSC
Triple point temperature, K	uncertainty
360.22	0.94

System: 3-(triethylammonio)propane-1-sulfonate; phases: Crystal 2, Crystal 1, Air at 1 atmosphere
Property: Molar enthalpy of transition or fusion, kJ/mol (Crystal 2); method: DSC
Molar enthalpy of transition or fusion, kJ/mol	uncertainty
9.7	1.4

System: 3-(triethylammonio)propane-1-sulfonate; phases: Crystal 1, Liquid, Air at 1 atmosphere
Property: Normal melting temperature, K (Crystal 1); method: DTA
Normal melting temperature, K	uncertainty
446.03	0.71

System: 3-(triethylammonio)propane-1-sulfonate; phases: Crystal 1, Liquid, Air at 1 atmosphere
Property: Molar enthalpy of transition or fusion, kJ/mol (Crystal 1); method: DSC
Molar enthalpy of transition or fusion, kJ/mol	uncertainty
15.3	1.5

System: [N222C4S]; phases: Crystal 2, Crystal 1, Air at 1 atmosphere
Property: Triple point temperature, K (Crystal 2); method: DSC
Triple point temperature, K	uncertainty
432.32	0.94

System: [N222C4S]; phases: Crystal 2, Crystal 1, Air at 1 atmosphere
Property: Molar enthalpy of transition or fusion, kJ/mol (Crystal 2); method: DSC
Molar enthalpy of transition or fusion, kJ/mol	uncertainty
1.5	1.6

System: [N222C4S]; phases: Crystal 1, Liquid, Air at 1 atmosphere
Property: Normal melting temperature, K (Crystal 1); method: DTA
Normal melting temperature, K	uncertainty
447.21	0.71

System: [N222C4S]; phases: Crystal 1, Liquid, Air at 1 atmosphere
Property: Molar enthalpy of transition or fusion, kJ/mol (Crystal 1); method: DSC
Molar enthalpy of transition or fusion, kJ/mol	uncertainty
0.9	1.4

System: [N444C3S]; phases: Crystal 2, Crystal 1, Air at 1 atmosphere
Property: Triple point temperature, K (Crystal 2); method: DSC
Triple point temperature, K	uncertainty
449.89	0.94

System: [N444C3S]; phases: Crystal 2, Crystal 1, Air at 1 atmosphere
Property: Molar enthalpy of transition or fusion, kJ/mol (Crystal 2); method: DSC
Molar enthalpy of transition or fusion, kJ/mol	uncertainty
14.9	2

System: [N444C3S]; phases: Crystal 1, Liquid, Air at 1 atmosphere
Property: Normal melting temperature, K (Crystal 1); method: DTA
Normal melting temperature, K	uncertainty
497.77	0.71

System: [N444C3S]; phases: Crystal 1, Liquid, Air at 1 atmosphere
Property: Molar enthalpy of transition or fusion, kJ/mol (Crystal 1); method: DSC
Molar enthalpy of transition or fusion, kJ/mol	uncertainty
13	2

System: [N444C4S]; phases: Crystal 2, Crystal 1, Air at 1 atmosphere
Property: Triple point temperature, K (Crystal 2); method: DSC
Triple point temperature, K	uncertainty
431.45	0.94

System: [N444C4S]; phases: Crystal 2, Crystal 1, Air at 1 atmosphere
Property: Molar enthalpy of transition or fusion, kJ/mol (Crystal 2); method: DSC
Molar enthalpy of transition or fusion, kJ/mol	uncertainty
10.5	2.2

System: [N444C4S]; phases: Crystal 1, Liquid, Air at 1 atmosphere
Property: Normal melting temperature, K (Crystal 1); method: DTA
Normal melting temperature, K	uncertainty
492.84	0.71

System: [N444C4S]; phases: Crystal 1, Liquid, Air at 1 atmosphere
Property: Molar enthalpy of transition or fusion, kJ/mol (Crystal 1); method: DSC
Molar enthalpy of transition or fusion, kJ/mol	uncertainty
23.6	2.3

System: 3-(trihexylammonio)propane-1-sulfonate; phases: Crystal 1, Liquid, Air at 1 atmosphere
Property: Normal melting temperature, K (Crystal 1); method: DTA
Normal melting temperature, K	uncertainty
479.89	0.71

System: 3-(trihexylammonio)propane-1-sulfonate; phases: Crystal 1, Liquid, Air at 1 atmosphere
Property: Molar enthalpy of transition or fusion, kJ/mol (Crystal 1); method: DSC
Molar enthalpy of transition or fusion, kJ/mol	uncertainty
28.4	2.7

System: 4-(trihexylammonio)butane-1-sulfonate; phases: Crystal 2, Crystal 1, Air at 1 atmosphere
Property: Triple point temperature, K (Crystal 2); method: DSC
Triple point temperature, K	uncertainty
407.51	0.94

System: 4-(trihexylammonio)butane-1-sulfonate; phases: Crystal 2, Crystal 1, Air at 1 atmosphere
Property: Molar enthalpy of transition or fusion, kJ/mol (Crystal 2); method: DSC
Molar enthalpy of transition or fusion, kJ/mol	uncertainty
6	2.8

System: 4-(trihexylammonio)butane-1-sulfonate; phases: Crystal 1, Liquid, Air at 1 atmosphere
Property: Normal melting temperature, K (Crystal 1); method: DTA
Normal melting temperature, K	uncertainty
472.75	0.71

System: 4-(trihexylammonio)butane-1-sulfonate; phases: Crystal 1, Liquid, Air at 1 atmosphere
Property: Molar enthalpy of transition or fusion, kJ/mol (Crystal 1); method: DSC
Molar enthalpy of transition or fusion, kJ/mol	uncertainty
18.03	2.84

System: 3-(tributylphosphonio)propane-1-sulfonate; phases: Crystal 2, Crystal 1, Air at 1 atmosphere
Property: Triple point temperature, K (Crystal 2); method: DSC
Triple point temperature, K	uncertainty
379.9	0.94

System: 3-(tributylphosphonio)propane-1-sulfonate; phases: Crystal 2, Crystal 1, Air at 1 atmosphere
Property: Molar enthalpy of transition or fusion, kJ/mol (Crystal 2); method: DSC
Molar enthalpy of transition or fusion, kJ/mol	uncertainty
12.9	2.2

System: 3-(tributylphosphonio)propane-1-sulfonate; phases: Crystal 1, Liquid, Air at 1 atmosphere
Property: Normal melting temperature, K (Crystal 1); method: DTA
Normal melting temperature, K	uncertainty
433.17	0.71

System: 3-(tributylphosphonio)propane-1-sulfonate; phases: Crystal 1, Liquid, Air at 1 atmosphere
Property: Molar enthalpy of transition or fusion, kJ/mol (Crystal 1); method: DSC
Molar enthalpy of transition or fusion, kJ/mol	uncertainty
9.7	2.2

System: 4-(tributylphosphonio)butane-1-sulfonate; phases: Crystal 1, Liquid, Air at 1 atmosphere
Property: Normal melting temperature, K (Crystal 1); method: DTA
Normal melting temperature, K	uncertainty
446.72	0.71

System: 4-(tributylphosphonio)butane-1-sulfonate; phases: Crystal 1, Liquid, Air at 1 atmosphere
Property: Molar enthalpy of transition or fusion, kJ/mol (Crystal 1); method: DSC
Molar enthalpy of transition or fusion, kJ/mol	uncertainty
19.7	2.3

System: [PyC3S]; phases: Crystal 1, Liquid, Air at 1 atmosphere
Property: Normal melting temperature, K (Crystal 1); method: DTA
Normal melting temperature, K	uncertainty
547.04	0.71

System: [PyC3S]; phases: Crystal 1, Liquid, Air at 1 atmosphere
Property: Molar enthalpy of transition or fusion, kJ/mol (Crystal 1); method: DSC
Molar enthalpy of transition or fusion, kJ/mol	uncertainty
39.5	1.4

System: 3-(triethylammonio)propane-1-sulfonate + water; phases: Liquid, Crystal
Fixed: Pressure, kPa = 101
Property: Solid-liquid equilibrium temperature, K (Liquid); method: VISOBS
Mole fraction of 3-(triethylammonio)propane-1-sulfonate	Solid-liquid equilibrium temperature, K	uncertainty
0.1753	356.4	0.5
0.1671	347.1	0.5
0.1563	336.9	0.5
0.1465	326.7	0.5
0.1346	311.6	0.6
0.127	301.5	0.6
0.1203	290.4	0.7

System: 3-(triethylammonio)propane-1-sulfonate + water; phases: Liquid, Crystal
Fixed: Pressure, kPa = 101
Property: Solid-liquid equilibrium temperature, K (Liquid); method: VISOBS
Mole fraction of 3-(triethylammonio)propane-1-sulfonate	Solid-liquid equilibrium temperature, K	uncertainty
0.0693	259.7	0.3
0.0583	263.5	0.3
0.0416	267.9	0.3
0.0299	270.1	0.3
0.018	271.7	0.3
0	273.2	0.3

System: [N222C4S] + water; phases: Liquid, Crystal
Fixed: Pressure, kPa = 101
Property: Solid-liquid equilibrium temperature, K (Liquid); method: VISOBS
Mole fraction of [N222C4S]	Solid-liquid equilibrium temperature, K	uncertainty
0.2605	352.3	0.3
0.2095	337.3	0.3
0.1944	333.6	0.3
0.1823	330.2	0.3
0.1649	324.2	0.3
0.1502	319.4	0.3
0.1376	313.4	0.3
0.1271	305.9	0.4

System: [N222C4S] + water; phases: Liquid, Crystal
Fixed: Pressure, kPa = 101
Property: Solid-liquid equilibrium temperature, K (Liquid); method: VISOBS
Mole fraction of [N222C4S]	Solid-liquid equilibrium temperature, K	uncertainty
0.0584	252.6	0.5
0.0522	258.4	0.4
0.0474	262.2	0.4
0.0415	265.1	0.3
0.0361	267	0.3
0.0299	269	0.3
0.0232	270.2	0.3
0.016	271	0.3
0.0095	272.2	0.3
0	273.2	0.3

System: [N222C4S] + water; phases: Liquid, Crystal of intercomponent compound 1
Fixed: Pressure, kPa = 101
Property: Solid-liquid equilibrium temperature, K (Liquid); method: VISOBS
Mole fraction of [N222C4S]	Solid-liquid equilibrium temperature, K	uncertainty
0.1156	300.1	0.3
0.1083	299.3	0.3
0.1016	298.2	0.3
0.0951	296	0.3
0.0872	292.6	0.3

System: [N444C3S] + water; phases: Liquid, Crystal
Fixed: Pressure, kPa = 101
Property: Solid-liquid equilibrium temperature, K (Liquid); method: VISOBS
Mole fraction of [N444C3S]	Solid-liquid equilibrium temperature, K	uncertainty
0.3439	361.2	0.3
0.3197	350.6	0.3
0.3029	343	0.3
0.2825	332.6	0.3
0.2696	324.5	0.4
0.2579	317.5	0.3
0.2492	313.4	0.3

System: [N444C3S] + water; phases: Liquid, Crystal
Fixed: Pressure, kPa = 101
Property: Solid-liquid equilibrium temperature, K (Liquid); method: VISOBS
Mole fraction of [N444C3S]	Solid-liquid equilibrium temperature, K	uncertainty
0.0728	251.5	0.3
0.0651	254.8	0.3
0.0546	259.2	0.3
0.0488	261.8	0.3
0.0378	265.7	0.3
0.0261	269.1	0.3
0.0165	271.5	0.3
0	273.2	0.3

System: [N444C4S] + water; phases: Liquid, Crystal
Fixed: Pressure, kPa = 101
Property: Solid-liquid equilibrium temperature, K (Liquid); method: VISOBS
Mole fraction of [N444C4S]	Solid-liquid equilibrium temperature, K	uncertainty
0.241	358.1	0.3
0.2312	354.1	0.3
0.2134	343	0.3
0.1933	331.7	0.3

System: [N444C4S] + water; phases: Liquid, Crystal
Fixed: Pressure, kPa = 101
Property: Solid-liquid equilibrium temperature, K (Liquid); method: VISOBS
Mole fraction of [N444C4S]	Solid-liquid equilibrium temperature, K	uncertainty
0.038	261.8	0.4
0.0344	264.6	0.3
0.0281	267.7	0.3
0.0204	270.6	0.3
0.0156	271.7	0.3
0.0097	272.5	0.3
0	273.2	0.3

System: [N444C4S] + water; phases: Liquid, Crystal of intercomponent compound 1
Fixed: Pressure, kPa = 101
Property: Solid-liquid equilibrium temperature, K (Liquid); method: VISOBS
Mole fraction of [N444C4S]	Solid-liquid equilibrium temperature, K	uncertainty
0.1776	321.8	0.3
0.1657	320.6	0.3
0.1579	319.6	0.3
0.15	318.6	0.3
0.1426	317.6	0.3
0.1323	316.3	0.3
0.1233	314.4	0.3
0.1147	312.5	0.3
0.1078	310	0.3
0.0999	307.6	0.3
0.0956	306	0.3
0.0882	302.5	0.3
0.0807	299.3	0.3
0.0741	296.1	0.3
0.0685	293	0.3
0.0653	290.7	0.4
0.0592	286.4	0.4
0.0521	282.1	0.4
0.0458	274.7	0.6
0.0398	264.5	0.7
0.038	261.8	0.7

System: 3-(trihexylammonio)propane-1-sulfonate + water; phases: Liquid, Crystal
Fixed: Pressure, kPa = 101
Property: Solid-liquid equilibrium temperature, K (Liquid); method: VISOBS
Mole fraction of 3-(trihexylammonio)propane-1-sulfonate	Solid-liquid equilibrium temperature, K	uncertainty
0.2644	347.2	0.3
0.2435	338.1	0.3

System: 3-(trihexylammonio)propane-1-sulfonate + water; phases: Liquid, Crystal of intercomponent compound 1
Fixed: Pressure, kPa = 101
Property: Solid-liquid equilibrium temperature, K (Liquid); method: VISOBS
Mole fraction of 3-(trihexylammonio)propane-1-sulfonate	Solid-liquid equilibrium temperature, K	uncertainty
0.1046	275.9	0.4
0.221	329.1	0.3
0.2009	325.4	0.3
0.1867	322.3	0.3
0.1742	318.8	0.3
0.166	316.1	0.3

System: 3-(trihexylammonio)propane-1-sulfonate + water; phases: Liquid mixture 1, Liquid mixture 2
Fixed: Pressure, kPa = 101
Property: Liquid-liquid equilibrium temperature, K (Liquid mixture 1); method: VISOBS
Mole fraction of 3-(trihexylammonio)propane-1-sulfonate	Liquid-liquid equilibrium temperature, K	uncertainty
0.1046	289.9	1.4
0.1001	305.3	1.4
0.0946	324.2	1.5
0.0919	335.9	1.4
0.0884	346.5	1.4
0.0858	357.2	1.3
0.0842	359.6	0.7
0.0826	362.8	0.8

System: 4-(trihexylammonio)butane-1-sulfonate + water; phases: Liquid, Crystal
Fixed: Pressure, kPa = 101
Property: Solid-liquid equilibrium temperature, K (Liquid); method: VISOBS
Mole fraction of 4-(trihexylammonio)butane-1-sulfonate	Solid-liquid equilibrium temperature, K	uncertainty
0.3327	344.8	0.3
0.2986	333.8	0.3
0.2665	318.2	0.3
0.0856	274.4	0.3
0.0015	274.4	0.3

System: 4-(trihexylammonio)butane-1-sulfonate + water; phases: Liquid, Crystal
Property: Solid-liquid equilibrium temperature, K (Liquid); method: VISOBS
Mole fraction of 4-(trihexylammonio)butane-1-sulfonate	Pressure, kPa	Solid-liquid equilibrium temperature, K	uncertainty
0	101	273.2	0.3

System: 4-(trihexylammonio)butane-1-sulfonate + water; phases: Liquid mixture 1, Liquid mixture 2
Fixed: Pressure, kPa = 101
Property: Liquid-liquid equilibrium temperature, K (Liquid mixture 1); method: VISOBS
Mole fraction of 4-(trihexylammonio)butane-1-sulfonate	Liquid-liquid equilibrium temperature, K	uncertainty
0.0856	280.7	3.3
0.0822	308.3	3.3
0.0798	328	3.3
0.0783	340.5	2.6
0.077	346.2	1.5
0.0734	358.3	1.2
0.0693	368.2	1

System: 3-(tributylphosphonio)propane-1-sulfonate + water; phases: Liquid, Crystal
Fixed: Pressure, kPa = 101
Property: Solid-liquid equilibrium temperature, K (Liquid); method: VISOBS
Mole fraction of 3-(tributylphosphonio)propane-1-sulfonate	Solid-liquid equilibrium temperature, K	uncertainty
0.5394	358.5	0.3
0.4778	348.8	0.3
0.4389	340.9	0.3
0.399	330.1	0.3
0.3716	323.1	0.3
0.3355	312.6	0.3

System: 3-(tributylphosphonio)propane-1-sulfonate + water; phases: Liquid, Crystal of intercomponent compound 1
Fixed: Pressure, kPa = 101
Property: Solid-liquid equilibrium temperature, K (Liquid); method: VISOBS
Mole fraction of 3-(tributylphosphonio)propane-1-sulfonate	Solid-liquid equilibrium temperature, K	uncertainty
0.2671	294.7	0.3
0.2432	293.3	0.3
0.2135	290.9	0.3
0.1903	288.6	0.3
0.1651	285.5	0.3
0.1483	283.2	0.3
0.1365	281.1	0.3
0.1196	277.5	0.3
0.1048	274.5	0.3
0.2974	299.3	0.3
0.0932	271.6	0.3

System: 3-(tributylphosphonio)propane-1-sulfonate + water; phases: Liquid, Crystal
Fixed: Pressure, kPa = 101
Property: Solid-liquid equilibrium temperature, K (Liquid); method: VISOBS
Mole fraction of 3-(tributylphosphonio)propane-1-sulfonate	Solid-liquid equilibrium temperature, K	uncertainty
0.0932	271.6	0.3
0.0827	271.9	0.3
0.0683	272.2	0.3
0.0537	272.5	0.3
0.0321	272.9	0.3
0	273.2	0.3

System: 4-(tributylphosphonio)butane-1-sulfonate + water; phases: Liquid, Crystal
Fixed: Pressure, kPa = 101
Property: Solid-liquid equilibrium temperature, K (Liquid); method: VISOBS
Mole fraction of 4-(tributylphosphonio)butane-1-sulfonate	Solid-liquid equilibrium temperature, K	uncertainty
0.4136	353.2	0.3
0.3984	349.2	0.3
0.3627	339.7	0.3

System: 4-(tributylphosphonio)butane-1-sulfonate + water; phases: Liquid, Crystal of intercomponent compound 1
Fixed: Pressure, kPa = 101
Property: Solid-liquid equilibrium temperature, K (Liquid); method: VISOBS
Mole fraction of 4-(tributylphosphonio)butane-1-sulfonate	Solid-liquid equilibrium temperature, K	uncertainty
0.3436	335	0.3
0.3176	334.1	0.3
0.3015	333.5	0.3
0.2784	333	0.3
0.2651	332.6	0.3
0.2377	331.3	0.3
0.2069	328.3	0.3
0.1872	326.3	0.3
0.1674	324.5	0.3
0.1524	322.3	0.3
0.1389	320.4	0.3
0.1219	317	0.3
0.1079	314.2	0.3
0.095	311.5	0.3
0.0859	309.5	0.3
0.0774	306.9	0.3
0.0688	304.4	0.3
0.0593	301.3	0.3
0.0508	297.8	0.3
0.0453	295	0.3
0.0398	291.8	0.4
0.0337	286.2	0.5
0.0284	278.2	0.7
0.0238	270.5	0.7

System: 4-(tributylphosphonio)butane-1-sulfonate + water; phases: Liquid, Crystal
Fixed: Pressure, kPa = 101
Property: Solid-liquid equilibrium temperature, K (Liquid); method: VISOBS
Mole fraction of 4-(tributylphosphonio)butane-1-sulfonate	Solid-liquid equilibrium temperature, K	uncertainty
0.0038	272.9	0.3
0.0071	272.6	0.3
0.0193	271.2	0.3
0.0249	270.2	0.4
0.029	279.5	0.9
0	273.2	0.3

System: [PyC3S] + water; phases: Liquid, Crystal
Fixed: Pressure, kPa = 101
Property: Solid-liquid equilibrium temperature, K (Liquid); method: VISOBS
Mole fraction of [PyC3S]	Solid-liquid equilibrium temperature, K	uncertainty
0.1966	369.8	0.4
0.181	359.7	0.4
0.17	346.6	0.5
0.1581	336.8	0.5
0.148	325.5	0.5
0.1381	316	0.5
0.1298	303.9	0.6

System: [PyC3S] + water; phases: Liquid, Crystal of intercomponent compound 1
Fixed: Pressure, kPa = 101
Property: Solid-liquid equilibrium temperature, K (Liquid); method: VISOBS
Mole fraction of [PyC3S]	Solid-liquid equilibrium temperature, K	uncertainty
0.1105	296	0.3
0.1023	295.1	0.3
0.0914	291.9	0.3
0.085	289.9	0.3
0.0765	287.3	0.3
0.0689	284.1	0.3
0.0614	281	0.3
0.054	277.7	0.3
0.0466	274.9	0.3
0.0385	270	0.3

System: [PyC3S] + water; phases: Liquid, Crystal
Fixed: Pressure, kPa = 101
Property: Solid-liquid equilibrium temperature, K (Liquid); method: VISOBS
Mole fraction of [PyC3S]	Solid-liquid equilibrium temperature, K	uncertainty
0.0385	270	0.3
0.0316	271.6	0.3
0.0226	272.4	0.3
0.017	272.9	0.3
0.0084	273.1	0.3
0	273.2	0.3

System: [PyC3S] + water; phases: Liquid, Metastable crystal
Fixed: Pressure, kPa = 101
Property: Solid-liquid equilibrium temperature, K (Liquid); method: VISOBS
Mole fraction of [PyC3S]	Solid-liquid equilibrium temperature, K	uncertainty
0.123	295.6	0.6
0.1165	287.5	0.6

System: 3-(trihexylammonio)propane-1-sulfonate + [N444C3S] + water; phases: Liquid mixture 1, Liquid mixture 2
Fixed: Pressure, kPa = 101
Property: Liquid-liquid equilibrium temperature, K (Liquid mixture 1); method: VISOBS
Amount ratio of solute to solvent of 3-(trihexylammonio)propane-1-sulfonate	Mole fraction of [N444C3S]	Liquid-liquid equilibrium temperature, K	uncertainty
0.1964	0.0367	299.9	0.4
0.1964	0.0361	300.3	0.5
0.1964	0.0343	302.3	0.5
0.1964	0.0328	304.2	0.5
0.1964	0.0309	306.1	0.5
0.1964	0.0282	309.2	0.6
0.1964	0.0268	311.3	0.6
0.1964	0.0247	313.9	0.6
0.1964	0.023	316.2	0.6
0.1964	0.0216	317.8	0.5
0.1964	0.0203	319.4	0.5
0.1964	0.0191	320.7	0.5
0.1964	0.0181	321.9	0.5
0.1964	0.0172	323	0.5
0.1964	0.0163	324	0.5
0.1964	0.0153	324.9	0.5
0.1964	0.0143	326.1	0.5
0.1964	0.0131	327.4	0.5
0.1964	0.0124	328.1	0.5
0.1964	0.0116	328.9	0.4
0.1964	0.0108	329.3	0.3
0.1964	0.0101	329.4	0.4
0.1964	0.0097	328.5	1.6
0.1964	0.0093	326.3	3.5
0.1964	0.0091	324.7	3.4
0.1964	0.0086	319.2	4.4
0.2614	0.0421	296.6	0.5
0.2614	0.0386	300.8	0.5
0.2614	0.0345	305.1	0.5
0.2614	0.0311	309.8	0.6
0.2614	0.0281	313.7	0.7
0.2614	0.0254	318.1	0.7
0.2614	0.0225	322.8	0.7
0.2614	0.0197	327.6	0.8
0.2614	0.0176	332.3	0.9
0.2614	0.0152	337.4	1
0.2614	0.0132	342.3	0.9
0.2614	0.0113	345.9	0.9
0.2614	0.0097	349.1	0.7
0.2614	0.0087	349.7	0.3
0.2614	0.0077	349.6	0.7
0.2614	0.0069	349.3	1.3
0.2614	0.0063	347.8	1.2
0.2614	0.0057	345.8	0.7
0.2614	0.0052	342.3	3.8
0.2614	0.0048	337.2	5.1
0.335	0.0414	298.6	0.5
0.335	0.0402	299.9	0.6
0.335	0.0373	303.6	0.6
0.335	0.0349	306.7	0.6
0.335	0.0323	310.4	0.6
0.335	0.0295	314.6	0.7
0.335	0.0265	319.7	0.8
0.335	0.0238	324.7	0.8
0.335	0.0212	330.2	0.9
0.335	0.0192	334.6	1
0.335	0.0174	339.3	1.1
0.335	0.0158	343.3	1.1
0.335	0.0145	347.2	1.2
0.335	0.0133	350.6	1.1
0.335	0.0119	354.4	1.1
0.335	0.0102	358.6	1
0.335	0.0086	362.3	0.9
0.335	0.0074	364.3	0.7
0.335	0.0065	365.8	0.3
0.335	0.0055	365.4	0.7
0.335	0.0052	364.7	0.7
0.335	0.0047	362.8	2.2
0.335	0.0044	361.1	2.1
0.335	0.004	358.2	5.4
0.335	0.0032	345.3	6.5

System: 3-(trihexylammonio)propane-1-sulfonate + [N444C3S] + water; phases: Liquid mixture 1, Liquid mixture 2
Fixed: Pressure, kPa = 101
Property: Liquid-liquid equilibrium temperature, K (Liquid mixture 1); method: VISOBS
Amount ratio of solute to solvent of 3-(trihexylammonio)propane-1-sulfonate	Mole fraction of [N444C3S]	Liquid-liquid equilibrium temperature, K	uncertainty
0.1964	0.0108	298.2	1.8
0.1964	0.0101	301.3	2
0.1964	0.0097	303.7	3
0.1964	0.0093	307.2	4.4
0.1964	0.0091	310.8	4.4
0.1964	0.0086	315.7	3.9
0.2614	0.0077	298	2.5
0.2614	0.0069	302.9	2.8
0.2614	0.0063	308	3
0.2614	0.0057	311.9	3.1
0.2614	0.0052	316.5	4.9
0.2614	0.0048	323.1	6.6
0.335	0.0055	296.2	3.4
0.335	0.0052	299.3	3
0.335	0.0047	303	4
0.335	0.0044	306.8	3.9
0.335	0.004	311.2	5.7
0.335	0.0032	323.5	6.2
