Measured thermophysical data. Solubility of CO2 in aqueous TSP
Source: Fluid Phase Equilib., 2012, 10.1016/j.fluid.2012.05.014
Compound 1: trisodium phosphate, Na3O4P, InChI=1S/3Na.H3O4P/c;;;1-5(2,3)4/h;;;(H3,1,2,3,4)/q3*+1;/p-3, purity 98%
Compound 2: carbon dioxide, CO2, InChI=1S/CO2/c2-1-3
Compound 3: water, H2O, InChI=1S/H2O/h1H2, purity 99.8%

System: carbon dioxide + trisodium phosphate + water; phases: Liquid, Gas
Property: Mole fraction of carbon dioxide (Liquid); method: CO2 analyzer
Temperature, K	Pressure, kPa	Solvent: Amount concentration (molarity), mol/dm3 of trisodium phosphate	Mole fraction of carbon dioxide	uncertainty
303.14	15.2	1	0.008843	0.000226
303.14	15.2	2	0.020055	0.000274
313.14	10.13	2	0.026039	0.000324
313.14	12.67	2	0.026737	0.000401
313.14	15.2	1	0.010394	0.000296
313.14	15.2	1.5	0.017837	0.00035
313.14	15.2	2	0.027798	0.000362
313.14	17.73	2	0.028327	0.0004
313.14	20.27	2	0.029286	0.000329
323.14	15.2	1	0.01224	0.00034
323.14	15.2	2	0.0297	0.000362
333.14	15.2	1	0.016144	0.000345
333.14	15.2	2	0.032822	0.000336
