Measured thermophysical data. Measurement, correlation and thermodynamic modeling of the solubility of Ketotifen fumarate (KTF) in supercritical carbon dioxide: Evaluation of PCP-SAFT equation of state
Source: Fluid Phase Equilib., 2018, 10.1016/j.fluid.2017.11.016
Compound 1: carbon dioxide, CO2, InChI=1S/CO2/c2-1-3, purity 99.99%
Compound 2: ketotifen fumarate, C23H23NO5S, InChI=1S/C19H19NOS.C4H4O4/c1-20-9-6-13(7-10-20)18-15-5-3-2-4-14(15)12-17(21)19-16(18)8-11-22-19;5-3(6)1-2-4(7)8/h2-5,8,11H,6-7,9-10,12H2,1H3;1-2H,(H,5,6)(H,7,8)/b;2-1+, purity 99%

System: carbon dioxide + ketotifen fumarate; phases: Fluid (supercritical or subcritical phases), Crystal
Property: Mole fraction of ketotifen fumarate (Fluid (supercritical or subcritical phases)); method: UV-Vis spectrophotometer
Temperature, K	Pressure, kPa	Mole fraction of ketotifen fumarate	uncertainty
308.2	12000	0.0001561	1.98e-05
308.2	15000	0.0003393	3.56e-05
308.2	18000	0.0004803	4.84e-05
308.2	21000	0.000504	5.04e-05
308.2	24000	0.0005153	5.16e-05
308.2	27000	0.0005661	5.7e-05
308.2	30000	0.0006671	6.72e-05
318.2	12000	0.0001143	1.58e-05
318.2	15000	0.0002703	2.92e-05
318.2	18000	0.000447	4.54e-05
318.2	21000	0.0005027	5.03e-05
318.2	24000	0.0005196	5.27e-05
318.2	27000	0.0007665	7.77e-05
318.2	30000	0.0008827	8.85e-05
328.2	12000	5.23e-05	1.32e-05
328.2	15000	0.0002436	2.71e-05
328.2	18000	0.0004055	4.16e-05
328.2	21000	0.0005192	5.25e-05
328.2	24000	0.0006371	6.47e-05
328.2	27000	0.0008511	8.6e-05
328.2	30000	0.001003	0.000101
338.2	12000	2.11e-05	1.22e-05
338.2	15000	0.0002005	2.31e-05
338.2	18000	0.0003632	3.87e-05
338.2	21000	0.0006018	6.14e-05
338.2	24000	0.0007267	7.35e-05
338.2	27000	0.0009267	9.34e-05
338.2	30000	0.0010766	0.0001082
