Measured thermophysical data. Experimental P(rho)T-x measurements of liquid methane-ethane-nitrogen mixtures
Source: Fluid Phase Equilib., 2018, 10.1016/j.fluid.2018.01.023
Compound 1: methane, CH4, InChI=1S/CH4/h1H4, purity 99.99%
Compound 2: ethane, C2H6, InChI=1S/C2H6/c1-2/h1-2H3, purity 99.99%
Compound 3: nitrogen, N2, InChI=1S/N2/c1-2, purity 99.998%

System: methane + ethane + nitrogen; phases: Liquid
Property: Mass density, kg/m3 (Liquid); method: Buoyancy - hydrostatic balance with magnetic suspension - one sinker
Temperature, K	Pressure, kPa	Mole fraction of methane	Mole fraction of nitrogen	Mass density, kg/m3	uncertainty
92.1	273.7	0.291	0.164	586.4	3.1
92.1	276	0.826	0.081	491.1	76.2
92.1	278.5	0.879	0.067	471.2	74.9
92.1	1098.8	0.601	0.106	527.2	12
92.1	1100.5	0.752	0.186	478.3	12
94	274	0.405	0.088	569.7	6.8
94	276.4	0.68	0.127	455.1	40.9
94	543	0.206	0.176	614.6	8.5
94	568.5	0.724	0.169	475.3	2.2
94	568.7	0.62	0.136	517.3	40
94	828.1	0.757	0.162	474.7	3.7
94	1097.6	0.411	0.429	606.8	0.8
95	115.1	0.655	0.083	525	31.5
96	106	0.177	0.02	607.5	2.7
96	164	0.48	0.062	565.3	13.9
96	276.3	0.794	0.024	471	170.8
96	1108.1	0.569	0.225	521.5	57.8
96	1108.8	0.686	0.247	472.5	57.8

System: ethane + nitrogen; phases: Liquid
Fixed: Temperature, K = 92
Property: Mass density, kg/m3 (Liquid); method: Buoyancy - hydrostatic balance with magnetic suspension - one sinker
Pressure, kPa	Mole fraction of ethane	Mass density, kg/m3	uncertainty
138.3	0.967	650.5	1.2
1039.4	0.952	651.3	0.9

System: methane + nitrogen; phases: Liquid
Property: Mass density, kg/m3 (Liquid); method: Buoyancy - hydrostatic balance with magnetic suspension - one sinker
Pressure, kPa	Mole fraction of methane	Temperature, K	Mass density, kg/m3	uncertainty
159.1	0.884	92	451	0.7
