Measured thermophysical data. Activity coefficients and excess Gibbs energy of binary mixtures of N,N-dimethyl formamide with selected compounds at 95.5 kPa
Source: Fluid Phase Equilib., 2008, 10.1016/j.fluid.2008.07.018
Compound 1: dimethylformamide, C3H7NO, InChI=1S/C3H7NO/c1-4(2)3-5/h3H,1-2H3
Compound 2: acetophenone, C8H8O, InChI=1S/C8H8O/c1-7(9)8-5-3-2-4-6-8/h2-6H,1H3
Compound 3: aniline, C6H7N, InChI=1S/C6H7N/c7-6-4-2-1-3-5-6/h1-5H,7H2
Compound 4: bromobenzene, C6H5Br, InChI=1S/C6H5Br/c7-6-4-2-1-3-5-6/h1-5H
Compound 5: chlorobenzene, C6H5Cl, InChI=1S/C6H5Cl/c7-6-4-2-1-3-5-6/h1-5H
Compound 6: N,N-dimethylethanamide, C4H9NO, InChI=1S/C4H9NO/c1-4(6)5(2)3/h1-3H3

System: dimethylformamide; phases: Liquid
Property: Refractive index (Na D-line) (Liquid); method: Standard Abbe refractometry
Temperature, K	Pressure, kPa	Refractive index (Na D-line)	uncertainty
298.15	101.325	1.4219	0.0007

System: dimethylformamide; phases: Liquid
Property: Mass density, kg/m3 (Liquid); method: PYCNOM:UFactor:4
Temperature, K	Pressure, kPa	Mass density, kg/m3	uncertainty
298.15	101.325	943.9	1.6

System: dimethylformamide; phases: Liquid, Gas
Property: Vapor or sublimation pressure, kPa (Liquid); method: EBULLIO:UFactor:8
Temperature, K	Vapor or sublimation pressure, kPa	uncertainty
424.35	95.5	3.29475

System: acetophenone; phases: Liquid
Property: Refractive index (Na D-line) (Liquid); method: Standard Abbe refractometry
Temperature, K	Pressure, kPa	Refractive index (Na D-line)	uncertainty
298.15	101.325	1.5342	0.0007

System: acetophenone; phases: Liquid
Property: Mass density, kg/m3 (Liquid); method: PYCNOM:UFactor:8
Temperature, K	Pressure, kPa	Mass density, kg/m3	uncertainty
298.15	101.325	1023.8	3

System: acetophenone; phases: Liquid, Gas
Property: Vapor or sublimation pressure, kPa (Liquid); method: EBULLIO:UFactor:8
Temperature, K	Vapor or sublimation pressure, kPa	uncertainty
472.55	95.5	4

System: aniline; phases: Liquid
Property: Refractive index (Na D-line) (Liquid); method: Standard Abbe refractometry
Temperature, K	Pressure, kPa	Refractive index (Na D-line)	uncertainty
298.15	101.325	1.5836	0.0007

System: aniline; phases: Liquid
Property: Mass density, kg/m3 (Liquid); method: PYCNOM:UFactor:8
Temperature, K	Pressure, kPa	Mass density, kg/m3	uncertainty
298.15	101.325	1017.6	3

System: aniline; phases: Liquid, Gas
Property: Vapor or sublimation pressure, kPa (Liquid); method: EBULLIO:UFactor:8
Temperature, K	Vapor or sublimation pressure, kPa	uncertainty
455.25	95.5	4

System: bromobenzene; phases: Liquid
Property: Refractive index (Na D-line) (Liquid); method: Standard Abbe refractometry
Temperature, K	Pressure, kPa	Refractive index (Na D-line)	uncertainty
298.15	101.325	1.5571	0.0007

System: bromobenzene; phases: Liquid
Property: Mass density, kg/m3 (Liquid); method: PYCNOM:UFactor:8
Temperature, K	Pressure, kPa	Mass density, kg/m3	uncertainty
298.15	101.325	1488.1	4.8

System: bromobenzene; phases: Liquid, Gas
Property: Vapor or sublimation pressure, kPa (Liquid); method: EBULLIO:UFactor:8
Temperature, K	Vapor or sublimation pressure, kPa	uncertainty
427.05	95.5	4

System: chlorobenzene; phases: Liquid
Property: Refractive index (Na D-line) (Liquid); method: Standard Abbe refractometry
Temperature, K	Pressure, kPa	Refractive index (Na D-line)	uncertainty
298.15	101.325	1.5218	0.0007

System: chlorobenzene; phases: Liquid
Property: Mass density, kg/m3 (Liquid); method: PYCNOM:UFactor:8
Temperature, K	Pressure, kPa	Mass density, kg/m3	uncertainty
298.15	101.325	1106.3	3.3

System: chlorobenzene; phases: Liquid, Gas
Property: Vapor or sublimation pressure, kPa (Liquid); method: EBULLIO:UFactor:8
Temperature, K	Vapor or sublimation pressure, kPa	uncertainty
402.85	95.5	4

System: N,N-dimethylethanamide; phases: Liquid
Property: Refractive index (Na D-line) (Liquid); method: Standard Abbe refractometry
Temperature, K	Pressure, kPa	Refractive index (Na D-line)	uncertainty
298.15	101.325	1.4357	0.0007

System: N,N-dimethylethanamide; phases: Liquid
Property: Mass density, kg/m3 (Liquid); method: PYCNOM:UFactor:8
Temperature, K	Pressure, kPa	Mass density, kg/m3	uncertainty
298.15	101.325	936.3	2.7

System: dimethylformamide + acetophenone; phases: Liquid, Gas
Fixed: Pressure, kPa = 95.5
Property: Boiling temperature at pressure P, K (Liquid); method: EBULLIO:UFactor:8
Mole fraction of dimethylformamide	Boiling temperature at pressure P, K	uncertainty
0	472.55	0.69
0.1438	466.95	0.69
0.2516	462.15	0.69
0.3351	458.05	0.69
0.4021	454.55	0.69
0.4516	452.05	0.69
0.5021	449.25	0.69
0.6298	442.15	0.69
0.6604	440.55	0.69
0.6941	438.65	0.69
0.7314	436.65	0.69
0.7729	434.45	0.69
0.8194	432.15	0.69
0.8719	429.55	0.69
0.9315	426.95	0.69
1	424.35	0.69

System: dimethylformamide + bromobenzene; phases: Liquid, Gas
Fixed: Pressure, kPa = 95.5
Property: Boiling temperature at pressure P, K (Liquid); method: EBULLIO:UFactor:8
Mole fraction of dimethylformamide	Boiling temperature at pressure P, K	uncertainty
0	427.05	0.69
0.1311	424.65	0.69
0.2321	422.95	0.69
0.312	421.85	0.69
0.3768	421.05	0.69
0.4308	420.45	0.69
0.4756	419.95	0.69
0.5141	419.65	0.69
0.6043	418.95	0.69
0.6362	418.85	0.69
0.6711	418.75	0.69
0.71	418.55	0.69
0.8025	418.45	0.69
0.8596	418.65	0.69
0.9245	419.55	0.69
1	424.35	0.69

System: dimethylformamide + N,N-dimethylethanamide; phases: Liquid, Gas
Fixed: Pressure, kPa = 95.5
Property: Boiling temperature at pressure P, K (Liquid); method: EBULLIO:UFactor:8
Mole fraction of N,N-dimethylethanamide	Boiling temperature at pressure P, K	uncertainty
0	424.35	0.88
0.0842	421.15	0.88
0.1555	419.85	0.88
0.2165	419.15	0.88
0.2693	418.65	0.88
0.3153	418.25	0.88
0.3559	417.95	0.88
0.3929	417.75	0.88
0.4532	417.45	0.88
0.4825	417.25	0.88
0.5159	417.05	0.88
0.5543	416.95	0.88
0.5988	416.75	0.88
0.6511	416.55	0.88
0.7133	416.35	0.88
0.7886	416.15	0.88
0.8818	415.85	0.88
1	415.55	0.88

System: aniline + dimethylformamide; phases: Liquid, Gas
Fixed: Pressure, kPa = 95.5
Property: Boiling temperature at pressure P, K (Liquid); method: EBULLIO:UFactor:8
Mole fraction of dimethylformamide	Boiling temperature at pressure P, K	uncertainty
0	455.25	0.69
0.086	454.35	0.69
0.1584	452.95	0.69
0.2201	451.25	0.69
0.2734	449.55	0.69
0.3199	447.95	0.69
0.3608	446.45	0.69
0.3971	445.05	0.69
0.4295	443.85	0.69
0.4848	441.65	0.69
0.5086	440.75	0.69
0.5595	438.85	0.69
0.6038	437.15	0.69
0.6509	435.35	0.69
0.7175	433.05	0.69
0.7921	430.55	0.69
0.8451	428.85	0.69
1	424.35	0.69

System: dimethylformamide + chlorobenzene; phases: Liquid, Gas
Fixed: Pressure, kPa = 95.5
Property: Boiling temperature at pressure P, K (Liquid); method: EBULLIO:UFactor:8
Mole fraction of chlorobenzene	Boiling temperature at pressure P, K	uncertainty
0	424.35	0.69
0.0777	416.15	0.69
0.1441	412.65	0.69
0.2016	410.75	0.69
0.252	409.45	0.69
0.2963	408.55	0.69
0.3357	407.85	0.69
0.371	407.25	0.69
0.4028	406.75	0.69
0.4312	406.45	0.69
0.4572	406.05	0.69
0.481	405.85	0.69
0.511	405.45	0.69
0.541	405.15	0.69
0.571	404.85	0.69
0.601	404.55	0.69
0.6304	404.35	0.69
0.6906	403.85	0.69
0.7733	403.05	0.69
0.8721	402.85	0.69
0.95	402.85	0.69
1	402.85	0.69
