Measured thermophysical data. Enhanced partition model of 4-nitrophenol in water - octanol system. Effects of association/dissociation processes
Source: Fluid Phase Equilib., 2016, 10.1016/j.fluid.2016.08.021
Compound 1: 4-nitrophenol, C6H5NO3, InChI=1S/C6H5NO3/c8-6-3-1-5(2-4-6)7(9)10/h1-4,8H, purity 99.9%
Compound 2: octan-1-ol, C8H18O, InChI=1S/C8H18O/c1-2-3-4-5-6-7-8-9/h9H,2-8H2,1H3, purity 99.9%
Compound 3: water, H2O, InChI=1S/H2O/h1H2, purity 99.95%

System: 4-nitrophenol + octan-1-ol + water; phases: Liquid mixture 1, Liquid mixture 2
Fixed: Pressure, kPa = 101
Fixed: Temperature, K = 298.15
Property: Mole fraction of 4-nitrophenol (Liquid mixture 1); method: UV-Vis Spectrophotometry
Mole fraction of 4-nitrophenol	Mole fraction of 4-nitrophenol	uncertainty
0.0102	0.9632	0.0368
0.0053	0.9123	0.0877
0.0027	0.9288	0.0712
0.0111	0.9745	0.0255
0.0194	0.915	0.085
0.0127	0.9159	0.0841
0.0068	0.9625	0.0375
0.0373	0.9521	0.0479
0.0198	0.9397	0.0603
0.0103	0.9711	0.0289
0.0537	0.8832	0.0886
0.0098	0.9187	0.0813
0.0087	0.9372	0.0628
0.0046	0.9641	0.0359
0.0023	0.9569	0.0431
0.0016	0.9815	0.0185
0.0152	0.9147	0.0853
0.0079	0.9754	0.0246
0.0046	0.9555	0.0445
0.03	0.9316	0.0684
0.0165	0.9643	0.0357
0.0093	0.9775	0.0225
0.0361	0.9124	0.0876
0.0079	0.9731	0.0269
0.0084	0.8726	0.0886
0.0053	0.9337	0.0663
0.003	0.9223	0.0777
0.002	0.8839	0.0886
0.0194	0.8865	0.0886
0.0093	0.8777	0.0886
0.0051	0.925	0.075
0.0318	0.878	0.0886
0.0203	0.8434	0.0887
0.0122	0.9133	0.0867
0.0443	0.8471	0.0887
0.0112	0.9207	0.0793
