Measured thermophysical data. Study of the liquid-liquid equilibrium of 1-propanol + manganese sulphate and  2-propanol + lithium sulphate aqueous two-phase systems at different temperatures: Experiment and correlation
Source: Fluid Phase Equilib., 2012, 10.1016/j.fluid.2011.10.004
Compound 1: propan-1-ol, C3H8O, InChI=1S/C3H8O/c1-2-3-4/h4H,2-3H2,1H3, purity 99.5%
Compound 2: water, H2O, InChI=1S/H2O/h1H2
Compound 3: manganese(II) sulfate, MnO4S, InChI=1S/Mn.H2O4S/c;1-5(2,3)4/h;(H2,1,2,3,4)/q+2;/p-2, purity 99%
Compound 4: propan-2-ol, C3H8O, InChI=1S/C3H8O/c1-3(2)4/h3-4H,1-2H3, purity 99.7%
Compound 5: lithium sulfate, Li2O4S, InChI=1S/2Li.H2O4S/c;;1-5(2,3)4/h;;(H2,1,2,3,4)/q2*+1;/p-2, purity 99%

System: propan-1-ol + water + manganese(II) sulfate; phases: Liquid mixture 2, Liquid mixture 1
Fixed: Pressure, kPa = 101.3
Property: Mass fraction of propan-1-ol (Liquid mixture 2); method: Index of refraction calibration data
Property: Mass fraction of manganese(II) sulfate (Liquid mixture 1); method: Index of refraction calibration data
Property: Mass fraction of propan-1-ol (Liquid mixture 1); method: Index of refraction calibration data
Temperature, K	Mass fraction of manganese(II) sulfate	Mass fraction of propan-1-ol	uncertainty	Mass fraction of manganese(II) sulfate	uncertainty	Mass fraction of propan-1-ol	uncertainty
298.15	0.2862	0.021	0.0043	0.0007	0.0007	0.757	
298.15	0.234	0.0353	0.0047	0.0024	0.0024	0.6562	
298.15	0.1585	0.0847	0.0045	0.0095	0.0041	0.5676	
298.15	0.1362	0.1031	0.0049	0.0124	0.0042	0.5265	
298.15	0.114	0.131	0.005	0.0189	0.0043	0.4837	
308.15	0.3319	0.0186	0.0041	0.0011	0.0011	0.8713	
308.15	0.2968	0.0239	0.0042	0.0018	0.0018	0.8058	
308.15	0.2636	0.0326	0.0043	0.0025	0.0025	0.7353	
308.15	0.2326	0.0425	0.0042	0.0059	0.0041	0.6729	
308.15	0.2151	0.0505	0.0043	0.0096	0.0041	0.616	
318.15	0.4132	0.008	0.0041	0.0007	0.0007	0.8784	
318.15	0.3691	0.0114	0.0041	0.0013	0.0013	0.7938	
318.15	0.3415	0.0145	0.0042	0.0019	0.0019	0.7508	
318.15	0.2679	0.0302	0.0042	0.0074	0.004	0.5982	
318.15	0.2097	0.0465	0.0042	0.011	0.004	0.4886	

System: propan-2-ol + water + lithium sulfate; phases: Liquid mixture 2, Liquid mixture 1
Fixed: Pressure, kPa = 101.3
Property: Mass fraction of lithium sulfate (Liquid mixture 2); method: Index of refraction calibration data
Property: Mass fraction of lithium sulfate (Liquid mixture 1); method: Index of refraction calibration data
Property: Mass fraction of propan-2-ol (Liquid mixture 1); method: Index of refraction calibration data
Temperature, K	Mass fraction of propan-2-ol	Mass fraction of lithium sulfate	uncertainty	Mass fraction of lithium sulfate	uncertainty	Mass fraction of propan-2-ol	uncertainty
298.15	0.0246	0.2087	0.0095	0.0046	0.0002	0.7206	
298.15	0.0349	0.1868	0.0067	0.0069	0.0003	0.6725	
298.15	0.05	0.1725	0.0056	0.0093	0.0003	0.6338	
298.15	0.0749	0.1435	0.0054	0.0121	0.0003	0.5776	
298.15	0.0826	0.1354	0.005	0.0144	0.0004	0.5456	
308.15	0.0103	0.1996	0.0113	0.0041	0.0002	0.6953	
308.15	0.0149	0.1875	0.0092	0.0055	0.0003	0.6645	
308.15	0.0218	0.1752	0.0069	0.0081	0.0003	0.6198	
308.15	0.0336	0.1626	0.0055	0.0115	0.0004	0.5811	
308.15	0.0481	0.146	0.0033	0.0151	0.0004	0.5245	
318.15	0.0053	0.2083	0.014	0.0022	0.0001	0.7029	
318.15	0.0101	0.1923	0.0112	0.0032	0.0002	0.6623	
318.15	0.0182	0.1737	0.0098	0.0061	0.0004	0.6171	
318.15	0.055	0.141	0.0039	0.0122	0.0004	0.5502	
318.15	0.1049	0.1147	0.0032	0.0185	0.0005	0.4808	
