Measured thermophysical data. Measurements and modeling of CO2 solubility in 1,8-diazabicyclo-[5.4.0]-undec-7-ene - glycerol solutions
Source: Fluid Phase Equilib., 2014, 10.1016/j.fluid.2014.04.021
Compound 1: 1,8-diaza-7-bicyclo[5.4.0]undecene, C9H16N2, InChI=1S/C9H16N2/c1-2-5-9-10-6-4-8-11(9)7-3-1/h1-8H2, purity 99%
Compound 2: glycerol, C3H8O3, InChI=1S/C3H8O3/c4-1-3(6)2-5/h3-6H,1-2H2, purity 99.5%
Compound 3: carbon dioxide, CO2, InChI=1S/CO2/c2-1-3, purity 99.99%

System: 1,8-diaza-7-bicyclo[5.4.0]undecene; phases: Liquid
Fixed: Pressure, kPa = 101
Property: Mass density, kg/m3 (Liquid); method: Vibrating tube method
Temperature, K	Mass density, kg/m3	uncertainty
293.152	1019.836	0.245
298.15	1016.147	0.242
303.15	1012.446	0.24
308.15	1008.732	0.238
313.149	1004.997	0.235
318.149	1001.248	0.233
323.15	997.479	0.232
328.149	993.692	0.232
333.149	989.886	0.232
338.148	986.062	0.232
343.148	982.224	0.232
348.147	978.366	0.232
353.149	974.493	0.232
358.154	970.601	0.232

System: glycerol + carbon dioxide; phases: Liquid, Gas
Property: Mole fraction of carbon dioxide (Liquid); method: Volumetric method
Temperature, K	Pressure, kPa of carbon dioxide	Mole fraction of carbon dioxide	uncertainty
303.4	852.9	0.01014	2e-05
313	885.3	0.0101	2e-05
322.72	921.9	0.00987	2e-05
332.3	960.1	0.00955	1e-05
338.06	987.8	0.00913	1e-05
313.29	2652.2	0.02921	1e-05
322.7	2784.6	0.02782	1e-05
332.12	2913.3	0.02677	1e-05
342.56	3050.8	0.02602	1e-05
351.92	3172.3	0.02552	1e-05
313.29	624.2	0.00608	3e-05
322.7	651.3	0.00581	2e-05
332.12	681.3	0.00541	2e-05
342.56	711.6	0.00515	2e-05
351.92	736.1	0.00507	1e-05
302.7	804.5	0.00967	2e-05
312.07	845.1	0.00904	2e-05
321.92	887.3	0.00846	2e-05
332.58	931.1	0.00799	2e-05

System: carbon dioxide + 1,8-diaza-7-bicyclo[5.4.0]undecene; phases: Liquid, Gas
Property: Mole fraction of carbon dioxide (Liquid); method: Volumetric method
Temperature, K	Pressure, kPa of carbon dioxide	Mole fraction of carbon dioxide	uncertainty
303.95	55.2	0.01907	0.00021
303.95	1409	0.19918	0.00033
303.02	368.2	0.06521	0.00043
312.39	414.4	0.06176	0.00037
321.73	458.4	0.05876	0.00034
332.19	506.6	0.05572	0.00015
342.62	552.4	0.05313	0.00013
352.11	595.5	0.05079	0.00012
302.74	954.2	0.14549	0.00021
312.09	1078.3	0.13773	0.00019
321.42	1197.7	0.13082	0.00017
331.86	1326.4	0.12398	0.00015
342.27	1451.4	0.11789	0.00014
351.73	1565.4	0.1127	0.00012
349.86	512	0.03808	0.00029
340.27	477.1	0.04121	0.00031
330.82	441.7	0.04464	0.00031
321.45	406.8	0.04822	0.00034
312.07	371.1	0.05216	0.00037
302.66	333.7	0.05664	0.00043

System: glycerol + carbon dioxide + 1,8-diaza-7-bicyclo[5.4.0]undecene; phases: Liquid, Gas
Property: Mole fraction of carbon dioxide (Liquid); method: Volumetric method
Temperature, K	Pressure, kPa	Solvent: Mole fraction of 1,8-diaza-7-bicyclo[5.4.0]undecene	Mole fraction of carbon dioxide	uncertainty
351.04	2	0.601	0.059	0.001
340.79	1.1	0.601	0.059	0.001
331.15	1	0.601	0.059	0.001
351.65	13.8	0.561	0.191	0.001
341.32	7.1	0.561	0.192	0.001
330.96	3.7	0.561	0.192	0.001
320.72	2.3	0.561	0.193	0.001
351.65	48.9	0.603	0.234	0.001
341.32	24	0.603	0.236	0.001
330.96	11.9	0.603	0.237	0.001
320.72	7	0.603	0.237	0.001
348.79	238.7	0.858	0.189	0.001
339.98	158.1	0.858	0.203	0.001
331.22	112.2	0.858	0.211	0.001
321.67	68.1	0.858	0.218	0.001
312.08	48.5	0.858	0.221	0.001
302.4	38.4	0.858	0.223	0.001
348.79	1240.3	0.809	0.333	0.001
339.98	1179.9	0.809	0.338	0.001
331.22	1131.4	0.809	0.34	0.001
321.67	1075.4	0.809	0.344	0.001
313.08	1021.6	0.809	0.348	0.001
302.4	968.8	0.809	0.351	0.001
350.52	14.5	0.567	0.188	0.001
339.86	7	0.567	0.189	0.001
330.47	3.9	0.567	0.189	0.001
321.12	2.4	0.567	0.19	0.001
350.52	33.1	0.566	0.221	0.001
339.86	15.1	0.566	0.222	0.001
330.47	9.3	0.566	0.222	0.001
321.12	6.3	0.566	0.222	0.001
353.29	12.9	0.552	0.181	0.001
342.79	6.2	0.552	0.182	0.001
332.44	3	0.552	0.183	0.001
353.29	121.5	0.577	0.306	0.001
342.79	63.2	0.577	0.31	0.001
353.98	84	0.571	0.297	0.001
344.14	47.6	0.571	0.304	0.001
334.17	25.8	0.571	0.309	0.001
349.86	291.07	0.513	0.318	0.001
340.27	281.38	0.513	0.318	0.001
330.82	270.4	0.513	0.319	0.001
321.45	262	0.513	0.319	0.001
312.07	253.72	0.513	0.319	0.001
302.66	245.56	0.513	0.319	0.001
349.86	1608.5	0.746	0.341	0.001
340.27	1550.6	0.746	0.343	0.001
330.82	1491.5	0.746	0.345	0.001
321.45	1436.5	0.746	0.347	0.001
312.07	1380.7	0.746	0.348	0.001
302.66	1323.18	0.746	0.351	0.001
349.86	441.36	0.763	0.309	0.001
340.27	420.78	0.763	0.312	0.001
330.82	410.6	0.763	0.311	0.001
321.45	386.4	0.763	0.317	0.001
312.07	372.8	0.763	0.318	0.001
302.66	359.23	0.763	0.319	0.001
