Measured thermophysical data. liquid-liquid equilibrium of substituted perfluoro-n-octane + n-octane systems
Source: Fluid Phase Equilib., 2008, 10.1016/j.fluid.2008.04.011
Compound 1: octane, C8H18, InChI=1S/C8H18/c1-3-5-7-8-6-4-2/h3-8H2,1-2H3, purity 99.5%
Compound 2: 1-bromoperfluorooctane, C8BrF17, InChI=1S/C8BrF17/c9-7(22,23)5(18,19)3(14,15)1(10,11)2(12,13)4(16,17)6(20,21)8(24,25)26, purity 99.9%
Compound 3: 1H-perfluorooctane, C8HF17, InChI=1S/C8HF17/c9-1(10)2(11,12)3(13,14)4(15,16)5(17,18)6(19,20)7(21,22)8(23,24)25/h1H, purity 97.05%
Compound 4: 1,1,2,2,3,3,4,4,5,5,6,6,7,7,8,8-hexadecafluorooctane, C8H2F16, InChI=1S/C8H2F16/c9-1(10)3(13,14)5(17,18)7(21,22)8(23,24)6(19,20)4(15,16)2(11)12/h1-2H, purity 99.1%

System: octane + 1-bromoperfluorooctane; phases: Liquid mixture 1, Liquid mixture 2, Gas
Property: Triple point temperature, K (Liquid mixture 1); method: VISOBS
Mole fraction of octane	Triple point temperature, K	uncertainty
0.104	271.22	0.17
0.1348	275.54	0.17
0.2078	278.78	0.17
0.2956	279.76	0.17
0.4126	279.68	0.17
0.4998	278.81	0.17
0.5489	277.19	0.17
0.5861	275.76	0.17
0.6063	274.61	0.17

System: octane + 1H-perfluorooctane; phases: Liquid mixture 1, Liquid mixture 2, Gas
Property: Triple point temperature, K (Liquid mixture 1); method: VISOBS
Mole fraction of octane	Triple point temperature, K	uncertainty
0.1032	315.06	0.17
0.2168	327.45	0.17
0.2988	329.34	0.17
0.4986	329.06	0.17
0.7532	313.97	0.17
0.8826	288.21	0.17

System: octane + 1,1,2,2,3,3,4,4,5,5,6,6,7,7,8,8-hexadecafluorooctane; phases: Liquid mixture 1, Liquid mixture 2, Gas
Property: Triple point temperature, K (Liquid mixture 1); method: VISOBS
Mole fraction of octane	Triple point temperature, K	uncertainty
0.0962	310.2	0.17
0.1964	324.04	0.17
0.297	327.54	0.17
0.5332	327.19	0.17
0.696	320.12	0.17
0.8073	307.49	0.17
