Measured thermophysical data. Phase equilibria for binary systems of octane boosters with 2,2,4-trimethylpentane
Source: Fluid Phase Equilib., 2005, 10.1016/j.fluid.2004.12.007
Compound 1: 2,2,4-trimethylpentane, C8H18, InChI=1S/C8H18/c1-7(2)6-8(3,4)5/h7H,6H2,1-5H3, purity 99%
Compound 2: 2-methoxy-2-methylpropane, C5H12O, InChI=1S/C5H12O/c1-5(2,3)6-4/h1-4H3, purity 99%
Compound 3: diisopropyl ether, C6H14O, InChI=1S/C6H14O/c1-5(2)7-6(3)4/h5-6H,1-4H3, purity 99%
Compound 4: dimethoxymethane, C3H8O2, InChI=1S/C3H8O2/c1-4-3-5-2/h3H2,1-2H3, purity 99%

System: 2,2,4-trimethylpentane; phases: Liquid
Property: Mass density, kg/m3 (Liquid); method: PYCNOM:UFactor:4
Temperature, K	Pressure, kPa	Mass density, kg/m3	uncertainty
298.15	101.325	687.72	0.9

System: 2,2,4-trimethylpentane; phases: Liquid, Gas
Property: Vapor or sublimation pressure, kPa (Liquid); method: EBULLIO:UFactor:8
Temperature, K	Vapor or sublimation pressure, kPa	uncertainty
370.45	95.96	0.59
372.45	101.3	0.6

System: 2-methoxy-2-methylpropane; phases: Liquid
Property: Mass density, kg/m3 (Liquid); method: PYCNOM:UFactor:4
Temperature, K	Pressure, kPa	Mass density, kg/m3	uncertainty
298.15	101.325	735.4	0.97

System: 2-methoxy-2-methylpropane; phases: Liquid, Gas
Property: Vapor or sublimation pressure, kPa (Liquid); method: EBULLIO:UFactor:8
Temperature, K	Vapor or sublimation pressure, kPa	uncertainty
326.55	95.96	0.64
328.35	101.3	0.6

System: diisopropyl ether; phases: Liquid
Property: Mass density, kg/m3 (Liquid); method: PYCNOM:UFactor:4
Temperature, K	Pressure, kPa	Mass density, kg/m3	uncertainty
298.15	101.325	718.14	0.95

System: diisopropyl ether; phases: Liquid, Gas
Property: Vapor or sublimation pressure, kPa (Liquid); method: EBULLIO:UFactor:8
Temperature, K	Vapor or sublimation pressure, kPa	uncertainty
339.95	95.96	0.8
341.35	101.3	0.8

System: dimethoxymethane; phases: Liquid
Property: Mass density, kg/m3 (Liquid); method: PYCNOM:UFactor:4
Temperature, K	Pressure, kPa	Mass density, kg/m3	uncertainty
298.15	101.325	847.51	1.15

System: dimethoxymethane; phases: Liquid, Gas
Property: Vapor or sublimation pressure, kPa (Liquid); method: EBULLIO:UFactor:8
Temperature, K	Vapor or sublimation pressure, kPa	uncertainty
313.75	95.96	0.75
315.25	101.3	0.8

System: 2,2,4-trimethylpentane + 2-methoxy-2-methylpropane; phases: Liquid, Gas
Fixed: Pressure, kPa = 95.96
Property: Boiling temperature at pressure P, K (Liquid); method: EBULLIO:UFactor:8
Mole fraction of 2-methoxy-2-methylpropane	Boiling temperature at pressure P, K	uncertainty
0	370.45	0.31
0.1038	361.25	0.31
0.1809	355.85	0.31
0.2581	351.15	0.31
0.367	345.45	0.31
0.448	342.05	0.31
0.5512	338.15	0.31
0.6761	334.25	0.31
0.7356	332.65	0.31
0.8182	330.65	0.31
0.893	328.85	0.31
0.9343	327.95	0.31
1	326.55	0.31

System: diisopropyl ether + 2,2,4-trimethylpentane; phases: Liquid, Gas
Fixed: Pressure, kPa = 95.96
Property: Boiling temperature at pressure P, K (Liquid); method: EBULLIO:UFactor:8
Mole fraction of diisopropyl ether	Boiling temperature at pressure P, K	uncertainty
0	370.45	0.31
0.0886	364.55	0.31
0.1693	360.25	0.31
0.2262	357.65	0.31
0.3277	353.75	0.31
0.4381	350.25	0.31
0.5214	348.15	0.31
0.637	345.65	0.31
0.7373	343.75	0.31
0.8239	342.45	0.31
0.9335	340.85	0.31
1	339.95	0.31

System: dimethoxymethane + 2,2,4-trimethylpentane; phases: Liquid, Gas
Fixed: Pressure, kPa = 95.96
Property: Boiling temperature at pressure P, K (Liquid); method: EBULLIO:UFactor:8
Mole fraction of dimethoxymethane	Boiling temperature at pressure P, K	uncertainty
0	370.45	0.31
0.0762	352.75	0.31
0.1625	340.95	0.31
0.243	333.75	0.31
0.3514	327.35	0.31
0.4452	323.35	0.31
0.5621	319.85	0.31
0.6498	318.05	0.31
0.7428	316.55	0.31
0.8229	315.55	0.31
0.9204	314.55	0.31
1	313.75	0.31
