Measured thermophysical data. Measurement of the speed of sound in supercritical n-hexane at temperatures from (509.17-637.99) K and pressures from (3.5-7.5) MPa
Source: Fluid Phase Equilib., 2019, 10.1016/j.fluid.2019.06.001
Compound 1: hexane, C6H14, InChI=1S/C6H14/c1-3-5-6-4-2/h3-6H2,1-2H3

System: hexane; phases: Fluid (supercritical or subcritical phases)
Property: Speed of sound, m/s (Fluid (supercritical or subcritical phases)); method: Brillouin light scattering technique
Temperature, K	Pressure, kPa	Speed of sound, m/s	uncertainty
509.17	3500	162.1	9.4
511.69	3500	138.7	8.8
514.46	3500	112.5	8.6
517.72	3500	95.8	8.2
519.87	3500	100.4	7.2
523.79	3500	112.7	6.2
527.85	3500	120.4	5.5
533.83	3500	134.2	5.7
538.84	3500	140.1	6.1
543.69	3500	145.3	6.3
548.31	3500	149.2	6.8
553.1	3500	155.1	7.1
558.44	3500	161.5	7.3
562.56	3500	164.9	7.5
568.21	3500	168.8	7.9
574.58	3500	174.8	8.2
578.77	3500	177.5	8.3
584.09	3500	183	8.6
588.59	3500	186.5	8.7
594.05	3500	188.6	9.2
598.83	3500	192.2	9.3
603.41	3500	195.9	9.5
608.96	3500	198.5	9.6
614.5	3500	203.1	9.9
618.79	3500	204.3	9.9
624.52	3500	206.1	10.4
629.29	3500	209.3	10.5
573.18	5500	150	6.7
578.22	5500	154	6.9
582.79	5500	157.3	7
588.07	5500	160.4	7.1
592.61	5500	164.2	7.3
597.98	5500	169.1	7.9
602.85	5500	172	8
608.05	5500	178	8.3
612.5	5500	180.2	8.4
618.05	5500	184.3	8.5
622.8	5500	186.5	8.6
628.11	5500	190.4	9.2
633.07	5500	193.6	9.4
636.04	5500	195	9.4
509.44	6500	331.1	21.4
511.27	6500	324.2	20.9
514.43	6500	314.1	19.7
517.58	6500	303.6	18.4
520.46	6500	289	17.1
523.63	6500	278.2	16.5
528.58	6500	263.2	15.2
533.48	6500	248.1	13.8
538.58	6500	231.5	12.6
543.14	6500	219.9	11.6
548.14	6500	207.4	10.9
553.55	6500	194.1	9.8
559.79	6500	180.9	8.9
633.86	3500	210.4	10.6
637.99	3500	211.6	10.6
509.4	4500	243.8	14
511.26	4500	232.7	13.2
514.5	4500	216.4	12.3
517.47	4500	201.9	11.4
520.36	4500	183.7	10.1
523.4	4500	168.4	8.9
527.66	4500	155	7.6
533.3	4500	131.7	6
538.14	4500	125	5.5
543	4500	125.6	5.4
547.96	4500	130.2	5.6
553.6	4500	134.9	5.8
558.48	4500	139.2	6
562.44	4500	142.8	6.1
567.95	4500	150.6	6.8
573.36	4500	155.7	7
578.08	4500	161.3	7.2
582.93	4500	164.7	7.4
587.91	4500	170.5	8
593.04	4500	174.8	8.1
597.84	4500	178.5	8.3
602.73	4500	181.2	8.4
608.03	4500	183.5	8.5
612.7	4500	187	9.1
617.91	4500	193.6	9.4
623.06	4500	195.6	9.5
628.15	4500	198.3	9.6
563.76	6500	171.7	8.4
568.59	6500	169	8.1
573.51	6500	165.9	7.6
578.65	6500	167.9	7.9
583.09	6500	165.5	7.4
588.45	6500	166.4	7.5
592.78	6500	168.5	7.9
598.14	6500	168.6	7.8
603.05	6500	173.4	8.1
608.12	6500	175.1	8.1
612.69	6500	179.7	8.3
618.21	6500	182	8.4
622.49	6500	184.8	8.6
628.16	6500	189	9.1
632.99	6500	192.3	9.3
635.5	6500	194.3	9.4
509.67	7500	361.3	24.7
511.34	7500	355.3	24.3
514.25	7500	347.2	23.1
517.46	7500	336.8	22.4
520.19	7500	328.5	21.2
523.93	7500	316.5	19.9
528.42	7500	304.2	18.5
533.43	7500	285.3	16.8
538.81	7500	270.8	15.5
543.52	7500	259.9	14.9
548.56	7500	248.3	13.8
553.44	7500	235.1	12.6
560.33	7500	222.2	11.6
632.52	4500	202.1	9.8
636.79	4500	204.9	9.9
509.57	5500	291.1	17.8
511.22	5500	286.1	16.9
514.6	5500	272	15.7
517.82	5500	260.2	15.1
520.54	5500	245.2	13.8
523.89	5500	229.4	12.6
528.22	5500	210.9	11.3
533.62	5500	194.1	10.3
538.33	5500	174.8	9
543.21	5500	165.4	8.1
547.89	5500	158.2	7.6
554.09	5500	150.9	7
558.9	5500	144.8	6.4
563.13	5500	143.4	6.2
568.4	5500	146.5	6.6
563.92	7500	215.1	11.2
568.54	7500	205.6	10.7
573.12	7500	201.1	10
579.07	7500	191.7	9.4
583.3	7500	190.5	9.4
589.01	7500	188.8	9.3
593.24	7500	187.8	9.2
598.52	7500	186.2	8.7
603.44	7500	186	8.7
608.49	7500	185.6	8.6
613.43	7500	187.8	9.1
618.56	7500	190.1	9.2
622.59	7500	191	9.2
628.12	7500	194.6	9.4
633.06	7500	196.8	9.5
635.27	7500	198	9.6
