Measured thermophysical data. Transport properties of protic ionic liquids,pure and in aqueous solutions: Effects of the anion and cation structure
Source: Fluid Phase Equilib., 2010, 10.1016/j.fluid.2010.05.019
Compound 1: pyrrolidinium nitrate, C4H10N2O3, InChI=1S/C4H9N.NO3/c1-2-4-5-3-1;2-1(3)4/h5H,1-4H2;/q;-1/p+1
Compound 2: pyrrolidinium acetate, C6H13NO2, InChI=1S/C4H9N.C2H4O2/c1-2-4-5-3-1;1-2(3)4/h5H,1-4H2;1H3,(H,3,4)
Compound 3: pyrrolidinium formate, C5H11NO2, InChI=1S/C4H9N.CH2O2/c1-2-4-5-3-1;2-1-3/h5H,1-4H2;1H,(H,2,3)
Compound 4: ethyldiisopropylammonium formate, C9H21NO2, InChI=1S/C8H19N.CH2O2/c1-6-9(7(2)3)8(4)5;2-1-3/h7-8H,6H2,1-5H3;1H,(H,2,3)
Compound 5: 2-pentanaminium formate, C6H15NO2, InChI=1S/C5H13N.CH2O2/c1-3-4-5(2)6;2-1-3/h5H,3-4,6H2,1-2H3;1H,(H,2,3)
Compound 6: quinolinium formate, C10H9NO2, InChI=1S/C9H7N.CH2O2/c1-2-6-9-8(4-1)5-3-7-10-9;2-1-3/h1-7H;1H,(H,2,3)
Compound 7: 1,2-dimethylpyridinium formate, C8H11NO2, InChI=1S/C7H10N.CH2O2/c1-7-5-3-4-6-8(7)2;2-1-3/h3-6H,1-2H3;1H,(H,2,3)/q+1;/p-1
Compound 8: 1,2,3-trimethylpyridinium formate, C9H13NO2, InChI=1S/C8H12N.CH2O2/c1-7-5-4-6-9(3)8(7)2;2-1-3/h4-6H,1-3H3;1H,(H,2,3)/q+1;/p-1
Compound 9: pyrrolidinium hexanoate, C10H21NO2, InChI=1S/C6H12O2.C4H9N/c1-2-3-4-5-6(7)8;1-2-4-5-3-1/h2-5H2,1H3,(H,7,8);5H,1-4H2
Compound 10: pyrrolidinium heptanoate, C11H23NO2, InChI=1S/C7H14O2.C4H9N/c1-2-3-4-5-6-7(8)9;1-2-4-5-3-1/h2-6H2,1H3,(H,8,9);5H,1-4H2
Compound 11: pyrrolidinium octanoate, C12H25NO2, InChI=1S/C8H16O2.C4H9N/c1-2-3-4-5-6-7-8(9)10;1-2-4-5-3-1/h2-7H2,1H3,(H,9,10);5H,1-4H2
Compound 12: pyrrolidinium nonanoate, C13H27NO2, InChI=1S/C9H18O2.C4H9N/c1-2-3-4-5-6-7-8-9(10)11;1-2-4-5-3-1/h2-8H2,1H3,(H,10,11);5H,1-4H2
Compound 13: water, H2O, InChI=1S/H2O/h1H2, purity 99.9%

System: pyrrolidinium nitrate; phases: Liquid
Property: Viscosity, Pa*s (Liquid); method: Cone and plate viscometry
Temperature, K	Pressure, kPa	Viscosity, Pa*s	uncertainty
298.15	101.325	0.0052	0.0047

System: pyrrolidinium nitrate; phases: Liquid
Property: Electrical conductivity, S/m (Liquid); method: Alternating current cell with electrodes
Temperature, K	Pressure, kPa	Electrical conductivity, S/m	uncertainty
298.15	101	5.01	0.401

System: pyrrolidinium acetate; phases: Liquid
Property: Mass density, kg/m3 (Liquid); method: Pycnometric method
Temperature, K	Pressure, kPa	Mass density, kg/m3	uncertainty
298.15	101.325	1054.3	60

System: pyrrolidinium acetate; phases: Liquid
Property: Viscosity, Pa*s (Liquid); method: Cone and plate viscometry
Temperature, K	Pressure, kPa	Viscosity, Pa*s	uncertainty
298.15	101.325	0.0302	0.0272

System: pyrrolidinium acetate; phases: Liquid
Property: Electrical conductivity, S/m (Liquid); method: Alternating current cell with electrodes
Temperature, K	Pressure, kPa	Electrical conductivity, S/m	uncertainty
298.15	101	0.594	0.048

System: pyrrolidinium formate; phases: Liquid
Property: Viscosity, Pa*s (Liquid); method: Cone and plate viscometry
Temperature, K	Pressure, kPa	Viscosity, Pa*s	uncertainty
298.15	101.325	0.0025	0.0023

System: pyrrolidinium formate; phases: Liquid
Property: Electrical conductivity, S/m (Liquid); method: Alternating current cell with electrodes
Temperature, K	Pressure, kPa	Electrical conductivity, S/m	uncertainty
298.15	101	3.29	0.26

System: ethyldiisopropylammonium formate; phases: Liquid
Property: Mass density, kg/m3 (Liquid); method: Pycnometric method
Temperature, K	Pressure, kPa	Mass density, kg/m3	uncertainty
298.15	101.325	1014.4	60

System: ethyldiisopropylammonium formate; phases: Liquid
Property: Viscosity, Pa*s (Liquid); method: Cone and plate viscometry
Temperature, K	Pressure, kPa	Viscosity, Pa*s	uncertainty
298.15	101.325	0.018	0.0162

System: ethyldiisopropylammonium formate; phases: Liquid
Property: Electrical conductivity, S/m (Liquid); method: Alternating current cell with electrodes
Temperature, K	Pressure, kPa	Electrical conductivity, S/m	uncertainty
298.15	101	0.586	0.047

System: 2-pentanaminium formate; phases: Liquid
Property: Mass density, kg/m3 (Liquid); method: Pycnometric method
Temperature, K	Pressure, kPa	Mass density, kg/m3	uncertainty
298.15	101.325	1163	60

System: 2-pentanaminium formate; phases: Liquid
Property: Electrical conductivity, S/m (Liquid); method: Alternating current cell with electrodes
Temperature, K	Pressure, kPa	Electrical conductivity, S/m	uncertainty
298.15	101	0.036	0.003

System: quinolinium formate; phases: Liquid
Property: Mass density, kg/m3 (Liquid); method: Pycnometric method
Temperature, K	Pressure, kPa	Mass density, kg/m3	uncertainty
298.15	101.325	1153	60

System: quinolinium formate; phases: Liquid
Property: Viscosity, Pa*s (Liquid); method: Cone and plate viscometry
Temperature, K	Pressure, kPa	Viscosity, Pa*s	uncertainty
298.15	101.325	0.0082	0.00738

System: quinolinium formate; phases: Liquid
Property: Electrical conductivity, S/m (Liquid); method: Alternating current cell with electrodes
Temperature, K	Pressure, kPa	Electrical conductivity, S/m	uncertainty
298.15	101	0.415	0.033

System: 1,2-dimethylpyridinium formate; phases: Liquid
Property: Mass density, kg/m3 (Liquid); method: Pycnometric method
Temperature, K	Pressure, kPa	Mass density, kg/m3	uncertainty
298.15	101.325	1020.9	60

System: 1,2-dimethylpyridinium formate; phases: Liquid
Property: Viscosity, Pa*s (Liquid); method: Cone and plate viscometry
Temperature, K	Pressure, kPa	Viscosity, Pa*s	uncertainty
298.15	101.325	0.00261	0.00235

System: 1,2-dimethylpyridinium formate; phases: Liquid
Property: Electrical conductivity, S/m (Liquid); method: Alternating current cell with electrodes
Temperature, K	Pressure, kPa	Electrical conductivity, S/m	uncertainty
298.15	101	1.04	0.083

System: 1,2,3-trimethylpyridinium formate; phases: Liquid
Property: Mass density, kg/m3 (Liquid); method: Pycnometric method
Temperature, K	Pressure, kPa	Mass density, kg/m3	uncertainty
298.15	101.325	1167.6	60

System: 1,2,3-trimethylpyridinium formate; phases: Liquid
Property: Viscosity, Pa*s (Liquid); method: Cone and plate viscometry
Temperature, K	Pressure, kPa	Viscosity, Pa*s	uncertainty
298.15	101.325	0.01	0.009

System: 1,2,3-trimethylpyridinium formate; phases: Liquid
Property: Electrical conductivity, S/m (Liquid); method: Alternating current cell with electrodes
Temperature, K	Pressure, kPa	Electrical conductivity, S/m	uncertainty
298.15	101	0.68	0.054

System: pyrrolidinium hexanoate; phases: Liquid
Property: Mass density, kg/m3 (Liquid); method: Pycnometric method
Temperature, K	Pressure, kPa	Mass density, kg/m3	uncertainty
298.15	101.325	988	60

System: pyrrolidinium hexanoate; phases: Liquid
Property: Viscosity, Pa*s (Liquid); method: Cone and plate viscometry
Temperature, K	Pressure, kPa	Viscosity, Pa*s	uncertainty
298.15	101.325	0.0274	0.0247

System: pyrrolidinium hexanoate; phases: Liquid
Property: Electrical conductivity, S/m (Liquid); method: Alternating current cell with electrodes
Temperature, K	Pressure, kPa	Electrical conductivity, S/m	uncertainty
298.15	101	0.204	0.016

System: pyrrolidinium heptanoate; phases: Liquid
Property: Mass density, kg/m3 (Liquid); method: Pycnometric method
Temperature, K	Pressure, kPa	Mass density, kg/m3	uncertainty
298.15	101.325	972.1	60

System: pyrrolidinium heptanoate; phases: Liquid
Property: Electrical conductivity, S/m (Liquid); method: Alternating current cell with electrodes
Temperature, K	Pressure, kPa	Electrical conductivity, S/m	uncertainty
298.15	101	0.186	0.015

System: pyrrolidinium octanoate; phases: Liquid
Property: Mass density, kg/m3 (Liquid); method: Pycnometric method
Temperature, K	Pressure, kPa	Mass density, kg/m3	uncertainty
298.15	101.325	949.5	60

System: pyrrolidinium octanoate; phases: Liquid
Property: Viscosity, Pa*s (Liquid); method: Cone and plate viscometry
Temperature, K	Pressure, kPa	Viscosity, Pa*s	uncertainty
298.15	101.325	0.0365	0.0329

System: pyrrolidinium octanoate; phases: Liquid
Property: Electrical conductivity, S/m (Liquid); method: Alternating current cell with electrodes
Temperature, K	Pressure, kPa	Electrical conductivity, S/m	uncertainty
298.15	101	0.08	0.006

System: pyrrolidinium nonanoate; phases: Liquid
Property: Mass density, kg/m3 (Liquid); method: Pycnometric method
Temperature, K	Pressure, kPa	Mass density, kg/m3	uncertainty
298.15	101.325	931.5	60

System: pyrrolidinium nonanoate; phases: Liquid
Property: Viscosity, Pa*s (Liquid); method: Cone and plate viscometry
Temperature, K	Pressure, kPa	Viscosity, Pa*s	uncertainty
298.15	101.325	0.0744	0.067

System: pyrrolidinium nonanoate; phases: Liquid
Property: Electrical conductivity, S/m (Liquid); method: Alternating current cell with electrodes
Temperature, K	Pressure, kPa	Electrical conductivity, S/m	uncertainty
298.15	101	0.064	0.005

System: water; phases: Liquid
Property: Electrical conductivity, S/m (Liquid); method: Alternating current cell with electrodes
Temperature, K	Pressure, kPa	Electrical conductivity, S/m	uncertainty
298.15	101	0.0001	0.0001

System: water + pyrrolidinium nitrate; phases: Liquid
Fixed: Temperature, K = 298.15
Fixed: Pressure, kPa = 101
Property: Electrical conductivity, S/m (Liquid); method: Alternating current cell with electrodes
Mass fraction of water	Electrical conductivity, S/m	uncertainty
0	5.01	0.401
0.0476	6.79	0.543
0.0908	7.74	0.619
0.1665	9.11	0.729
0.1999	9.7	0.776
0.2591	10.41	0.833
0.3101	10.86	0.869
0.3546	11.05	0.884
0.3937	11.33	0.906
0.4592	11.19	0.895
0.4998	10.83	0.866
0.5553	10.95	0.876
0.5998	10.43	0.834
0.655	9.97	0.798
0.7013	9.42	0.754
0.7999	7.86	0.629
0.8504	6.1	0.488
0.9074	4.5	0.36
0.96	2.5	0.2
0.9987	0.122	0.01
1	0.0001	0.0001

System: water + pyrrolidinium acetate; phases: Liquid
Fixed: Temperature, K = 298.15
Fixed: Pressure, kPa = 101
Property: Electrical conductivity, S/m (Liquid); method: Alternating current cell with electrodes
Mass fraction of water	Electrical conductivity, S/m	uncertainty
0	0.594	0.048
0.0474	0.685	0.055
0.0906	0.716	0.057
0.1661	1.038	0.083
0.1994	1.108	0.089
0.2585	1.528	0.122
0.3095	1.928	0.154
0.3539	2.318	0.185
0.393	2.638	0.211
0.4585	3.238	0.259
0.499	3.518	0.281
0.5546	3.918	0.313
0.599	4.088	0.327
0.6543	4.298	0.344
0.7007	4.368	0.349
0.7554	4.428	0.354
0.8033	4.228	0.338
0.8328	4.018	0.321
1	0.0001	0.0001

System: water + pyrrolidinium formate; phases: Liquid
Fixed: Temperature, K = 298.15
Fixed: Pressure, kPa = 101
Property: Electrical conductivity, S/m (Liquid); method: Alternating current cell with electrodes
Mass fraction of water	Electrical conductivity, S/m	uncertainty
0	3.29	0.26
0.0251	4.006	0.32
0.0501	4.442	0.355
0.0907	4.95	0.4
0.1666	5.99	0.48
0.2304	6.71	0.54
0.2853	7.2	0.6
0.3329	7.54	0.6
0.3745	7.73	0.62
0.4113	7.83	0.63
0.4439	7.83	0.63
0.4995	7.77	0.62
0.5647	7.33	0.59
0.5828	7.04	0.56
0.6662	6.36	0.51
0.7055	5.92	0.47
0.7496	5.36	0.43
0.7917	4.48	0.36
0.8607	3.18	0.25
0.9018	2.13	0.17
0.9106	1.88	0.15
1	0.0001	0.0001

System: water + ethyldiisopropylammonium formate; phases: Liquid
Fixed: Temperature, K = 298.15
Fixed: Pressure, kPa = 101
Property: Electrical conductivity, S/m (Liquid); method: Alternating current cell with electrodes
Mass fraction of water	Electrical conductivity, S/m	uncertainty
0	0.586	0.047
0.0625	0.88	0.07
0.1176	1.133	0.091
0.1667	1.392	0.111
0.2105	1.665	0.133
0.25	1.955	0.156
0.3182	2.4	0.192
0.3478	2.63	0.21
0.4231	3.11	0.249
0.4643	3.36	0.269
0.5	3.51	0.281
0.5588	3.86	0.309
0.5833	3.93	0.314
0.6053	3.96	0.317
0.625	3.97	0.318
0.6429	3.97	0.318
0.6591	3.96	0.317
0.7	3.97	0.318
0.7115	3.97	0.318
0.7222	3.96	0.317
1	0.0001	0.0001

System: 2-pentanaminium formate + water; phases: Liquid
Fixed: Temperature, K = 298.15
Fixed: Pressure, kPa = 101
Property: Electrical conductivity, S/m (Liquid); method: Alternating current cell with electrodes
Mass fraction of water	Electrical conductivity, S/m	uncertainty
0	0.036	0.003
0.056	0.121	0.01
0.1005	0.197	0.016
0.1623	0.342	0.027
0.2793	0.847	0.068
0.3676	1.375	0.11
0.4366	1.923	0.154
0.5375	2.8	0.224
0.6078	3.3	0.264
0.6595	3.51	0.281
0.6992	3.6	0.288
0.7561	3.57	0.286
0.7999	3.4	0.272
0.88	2.93	0.234
0.9	2.73	0.218
0.91	2.38	0.19
0.925	2.13	0.17
0.933	1.936	0.155
0.943	1.711	0.137
0.954	1.465	0.117
0.967	1.129	0.09
0.982	0.677	0.054
1	0.0001	0.0001

System: quinolinium formate + water; phases: Liquid
Fixed: Temperature, K = 298.15
Fixed: Pressure, kPa = 101
Property: Electrical conductivity, S/m (Liquid); method: Alternating current cell with electrodes
Mass fraction of water	Electrical conductivity, S/m	uncertainty
0	0.415	0.033
0.0566	0.621	0.05
0.0909	0.854	0.068
0.1667	1.376	0.11
0.2	1.594	0.128
0.2593	2.01	0.161
0.3103	2.47	0.198
0.3548	2.84	0.227
0.3939	3.1	0.248
0.4444	3.49	0.279
0.4595	3.59	0.287
0.5	3.81	0.305
0.5652	4.11	0.329
0.6	4.23	0.338
0.6552	4.3	0.344
0.7059	4.26	0.341
0.75	4.12	0.33
0.8	3.94	0.315
0.8571	3.37	0.27
0.9	2.75	0.22
1	0.0001	0.0001

System: 1,2-dimethylpyridinium formate + water; phases: Liquid
Fixed: Temperature, K = 298.15
Fixed: Pressure, kPa = 101
Property: Electrical conductivity, S/m (Liquid); method: Alternating current cell with electrodes
Mass fraction of water	Electrical conductivity, S/m	uncertainty
0	1.04	0.083
0.051	1.374	0.11
0.0908	1.639	0.131
0.1665	2.21	0.177
0.2854	3.27	0.262
0.333	3.77	0.302
0.4114	4.52	0.362
0.4441	4.74	0.379
0.4997	5.26	0.421
0.5451	5.556	0.444
0.6151	5.98	0.478
0.6549	6.16	0.493
0.7056	6.23	0.498
0.7617	6	0.48
0.7998	5.68	0.454
0.857	4.85	0.388
0.8748	4.51	0.361
0.8888	4.21	0.337
0.8999	3.93	0.314
0.909	3.7	0.296
1	0.0001	0.0001

System: 1,2,3-trimethylpyridinium formate + water; phases: Liquid
Fixed: Temperature, K = 298.15
Fixed: Pressure, kPa = 101
Property: Electrical conductivity, S/m (Liquid); method: Alternating current cell with electrodes
Mass fraction of water	Electrical conductivity, S/m	uncertainty
0	0.68	0.054
0.0476	0.837	0.067
0.0909	0.963	0.077
0.1666	1.33	0.106
0.1999	1.48	0.118
0.2592	1.881	0.15
0.3103	2.31	0.185
0.3547	2.69	0.215
0.4117	3.23	0.258
0.4594	3.62	0.29
0.4999	3.95	0.316
0.5555	4.37	0.35
0.5999	4.65	0.372
0.6551	4.74	0.379
0.7014	4.75	0.38
0.7499	4.75	0.38
0.7999	4.51	0.361
0.8571	3.85	0.308
0.9	3.13	0.25
0.95	1.931	0.154
1	0.0001	0.0001

System: water + pyrrolidinium hexanoate; phases: Liquid
Fixed: Temperature, K = 298.15
Fixed: Pressure, kPa = 101
Property: Electrical conductivity, S/m (Liquid); method: Alternating current cell with electrodes
Mass fraction of water	Electrical conductivity, S/m	uncertainty
0	0.204	0.016
0.0476	0.568	0.045
0.0909	0.95	0.076
0.1489	1.544	0.124
0.1667	1.733	0.139
0.1837	1.914	0.153
0.2	2.01	0.161
0.2308	2.21	0.177
0.2593	2.4	0.192
0.2727	2.48	0.198
0.2982	2.61	0.209
0.3103	2.65	0.212
0.3333	2.76	0.221
0.3548	2.86	0.229
0.3846	2.91	0.233
0.403	2.91	0.233
0.4521	2.92	0.234
0.5	2.89	0.231
0.5294	2.85	0.228
0.5506	2.81	0.225
0.601	2.531	0.202
0.7015	1.964	0.157
0.8004	1.211	0.097
0.9002	0.551	0.044
1	0.0001	0.0001

System: water + pyrrolidinium heptanoate; phases: Liquid
Fixed: Temperature, K = 298.15
Fixed: Pressure, kPa = 101
Property: Electrical conductivity, S/m (Liquid); method: Alternating current cell with electrodes
Mass fraction of water	Electrical conductivity, S/m	uncertainty
0	0.186	0.015
0.0476	0.528	0.042
0.0909	0.74	0.059
0.1489	1.128	0.09
0.2	1.413	0.113
0.2593	1.8	0.144
0.2857	1.968	0.157
0.3103	2.119	0.17
0.3333	2.222	0.178
0.3548	2.309	0.185
0.375	2.383	0.191
0.3939	2.417	0.193
0.403	2.439	0.195
0.4203	2.47	0.198
0.4444	2.526	0.202
0.4595	2.557	0.205
0.4872	2.591	0.207
0.5	2.6	0.208
0.5238	2.613	0.209
0.5556	2.617	0.209
0.608	2.467	0.197
0.7011	2.121	0.17
0.805	1.516	0.121
0.905	0.728	0.058
1	0.0001	0.0001

System: water + pyrrolidinium octanoate; phases: Liquid
Fixed: Temperature, K = 298.15
Fixed: Pressure, kPa = 101
Property: Electrical conductivity, S/m (Liquid); method: Alternating current cell with electrodes
Mass fraction of water	Electrical conductivity, S/m	uncertainty
0	0.08	0.006
0.0475	0.223	0.018
0.0908	0.347	0.028
0.1664	0.635	0.051
0.1997	0.795	0.064
0.2589	1.064	0.085
0.31	1.31	0.105
0.3544	1.585	0.127
0.3935	1.704	0.136
0.459	1.925	0.154
0.4996	2.06	0.165
0.5551	2.18	0.174
0.5996	2.23	0.178
0.6292	2.23	0.178
0.6548	2.22	0.178
0.7011	2.17	0.174
0.7558	2.03	0.162
0.7724	1.966	0.157
0.8037	1.826	0.146
0.8212	1.676	0.134
1	0.0001	0.0001

System: water + pyrrolidinium nonanoate; phases: Liquid
Fixed: Temperature, K = 298.15
Fixed: Pressure, kPa = 101
Property: Electrical conductivity, S/m (Liquid); method: Alternating current cell with electrodes
Mass fraction of water	Electrical conductivity, S/m	uncertainty
0	0.064	0.005
0.0476	0.073	0.006
0.0909	0.122	0.01
0.1667	0.295	0.024
0.2	0.392	0.031
0.2593	0.579	0.046
0.3103	0.754	0.06
0.3548	0.915	0.073
0.3939	1.072	0.086
0.4595	1.29	0.103
0.5	1.435	0.115
0.5556	1.614	0.129
0.5833	1.683	0.135
0.6	1.732	0.139
0.6154	1.764	0.141
0.6296	1.789	0.143
0.6429	1.813	0.145
0.6552	1.837	0.147
0.6667	1.846	0.148
0.7143	1.87	0.15
0.8065	1.631	0.13
0.902	1.083	0.087
1	0.0001	0.0001
