Measured thermophysical data. Vapor liquid equilibrium in systems (water + organic solvent + salt) at low water concentrations but high ratios of salt to water: experimental results and modeling
Source: Fluid Phase Equilib., 2005, 10.1016/j.fluid.2004.07.017
Compound 1: sodium chloride, ClNa, InChI=1S/ClH.Na/h1H;/q;+1/p-1
Compound 2: ammonium chloride (NH4Cl), ClH4N, InChI=1S/ClH.H3N/h1H;1H3
Compound 3: sodium nitrate, NNaO3, InChI=1S/NO3.Na/c2-1(3)4;/q-1;+1
Compound 4: water, H2O, InChI=1S/H2O/h1H2
Compound 5: ethanol, C2H6O, InChI=1S/C2H6O/c1-2-3/h3H,2H2,1H3
Compound 6: 1,2-propanediol, C3H8O2, InChI=1S/C3H8O2/c1-3(5)2-4/h3-5H,2H2,1H3
Compound 7: propanoic acid, C3H6O2, InChI=1S/C3H6O2/c1-2-3(4)5/h2H2,1H3,(H,4,5)

System: ethanol + sodium chloride; phases: Liquid, Crystal
Property: Mass fraction of sodium chloride (Liquid); method: Chromatography
Temperature, K	Pressure, kPa	Mass fraction of sodium chloride	uncertainty
323	101	0.00087	4e-05

System: ethanol + ammonium chloride (NH4Cl); phases: Liquid, Crystal
Property: Mass fraction of ammonium chloride (NH4Cl) (Liquid); method: Chromatography
Temperature, K	Pressure, kPa	Mass fraction of ammonium chloride (NH4Cl)	uncertainty
323	101	0.00764	0.00031

System: ethanol + sodium nitrate; phases: Liquid, Crystal
Property: Mass fraction of sodium nitrate (Liquid); method: Chromatography
Temperature, K	Pressure, kPa	Mass fraction of sodium nitrate	uncertainty
323	101	0.00314	0.00025

System: 1,2-propanediol + sodium chloride; phases: Liquid, Crystal
Property: Mass fraction of sodium chloride (Liquid); method: Chromatography
Temperature, K	Pressure, kPa	Mass fraction of sodium chloride	uncertainty
323	101	0.0293	0.0012

System: 1,2-propanediol + ammonium chloride (NH4Cl); phases: Liquid, Crystal
Property: Mass fraction of ammonium chloride (NH4Cl) (Liquid); method: Chromatography
Temperature, K	Pressure, kPa	Mass fraction of ammonium chloride (NH4Cl)	uncertainty
323	101	0.0564	0.0023

System: 1,2-propanediol + sodium nitrate; phases: Liquid, Crystal
Property: Mass fraction of sodium nitrate (Liquid); method: Chromatography
Temperature, K	Pressure, kPa	Mass fraction of sodium nitrate	uncertainty
323	101	0.0581	0.0023

System: propanoic acid + sodium chloride; phases: Liquid, Crystal
Property: Mass fraction of sodium chloride (Liquid); method: Chromatography
Temperature, K	Pressure, kPa	Mass fraction of sodium chloride	uncertainty
323	101	0.000114	9e-06

System: propanoic acid + ammonium chloride (NH4Cl); phases: Liquid, Crystal
Property: Mass fraction of ammonium chloride (NH4Cl) (Liquid); method: Chromatography
Temperature, K	Pressure, kPa	Mass fraction of ammonium chloride (NH4Cl)	uncertainty
323	101	9e-05	7e-06

System: propanoic acid + sodium nitrate; phases: Liquid, Crystal
Property: Mass fraction of sodium nitrate (Liquid); method: Chromatography
Temperature, K	Pressure, kPa	Mass fraction of sodium nitrate	uncertainty
323	101	0.00042	3e-05

System: ethanol + sodium chloride + water; phases: Liquid, Crystal
Fixed: Pressure, kPa = 101
Fixed: Temperature, K = 323
Property: Mass fraction of sodium chloride (Liquid); method: Chromatography
Mass fraction of water	Mass fraction of sodium chloride	uncertainty
0	0.00087	4e-05
0.0047	0.00093	4e-05
0.0101	0.001	4e-05
0.0156	0.00111	4e-05
0.0192	0.00111	4e-05
0.0333	0.00138	6e-05

System: ethanol + water + ammonium chloride (NH4Cl); phases: Liquid, Crystal
Fixed: Pressure, kPa = 101
Fixed: Temperature, K = 323
Property: Mass fraction of ammonium chloride (NH4Cl) (Liquid); method: Chromatography
Mass fraction of water	Mass fraction of ammonium chloride (NH4Cl)	uncertainty
0	0.00764	0.00031
0.0101	0.00867	0.00035
0.0156	0.00919	0.00037
0.0192	0.00978	0.00039
0.0285	0.01127	0.00045
0.0483	0.01364	0.00055

System: ethanol + sodium nitrate + water; phases: Liquid, Crystal
Fixed: Pressure, kPa = 101
Fixed: Temperature, K = 323
Property: Mass fraction of sodium nitrate (Liquid); method: Chromatography
Mass fraction of water	Mass fraction of sodium nitrate	uncertainty
0	0.00314	0.00025
0.0096	0.00376	0.0003
0.0099	0.00377	0.0003
0.0149	0.0041	0.00033
0.0192	0.00437	0.00035
0.0259	0.0048	0.00038

System: 1,2-propanediol + sodium chloride + water; phases: Liquid, Crystal
Fixed: Pressure, kPa = 101
Fixed: Temperature, K = 323
Property: Mass fraction of sodium chloride (Liquid); method: Chromatography
Mass fraction of water	Mass fraction of sodium chloride	uncertainty
0	0.0293	0.0012
0.012	0.0301	0.0012
0.0171	0.0306	0.0012
0.027	0.0315	0.0013
0.0297	0.0316	0.0013
0.0308	0.0322	0.0013
0.0399	0.0331	0.0013

System: 1,2-propanediol + water + ammonium chloride (NH4Cl); phases: Liquid, Crystal
Fixed: Pressure, kPa = 101
Fixed: Temperature, K = 323
Property: Mass fraction of ammonium chloride (NH4Cl) (Liquid); method: Chromatography
Mass fraction of water	Mass fraction of ammonium chloride (NH4Cl)	uncertainty
0	0.0564	0.0023
0.0076	0.0578	0.0023
0.0178	0.058	0.0023
0.0279	0.0611	0.0024
0.0372	0.0629	0.0025

System: 1,2-propanediol + sodium nitrate + water; phases: Liquid, Crystal
Fixed: Pressure, kPa = 101
Fixed: Temperature, K = 323
Property: Mass fraction of sodium nitrate (Liquid); method: Chromatography
Mass fraction of water	Mass fraction of sodium nitrate	uncertainty
0	0.0581	0.0023
0.0074	0.0638	0.0026
0.0204	0.0691	0.0028
0.0243	0.069	0.0028
0.028	0.071	0.0028
0.028	0.0712	0.0029
0.032	0.072	0.0029

System: propanoic acid + sodium chloride + water; phases: Liquid, Crystal
Fixed: Pressure, kPa = 101
Fixed: Temperature, K = 323
Property: Mass fraction of sodium chloride (Liquid); method: Chromatography
Mass fraction of water	Mass fraction of sodium chloride	uncertainty
0	0.000114	9e-06
0.0048	0.00012	1e-05
0.0101	0.000166	1.3e-05
0.015	0.00027	2.2e-05
0.0195	0.000339	2.7e-05
0.0246	0.000422	3.4e-05
0.0291	0.000544	4.4e-05
0.0337	0.000645	5.2e-05
0.0386	0.000797	6.4e-05

System: propanoic acid + water + ammonium chloride (NH4Cl); phases: Liquid, Crystal
Fixed: Pressure, kPa = 101
Fixed: Temperature, K = 323
Property: Mass fraction of ammonium chloride (NH4Cl) (Liquid); method: Chromatography
Mass fraction of water	Mass fraction of ammonium chloride (NH4Cl)	uncertainty
0	9e-05	7e-06
0.0065	0.000162	1.3e-05
0.01	0.00022	1.8e-05
0.0154	0.000288	2.3e-05
0.0199	0.000414	3.3e-05
0.025	0.000594	4.8e-05
0.0292	0.000734	5.9e-05
0.0334	0.000912	7.3e-05
0.0389	0.00122	0.0001

System: propanoic acid + sodium nitrate + water; phases: Liquid, Crystal
Fixed: Pressure, kPa = 101
Fixed: Temperature, K = 323
Property: Mass fraction of sodium nitrate (Liquid); method: Chromatography
Mass fraction of water	Mass fraction of sodium nitrate	uncertainty
0	0.00042	3e-05
0.0052	0.00066	5e-05
0.0103	0.00088	7e-05
0.0199	0.00121	0.0001
0.0385	0.00219	0.00018
