Measured thermophysical data. Homogeneity of the water + ethanol + toluene azeotrope at 101.3 kPa
Source: Fluid Phase Equilib., 2008, 10.1016/j.fluid.2008.01.018
Compound 1: ethanol, C2H6O, InChI=1S/C2H6O/c1-2-3/h3H,2H2,1H3, purity 99.8%
Compound 2: toluene, C7H8, InChI=1S/C7H8/c1-7-5-3-2-4-6-7/h2-6H,1H3, purity 99.8%
Compound 3: water, H2O, InChI=1S/H2O/h1H2

System: ethanol + toluene + water; phases: Liquid, Gas
Fixed: Pressure, kPa = 101.3
Property: Mole fraction of ethanol (Liquid); method: Chromatography
Property: Mole fraction of water (Gas); method: Chromatography
Property: Mole fraction of ethanol (Gas); method: Chromatography
Temperature, K	Mole fraction of water	Mole fraction of ethanol	uncertainty	Mole fraction of water	uncertainty	Mole fraction of ethanol	uncertainty
351.47	0.426	0.562	0.01	0.334	0.01	0.607	
348.21	0.417	0.483	0.011	0.291	0.01	0.466	
348.39	0.198	0.604	0.01	0.222	0.01	0.552	
348.09	0.268	0.533	0.011	0.266	0.01	0.486	
348.29	0.157	0.543	0.011	0.23	0.01	0.524	
348.25	0.152	0.501	0.011	0.237	0.01	0.508	
348.04	0.153	0.402	0.01	0.28	0.01	0.452	
348.1	0.256	0.562	0.01	0.244	0.01	0.506	
348.54	0.149	0.626	0.01	0.192	0.01	0.572	
349.09	0.08	0.663	0.01	0.139	0.01	0.631	
349.02	0.077	0.585	0.01	0.141	0.01	0.622	
350.78	0.146	0.833	0.01	0.148	0.01	0.805	
348.96	0.081	0.533	0.011	0.159	0.01	0.589	
348.72	0.081	0.43	0.01	0.195	0.01	0.541	
348.51	0.457	0.453	0.011	0.32	0.01	0.47	
348.56	0.448	0.471	0.011	0.315	0.01	0.482	
348.61	0.487	0.446	0.011	0.32	0.01	0.482	
347.62	0.383	0.433	0.01	0.327	0.01	0.425	
347.66	0.434	0.395	0.01	0.333	0.01	0.413	
347.61	0.347	0.391	0.01	0.332	0.01	0.412	
350.24	0.228	0.736	0.01	0.207	0.01	0.704	
350.2	0.412	0.558	0.01	0.286	0.01	0.586	
349.17	0.256	0.664	0.01	0.227	0.01	0.609	
349.76	0.55	0.422	0.01	0.3	0.01	0.509	
348.72	0.444	0.49	0.011	0.298	0.01	0.492	
348.4	0.27	0.594	0.01	0.244	0.01	0.535	
351.07	0.653	0.336	0.01	0.322	0.01	0.517	

System: ethanol + toluene + water; phases: Liquid mixture 1, Liquid mixture 2, Gas
Fixed: Pressure, kPa = 101.3
Property: Mole fraction of ethanol (Liquid mixture 1); method: CHROM:UFactor:4
Property: Mole fraction of water (Liquid mixture 1); method: CHROM:UFactor:4
Property: Mole fraction of ethanol (Liquid mixture 2); method: CHROM:UFactor:4
Property: Mole fraction of water (Liquid mixture 2); method: CHROM:UFactor:4
Property: Mole fraction of ethanol (Gas); method: CHROM:UFactor:4
Property: Mole fraction of water (Gas); method: CHROM:UFactor:4
Temperature, K	Mole fraction of ethanol	uncertainty	Mole fraction of water	uncertainty	Mole fraction of ethanol	uncertainty	Mole fraction of water	uncertainty	Mole fraction of ethanol	uncertainty	Mole fraction of water	uncertainty
357.34	0		0.012	0.01	0		0.9997	0.0003	0		0.561	0.016
350.04	0.064	0.01	0.022	0.01	0.087	0.01	0.912	0.01	0.316	0.013	0.389	0.015
348.63	0.123	0.011	0.042	0.01	0.144	0.011	0.855	0.011	0.37	0.014	0.365	0.014
347.91	0.226	0.012	0.092	0.01	0.263	0.012	0.725	0.013	0.401	0.015	0.338	0.014
347.7	0.28	0.013	0.125	0.011	0.315	0.013	0.656	0.014	0.405	0.015	0.337	0.014
347.67	0.338	0.014	0.199	0.011	0.373	0.015	0.56	0.016	0.408	0.015	0.335	0.014
347.64	0.36	0.014	0.239	0.012	0.391	0.015	0.525	0.017	0.409	0.015	0.334	0.014
347.64	0.381	0.015	0.288	0.013	0.402	0.015	0.449	0.016	0.41	0.015	0.334	0.014
