Measured thermophysical data. Low-pressure solubilities and thermodynamics of solvation of eight gases in 1-butyl-3-methylimidazolium hexafluorophosphate
Source: Fluid Phase Equilib., 2006, 10.1016/j.fluid.2005.12.003
Compound 1: ethane, C2H6, InChI=1S/C2H6/c1-2/h1-2H3, purity 99.5%
Compound 2: methane, CH4, InChI=1S/CH4/h1H4, purity 99.995%
Compound 3: oxygen, O2, InChI=1S/O2/c1-2, purity 99.999%
Compound 4: nitrogen, N2, InChI=1S/N2/c1-2, purity 99.98%
Compound 5: hydrogen, H2, InChI=1S/H2/h1H, purity 99.9997%
Compound 6: argon, Ar, InChI=1S/Ar, purity 99.9997%
Compound 7: carbon monoxide, CO, InChI=1S/CO/c1-2, purity 99.997%
Compound 8: carbon dioxide, CO2, InChI=1S/CO2/c2-1-3, purity 99.995%
Compound 9: 1-butyl-3-methylimidazolium hexafluorophosphate, C8H15F6N2P, InChI=1S/C8H15N2.F6P/c1-3-4-5-10-7-6-9(2)8-10;1-7(2,3,4,5)6/h6-8H,3-5H2,1-2H3;/q+1;-1, purity 99.9%

System: 1-butyl-3-methylimidazolium hexafluorophosphate; phases: Liquid
Fixed: Pressure, kPa = 101.325
Property: Mass density, kg/m3 (Liquid); method: VIBTUB:UFactor:6
Temperature, K	Mass density, kg/m3	uncertainty
283.13	1380.43	1.42
293.12	1372.15	1.39
293.3	1371.88	1.39
302.83	1363.87	1.37
303.3	1363.48	1.37
312.68	1355.45	1.34
313.17	1355.18	1.34
322.64	1347.23	1.32
323.23	1346.72	1.32
332.56	1338.7	1.29
333.66	1337.95	1.29
342.41	1330.79	1.27
343.27	1329.87	1.27

System: carbon dioxide + 1-butyl-3-methylimidazolium hexafluorophosphate; phases: Liquid, Gas
Fixed: Mole fraction of carbon dioxide = 0
Property: Henry's Law constant (mole fraction scale), kPa of carbon dioxide (Liquid); method: isochoric saturation method
Temperature, K	Henry's Law constant (mole fraction scale), kPa of carbon dioxide	uncertainty
283.15	3783	93
293.17	4678	115
303.37	5709	140
303.38	5711	140
303.38	5737	141
313.29	6834	167
313.29	6824	167
323.2	8053	197
323.28	8042	197
325.64	8418	206
333.07	9459	232
333.09	9435	231
342.99	10960	268
343.04	10960	268

System: ethane + 1-butyl-3-methylimidazolium hexafluorophosphate; phases: Liquid, Gas
Fixed: Mole fraction of ethane = 0
Property: Henry's Law constant (mole fraction scale), kPa of ethane (Liquid); method: isochoric saturation method
Temperature, K	Henry's Law constant (mole fraction scale), kPa of ethane	uncertainty
283.3	19900	487
293.28	22100	541
303.36	25280	619
303.38	25210	618
303.4	25330	620
313.27	29430	721
323.21	34730	851
323.41	34830	853
333.13	42230	1034
343.1	52240	1280
343.12	52010	1274

System: methane + 1-butyl-3-methylimidazolium hexafluorophosphate; phases: Liquid, Gas
Fixed: Mole fraction of methane = 0
Property: Henry's Law constant (mole fraction scale), kPa of methane (Liquid); method: isochoric saturation method
Temperature, K	Henry's Law constant (mole fraction scale), kPa of methane	uncertainty
283.31	63570	1560
293.27	69350	1700
303.34	74790	1830
303.37	76530	1870
303.4	77140	1890
313.28	83280	2040
323.19	91360	2240
323.2	91060	2230
333.1	101400	2500
343.05	112300	2800
343.08	113800	2800

System: oxygen + 1-butyl-3-methylimidazolium hexafluorophosphate; phases: Liquid, Gas
Fixed: Mole fraction of oxygen = 0
Property: Henry's Law constant (mole fraction scale), kPa of oxygen (Liquid); method: isochoric saturation method
Temperature, K	Henry's Law constant (mole fraction scale), kPa of oxygen	uncertainty
283.18	93740	2300
292.97	102400	2500
303.36	112900	2800
303.37	112900	2800
303.4	112600	2800
313.28	121100	3000
323.08	132300	3200
323.23	131500	3200
333.17	144000	3500
343	161000	3900
343.13	158600	3900

System: nitrogen + 1-butyl-3-methylimidazolium hexafluorophosphate; phases: Liquid, Gas
Fixed: Mole fraction of nitrogen = 0
Property: Henry's Law constant (mole fraction scale), kPa of nitrogen (Liquid); method: isochoric saturation method
Temperature, K	Henry's Law constant (mole fraction scale), kPa of nitrogen	uncertainty
283.27	91420	2240
293.33	110100	2700
303.39	129100	3200
303.41	129800	3200
308.33	139300	3400
313.26	148100	3600
313.27	148200	3600
323.22	165800	4100
323.24	166300	4100
333.19	182400	4500
333.2	182800	4500
343.12	196300	4800
343.15	196700	4800

System: hydrogen + 1-butyl-3-methylimidazolium hexafluorophosphate; phases: Liquid, Gas
Fixed: Mole fraction of hydrogen = 0
Property: Henry's Law constant (mole fraction scale), kPa of hydrogen (Liquid); method: isochoric saturation method
Temperature, K	Henry's Law constant (mole fraction scale), kPa of hydrogen	uncertainty
283.4	357200	8700
293.4	244500	6000
303.39	198800	4900
303.39	198700	4900
303.4	199400	4900
308.17	189200	4600
313.28	188000	4600
313.29	185800	4600
313.79	185700	4500
318.16	187800	4600
323.17	196400	4800
323.23	195900	4800
333.19	225900	5500
343.12	281700	6900
343.14	281000	6900

System: argon + 1-butyl-3-methylimidazolium hexafluorophosphate; phases: Liquid, Gas
Fixed: Mole fraction of argon = 0
Property: Henry's Law constant (mole fraction scale), kPa of argon (Liquid); method: isochoric saturation method
Temperature, K	Henry's Law constant (mole fraction scale), kPa of argon	uncertainty
283.4	86070	2110
293.39	96320	2360
303.41	104800	2600
303.43	104600	2600
313.32	113600	2800
313.32	113300	2800
323.28	123400	3000
333.17	133900	3300
333.21	132200	3200
343.11	145400	3600
343.15	142900	3500

System: carbon monoxide + 1-butyl-3-methylimidazolium hexafluorophosphate; phases: Liquid, Gas
Fixed: Mole fraction of carbon monoxide = 0
Property: Henry's Law constant (mole fraction scale), kPa of carbon monoxide (Liquid); method: isochoric saturation method
Temperature, K	Henry's Law constant (mole fraction scale), kPa of carbon monoxide	uncertainty
283.16	120100	2900
293.2	123600	3000
303.38	124200	3000
303.41	124100	3000
313.33	126600	3100
323.25	129200	3200
333.57	132700	3300
343.27	135600	3300
