Measured thermophysical data. Apparent molar volumes and expansivities of aqueous solutions of ionic liquids, 1-alkyl-3-methylimidazolium alkyl sulfate at T = (298.15-328.15) K
Source: Fluid Phase Equilib., 2011, 10.1016/j.fluid.2011.01.001
Compound 1: water, H2O, InChI=1S/H2O/h1H2
Compound 2: 1-ethyl-3-methylimidazolium methylsulfate, C7H14N2O4S, InChI=1S/C6H11N2.CH4O4S/c1-3-8-5-4-7(2)6-8;1-5-6(2,3)4/h4-6H,3H2,1-2H3;1H3,(H,2,3,4)/q+1;/p-1
Compound 3: 1-hexyl-3-methylimidazolium methyl sulfate, C11H22N2O4S, InChI=1S/C10H19N2.CH4O4S/c1-3-4-5-6-7-12-9-8-11(2)10-12;1-5-6(2,3)4/h8-10H,3-7H2,1-2H3;1H3,(H,2,3,4)/q+1;/p-1
Compound 4: 1-hexyl-3-methylimidazolium ethyl sulfate, C12H24N2O4S, InChI=1S/C10H19N2.C2H6O4S/c1-3-4-5-6-7-12-9-8-11(2)10-12;1-2-6-7(3,4)5/h8-10H,3-7H2,1-2H3;2H2,1H3,(H,3,4,5)/q+1;/p-1

System: 1-ethyl-3-methylimidazolium methylsulfate; phases: Liquid
Fixed: Pressure, kPa = 101.325
Property: Mass density, kg/m3 (Liquid); method: Vibrating tube method
Temperature, K	Mass density, kg/m3	uncertainty
298.15	1361.2	75
308.15	1333.2	75
318.15	1319.2	75
328.15	1300.3	75

System: 1-ethyl-3-methylimidazolium methylsulfate; phases: Liquid
Fixed: Pressure, kPa = 101.325
Property: Refractive index (Na D-line) (Liquid); method: Standard Abbe refractometry
Temperature, K	Refractive index (Na D-line)	uncertainty
298.15	1.4822	0.0007
308.15	1.4782	0.0006
318.15	1.4759	0.0007
328.15	1.4704	0.0008

System: 1-hexyl-3-methylimidazolium methyl sulfate; phases: Liquid
Fixed: Pressure, kPa = 101.325
Property: Mass density, kg/m3 (Liquid); method: Vibrating tube method
Temperature, K	Mass density, kg/m3	uncertainty
298.15	1156.93	10.06
308.15	1150.32	10.06
318.15	1143.84	10.05
328.15	1137.38	10.05

System: 1-hexyl-3-methylimidazolium methyl sulfate; phases: Liquid
Fixed: Pressure, kPa = 101.325
Property: Refractive index (Na D-line) (Liquid); method: Standard Abbe refractometry
Temperature, K	Refractive index (Na D-line)	uncertainty
298.15	1.4733	0.0006
308.15	1.4708	0.0006
318.15	1.4683	0.0006
328.15	1.4654	0.0006

System: 1-hexyl-3-methylimidazolium ethyl sulfate; phases: Liquid
Fixed: Pressure, kPa = 101.325
Property: Mass density, kg/m3 (Liquid); method: Vibrating tube method
Temperature, K	Mass density, kg/m3	uncertainty
298.15	1137.54	10.05
308.15	1130.74	10.05
318.15	1124.29	10.05
328.15	1117.81	10.05

System: 1-hexyl-3-methylimidazolium ethyl sulfate; phases: Liquid
Fixed: Pressure, kPa = 101.325
Property: Refractive index (Na D-line) (Liquid); method: Standard Abbe refractometry
Temperature, K	Refractive index (Na D-line)	uncertainty
298.15	1.4677	0.0007
308.15	1.4636	0.0007
318.15	1.4596	0.0007
328.15	1.4566	0.0006

System: water + 1-ethyl-3-methylimidazolium methylsulfate; phases: Liquid
Fixed: Pressure, kPa = 101
Property: Mass density, kg/m3 (Liquid); method: Vibrating tube method
Temperature, K	Molality, mol/kg of 1-ethyl-3-methylimidazolium methylsulfate	Mass density, kg/m3	uncertainty
298.15	0.0166	998.28	75
298.15	0.0244	998.78	75
298.15	0.0302	999.18	75
298.15	0.0372	999.58	75
298.15	0.0702	1001.29	75
298.15	0.077	1001.59	75
298.15	0.0961	1002.25	75
298.15	0.1191	1003.09	75
298.15	0.1346	1003.69	75
298.15	0.1823	1005.3	75
298.15	0.3343	1011.4	75
298.15	0.4226	1014.99	75
298.15	0.5486	1020.29	75
298.15	0.573	998.28	75
308.15	0.0166	995.1	75
308.15	0.0244	995.59	75
308.15	0.0302	995.94	75
308.15	0.0372	996.31	75
308.15	0.0702	997.81	75
308.15	0.077	998.05	75
308.15	0.0961	998.74	75
308.15	0.1191	999.51	75
308.15	0.1346	999.99	75
308.15	0.1823	1002.08	75
308.15	0.3343	1008.04	75
308.15	0.4226	1011.67	75
308.15	0.5486	1017.02	75
308.15	0.573	1018.1	75
318.15	0.0166	991.05	75
318.15	0.0244	991.42	75
318.15	0.0302	991.68	75
318.15	0.0372	992	75
318.15	0.0702	993.46	75
318.15	0.077	993.68	75
318.15	0.0961	994.43	75
318.15	0.1191	995.31	75
318.15	0.1346	995.93	75
318.15	0.1823	997.93	75
318.15	0.3343	1003.88	75
318.15	0.4226	1007.18	75
318.15	0.5486	1011.85	75
318.15	0.573	1012.71	75
328.15	0.0166	985.78	75
328.15	0.0244	986.12	75
328.15	0.0302	986.36	75
328.15	0.0372	986.62	75
328.15	0.0702	987.97	75
328.15	0.077	988.23	75
328.15	0.0961	988.9	75
328.15	0.1191	989.75	75
328.15	0.1346	990.36	75
328.15	0.1823	992.14	75
328.15	0.3343	997.71	75
328.15	0.4226	1000.86	75
328.15	0.5486	1005.32	75
328.15	0.573	1006.1	75

System: water + 1-hexyl-3-methylimidazolium methyl sulfate; phases: Liquid
Fixed: Pressure, kPa = 101
Property: Mass density, kg/m3 (Liquid); method: Vibrating tube method
Temperature, K	Molality, mol/kg of 1-hexyl-3-methylimidazolium methyl sulfate	Mass density, kg/m3	uncertainty
298.15	0.0118	997.55	10
298.15	0.0314	998.37	10
298.15	0.0497	999.1	10
298.15	0.076	1000.09	10
298.15	0.0937	1000.68	10
298.15	0.154	1002.59	10
298.15	0.3076	1006.3	10
298.15	0.5023	1010.81	10
298.15	0.6255	1013.9	10
298.15	0.7024	1015.42	10
298.15	0.8838	1020.02	10
298.15	1.0712	1024.02	10
298.15	1.2835	1028.91	10
298.15	1.5445	1034.22	10
308.15	0.0118	994.47	10
308.15	0.0314	995.17	10
308.15	0.0497	995.8	10
308.15	0.076	996.65	10
308.15	0.0937	997.19	10
308.15	0.154	998.9	10
308.15	0.3076	1002.6	10
308.15	0.5023	1006.62	10
308.15	0.6255	1009.13	10
308.15	0.7024	1010.54	10
308.15	0.8838	1014	10
308.15	1.0712	1017.44	10
308.15	1.2835	1021.24	10
308.15	1.5445	1026.15	10
318.15	0.0118	990.58	10
318.15	0.0314	991.17	10
318.15	0.0497	991.69	10
318.15	0.076	992.4	10
318.15	0.0937	992.86	10
318.15	0.154	994.35	10
318.15	0.3076	997.53	10
318.15	0.5023	1001.55	10
318.15	0.6255	1003.9	10
318.15	0.7024	1005.28	10
318.15	0.8838	1008.57	10
318.15	1.0712	1012.23	10
318.15	1.2835	1015.5	10
318.15	1.5445	1020.01	10
328.15	0.0118	985.32	10
328.15	0.0314	985.78	10
328.15	0.0497	986.21	10
328.15	0.076	986.8	10
328.15	0.0937	987.21	10
328.15	0.154	988.41	10
328.15	0.3076	990.95	10
328.15	0.5023	994.25	10
328.15	0.6255	996.3	10
328.15	0.7024	997.49	10
328.15	0.8838	1000.18	10
328.15	1.0712	1002.98	10
328.15	1.2835	1005.89	10
328.15	1.5445	1009	10

System: water + 1-hexyl-3-methylimidazolium ethyl sulfate; phases: Liquid
Fixed: Pressure, kPa = 101
Property: Mass density, kg/m3 (Liquid); method: Vibrating tube method
Temperature, K	Molality, mol/kg of 1-hexyl-3-methylimidazolium ethyl sulfate	Mass density, kg/m3	uncertainty
298.15	0.0113	997.55	10
298.15	0.0347	998.58	10
298.15	0.0419	998.9	10
298.15	0.0614	999.73	10
298.15	0.0677	1000	10
298.15	0.1085	1001.65	10
298.15	0.2177	1005.67	10
298.15	0.3501	1010	10
298.15	0.433	1012.3	10
298.15	0.5618	1015.56	10
298.15	0.7474	1019.59	10
298.15	0.8741	1021.74	10
298.15	1.1703	1025.65	10
298.15	1.3434	1027.8	10
308.15	0.0113	994.52	10
308.15	0.0347	995.5	10
308.15	0.0419	995.8	10
308.15	0.0614	996.6	10
308.15	0.0677	996.84	10
308.15	0.1085	998.38	10
308.15	0.2177	1002.07	10
308.15	0.3501	1005.78	10
308.15	0.433	1007.9	10
308.15	0.5618	1010.89	10
308.15	0.7474	1014.5	10
308.15	0.8741	1016.59	10
308.15	1.1703	1020.79	10
308.15	1.3434	1023.36	10
318.15	0.0113	990.63	10
318.15	0.0347	991.48	10
318.15	0.0419	991.73	10
318.15	0.0614	992.41	10
318.15	0.0677	992.62	10
318.15	0.1085	994	10
318.15	0.2177	997.31	10
318.15	0.3501	1000.86	10
318.15	0.433	1002.92	10
318.15	0.5618	1005.91	10
318.15	0.7474	1009.79	10
318.15	0.8741	1012.03	10
318.15	1.1703	1016.28	10
318.15	1.3434	1018.31	10
328.15	0.0113	985.41	10
328.15	0.0347	986.2	10
328.15	0.0419	986.44	10
328.15	0.0614	987.07	10
328.15	0.0677	987.28	10
328.15	0.1085	988.57	10
328.15	0.2177	991.8	10
328.15	0.3501	995.29	10
328.15	0.433	997.21	10
328.15	0.5618	1000.07	10
328.15	0.7474	1003.7	10
328.15	0.8741	1005.94	10
328.15	1.1703	1010.91	10
328.15	1.3434	1013.65	10
