Measured thermophysical data. Conductivities of 1-alkyl-3-methylimidazolium chloride ionic liquids in monosaccharide + water solutions at 298.15 K
Source: Fluid Phase Equilib., 2012, 10.1016/j.fluid.2011.11.028
Compound 1: D-glucose, C6H12O6, InChI=1S/C6H12O6/c7-1-3(9)5(11)6(12)4(10)2-8/h1,3-6,8-12H,2H2/t3-,4+,5+,6+/m0/s1, purity 99.5%
Compound 2: (+)-galactose, C6H12O6, InChI=1S/C6H12O6/c7-1-3(9)5(11)6(12)4(10)2-8/h1,3-6,8-12H,2H2/t3-,4+,5+,6-/m0/s1, purity 99.5%
Compound 3: D-xylose, C5H10O5, InChI=1S/C5H10O5/c6-1-3(8)5(10)4(9)2-7/h1,3-5,7-10H,2H2/t3-,4+,5+/m0/s1, purity 99.5%
Compound 4: D-ribose, C5H10O5, InChI=1S/C5H10O5/c6-1-3(8)5(10)4(9)2-7/h1,3-5,7-10H,2H2/t3-,4+,5-/m0/s1, purity 99.5%
Compound 5: water, H2O, InChI=1S/H2O/h1H2
Compound 6: 1-butyl-3-methylimidazolium chloride, C8H15ClN2, InChI=1S/C8H15N2.ClH/c1-3-4-5-10-7-6-9(2)8-10;/h6-8H,3-5H2,1-2H3;1H/q+1;/p-1
Compound 7: 1-hexyl-3-methylimidazolium chloride, C10H19ClN2, InChI=1S/C10H19N2.ClH/c1-3-4-5-6-7-12-9-8-11(2)10-12;/h8-10H,3-7H2,1-2H3;1H/q+1;/p-1
Compound 8: 1-methyl-3-octylimidazolium chloride, C12H23ClN2, InChI=1S/C12H23N2.ClH/c1-3-4-5-6-7-8-9-14-11-10-13(2)12-14;/h10-12H,3-9H2,1-2H3;1H/q+1;/p-1, purity 99%
Compound 9: 1-decyl-3-methylimidazolium chloride, C14H27ClN2, InChI=1S/C14H27N2.ClH/c1-3-4-5-6-7-8-9-10-11-16-13-12-15(2)14-16;/h12-14H,3-11H2,1-2H3;1H/q+1;/p-1

System: D-glucose + water; phases: Liquid
Fixed: Temperature, K = 298.15
Fixed: Pressure, kPa = 101
Property: Viscosity, Pa*s (Liquid); method: Capillary tube (Ostwald; Ubbelohde) method
Molality, mol/kg of D-glucose	Viscosity, Pa*s	uncertainty
0.2	0.000974	7e-06
0.4	0.001066	7e-06
0.6	0.001166	8e-06
0.8	0.001273	9e-06
1	0.001385	1e-05
1.2	0.001501	1.1e-05

System: D-glucose + water; phases: Liquid
Fixed: Pressure, kPa = 101
Fixed: Temperature, K = 298.15
Property: Mass density, kg/m3 (Liquid); method: Vibrating tube method
Molality, mol/kg of D-glucose	Mass density, kg/m3	uncertainty
0.2	1010.39	0.14
0.4	1023.12	0.16
0.6	1035.32	0.2
0.8	1046.92	0.23
1	1057.99	0.26
1.2	1068.59	0.29

System: (+)-galactose + water; phases: Liquid
Fixed: Temperature, K = 298.15
Fixed: Pressure, kPa = 101
Property: Viscosity, Pa*s (Liquid); method: Capillary tube (Ostwald; Ubbelohde) method
Molality, mol/kg of (+)-galactose	Viscosity, Pa*s	uncertainty
0.2	0.00097	7e-06
0.4	0.00106	7e-06
0.6	0.00116	8e-06
0.8	0.001267	9e-06
1	0.001381	1e-05
1.2	0.0015	1.1e-05

System: (+)-galactose + water; phases: Liquid
Fixed: Temperature, K = 298.15
Fixed: Pressure, kPa = 101
Property: Mass density, kg/m3 (Liquid); method: Vibrating tube method
Molality, mol/kg of (+)-galactose	Mass density, kg/m3	uncertainty
0.2	1010.73	0.07
0.4	1023.81	0.11
0.6	1036.28	0.16
0.8	1048.23	0.2
1	1059.6	0.2
1.2	1070.53	0.27

System: D-xylose + water; phases: Liquid
Fixed: Temperature, K = 298.15
Fixed: Pressure, kPa = 101
Property: Viscosity, Pa*s (Liquid); method: Capillary tube (Ostwald; Ubbelohde) method
Molality, mol/kg of D-xylose	Viscosity, Pa*s	uncertainty
0.2	0.000953	7e-06
0.4	0.001022	7e-06
0.6	0.001096	8e-06
0.8	0.001175	8e-06
1	0.001258	9e-06
1.2	0.001344	9e-06

System: D-xylose + water; phases: Liquid
Fixed: Temperature, K = 298.15
Fixed: Pressure, kPa = 101
Property: Mass density, kg/m3 (Liquid); method: Vibrating tube method
Molality, mol/kg of D-xylose	Mass density, kg/m3	uncertainty
0.2	1007.79	0.06
0.4	1018.1	0.09
0.6	1028.02	0.13
0.8	1037.53	0.16
1	1046.69	0.19
1.2	1055.41	0.22

System: D-ribose + water; phases: Liquid
Fixed: Temperature, K = 298.15
Fixed: Pressure, kPa = 101
Property: Viscosity, Pa*s (Liquid); method: Capillary tube (Ostwald; Ubbelohde) method
Molality, mol/kg of D-ribose	Viscosity, Pa*s	uncertainty
0.2	0.000949	7e-06
0.4	0.001011	7e-06
0.6	0.001077	7e-06
0.8	0.001145	8e-06
1	0.001215	8e-06
1.2	0.001278	9e-06

System: D-ribose + water; phases: Liquid
Fixed: Temperature, K = 298.15
Fixed: Pressure, kPa = 101
Property: Mass density, kg/m3 (Liquid); method: Vibrating tube method
Molality, mol/kg of D-ribose	Mass density, kg/m3	uncertainty
0.2	1007.85	0.06
0.4	1018.22	0.09
0.6	1028.18	0.13
0.8	1037.77	0.16
1	1046.98	0.19
1.2	1055.89	0.22

System: water + 1-butyl-3-methylimidazolium chloride; phases: Liquid
Fixed: Temperature, K = 298.15
Fixed: Pressure, kPa = 101
Property: Molar conductivity, S*m2/mol (Liquid); method: Alternating current cell with electrodes
Amount concentration (molarity), mol/dm3 of 1-butyl-3-methylimidazolium chloride	Molar conductivity, S*m2/mol	uncertainty
0.0004734	0.010662	0.000426
0.0006936	0.010589	0.000424
0.0008909	0.01056	0.000422
0.001113	0.010537	0.000421
0.001311	0.010518	0.000421
0.001497	0.010481	0.000419
0.00167	0.010454	0.000418
0.001839	0.010439	0.000418
0.001984	0.010426	0.000417
0.002099	0.010417	0.000417

System: water + 1-hexyl-3-methylimidazolium chloride; phases: Liquid
Fixed: Temperature, K = 298.15
Fixed: Pressure, kPa = 101
Property: Molar conductivity, S*m2/mol (Liquid); method: Alternating current cell with electrodes
Amount concentration (molarity), mol/dm3 of 1-hexyl-3-methylimidazolium chloride	Molar conductivity, S*m2/mol	uncertainty
0.0001239	0.010342	0.000414
0.0002407	0.010255	0.00041
0.0003449	0.010237	0.000409
0.0004557	0.010196	0.000408
0.0005824	0.010164	0.000407
0.0007219	0.010137	0.000405
0.0008733	0.010116	0.000405
0.0009879	0.010093	0.000404
0.001214	0.010068	0.000403
0.001417	0.010045	0.000402
0.001669	0.010011	0.0004
0.001927	0.00999	0.0004

System: water + 1-methyl-3-octylimidazolium chloride; phases: Liquid
Fixed: Temperature, K = 298.15
Fixed: Pressure, kPa = 101
Property: Molar conductivity, S*m2/mol (Liquid); method: Alternating current cell with electrodes
Amount concentration (molarity), mol/dm3 of 1-methyl-3-octylimidazolium chloride	Molar conductivity, S*m2/mol	uncertainty
0.0003264	0.010089	0.000404
0.000434	0.010057	0.000402
0.0005416	0.010033	0.000401
0.0006484	0.010013	0.000401
0.0007536	0.009995	0.0004
0.0008878	0.009975	0.000399
0.001103	0.009948	0.000398
0.001269	0.009926	0.000397
0.001538	0.009898	0.000396
0.001689	0.009887	0.000395
0.001863	0.009867	0.000395

System: water + 1-decyl-3-methylimidazolium chloride; phases: Liquid
Fixed: Temperature, K = 298.15
Fixed: Pressure, kPa = 101
Property: Molar conductivity, S*m2/mol (Liquid); method: Alternating current cell with electrodes
Amount concentration (molarity), mol/dm3 of 1-decyl-3-methylimidazolium chloride	Molar conductivity, S*m2/mol	uncertainty
0.0001226	0.009968	0.000399
0.0002378	0.00993	0.000397
0.0003622	0.009898	0.000396
0.0004428	0.00987	0.000395
0.0005678	0.009836	0.000393
0.000679	0.009812	0.000392
0.0007671	0.009797	0.000392
0.0008693	0.00978	0.000391
0.001044	0.009753	0.00039
0.001192	0.009738	0.00039
0.001374	0.009717	0.000389
0.00153	0.0097	0.000388

System: D-glucose + water + 1-butyl-3-methylimidazolium chloride; phases: Liquid
Fixed: Temperature, K = 298.15
Fixed: Pressure, kPa = 101
Property: Molar conductivity, S*m2/mol (Liquid); method: Alternating current cell with electrodes
Solvent: Molality, mol/kg of D-glucose	Amount concentration (molarity), mol/dm3 of 1-butyl-3-methylimidazolium chloride	Molar conductivity, S*m2/mol	uncertainty
0.2	0.0002869	0.009894	0.000396
0.2	0.0005488	0.009861	0.000394
0.2	0.0007813	0.00983	0.000393
0.2	0.0009687	0.009815	0.000393
0.2	0.001202	0.009786	0.000391
0.2	0.001416	0.009759	0.00039
0.2	0.001669	0.00973	0.000389
0.2	0.002079	0.009693	0.000388
0.2	0.002302	0.009673	0.000387
0.2	0.002488	0.009658	0.000386
0.4	0.0003116	0.009272	0.000371
0.4	0.0005889	0.009196	0.000368
0.4	0.0008176	0.009162	0.000366
0.4	0.001061	0.009122	0.000365
0.4	0.001293	0.009092	0.000364
0.4	0.001522	0.009072	0.000363
0.4	0.001744	0.009051	0.000362
0.4	0.001981	0.009035	0.000361
0.4	0.002198	0.009021	0.000361
0.4	0.002393	0.009002	0.00036
0.6	0.0006304	0.008542	0.000342
0.6	0.0008437	0.008514	0.000341
0.6	0.001033	0.008488	0.00034
0.6	0.001246	0.008462	0.000338
0.6	0.00143	0.008443	0.000338
0.6	0.001615	0.00843	0.000337
0.6	0.001826	0.008411	0.000336
0.6	0.002062	0.008392	0.000336
0.6	0.002269	0.008376	0.000335
0.6	0.002609	0.008353	0.000334
0.8	0.0002506	0.00803	0.000321
0.8	0.0005138	0.007984	0.000319
0.8	0.0007835	0.007951	0.000318
0.8	0.001023	0.007922	0.000317
0.8	0.001292	0.007894	0.000316
0.8	0.001548	0.007876	0.000315
0.8	0.001799	0.007855	0.000314
0.8	0.002033	0.007839	0.000314
0.8	0.00228	0.007823	0.000313
0.8	0.002498	0.007806	0.000312
1	0.000196	0.007454	0.000298
1	0.0004887	0.007413	0.000297
1	0.0007813	0.007382	0.000295
1	0.001048	0.007367	0.000295
1	0.001289	0.007347	0.000294
1	0.001474	0.007332	0.000293
1	0.001688	0.007318	0.000293
1	0.001896	0.007303	0.000292
1	0.002086	0.007297	0.000292
1	0.002295	0.007285	0.000291
1	0.002487	0.007275	0.000291
1.2	0.0002052	0.007007	0.00028
1.2	0.0006887	0.006941	0.000278
1.2	0.0009103	0.006924	0.000277
1.2	0.001121	0.0069	0.000276
1.2	0.001353	0.006875	0.000275
1.2	0.001588	0.006854	0.000274
1.2	0.001784	0.006839	0.000274
1.2	0.001995	0.006831	0.000273
1.2	0.002216	0.006816	0.000273
1.2	0.00242	0.006805	0.000272
1.2	0.002639	0.006794	0.000272

System: (+)-galactose + water + 1-butyl-3-methylimidazolium chloride; phases: Liquid
Fixed: Temperature, K = 298.15
Fixed: Pressure, kPa = 101
Property: Molar conductivity, S*m2/mol (Liquid); method: Alternating current cell with electrodes
Solvent: Molality, mol/kg of (+)-galactose	Amount concentration (molarity), mol/dm3 of 1-butyl-3-methylimidazolium chloride	Molar conductivity, S*m2/mol	uncertainty
0.2	0.0002169	0.009929	0.000397
0.2	0.0004419	0.009885	0.000395
0.2	0.0006984	0.009839	0.000394
0.2	0.0009142	0.009806	0.000392
0.2	0.00114	0.009783	0.000391
0.2	0.001371	0.009748	0.00039
0.2	0.00161	0.009725	0.000389
0.2	0.001808	0.009702	0.000388
0.2	0.001997	0.009686	0.000387
0.2	0.002179	0.009674	0.000387
0.2	0.002365	0.009658	0.000386
0.4	0.0002219	0.009282	0.000371
0.4	0.000429	0.009221	0.000369
0.4	0.0006696	0.009183	0.000367
0.4	0.0009239	0.009143	0.000366
0.4	0.001132	0.009117	0.000365
0.4	0.001295	0.009101	0.000364
0.4	0.001468	0.009083	0.000363
0.4	0.001627	0.009068	0.000363
0.4	0.00177	0.009057	0.000362
0.4	0.001922	0.009042	0.000362
0.4	0.002107	0.009027	0.000361
0.6	0.0002324	0.008619	0.000345
0.6	0.0004456	0.008565	0.000343
0.6	0.000662	0.008556	0.000342
0.6	0.0008822	0.00852	0.000341
0.6	0.00112	0.008489	0.00034
0.6	0.001343	0.008467	0.000339
0.6	0.001551	0.008448	0.000338
0.6	0.001765	0.00843	0.000337
0.6	0.001953	0.008416	0.000337
0.6	0.00217	0.008405	0.000336
0.6	0.002426	0.008386	0.000335
0.8	0.0001949	0.008075	0.000323
0.8	0.0004858	0.008054	0.000322
0.8	0.0007501	0.00799	0.00032
0.8	0.001023	0.007952	0.000318
0.8	0.001252	0.007922	0.000317
0.8	0.00148	0.007897	0.000316
0.8	0.001686	0.007877	0.000315
0.8	0.001884	0.007862	0.000314
0.8	0.002071	0.007848	0.000314
0.8	0.00227	0.007836	0.000313
0.8	0.00246	0.007822	0.000313
1	0.0007204	0.007406	0.000296
1	0.000918	0.007389	0.000296
1	0.001109	0.007369	0.000295
1	0.00131	0.007353	0.000294
1	0.001543	0.007336	0.000293
1	0.001796	0.007321	0.000293
1	0.00204	0.007306	0.000292
1	0.002276	0.007292	0.000292
1	0.002593	0.007275	0.000291
1	0.002875	0.007261	0.00029
1.2	0.0001832	0.007057	0.000282
1.2	0.0003693	0.006992	0.00028
1.2	0.0005503	0.006952	0.000278
1.2	0.0007386	0.006927	0.000277
1.2	0.0009358	0.006906	0.000276
1.2	0.001176	0.006884	0.000275
1.2	0.001388	0.006868	0.000275
1.2	0.001655	0.006851	0.000274
1.2	0.001907	0.006834	0.000273
1.2	0.002166	0.006819	0.000273
1.2	0.002455	0.006803	0.000272

System: D-xylose + water + 1-butyl-3-methylimidazolium chloride; phases: Liquid
Fixed: Temperature, K = 298.15
Fixed: Pressure, kPa = 101
Property: Molar conductivity, S*m2/mol (Liquid); method: Alternating current cell with electrodes
Solvent: Molality, mol/kg of D-xylose	Amount concentration (molarity), mol/dm3 of 1-butyl-3-methylimidazolium chloride	Molar conductivity, S*m2/mol	uncertainty
0.2	0.0001942	0.010011	0.0004
0.2	0.0003644	0.009975	0.000399
0.2	0.0005635	0.009936	0.000397
0.2	0.0007475	0.009913	0.000397
0.2	0.0009255	0.009889	0.000396
0.2	0.001144	0.009868	0.000395
0.2	0.001361	0.009843	0.000394
0.2	0.001523	0.009825	0.000393
0.2	0.001691	0.009808	0.000392
0.2	0.001852	0.009792	0.000392
0.2	0.002026	0.009779	0.000391
0.4	0.00045	0.009467	0.000379
0.4	0.0006294	0.009426	0.000377
0.4	0.0008092	0.009393	0.000376
0.4	0.0009722	0.009374	0.000375
0.4	0.001138	0.009351	0.000374
0.4	0.001304	0.009333	0.000373
0.4	0.001458	0.009318	0.000373
0.4	0.001623	0.009302	0.000372
0.4	0.001782	0.009289	0.000372
0.4	0.001936	0.009275	0.000371
0.6	0.0002297	0.008949	0.000358
0.6	0.0004604	0.008909	0.000356
0.6	0.0006709	0.008883	0.000355
0.6	0.0008734	0.008862	0.000354
0.6	0.001068	0.008848	0.000354
0.6	0.00124	0.008829	0.000353
0.6	0.001398	0.008817	0.000353
0.6	0.001549	0.008806	0.000352
0.6	0.001699	0.008792	0.000352
0.6	0.001853	0.008783	0.000351
0.6	0.002019	0.00877	0.000351
0.6	0.002261	0.008752	0.00035
0.8	0.0003954	0.008438	0.000338
0.8	0.000589	0.008409	0.000336
0.8	0.0007895	0.008388	0.000336
0.8	0.0009865	0.008368	0.000335
0.8	0.001171	0.008349	0.000334
0.8	0.001344	0.008333	0.000333
0.8	0.001516	0.008319	0.000333
0.8	0.001666	0.008309	0.000332
0.8	0.001831	0.008295	0.000332
0.8	0.001984	0.008286	0.000331
0.8	0.002164	0.008274	0.000331
1	0.0004915	0.007996	0.00032
1	0.000721	0.007967	0.000319
1	0.0009631	0.007941	0.000318
1	0.001191	0.007918	0.000317
1	0.001426	0.007899	0.000316
1	0.001607	0.007887	0.000315
1	0.001796	0.007872	0.000315
1	0.002006	0.007857	0.000314
1	0.002168	0.007847	0.000314
1	0.00239	0.007833	0.000313
1.2	0.000428	0.007571	0.000303
1.2	0.0006058	0.007549	0.000302
1.2	0.0007741	0.007536	0.000301
1.2	0.0009359	0.007519	0.000301
1.2	0.00111	0.007504	0.0003
1.2	0.00129	0.00749	0.0003
1.2	0.001453	0.007478	0.000299
1.2	0.001617	0.007468	0.000299
1.2	0.001778	0.007458	0.000298
1.2	0.001942	0.007447	0.000298
1.2	0.002197	0.007432	0.000297

System: D-ribose + water + 1-butyl-3-methylimidazolium chloride; phases: Liquid
Fixed: Pressure, kPa = 101
Fixed: Temperature, K = 298.15
Property: Molar conductivity, S*m2/mol (Liquid); method: Alternating current cell with electrodes
Solvent: Molality, mol/kg of D-ribose	Amount concentration (molarity), mol/dm3 of 1-butyl-3-methylimidazolium chloride	Molar conductivity, S*m2/mol	uncertainty
0.2	0.0007689	0.009976	0.000399
0.2	0.0009402	0.009954	0.000398
0.2	0.001108	0.009936	0.000397
0.2	0.001247	0.009923	0.000397
0.2	0.001392	0.009907	0.000396
0.2	0.001523	0.009894	0.000396
0.2	0.001667	0.00988	0.000395
0.2	0.001821	0.009867	0.000395
0.2	0.002012	0.009851	0.000394
0.4	0.0004285	0.009493	0.00038
0.4	0.0006439	0.009463	0.000379
0.4	0.0008817	0.009444	0.000378
0.4	0.001081	0.00942	0.000377
0.4	0.001287	0.009396	0.000376
0.4	0.001517	0.009378	0.000375
0.4	0.001708	0.009363	0.000375
0.4	0.001911	0.009345	0.000374
0.4	0.002095	0.009328	0.000373
0.4	0.00229	0.009315	0.000373
0.6	0.0002257	0.009053	0.000362
0.6	0.0004326	0.009006	0.00036
0.6	0.0006057	0.008978	0.000359
0.6	0.000802	0.008953	0.000358
0.6	0.0009766	0.008935	0.000357
0.6	0.001176	0.008916	0.000357
0.6	0.001357	0.008903	0.000356
0.6	0.001537	0.008888	0.000356
0.6	0.001738	0.008876	0.000355
0.6	0.001926	0.00886	0.000354
0.8	0.0005455	0.008531	0.000341
0.8	0.0007137	0.008497	0.00034
0.8	0.0008919	0.008479	0.000339
0.8	0.001074	0.008463	0.000339
0.8	0.001246	0.00845	0.000338
0.8	0.001432	0.008435	0.000337
0.8	0.001611	0.008424	0.000337
0.8	0.001934	0.008402	0.000336
0.8	0.00228	0.00838	0.000335
1	0.0002028	0.008148	0.000326
1	0.0003948	0.008107	0.000324
1	0.0005844	0.008081	0.000323
1	0.0007774	0.008058	0.000322
1	0.0009651	0.008043	0.000322
1	0.001147	0.008029	0.000321
1	0.001329	0.008016	0.000321
1	0.001502	0.008003	0.00032
1	0.001679	0.007987	0.000319
1	0.001969	0.00797	0.000319
1.2	0.0006083	0.007682	0.000307
1.2	0.0007875	0.007654	0.000306
1.2	0.0009736	0.007642	0.000306
1.2	0.001175	0.007619	0.000305
1.2	0.001399	0.007604	0.000304
1.2	0.001634	0.007591	0.000304
1.2	0.001841	0.007579	0.000303
1.2	0.002168	0.007562	0.000302
1.2	0.002522	0.007545	0.000302

System: D-glucose + water + 1-hexyl-3-methylimidazolium chloride; phases: Liquid
Fixed: Temperature, K = 298.15
Fixed: Pressure, kPa = 101
Property: Molar conductivity, S*m2/mol (Liquid); method: Alternating current cell with electrodes
Solvent: Molality, mol/kg of D-glucose	Amount concentration (molarity), mol/dm3 of 1-hexyl-3-methylimidazolium chloride	Molar conductivity, S*m2/mol	uncertainty
0.2	0.0001425	0.009503	0.00038
0.2	0.0002146	0.009476	0.000379
0.2	0.0003082	0.009447	0.000378
0.2	0.000438	0.009425	0.000377
0.2	0.0005838	0.009405	0.000376
0.2	0.0007295	0.009382	0.000375
0.2	0.0008688	0.009362	0.000374
0.2	0.000985	0.00935	0.000374
0.2	0.001223	0.009318	0.000373
0.2	0.001384	0.009305	0.000372
0.2	0.001685	0.009283	0.000371
0.2	0.001884	0.009264	0.000371
0.4	0.0001911	0.008853	0.000354
0.4	0.0004128	0.008802	0.000352
0.4	0.0006005	0.008775	0.000351
0.4	0.000743	0.00875	0.00035
0.4	0.0008879	0.00874	0.00035
0.4	0.001043	0.008717	0.000349
0.4	0.001182	0.008697	0.000348
0.4	0.001409	0.008671	0.000347
0.4	0.001673	0.008648	0.000346
0.4	0.001925	0.008626	0.000345
0.4	0.002196	0.008602	0.000344
0.4	0.002417	0.008586	0.000343
0.6	0.0001063	0.008289	0.000332
0.6	0.0002294	0.008256	0.00033
0.6	0.0003677	0.008211	0.000328
0.6	0.0004974	0.008183	0.000327
0.6	0.0006225	0.008161	0.000326
0.6	0.0007424	0.008143	0.000326
0.6	0.0008678	0.008131	0.000325
0.6	0.00101	0.008116	0.000325
0.6	0.001282	0.008088	0.000324
0.6	0.001584	0.008067	0.000323
0.6	0.001945	0.008038	0.000322
0.8	0.0003083	0.007675	0.000307
0.8	0.0004539	0.007642	0.000306
0.8	0.0005855	0.007623	0.000305
0.8	0.0007513	0.0076	0.000304
0.8	0.0008756	0.007584	0.000303
0.8	0.0009949	0.007571	0.000303
0.8	0.001129	0.007555	0.000302
0.8	0.001264	0.007545	0.000302
0.8	0.001547	0.007518	0.000301
0.8	0.001839	0.007493	0.0003
0.8	0.002101	0.007474	0.000299
1	0.0001138	0.007178	0.000287
1	0.0002438	0.007144	0.000286
1	0.0003501	0.007128	0.000285
1	0.0004898	0.00711	0.000284
1	0.0006493	0.007087	0.000283
1	0.000816	0.007075	0.000283
1	0.0009161	0.007065	0.000283
1	0.001058	0.007049	0.000282
1	0.001217	0.007033	0.000281
1	0.001338	0.00702	0.000281
1	0.001532	0.007005	0.00028
1	0.001842	0.00698	0.000279
1.2	0.0002644	0.006611	0.000264
1.2	0.0004397	0.006512	0.00026
1.2	0.0005655	0.006466	0.000259
1.2	0.0007389	0.006396	0.000256
1.2	0.0009031	0.006338	0.000254
1.2	0.001106	0.006231	0.000249
1.2	0.001225	0.006195	0.000248
1.2	0.001422	0.006138	0.000246
1.2	0.001584	0.006088	0.000244
1.2	0.001865	0.006006	0.00024
1.2	0.002171	0.005922	0.000237

System: D-glucose + water + 1-methyl-3-octylimidazolium chloride; phases: Liquid
Fixed: Pressure, kPa = 101
Fixed: Temperature, K = 298.15
Property: Molar conductivity, S*m2/mol (Liquid); method: Alternating current cell with electrodes
Solvent: Molality, mol/kg of D-glucose	Amount concentration (molarity), mol/dm3 of 1-methyl-3-octylimidazolium chloride	Molar conductivity, S*m2/mol	uncertainty
0.2	0.0001108	0.009464	0.000379
0.2	0.0002261	0.009407	0.000376
0.2	0.0003441	0.009385	0.000375
0.2	0.000451	0.009358	0.000374
0.2	0.0005689	0.009342	0.000374
0.2	0.0007199	0.009315	0.000373
0.2	0.0008431	0.009297	0.000372
0.2	0.0009805	0.00927	0.000371
0.2	0.001073	0.009262	0.00037
0.2	0.00129	0.009238	0.00037
0.2	0.001501	0.009214	0.000369
0.2	0.001687	0.009198	0.000368
0.2	0.001931	0.009179	0.000367
0.4	0.0001183	0.008842	0.000354
0.4	0.0002759	0.008785	0.000351
0.4	0.0003943	0.008777	0.000351
0.4	0.0005157	0.008748	0.00035
0.4	0.0006515	0.008719	0.000349
0.4	0.000759	0.008703	0.000348
0.4	0.0008719	0.008685	0.000347
0.4	0.0009824	0.008671	0.000347
0.4	0.001164	0.008647	0.000346
0.4	0.001378	0.008622	0.000345
0.4	0.001561	0.008603	0.000344
0.4	0.001765	0.008571	0.000343
0.4	0.001985	0.00856	0.000342
0.6	0.0003972	0.008129	0.000325
0.6	0.0005444	0.008087	0.000323
0.6	0.0006838	0.008065	0.000323
0.6	0.0008282	0.008044	0.000322
0.6	0.001021	0.008024	0.000321
0.6	0.001186	0.008007	0.00032
0.6	0.001323	0.007994	0.00032
0.6	0.001442	0.007984	0.000319
0.6	0.001597	0.007972	0.000319
0.6	0.001789	0.007957	0.000318
0.6	0.00203	0.007939	0.000318
0.6	0.002195	0.007929	0.000317
0.8	0.0001258	0.00762	0.000305
0.8	0.0002763	0.007563	0.000303
0.8	0.0004212	0.007533	0.000301
0.8	0.000577	0.007513	0.000301
0.8	0.0007527	0.007487	0.000299
0.8	0.0009122	0.007482	0.000299
0.8	0.001077	0.007464	0.000299
0.8	0.001257	0.00745	0.000298
0.8	0.001513	0.007439	0.000298
0.8	0.001769	0.007418	0.000297
0.8	0.001994	0.007399	0.000296
0.8	0.002264	0.00738	0.000295
1	0.0001143	0.007126	0.000285
1	0.0002781	0.00708	0.000283
1	0.0004439	0.007051	0.000282
1	0.0006066	0.007044	0.000282
1	0.00076	0.007025	0.000281
1	0.0009039	0.007006	0.00028
1	0.001047	0.006997	0.00028
1	0.00118	0.006982	0.000279
1	0.001318	0.006967	0.000279
1	0.001523	0.006949	0.000278
1	0.00172	0.006933	0.000277
1	0.001936	0.006917	0.000277
1	0.002129	0.006904	0.000276
1	0.002334	0.00689	0.000276
1.2	0.0001111	0.006641	0.000266
1.2	0.0002571	0.006608	0.000264
1.2	0.0004163	0.006581	0.000263
1.2	0.0005667	0.00657	0.000263
1.2	0.0007735	0.006542	0.000262
1.2	0.0009553	0.006522	0.000261
1.2	0.001149	0.006505	0.00026
1.2	0.001363	0.006489	0.00026
1.2	0.00159	0.006471	0.000259
1.2	0.001822	0.006455	0.000258
1.2	0.002109	0.006436	0.000257
1.2	0.002384	0.006421	0.000257
1.2	0.002648	0.006406	0.000256
1.2	0.002875	0.006394	0.000256

System: D-glucose + water + 1-decyl-3-methylimidazolium chloride; phases: Liquid
Fixed: Temperature, K = 298.15
Fixed: Pressure, kPa = 101
Property: Molar conductivity, S*m2/mol (Liquid); method: Alternating current cell with electrodes
Solvent: Molality, mol/kg of D-glucose	Amount concentration (molarity), mol/dm3 of 1-decyl-3-methylimidazolium chloride	Molar conductivity, S*m2/mol	uncertainty
0.2	0.0002519	0.009219	0.000369
0.2	0.0003827	0.009176	0.000367
0.2	0.000513	0.009145	0.000366
0.2	0.0006487	0.009118	0.000365
0.2	0.0007879	0.009099	0.000364
0.2	0.0009145	0.009085	0.000363
0.2	0.001054	0.009066	0.000363
0.2	0.001191	0.009052	0.000362
0.2	0.001362	0.009034	0.000361
0.2	0.001548	0.009016	0.000361
0.2	0.001758	0.008998	0.00036
0.2	0.001984	0.00898	0.000359
0.4	0.0001254	0.008656	0.000346
0.4	0.000241	0.008607	0.000344
0.4	0.0003515	0.008578	0.000343
0.4	0.0004619	0.008557	0.000342
0.4	0.0005726	0.008535	0.000341
0.4	0.0006938	0.008514	0.000341
0.4	0.0008148	0.008497	0.00034
0.4	0.0009407	0.008483	0.000339
0.4	0.00106	0.00847	0.000339
0.4	0.001272	0.008443	0.000338
0.4	0.001485	0.008422	0.000337
0.4	0.001704	0.008398	0.000336
0.4	0.001944	0.008378	0.000335
0.6	0.0002573	0.007992	0.00032
0.6	0.0003987	0.007963	0.000319
0.6	0.0005545	0.007939	0.000318
0.6	0.0006594	0.007918	0.000317
0.6	0.0008068	0.007892	0.000316
0.6	0.0009272	0.007874	0.000315
0.6	0.001084	0.007856	0.000314
0.6	0.001239	0.00784	0.000314
0.6	0.001444	0.007823	0.000313
0.6	0.001661	0.007802	0.000312
0.6	0.001928	0.007782	0.000311
0.6	0.00215	0.007771	0.000311
0.8	9.685e-05	0.007495	0.0003
0.8	0.000231	0.007453	0.000298
0.8	0.0003724	0.007432	0.000297
0.8	0.0006951	0.00739	0.000296
0.8	0.0008184	0.007367	0.000295
0.8	0.0009551	0.007347	0.000294
0.8	0.001096	0.00733	0.000293
0.8	0.001223	0.007317	0.000293
0.8	0.001333	0.007308	0.000292
0.8	0.001494	0.007294	0.000292
0.8	0.001657	0.00728	0.000291
0.8	0.001825	0.007268	0.000291
0.8	0.002007	0.007254	0.00029
1	0.000102	0.006984	0.000279
1	0.0002418	0.006948	0.000278
1	0.0003883	0.00692	0.000277
1	0.0005326	0.006894	0.000276
1	0.0006969	0.006877	0.000275
1	0.0008578	0.006859	0.000274
1	0.001018	0.006841	0.000274
1	0.001182	0.006825	0.000273
1	0.001349	0.006812	0.000272
1	0.001606	0.00679	0.000272
1	0.001821	0.006775	0.000271
1	0.002052	0.006763	0.000271
1	0.002345	0.006745	0.00027
1.2	0.0002274	0.006492	0.00026
1.2	0.0003882	0.006454	0.000258
1.2	0.0005481	0.00643	0.000257
1.2	0.0006984	0.006408	0.000256
1.2	0.0008368	0.006393	0.000256
1.2	0.001003	0.006375	0.000255
1.2	0.00116	0.006364	0.000255
1.2	0.001309	0.006355	0.000254
1.2	0.001541	0.006338	0.000254
1.2	0.002075	0.006304	0.000252
1.2	0.002324	0.00629	0.000252
