Measured thermophysical data. Separation abilities of three acetate-based ionic liquids for benzene-methanol mixture through vapor-liquid equilibrium experiment at 101.3 kPa
Source: Fluid Phase Equilib., 2019, 10.1016/j.fluid.2019.03.022
Compound 1: benzene, C6H6, InChI=1S/C6H6/c1-2-4-6-5-3-1/h1-6H, purity 99.9%
Compound 2: methanol, CH4O, InChI=1S/CH4O/c1-2/h2H,1H3, purity 99.9%
Compound 3: 3-hexyl-1-methylimidazolium acetate, C12H22N2O2, InChI=1S/C10H19N2.C2H4O2/c1-3-4-5-6-7-12-9-8-11(2)10-12;1-2(3)4/h8-10H,3-7H2,1-2H3;1H3,(H,3,4)/q+1;/p-1, purity 99%
Compound 4: 1-methyl-3-octylimidazolium acetate, C14H26N2O2, InChI=1S/C12H23N2.C2H4O2/c1-3-4-5-6-7-8-9-14-11-10-13(2)12-14;1-2(3)4/h10-12H,3-9H2,1-2H3;1H3,(H,3,4)/q+1;/p-1, purity 99%
Compound 5: 1-decyl-3-methylimidazolium acetate, C16H30N2O2, InChI=1S/C14H27N2.C2H4O2/c1-3-4-5-6-7-8-9-10-11-16-13-12-15(2)14-16;1-2(3)4/h12-14H,3-11H2,1-2H3;1H3,(H,3,4)/q+1;/p-1, purity 99%

System: benzene + methanol; phases: Liquid, Gas
Fixed: Pressure, kPa = 101.3
Property: Boiling temperature at pressure P, K (Liquid); method: Ebulliometric method (Recirculating still)
Mole fraction of benzene	Boiling temperature at pressure P, K	uncertainty
1	353.25	0.09
0.973	343.83	1.08
0.95	339.9	0.59
0.931	337.75	0.37
0.91	336.25	0.27
0.897	335.62	0.19
0.857	333.97	0.12
0.748	332.61	0.1
0.664	332.16	0.09
0.555	331.74	0.09
0.431	331.58	0.09
0.324	331.56	0.09
0.276	331.69	0.09
0.215	332.02	0.09
0.169	332.43	0.1
0.136	332.86	0.12
0.081	334.04	0.15
0.029	335.97	0.2
0	337.85	0.09

System: benzene + methanol; phases: Gas, Liquid
Fixed: Pressure, kPa = 101.3
Property: Mole fraction of benzene (Gas); method: Chromatography
Mole fraction of benzene	Mole fraction of benzene	uncertainty
1	1	
0.973	0.719	0.03
0.95	0.628	0.015
0.931	0.573	0.011
0.91	0.536	0.008
0.897	0.52	0.007
0.857	0.484	0.006
0.748	0.443	0.006
0.664	0.431	0.005
0.555	0.414	0.005
0.431	0.396	0.005
0.324	0.367	0.005
0.276	0.349	0.005
0.215	0.319	0.005
0.169	0.286	0.006
0.136	0.259	0.006
0.081	0.195	0.008
0.029	0.095	0.01
0	0	

System: benzene + methanol + 3-hexyl-1-methylimidazolium acetate; phases: Liquid, Gas
Fixed: Pressure, kPa = 101.3
Property: Boiling temperature at pressure P, K (Liquid); method: Ebulliometric method (Recirculating still)
Mole fraction of benzene	Mole fraction of 3-hexyl-1-methylimidazolium acetate	Boiling temperature at pressure P, K	uncertainty
0.051	0.102	337.47	0.42
0.102	0.102	335.98	0.36
0.145	0.101	335	0.35
0.203	0.101	334.64	0.34
0.236	0.102	334.65	0.34
0.284	0.102	334.91	0.34
0.322	0.102	335.17	0.33
0.365	0.102	335.48	0.33
0.398	0.102	335.97	0.34
0.46	0.102	336.67	0.34
0.511	0.102	337.55	0.36
0.555	0.102	338.49	0.37
0.601	0.101	339.5	0.38
0.633	0.102	340.62	0.38
0.686	0.102	342.38	0.36
0.738	0.102	344.72	0.36
0.779	0.102	346.92	0.36
0.825	0.102	349.17	0.35
0.041	0.152	342.69	0.46
0.095	0.152	340.5	0.42
0.125	0.152	339.73	0.41
0.182	0.152	338.99	0.39
0.228	0.152	338.87	0.39
0.266	0.152	338.88	0.38
0.302	0.152	338.97	0.37
0.35	0.152	339.31	0.37
0.389	0.152	339.82	0.36
0.439	0.153	340.51	0.37
0.476	0.153	341.14	0.37
0.521	0.152	342	0.37
0.544	0.152	342.57	0.38
0.602	0.152	344.07	0.37
0.633	0.152	344.88	0.36
0.675	0.154	346.2	0.37
0.731	0.152	348.18	0.36
0.778	0.153	350.38	0.36
0.039	0.2	348.17	0.49
0.083	0.2	346.16	0.49
0.125	0.2	345.17	0.49
0.17	0.204	344.55	0.43
0.206	0.203	344.28	0.43
0.249	0.202	344.07	0.42
0.293	0.202	343.9	0.41
0.336	0.201	344	0.4
0.366	0.202	344.32	0.4
0.408	0.202	344.82	0.39
0.441	0.202	345.16	0.4
0.5	0.202	346.12	0.39
0.526	0.202	346.6	0.38
0.567	0.203	347.37	0.37
0.608	0.202	348.4	0.36
0.65	0.202	349.47	0.37
0.696	0.203	351.05	0.38
0.736	0.201	352.33	0.37

System: benzene + methanol + 3-hexyl-1-methylimidazolium acetate; phases: Gas, Liquid
Fixed: Pressure, kPa = 101.3
Property: Mole fraction of benzene (Gas); method: Chromatography
Mole fraction of benzene	Mole fraction of 3-hexyl-1-methylimidazolium acetate	Mole fraction of benzene	uncertainty
0.051	0.102	0.177	0.009
0.102	0.102	0.275	0.009
0.145	0.101	0.336	0.008
0.203	0.101	0.397	0.008
0.236	0.102	0.429	0.008
0.284	0.102	0.466	0.009
0.322	0.102	0.489	0.009
0.365	0.102	0.525	0.01
0.398	0.102	0.54	0.009
0.46	0.102	0.587	0.01
0.511	0.102	0.622	0.01
0.555	0.102	0.652	0.01
0.601	0.101	0.683	0.01
0.633	0.102	0.699	0.01
0.686	0.102	0.743	0.01
0.738	0.102	0.787	0.01
0.779	0.102	0.825	0.01
0.825	0.102	0.88	0.011
0.041	0.152	0.171	0.011
0.095	0.152	0.308	0.011
0.125	0.152	0.361	0.009
0.182	0.152	0.439	0.009
0.228	0.152	0.488	0.009
0.266	0.152	0.525	0.009
0.302	0.152	0.557	0.009
0.35	0.152	0.597	0.009
0.389	0.152	0.626	0.009
0.439	0.153	0.665	0.009
0.476	0.153	0.693	0.009
0.521	0.152	0.727	0.009
0.544	0.152	0.742	0.009
0.602	0.152	0.786	0.009
0.633	0.152	0.813	0.009
0.675	0.154	0.847	0.009
0.731	0.152	0.89	0.009
0.778	0.153	0.934	0.009
0.039	0.2	0.182	0.013
0.083	0.2	0.318	0.012
0.125	0.2	0.406	0.009
0.17	0.204	0.479	0.009
0.206	0.203	0.527	0.009
0.249	0.202	0.579	0.009
0.293	0.202	0.622	0.009
0.336	0.201	0.661	0.009
0.366	0.202	0.688	0.009
0.408	0.202	0.719	0.009
0.441	0.202	0.746	0.008
0.5	0.202	0.789	0.008
0.526	0.202	0.809	0.008
0.567	0.203	0.84	0.008
0.608	0.202	0.869	0.008
0.65	0.202	0.899	0.008
0.696	0.203	0.93	0.008
0.736	0.201	0.957	0.007

System: benzene + methanol + 3-hexyl-1-methylimidazolium acetate; phases: Gas, Liquid
Fixed: Pressure, kPa = 101.3
Property: Mole fraction of 3-hexyl-1-methylimidazolium acetate (Gas); method: Chromatography
Mole fraction of benzene	Mole fraction of 3-hexyl-1-methylimidazolium acetate	Mole fraction of 3-hexyl-1-methylimidazolium acetate	uncertainty
0.051	0.102	0	
0.102	0.102	0	
0.145	0.101	0	
0.203	0.101	0	
0.236	0.102	0	
0.284	0.102	0	
0.322	0.102	0	
0.365	0.102	0	
0.398	0.102	0	
0.46	0.102	0	
0.511	0.102	0	
0.555	0.102	0	
0.601	0.101	0	
0.633	0.102	0	
0.686	0.102	0	
0.738	0.102	0	
0.779	0.102	0	
0.825	0.102	0	
0.041	0.152	0	
0.095	0.152	0	
0.125	0.152	0	
0.182	0.152	0	
0.228	0.152	0	
0.266	0.152	0	
0.302	0.152	0	
0.35	0.152	0	
0.389	0.152	0	
0.439	0.153	0	
0.476	0.153	0	
0.521	0.152	0	
0.544	0.152	0	
0.602	0.152	0	
0.633	0.152	0	
0.675	0.154	0	
0.731	0.152	0	
0.778	0.153	0	
0.039	0.2	0	
0.083	0.2	0	
0.125	0.2	0	
0.17	0.204	0	
0.206	0.203	0	
0.249	0.202	0	
0.293	0.202	0	
0.336	0.201	0	
0.366	0.202	0	
0.408	0.202	0	
0.441	0.202	0	
0.5	0.202	0	
0.526	0.202	0	
0.567	0.203	0	
0.608	0.202	0	
0.65	0.202	0	
0.696	0.203	0	
0.736	0.201	0	

System: benzene + methanol + 1-methyl-3-octylimidazolium acetate; phases: Liquid, Gas
Fixed: Pressure, kPa = 101.3
Property: Boiling temperature at pressure P, K (Liquid); method: Ebulliometric method (Recirculating still)
Mole fraction of benzene	Mole fraction of 1-methyl-3-octylimidazolium acetate	Boiling temperature at pressure P, K	uncertainty
0.034	0.101	340.13	0.42
0.065	0.101	338.5	0.39
0.118	0.101	336.99	0.36
0.176	0.102	336.13	0.35
0.222	0.102	336.08	0.36
0.268	0.101	335.92	0.39
0.307	0.102	336.02	0.39
0.348	0.102	336.3	0.4
0.401	0.1	336.84	0.38
0.438	0.102	337.29	0.38
0.484	0.102	338.03	0.36
0.532	0.102	338.88	0.36
0.581	0.101	339.95	0.35
0.633	0.1	341.32	0.35
0.672	0.102	342.5	0.36
0.73	0.101	344.56	0.35
0.772	0.102	346.57	0.33
0.821	0.102	349.88	0.32
0.856	0.101	352.87	0.38
0.884	0.101	355.55	0.41
0.041	0.147	343.75	0.52
0.09	0.147	341.74	0.49
0.119	0.147	341.04	0.47
0.163	0.149	340.43	0.46
0.225	0.15	340.31	0.41
0.274	0.149	340.54	0.4
0.318	0.15	340.74	0.4
0.355	0.151	341.1	0.4
0.402	0.15	341.35	0.39
0.437	0.151	341.83	0.39
0.475	0.153	342.2	0.38
0.531	0.153	343.3	0.38
0.578	0.153	344.17	0.37
0.609	0.152	344.87	0.37
0.662	0.153	346.4	0.37
0.7	0.153	347.52	0.36
0.722	0.153	348.28	0.35
0.786	0.153	350.43	0.33
0.832	0.153	352.03	0.26
0.038	0.199	350.95	0.57
0.078	0.199	349.34	0.59
0.123	0.198	347.9	0.53
0.151	0.199	347.17	0.53
0.19	0.2	346.22	0.44
0.22	0.2	345.76	0.45
0.274	0.2	345.47	0.4
0.309	0.201	345.58	0.4
0.354	0.2	345.93	0.4
0.393	0.201	346.27	0.41
0.438	0.2	346.64	0.42
0.486	0.201	347.2	0.43
0.53	0.2	347.79	0.4
0.575	0.2	348.52	0.39
0.61	0.201	349.22	0.38
0.657	0.2	350.32	0.37
0.698	0.201	351.4	0.37
0.758	0.201	353.25	0.35
0.784	0.2	354.15	0.37

System: benzene + methanol + 1-methyl-3-octylimidazolium acetate; phases: Gas, Liquid
Fixed: Pressure, kPa = 101.3
Property: Mole fraction of benzene (Gas); method: Chromatography
Mole fraction of benzene	Mole fraction of 1-methyl-3-octylimidazolium acetate	Mole fraction of benzene	uncertainty
0.034	0.101	0.12	0.011
0.065	0.101	0.198	0.009
0.118	0.101	0.295	0.009
0.176	0.102	0.37	0.008
0.222	0.102	0.417	0.008
0.268	0.101	0.457	0.009
0.307	0.102	0.484	0.009
0.348	0.102	0.514	0.009
0.401	0.1	0.554	0.009
0.438	0.102	0.582	0.009
0.484	0.102	0.614	0.009
0.532	0.102	0.644	0.01
0.581	0.101	0.679	0.01
0.633	0.1	0.717	0.01
0.672	0.102	0.747	0.01
0.73	0.101	0.796	0.01
0.772	0.102	0.835	0.009
0.821	0.102	0.888	0.009
0.856	0.101	0.933	0.009
0.884	0.101	0.974	0.01
0.041	0.147	0.152	0.011
0.09	0.147	0.278	0.011
0.119	0.147	0.329	0.009
0.163	0.149	0.399	0.008
0.225	0.15	0.476	0.009
0.274	0.149	0.525	0.009
0.318	0.15	0.566	0.009
0.355	0.151	0.599	0.009
0.402	0.15	0.638	0.009
0.437	0.151	0.666	0.009
0.475	0.153	0.697	0.009
0.531	0.153	0.742	0.009
0.578	0.153	0.778	0.009
0.609	0.152	0.798	0.009
0.662	0.153	0.841	0.009
0.7	0.153	0.87	0.009
0.722	0.153	0.89	0.009
0.786	0.153	0.942	0.008
0.832	0.153	0.985	0.008
0.038	0.199	0.155	0.012
0.078	0.199	0.265	0.011
0.123	0.198	0.369	0.011
0.151	0.199	0.421	0.009
0.19	0.2	0.481	0.009
0.22	0.2	0.52	0.009
0.274	0.2	0.584	0.008
0.309	0.201	0.622	0.008
0.354	0.2	0.665	0.008
0.393	0.201	0.702	0.008
0.438	0.2	0.741	0.009
0.486	0.201	0.781	0.008
0.53	0.2	0.814	0.008
0.575	0.2	0.847	0.008
0.61	0.201	0.873	0.008
0.657	0.2	0.906	0.008
0.698	0.201	0.933	0.007
0.758	0.201	0.973	0.006
0.784	0.2	0.99	0.006

System: benzene + methanol + 1-methyl-3-octylimidazolium acetate; phases: Gas, Liquid
Fixed: Pressure, kPa = 101.3
Property: Mole fraction of 1-methyl-3-octylimidazolium acetate (Gas); method: Chromatography
Mole fraction of benzene	Mole fraction of 1-methyl-3-octylimidazolium acetate	Mole fraction of 1-methyl-3-octylimidazolium acetate	uncertainty
0.034	0.101	0	
0.065	0.101	0	
0.118	0.101	0	
0.176	0.102	0	
0.222	0.102	0	
0.268	0.101	0	
0.307	0.102	0	
0.348	0.102	0	
0.401	0.1	0	
0.438	0.102	0	
0.484	0.102	0	
0.532	0.102	0	
0.581	0.101	0	
0.633	0.1	0	
0.672	0.102	0	
0.73	0.101	0	
0.772	0.102	0	
0.821	0.102	0	
0.856	0.101	0	
0.884	0.101	0	
0.041	0.147	0	
0.09	0.147	0	
0.119	0.147	0	
0.163	0.149	0	
0.225	0.15	0	
0.274	0.149	0	
0.318	0.15	0	
0.355	0.151	0	
0.402	0.15	0	
0.437	0.151	0	
0.475	0.153	0	
0.531	0.153	0	
0.578	0.153	0	
0.609	0.152	0	
0.662	0.153	0	
0.7	0.153	0	
0.722	0.153	0	
0.786	0.153	0	
0.832	0.153	0	
0.038	0.199	0	
0.078	0.199	0	
0.123	0.198	0	
0.151	0.199	0	
0.19	0.2	0	
0.22	0.2	0	
0.274	0.2	0	
0.309	0.201	0	
0.354	0.2	0	
0.393	0.201	0	
0.438	0.2	0	
0.486	0.201	0	
0.53	0.2	0	
0.575	0.2	0	
0.61	0.201	0	
0.657	0.2	0	
0.698	0.201	0	
0.758	0.201	0	
0.784	0.2	0	

System: benzene + methanol + 1-decyl-3-methylimidazolium acetate; phases: Liquid, Gas
Fixed: Pressure, kPa = 101.3
Property: Boiling temperature at pressure P, K (Liquid); method: Ebulliometric method (Recirculating still)
Mole fraction of benzene	Mole fraction of 1-decyl-3-methylimidazolium acetate	Boiling temperature at pressure P, K	uncertainty
0.043	0.1	342.51	0.36
0.085	0.1	341.1	0.34
0.125	0.1	340.02	0.36
0.167	0.1	339.16	0.38
0.241	0.102	338.68	0.4
0.284	0.1	338.58	0.39
0.327	0.102	338.77	0.39
0.386	0.1	339.16	0.39
0.421	0.1	339.41	0.39
0.466	0.1	340.08	0.38
0.517	0.1	340.9	0.37
0.561	0.1	341.79	0.38
0.615	0.101	343.04	0.38
0.657	0.101	344.17	0.37
0.693	0.102	345.29	0.37
0.744	0.101	347.17	0.37
0.795	0.101	349.29	0.33
0.838	0.102	351.39	0.34
0.882	0.101	353.96	0.37
0.039	0.153	346.89	0.46
0.074	0.153	345.6	0.4
0.117	0.153	344.69	0.39
0.165	0.152	344.12	0.38
0.222	0.15	343.66	0.39
0.259	0.152	343.49	0.39
0.308	0.152	343.49	0.38
0.362	0.151	343.74	0.37
0.411	0.15	344.06	0.36
0.453	0.152	344.57	0.35
0.493	0.153	345.16	0.35
0.531	0.152	345.75	0.34
0.581	0.15	346.68	0.34
0.623	0.153	347.7	0.34
0.673	0.152	348.94	0.34
0.719	0.152	350.3	0.32
0.755	0.153	351.25	0.31
0.799	0.152	352.85	0.31
0.834	0.153	354.58	0.33
0.038	0.201	352.67	0.53
0.076	0.202	350.89	0.49
0.111	0.202	349.8	0.43
0.149	0.203	349	0.42
0.19	0.202	348.47	0.38
0.236	0.203	348.16	0.37
0.288	0.203	347.99	0.36
0.337	0.204	348.04	0.36
0.37	0.203	348.11	0.35
0.421	0.203	348.3	0.33
0.461	0.203	348.68	0.32
0.502	0.204	349.15	0.33
0.547	0.203	349.73	0.32
0.589	0.2	350.39	0.31
0.635	0.199	351.18	0.31
0.671	0.204	352.04	0.28
0.712	0.204	353.15	0.27
0.754	0.203	354.24	0.28
0.786	0.203	355.2	0.28

System: benzene + methanol + 1-decyl-3-methylimidazolium acetate; phases: Gas, Liquid
Fixed: Pressure, kPa = 101.3
Property: Mole fraction of benzene (Gas); method: Chromatography
Mole fraction of benzene	Mole fraction of 1-decyl-3-methylimidazolium acetate	Mole fraction of benzene	uncertainty
0.043	0.1	0.129	0.009
0.085	0.1	0.216	0.009
0.125	0.1	0.282	0.008
0.167	0.1	0.338	0.008
0.241	0.102	0.417	0.008
0.284	0.1	0.452	0.009
0.327	0.102	0.491	0.009
0.386	0.1	0.533	0.01
0.421	0.1	0.558	0.009
0.466	0.1	0.591	0.01
0.517	0.1	0.626	0.01
0.561	0.1	0.659	0.01
0.615	0.101	0.704	0.01
0.657	0.101	0.736	0.01
0.693	0.102	0.768	0.01
0.744	0.101	0.812	0.01
0.795	0.101	0.863	0.009
0.838	0.102	0.914	0.009
0.882	0.101	0.974	0.009
0.039	0.153	0.134	0.011
0.074	0.153	0.223	0.01
0.117	0.153	0.308	0.009
0.165	0.152	0.384	0.009
0.222	0.15	0.452	0.009
0.259	0.152	0.5	0.009
0.308	0.152	0.55	0.009
0.362	0.151	0.599	0.009
0.411	0.15	0.638	0.009
0.453	0.152	0.676	0.009
0.493	0.153	0.708	0.009
0.531	0.152	0.738	0.009
0.581	0.15	0.776	0.009
0.623	0.153	0.812	0.009
0.673	0.152	0.851	0.009
0.719	0.152	0.887	0.008
0.755	0.153	0.917	0.008
0.799	0.152	0.955	0.008
0.834	0.153	0.988	0.008
0.038	0.201	0.143	0.013
0.076	0.202	0.256	0.012
0.111	0.202	0.335	0.01
0.149	0.203	0.408	0.009
0.19	0.202	0.47	0.009
0.236	0.203	0.536	0.009
0.288	0.203	0.597	0.009
0.337	0.204	0.647	0.008
0.37	0.203	0.68	0.008
0.421	0.203	0.724	0.008
0.461	0.203	0.759	0.008
0.502	0.204	0.793	0.008
0.547	0.203	0.827	0.008
0.589	0.2	0.855	0.008
0.635	0.199	0.887	0.008
0.671	0.204	0.917	0.007
0.712	0.204	0.945	0.007
0.754	0.203	0.972	0.007
0.786	0.203	0.992	0.007

System: benzene + methanol + 1-decyl-3-methylimidazolium acetate; phases: Gas, Liquid
Fixed: Pressure, kPa = 101.3
Property: Mole fraction of 1-decyl-3-methylimidazolium acetate (Gas); method: Chromatography
Mole fraction of benzene	Mole fraction of 1-decyl-3-methylimidazolium acetate	Mole fraction of 1-decyl-3-methylimidazolium acetate	uncertainty
0.043	0.1	0	
0.085	0.1	0	
0.125	0.1	0	
0.167	0.1	0	
0.241	0.102	0	
0.284	0.1	0	
0.327	0.102	0	
0.386	0.1	0	
0.421	0.1	0	
0.466	0.1	0	
0.517	0.1	0	
0.561	0.1	0	
0.615	0.101	0	
0.657	0.101	0	
0.693	0.102	0	
0.744	0.101	0	
0.795	0.101	0	
0.838	0.102	0	
0.882	0.101	0	
0.039	0.153	0	
0.074	0.153	0	
0.117	0.153	0	
0.165	0.152	0	
0.222	0.15	0	
0.259	0.152	0	
0.308	0.152	0	
0.362	0.151	0	
0.411	0.15	0	
0.453	0.152	0	
0.493	0.153	0	
0.531	0.152	0	
0.581	0.15	0	
0.623	0.153	0	
0.673	0.152	0	
0.719	0.152	0	
0.755	0.153	0	
0.799	0.152	0	
0.834	0.153	0	
0.038	0.201	0	
0.076	0.202	0	
0.111	0.202	0	
0.149	0.203	0	
0.19	0.202	0	
0.236	0.203	0	
0.288	0.203	0	
0.337	0.204	0	
0.37	0.203	0	
0.421	0.203	0	
0.461	0.203	0	
0.502	0.204	0	
0.547	0.203	0	
0.589	0.2	0	
0.635	0.199	0	
0.671	0.204	0	
0.712	0.204	0	
0.754	0.203	0	
0.786	0.203	0	
