Measured thermophysical data. Measurement of infinite dilution activity coefficients of 1-alkanols (C1 C5) in water as a function of temperature (273 373 K)
Source: Fluid Phase Equilib., 2005, 10.1016/j.fluid.2005.08.018
Compound 1: methanol, CH4O, InChI=1S/CH4O/c1-2/h2H,1H3
Compound 2: ethanol, C2H6O, InChI=1S/C2H6O/c1-2-3/h3H,2H2,1H3
Compound 3: propan-1-ol, C3H8O, InChI=1S/C3H8O/c1-2-3-4/h4H,2-3H2,1H3
Compound 4: butan-1-ol, C4H10O, InChI=1S/C4H10O/c1-2-3-4-5/h5H,2-4H2,1H3
Compound 5: pentan-1-ol, C5H12O, InChI=1S/C5H12O/c1-2-3-4-5-6/h6H,2-5H2,1H3
Compound 6: water, H2O, InChI=1S/H2O/h1H2

System: methanol + water; phases: Liquid, Gas
Fixed: Mole fraction of methanol = 0
Property: Activity coefficient of methanol (Liquid); method: headspace analysis
Temperature, K	Activity coefficient of methanol	uncertainty
273.35	1.23	0.04
283.15	1.4	0.04
293.15	1.55	0.05

System: methanol + water; phases: Liquid, Gas
Fixed: Mole fraction of methanol = 0
Property: Activity coefficient of methanol (Liquid); method: comparative tensimetry
Temperature, K	Activity coefficient of methanol	uncertainty
303.15	1.71	0.05
308.15	1.8	0.05
313.15	1.88	0.06
318.15	1.95	0.06
323.15	2.02	0.06
328.15	2.09	0.06
333.15	2.16	0.07

System: methanol + water; phases: Liquid, Gas
Fixed: Mole fraction of methanol = 0
Property: Activity coefficient of methanol (Liquid); method: circulation still method
Temperature, K	Activity coefficient of methanol	uncertainty
358.15	2.31	0.07
363.15	2.38	0.07
368.15	2.41	0.07
372.15	2.4	0.07

System: ethanol + water; phases: Liquid, Gas
Fixed: Mole fraction of ethanol = 0
Property: Activity coefficient of ethanol (Liquid); method: headspace analysis
Temperature, K	Activity coefficient of ethanol	uncertainty
273.35	2.54	0.08
283.15	3.13	0.09

System: ethanol + water; phases: Liquid, Gas
Fixed: Mole fraction of ethanol = 0
Property: Activity coefficient of ethanol (Liquid); method: comparative tensimetry
Temperature, K	Activity coefficient of ethanol	uncertainty
303.15	4.14	0.12
308.15	4.43	0.13
313.15	4.66	0.14
318.15	4.85	0.15
323.15	5.03	0.15
328.15	5.2	0.16
333.15	5.3	0.16

System: ethanol + water; phases: Liquid, Gas
Fixed: Mole fraction of ethanol = 0
Property: Activity coefficient of ethanol (Liquid); method: circulating still method
Temperature, K	Activity coefficient of ethanol	uncertainty
358.15	5.9	0.2
363.15	6	0.2
368.15	6.1	0.2
372.15	6.2	0.2

System: propan-1-ol + water; phases: Liquid, Gas
Fixed: Mole fraction of propan-1-ol = 0
Property: Activity coefficient of propan-1-ol (Liquid); method: headspace analysis
Temperature, K	Activity coefficient of propan-1-ol	uncertainty
273.35	8.9	0.3
283.15	11.2	0.3
293.15	13.5	0.4

System: propan-1-ol + water; phases: Liquid, Gas
Fixed: Mole fraction of propan-1-ol = 0
Property: Activity coefficient of propan-1-ol (Liquid); method: comparative tensimetry
Temperature, K	Activity coefficient of propan-1-ol	uncertainty
303.15	15.3	0.5
308.15	16.1	0.5
313.15	16.7	0.5
318.15	17.5	0.5
323.15	18.1	0.5
328.15	18.6	0.6
333.15	19	0.6

System: propan-1-ol + water; phases: Liquid, Gas
Fixed: Mole fraction of propan-1-ol = 0
Property: Activity coefficient of propan-1-ol (Liquid); method: circulating still method
Temperature, K	Activity coefficient of propan-1-ol	uncertainty
358.15	20.1	0.6
363.15	19.5	0.6
368.15	18.7	0.6
372.15	18.9	0.6

System: butan-1-ol + water; phases: Liquid, Gas
Fixed: Mole fraction of butan-1-ol = 0
Property: Activity coefficient of butan-1-ol (Liquid); method: headspace analysis
Temperature, K	Activity coefficient of butan-1-ol	uncertainty
273.35	32.6	1
283.15	40.4	1.2
293.15	48.4	1.5
323.15	58.7	1.8
323.15	59.4	1.8

System: butan-1-ol + water; phases: Liquid, Gas
Fixed: Mole fraction of butan-1-ol = 0
Property: Activity coefficient of butan-1-ol (Liquid); method: comparative tensimetry
Temperature, K	Activity coefficient of butan-1-ol	uncertainty
303.15	53.4	1.6
308.15	57.2	1.7
313.15	58.9	1.8
318.15	60.2	1.8
323.15	61.5	1.8
328.15	62.8	1.9
333.15	63.4	1.9

System: butan-1-ol + water; phases: Liquid, Gas
Property: Activity coefficient of butan-1-ol (Liquid); method: circulating still method
Temperature, K	Mole fraction of butan-1-ol	Activity coefficient of butan-1-ol	uncertainty
372.15	0	56.1	1.7

System: pentan-1-ol + water; phases: Liquid, Gas
Fixed: Mole fraction of pentan-1-ol = 0
Property: Activity coefficient of pentan-1-ol (Liquid); method: headspace analysis
Temperature, K	Activity coefficient of pentan-1-ol	uncertainty
273.35	121	4
283.15	156	5
293.15	184	6

System: pentan-1-ol + water; phases: Liquid, Gas
Fixed: Mole fraction of pentan-1-ol = 0
Property: Activity coefficient of pentan-1-ol (Liquid); method: inert gas stripping
Temperature, K	Activity coefficient of pentan-1-ol	uncertainty
303.15	203	6
313.15	221	7
323.15	230	7

System: pentan-1-ol + water; phases: Liquid, Gas
Fixed: Mole fraction of pentan-1-ol = 0
Property: Activity coefficient of pentan-1-ol (Liquid); method: Rayleigh distillation
Temperature, K	Activity coefficient of pentan-1-ol	uncertainty
333.15	221	7
343.15	206	6

System: pentan-1-ol + water; phases: Liquid, Gas
Fixed: Mole fraction of pentan-1-ol = 0
Property: Activity coefficient of pentan-1-ol (Liquid); method: circulating still method
Temperature, K	Activity coefficient of pentan-1-ol	uncertainty
353.15	203	6
363.15	181	5
371.15	169	5
