Measured thermophysical data. Thermodynamics of phase transfer for polar molecules from alkanes to deep eutectic solvents
Source: Fluid Phase Equilib., 2017, 10.1016/j.fluid.2017.05.008
Compound 1: choline chloride, C5H14ClNO, InChI=1S/C5H14NO.ClH/c1-6(2,3)4-5-7;/h7H,4-5H2,1-3H3;1H/q+1;/p-1
Compound 2: 1,5-pentanediol, C5H12O2, InChI=1S/C5H12O2/c6-4-2-1-3-5-7/h6-7H,1-5H2
Compound 3: 1,4-butanediol, C4H10O2, InChI=1S/C4H10O2/c5-3-1-2-4-6/h5-6H,1-4H2
Compound 4: 1,2-ethanediol, C2H6O2, InChI=1S/C2H6O2/c3-1-2-4/h3-4H,1-2H2
Compound 5: glycerol, C3H8O3, InChI=1S/C3H8O3/c4-1-3(6)2-5/h3-6H,1-2H2
Compound 6: ethanedioic acid dihydrate, C2H6O6, InChI=1S/C2H2O4.2H2O/c3-1(4)2(5)6;;/h(H,3,4)(H,5,6);2*1H2
Compound 7: urea, CH4N2O, InChI=1S/CH4N2O/c2-1(3)4/h(H4,2,3,4)

System: choline chloride + 1,5-pentanediol; phases: Liquid
Property: Viscosity, Pa*s (Liquid); method: Concentric cylinders viscometry
Amount ratio of solute to solvent of 1,5-pentanediol	Pressure, kPa	Temperature, K	Viscosity, Pa*s	uncertainty
3.5	101	298.15	0.11	0.007

System: choline chloride + 1,5-pentanediol; phases: Liquid, Air at 1 atmosphere
Property: Surface tension liquid-gas, N/m (Liquid); method: Ring tensiometer
Amount ratio of solute to solvent of 1,5-pentanediol	Temperature, K	Surface tension liquid-gas, N/m	uncertainty
3.5	298.15	0.0475	0.0008

System: choline chloride + 1,4-butanediol; phases: Liquid
Property: Viscosity, Pa*s (Liquid); method: Concentric cylinders viscometry
Amount ratio of solute to solvent of 1,4-butanediol	Pressure, kPa	Temperature, K	Viscosity, Pa*s	uncertainty
3	101	298.15	0.094	0.006

System: choline chloride + 1,4-butanediol; phases: Liquid, Air at 1 atmosphere
Property: Surface tension liquid-gas, N/m (Liquid); method: Ring tensiometer
Amount ratio of solute to solvent of 1,4-butanediol	Temperature, K	Surface tension liquid-gas, N/m	uncertainty
3	298.15	0.0558	0.0009

System: choline chloride + 1,2-ethanediol; phases: Liquid
Property: Viscosity, Pa*s (Liquid); method: Concentric cylinders viscometry
Amount ratio of solute to solvent of 1,2-ethanediol	Pressure, kPa	Temperature, K	Viscosity, Pa*s	uncertainty
2	101	298.15	0.04	0.002

System: choline chloride + 1,2-ethanediol; phases: Liquid, Air at 1 atmosphere
Property: Surface tension liquid-gas, N/m (Liquid); method: Ring tensiometer
Amount ratio of solute to solvent of 1,2-ethanediol	Temperature, K	Surface tension liquid-gas, N/m	uncertainty
2	298.15	0.0565	0.0006

System: glycerol + choline chloride; phases: Liquid
Property: Viscosity, Pa*s (Liquid); method: Concentric cylinders viscometry
Amount ratio of solute to solvent of glycerol	Pressure, kPa	Temperature, K	Viscosity, Pa*s	uncertainty
2	101	298.15	0.296	0.032

System: glycerol + choline chloride; phases: Liquid, Air at 1 atmosphere
Property: Surface tension liquid-gas, N/m (Liquid); method: Ring tensiometer
Amount ratio of solute to solvent of glycerol	Temperature, K	Surface tension liquid-gas, N/m	uncertainty
2	298.15	0.0687	0.0011

System: choline chloride + ethanedioic acid dihydrate; phases: Liquid
Property: Viscosity, Pa*s (Liquid); method: Concentric cylinders viscometry
Amount ratio of solute to solvent of ethanedioic acid dihydrate	Pressure, kPa	Temperature, K	Viscosity, Pa*s	uncertainty
1	101	298.15	0.767	0.14

System: choline chloride + ethanedioic acid dihydrate; phases: Liquid, Air at 1 atmosphere
Property: Surface tension liquid-gas, N/m (Liquid); method: Ring tensiometer
Amount ratio of solute to solvent of ethanedioic acid dihydrate	Temperature, K	Surface tension liquid-gas, N/m	uncertainty
1	298.15	0.0608	0.001

System: urea + choline chloride; phases: Liquid
Property: Viscosity, Pa*s (Liquid); method: Concentric cylinders viscometry
Amount ratio of solute to solvent of urea	Pressure, kPa	Temperature, K	Viscosity, Pa*s	uncertainty
2	101	298.15	0.849	0.148

System: urea + choline chloride; phases: Liquid, Air at 1 atmosphere
Property: Surface tension liquid-gas, N/m (Liquid); method: Ring tensiometer
Amount ratio of solute to solvent of urea	Temperature, K	Surface tension liquid-gas, N/m	uncertainty
2	298.15	0.0716	0.0012
