Measured thermophysical data. Isobaric vapor-liquid equilibria for 1-propanol +water + copper(II) chloride at 100 kPa
Source: Fluid Phase Equilib., 2005, 10.1016/j.fluid.2004.11.014
Compound 1: propan-1-ol, C3H8O, InChI=1S/C3H8O/c1-2-3-4/h4H,2-3H2,1H3, purity 99.5%
Compound 2: copper chloride, Cl2Cu, InChI=1S/2ClH.Cu/h2*1H;/q;;+2/p-2, purity 99%
Compound 3: water, H2O, InChI=1S/H2O/h1H2

System: propan-1-ol + copper chloride + water; phases: Gas, Liquid
Fixed: Pressure, kPa = 100
Property: Boiling temperature at pressure P, K (Gas); method: Ebulliometric method (Recirculating still)
Mole fraction of copper chloride	Solvent: Mole fraction of propan-1-ol	Boiling temperature at pressure P, K	uncertainty
0.021	0	374.05	0.29
0.021	0.04	365.15	1.46
0.021	0.087	361.35	0.44
0.022	0.128	361.05	0.21
0.022	0.183	360.95	0.22
0.022	0.347	361.05	0.24
0.022	0.405	361.05	0.24
0.022	0.448	361.15	0.25
0.022	0.504	361.25	0.25
0.022	0.587	361.55	0.27
0.022	0.665	361.95	0.28
0.022	0.745	363.05	0.3
0.022	0.823	364.45	0.28
0.022	0.893	366.25	0.27
0.022	0.947	368.05	0.27
0.023	0.23	360.95	0.23
0.023	0.287	360.95	0.24
0.023	1	370.25	0.23
0.031	0.023	365.35	0.45
0.031	0.057	361.55	0.41
0.032	0.099	361.25	0.21
0.032	0.147	361.25	0.21
0.032	0.198	361.25	0.22
0.032	0.256	361.25	0.22
0.032	0.302	361.35	0.23
0.032	0.357	361.45	0.23
0.032	0.473	361.65	0.24
0.033	0	374.85	0.3
0.033	0.412	361.55	0.23
0.033	0.558	362.05	0.24
0.033	0.637	362.55	0.24
0.033	0.722	363.55	0.24
0.033	0.791	364.55	0.23
0.033	0.883	366.65	0.26
0.033	0.945	368.45	0.25
0.034	1	370.65	0.22
0.045	0.027	366.35	0.94
0.045	0.066	361.75	0.23
0.045	0.466	362.15	0.26
0.045	0.551	362.55	0.27
0.045	0.626	363.05	0.26
0.045	0.707	363.85	0.27
0.045	0.791	365.05	0.26
0.045	0.889	367.15	0.25
0.045	0.949	368.95	0.27
0.045	1	370.85	0.22
0.046	0	375.75	0.34
0.046	0.108	361.55	0.23
0.046	0.152	361.55	0.23
0.046	0.201	361.55	0.24
0.046	0.254	361.65	0.24
0.046	0.305	361.75	0.24
0.046	0.353	361.85	0.23
0.046	0.409	361.95	0.25
0.067	0.576	363.95	0.27
0.067	0.892	368.15	0.25
0.067	1	371.45	0.22
0.068	0.475	363.45	0.27
0.068	0.645	364.45	0.27
0.068	0.735	365.55	0.27
0.068	0.816	366.65	0.27
0.069	0	377.85	0.37
0.069	0.062	362.85	0.29
0.069	0.308	362.85	0.27
0.069	0.418	363.15	0.26
0.07	0.026	369.45	0.51
0.07	0.103	362.45	0.26
0.07	0.374	362.85	0.27
0.071	0.148	362.55	0.26
0.071	0.202	362.65	0.26
0.071	0.262	362.75	0.26
0.089	0	379.85	0.41
0.089	0.032	368.75	0.98
0.089	0.065	363.95	0.58
0.09	0.098	363.85	0.3
0.09	0.656	365.75	0.27
0.09	0.73	366.55	0.26
0.09	0.814	367.75	0.25
0.091	0.373	364.35	0.3
0.091	0.432	364.45	0.3
0.091	0.491	364.75	0.28
0.091	0.578	365.15	0.28
0.092	0.156	363.85	0.29
0.092	0.311	364.25	0.3
0.092	0.904	369.25	0.24
0.093	0.979	370.75	0.23
0.093	1	372.05	0.23
0.094	0.205	364.05	0.3
0.095	0.254	364.15	0.3
0.105	0.522	366.05	0.33
0.108	0	382.25	0.45
0.109	0.41	365.85	0.32
0.109	0.471	365.95	0.3
0.11	0.037	370.05	1.08
0.11	0.342	365.75	0.32
0.112	0.07	365.45	0.29
0.113	0.169	365.35	0.32
0.113	0.227	365.55	0.32
0.113	0.295	365.65	0.33
0.115	0.597	366.95	0.3
0.115	0.683	367.45	0.29
0.115	0.771	368.35	0.28
0.117	0.128	365.45	0.3
0.117	0.84	369.25	0.25
0.117	0.909	370.35	0.25
0.118	0.975	371.65	0.28
0.119	1	372.85	0.23

System: propan-1-ol + copper chloride + water; phases: Gas, Liquid
Fixed: Pressure, kPa = 100
Property: Mole fraction of propan-1-ol (Gas); method: Chromatography
Mole fraction of copper chloride	Solvent: Mole fraction of propan-1-ol	Mole fraction of propan-1-ol	uncertainty
0.021	0	0	0.001
0.021	0.04	0.309	0.056
0.021	0.087	0.407	0.015
0.022	0.128	0.419	0.007
0.022	0.183	0.427	0.007
0.022	0.347	0.448	0.007
0.022	0.405	0.457	0.007
0.022	0.448	0.469	0.007
0.022	0.504	0.485	0.007
0.022	0.587	0.512	0.007
0.022	0.665	0.551	0.008
0.022	0.745	0.61	0.008
0.022	0.823	0.684	0.007
0.022	0.893	0.773	0.007
0.022	0.947	0.875	0.007
0.023	0.23	0.432	0.007
0.023	0.287	0.44	0.007
0.023	1	1	0.001
0.031	0.023	0.317	0.012
0.031	0.057	0.414	0.014
0.032	0.099	0.428	0.006
0.032	0.147	0.437	0.006
0.032	0.198	0.443	0.006
0.032	0.256	0.449	0.006
0.032	0.302	0.456	0.006
0.032	0.357	0.467	0.006
0.032	0.473	0.493	0.006
0.033	0	0	0.001
0.033	0.412	0.477	0.006
0.033	0.558	0.519	0.005
0.033	0.637	0.56	0.006
0.033	0.722	0.617	0.005
0.033	0.791	0.674	0.005
0.033	0.883	0.781	0.006
0.033	0.945	0.88	0.006
0.034	1	1	0.001
0.045	0.027	0.315	0.024
0.045	0.066	0.43	0.006
0.045	0.466	0.503	0.006
0.045	0.551	0.53	0.006
0.045	0.626	0.567	0.006
0.045	0.707	0.615	0.006
0.045	0.791	0.681	0.005
0.045	0.889	0.793	0.005
0.045	0.949	0.89	0.007
0.045	1	1	0.001
0.046	0	0	0.001
0.046	0.108	0.443	0.005
0.046	0.152	0.45	0.005
0.046	0.201	0.455	0.005
0.046	0.254	0.463	0.005
0.046	0.305	0.47	0.006
0.046	0.353	0.478	0.006
0.046	0.409	0.489	0.006
0.067	0.576	0.564	0.006
0.067	0.892	0.808	0.006
0.067	1	1	0.001
0.068	0.475	0.529	0.006
0.068	0.645	0.598	0.006
0.068	0.735	0.658	0.006
0.068	0.816	0.726	0.005
0.069	0	0	0.001
0.069	0.062	0.448	0.005
0.069	0.308	0.491	0.006
0.069	0.418	0.514	0.006
0.07	0.026	0.287	0.021
0.07	0.103	0.463	0.006
0.07	0.374	0.5	0.006
0.071	0.148	0.47	0.005
0.071	0.202	0.476	0.006
0.071	0.262	0.483	0.006
0.089	0	0	0.001
0.089	0.032	0.354	0.025
0.089	0.065	0.467	0.012
0.09	0.098	0.48	0.006
0.09	0.656	0.626	0.005
0.09	0.73	0.674	0.005
0.09	0.814	0.74	0.005
0.091	0.373	0.521	0.006
0.091	0.432	0.536	0.006
0.091	0.491	0.553	0.005
0.091	0.578	0.585	0.005
0.092	0.156	0.488	0.006
0.092	0.311	0.512	0.006
0.092	0.904	0.832	0.005
0.093	0.979	0.921	0.006
0.093	1	1	0.001
0.094	0.205	0.496	0.006
0.095	0.254	0.502	0.006
0.105	0.522	0.574	0.005
0.108	0	0	0.001
0.109	0.41	0.543	0.005
0.109	0.471	0.556	0.005
0.11	0.037	0.364	0.024
0.11	0.342	0.532	0.006
0.112	0.07	0.486	0.006
0.113	0.169	0.505	0.006
0.113	0.227	0.513	0.006
0.113	0.295	0.522	0.006
0.115	0.597	0.614	0.005
0.115	0.683	0.659	0.005
0.115	0.771	0.718	0.005
0.117	0.128	0.496	0.005
0.117	0.84	0.772	0.005
0.117	0.909	0.844	0.005
0.118	0.975	0.922	0.007
0.119	1	1	0.001
