Measured thermophysical data. Comparative study: Absorption enthalpy of carbon dioxide into aqueous diisopropanolamine and monoethanolamine solutions and densities of the carbonated amine solutions
Source: Fluid Phase Equilib., 2014, 10.1016/j.fluid.2014.05.038
Compound 1: 2-aminoethan-1-ol, C2H7NO, InChI=1S/C2H7NO/c3-1-2-4/h4H,1-3H2, purity 99.5%
Compound 2: N-(2-hydroxypropyl)-2-hydroxy-1-propanamine, C6H15NO2, InChI=1S/C6H15NO2/c1-5(8)3-7-4-6(2)9/h5-9H,3-4H2,1-2H3, purity 98%
Compound 3: carbon dioxide, CO2, InChI=1S/CO2/c2-1-3, purity 99.99%
Compound 4: water, H2O, InChI=1S/H2O/h1H2, purity 99.8%

System: carbon dioxide + 2-aminoethan-1-ol + water; phases: Liquid
Fixed: Pressure, kPa = 101
Property: Mass density, kg/m3 (Liquid); method: Vibrating tube method
Temperature, K	Mole fraction of carbon dioxide	Solvent: Mass fraction of 2-aminoethan-1-ol	Mass density, kg/m3	uncertainty
297.99	0	0.1	1000.7	7.6
297.97	0.003	0.1	1007.6	7.6
297.97	0.006	0.1	1014.6	7.6
297.97	0.009	0.1	1021.5	7.6
297.97	0.013	0.1	1028.7	7.6
297.97	0.016	0.1	1035.8	7.6
297.99	0.019	0.1	1042	7.6
297.99	0.022	0.1	1047	7.6
298.02	0	0.2	1005.2	7.6
297.96	0.007	0.2	1018.3	7.6
297.96	0.014	0.2	1031	7.6
297.94	0.02	0.2	1043.8	7.6
297.95	0.026	0.2	1056.2	7.6
297.96	0.033	0.2	1070	7.6
297.95	0.039	0.2	1080.6	7.6
297.96	0.046	0.2	1087.6	7.6
297.96	0.052	0.2	1093.7	7.6

System: carbon dioxide + 2-aminoethan-1-ol + water; phases: Liquid
Fixed: Pressure, kPa = 101
Property: Molar enthalpy of solution, kJ/mol (Liquid); method: Flow calorimetry
Temperature, K	Mole fraction of carbon dioxide	Solvent: Mass fraction of 2-aminoethan-1-ol	Molar enthalpy of solution, kJ/mol	uncertainty
297.99	0	0.1	0	0.1
297.97	0.003	0.1	-84.5	12
297.97	0.006	0.1	-86.1	12.2
297.97	0.009	0.1	-86.9	12.4
297.97	0.013	0.1	-87.2	12.4
297.97	0.016	0.1	-86.1	12.2
297.99	0.019	0.1	-79.7	11.3
297.99	0.022	0.1	-74.6	10.6
297.98	0.025	0.1	-63.2	9
297.99	0.028	0.1	-54.8	7.8
297.98	0.031	0.1	-49.7	7.1
298.02	0	0.2	0	0.1
297.96	0.007	0.2	-81.6	11.6
297.96	0.014	0.2	-84.9	12.1
297.94	0.02	0.2	-85.8	12.2
297.95	0.026	0.2	-86.3	12.3
297.96	0.033	0.2	-88.1	12.5
297.95	0.039	0.2	-79.5	11.3
297.96	0.046	0.2	-72.9	10.4
297.96	0.052	0.2	-64.3	9.1
297.95	0.058	0.2	-57.7	8.2
298.04	0.062	0.2	-50.9	7.2

System: carbon dioxide + 2-aminoethan-1-ol + water; phases: Liquid, Gas
Fixed: Pressure, kPa = 101
Property: Mole fraction of carbon dioxide (Liquid); method: Phase equilibration
Temperature, K	Solvent: Mass fraction of 2-aminoethan-1-ol	Mole fraction of carbon dioxide	uncertainty
297.99	0.1	0	
297.97	0.1	0.003	0.001
297.97	0.1	0.006	0.001
297.97	0.1	0.009	0.001
297.97	0.1	0.013	0.001
297.97	0.1	0.016	0.001
297.99	0.1	0.019	0.001
297.99	0.1	0.022	0.001
297.98	0.1	0.025	0.001
297.99	0.1	0.028	0.001
297.98	0.1	0.031	0.001
298.02	0.2	0	
297.96	0.2	0.007	0.001
297.96	0.2	0.014	0.001
297.94	0.2	0.02	0.001
297.95	0.2	0.026	0.001
297.96	0.2	0.033	0.001
297.95	0.2	0.039	0.001
297.96	0.2	0.046	0.001
297.96	0.2	0.052	0.001
297.95	0.2	0.058	0.001
298.04	0.2	0.062	0.001

System: N-(2-hydroxypropyl)-2-hydroxy-1-propanamine + carbon dioxide + water; phases: Liquid
Fixed: Pressure, kPa = 101
Property: Mass density, kg/m3 (Liquid); method: Vibrating tube method
Temperature, K	Mole fraction of carbon dioxide	Solvent: Mass fraction of N-(2-hydroxypropyl)-2-hydroxy-1-propanamine	Mass density, kg/m3	uncertainty
297.99	0	0.1	1002.6	7.6
298.01	0.002	0.1	1005.2	7.6
298.02	0.004	0.1	1007.6	7.6
298.03	0.006	0.1	1010	7.6
298.01	0.008	0.1	1012.5	7.6
298.02	0.01	0.1	1015	7.6
298.02	0.012	0.1	1017.3	7.6
298.07	0.014	0.1	1022.6	7.6
298.06	0.015	0.1	1025.1	7.6
298.06	0	0.2	1009.35	7.6
298.05	0.004	0.2	1014.65	7.6
298.05	0.008	0.2	1019.7	7.6
298.05	0.013	0.2	1025.3	7.6
298.06	0.017	0.2	1032.2	7.6
298.05	0.021	0.2	1037.75	7.6
298.06	0.025	0.2	1041.9	7.6
298.05	0.03	0.2	1045.95	7.6
298.05	0.033	0.2	1049.15	7.6
298.05	0.041	0.2	1053.5	7.6
298.12	0	0.3	1016.6	7.6
298.1	0.007	0.3	1024.8	7.6
298.11	0.014	0.3	1031.65	7.6
298.11	0.021	0.3	1041.2	7.6
298.12	0.028	0.3	1047.65	7.6
298.11	0.034	0.3	1054.8	7.6
298.12	0.041	0.3	1061.55	7.6
298.12	0.048	0.3	1070.6	7.6
298.12	0.054	0.3	1077.2	7.6

System: N-(2-hydroxypropyl)-2-hydroxy-1-propanamine + carbon dioxide + water; phases: Liquid
Fixed: Pressure, kPa = 101
Property: Molar enthalpy of solution, kJ/mol (Liquid); method: Flow calorimetry
Temperature, K	Mole fraction of carbon dioxide	Solvent: Mass fraction of N-(2-hydroxypropyl)-2-hydroxy-1-propanamine	Molar enthalpy of solution, kJ/mol	uncertainty
297.99	0	0.1	0	0.1
298.01	0.002	0.1	-37	5.3
298.02	0.004	0.1	-53.3	7.6
298.03	0.006	0.1	-56.9	8.1
298.01	0.008	0.1	-58.2	8.3
298.02	0.01	0.1	-57.6	8.2
298.02	0.012	0.1	-58.3	8.3
298.07	0.014	0.1	-57.7	8.2
298.06	0.015	0.1	-57.3	8.1
298.07	0.017	0.1	-54.9	7.8
298.07	0.019	0.1	-48.6	6.9
298.06	0	0.2	0	0.1
298.05	0.004	0.2	-68.9	9.8
298.05	0.008	0.2	-66.2	9.4
298.05	0.013	0.2	-68.6	9.8
298.06	0.017	0.2	-68.3	9.7
298.05	0.021	0.2	-65.6	9.3
298.06	0.025	0.2	-64.4	9.2
298.05	0.03	0.2	-59.5	8.5
298.05	0.033	0.2	-56.6	8
298.05	0.037	0.2	-51.2	7.3
298.05	0.041	0.2	-46.1	6.6
298.12	0	0.3	0	0.1
298.1	0.007	0.3	-69.8	9.9
298.11	0.014	0.3	-66.9	9.5
298.11	0.021	0.3	-66.5	9.5
298.12	0.028	0.3	-65.8	9.4
298.11	0.034	0.3	-64	9.1
298.12	0.041	0.3	-61.5	8.7
298.12	0.048	0.3	-60.2	8.6
298.12	0.054	0.3	-53.4	7.6
298.12	0.061	0.3	-49.5	7
298.12	0.067	0.3	-44.2	6.3

System: N-(2-hydroxypropyl)-2-hydroxy-1-propanamine + carbon dioxide + water; phases: Liquid
Fixed: Solvent: Mass fraction of N-(2-hydroxypropyl)-2-hydroxy-1-propanamine = 0.1
Property: Molar enthalpy of solution, kJ/mol (Liquid); method: Flow calorimetry
Temperature, K	Pressure, kPa	Mole fraction of carbon dioxide	Molar enthalpy of solution, kJ/mol	uncertainty
297.52	102.3	0	0	0.1
297.32	111.3	0.002	-74.7	8.2
297.42	106	0.004	-77	8.5
297.32	104.6	0.005	-73.9	8.1
297.32	252.8	0.007	-70.8	7.8
297.32	244.7	0.01	-61.8	6.8
297.32	244.9	0.013	-62.6	6.9

System: N-(2-hydroxypropyl)-2-hydroxy-1-propanamine + carbon dioxide + water; phases: Liquid
Property: Molar enthalpy of solution, kJ/mol (Liquid); method: Flow calorimetry
Temperature, K	Pressure, kPa	Mole fraction of carbon dioxide	Solvent: Mass fraction of N-(2-hydroxypropyl)-2-hydroxy-1-propanamine	Molar enthalpy of solution, kJ/mol	uncertainty
297.81	280.6	0.008	0.2	-69.8	7.7

System: N-(2-hydroxypropyl)-2-hydroxy-1-propanamine + carbon dioxide + water; phases: Liquid
Property: Molar enthalpy of solution, kJ/mol (Liquid); method: Flow calorimetry
Temperature, K	Pressure, kPa	Mole fraction of carbon dioxide	Solvent: Mass fraction of N-(2-hydroxypropyl)-2-hydroxy-1-propanamine	Molar enthalpy of solution, kJ/mol	uncertainty
297.8	250.3	0.021	0.3	-72.1	7.9

System: N-(2-hydroxypropyl)-2-hydroxy-1-propanamine + carbon dioxide + water; phases: Liquid, Gas
Fixed: Pressure, kPa = 101
Property: Mole fraction of carbon dioxide (Liquid); method: Phase equilibration
Temperature, K	Solvent: Mass fraction of N-(2-hydroxypropyl)-2-hydroxy-1-propanamine	Mole fraction of carbon dioxide	uncertainty
297.99	0.1	0	
298.01	0.1	0.002	0.001
298.02	0.1	0.004	0.001
298.03	0.1	0.006	0.001
298.01	0.1	0.008	0.001
298.02	0.1	0.01	0.001
298.02	0.1	0.012	0.001
298.07	0.1	0.014	0.001
298.06	0.1	0.015	0.001
298.07	0.1	0.017	0.001
298.07	0.1	0.019	0.001
298.06	0.2	0	
298.05	0.2	0.004	0.001
298.05	0.2	0.008	0.001
298.05	0.2	0.013	0.001
298.06	0.2	0.017	0.001
298.05	0.2	0.021	0.001
298.06	0.2	0.025	0.001
298.05	0.2	0.03	0.001
298.05	0.2	0.033	0.001
298.05	0.2	0.037	0.001
298.05	0.2	0.041	0.001
298.12	0.3	0	
298.1	0.3	0.007	0.001
298.11	0.3	0.014	0.001
298.11	0.3	0.021	0.001
298.12	0.3	0.028	0.001
298.11	0.3	0.034	0.001
298.12	0.3	0.041	0.001
298.12	0.3	0.048	0.001
298.12	0.3	0.054	0.001
298.12	0.3	0.061	0.001
298.12	0.3	0.067	0.001

System: N-(2-hydroxypropyl)-2-hydroxy-1-propanamine + carbon dioxide + water; phases: Liquid, Gas
Fixed: Solvent: Mass fraction of N-(2-hydroxypropyl)-2-hydroxy-1-propanamine = 0.1
Property: Mole fraction of carbon dioxide (Liquid); method: Phase equilibration
Temperature, K	Pressure, kPa	Mole fraction of carbon dioxide	uncertainty
297.52	102.3	0	
297.32	111.3	0.002	0.001
297.42	106	0.004	0.001
297.32	104.6	0.005	0.001
297.32	252.8	0.007	0.001
297.32	244.7	0.01	0.001
297.32	244.9	0.013	0.001

System: N-(2-hydroxypropyl)-2-hydroxy-1-propanamine + carbon dioxide + water; phases: Liquid, Gas
Property: Mole fraction of carbon dioxide (Liquid); method: Phase equilibration
Temperature, K	Pressure, kPa	Solvent: Mass fraction of N-(2-hydroxypropyl)-2-hydroxy-1-propanamine	Mole fraction of carbon dioxide	uncertainty
297.81	280.6	0.2	0.008	0.001

System: N-(2-hydroxypropyl)-2-hydroxy-1-propanamine + carbon dioxide + water; phases: Liquid, Gas
Property: Mole fraction of carbon dioxide (Liquid); method: Phase equilibration
Temperature, K	Pressure, kPa	Solvent: Mass fraction of N-(2-hydroxypropyl)-2-hydroxy-1-propanamine	Mole fraction of carbon dioxide	uncertainty
297.8	250.3	0.3	0.021	0.001
