Measured thermophysical data. Isobaric vapor-liquid equilibrium for binary system of N, N-dimethyl formamide + N, N-dimethyl acetamide and quaternary system of sec-butyl alcohol + sec-butyl acetate + N, N-dimethyl formamide + N, N-dimethyl acetamide at 101.3 kPa
Source: Fluid Phase Equilib., 2016, 10.1016/j.fluid.2015.12.052
Compound 1: dimethylformamide, C3H7NO, InChI=1S/C3H7NO/c1-4(2)3-5/h3H,1-2H3, purity 99.8%
Compound 2: N,N-dimethylethanamide, C4H9NO, InChI=1S/C4H9NO/c1-4(6)5(2)3/h1-3H3, purity 99.9%

System: dimethylformamide + N,N-dimethylethanamide; phases: Liquid, Gas
Fixed: Pressure, kPa = 101.3
Property: Boiling temperature at pressure P, K (Liquid); method: Ebulliometric method (Recirculating still)
Mole fraction of dimethylformamide	Boiling temperature at pressure P, K	uncertainty
0	438.93	0.09
0.01	437.59	0.54
0.051	436.34	0.15
0.07	435.82	0.14
0.093	435.25	0.13
0.119	434.64	0.13
0.151	433.98	0.12
0.194	433.12	0.12
0.249	432.17	0.11
0.303	431.32	0.11
0.374	430.32	0.11
0.427	429.63	0.1
0.499	428.76	0.1
0.55	428.19	0.1
0.621	427.43	0.1
0.739	426.24	0.1
0.861	425.09	0.1
0.938	424.39	0.1
0.979	424.02	0.1
1	423.91	0.09

System: dimethylformamide + N,N-dimethylethanamide; phases: Gas, Liquid
Fixed: Pressure, kPa = 101.3
Property: Mole fraction of dimethylformamide (Gas); method: Chromatography
Mole fraction of dimethylformamide	Mole fraction of dimethylformamide	uncertainty
0	0	
0.01	0.02	0.02
0.051	0.094	0.021
0.07	0.126	0.021
0.093	0.165	0.021
0.119	0.202	0.021
0.151	0.248	0.021
0.194	0.305	0.021
0.249	0.373	0.021
0.303	0.431	0.021
0.374	0.495	0.021
0.427	0.545	0.021
0.499	0.599	0.021
0.55	0.644	0.02
0.621	0.692	0.02
0.739	0.782	0.02
0.861	0.883	0.02
0.938	0.946	0.02
0.979	0.981	0.019
1	1	
