Measured thermophysical data. Distribution of cyclohexanol and cyclohexanone between water and cyclohexane
Source: Fluid Phase Equilib., 2015, 10.1016/j.fluid.2015.02.029
Compound 1: cyclohexane, C6H12, InChI=1S/C6H12/c1-2-4-6-5-3-1/h1-6H2, purity 99%
Compound 2: cyclohexanone, C6H10O, InChI=1S/C6H10O/c7-6-4-2-1-3-5-6/h1-5H2, purity 99%
Compound 3: cyclohexanol, C6H12O, InChI=1S/C6H12O/c7-6-4-2-1-3-5-6/h6-7H,1-5H2, purity 99%
Compound 4: water, H2O, InChI=1S/H2O/h1H2, purity 99.9%

System: cyclohexanol + cyclohexane + water; phases: Liquid mixture 2, Liquid mixture 1
Fixed: Pressure, kPa = 101
Property: Mass fraction of cyclohexane (Liquid mixture 2); method: Chromatography
Property: Mass fraction of cyclohexanol (Liquid mixture 1); method: Chromatography
Property: Mass fraction of cyclohexane (Liquid mixture 1); method: Chromatography
Temperature, K	Mass fraction of cyclohexanol	Mass fraction of cyclohexane	uncertainty	Mass fraction of cyclohexanol	uncertainty	Mass fraction of cyclohexane	uncertainty
303.2	0	0.0001	0.0001	0		0.9983	
303.2	0.0162	0.0001	0.0001	0.0855	0.0019	0.9109	
303.2	0.0199	0.0001	0.0001	0.1919	0.0022	0.8017	
303.2	0.0218	0.0001	0.0001	0.2901	0.0027	0.699	
303.2	0.0233	0.0001	0.0001	0.3932	0.0033	0.5884	
303.2	0.0252	0.0001	0.0001	0.4919	0.0039	0.481	
303.2	0.0266	0.0001	0.0001	0.5841	0.0034	0.3794	
303.2	0.0287	0.0001	0.0001	0.6744	0.0029	0.2762	
303.2	0.0313	0.0001	0.0001	0.7554	0.0024	0.1811	
303.2	0.0349	0.0002	0.0002	0.8324	0.0021	0.077	
303.2	0.0391	0		0.8796	0.0018	0	
313.2	0	0		0		0.9986	
313.2	0.0147	0.0001	0.0001	0.0895	0.0019	0.9076	
313.2	0.0183	0.0001	0.0001	0.1964	0.0023	0.7973	
313.2	0.0207	0.0001	0.0001	0.2936	0.0027	0.6957	
313.2	0.022	0.0001	0.0001	0.397	0.0033	0.5868	
313.2	0.0229	0.0001	0.0001	0.4916	0.0039	0.4823	
313.2	0.0242	0.0001	0.0001	0.5893	0.0034	0.3748	
313.2	0.0257	0		0.6867	0.0028	0.2697	
313.2	0.0278	0		0.7622	0.0024	0.1743	
313.2	0.0315	0		0.8418	0.002	0.0705	
313.2	0.0354	0		0.8778	0.0018	0	
323.2	0	0		0		0.9987	
323.2	0.0139	0.0001	0.0001	0.0942	0.0019	0.9026	
323.2	0.0169	0.0001	0.0001	0.1989	0.0023	0.7939	
323.2	0.0191	0.0001	0.0001	0.3003	0.0028	0.6876	
323.2	0.0208	0.0001	0.0001	0.3969	0.0033	0.5853	
323.2	0.0222	0.0001	0.0001	0.5092	0.0039	0.4629	
323.2	0.0222	0.0001	0.0001	0.6081	0.0033	0.3536	
323.2	0.0237	0.0001	0.0001	0.6969	0.0028	0.2563	
323.2	0.0251	0		0.7733	0.0024	0.1604	
323.2	0.029	0		0.853	0.002	0.0594	
323.2	0.0329	0		0.8769	0.0018	0	
333.2	0	0		0		0.9989	
333.2	0.0127	0		0.0876	0.0019	0.9101	
333.2	0.0161	0.0001	0.0001	0.1999	0.0023	0.7937	
333.2	0.018	0		0.3022	0.0028	0.6871	
333.2	0.0187	0.0001	0.0001	0.3999	0.0033	0.5831	
333.2	0.0208	0.0001	0.0001	0.5026	0.0039	0.4693	
333.2	0.0223	0		0.5988	0.0033	0.366	
333.2	0.0234	0.0001	0.0001	0.6874	0.0028	0.2641	
333.2	0.0249	0.0001	0.0001	0.7852	0.0023	0.1476	
333.2	0.0282	0		0.8402	0.002	0.0674	
333.2	0.0325	0		0.8699	0.0019	0	

System: cyclohexanone + cyclohexane + water; phases: Liquid mixture 2, Liquid mixture 1
Fixed: Pressure, kPa = 101
Property: Mass fraction of cyclohexane (Liquid mixture 2); method: Chromatography
Property: Mass fraction of cyclohexanone (Liquid mixture 1); method: Chromatography
Property: Mass fraction of cyclohexane (Liquid mixture 1); method: Chromatography
Temperature, K	Mass fraction of cyclohexanone	Mass fraction of cyclohexane	uncertainty	Mass fraction of cyclohexanone	uncertainty	Mass fraction of cyclohexane	uncertainty
303.2	0	0.0001	0.0001	0		0.9983	
303.2	0.0173	0.0008	0.0008	0.0783	0.0015	0.9177	
303.2	0.0264	0.0003	0.0003	0.1697	0.0019	0.8253	
303.2	0.0332	0.0001	0.0001	0.264	0.0024	0.7299	
303.2	0.0382	0.0001	0.0001	0.3584	0.0031	0.6339	
303.2	0.0435	0.0005	0.0005	0.4598	0.0037	0.531	
303.2	0.0478	0.0001	0.0001	0.5558	0.0036	0.4278	
303.2	0.0538	0.0001	0.0001	0.6541	0.0029	0.3204	
303.2	0.0596	0.0001	0.0001	0.7438	0.0023	0.2234	
303.2	0.0685	0		0.8411	0.0018	0.1092	
303.2	0.0873	0		0.9303	0.0013	0	
313.2	0	0		0		0.9986	
313.2	0.0151	0.0002	0.0002	0.0879	0.0016	0.9111	
313.2	0.0232	0.0003	0.0003	0.1738	0.002	0.819	
313.2	0.028	0.0001	0.0001	0.269	0.0023	0.7221	
313.2	0.0339	0.0001	0.0001	0.3642	0.0029	0.582	
313.2	0.0382	0.0001	0.0001	0.4627	0.0037	0.4994	
313.2	0.043	0.0001	0.0001	0.5619	0.0035	0.3949	
313.2	0.0478	0.0001	0.0001	0.6525	0.0028	0.2937	
313.2	0.0537	0.0001	0.0001	0.7547	0.0022	0.1902	
313.2	0.0611	0.0001	0.0001	0.8425	0.0018	0.1009	
313.2	0.0776	0		0.9451	0.0013	0	
323.2	0	0		0		0.9987	
323.2	0.0139	0.0002	0.0002	0.0751	0.0015	0.8534	
323.2	0.0207	0.0004	0.0004	0.1791	0.0021	0.7656	
323.2	0.0267	0.0002	0.0002	0.2717	0.0025	0.7213	
323.2	0.0316	0.0003	0.0003	0.371	0.003	0.6195	
323.2	0.0358	0.0001	0.0001	0.4666	0.0037	0.5202	
323.2	0.0399	0.0001	0.0001	0.5611	0.0035	0.4181	
323.2	0.0449	0.0001	0.0001	0.6557	0.0028	0.316	
323.2	0.0503	0.0001	0.0001	0.7499	0.0023	0.2153	
323.2	0.0574	0		0.8369	0.0018	0.1147	
323.2	0.0711	0		0.9305	0.0013	0	
333.2	0	0		0		0.9989	
333.2	0.0122	0.0002	0.0002	0.0873	0.0016	0.8624	
333.2	0.0196	0.0001	0.0001	0.1833	0.002	0.7711	
333.2	0.0252	0.0002	0.0002	0.2793	0.0025	0.6937	
333.2	0.0299	0.0001	0.0001	0.3766	0.0031	0.574	
333.2	0.0346	0.0001	0.0001	0.4786	0.0038	0.4836	
333.2	0.0403	0.0001	0.0001	0.6039	0.0032	0.3455	
333.2	0.0436	0.0001	0.0001	0.6683	0.0028	0.2822	
333.2	0.0482	0.0001	0.0001	0.748	0.0023	0.1909	
333.2	0.0555	0		0.8272	0.0019	0.0964	
333.2	0.0776	0		0.9451	0.0013	0	
