Measured thermophysical data. Thermophysical properties of the liquid Ga-Sn-Zn eutectic alloy
Source: Fluid Phase Equilib., 2018, 10.1016/j.fluid.2018.03.001
Compound 1: gallium, Ga, InChI=1S/Ga
Compound 2: tin, Sn, InChI=1S/Sn
Compound 3: zinc, Zn, InChI=1S/Zn

System: gallium + tin + zinc; phases: Liquid
Fixed: Pressure, kPa = 101
Fixed: Mass fraction of gallium = 0.863
Fixed: Mass fraction of tin = 0.108
Property: Mass density, kg/m3 (Liquid); method: Discharge crucible method
Temperature, K	Mass density, kg/m3	uncertainty
323	6139	368
373	6105	366
423	6069	364
473	6046	363
523	6008	361
573	5983	359
623	5945	357
673	5926	356
723	5891	354
773	5862	352

System: gallium + tin + zinc; phases: Liquid
Fixed: Pressure, kPa = 101
Fixed: Mass fraction of gallium = 0.863
Fixed: Mass fraction of tin = 0.108
Property: Viscosity, Pa*s (Liquid); method: Discharge crucible method
Temperature, K	Viscosity, Pa*s	uncertainty
323	0.001542	0.000105
373	0.001315	9.2e-05
423	0.001121	7.8e-05
473	0.001008	6.9e-05
523	0.000923	6.4e-05
573	0.000844	5.9e-05
623	0.000777	5.4e-05
673	0.000733	5.1e-05
723	0.000697	4.8e-05
773	0.000679	4.6e-05

System: gallium + tin + zinc; phases: Liquid
Fixed: Pressure, kPa = 101
Fixed: Mass fraction of gallium = 0.863
Fixed: Mass fraction of tin = 0.108
Property: Electrical conductivity, S/m (Liquid); method: Homemade; based on four-point method
Temperature, K	Electrical conductivity, S/m	uncertainty
904	1949200	91190
889	1988440	111380
875	2076990	86720
864	2018220	101050
852	2155110	153640
841	2188490	87560
800	2170610	86830
784	2188910	105500
769	2287870	92880
755	2216910	92780
742	2240240	89610
717	2221410	90050
704	2289300	95760
691	2273120	91930
671	2317830	95540
652	2339960	96180
641	2370690	95490
631	2357680	95330
612	2398190	98690
602	2411530	102520
591	2458260	99170
580	2435560	97690
557	2473120	101010
547	2497520	104330
537	2528110	102330
526	2528600	101730
500	2563820	103510
490	2579580	103800
473	2595520	104510
465	2612800	107090
445	2644550	106090
451	2650280	107220
440	2660920	107260
434	2661690	106770
427	2672670	108300
420	2690040	109260
412	2706580	110690
404	2734830	111030
392	2754730	111220
385	2772090	111950
378	2726660	110390
364	2807210	117330
356	2826480	113350
351	2820260	113100
344	2839150	114680
337	2852760	115570
332	2872370	115550
327	2871260	115100
321	2884610	117280
315	2910550	118240
311	2916480	116660
309	2909430	119280
309	2923700	119350
308	2922150	119080
306	2935700	121650
305	2928980	121120
303	2948510	131950
303	2950510	134850

System: gallium + tin + zinc; phases: Liquid
Fixed: Pressure, kPa = 101
Fixed: Mass fraction of gallium = 0.863
Fixed: Mass fraction of tin = 0.108
Property: Thermal conductivity, W/m/K (Liquid); method: Coaxial cylinder method
Temperature, K	Thermal conductivity, W/m/K	uncertainty
843	41.56	5.85
828	41.32	5.83
810	40.79	5.79
795	39.78	5.65
779	39.28	5.55
738	37.99	5.36
712	37.26	5.25
687	36.76	5.18
667	36.39	5.14
636	35.09	4.97
626	34.69	4.9
608	34.23	4.83
597	33.83	4.79
575	32.88	4.65
543	31.76	4.49
521	30.84	4.36
496	29.69	4.19
475	29.21	4.13
461	28.07	3.99
440	27.08	3.83
429	26.57	3.76
415	25.95	3.67
400	25.38	3.59
380	24.42	3.46
359	23.29	3.3
347	22.56	3.2
333	21.87	3.1
317	21.01	2.97
301	20.2	2.86

System: gallium + tin + zinc; phases: Liquid, Gas
Fixed: Mass fraction of gallium = 0.863
Fixed: Mass fraction of tin = 0.108
Property: Surface tension liquid-gas, N/m (Liquid); method: Discharge crucible method
Temperature, K	Surface tension liquid-gas, N/m	uncertainty
323	0.6925	0.0416
373	0.6891	0.0413
423	0.6852	0.0411
473	0.6815	0.0409
523	0.6779	0.0407
573	0.6734	0.0404
623	0.6703	0.0402
673	0.6664	0.04
723	0.6631	0.0398
773	0.6595	0.0396
