Measured thermophysical data. Volumetric properties of the ternary system ethanol + chloroform + benzene at temperature range (288.15 313.15) K: Experimental data, correlation and prediction by cubic EOS
Source: Fluid Phase Equilib., 2007, 10.1016/j.fluid.2006.11.005
Compound 1: ethanol, C2H6O, InChI=1S/C2H6O/c1-2-3/h3H,2H2,1H3, purity 99.8%
Compound 2: trichloromethane, CHCl3, InChI=1S/CHCl3/c2-1(3)4/h1H, purity 99.8%
Compound 3: benzene, C6H6, InChI=1S/C6H6/c1-2-4-6-5-3-1/h1-6H, purity 99.9%

System: ethanol; phases: Liquid
Fixed: Pressure, kPa = 101.33
Property: Mass density, kg/m3 (Liquid); method: VIBTUB:UFactor:4
Temperature, K	Mass density, kg/m3	uncertainty
288.15	793.721	0.452
293.15	789.454	0.459
298.15	785.164	0.465
303.15	780.853	0.472
308.15	776.51	0.479
313.15	772.138	0.485

System: trichloromethane; phases: Liquid
Fixed: Pressure, kPa = 101.33
Property: Mass density, kg/m3 (Liquid); method: VIBTUB:UFactor:4
Temperature, K	Mass density, kg/m3	uncertainty
288.15	1498.077	0.922
293.15	1488.638	0.907
298.15	1479.148	0.892
303.15	1469.612	0.876
308.15	1460.025	0.861
313.15	1450.413	0.846

System: benzene; phases: Liquid
Fixed: Pressure, kPa = 101.33
Property: Mass density, kg/m3 (Liquid); method: VIBTUB:UFactor:4
Temperature, K	Mass density, kg/m3	uncertainty
288.15	884.246	0.307
293.15	878.918	0.316
298.15	873.582	0.324
303.15	868.233	0.332
308.15	862.871	0.341
313.15	857.498	0.349

System: ethanol + trichloromethane; phases: Liquid
Fixed: Pressure, kPa = 101.33
Property: Mass density, kg/m3 (Liquid); method: VIBTUB:UFactor:4
Temperature, K	Mole fraction of ethanol	Mass density, kg/m3	uncertainty
288.15	0	1498.077	0.922
288.15	0.0485	1472.168	0.887
288.15	0.0997	1444.687	0.844
288.15	0.1993	1389.445	0.758
288.15	0.2999	1331.013	0.667
288.15	0.4002	1269.36	0.573
288.15	0.4984	1204.895	0.476
288.15	0.5504	1168.927	0.424
288.15	0.6001	1133.489	0.374
288.15	0.6949	1062.09	0.279
288.15	0.794	981.537	0.231
288.15	0.8503	933.183	0.294
288.15	0.9001	888.356	0.358
288.15	1	793.721	0.452
293.15	0	1488.638	0.907
293.15	0.0485	1462.839	0.872
293.15	0.0997	1435.551	0.83
293.15	0.1993	1380.636	0.744
293.15	0.2999	1322.638	0.654
293.15	0.4002	1261.463	0.561
293.15	0.4984	1197.515	0.464
293.15	0.5504	1161.838	0.413
293.15	0.6001	1126.688	0.364
293.15	0.6949	1055.876	0.271
293.15	0.794	976.02	0.236
293.15	0.8503	927.998	0.3
293.15	0.9001	883.494	0.364
293.15	1	789.454	0.459
298.15	0	1479.148	0.892
298.15	0.0485	1453.461	0.857
298.15	0.0997	1426.279	0.815
298.15	0.1993	1371.766	0.73
298.15	0.2999	1314.202	0.641
298.15	0.4002	1253.502	0.548
298.15	0.4984	1190.075	0.453
298.15	0.5504	1154.688	0.402
298.15	0.6001	1119.829	0.354
298.15	0.6949	1049.609	0.262
298.15	0.794	970.455	0.242
298.15	0.8503	922.772	0.306
298.15	0.9001	878.595	0.37
298.15	1	785.164	0.465
303.15	0	1469.612	0.876
303.15	0.0485	1444.03	0.843
303.15	0.0997	1416.991	0.8
303.15	0.1993	1362.834	0.716
303.15	0.2999	1305.697	0.627
303.15	0.4002	1245.473	0.536
303.15	0.4984	1182.569	0.441
303.15	0.5504	1147.436	0.391
303.15	0.6001	1112.902	0.343
303.15	0.6949	1043.282	0.253
303.15	0.794	964.839	0.247
303.15	0.8503	917.5	0.312
303.15	0.9001	873.653	0.376
303.15	1	780.853	0.472
308.15	0	1460.025	0.861
308.15	0.0485	1434.548	0.828
308.15	0.0997	1407.645	0.786
308.15	0.1993	1353.833	0.702
308.15	0.2999	1297.125	0.614
308.15	0.4002	1237.37	0.523
308.15	0.4984	1174.989	0.429
308.15	0.5504	1140.19	0.38
308.15	0.6001	1105.903	0.333
308.15	0.6949	1036.887	0.244
308.15	0.794	959.165	0.253
308.15	0.8503	912.175	0.318
308.15	0.9001	868.659	0.382
308.15	1	776.51	0.479
313.15	0	1450.413	0.846
313.15	0.0485	1425.025	0.813
313.15	0.0997	1398.251	0.771
313.15	0.1993	1344.778	0.687
313.15	0.2999	1288.501	0.601
313.15	0.4002	1229.177	0.511
313.15	0.4984	1167.344	0.418
313.15	0.5504	1132.843	0.369
313.15	0.6001	1098.846	0.323
313.15	0.6949	1030.436	0.236
313.15	0.794	953.436	0.26
313.15	0.8503	906.798	0.325
313.15	0.9001	863.612	0.388
313.15	1	772.138	0.485

System: trichloromethane + benzene; phases: Liquid
Fixed: Pressure, kPa = 101.33
Property: Mass density, kg/m3 (Liquid); method: VIBTUB:UFactor:4
Temperature, K	Mole fraction of trichloromethane	Mass density, kg/m3	uncertainty
288.15	0	884.246	0.307
288.15	0.1001	939.224	0.249
288.15	0.2	995.529	0.178
288.15	0.3072	1057.295	0.248
288.15	0.3995	1111.961	0.328
288.15	0.4997	1172.451	0.419
288.15	0.6	1234.482	0.515
288.15	0.6652	1275.682	0.58
288.15	0.7991	1362.317	0.715
288.15	0.8009	1363.447	0.716
288.15	0.9	1429.592	0.823
288.15	1	1498.077	0.922
293.15	0	878.918	0.316
293.15	0.1001	933.584	0.256
293.15	0.2	989.568	0.184
293.15	0.3072	1050.963	0.239
293.15	0.3995	1105.286	0.318
293.15	0.4997	1165.384	0.408
293.15	0.6	1226.992	0.503
293.15	0.6652	1267.904	0.567
293.15	0.7991	1353.909	0.702
293.15	0.8009	1355.031	0.703
293.15	0.9	1420.676	0.808
293.15	1	1488.638	0.907
298.15	0	873.582	0.324
298.15	0.1001	927.935	0.264
298.15	0.2	983.589	0.191
298.15	0.3072	1044.608	0.23
298.15	0.3995	1098.581	0.308
298.15	0.4997	1158.284	0.397
298.15	0.6	1219.472	0.491
298.15	0.6652	1260.092	0.555
298.15	0.7991	1345.461	0.688
298.15	0.8009	1346.576	0.69
298.15	0.9	1411.713	0.794
298.15	1	1479.148	0.892
303.15	0	868.233	0.332
303.15	0.1001	922.271	0.272
303.15	0.2	977.59	0.198
303.15	0.3072	1038.228	0.221
303.15	0.3995	1091.845	0.298
303.15	0.4997	1151.153	0.386
303.15	0.6	1211.919	0.48
303.15	0.6652	1252.24	0.543
303.15	0.7991	1336.966	0.675
303.15	0.8009	1338.088	0.676
303.15	0.9	1402.703	0.78
303.15	1	1469.612	0.876
308.15	0	862.871	0.341
308.15	0.1001	916.586	0.279
308.15	0.2	971.567	0.206
308.15	0.3072	1031.818	0.212
308.15	0.3995	1085.078	0.288
308.15	0.4997	1143.984	0.375
308.15	0.6	1204.331	0.468
308.15	0.6652	1244.341	0.531
308.15	0.7991	1328.421	0.662
308.15	0.8009	1329.56	0.664
308.15	0.9	1393.631	0.766
308.15	1	1460.025	0.861
313.15	0	857.498	0.349
313.15	0.1001	910.883	0.287
313.15	0.2	965.527	0.213
313.15	0.3072	1025.378	0.203
313.15	0.3995	1078.273	0.277
313.15	0.4997	1136.781	0.364
313.15	0.6	1196.741	0.456
313.15	0.6652	1236.407	0.518
313.15	0.7991	1319.824	0.65
313.15	0.8009	1321.038	0.652
313.15	0.9	1384.52	0.751
313.15	1	1450.413	0.846

System: ethanol + trichloromethane + benzene; phases: Liquid
Fixed: Pressure, kPa = 101
Property: Mass density, kg/m3 (Liquid); method: VIBTUB:UFactor:4
Temperature, K	Mole fraction of ethanol	Mole fraction of trichloromethane	Mass density, kg/m3	uncertainty
288.15	0.0206	0.8995	1432.117	0.827
288.15	0.0222	0.7964	1362.994	0.717
288.15	0.029	0.7008	1300.833	0.62
288.15	0.0391	0.8994	1434.631	0.832
288.15	0.0395	0.602	1237.989	0.521
288.15	0.0401	0.7939	1363.348	0.719
288.15	0.0519	0.4993	1173.845	0.422
288.15	0.0584	0.8968	1435.711	0.834
288.15	0.0589	0.4013	1113.635	0.331
288.15	0.0602	0.6995	1303.068	0.624
288.15	0.0695	0.299	1052.037	0.243
288.15	0.0789	0.1997	993.167	0.183
288.15	0.0799	0.8009	1373.254	0.735
288.15	0.0807	0.8989	1440.629	0.842
288.15	0.0809	0.5978	1238.298	0.524
288.15	0.088	0.1016	935.841	0.256
288.15	0.1004	0.4993	1176.223	0.427
288.15	0.1197	0.3998	1114.138	0.334
288.15	0.1201	0.7015	1310.297	0.637
288.15	0.1216	0.7992	1377.467	0.742
288.15	0.1394	0.2988	1051.853	0.244
288.15	0.1598	0.8001	1383.228	0.752
288.15	0.1604	0.5988	1245.104	0.536
288.15	0.161	0.2002	991.495	0.191
288.15	0.1791	0.8005	1386.011	0.757
288.15	0.1792	0.0998	930.819	0.265
288.15	0.1794	0.6988	1315.179	0.646
288.15	0.2006	0.5005	1182.501	0.44
288.15	0.2383	0.7007	1323.455	0.659
288.15	0.2398	0.5998	1252.903	0.549
288.15	0.2399	0.4006	1118.225	0.343
288.15	0.27	0.7001	1326.937	0.665
288.15	0.2803	0.2993	1052.865	0.25
288.15	0.2996	0.5003	1188.671	0.451
288.15	0.3201	0.5965	1258.517	0.559
288.15	0.321	0.2004	988.303	0.197
288.15	0.357	0.6026	1266.782	0.574
288.15	0.3597	0.4001	1122.365	0.355
288.15	0.3799	0.0961	918.883	0.289
288.15	0.3996	0.5003	1196.082	0.464
288.15	0.4166	0.3044	1057.197	0.263
288.15	0.4497	0.4999	1199.57	0.472
288.15	0.4744	0.3964	1124.583	0.359
288.15	0.4784	0.199	983.844	0.212
288.15	0.5387	0.1012	914.065	0.301
288.15	0.5397	0.4002	1130.659	0.371
288.15	0.565	0.2965	1053.375	0.261
288.15	0.6227	0.3053	1061.137	0.275
288.15	0.6393	0.1997	980.833	0.222
288.15	0.7166	0.1051	906.031	0.317
288.15	0.718	0.1993	978.502	0.226
288.15	0.8103	0.0996	895.743	0.332
293.15	0.0206	0.8995	1423.15	0.813
293.15	0.0222	0.7964	1354.549	0.704
293.15	0.029	0.7008	1292.833	0.607
293.15	0.0391	0.8994	1425.61	0.817
293.15	0.0395	0.602	1230.426	0.51
293.15	0.0401	0.7939	1354.871	0.705
293.15	0.0519	0.4993	1166.71	0.411
293.15	0.0584	0.8968	1426.65	0.819
293.15	0.0589	0.4013	1106.894	0.321
293.15	0.0602	0.6995	1295.013	0.611
293.15	0.0695	0.299	1045.686	0.233
293.15	0.0789	0.1997	987.172	0.189
293.15	0.0799	0.8009	1364.65	0.722
293.15	0.0807	0.8989	1431.502	0.827
293.15	0.0809	0.5978	1230.694	0.512
293.15	0.088	0.1016	930.183	0.263
293.15	0.1004	0.4993	1169.043	0.416
293.15	0.1197	0.3998	1107.372	0.324
293.15	0.1201	0.7015	1302.139	0.624
293.15	0.1216	0.7992	1368.799	0.729
293.15	0.1394	0.2988	1045.491	0.236
293.15	0.1598	0.8001	1374.487	0.738
293.15	0.1604	0.5988	1237.411	0.524
293.15	0.161	0.2002	985.504	0.197
293.15	0.1791	0.8005	1377.237	0.743
293.15	0.1792	0.0998	925.196	0.272
293.15	0.1794	0.6988	1306.961	0.633
293.15	0.2006	0.5005	1175.257	0.429
293.15	0.2383	0.7007	1315.151	0.646
293.15	0.2398	0.5998	1245.14	0.537
293.15	0.2399	0.4006	1111.43	0.333
293.15	0.27	0.7001	1318.601	0.652
293.15	0.2803	0.2993	1046.51	0.241
293.15	0.2996	0.5003	1181.382	0.439
293.15	0.3201	0.5965	1250.705	0.547
293.15	0.321	0.2004	982.373	0.203
293.15	0.357	0.6026	1258.905	0.561
293.15	0.3597	0.4001	1115.561	0.344
293.15	0.3799	0.0961	913.402	0.296
293.15	0.3996	0.5003	1188.75	0.453
293.15	0.4166	0.3044	1050.859	0.254
293.15	0.4497	0.4999	1192.221	0.461
293.15	0.4744	0.3964	1117.797	0.349
293.15	0.4784	0.199	978.017	0.218
293.15	0.5387	0.1012	908.596	0.308
293.15	0.5397	0.4002	1123.857	0.361
293.15	0.565	0.2965	1047.139	0.251
293.15	0.6227	0.3053	1054.88	0.267
293.15	0.6393	0.1997	975.133	0.228
293.15	0.7166	0.1051	900.865	0.324
293.15	0.718	0.1993	972.885	0.232
293.15	0.8103	0.0996	890.733	0.338
298.15	0.0206	0.8995	1414.137	0.799
298.15	0.0222	0.7964	1346.063	0.691
298.15	0.029	0.7008	1284.795	0.594
298.15	0.0391	0.8994	1416.544	0.803
298.15	0.0395	0.602	1222.823	0.498
298.15	0.0401	0.7939	1346.35	0.692
298.15	0.0519	0.4993	1159.538	0.4
298.15	0.0584	0.8968	1417.543	0.805
298.15	0.0589	0.4013	1100.121	0.311
298.15	0.0602	0.6995	1286.917	0.598
298.15	0.0695	0.299	1039.303	0.225
298.15	0.0789	0.1997	981.149	0.196
298.15	0.0799	0.8009	1355.998	0.708
298.15	0.0807	0.8989	1422.321	0.813
298.15	0.0809	0.5978	1223.045	0.5
298.15	0.088	0.1016	924.502	0.271
298.15	0.1004	0.4993	1161.823	0.405
298.15	0.1197	0.3998	1100.565	0.314
298.15	0.1201	0.7015	1293.93	0.611
298.15	0.1216	0.7992	1360.072	0.715
298.15	0.1394	0.2988	1039.091	0.227
298.15	0.1598	0.8001	1365.69	0.725
298.15	0.1604	0.5988	1229.672	0.512
298.15	0.161	0.2002	979.484	0.204
298.15	0.1791	0.8005	1368.403	0.729
298.15	0.1792	0.0998	919.545	0.28
298.15	0.1794	0.6988	1298.686	0.62
298.15	0.2006	0.5005	1167.965	0.418
298.15	0.2383	0.7007	1306.786	0.633
298.15	0.2398	0.5998	1237.324	0.525
298.15	0.2399	0.4006	1104.584	0.322
298.15	0.27	0.7001	1310.204	0.639
298.15	0.2803	0.2993	1040.113	0.232
298.15	0.2996	0.5003	1174.04	0.428
298.15	0.3201	0.5965	1242.834	0.535
298.15	0.321	0.2004	976.404	0.21
298.15	0.357	0.6026	1250.968	0.549
298.15	0.3597	0.4001	1108.703	0.334
298.15	0.3799	0.0961	907.886	0.303
298.15	0.3996	0.5003	1181.358	0.441
298.15	0.4166	0.3044	1044.471	0.245
298.15	0.4497	0.4999	1184.808	0.449
298.15	0.4744	0.3964	1110.957	0.338
298.15	0.4784	0.199	972.147	0.224
298.15	0.5387	0.1012	903.089	0.315
298.15	0.5397	0.4002	1116.994	0.351
298.15	0.565	0.2965	1040.851	0.243
298.15	0.6227	0.3053	1048.572	0.258
298.15	0.6393	0.1997	969.387	0.234
298.15	0.7166	0.1051	895.658	0.331
298.15	0.718	0.1993	967.22	0.238
298.15	0.8103	0.0996	885.683	0.345
303.15	0.0206	0.8995	1405.079	0.784
303.15	0.0222	0.7964	1337.537	0.677
303.15	0.029	0.7008	1276.717	0.582
303.15	0.0391	0.8994	1407.428	0.788
303.15	0.0395	0.602	1215.186	0.486
303.15	0.0401	0.7939	1337.785	0.678
303.15	0.0519	0.4993	1152.33	0.389
303.15	0.0584	0.8968	1408.385	0.79
303.15	0.0589	0.4013	1093.314	0.301
303.15	0.0602	0.6995	1278.777	0.586
303.15	0.0695	0.299	1032.889	0.216
303.15	0.0789	0.1997	975.103	0.203
303.15	0.0799	0.8009	1347.294	0.694
303.15	0.0807	0.8989	1413.087	0.798
303.15	0.0809	0.5978	1215.351	0.488
303.15	0.088	0.1016	918.797	0.279
303.15	0.1004	0.4993	1154.564	0.394
303.15	0.1197	0.3998	1093.719	0.303
303.15	0.1201	0.7015	1285.672	0.598
303.15	0.1216	0.7992	1351.297	0.701
303.15	0.1394	0.2988	1032.656	0.218
303.15	0.1598	0.8001	1356.831	0.711
303.15	0.1604	0.5988	1221.881	0.5
303.15	0.161	0.2002	973.426	0.211
303.15	0.1791	0.8005	1359.509	0.715
303.15	0.1792	0.0998	913.863	0.288
303.15	0.1794	0.6988	1290.356	0.607
303.15	0.2006	0.5005	1160.622	0.407
303.15	0.2383	0.7007	1298.36	0.62
303.15	0.2398	0.5998	1229.445	0.513
303.15	0.2399	0.4006	1097.69	0.312
303.15	0.27	0.7001	1301.746	0.626
303.15	0.2803	0.2993	1033.665	0.223
303.15	0.2996	0.5003	1166.639	0.416
303.15	0.3201	0.5965	1234.899	0.522
303.15	0.321	0.2004	970.393	0.217
303.15	0.357	0.6026	1242.968	0.537
303.15	0.3597	0.4001	1101.792	0.324
303.15	0.3799	0.0961	902.332	0.311
303.15	0.3996	0.5003	1173.906	0.43
303.15	0.4166	0.3044	1038.029	0.236
303.15	0.4497	0.4999	1177.332	0.438
303.15	0.4744	0.3964	1104.058	0.328
303.15	0.4784	0.199	966.227	0.231
303.15	0.5387	0.1012	897.543	0.322
303.15	0.5397	0.4002	1110.072	0.341
303.15	0.565	0.2965	1034.506	0.234
303.15	0.6227	0.3053	1042.129	0.249
303.15	0.6393	0.1997	963.589	0.24
303.15	0.7166	0.1051	890.409	0.337
303.15	0.718	0.1993	961.503	0.244
303.15	0.8103	0.0996	880.591	0.351
308.15	0.0206	0.8995	1395.972	0.77
308.15	0.0222	0.7964	1328.966	0.664
308.15	0.029	0.7008	1268.595	0.569
308.15	0.0391	0.8994	1398.26	0.774
308.15	0.0395	0.602	1207.508	0.474
308.15	0.0401	0.7939	1329.174	0.665
308.15	0.0519	0.4993	1145.084	0.378
308.15	0.0584	0.8968	1399.18	0.776
308.15	0.0589	0.4013	1086.469	0.291
308.15	0.0602	0.6995	1270.593	0.573
308.15	0.0695	0.299	1026.443	0.207
308.15	0.0789	0.1997	969.023	0.211
308.15	0.0799	0.8009	1338.54	0.681
308.15	0.0807	0.8989	1403.8	0.784
308.15	0.0809	0.5978	1207.604	0.476
308.15	0.088	0.1016	913.065	0.287
308.15	0.1004	0.4993	1147.264	0.383
308.15	0.1197	0.3998	1086.827	0.293
308.15	0.1201	0.7015	1277.36	0.585
308.15	0.1216	0.7992	1342.458	0.687
308.15	0.1394	0.2988	1026.181	0.209
308.15	0.1598	0.8001	1347.906	0.697
308.15	0.1604	0.5988	1214.033	0.487
308.15	0.161	0.2002	967.334	0.218
308.15	0.1791	0.8005	1350.552	0.701
308.15	0.1792	0.0998	908.146	0.295
308.15	0.1794	0.6988	1281.967	0.593
308.15	0.2006	0.5005	1153.228	0.395
308.15	0.2383	0.7007	1289.865	0.607
308.15	0.2398	0.5998	1221.507	0.5
308.15	0.2399	0.4006	1090.736	0.302
308.15	0.27	0.7001	1293.22	0.612
308.15	0.2803	0.2993	1027.169	0.214
308.15	0.2996	0.5003	1159.179	0.405
308.15	0.3201	0.5965	1226.89	0.51
308.15	0.321	0.2004	964.332	0.224
308.15	0.357	0.6026	1234.903	0.524
308.15	0.3597	0.4001	1094.821	0.314
308.15	0.3799	0.0961	896.737	0.318
308.15	0.3996	0.5003	1166.39	0.418
308.15	0.4166	0.3044	1031.529	0.228
308.15	0.4497	0.4999	1169.795	0.426
308.15	0.4744	0.3964	1097.1	0.318
308.15	0.4784	0.199	960.253	0.237
308.15	0.5387	0.1012	891.978	0.33
308.15	0.5397	0.4002	1103.088	0.33
308.15	0.565	0.2965	1028.1	0.226
308.15	0.6227	0.3053	1035.773	0.241
308.15	0.6393	0.1997	957.735	0.246
308.15	0.7166	0.1051	885.112	0.344
308.15	0.718	0.1993	955.729	0.251
308.15	0.8103	0.0996	875.451	0.358
313.15	0.0206	0.8995	1386.837	0.756
313.15	0.0222	0.7964	1320.371	0.65
313.15	0.029	0.7008	1260.457	0.556
313.15	0.0391	0.8994	1389.063	0.759
313.15	0.0395	0.602	1199.809	0.462
313.15	0.0401	0.7939	1320.538	0.651
313.15	0.0519	0.4993	1137.818	0.367
313.15	0.0584	0.8968	1389.936	0.761
313.15	0.0589	0.4013	1079.603	0.281
313.15	0.0602	0.6995	1262.387	0.56
313.15	0.0695	0.299	1019.989	0.198
313.15	0.0789	0.1997	962.926	0.218
313.15	0.0799	0.8009	1329.776	0.667
313.15	0.0807	0.8989	1394.475	0.769
313.15	0.0809	0.5978	1199.815	0.464
313.15	0.088	0.1016	907.313	0.295
313.15	0.1004	0.4993	1139.938	0.372
313.15	0.1197	0.3998	1079.916	0.283
313.15	0.1201	0.7015	1269.025	0.572
313.15	0.1216	0.7992	1333.598	0.673
313.15	0.1394	0.2988	1019.688	0.2
313.15	0.1598	0.8001	1338.948	0.682
313.15	0.1604	0.5988	1206.15	0.475
313.15	0.161	0.2002	961.218	0.225
313.15	0.1791	0.8005	1341.585	0.687
313.15	0.1792	0.0998	902.412	0.303
313.15	0.1794	0.6988	1273.536	0.58
313.15	0.2006	0.5005	1145.805	0.384
313.15	0.2383	0.7007	1281.326	0.593
313.15	0.2398	0.5998	1213.53	0.488
313.15	0.2399	0.4006	1083.753	0.291
313.15	0.27	0.7001	1284.656	0.599
313.15	0.2803	0.2993	1020.637	0.205
313.15	0.2996	0.5003	1151.681	0.393
313.15	0.3201	0.5965	1218.859	0.497
313.15	0.321	0.2004	958.242	0.231
313.15	0.357	0.6026	1226.797	0.511
313.15	0.3597	0.4001	1087.811	0.303
313.15	0.3799	0.0961	891.101	0.326
313.15	0.3996	0.5003	1158.833	0.407
313.15	0.4166	0.3044	1024.984	0.219
313.15	0.4497	0.4999	1162.23	0.415
313.15	0.4744	0.3964	1090.101	0.308
313.15	0.4784	0.199	954.237	0.244
313.15	0.5387	0.1012	886.415	0.337
313.15	0.5397	0.4002	1096.065	0.32
313.15	0.565	0.2965	1021.64	0.217
313.15	0.6227	0.3053	1029.308	0.232
313.15	0.6393	0.1997	951.844	0.253
313.15	0.7166	0.1051	879.768	0.351
313.15	0.718	0.1993	949.915	0.258
313.15	0.8103	0.0996	870.271	0.365
