Measured thermophysical data. Solubility and preferential solvation of sulfadiazine inmethanol + water mixtures at several temperatures
Source: Fluid Phase Equilib., 2014, 10.1016/j.fluid.2014.07.013
Compound 1: 4-amino-N-2-pyrimidinylbenzenesulfonamide, C10H10N4O2S, InChI=1S/C10H10N4O2S/c11-8-2-4-9(5-3-8)17(15,16)14-10-12-6-1-7-13-10/h1-7H,11H2,(H,12,13,14), purity 99%
Compound 2: methanol, CH4O, InChI=1S/CH4O/c1-2/h2H,1H3, purity 99.8%
Compound 3: water, H2O, InChI=1S/H2O/h1H2, purity 99.8%

System: methanol + 4-amino-N-2-pyrimidinylbenzenesulfonamide + water; phases: Liquid, Crystal
Fixed: Pressure, kPa = 73.9
Property: Mole fraction of 4-amino-N-2-pyrimidinylbenzenesulfonamide (Liquid); method: Gravimetric with UV spectrophotometric analysis
Temperature, K	Solvent: Mole fraction of methanol	Mole fraction of 4-amino-N-2-pyrimidinylbenzenesulfonamide	uncertainty
293.15	0	3.799e-06	2.4e-08
293.15	0.0588	5.461e-06	3.5e-08
293.15	0.1233	8.36e-06	3e-08
293.15	0.1942	1.901e-05	1.2e-07
293.15	0.2727	2.75e-05	2e-07
293.15	0.36	4.74e-05	3e-07
293.15	0.4576	7.49e-05	4e-07
293.15	0.5675	0.0001037	6e-07
293.15	0.6923	0.0001307	7e-07
293.15	0.835	0.0001439	8e-07
293.15	1	0.0001618	8e-07
298.15	0	4.87e-06	4e-08
298.15	0.0588	7.37e-06	5e-08
298.15	0.1233	1.185e-05	8e-08
298.15	0.1942	2.35e-05	1.5e-07
298.15	0.2727	3.89e-05	3e-07
298.15	0.36	6.05e-05	3e-07
298.15	0.4576	9.35e-05	5e-07
298.15	0.5675	0.0001286	6e-07
298.15	0.6923	0.0001554	8e-07
298.15	0.835	0.00018	1e-06
298.15	1	0.0001912	9e-07
303.15	0	7.1e-06	5e-08
303.15	0.0588	9.74e-06	7e-08
303.15	0.1233	1.592e-05	1e-07
303.15	0.1942	3.227e-05	2.4e-07
303.15	0.2727	5.06e-05	3e-07
303.15	0.36	7.65e-05	5e-07
303.15	0.4576	0.0001153	7e-07
303.15	0.5675	0.0001522	8e-07
303.15	0.6923	0.0001931	1e-06
303.15	0.835	0.000211	1e-06
303.15	1	0.000236	1e-06
308.15	0	9.11e-06	5e-08
308.15	0.0588	1.321e-05	9e-08
308.15	0.1233	2.103e-05	1.5e-07
308.15	0.1942	4.503e-05	3.3e-07
308.15	0.2727	6.72e-05	4e-07
308.15	0.36	0.0001012	7e-07
308.15	0.4576	0.0001533	9e-07
308.15	0.5675	0.000191	1e-06
308.15	0.6923	0.0002375	1.3e-06
308.15	0.835	0.000262	2e-06
308.15	1	0.00029	1e-06
313.15	0	1.14e-05	6e-08
313.15	0.0588	1.801e-05	1.3e-07
313.15	0.1233	2.906e-05	3.1e-07
313.15	0.1942	6.25e-05	3e-07
313.15	0.2727	8.78e-05	6e-07
313.15	0.36	0.000134	8e-07
313.15	0.4576	0.000194	1e-06
313.15	0.5675	0.000256	1e-06
313.15	0.6923	0.000302	2e-06
313.15	0.835	0.000327	2e-06
313.15	1	0.0003401	1.4e-06
