Measured thermophysical data. Compatible solutes: Thermodynamic properties relevant for effective protection against osmotic stress
Source: Fluid Phase Equilib., 2016, 10.1016/j.fluid.2015.07.004
Compound 1: (trimethylammonio)acetate, C5H11NO2, InChI=1S/C5H11NO2/c1-6(2,3)4-5(7)8/h4H2,1-3H3, purity 99%
Compound 2: .alpha.-trehalose, C12H22O11, InChI=1S/C12H22O11/c13-1-3-5(15)7(17)9(19)11(21-3)23-12-10(20)8(18)6(16)4(2-14)22-12/h3-20H,1-2H2/t3-,4-,5-,6-,7+,8+,9-,10-,11-,12-/m1/s1, purity 98%
Compound 3: trimethylamine oxide, C3H9NO, InChI=1S/C3H9NO/c1-4(2,3)5/h1-3H3, purity 98%
Compound 4: N5-aminocarbonyl-L-ornithine, C6H13N3O3, InChI=1S/C6H13N3O3/c7-4(5(10)11)2-1-3-9-6(8)12/h4H,1-3,7H2,(H,10,11)(H3,8,9,12)/t4-/m0/s1, purity 98%
Compound 5: (Dimethylamino)acetic acid, C4H9NO2, InChI=1S/C4H9NO2/c1-5(2)3-4(6)7/h3H2,1-2H3,(H,6,7), purity 98%
Compound 6: water, H2O, InChI=1S/H2O/h1H2, purity 98%

System: trimethylamine oxide + water; phases: Liquid
Fixed: Pressure, kPa = 100
Fixed: Temperature, K = 298
Property: Mass density, kg/m3 (Liquid); method: Vibrating tube method
Molality, mol/kg of trimethylamine oxide	Mass density, kg/m3	uncertainty
0.406	998.235	1.131
0.7971	999.133	1.132
1.1987	1000.206	1.133
1.5901	1001.54	1.134
2.0018	1002.01	1.135
2.4449	1003.03	1.136

System: trimethylamine oxide + water; phases: Liquid
Fixed: Pressure, kPa = 100
Property: Osmotic coefficient (Liquid); method: boiling point elevation
Temperature, K	Molality, mol/kg of trimethylamine oxide	Osmotic coefficient	uncertainty
310.15	0.1988	0.9879	0.0081
310.15	0.406	1.0336	0.0082
310.15	0.62	1.0617	0.0084
310.15	0.7971	1.152	0.0097
310.15	0.9921	1.1326	0.0094
310.15	1.1987	1.1496	0.0098
310.15	1.3916	1.1919	0.0105
310.15	1.5901	1.3148	0.0138
323.15	0.5008	1.0759	0.0085
323.15	1.0151	1.1714	0.0102
323.15	1.5	1.2722	0.0126

System: trimethylamine oxide + water; phases: Liquid, Crystal
Fixed: Pressure, kPa = 100
Property: Molality, mol/kg of trimethylamine oxide (Liquid); method: Optical Method
Temperature, K	Molality, mol/kg of trimethylamine oxide	uncertainty
297.95	7.28	0.44
336.15	18.39	0.43
351.15	21.55	0.61
361.15	38.65	1.1

System: trimethylamine oxide + water; phases: Liquid, Crystal
Fixed: Pressure, kPa = 100
Property: Molality, mol/kg of trimethylamine oxide (Liquid); method: DSC
Temperature, K	Molality, mol/kg of trimethylamine oxide	uncertainty
354.03	21.548	0.403
357.32	21.548	0.879
368.04	38.508	1.033

System: .alpha.-trehalose + water; phases: Liquid
Fixed: Pressure, kPa = 100
Fixed: Temperature, K = 298
Property: Mass density, kg/m3 (Liquid); method: Vibrating tube method
Molality, mol/kg of .alpha.-trehalose	Mass density, kg/m3	uncertainty
0.1997	1022.607	1.186
0.3989	1046.201	1.216
0.5995	1068.335	1.244
0.7914	1087.593	1.27

System: .alpha.-trehalose + water; phases: Liquid
Fixed: Temperature, K = 310.15
Fixed: Pressure, kPa = 100
Property: Osmotic coefficient (Liquid); method: boiling point elevation
Molality, mol/kg of .alpha.-trehalose	Osmotic coefficient	uncertainty
0.0499	1.0307	0.0081
0.0998	1.0365	0.0081
0.1997	1.0197	0.008
0.2995	0.999	0.008
0.3989	1.0097	0.008
0.4992	1.0224	0.008
0.5995	0.9904	0.008
0.6932	1.0189	0.008
1.4691	1.0634	0.0083
1.9824	1.0799	0.0085

System: (Dimethylamino)acetic acid + water; phases: Liquid
Fixed: Pressure, kPa = 100
Fixed: Temperature, K = 298
Property: Mass density, kg/m3 (Liquid); method: Vibrating tube method
Molality, mol/kg of (Dimethylamino)acetic acid	Mass density, kg/m3	uncertainty
0.4001	1005.638	1.14
1.0031	1016.883	1.155
1.4007	1024.01	1.164
1.9925	1033.693	1.178

System: (Dimethylamino)acetic acid + water; phases: Liquid
Fixed: Pressure, kPa = 100
Property: Osmotic coefficient (Liquid); method: boiling point elevation
Temperature, K	Molality, mol/kg of (Dimethylamino)acetic acid	Osmotic coefficient	uncertainty
310.15	0.0986	1.0694	0.0087
310.15	0.2005	1.0351	0.0088
310.15	0.4001	1.072	0.0088
310.15	0.8024	1.0759	0.0094
310.15	1.0031	1.1257	0.0102
310.15	1.1926	1.1407	0.0106
310.15	1.4007	1.1469	0.0097
310.15	1.5855	1.1537	0.0098
310.15	1.797	1.169	0.0101
310.15	1.9925	1.206	0.0108
323.15	0.2056	0.981	0.0084
323.15	0.2889	0.989	0.0084
323.15	0.4998	1.0078	0.0087
323.15	1.0151	1.0214	0.0088
323.15	1.5	1.114	0.009

System: (Dimethylamino)acetic acid + water; phases: Liquid, Crystal
Property: Molality, mol/kg of (Dimethylamino)acetic acid (Liquid); method: Optical Method
Temperature, K	Pressure, kPa	Molality, mol/kg of (Dimethylamino)acetic acid	uncertainty
299.45	100	8.28	0.4

System: N5-aminocarbonyl-L-ornithine + water; phases: Liquid
Fixed: Pressure, kPa = 100
Fixed: Temperature, K = 298
Property: Mass density, kg/m3 (Liquid); method: Vibrating tube method
Molality, mol/kg of N5-aminocarbonyl-L-ornithine	Mass density, kg/m3	uncertainty
0.1989	1008.22	1.148
0.3842	1018.594	1.161
0.6007	1028.997	1.175

System: N5-aminocarbonyl-L-ornithine + water; phases: Liquid
Fixed: Pressure, kPa = 100
Property: Osmotic coefficient (Liquid); method: boiling point elevation
Temperature, K	Molality, mol/kg of N5-aminocarbonyl-L-ornithine	Osmotic coefficient	uncertainty
310.15	0.1011	1.0108	0.008
310.15	0.1989	1.0029	0.008
310.15	0.3942	0.9986	0.008
310.15	0.4915	0.9973	0.008
310.15	0.6892	1.0017	0.008
323.15	0.402	1.0007	0.008
323.15	0.6001	0.9931	0.008
323.15	0.2016	1.0067	0.008

System: N5-aminocarbonyl-L-ornithine + water; phases: Liquid, Crystal
Fixed: Pressure, kPa = 100
Property: Molality, mol/kg of N5-aminocarbonyl-L-ornithine (Liquid); method: Optical Method
Temperature, K	Molality, mol/kg of N5-aminocarbonyl-L-ornithine	uncertainty
296.35	0.44	0.4
298.95	0.71	0.4
302.15	0.59	0.4
318.05	1.42	0.4
323.75	1.39	0.4
324.15	1.9	0.4
333.15	2.39	0.4

System: N5-aminocarbonyl-L-ornithine + water; phases: Liquid, Crystal
Fixed: Pressure, kPa = 100
Property: Molality, mol/kg of N5-aminocarbonyl-L-ornithine (Liquid); method: DSC
Temperature, K	Molality, mol/kg of N5-aminocarbonyl-L-ornithine	uncertainty
301.35	0.588	0.401
322.03	1.388	0.409
325.64	1.899	0.409

System: (trimethylammonio)acetate + water; phases: Liquid, Crystal
Property: Molality, mol/kg of (trimethylammonio)acetate (Liquid); method: Optical Method
Temperature, K	Pressure, kPa	Molality, mol/kg of (trimethylammonio)acetate	uncertainty
298.55	100	11.28	0.4
