Measured thermophysical data. Activity coefficients of NaF in aqueous mixtures with e-increasing co-solvent: N-methylformamide-water mixtures at 298.15 K
Source: Fluid Phase Equilib., 2016, 10.1016/j.fluid.2016.05.019
Compound 1: N-methylformamide, C2H5NO, InChI=1S/C2H5NO/c1-3-2-4/h2H,1H3,(H,3,4), purity 99%
Compound 2: sodium fluoride, FNa, InChI=1S/FH.Na/h1H;/q;+1/p-1, purity 99%
Compound 3: water, H2O, InChI=1S/H2O/h1H2, purity 99.8%

System: N-methylformamide + sodium fluoride + water; phases: Liquid
Fixed: Pressure, kPa = 95.7
Fixed: Temperature, K = 298.15
Property: Mean ionic activity coefficient of sodium fluoride (Liquid); method: Calculated from EMF cell potential
Solvent: Mass fraction of N-methylformamide	Molality, mol/kg of sodium fluoride	Mean ionic activity coefficient of sodium fluoride	uncertainty
0	0.00595	0.923	0.02
0	0.0193	0.869	0.021
0	0.0363	0.831	0.021
0	0.0692	0.786	0.022
0	0.1072	0.752	0.022
0	0.1998	0.703	0.023
0	0.245	0.687	0.023
0	0.3023	0.67	0.023
0	0.349	0.658	0.023
0	0.4057	0.646	0.023
0	0.528	0.626	0.024
0	0.6406	0.61	0.024
0	0.7	0.603	0.024
0	0.7637	0.596	0.024
0	0.802	0.592	0.024
0	0.849	0.587	0.024
0	0.915	0.581	0.024
0	0.977	0.575	0.024
0.1	0.00321	0.943	0.02
0.1	0.00729	0.916	0.02
0.1	0.011	0.899	0.021
0.1	0.0178	0.875	0.021
0.1	0.026	0.854	0.021
0.1	0.0338	0.838	0.021
0.1	0.0422	0.824	0.021
0.1	0.0611	0.799	0.022
0.1	0.0794	0.78	0.022
0.1	0.1003	0.764	0.022
0.1	0.1376	0.74	0.022
0.1	0.155	0.732	0.022
0.1	0.1715	0.724	0.023
0.1	0.2447	0.698	0.023
0.1	0.3494	0.673	0.023
0.1	0.4477	0.655	0.023
0.1	0.5335	0.641	0.024
0.1	0.6544	0.62	0.024
0.2	0.0091	0.913	0.02
0.2	0.0178	0.882	0.021
0.2	0.0318	0.851	0.021
0.2	0.0416	0.835	0.021
0.2	0.0571	0.815	0.022
0.2	0.0598	0.813	0.022
0.2	0.0632	0.809	0.022
0.2	0.0717	0.801	0.022
0.2	0.081	0.794	0.022
0.2	0.0883	0.788	0.022
0.2	0.0928	0.785	0.022
0.2	0.104	0.778	0.022
0.2	0.1148	0.772	0.022
0.2	0.1245	0.767	0.022
0.2	0.1492	0.756	0.022
0.2	0.169	0.748	0.022
0.2	0.1725	0.746	0.022
0.2	0.3	0.692	0.023
0.3	0.00499	0.935	0.02
0.3	0.0114	0.907	0.02
0.3	0.0201	0.883	0.021
0.3	0.0256	0.871	0.021
0.3	0.031	0.861	0.021
0.3	0.0353	0.854	0.021
0.3	0.0411	0.846	0.021
0.3	0.0444	0.842	0.021
0.3	0.0471	0.838	0.021
0.3	0.0511	0.833	0.021
0.3	0.0536	0.831	0.021
0.3	0.0569	0.827	0.021
0.3	0.0618	0.822	0.021
0.3	0.0751	0.81	0.022
0.3	0.1214	0.78	0.022
0.3	0.1588	0.763	0.022
0.3	0.2156	0.743	0.022
0.3	0.2276	0.739	0.022
0.4	0.00129	0.935	0.02
0.4	0.00483	0.907	0.021
0.4	0.006	0.883	0.021
0.4	0.00755	0.871	0.021
0.4	0.00893	0.861	0.021
0.4	0.0102	0.854	0.021
0.4	0.013	0.846	0.021
0.4	0.0168	0.842	0.021
0.4	0.0221	0.838	0.021
0.4	0.028	0.833	0.021
0.4	0.034	0.831	0.021
0.4	0.0422	0.827	0.021
0.4	0.0574	0.822	0.021
0.4	0.0694	0.81	0.022
0.4	0.0908	0.78	0.022
0.4	0.1282	0.763	0.022
0.4	0.16	0.743	0.022
0.4	0.1765	0.739	0.022
0.5	0.00117	0.971	0.02
0.5	0.00281	0.955	0.02
0.5	0.0046	0.944	0.02
0.5	0.00688	0.932	0.02
0.5	0.0095	0.922	0.02
0.5	0.0109	0.917	0.02
0.5	0.0135	0.909	0.02
0.5	0.0168	0.9	0.021
0.5	0.0192	0.894	0.021
0.5	0.0216	0.889	0.021
0.5	0.0281	0.877	0.021
0.5	0.0298	0.874	0.021
0.5	0.0315	0.872	0.021
0.5	0.0379	0.863	0.021
0.5	0.041	0.86	0.021
0.5	0.045	0.856	0.021
0.5	0.0546	0.847	0.021
0.5	0.0765	0.831	0.021
0.6	0.00071	0.988	0.02
0.6	0.00125	0.978	0.02
0.6	0.00174	0.972	0.02
0.6	0.00348	0.954	0.02
0.6	0.0041	0.949	0.02
0.6	0.00498	0.943	0.02
0.6	0.00686	0.933	0.02
0.6	0.00756	0.93	0.02
0.6	0.00845	0.926	0.02
0.6	0.0105	0.919	0.02
0.6	0.011	0.917	0.02
0.6	0.0118	0.915	0.02
0.6	0.0144	0.908	0.02
0.6	0.0182	0.899	0.021
0.6	0.0244	0.887	0.021
0.6	0.033	0.869	0.021
0.6	0.0422	0.845	0.021
0.6	0.0586	0.779	0.022
0.7	0.00118	0.997	0.044
0.7	0.00184	0.987	0.043
0.7	0.00296	0.975	0.043
0.7	0.00351	0.97	0.043
0.7	0.00411	0.966	0.042
0.7	0.00538	0.958	0.042
0.7	0.00703	0.95	0.042
0.7	0.00773	0.947	0.042
0.7	0.00856	0.944	0.042
0.7	0.0103	0.939	0.041
0.7	0.0123	0.934	0.041
0.7	0.0137	0.931	0.041
0.7	0.0153	0.928	0.041
0.7	0.0161	0.926	0.041
0.7	0.0174	0.924	0.041
0.7	0.019	0.921	0.041
0.7	0.0207	0.917	0.041
0.7	0.0257	0.906	0.041
0.8	0.0001	0.958	0.028
0.8	0.00215	1.033	0.03
0.8	0.0042	1.022	0.03
0.8	0.00625	1.011	0.029
0.8	0.0083	1.001	0.028
0.8	0.0104	0.992	0.028
0.8	0.0124	0.984	0.028
0.8	0.0145	0.977	0.028
0.8	0.0165	0.97	0.028
0.8	0.0186	0.964	0.028
0.8	0.0206	0.958	0.028
0.8	0.0227	0.953	0.028
0.8	0.0247	0.948	0.028
0.8	0.0268	0.943	0.028
0.8	0.0288	0.938	0.028
0.8	0.0309	0.934	0.028
0.8	0.0329	0.93	0.028
0.8	0.035	0.926	0.028

System: sodium fluoride + water; phases: Liquid
Fixed: Pressure, kPa = 95.7
Fixed: Temperature, K = 298.15
Property: Mean ionic activity coefficient of sodium fluoride (Liquid); method: Calculated from EMF cell potential
Molality, mol/kg of sodium fluoride	Mean ionic activity coefficient of sodium fluoride	uncertainty
0.00595	0.923	0.02
0.0193	0.869	0.021
0.0363	0.831	0.021
0.0692	0.786	0.022
0.1072	0.752	0.022
0.1998	0.703	0.023
0.245	0.687	0.023
0.3023	0.67	0.023
0.349	0.658	0.023
0.4057	0.646	0.023
0.528	0.626	0.024
0.6406	0.61	0.024
0.7	0.603	0.024
0.7637	0.596	0.024
0.802	0.592	0.024
0.849	0.587	0.024
0.915	0.581	0.024
0.977	0.575	0.024
