Measured thermophysical data. Liquid-liquid equilibrium of (water + 1-propanol + 1-pentanol) system at 298.15 and 323.15 K
Source: Fluid Phase Equilib., 2010, 10.1016/j.fluid.2010.02.026
Compound 1: propan-1-ol, C3H8O, InChI=1S/C3H8O/c1-2-3-4/h4H,2-3H2,1H3, purity 98%
Compound 2: pentan-1-ol, C5H12O, InChI=1S/C5H12O/c1-2-3-4-5-6/h6H,2-5H2,1H3, purity 99%
Compound 3: water, H2O, InChI=1S/H2O/h1H2, purity 99.8%

System: pentan-1-ol + water; phases: Liquid mixture 1, Liquid mixture 2
Fixed: Pressure, kPa = 500
Property: Mole fraction of pentan-1-ol (Liquid mixture 1); method: Chromatography
Temperature, K	Mole fraction of pentan-1-ol	uncertainty
298.15	0.004	0.0002
323.15	0.0036	0.0002

System: propan-1-ol + pentan-1-ol + water; phases: Liquid mixture 2, Liquid mixture 1
Fixed: Pressure, kPa = 500
Property: Mole fraction of propan-1-ol (Liquid mixture 2); method: Chromatography
Property: Mole fraction of propan-1-ol (Liquid mixture 1); method: Chromatography
Property: Mole fraction of water (Liquid mixture 1); method: Chromatography
Temperature, K	Mole fraction of water	Mole fraction of propan-1-ol	uncertainty	Mole fraction of propan-1-ol	uncertainty	Mole fraction of water	uncertainty
298.15	0.378	0.086	0.036	0.0076	0.0076	0.988	
298.15	0.415	0.161	0.036	0.0159	0.0159	0.98	
298.15	0.468	0.227	0.018	0.0255	0.0255	0.971	
298.15	0.351	0.014	0.014	0.001	0.001	0.994	
298.15	0.406	0.146	0.034	0.0142	0.0142	0.982	
298.15	0.439	0.197	0.018	0.0208	0.0208	0.975	
298.15	0.426	0.188	0.026	0.0192	0.0192	0.977	
298.15	0.505	0.252	0.029	0.0316	0.0316	0.965	
323.15	0.526	0.247	0.013	0.0278	0.0278	0.969	
323.15	0.365	0.011	0.011	0.0007	0.0007	0.989	
323.15	0.381	0.066	0.023	0.0046	0.0046	0.992	
323.15	0.464	0.169	0.04	0.0144	0.0144	0.982	
323.15	0.425	0.111	0.022	0.0082	0.0082	0.988	
323.15	0.474	0.226	0.108	0.0215	0.0215	0.975	
