Measured thermophysical data. Densities and ultrasonic studies for binary mixtures of tetrahydrofuran with chlorobenzenes, chlorotoluenes and nitrotoluenes at 298.15 K
Source: Fluid Phase Equilib., 2011, 10.1016/j.fluid.2011.07.018
Compound 1: tetrahydrofuran, C4H8O, InChI=1S/C4H8O/c1-2-4-5-3-1/h1-4H2
Compound 2: 1,2-dichlorobenzene, C6H4Cl2, InChI=1S/C6H4Cl2/c7-5-3-1-2-4-6(5)8/h1-4H
Compound 3: 1,3-dichlorobenzene, C6H4Cl2, InChI=1S/C6H4Cl2/c7-5-2-1-3-6(8)4-5/h1-4H
Compound 4: 1,2,4-trichlorobenzene, C6H3Cl3, InChI=1S/C6H3Cl3/c7-4-1-2-5(8)6(9)3-4/h1-3H
Compound 5: 2-chlorotoluene, C7H7Cl, InChI=1S/C7H7Cl/c1-6-4-2-3-5-7(6)8/h2-5H,1H3
Compound 6: 3-chlorotoluene, C7H7Cl, InChI=1S/C7H7Cl/c1-6-3-2-4-7(8)5-6/h2-5H,1H3
Compound 7: 4-chlorotoluene, C7H7Cl, InChI=1S/C7H7Cl/c1-6-2-4-7(8)5-3-6/h2-5H,1H3
Compound 8: 2-nitrotoluene, C7H7NO2, InChI=1S/C7H7NO2/c1-6-4-2-3-5-7(6)8(9)10/h2-5H,1H3
Compound 9: 3-nitrotoluene, C7H7NO2, InChI=1S/C7H7NO2/c1-6-3-2-4-7(5-6)8(9)10/h2-5H,1H3

System: 1,2-dichlorobenzene + tetrahydrofuran; phases: Liquid
Fixed: Pressure, kPa = 101
Fixed: Temperature, K = 298.15
Property: Speed of sound, m/s (Liquid); method: Linear variable-path acoustic interferometer
Mole fraction of tetrahydrofuran	Speed of sound, m/s	uncertainty
0	1269	3
0.0327	1274	3
0.155	1290	3
0.3046	1305	3
0.4457	1307	3
0.5709	1304	3
0.6161	1299	3
0.6885	1295	3
0.7973	1283	3
0.8425	1278	3
0.8852	1274	3
0.9451	1272	3
1	1270	3

System: 1,2-dichlorobenzene + tetrahydrofuran; phases: Liquid
Fixed: Pressure, kPa = 101
Fixed: Temperature, K = 298.15
Property: Mass density, kg/m3 (Liquid); method: Vibrating tube method
Mole fraction of tetrahydrofuran	Mass density, kg/m3	uncertainty
0	1300.35	1.52
0.0327	1288.55	1.53
0.155	1244.23	1.43
0.3046	1189.35	1.3
0.4457	1135.03	1.19
0.5709	1084.3	1.09
0.6161	1065.67	1.06
0.6885	1034.31	1.01
0.7973	984.99	0.94
0.8425	963.65	0.93
0.8852	942.63	0.92
0.9451	911.72	0.91
1	882.09	0.71

System: 1,2-dichlorobenzene + tetrahydrofuran; phases: Liquid
Fixed: Pressure, kPa = 101
Fixed: Temperature, K = 298.15
Property: Excess molar volume, m3/mol (Liquid); method: Calculated with densities of this investigation
Mole fraction of tetrahydrofuran	Excess molar volume, m3/mol	uncertainty
0	0	9e-09
0.0327	1.58e-07	1e-08
0.155	6.2e-07	1.1e-08
0.3046	9.03e-07	1.1e-08
0.4457	1.007e-06	1.1e-08
0.5709	9.61e-07	1.1e-08
0.6161	8.8e-07	1.1e-08
0.6885	7.74e-07	1.1e-08
0.7973	5.27e-07	1e-08
0.8425	3.91e-07	1e-08
0.8852	2.77e-07	1e-08
0.9451	1.34e-07	1e-08
1	0	9e-09

System: tetrahydrofuran + 1,3-dichlorobenzene; phases: Liquid
Fixed: Pressure, kPa = 101
Fixed: Temperature, K = 298.15
Property: Speed of sound, m/s (Liquid); method: Linear variable-path acoustic interferometer
Mole fraction of tetrahydrofuran	Speed of sound, m/s	uncertainty
0	1257	2
0.0332	1259	3
0.1432	1272	3
0.272	1276	3
0.3809	1277	3
0.5198	1276	3
0.6244	1275	3
0.696	1274	3
0.8044	1270	3
0.845	1265	3
0.8852	1265	3
0.942	1266	3
1	1270	3

System: tetrahydrofuran + 1,3-dichlorobenzene; phases: Liquid
Fixed: Pressure, kPa = 101
Fixed: Temperature, K = 298.15
Property: Mass density, kg/m3 (Liquid); method: Vibrating tube method
Mole fraction of tetrahydrofuran	Mass density, kg/m3	uncertainty
0	1282.82	1.47
0.0332	1272.22	1.48
0.1432	1234.54	1.4
0.272	1189.62	1.3
0.3809	1150.84	1.22
0.5198	1099.15	1.11
0.6244	1057.78	1.04
0.696	1027.92	1
0.8044	980.28	0.93
0.845	961.47	0.93
0.8852	941.79	0.92
0.942	912.92	0.9
1	882.09	0.71

System: tetrahydrofuran + 1,3-dichlorobenzene; phases: Liquid
Fixed: Pressure, kPa = 101
Fixed: Temperature, K = 298.15
Property: Excess molar volume, m3/mol (Liquid); method: Calculated with densities of this investigation
Mole fraction of tetrahydrofuran	Excess molar volume, m3/mol	uncertainty
0	0	9e-09
0.0332	9e-08	1e-08
0.1432	4.97e-07	1.1e-08
0.272	7.87e-07	1.1e-08
0.3809	8.64e-07	1.1e-08
0.5198	8.03e-07	1.1e-08
0.6244	6.78e-07	1.1e-08
0.696	5.66e-07	1e-08
0.8044	3.3e-07	1e-08
0.845	2.33e-07	1e-08
0.8852	1.76e-07	1e-08
0.942	9.2e-08	1e-08
1	0	9e-09

System: tetrahydrofuran + 1,2,4-trichlorobenzene; phases: Liquid
Fixed: Pressure, kPa = 101
Fixed: Temperature, K = 298.15
Property: Speed of sound, m/s (Liquid); method: Linear variable-path acoustic interferometer
Mole fraction of tetrahydrofuran	Speed of sound, m/s	uncertainty
0	1272	3
0.0358	1303	3
0.1451	1326	3
0.2456	1346	3
0.3483	1355	3
0.4617	1352	3
0.6012	1339	3
0.7076	1327	3
0.7639	1320	3
0.8162	1313	3
0.8743	1305	3
0.9351	1300	3
0.9642	1298	3
1	1270	3

System: tetrahydrofuran + 1,2,4-trichlorobenzene; phases: Liquid
Fixed: Pressure, kPa = 101
Fixed: Temperature, K = 298.15
Property: Mass density, kg/m3 (Liquid); method: Vibrating tube method
Mole fraction of tetrahydrofuran	Mass density, kg/m3	uncertainty
0	1447.66	1.9
0.0358	1431.9	1.91
0.1451	1382.41	1.79
0.2456	1334.05	1.67
0.3483	1282.95	1.56
0.4617	1224.12	1.43
0.6012	1147.15	1.29
0.7076	1083.62	1.18
0.7639	1048.78	1.13
0.8162	1014.57	1.1
0.8743	975.21	1.07
0.9351	931.35	1.05
0.9642	909.82	1.06
1	882.09	0.71

System: tetrahydrofuran + 1,2,4-trichlorobenzene; phases: Liquid
Fixed: Pressure, kPa = 101
Fixed: Temperature, K = 298.15
Property: Excess molar volume, m3/mol (Liquid); method: Calculated with densities of this investigation
Mole fraction of tetrahydrofuran	Excess molar volume, m3/mol	uncertainty
0	0	9e-09
0.0358	2.06e-07	1.1e-08
0.1451	7.64e-07	1.2e-08
0.2456	1.25e-06	1.2e-08
0.3483	1.59e-06	1.2e-08
0.4617	1.775e-06	1.2e-08
0.6012	1.738e-06	1.2e-08
0.7076	1.554e-06	1.2e-08
0.7639	1.329e-06	1.2e-08
0.8162	1.121e-06	1.2e-08
0.8743	8.08e-07	1.2e-08
0.9351	4.66e-07	1.2e-08
0.9642	2.5e-07	1.2e-08
1	0	9e-09

System: 2-chlorotoluene + tetrahydrofuran; phases: Liquid
Fixed: Pressure, kPa = 101
Fixed: Temperature, K = 298.15
Property: Speed of sound, m/s (Liquid); method: Linear variable-path acoustic interferometer
Mole fraction of tetrahydrofuran	Speed of sound, m/s	uncertainty
0	1295	3
0.1234	1324	3
0.264	1345	3
0.3444	1347	3
0.4669	1348	3
0.5809	1343	3
0.7119	1331	3
0.7706	1326	3
0.8264	1318	3
0.8858	1310	3
0.9564	1298	3
1	1270	3

System: 2-chlorotoluene + tetrahydrofuran; phases: Liquid
Fixed: Pressure, kPa = 101
Fixed: Temperature, K = 298.15
Property: Mass density, kg/m3 (Liquid); method: Vibrating tube method
Mole fraction of tetrahydrofuran	Mass density, kg/m3	uncertainty
0	1077.63	1
0.1234	1057.75	0.97
0.264	1034.49	0.93
0.3444	1020.53	0.9
0.4669	998.27	0.86
0.5809	976.32	0.84
0.7119	949.73	0.81
0.7706	937.14	0.8
0.8264	924.69	0.79
0.8858	910.9	0.78
0.9564	893.59	0.76
1	882.09	0.71

System: 2-chlorotoluene + tetrahydrofuran; phases: Liquid
Fixed: Pressure, kPa = 101
Fixed: Temperature, K = 298.15
Property: Excess molar volume, m3/mol (Liquid); method: Calculated with densities of this investigation
Mole fraction of tetrahydrofuran	Excess molar volume, m3/mol	uncertainty
0	0	9e-09
0.1234	2.6e-07	1e-08
0.264	4.26e-07	1e-08
0.3444	4.9e-07	1e-08
0.4669	5.36e-07	1e-08
0.5809	5.25e-07	1e-08
0.7119	4.13e-07	1e-08
0.7706	3.39e-07	1e-08
0.8264	2.6e-07	1e-08
0.8858	1.65e-07	1e-08
0.9564	4.8e-08	9e-09
1	0	9e-09

System: 3-chlorotoluene + tetrahydrofuran; phases: Liquid
Fixed: Pressure, kPa = 101
Fixed: Temperature, K = 298.15
Property: Speed of sound, m/s (Liquid); method: Linear variable-path acoustic interferometer
Mole fraction of tetrahydrofuran	Speed of sound, m/s	uncertainty
0	1279	3
0.0662	1293	3
0.1944	1313	3
0.2787	1319	3
0.3891	1324	3
0.5228	1325	3
0.6399	1320	3
0.7368	1313	3
0.7972	1307	3
0.8601	1300	3
0.9208	1290	3
0.945	1287	3
0.9739	1282	3
1	1270	3

System: 3-chlorotoluene + tetrahydrofuran; phases: Liquid
Fixed: Pressure, kPa = 101
Fixed: Temperature, K = 298.15
Property: Mass density, kg/m3 (Liquid); method: Vibrating tube method
Mole fraction of tetrahydrofuran	Mass density, kg/m3	uncertainty
0	1066.01	0.98
0.0662	1055.82	0.97
0.1944	1036.15	0.93
0.2787	1022.98	0.9
0.3891	1004.96	0.87
0.5228	981.71	0.84
0.6399	960.03	0.82
0.7368	941.06	0.8
0.7972	928.35	0.79
0.8601	914.63	0.77
0.9208	900.75	0.76
0.945	895.28	0.76
0.9739	888.4	0.75
1	882.09	0.71

System: 3-chlorotoluene + tetrahydrofuran; phases: Liquid
Fixed: Pressure, kPa = 101
Fixed: Temperature, K = 298.15
Property: Excess molar volume, m3/mol (Liquid); method: Calculated with densities of this investigation
Mole fraction of tetrahydrofuran	Excess molar volume, m3/mol	uncertainty
0	0	9e-09
0.0662	1.79e-07	1e-08
0.1944	3.94e-07	1e-08
0.2787	4.65e-07	1e-08
0.3891	5.18e-07	1e-08
0.5228	5.29e-07	1e-08
0.6399	4.73e-07	1e-08
0.7368	3.75e-07	1e-08
0.7972	3.23e-07	1e-08
0.8601	2.48e-07	1e-08
0.9208	1.66e-07	1e-08
0.945	1.07e-07	1e-08
0.9739	5.4e-08	1e-08
1	0	9e-09

System: 4-chlorotoluene + tetrahydrofuran; phases: Liquid
Fixed: Pressure, kPa = 101
Fixed: Temperature, K = 298.15
Property: Speed of sound, m/s (Liquid); method: Linear variable-path acoustic interferometer
Mole fraction of tetrahydrofuran	Speed of sound, m/s	uncertainty
0	1296	3
0.0653	1305	3
0.168	1308	3
0.3251	1308	3
0.4558	1304	3
0.5489	1301	3
0.6335	1296	3
0.7021	1293	3
0.7609	1288	3
0.8226	1284	3
0.906	1280	3
0.941	1277	3
1	1270	3

System: 4-chlorotoluene + tetrahydrofuran; phases: Liquid
Fixed: Pressure, kPa = 101
Fixed: Temperature, K = 298.15
Property: Mass density, kg/m3 (Liquid); method: Vibrating tube method
Mole fraction of tetrahydrofuran	Mass density, kg/m3	uncertainty
0	1064.21	0.97
0.0653	1054.92	0.96
0.168	1040.16	0.93
0.3251	1015.77	0.89
0.4558	994.13	0.85
0.5489	977.7	0.83
0.6335	962.01	0.82
0.7021	948.73	0.8
0.7609	936.9	0.79
0.8226	923.96	0.78
0.906	905.08	0.77
0.941	896.99	0.76
1	882.09	0.71

System: 4-chlorotoluene + tetrahydrofuran; phases: Liquid
Fixed: Pressure, kPa = 101
Fixed: Temperature, K = 298.15
Property: Excess molar volume, m3/mol (Liquid); method: Calculated with densities of this investigation
Mole fraction of tetrahydrofuran	Excess molar volume, m3/mol	uncertainty
0	0	9e-09
0.0653	1.04e-07	1e-08
0.168	2.01e-07	1e-08
0.3251	3.31e-07	1e-08
0.4558	3.64e-07	1e-08
0.5489	3.6e-07	1e-08
0.6335	3.29e-07	1e-08
0.7021	2.82e-07	1e-08
0.7609	2.26e-07	1e-08
0.8226	1.56e-07	1e-08
0.906	8.4e-08	9e-09
0.941	3e-08	9e-09
1	0	9e-09

System: 2-nitrotoluene + tetrahydrofuran; phases: Liquid
Fixed: Pressure, kPa = 101
Fixed: Temperature, K = 298.15
Property: Speed of sound, m/s (Liquid); method: Linear variable-path acoustic interferometer
Mole fraction of tetrahydrofuran	Speed of sound, m/s	uncertainty
0	2112	3
0.1021	2120	3
0.2146	2034	3
0.3019	1939	3
0.4211	1791	3
0.4509	1754	3
0.521	1677	3
0.6045	1593	3
0.7211	1495	3
0.8014	1433	3
0.9324	1325	3
1	1270	3

System: 2-nitrotoluene + tetrahydrofuran; phases: Liquid
Fixed: Pressure, kPa = 101
Fixed: Temperature, K = 298.15
Property: Mass density, kg/m3 (Liquid); method: Vibrating tube method
Mole fraction of tetrahydrofuran	Mass density, kg/m3	uncertainty
0	1155.24	1.17
0.1021	1135.24	1.14
0.2146	1111.7	1.1
0.3019	1092.19	1.06
0.4211	1063.58	1
0.4509	1056.04	0.99
0.521	1037.67	0.96
0.6045	1014.59	0.92
0.7211	979.81	0.87
0.8014	953.93	0.86
0.9324	907.94	0.82
1	882.09	0.71

System: 2-nitrotoluene + tetrahydrofuran; phases: Liquid
Fixed: Pressure, kPa = 101
Fixed: Temperature, K = 298.15
Property: Excess molar volume, m3/mol (Liquid); method: Calculated with densities of this investigation
Mole fraction of tetrahydrofuran	Excess molar volume, m3/mol	uncertainty
0	0	9e-09
0.1021	1.6e-08	9e-09
0.2146	2.8e-08	9e-09
0.3019	3.6e-08	9e-09
0.4211	4.8e-08	9e-09
0.4509	5.1e-08	9e-09
0.521	5.6e-08	9e-09
0.6045	5.4e-08	9e-09
0.7211	4.8e-08	9e-09
0.8014	4.1e-08	9e-09
0.9324	1.5e-08	9e-09
1	0	9e-09

System: 3-nitrotoluene + tetrahydrofuran; phases: Liquid
Fixed: Pressure, kPa = 101
Fixed: Temperature, K = 298.15
Property: Speed of sound, m/s (Liquid); method: Linear variable-path acoustic interferometer
Mole fraction of tetrahydrofuran	Speed of sound, m/s	uncertainty
0	2100	3
0.0914	2093	3
0.1522	2029	3
0.2026	1969	3
0.3146	1847	3
0.4209	1719	3
0.5476	1588	3
0.6024	1542	3
0.7519	1438	3
0.8415	1380	3
0.9324	1321	3
1	1270	3

System: 3-nitrotoluene + tetrahydrofuran; phases: Liquid
Fixed: Pressure, kPa = 101
Fixed: Temperature, K = 298.15
Property: Mass density, kg/m3 (Liquid); method: Vibrating tube method
Mole fraction of tetrahydrofuran	Mass density, kg/m3	uncertainty
0	1149.67	1.16
0.0914	1132.22	1.14
0.1522	1120.11	1.11
0.2026	1109.64	1.09
0.3146	1085.13	1.04
0.4209	1060.02	0.99
0.5476	1027.61	0.93
0.6024	1012.66	0.91
0.7519	968.47	0.86
0.8415	939.33	0.84
0.9324	907.47	0.82
1	882.09	0.71

System: 3-nitrotoluene + tetrahydrofuran; phases: Liquid
Fixed: Pressure, kPa = 101
Fixed: Temperature, K = 298.15
Property: Excess molar volume, m3/mol (Liquid); method: Calculated with densities of this investigation
Mole fraction of tetrahydrofuran	Excess molar volume, m3/mol	uncertainty
0	0	9e-09
0.0914	1.9e-08	9e-09
0.1522	2.4e-08	9e-09
0.2026	3.5e-08	9e-09
0.3146	5e-08	9e-09
0.4209	6.6e-08	9e-09
0.5476	7e-08	9e-09
0.6024	6.7e-08	9e-09
0.7519	5.4e-08	9e-09
0.8415	4.1e-08	9e-09
0.9324	2e-08	9e-09
1	0	9e-09
