Measured thermophysical data. Salt effect on liquid-liquid equilibria of tetrahydrofuran/water/5-hydroxymethylfurfural systems
Source: Fluid Phase Equilib., 2019, 10.1016/j.fluid.2019.04.018
Compound 1: tetrahydrofuran, C4H8O, InChI=1S/C4H8O/c1-2-4-5-3-1/h1-4H2, purity 99.5%
Compound 2: water, H2O, InChI=1S/H2O/h1H2, purity 99.8%
Compound 3: lithium chloride, ClLi, InChI=1S/ClH.Li/h1H;/q;+1/p-1, purity 97%
Compound 4: sodium chloride, ClNa, InChI=1S/ClH.Na/h1H;/q;+1/p-1, purity 99.8%
Compound 5: potassium chloride, ClK, InChI=1S/ClH.K/h1H;/q;+1/p-1, purity 99.8%
Compound 6: 4-methylpentan-2-one, C6H12O, InChI=1S/C6H12O/c1-5(2)4-6(3)7/h5H,4H2,1-3H3, purity 99%
Compound 7: 5-(hydroxymethyl)furan-2-carbaldehyde, C6H6O3, InChI=1S/C6H6O3/c7-3-5-1-2-6(4-8)9-5/h1-3,8H,4H2, purity 99%

System: tetrahydrofuran + water + lithium chloride; phases: Liquid mixture 2, Liquid mixture 1
Fixed: Temperature, K = 303.15
Fixed: Pressure, kPa = 101
Property: Mass fraction of lithium chloride (Liquid mixture 2); method: Chromatography
Property: Mass fraction of tetrahydrofuran (Liquid mixture 1); method: Chromatography
Property: Mass fraction of lithium chloride (Liquid mixture 1); method: Chromatography
Mass fraction of tetrahydrofuran	Mass fraction of lithium chloride	uncertainty	Mass fraction of tetrahydrofuran	uncertainty	Mass fraction of lithium chloride	uncertainty
0.7818	0		0.2251	0.0038	0.032	
0.8694	0		0.205	0.0035	0.0687	
0.9026	0.0001	0.0001	0.2016	0.004	0.0864	
0.9274	0.0001	0.0001	0.1755	0.0041	0.1148	
0.9432	0.0001	0.0001	0.1731	0.0031	0.1269	

System: tetrahydrofuran + water + sodium chloride; phases: Liquid mixture 2, Liquid mixture 1
Fixed: Temperature, K = 303.15
Fixed: Pressure, kPa = 101
Property: Mass fraction of sodium chloride (Liquid mixture 2); method: Chromatography
Property: Mass fraction of sodium chloride (Liquid mixture 1); method: Chromatography
Property: Mass fraction of tetrahydrofuran (Liquid mixture 1); method: Chromatography
Mass fraction of tetrahydrofuran	Mass fraction of sodium chloride	uncertainty	Mass fraction of sodium chloride	uncertainty	Mass fraction of tetrahydrofuran	uncertainty
0.7234	0.0001	0.0001	0.0213	0.0036	0.3732	
0.8916	0.0001	0.0001	0.0505	0.0037	0.2313	
0.9026	0.0001	0.0001	0.0768	0.0038	0.1174	
0.9244	0.0001	0.0001	0.1024	0.0088	0.0646	
0.9531	0.0001	0.0001	0.1169	0.0088	0.0697	

System: tetrahydrofuran + water + potassium chloride; phases: Liquid mixture 2, Liquid mixture 1
Fixed: Temperature, K = 303.15
Fixed: Pressure, kPa = 101
Property: Mass fraction of potassium chloride (Liquid mixture 2); method: Chromatography
Property: Mass fraction of potassium chloride (Liquid mixture 1); method: Chromatography
Property: Mass fraction of tetrahydrofuran (Liquid mixture 1); method: Chromatography
Mass fraction of tetrahydrofuran	Mass fraction of potassium chloride	uncertainty	Mass fraction of potassium chloride	uncertainty	Mass fraction of tetrahydrofuran	uncertainty
0.7297	0.0007	0.0007	0.0192	0.0036	0.4081	
0.8279	0.0009	0.0009	0.0418	0.0037	0.2259	
0.8263	0.0008	0.0008	0.0719	0.0037	0.1659	
0.8987	0.0009	0.0009	0.082	0.0037	0.1018	
0.9282	0.001	0.001	0.097	0.004	0.0758	

System: 4-methylpentan-2-one + 5-(hydroxymethyl)furan-2-carbaldehyde + water; phases: Liquid mixture 2, Liquid mixture 1
Fixed: Temperature, K = 298.15
Fixed: Pressure, kPa = 101
Property: Mass fraction of 4-methylpentan-2-one (Liquid mixture 2); method: Chromatography
Property: Mass fraction of 4-methylpentan-2-one (Liquid mixture 1); method: Chromatography
Property: Mass fraction of 5-(hydroxymethyl)furan-2-carbaldehyde (Liquid mixture 1); method: Chromatography
Mass fraction of 5-(hydroxymethyl)furan-2-carbaldehyde	Mass fraction of 4-methylpentan-2-one	uncertainty	Mass fraction of 4-methylpentan-2-one	uncertainty	Mass fraction of 5-(hydroxymethyl)furan-2-carbaldehyde	uncertainty
0.0142	0.957	0.0004	0.0202	0.0002	0.0118	
0.0287	0.9407	0.0006	0.0208	0.0002	0.0236	
0.0429	0.9246	0.0008	0.0221	0.0002	0.0353	
0.0575	0.908	0.0009	0.0227	0.0002	0.0468	
0.0721	0.891	0.0011	0.0235	0.0002	0.0576	
0.0872	0.8739	0.0013	0.0246	0.0003	0.0689	
0.1027	0.8564	0.0014	0.0258	0.0003	0.0793	
