Measured thermophysical data. Experimental investigation and thermodynamic assessment of the RbCl-CsCl-ZnCl2 system and its subsystems
Source: Fluid Phase Equilib., 2019, 10.1016/j.fluid.2019.01.011
Compound 1: rubidium chloride, ClRb, InChI=1S/ClH.Rb/h1H;/q;+1/p-1, purity 99.95%
Compound 2: cesium chloride, ClCs, InChI=1S/ClH.Cs/h1H;/q;+1/p-1, purity 99.95%
Compound 3: zinc chloride, Cl2Zn, InChI=1S/2ClH.Zn/h2*1H;/q;;+2/p-2, purity 99.95%

System: cesium chloride; phases: Crystal, Liquid, Air at 1 atmosphere
Property: Triple point temperature, K (Crystal); method: DSC
Triple point temperature, K	uncertainty
918	10

System: zinc chloride; phases: Crystal, Liquid, Air at 1 atmosphere
Property: Triple point temperature, K (Crystal); method: DSC
Triple point temperature, K	uncertainty
587	10

System: rubidium chloride + zinc chloride; phases: Liquid, Crystal, Crystal of intercomponent compound 1, Air at 1 atmosphere
Property: Eutectic temperature, K (Liquid); method: DTA
Eutectic temperature, K	uncertainty
777	10

System: rubidium chloride + zinc chloride; phases: Liquid, Crystal of intercomponent compound 1, Crystal of intercomponent compound 2, Air at 1 atmosphere
Property: Eutectic temperature, K (Liquid); method: DTA
Eutectic temperature, K	uncertainty
522	10

System: rubidium chloride + zinc chloride; phases: Liquid, Crystal of intercomponent compound 2, Crystal, Air at 1 atmosphere
Property: Eutectic temperature, K (Liquid); method: DTA
Eutectic temperature, K	uncertainty
553	10

System: rubidium chloride + zinc chloride; phases: Liquid, Crystal, Crystal of intercomponent compound 1, Air at 1 atmosphere
Property: Eutectic composition: mole fraction of zinc chloride (Liquid); method: X-ray diffraction
Eutectic composition: mole fraction of zinc chloride	uncertainty
0.247	0.003

System: rubidium chloride + zinc chloride; phases: Liquid, Crystal of intercomponent compound 2, Crystal of intercomponent compound 1, Air at 1 atmosphere
Property: Eutectic composition: mole fraction of zinc chloride (Liquid); method: X-ray diffraction
Eutectic composition: mole fraction of zinc chloride	uncertainty
0.53	0.005

System: rubidium chloride + zinc chloride; phases: Liquid, Crystal of intercomponent compound 2, Crystal, Air at 1 atmosphere
Property: Eutectic composition: mole fraction of zinc chloride (Liquid); method: X-ray diffraction
Eutectic composition: mole fraction of zinc chloride	uncertainty
0.83	0.002

System: rubidium chloride + zinc chloride; phases: Liquid, Crystal
Property: Solid-liquid equilibrium temperature, K (Liquid); method: DTA
Mole fraction of zinc chloride	Pressure, kPa	Solid-liquid equilibrium temperature, K	uncertainty
1	101	587	10

System: rubidium chloride + zinc chloride; phases: Liquid, Crystal of intercomponent compound 1
Fixed: Pressure, kPa = 101
Property: Solid-liquid equilibrium temperature, K (Liquid); method: DTA
Mole fraction of zinc chloride	Solid-liquid equilibrium temperature, K	uncertainty
0.9	566	10
0.8	561	10
0.7	575	10

System: rubidium chloride + zinc chloride; phases: Liquid, Crystal of intercomponent compound 2
Property: Solid-liquid equilibrium temperature, K (Liquid); method: DTA
Mole fraction of zinc chloride	Pressure, kPa	Solid-liquid equilibrium temperature, K	uncertainty
0.667	101	581	10

System: rubidium chloride + zinc chloride; phases: Liquid, Crystal of intercomponent compound 3
Fixed: Pressure, kPa = 101
Property: Solid-liquid equilibrium temperature, K (Liquid); method: DTA
Mole fraction of zinc chloride	Solid-liquid equilibrium temperature, K	uncertainty
0.6	567	10
0.5	727	10
0.4	782	10

System: rubidium chloride + zinc chloride; phases: Liquid, Crystal of intercomponent compound 3
Property: Solid-liquid equilibrium temperature, K (Liquid); method: DTA
Mole fraction of zinc chloride	Pressure, kPa	Solid-liquid equilibrium temperature, K	uncertainty
0.333	101	809	10

System: rubidium chloride + zinc chloride; phases: Liquid, Crystal of intercomponent compound 3
Fixed: Pressure, kPa = 101
Property: Solid-liquid equilibrium temperature, K (Liquid); method: DTA
Mole fraction of zinc chloride	Solid-liquid equilibrium temperature, K	uncertainty
0.3	793	10
0.2	878	10
0.1	946	10

System: cesium chloride + zinc chloride; phases: Liquid, Crystal, Crystal of intercomponent compound 1, Air at 1 atmosphere
Property: Eutectic temperature, K (Liquid); method: DTA
Eutectic temperature, K	uncertainty
533	10

System: cesium chloride + zinc chloride; phases: Liquid, Crystal of intercomponent compound 2, Crystal of intercomponent compound 1, Air at 1 atmosphere
Property: Eutectic temperature, K (Liquid); method: DTA
Eutectic temperature, K	uncertainty
532	10

System: cesium chloride + zinc chloride; phases: Liquid, Crystal of intercomponent compound 2, Crystal of intercomponent compound 3, Air at 1 atmosphere
Property: Eutectic temperature, K (Liquid); method: DTA
Eutectic temperature, K	uncertainty
826	10

System: cesium chloride + zinc chloride; phases: Liquid, Crystal, Crystal of intercomponent compound 3, Air at 1 atmosphere
Property: Eutectic temperature, K (Liquid); method: DTA
Eutectic temperature, K	uncertainty
805	10

System: cesium chloride + zinc chloride; phases: Liquid, Crystal, Crystal of intercomponent compound 1, Air at 1 atmosphere
Property: Eutectic composition: mole fraction of zinc chloride (Liquid); method: X-ray diffraction
Eutectic composition: mole fraction of zinc chloride	uncertainty
0.799	0.002

System: cesium chloride + zinc chloride; phases: Liquid, Crystal of intercomponent compound 2, Crystal of intercomponent compound 1, Air at 1 atmosphere
Property: Eutectic composition: mole fraction of zinc chloride (Liquid); method: X-ray diffraction
Eutectic composition: mole fraction of zinc chloride	uncertainty
0.57	0.004

System: cesium chloride + zinc chloride; phases: Liquid, Crystal of intercomponent compound 2, Crystal of intercomponent compound 3, Air at 1 atmosphere
Property: Eutectic composition: mole fraction of zinc chloride (Liquid); method: X-ray diffraction
Eutectic composition: mole fraction of zinc chloride	uncertainty
0.255	0.003

System: cesium chloride + zinc chloride; phases: Liquid, Crystal, Crystal of intercomponent compound 3, Air at 1 atmosphere
Property: Eutectic composition: mole fraction of zinc chloride (Liquid); method: X-ray diffraction
Eutectic composition: mole fraction of zinc chloride	uncertainty
0.175	0.002

System: cesium chloride + zinc chloride; phases: Liquid, Crystal
Property: Solid-liquid equilibrium temperature, K (Liquid); method: DTA
Mole fraction of zinc chloride	Pressure, kPa	Solid-liquid equilibrium temperature, K	uncertainty
1	101	587	10

System: cesium chloride + zinc chloride; phases: Liquid, Crystal of intercomponent compound 1
Fixed: Pressure, kPa = 101
Property: Solid-liquid equilibrium temperature, K (Liquid); method: DTA
Mole fraction of zinc chloride	Solid-liquid equilibrium temperature, K	uncertainty
0.9	566	10
0.7	562	10

System: cesium chloride + zinc chloride; phases: Liquid, Crystal of intercomponent compound 2
Property: Solid-liquid equilibrium temperature, K (Liquid); method: DTA
Mole fraction of zinc chloride	Pressure, kPa	Solid-liquid equilibrium temperature, K	uncertainty
0.667	101	564	10

System: cesium chloride + zinc chloride; phases: Liquid, Crystal of intercomponent compound 3
Fixed: Pressure, kPa = 101
Property: Solid-liquid equilibrium temperature, K (Liquid); method: DTA
Mole fraction of zinc chloride	Solid-liquid equilibrium temperature, K	uncertainty
0.6	545	10
0.5	686	10
0.45	741	10
0.35	862	10

System: cesium chloride + zinc chloride; phases: Liquid, Crystal of intercomponent compound 3
Property: Solid-liquid equilibrium temperature, K (Liquid); method: DTA
Mole fraction of zinc chloride	Pressure, kPa	Solid-liquid equilibrium temperature, K	uncertainty
0.333	101	866	10

System: cesium chloride + zinc chloride; phases: Liquid, Crystal of intercomponent compound 3
Fixed: Pressure, kPa = 101
Property: Solid-liquid equilibrium temperature, K (Liquid); method: DTA
Mole fraction of zinc chloride	Solid-liquid equilibrium temperature, K	uncertainty
0.3	855	10
0.27	846	10

System: cesium chloride + zinc chloride; phases: Liquid, Crystal of intercomponent compound 3
Property: Solid-liquid equilibrium temperature, K (Liquid); method: DTA
Mole fraction of zinc chloride	Pressure, kPa	Solid-liquid equilibrium temperature, K	uncertainty
0.25	101	833	10

System: cesium chloride + zinc chloride; phases: Liquid, Crystal of intercomponent compound 3
Fixed: Pressure, kPa = 101
Property: Solid-liquid equilibrium temperature, K (Liquid); method: DTA
Mole fraction of zinc chloride	Solid-liquid equilibrium temperature, K	uncertainty
0.2	821	10
0.1	866	10

System: cesium chloride + zinc chloride; phases: Liquid, Crystal
Property: Solid-liquid equilibrium temperature, K (Liquid); method: DTA
Mole fraction of zinc chloride	Pressure, kPa	Solid-liquid equilibrium temperature, K	uncertainty
0	101	918	10
