Measured thermophysical data. Fractionation of orange essential oil using liquid-liquid extraction: Equilibrium data for model and real systems at 298.2 K.
Source: Fluid Phase Equilib., 2015, 10.1016/j.fluid.2015.04.022
Compound 1: (R)-1-methyl-4-(1-methylethenyl)cyclohexene, C10H16, InChI=1S/C10H16/c1-8(2)10-6-4-9(3)5-7-10/h4,10H,1,5-7H2,2-3H3/t10-/m0/s1, purity 98.81%
Compound 2: 3,7-dimethyl-1,6-octadien-3-ol, C10H18O, InChI=1S/C10H18O/c1-5-10(4,11)8-6-7-9(2)3/h5,7,11H,1,6,8H2,2-4H3, purity 99.19%
Compound 3: ethanol, C2H6O, InChI=1S/C2H6O/c1-2-3/h3H,2H2,1H3, purity 99.8%
Compound 4: water, H2O, InChI=1S/H2O/h1H2, purity 99.8%

System: (R)-1-methyl-4-(1-methylethenyl)cyclohexene; phases: Liquid
Property: Mass density, kg/m3 (Liquid); method: Vibrating tube method
Temperature, K	Pressure, kPa	Mass density, kg/m3	uncertainty
298.2	101.325	841.35	0.36

System: (R)-1-methyl-4-(1-methylethenyl)cyclohexene; phases: Liquid
Property: Viscosity, Pa*s (Liquid); method: Falling or rolling sphere viscometry
Temperature, K	Pressure, kPa	Viscosity, Pa*s	uncertainty
298.2	101.325	0.00092	0.00012

System: 3,7-dimethyl-1,6-octadien-3-ol; phases: Liquid
Property: Mass density, kg/m3 (Liquid); method: Vibrating tube method
Temperature, K	Pressure, kPa	Mass density, kg/m3	uncertainty
298.2	101.325	857.38	0.28

System: 3,7-dimethyl-1,6-octadien-3-ol; phases: Liquid
Property: Viscosity, Pa*s (Liquid); method: Falling or rolling sphere viscometry
Temperature, K	Pressure, kPa	Viscosity, Pa*s	uncertainty
298.2	101.325	0.00457	0.00013

System: (R)-1-methyl-4-(1-methylethenyl)cyclohexene + ethanol + water; phases: Liquid mixture 2, Liquid mixture 1
Fixed: Temperature, K = 298.2
Fixed: Pressure, kPa = 101
Property: Mass fraction of (R)-1-methyl-4-(1-methylethenyl)cyclohexene (Liquid mixture 2); method: Chromatography
Property: Mass fraction of ethanol (Liquid mixture 1); method: Chromatography
Property: Mass fraction of (R)-1-methyl-4-(1-methylethenyl)cyclohexene (Liquid mixture 1); method: Chromatography
Mass fraction of ethanol	Mass fraction of (R)-1-methyl-4-(1-methylethenyl)cyclohexene	uncertainty	Mass fraction of ethanol	uncertainty	Mass fraction of (R)-1-methyl-4-(1-methylethenyl)cyclohexene	uncertainty
0.712	0.058	0.01	0.035	0.01	0.962	
0.713	0.057	0.01	0.036	0.01	0.962	
0.655	0.03	0.01	0.025	0.01	0.973	
0.661	0.015	0.01	0.025	0.01	0.972	
0.549	0.008	0.008	0.019	0.01	0.979	
0.569	0.01	0.01	0.02	0.01	0.979	
