Measured thermophysical data. Liquid-liquid equilibrium for the ternary system water + 2-methyl-1-propanol + butyl acetate and water + 2-methyl-2-propanol + butyl acetate at (298.15 and 323.15) K
Source: Fluid Phase Equilib., 2014, 10.1016/j.fluid.2014.08.014
Compound 1: ethanol, C2H6O, InChI=1S/C2H6O/c1-2-3/h3H,2H2,1H3, purity 99.7%
Compound 2: 2-methyl-1-propanol, C4H10O, InChI=1S/C4H10O/c1-4(2)3-5/h4-5H,3H2,1-2H3, purity 99%
Compound 3: 2-methylpropan-2-ol, C4H10O, InChI=1S/C4H10O/c1-4(2,3)5/h5H,1-3H3, purity 99%
Compound 4: butyl ethanoate, C6H12O2, InChI=1S/C6H12O2/c1-3-4-5-8-6(2)7/h3-5H2,1-2H3, purity 99.1%
Compound 5: water, H2O, InChI=1S/H2O/h1H2, purity 99.9%

System: ethanol; phases: Liquid
Property: Refractive index (Na D-line) (Liquid); method: Standard Abbe refractometry
Temperature, K	Pressure, kPa	Refractive index (Na D-line)	uncertainty
293.15	101.325	1.3616	0.0005

System: 2-methyl-1-propanol; phases: Liquid
Property: Refractive index (Na D-line) (Liquid); method: Standard Abbe refractometry
Temperature, K	Pressure, kPa	Refractive index (Na D-line)	uncertainty
293.15	101.325	1.3955	0.0005

System: 2-methylpropan-2-ol; phases: Liquid
Property: Refractive index (Na D-line) (Liquid); method: Standard Abbe refractometry
Temperature, K	Pressure, kPa	Refractive index (Na D-line)	uncertainty
293.15	101.325	1.3881	0.0005

System: butyl ethanoate; phases: Liquid
Property: Refractive index (Na D-line) (Liquid); method: Standard Abbe refractometry
Temperature, K	Pressure, kPa	Refractive index (Na D-line)	uncertainty
293.15	101.325	1.3951	0.0005

System: water; phases: Liquid
Property: Refractive index (Na D-line) (Liquid); method: Standard Abbe refractometry
Temperature, K	Pressure, kPa	Refractive index (Na D-line)	uncertainty
293.15	101.325	1.3328	0.0005

System: 2-methyl-1-propanol + butyl ethanoate + water; phases: Liquid mixture 2, Liquid mixture 1
Fixed: Pressure, kPa = 101.3
Property: Mole fraction of butyl ethanoate (Liquid mixture 2); method: Chromatography
Property: Mole fraction of water (Liquid mixture 1); method: Chromatography
Property: Mole fraction of butyl ethanoate (Liquid mixture 1); method: Chromatography
Temperature, K	Mole fraction of water	Mole fraction of butyl ethanoate	uncertainty	Mole fraction of water	uncertainty	Mole fraction of butyl ethanoate	uncertainty
298.15	0.9992	0.0008	0.0002	0.1258	0.001	0.8742	
298.15	0.9978	0.0005	0.0002	0.1703	0.0013	0.7537	
298.15	0.9966	0.0005	0.0002	0.2211	0.0017	0.6224	
298.15	0.9952	0.0004	0.0002	0.2625	0.002	0.5131	
298.15	0.9948	0.0004	0.0002	0.285	0.0022	0.4587	
298.15	0.9942	0.0004	0.0002	0.3153	0.0024	0.3825	
298.15	0.9937	0.0004	0.0002	0.3355	0.0026	0.3219	
298.15	0.99344	0.0004	0.0002	0.3656	0.0028	0.252	
298.15	0.9929	0.0004	0.0002	0.3871	0.003	0.1964	
298.15	0.9924	0.0004	0.0002	0.4073	0.0032	0.1466	
298.15	0.9923	0.0003	0.0002	0.423	0.0033	0.1103	
298.15	0.992	0.0003	0.0002	0.443	0.0034	0.0673	
298.15	0.991	0		0.4779	0.0037	0	
323.15	0.9994	0.0006	0.0002	0.1452	0.0011	0.8548	
323.15	0.998	0.0004	0.0002	0.1889	0.0015	0.7373	
323.15	0.9967	0.0003	0.0002	0.2323	0.0018	0.6204	
323.15	0.9958	0.0003	0.0002	0.2744	0.0021	0.5152	
323.15	0.9953	0.0003	0.0002	0.2942	0.0023	0.4557	
323.15	0.9948	0.0002	0.0002	0.3292	0.0026	0.3765	
323.15	0.9943	0.0002	0.0002	0.3502	0.0027	0.315	
323.15	0.9938	0.0002	0.0002	0.3742	0.0029	0.2515	
323.15	0.9936	0.0002	0.0002	0.4008	0.0031	0.1942	
323.15	0.9932	0.0002	0.0002	0.4277	0.0033	0.134	
323.15	0.9931	0.0002	0.0002	0.4443	0.0034	0.0986	
323.15	0.991	0		0.5008	0.0039	0	

System: 2-methylpropan-2-ol + butyl ethanoate + water; phases: Liquid mixture 2, Liquid mixture 1
Fixed: Pressure, kPa = 101.3
Property: Mole fraction of butyl ethanoate (Liquid mixture 2); method: Chromatography
Property: Mole fraction of butyl ethanoate (Liquid mixture 1); method: Chromatography
Property: Mole fraction of water (Liquid mixture 1); method: Chromatography
Temperature, K	Mole fraction of water	Mole fraction of butyl ethanoate	uncertainty	Mole fraction of butyl ethanoate	uncertainty	Mole fraction of water	uncertainty
298.15	0.9992	0.0008	0.0002	0.8742	0.0011	0.1258	
298.15	0.9936	0.0002	0.0002	0.7553	0.0019	0.1666	
298.15	0.9917	0.0003	0.0002	0.6456	0.0028	0.2495	
298.15	0.9897	0.0004	0.0002	0.5008	0.0039	0.3593	
298.15	0.9872	0.0005	0.0002	0.3797	0.003	0.4544	
298.15	0.9846	0.0006	0.0002	0.3105	0.0024	0.5105	
298.15	0.9828	0.0007	0.0002	0.262	0.002	0.5538	
298.15	0.9796	0.0009	0.0002	0.2067	0.0016	0.6071	
298.15	0.9762	0.0012	0.0002	0.1375	0.0011	0.678	
298.15	0.9734	0.0014	0.0002	0.0939	0.0007	0.7278	
298.15	0.9606	0.0026	0.0002	0.0423	0.0004	0.8327	
323.15	0.9994	0.0006	0.0002	0.8548	0.0013	0.1452	
323.15	0.9948	0.0001	0.0001	0.7529	0.002	0.1785	
323.15	0.9913	0.0002	0.0002	0.6362	0.0028	0.2701	
323.15	0.9875	0.0003	0.0002	0.5014	0.0039	0.3727	
323.15	0.9847	0.0004	0.0002	0.3821	0.003	0.4692	
323.15	0.981	0.0006	0.0002	0.3079	0.0024	0.5267	
323.15	0.9792	0.0007	0.0002	0.2465	0.0019	0.5799	
323.15	0.9761	0.0009	0.0002	0.1927	0.0015	0.6323	
323.15	0.9627	0.0015	0.0002	0.1413	0.0011	0.6872	
323.15	0.9612	0.0018	0.0002	0.0842	0.0007	0.7591	
323.15	0.9441	0.0036	0.0002	0.0451	0.0004	0.8473	
