Measured thermophysical data. Liquid liquid equilibria of imidazolium based ionic  liquid + pyridine + hydrocarbon at 298.15 K: Experiments and correlations
Source: Fluid Phase Equilib., 2012, 10.1016/j.fluid.2012.03.023
Compound 1: 1-ethyl-3-methylimidazolium methanesulfonate, C7H14N2O3S, InChI=1S/C6H11N2.CH4O3S/c1-3-8-5-4-7(2)6-8;1-5(2,3)4/h4-6H,3H2,1-2H3;1H3,(H,2,3,4)/q+1;/p-1, purity 99%
Compound 2: 1-ethyl-3-methylimidazolium ethyl sulfate, C8H16N2O4S, InChI=1S/C6H11N2.C2H6O4S/c1-3-8-5-4-7(2)6-8;1-2-6-7(3,4)5/h4-6H,3H2,1-2H3;2H2,1H3,(H,3,4,5)/q+1;/p-1, purity 99%
Compound 3: 1-ethyl-3-methylimidazolium acetate, C8H14N2O2, InChI=1S/C6H11N2.C2H4O2/c1-3-8-5-4-7(2)6-8;1-2(3)4/h4-6H,3H2,1-2H3;1H3,(H,3,4)/q+1;/p-1, purity 99%
Compound 4: pentane, C5H12, InChI=1S/C5H12/c1-3-5-4-2/h3-5H2,1-2H3, purity 99.9%
Compound 5: 2-methylheptane, C8H18, InChI=1S/C8H18/c1-4-5-6-7-8(2)3/h8H,4-7H2,1-3H3, purity 99.9%
Compound 6: pyridine, C5H5N, InChI=1S/C5H5N/c1-2-4-6-5-3-1/h1-5H, purity 99.9%

System: pentane + pyridine + 1-ethyl-3-methylimidazolium methanesulfonate; phases: Liquid mixture 1, Liquid mixture 2
Fixed: Temperature, K = 298.15
Fixed: Pressure, kPa = 101.3
Property: Mole fraction of pentane (Liquid mixture 1); method: NMR spectrometry
Property: Mole fraction of pentane (Liquid mixture 2); method: NMR spectrometry
Property: Mole fraction of pyridine (Liquid mixture 2); method: NMR spectrometry
Mole fraction of pyridine	Mole fraction of pentane	uncertainty	Mole fraction of pentane	uncertainty	Mole fraction of pyridine	uncertainty
0.0138	0.0371	0.0141	0.9309	0.0198	0.0691	
0.1193	0.0504	0.0141	0.8099	0.0198	0.1901	
0.1998	0.0542	0.014	0.7439	0.0198	0.2561	
0.3229	0.0493	0.014	0.5689	0.0198	0.4311	
0.4696	0.0448	0.014	0.3561	0.0198	0.6439	
0.5217	0.0368	0.0141	0.2023	0.0198	0.7977	
0.5735	0.0297	0.0142	0.1321	0.0198	0.8679	
0.6365	0.0157	0.0143	0.0976	0.0198	0.9024	

System: pyridine + 2-methylheptane + 1-ethyl-3-methylimidazolium methanesulfonate; phases: Liquid mixture 1, Liquid mixture 2
Fixed: Temperature, K = 298.15
Fixed: Pressure, kPa = 101.3
Property: Mole fraction of 2-methylheptane (Liquid mixture 1); method: NMR spectrometry
Property: Mole fraction of 2-methylheptane (Liquid mixture 2); method: NMR spectrometry
Property: Mole fraction of pyridine (Liquid mixture 2); method: NMR spectrometry
Mole fraction of pyridine	Mole fraction of 2-methylheptane	uncertainty	Mole fraction of 2-methylheptane	uncertainty	Mole fraction of pyridine	uncertainty
0.1588	0.2272	0.0153	0.9554	0.0198	0.0446	
0.213	0.2037	0.0156	0.8309	0.0198	0.1691	
0.2755	0.1691	0.0155	0.5994	0.0198	0.4006	
0.4049	0.1114	0.0153	0.5009	0.0198	0.4991	
0.4509	0.093	0.015	0.4475	0.0198	0.5525	
0.5432	0.0581	0.0151	0.3821	0.0198	0.6179	
0.5696	0.0442	0.0158	0.3211	0.0198	0.6789	
0.7048	0.0236	0.0142	0.215	0.0198	0.785	

System: pentane + pyridine + 1-ethyl-3-methylimidazolium ethyl sulfate; phases: Liquid mixture 2, Liquid mixture 1
Fixed: Temperature, K = 298.15
Fixed: Pressure, kPa = 101.3
Property: Mole fraction of pentane (Liquid mixture 2); method: NMR spectrometry
Property: Mole fraction of pentane (Liquid mixture 1); method: NMR spectrometry
Property: Mole fraction of pyridine (Liquid mixture 1); method: NMR spectrometry
Mole fraction of pyridine	Mole fraction of pentane	uncertainty	Mole fraction of pentane	uncertainty	Mole fraction of pyridine	uncertainty
0.264	0.736	0.0198	0.1088	0.0145	0.0564	
0.3387	0.6613	0.0198	0.0952	0.0147	0.1053	
0.4571	0.5429	0.0198	0.0495	0.0145	0.2475	
0.4852	0.5148	0.0198	0.0322	0.0143	0.3539	
0.5594	0.4406	0.0198	0.0101	0.0101	0.4297	
0.6285	0.3715	0.0198	0.0091	0.0091	0.5678	
0.7222	0.2778	0.0198	0.0061	0.0061	0.6329	
0.7663	0.2337	0.0198	0.003	0.003	0.6545	

System: pyridine + 2-methylheptane + 1-ethyl-3-methylimidazolium ethyl sulfate; phases: Liquid mixture 1, Liquid mixture 2
Fixed: Temperature, K = 298.15
Fixed: Pressure, kPa = 101.3
Property: Mole fraction of 2-methylheptane (Liquid mixture 1); method: NMR spectrometry
Property: Mole fraction of 2-methylheptane (Liquid mixture 2); method: NMR spectrometry
Property: Mole fraction of pyridine (Liquid mixture 2); method: NMR spectrometry
Mole fraction of pyridine	Mole fraction of 2-methylheptane	uncertainty	Mole fraction of 2-methylheptane	uncertainty	Mole fraction of pyridine	uncertainty
0.0314	0.0262	0.0157	0.9378	0.0198	0.0622	
0.0585	0.0125	0.0125	0.8785	0.0198	0.1215	
0.0929	0.0112	0.0112	0.8309	0.0198	0.1691	
0.2401	0.0246	0.0141	0.6699	0.0198	0.3301	
0.4065	0.0419	0.014	0.5006	0.0198	0.4994	
0.5324	0.0478	0.014	0.4179	0.0198	0.5821	
0.6673	0.0475	0.014	0.2959	0.0198	0.7041	
0.7441	0.0295	0.0144	0.2208	0.0198	0.7792	

System: pentane + pyridine + 1-ethyl-3-methylimidazolium acetate; phases: Liquid mixture 1, Liquid mixture 2
Fixed: Temperature, K = 298.15
Fixed: Pressure, kPa = 101.3
Property: Mole fraction of pentane (Liquid mixture 1); method: NMR spectrometry
Property: Mole fraction of pentane (Liquid mixture 2); method: NMR spectrometry
Property: Mole fraction of pyridine (Liquid mixture 2); method: NMR spectrometry
Mole fraction of pyridine	Mole fraction of pentane	uncertainty	Mole fraction of pentane	uncertainty	Mole fraction of pyridine	uncertainty
0.1134	0.2386	0.0142	0.9309	0.0198	0.0691	
0.1655	0.23	0.0143	0.8879	0.0198	0.1121	
0.206	0.2204	0.0148	0.8548	0.0198	0.1452	
0.2869	0.1883	0.0154	0.7253	0.0198	0.2747	
0.3674	0.1473	0.0153	0.5425	0.0198	0.4575	
0.4335	0.1232	0.0148	0.4802	0.0198	0.5198	
0.4643	0.1135	0.0148	0.4566	0.0198	0.5434	
0.4945	0.1019	0.015	0.3465	0.0198	0.6535	

System: pyridine + 2-methylheptane + 1-ethyl-3-methylimidazolium acetate; phases: Liquid mixture 1, Liquid mixture 2
Fixed: Temperature, K = 298.15
Fixed: Pressure, kPa = 101.3
Property: Mole fraction of 2-methylheptane (Liquid mixture 1); method: OTHER
Property: Mole fraction of 2-methylheptane (Liquid mixture 2); method: OTHER
Property: Mole fraction of pyridine (Liquid mixture 2); method: OTHER
Mole fraction of pyridine	Mole fraction of 2-methylheptane	uncertainty	Mole fraction of 2-methylheptane	uncertainty	Mole fraction of pyridine	uncertainty
0.0142	0.1842	0.0142	0.8983	0.0198	0.1017	
0.2027	0.156	0.0142	0.6301	0.0198	0.3699	
0.3169	0.1323	0.0145	0.5756	0.0198	0.4244	
0.438	0.0927	0.0144	0.5263	0.0198	0.4737	
0.4682	0.0852	0.0142	0.468	0.0198	0.532	
0.5161	0.0806	0.0142	0.3901	0.0198	0.6099	
0.5754	0.1028	0.0142	0.3211	0.0198	0.6789	
0.661	0.1041	0.014	0.2154	0.0198	0.7846	
