Measured thermophysical data. Volumetric properties of ethanol-water mixtures under high temperatures and pressures
Source: Fluid Phase Equilib., 2005, 10.1016/j.fluid.2004.11.019
Compound 1: water, H2O, InChI=1S/H2O/h1H2
Compound 2: ethanol, C2H6O, InChI=1S/C2H6O/c1-2-3/h3H,2H2,1H3

System: ethanol; phases: Liquid
Property: Mass density, kg/m3 (Liquid); method: VIBTUB:UFactor:2
Temperature, K	Pressure, kPa	Mass density, kg/m3	uncertainty
298.15	100	785.7	0.4
298.15	10000	794	0.4
298.15	20000	801.9	0.6
298.15	30000	808.9	0.7
298.15	40000	815.7	0.8
323.15	100	763.7	0.4
323.15	10000	773.4	0.5
323.15	20000	782.3	0.6
323.15	30000	790.3	0.7
323.15	40000	797.7	0.9
348.15	100	739.4	0.4
348.15	10000	751.2	0.5
348.15	20000	761.2	0.6
348.15	30000	770.3	0.8
348.15	40000	778.6	0.9

System: ethanol + water; phases: Liquid
Property: Mass density, kg/m3 (Liquid); method: VIBTUB:UFactor:2
Temperature, K	Pressure, kPa	Mole fraction of ethanol	Mass density, kg/m3	uncertainty
298.15	100	0.003	995.3	0.2
298.15	100	0.0042	994.5	0.2
298.15	100	0.0082	993	0.2
298.15	100	0.0119	991.5	0.2
298.15	100	0.0158	989.8	0.3
298.15	100	0.0184	988.4	0.2
298.15	100	0.0219	987.6	0.2
298.15	100	0.0255	986	0.3
298.15	100	0.0279	984.7	0.2
298.15	100	0.0315	984	0.2
298.15	100	0.0366	981.6	0.3
298.15	100	0.0392	980.7	0.2
298.15	100	0.0439	979.2	0.3
298.15	100	0.0483	977.5	0.2
298.15	100	0.0516	977.1	0.2
298.15	100	0.0559	975.8	0.3
298.15	100	0.06	974.5	0.3
298.15	100	0.0652	972.9	0.3
298.15	100	0.0679	972.2	0.3
298.15	100	0.0722	971	0.3
298.15	100	0.0801	968.6	0.3
298.15	100	0.084	967.9	0.3
298.15	100	0.0879	966.7	0.3
298.15	100	0.0926	965.6	0.3
298.15	100	0.0958	964.6	0.3
298.15	100	0.1006	963.2	0.3
298.15	100	0.1111	960.2	0.3
298.15	100	0.1225	956.8	0.3
298.15	100	0.1296	954.9	0.3
298.15	100	0.1402	951.8	0.3
298.15	100	0.151	948.4	0.3
298.15	100	0.1601	945.6	0.3
298.15	100	0.1703	942.5	0.3
298.15	100	0.18	939.8	0.3
298.15	100	0.1903	936.5	0.3
298.15	100	0.1996	933.5	0.3
298.15	100	0.2269	925.4	0.3
298.15	100	0.2502	918.5	0.3
298.15	100	0.2745	911.7	0.3
298.15	100	0.3009	904.5	0.3
298.15	100	0.35	891.9	0.3
298.15	100	0.4034	879.4	0.3
298.15	100	0.4501	868.8	0.3
298.15	100	0.498	859.3	0.3
298.15	100	0.5501	849.5	0.3
298.15	100	0.5998	840.9	0.3
298.15	100	0.6489	832.7	0.3
298.15	100	0.6967	825.2	0.3
298.15	100	0.7475	818.2	0.3
298.15	100	0.7996	810.9	0.3
298.15	100	0.8484	804.4	0.3
298.15	100	0.8993	798	0.3
298.15	100	0.9503	791.7	0.4
298.15	100	1	785.7	0.4
298.15	10000	0.003	999.8	0.3
298.15	10000	0.0042	998.9	0.2
298.15	10000	0.0082	997.3	0.2
298.15	10000	0.0119	995.8	0.2
298.15	10000	0.0158	994	0.3
298.15	10000	0.0184	992.6	0.2
298.15	10000	0.0219	991.7	0.2
298.15	10000	0.0255	990.2	0.3
298.15	10000	0.0279	988.7	0.2
298.15	10000	0.0315	988	0.2
298.15	10000	0.0366	985.7	0.3
298.15	10000	0.0392	984.7	0.3
298.15	10000	0.0439	983.3	0.3
298.15	10000	0.0483	981.6	0.3
298.15	10000	0.0516	981	0.3
298.15	10000	0.0559	979.8	0.3
298.15	10000	0.06	978.5	0.3
298.15	10000	0.0652	976.9	0.3
298.15	10000	0.0679	976.1	0.3
298.15	10000	0.0722	974.9	0.3
298.15	10000	0.0801	972.4	0.3
298.15	10000	0.084	971.8	0.3
298.15	10000	0.0879	970.6	0.3
298.15	10000	0.0926	969.3	0.3
298.15	10000	0.0958	968.5	0.3
298.15	10000	0.1006	967.1	0.3
298.15	10000	0.1111	964.1	0.3
298.15	10000	0.1225	960.7	0.3
298.15	10000	0.1296	958.8	0.3
298.15	10000	0.1402	955.8	0.3
298.15	10000	0.151	952.5	0.3
298.15	10000	0.1601	949.8	0.3
298.15	10000	0.1703	946.7	0.3
298.15	10000	0.18	943.9	0.3
298.15	10000	0.1903	940.9	0.3
298.15	10000	0.1996	938	0.3
298.15	10000	0.2269	930	0.3
298.15	10000	0.2502	923.3	0.3
298.15	10000	0.2745	916.6	0.3
298.15	10000	0.3009	909.6	0.3
298.15	10000	0.35	897.1	0.3
298.15	10000	0.4034	884.9	0.4
298.15	10000	0.4501	874.7	0.4
298.15	10000	0.498	865.4	0.4
298.15	10000	0.5501	855.8	0.4
298.15	10000	0.5998	847.4	0.4
298.15	10000	0.6489	839.5	0.4
298.15	10000	0.6967	832.3	0.4
298.15	10000	0.7475	825.4	0.4
298.15	10000	0.7996	818.3	0.4
298.15	10000	0.8484	812.1	0.4
298.15	10000	0.8993	805.8	0.4
298.15	10000	0.9503	799.9	0.4
298.15	10000	1	794	0.4
298.15	20000	0.003	1004.2	0.3
298.15	20000	0.0042	1003.2	0.3
298.15	20000	0.0082	1001.7	0.2
298.15	20000	0.0119	1000.1	0.2
298.15	20000	0.0158	998.2	0.3
298.15	20000	0.0184	996.8	0.2
298.15	20000	0.0219	995.9	0.2
298.15	20000	0.0255	994.4	0.3
298.15	20000	0.0279	992.9	0.2
298.15	20000	0.0315	992.1	0.2
298.15	20000	0.0366	989.8	0.3
298.15	20000	0.0392	988.6	0.3
298.15	20000	0.0439	987.3	0.3
298.15	20000	0.0483	985.6	0.3
298.15	20000	0.0516	985.1	0.3
298.15	20000	0.0559	983.8	0.3
298.15	20000	0.06	982.4	0.3
298.15	20000	0.0652	980.8	0.3
298.15	20000	0.0679	980	0.3
298.15	20000	0.0722	978.7	0.3
298.15	20000	0.0801	976.2	0.3
298.15	20000	0.084	975.7	0.3
298.15	20000	0.0879	974.4	0.3
298.15	20000	0.0926	973.2	0.3
298.15	20000	0.0958	972.4	0.3
298.15	20000	0.1006	971	0.3
298.15	20000	0.1111	968	0.3
298.15	20000	0.1225	964.7	0.3
298.15	20000	0.1296	962.8	0.3
298.15	20000	0.1402	961.3	0.3
298.15	20000	0.151	956.6	0.3
298.15	20000	0.1601	953.9	0.3
298.15	20000	0.1703	950.9	0.3
298.15	20000	0.18	948.1	0.3
298.15	20000	0.1903	945.2	0.3
298.15	20000	0.1996	942.3	0.3
298.15	20000	0.2269	934.5	0.3
298.15	20000	0.2502	928	0.3
298.15	20000	0.2745	921.3	0.4
298.15	20000	0.3009	914.5	0.4
298.15	20000	0.35	902.3	0.4
298.15	20000	0.4034	890.4	0.4
298.15	20000	0.4501	880.4	0.4
298.15	20000	0.498	871.3	0.4
298.15	20000	0.5501	861.9	0.4
298.15	20000	0.5998	853.7	0.5
298.15	20000	0.6489	846	0.5
298.15	20000	0.6967	839	0.5
298.15	20000	0.7475	832.3	0.5
298.15	20000	0.7996	825.4	0.5
298.15	20000	0.8484	819.3	0.5
298.15	20000	0.8993	813.3	0.5
298.15	20000	0.9503	807.5	0.5
298.15	20000	1	801.9	0.6
298.15	30000	0.003	1008.5	0.3
298.15	30000	0.0042	1007.4	0.3
298.15	30000	0.0082	1005.9	0.3
298.15	30000	0.0119	1004.3	0.3
298.15	30000	0.0158	1002.4	0.3
298.15	30000	0.0184	1000.9	0.2
298.15	30000	0.0219	1000.1	0.2
298.15	30000	0.0255	998.4	0.3
298.15	30000	0.0279	996.9	0.2
298.15	30000	0.0315	996.1	0.2
298.15	30000	0.0366	993.8	0.3
298.15	30000	0.0392	992.6	0.3
298.15	30000	0.0439	991.2	0.3
298.15	30000	0.0483	989.5	0.3
298.15	30000	0.0516	988.9	0.3
298.15	30000	0.0559	987.7	0.3
298.15	30000	0.06	986.3	0.3
298.15	30000	0.0652	984.7	0.3
298.15	30000	0.0679	983.9	0.3
298.15	30000	0.0722	982.6	0.3
298.15	30000	0.0801	980	0.3
298.15	30000	0.084	979.5	0.3
298.15	30000	0.0879	978.2	0.3
298.15	30000	0.0926	976.9	0.3
298.15	30000	0.0958	976.1	0.3
298.15	30000	0.1006	974.8	0.3
298.15	30000	0.1111	971.7	0.3
298.15	30000	0.1225	968.5	0.3
298.15	30000	0.1296	966.7	0.3
298.15	30000	0.1402	963.7	0.3
298.15	30000	0.151	960.5	0.3
298.15	30000	0.1601	957.9	0.3
298.15	30000	0.1703	955	0.3
298.15	30000	0.18	952.2	0.3
298.15	30000	0.1903	949.3	0.3
298.15	30000	0.1996	946.5	0.3
298.15	30000	0.2269	938.7	0.4
298.15	30000	0.2502	932.4	0.4
298.15	30000	0.2745	925.9	0.4
298.15	30000	0.3009	919.2	0.4
298.15	30000	0.35	907.2	0.4
298.15	30000	0.4034	895.5	0.4
298.15	30000	0.4501	885.7	0.5
298.15	30000	0.498	876.8	0.5
298.15	30000	0.5501	867.6	0.5
298.15	30000	0.5998	859.5	0.5
298.15	30000	0.6489	852	0.6
298.15	30000	0.6967	845.1	0.6
298.15	30000	0.7475	838.5	0.6
298.15	30000	0.7996	831.9	0.6
298.15	30000	0.8484	825.9	0.6
298.15	30000	0.8993	820	0.6
298.15	30000	0.9503	814.5	0.7
298.15	30000	1	808.9	0.7
298.15	40000	0.003	1012.7	0.3
298.15	40000	0.0042	1011.5	0.3
298.15	40000	0.0082	1010	0.3
298.15	40000	0.0119	1008.3	0.3
298.15	40000	0.0158	1006.4	0.3
298.15	40000	0.0184	1005	0.3
298.15	40000	0.0219	1004.1	0.2
298.15	40000	0.0255	1002.4	0.3
298.15	40000	0.0279	1000.8	0.2
298.15	40000	0.0315	1000	0.2
298.15	40000	0.0366	997.6	0.3
298.15	40000	0.0392	996.4	0.2
298.15	40000	0.0439	995.1	0.3
298.15	40000	0.0483	993.3	0.3
298.15	40000	0.0516	992.7	0.2
298.15	40000	0.0559	991.5	0.3
298.15	40000	0.06	990.1	0.3
298.15	40000	0.0652	988.4	0.3
298.15	40000	0.0679	987.6	0.3
298.15	40000	0.0722	986.3	0.3
298.15	40000	0.0801	983.7	0.3
298.15	40000	0.084	983.2	0.3
298.15	40000	0.0879	981.9	0.3
298.15	40000	0.0926	980.6	0.3
298.15	40000	0.0958	979.8	0.3
298.15	40000	0.1006	978.5	0.3
298.15	40000	0.1111	975.4	0.3
298.15	40000	0.1225	972.2	0.3
298.15	40000	0.1296	970.4	0.3
298.15	40000	0.1402	967.3	0.3
298.15	40000	0.151	964.3	0.3
298.15	40000	0.1601	961.7	0.3
298.15	40000	0.1703	958.9	0.3
298.15	40000	0.18	956.2	0.3
298.15	40000	0.1903	953.3	0.3
298.15	40000	0.1996	950.5	0.4
298.15	40000	0.2269	942.9	0.4
298.15	40000	0.2502	936.7	0.4
298.15	40000	0.2745	930.3	0.4
298.15	40000	0.3009	923.7	0.4
298.15	40000	0.35	911.9	0.5
298.15	40000	0.4034	900.4	0.5
298.15	40000	0.4501	890.8	0.5
298.15	40000	0.498	882	0.6
298.15	40000	0.5501	873	0.6
298.15	40000	0.5998	865.1	0.6
298.15	40000	0.6489	857.7	0.6
298.15	40000	0.6967	851	0.7
298.15	40000	0.7475	844.5	0.7
298.15	40000	0.7996	838.1	0.7
298.15	40000	0.8484	832.3	0.7
298.15	40000	0.8993	826.5	0.8
298.15	40000	0.9503	821	0.8
298.15	40000	1	815.7	0.8
323.15	100	0.003	986.5	0.2
323.15	100	0.0042	985.4	0.2
323.15	100	0.0082	984	0.3
323.15	100	0.0119	982.7	0.3
323.15	100	0.0158	980.5	0.3
323.15	100	0.0184	979.2	0.3
323.15	100	0.0219	978	0.3
323.15	100	0.0255	976.5	0.3
323.15	100	0.0279	974.8	0.3
323.15	100	0.0315	973.9	0.3
323.15	100	0.0366	971.4	0.3
323.15	100	0.0392	970.2	0.3
323.15	100	0.0439	968.6	0.3
323.15	100	0.0483	966.6	0.3
323.15	100	0.0516	965.9	0.3
323.15	100	0.0559	964.5	0.3
323.15	100	0.06	962.9	0.3
323.15	100	0.0652	960.9	0.3
323.15	100	0.0679	960.2	0.3
323.15	100	0.0722	958.3	0.3
323.15	100	0.0801	955.1	0.3
323.15	100	0.084	954.7	0.3
323.15	100	0.0879	952.9	0.3
323.15	100	0.0926	951.4	0.3
323.15	100	0.0958	950.1	0.3
323.15	100	0.1006	948.5	0.3
323.15	100	0.1111	944.7	0.3
323.15	100	0.1225	940.6	0.3
323.15	100	0.1296	938.2	0.3
323.15	100	0.1402	934.5	0.3
323.15	100	0.151	930.7	0.3
323.15	100	0.1601	927.5	0.3
323.15	100	0.1703	924	0.3
323.15	100	0.18	920.6	0.3
323.15	100	0.1903	917.3	0.3
323.15	100	0.1996	914.1	0.3
323.15	100	0.2269	905.2	0.3
323.15	100	0.2502	898.1	0.3
323.15	100	0.2745	890.8	0.3
323.15	100	0.3009	883.5	0.3
323.15	100	0.35	870.2	0.3
323.15	100	0.4034	857.3	0.3
323.15	100	0.4501	846.7	0.3
323.15	100	0.498	837	0.3
323.15	100	0.5501	826.9	0.3
323.15	100	0.5998	818.4	0.3
323.15	100	0.6489	810.1	0.3
323.15	100	0.6967	802.8	0.4
323.15	100	0.7475	795.4	0.4
323.15	100	0.7996	788.4	0.4
323.15	100	0.8484	781.9	0.4
323.15	100	0.8993	775.6	0.4
323.15	100	0.9503	769.5	0.4
323.15	100	1	763.7	0.4
323.15	10000	0.003	990.8	0.3
323.15	10000	0.0042	989.6	0.3
323.15	10000	0.0082	988.2	0.3
323.15	10000	0.0119	986.9	0.3
323.15	10000	0.0158	984.7	0.3
323.15	10000	0.0184	983.3	0.3
323.15	10000	0.0219	982.2	0.3
323.15	10000	0.0255	980.6	0.3
323.15	10000	0.0279	979	0.3
323.15	10000	0.0315	978.1	0.3
323.15	10000	0.0366	975.6	0.3
323.15	10000	0.0392	974.3	0.3
323.15	10000	0.0439	972.8	0.3
323.15	10000	0.0483	970.7	0.3
323.15	10000	0.0516	970	0.3
323.15	10000	0.0559	968.6	0.3
323.15	10000	0.06	967.1	0.3
323.15	10000	0.0652	965	0.3
323.15	10000	0.0679	964.3	0.3
323.15	10000	0.0722	962.5	0.3
323.15	10000	0.0801	959.3	0.3
323.15	10000	0.084	958.9	0.3
323.15	10000	0.0879	957.1	0.3
323.15	10000	0.0926	955.5	0.3
323.15	10000	0.0958	954.4	0.3
323.15	10000	0.1006	952.8	0.3
323.15	10000	0.1111	949	0.3
323.15	10000	0.1225	945.1	0.3
323.15	10000	0.1296	942.6	0.3
323.15	10000	0.1402	939	0.3
323.15	10000	0.151	935.2	0.3
323.15	10000	0.1601	932.2	0.3
323.15	10000	0.1703	928.8	0.3
323.15	10000	0.18	925.5	0.3
323.15	10000	0.1903	922.1	0.3
323.15	10000	0.1996	919	0.3
323.15	10000	0.2269	910.3	0.3
323.15	10000	0.2502	903.4	0.3
323.15	10000	0.2745	896.3	0.3
323.15	10000	0.3009	889.2	0.4
323.15	10000	0.35	876.2	0.4
323.15	10000	0.4034	863.7	0.4
323.15	10000	0.4501	853.3	0.4
323.15	10000	0.498	843.9	0.4
323.15	10000	0.5501	834.3	0.4
323.15	10000	0.5998	826.3	0.4
323.15	10000	0.6489	817.9	0.4
323.15	10000	0.6967	810.9	0.4
323.15	10000	0.7475	803.8	0.4
323.15	10000	0.7996	796.9	0.4
323.15	10000	0.8484	790.8	0.5
323.15	10000	0.8993	784.7	0.5
323.15	10000	0.9503	779	0.5
323.15	10000	1	773.4	0.5
323.15	20000	0.003	994.9	0.3
323.15	20000	0.0042	993.9	0.3
323.15	20000	0.0082	992.4	0.3
323.15	20000	0.0119	991.1	0.3
323.15	20000	0.0158	988.9	0.3
323.15	20000	0.0184	987.5	0.3
323.15	20000	0.0219	986.3	0.3
323.15	20000	0.0255	984.7	0.3
323.15	20000	0.0279	983.1	0.3
323.15	20000	0.0315	982.2	0.3
323.15	20000	0.0366	979.6	0.3
323.15	20000	0.0392	978.4	0.3
323.15	20000	0.0439	976.8	0.3
323.15	20000	0.0483	974.8	0.3
323.15	20000	0.0516	974	0.3
323.15	20000	0.0559	972.7	0.3
323.15	20000	0.06	971.2	0.3
323.15	20000	0.0652	969.1	0.3
323.15	20000	0.0679	968.3	0.3
323.15	20000	0.0722	966.6	0.3
323.15	20000	0.0801	963.4	0.3
323.15	20000	0.084	963	0.3
323.15	20000	0.0879	961.2	0.3
323.15	20000	0.0926	959.6	0.3
323.15	20000	0.0958	958.5	0.3
323.15	20000	0.1006	956.9	0.3
323.15	20000	0.1111	953.2	0.3
323.15	20000	0.1225	949.2	0.3
323.15	20000	0.1296	946.9	0.3
323.15	20000	0.1402	943.3	0.3
323.15	20000	0.151	939.7	0.3
323.15	20000	0.1601	936.7	0.3
323.15	20000	0.1703	933.3	0.3
323.15	20000	0.18	930.1	0.3
323.15	20000	0.1903	926.8	0.3
323.15	20000	0.1996	923.8	0.3
323.15	20000	0.2269	915.3	0.4
323.15	20000	0.2502	908.5	0.4
323.15	20000	0.2745	901.6	0.4
323.15	20000	0.3009	894.7	0.4
323.15	20000	0.35	882.1	0.4
323.15	20000	0.4034	869.8	0.4
323.15	20000	0.4501	859.7	0.5
323.15	20000	0.498	850.6	0.5
323.15	20000	0.5501	841.2	0.5
323.15	20000	0.5998	833.5	0.5
323.15	20000	0.6489	825.3	0.5
323.15	20000	0.6967	818.4	0.5
323.15	20000	0.7475	811.7	0.5
323.15	20000	0.7996	804.9	0.6
323.15	20000	0.8484	799.1	0.6
323.15	20000	0.8993	793.2	0.6
323.15	20000	0.9503	787.7	0.6
323.15	20000	1	782.3	0.6
323.15	30000	0.003	999	0.2
323.15	30000	0.0042	998	0.2
323.15	30000	0.0082	996.5	0.3
323.15	30000	0.0119	995.2	0.3
323.15	30000	0.0158	993	0.3
323.15	30000	0.0184	991.5	0.3
323.15	30000	0.0219	990.4	0.3
323.15	30000	0.0255	988.7	0.3
323.15	30000	0.0279	987.1	0.3
323.15	30000	0.0315	986.3	0.3
323.15	30000	0.0366	983.6	0.3
323.15	30000	0.0392	982.4	0.3
323.15	30000	0.0439	980.8	0.3
323.15	30000	0.0483	978.8	0.3
323.15	30000	0.0516	978	0.3
323.15	30000	0.0559	976.6	0.3
323.15	30000	0.06	975.1	0.3
323.15	30000	0.0652	973.1	0.3
323.15	30000	0.0679	972.3	0.3
323.15	30000	0.0722	970.5	0.3
323.15	30000	0.0801	967.4	0.3
323.15	30000	0.084	967	0.3
323.15	30000	0.0879	965.3	0.3
323.15	30000	0.0926	963.7	0.3
323.15	30000	0.0958	962.6	0.3
323.15	30000	0.1006	961	0.3
323.15	30000	0.1111	957.3	0.3
323.15	30000	0.1225	953.4	0.3
323.15	30000	0.1296	951.1	0.3
323.15	30000	0.1402	947.6	0.3
323.15	30000	0.151	944	0.3
323.15	30000	0.1601	941.1	0.3
323.15	30000	0.1703	937.7	0.4
323.15	30000	0.18	934.6	0.4
323.15	30000	0.1903	931.4	0.4
323.15	30000	0.1996	928.4	0.4
323.15	30000	0.2269	920.1	0.4
323.15	30000	0.2502	913.5	0.4
323.15	30000	0.2745	906.7	0.4
323.15	30000	0.3009	899.8	0.4
323.15	30000	0.35	887.5	0.5
323.15	30000	0.4034	875.5	0.5
323.15	30000	0.4501	865.7	0.5
323.15	30000	0.498	856.8	0.5
323.15	30000	0.5501	847.6	0.6
323.15	30000	0.5998	839.6	0.6
323.15	30000	0.6489	832.1	0.6
323.15	30000	0.6967	825.4	0.6
323.15	30000	0.7475	818.8	0.7
323.15	30000	0.7996	812.3	0.7
323.15	30000	0.8484	806.6	0.7
323.15	30000	0.8993	800.9	0.7
323.15	30000	0.9503	795.6	0.7
323.15	30000	1	790.3	0.7
323.15	40000	0.003	1003.1	0.2
323.15	40000	0.0042	1002	0.2
323.15	40000	0.0082	1000.5	0.3
323.15	40000	0.0119	999.2	0.3
323.15	40000	0.0158	996.9	0.3
323.15	40000	0.0184	995.5	0.3
323.15	40000	0.0219	994.4	0.3
323.15	40000	0.0255	992.7	0.3
323.15	40000	0.0279	991.1	0.3
323.15	40000	0.0315	990.2	0.3
323.15	40000	0.0366	987.6	0.3
323.15	40000	0.0392	986.3	0.3
323.15	40000	0.0439	984.7	0.3
323.15	40000	0.0483	982.7	0.3
323.15	40000	0.0516	982	0.3
323.15	40000	0.0559	980.5	0.3
323.15	40000	0.06	979.1	0.3
323.15	40000	0.0652	977	0.3
323.15	40000	0.0679	976.3	0.3
323.15	40000	0.0722	974.4	0.3
323.15	40000	0.0801	971.4	0.3
323.15	40000	0.084	970.9	0.3
323.15	40000	0.0879	969.2	0.3
323.15	40000	0.0926	967.6	0.3
323.15	40000	0.0958	966.5	0.3
323.15	40000	0.1006	964.9	0.3
323.15	40000	0.1111	961.3	0.3
323.15	40000	0.1225	957.4	0.3
323.15	40000	0.1296	955.2	0.3
323.15	40000	0.1402	951.7	0.3
323.15	40000	0.151	948.2	0.4
323.15	40000	0.1601	945.3	0.4
323.15	40000	0.1703	942	0.4
323.15	40000	0.18	938.9	0.4
323.15	40000	0.1903	935.8	0.4
323.15	40000	0.1996	932.9	0.4
323.15	40000	0.2269	924.7	0.4
323.15	40000	0.2502	918.2	0.4
323.15	40000	0.2745	911.5	0.5
323.15	40000	0.3009	904.8	0.5
323.15	40000	0.35	892.7	0.5
323.15	40000	0.4034	881	0.6
323.15	40000	0.4501	871.3	0.6
323.15	40000	0.498	862.6	0.6
323.15	40000	0.5501	853.6	0.7
323.15	40000	0.5998	845.8	0.7
323.15	40000	0.6489	838.5	0.7
323.15	40000	0.6967	831.9	0.7
323.15	40000	0.7475	825.5	0.8
323.15	40000	0.7996	819.1	0.8
323.15	40000	0.8484	813.6	0.8
323.15	40000	0.8993	808	0.8
323.15	40000	0.9503	802.8	0.8
323.15	40000	1	797.7	0.9
348.15	100	0.003	973.1	0.3
348.15	100	0.0042	971.9	0.3
348.15	100	0.0082	970.7	0.3
348.15	100	0.0119	969.1	0.3
348.15	100	0.0158	966.6	0.3
348.15	100	0.0184	965.4	0.3
348.15	100	0.0219	963.9	0.3
348.15	100	0.0255	962	0.3
348.15	100	0.0279	960.4	0.3
348.15	100	0.0315	959.4	0.3
348.15	100	0.0366	956.7	0.3
348.15	100	0.0392	955.3	0.3
348.15	100	0.0439	953.5	0.3
348.15	100	0.0483	951.2	0.3
348.15	100	0.0516	950.2	0.3
348.15	100	0.0559	948.8	0.3
348.15	100	0.06	946.9	0.3
348.15	100	0.0652	944.8	0.3
348.15	100	0.0679	943.7	0.3
348.15	100	0.0722	941.5	0.3
348.15	100	0.0801	938.1	0.3
348.15	100	0.084	937.5	0.3
348.15	100	0.0879	935.3	0.3
348.15	100	0.0926	933.6	0.3
348.15	100	0.0958	932.2	0.3
348.15	100	0.1006	930.2	0.3
348.15	100	0.1111	925.9	0.3
348.15	100	0.1225	921.5	0.3
348.15	100	0.1296	918.7	0.3
348.15	100	0.1402	914.6	0.3
348.15	100	0.151	910.4	0.3
348.15	100	0.1601	906.9	0.3
348.15	100	0.1703	903.1	0.3
348.15	100	0.18	899.5	0.3
348.15	100	0.1903	895.8	0.3
348.15	100	0.1996	892.6	0.3
348.15	100	0.2269	883.1	0.3
348.15	100	0.2502	875.6	0.3
348.15	100	0.2745	868	0.3
348.15	100	0.3009	860.4	0.3
348.15	100	0.35	846.7	0.3
348.15	100	0.4034	833.4	0.3
348.15	100	0.4501	822.7	0.3
348.15	100	0.498	812.7	0.3
348.15	100	0.5501	802.6	0.4
348.15	100	0.5998	793.8	0.4
348.15	100	0.6489	785.6	0.4
348.15	100	0.6967	778.2	0.4
348.15	100	0.7475	770.9	0.4
348.15	100	0.7996	763.9	0.4
348.15	100	0.8484	757.6	0.4
348.15	100	0.8993	751.5	0.4
348.15	100	0.9503	745.7	0.4
348.15	100	1	739.4	0.4
348.15	10000	0.003	977.5	0.3
348.15	10000	0.0042	976.3	0.3
348.15	10000	0.0082	975	0.3
348.15	10000	0.0119	973.4	0.3
348.15	10000	0.0158	971	0.3
348.15	10000	0.0184	969.6	0.3
348.15	10000	0.0219	968.2	0.3
348.15	10000	0.0255	966.4	0.3
348.15	10000	0.0279	964.8	0.3
348.15	10000	0.0315	963.8	0.3
348.15	10000	0.0366	961	0.3
348.15	10000	0.0392	959.6	0.3
348.15	10000	0.0439	957.8	0.3
348.15	10000	0.0483	955.6	0.3
348.15	10000	0.0516	954.6	0.3
348.15	10000	0.0559	953.2	0.3
348.15	10000	0.06	951.3	0.3
348.15	10000	0.0652	949.1	0.3
348.15	10000	0.0679	948.2	0.3
348.15	10000	0.0722	946.1	0.3
348.15	10000	0.0801	942.6	0.3
348.15	10000	0.084	941.9	0.3
348.15	10000	0.0879	939.9	0.3
348.15	10000	0.0926	938.1	0.3
348.15	10000	0.0958	936.8	0.3
348.15	10000	0.1006	934.9	0.3
348.15	10000	0.1111	930.7	0.3
348.15	10000	0.1225	926.3	0.3
348.15	10000	0.1296	923.6	0.3
348.15	10000	0.1402	919.5	0.3
348.15	10000	0.151	915.4	0.3
348.15	10000	0.1601	912.1	0.3
348.15	10000	0.1703	908.4	0.3
348.15	10000	0.18	904.8	0.3
348.15	10000	0.1903	901.3	0.3
348.15	10000	0.1996	898.1	0.3
348.15	10000	0.2269	888.9	0.4
348.15	10000	0.2502	881.6	0.4
348.15	10000	0.2745	874.2	0.4
348.15	10000	0.3009	866.8	0.4
348.15	10000	0.35	853.6	0.4
348.15	10000	0.4034	840.7	0.4
348.15	10000	0.4501	830.3	0.4
348.15	10000	0.498	820.7	0.4
348.15	10000	0.5501	811	0.4
348.15	10000	0.5998	802.5	0.4
348.15	10000	0.6489	794.6	0.5
348.15	10000	0.6967	787.6	0.5
348.15	10000	0.7475	780.7	0.5
348.15	10000	0.7996	774	0.5
348.15	10000	0.8484	768	0.5
348.15	10000	0.8993	762.1	0.5
348.15	10000	0.9503	756.7	0.5
348.15	10000	1	751.2	0.5
348.15	20000	0.003	981.9	0.3
348.15	20000	0.0042	980.6	0.3
348.15	20000	0.0082	979.4	0.3
348.15	20000	0.0119	977.7	0.3
348.15	20000	0.0158	975.3	0.3
348.15	20000	0.0184	973.9	0.3
348.15	20000	0.0219	972.6	0.3
348.15	20000	0.0255	970.7	0.3
348.15	20000	0.0279	969.1	0.3
348.15	20000	0.0315	968	0.3
348.15	20000	0.0366	965.3	0.3
348.15	20000	0.0392	963.8	0.3
348.15	20000	0.0439	962.1	0.3
348.15	20000	0.0483	959.9	0.3
348.15	20000	0.0516	958.9	0.3
348.15	20000	0.0559	957.5	0.3
348.15	20000	0.06	955.8	0.3
348.15	20000	0.0652	953.5	0.3
348.15	20000	0.0679	952.5	0.3
348.15	20000	0.0722	950.4	0.3
348.15	20000	0.0801	947	0.3
348.15	20000	0.084	946.3	0.3
348.15	20000	0.0879	944.4	0.3
348.15	20000	0.0926	942.6	0.3
348.15	20000	0.0958	941.3	0.3
348.15	20000	0.1006	939.4	0.3
348.15	20000	0.1111	935.3	0.3
348.15	20000	0.1225	931.1	0.3
348.15	20000	0.1296	928.3	0.3
348.15	20000	0.1402	924.4	0.3
348.15	20000	0.151	920.3	0.4
348.15	20000	0.1601	917.1	0.4
348.15	20000	0.1703	913.5	0.4
348.15	20000	0.18	910	0.4
348.15	20000	0.1903	906.5	0.4
348.15	20000	0.1996	903.4	0.4
348.15	20000	0.2269	894.4	0.4
348.15	20000	0.2502	887.3	0.4
348.15	20000	0.2745	880.2	0.4
348.15	20000	0.3009	872.9	0.4
348.15	20000	0.35	860	0.5
348.15	20000	0.4034	847.5	0.5
348.15	20000	0.4501	837.4	0.5
348.15	20000	0.498	828.1	0.5
348.15	20000	0.5501	818.7	0.5
348.15	20000	0.5998	810.5	0.5
348.15	20000	0.6489	802.9	0.6
348.15	20000	0.6967	796.1	0.6
348.15	20000	0.7475	789.4	0.6
348.15	20000	0.7996	783	0.6
348.15	20000	0.8484	777.3	0.6
348.15	20000	0.8993	771.6	0.6
348.15	20000	0.9503	766.4	0.6
348.15	20000	1	761.2	0.6
348.15	30000	0.003	986.1	0.3
348.15	30000	0.0042	984.8	0.3
348.15	30000	0.0082	983.6	0.3
348.15	30000	0.0119	981.9	0.3
348.15	30000	0.0158	979.4	0.3
348.15	30000	0.0184	978.1	0.3
348.15	30000	0.0219	976.7	0.3
348.15	30000	0.0255	975	0.3
348.15	30000	0.0279	973.3	0.3
348.15	30000	0.0315	972.3	0.3
348.15	30000	0.0366	969.5	0.3
348.15	30000	0.0392	968.1	0.3
348.15	30000	0.0439	966.3	0.3
348.15	30000	0.0483	964.1	0.3
348.15	30000	0.0516	963.2	0.3
348.15	30000	0.0559	961.7	0.3
348.15	30000	0.06	960	0.3
348.15	30000	0.0652	957.8	0.3
348.15	30000	0.0679	956.8	0.3
348.15	30000	0.0722	954.7	0.3
348.15	30000	0.0801	951.3	0.3
348.15	30000	0.084	950.7	0.3
348.15	30000	0.0879	948.8	0.3
348.15	30000	0.0926	947	0.3
348.15	30000	0.0958	945.7	0.3
348.15	30000	0.1006	943.9	0.3
348.15	30000	0.1111	939.8	0.4
348.15	30000	0.1225	935.6	0.4
348.15	30000	0.1296	932.9	0.4
348.15	30000	0.1402	929.1	0.4
348.15	30000	0.151	925.1	0.4
348.15	30000	0.1601	922	0.4
348.15	30000	0.1703	918.4	0.4
348.15	30000	0.18	915	0.4
348.15	30000	0.1903	911.6	0.4
348.15	30000	0.1996	908.5	0.4
348.15	30000	0.2269	899.7	0.4
348.15	30000	0.2502	892.8	0.5
348.15	30000	0.2745	885.8	0.5
348.15	30000	0.3009	878.6	0.5
348.15	30000	0.35	866.2	0.5
348.15	30000	0.4034	854	0.6
348.15	30000	0.4501	844.2	0.6
348.15	30000	0.498	835.1	0.6
348.15	30000	0.5501	825.9	0.6
348.15	30000	0.5998	818	0.7
348.15	30000	0.6489	810.6	0.7
348.15	30000	0.6967	804	0.7
348.15	30000	0.7475	797.6	0.7
348.15	30000	0.7996	791.3	0.7
348.15	30000	0.8484	785.8	0.8
348.15	30000	0.8993	780.3	0.8
348.15	30000	0.9503	775.2	0.8
348.15	30000	1	770.3	0.8
348.15	40000	0.003	990.1	0.3
348.15	40000	0.0042	988.8	0.3
348.15	40000	0.0082	987.6	0.3
348.15	40000	0.0119	986	0.3
348.15	40000	0.0158	983.5	0.3
348.15	40000	0.0184	982.1	0.3
348.15	40000	0.0219	980.8	0.3
348.15	40000	0.0255	979	0.3
348.15	40000	0.0279	977.3	0.3
348.15	40000	0.0315	976.3	0.3
348.15	40000	0.0366	973.6	0.3
348.15	40000	0.0392	972.1	0.3
348.15	40000	0.0439	970.4	0.3
348.15	40000	0.0483	968.2	0.3
348.15	40000	0.0516	967.3	0.3
348.15	40000	0.0559	965.9	0.3
348.15	40000	0.06	964.1	0.3
348.15	40000	0.0652	961.9	0.3
348.15	40000	0.0679	960.9	0.3
348.15	40000	0.0722	958.9	0.3
348.15	40000	0.0801	955.6	0.3
348.15	40000	0.084	954.9	0.3
348.15	40000	0.0879	953	0.3
348.15	40000	0.0926	951.3	0.3
348.15	40000	0.0958	950	0.4
348.15	40000	0.1006	948.1	0.4
348.15	40000	0.1111	944.2	0.4
348.15	40000	0.1225	940	0.4
348.15	40000	0.1296	937.4	0.4
348.15	40000	0.1402	933.7	0.4
348.15	40000	0.151	929.7	0.4
348.15	40000	0.1601	926.6	0.4
348.15	40000	0.1703	923.1	0.4
348.15	40000	0.18	919.8	0.4
348.15	40000	0.1903	916.4	0.4
348.15	40000	0.1996	913.4	0.5
348.15	40000	0.2269	904.8	0.5
348.15	40000	0.2502	898.1	0.5
348.15	40000	0.2745	891.1	0.5
348.15	40000	0.3009	884.2	0.5
348.15	40000	0.35	872	0.6
348.15	40000	0.4034	860	0.6
348.15	40000	0.4501	850.5	0.7
348.15	40000	0.498	841.6	0.7
348.15	40000	0.5501	832.7	0.7
348.15	40000	0.5998	824.9	0.8
348.15	40000	0.6489	817.8	0.8
348.15	40000	0.6967	811.3	0.8
348.15	40000	0.7475	805.1	0.8
348.15	40000	0.7996	799	0.9
348.15	40000	0.8484	793.6	0.9
348.15	40000	0.8993	788.3	0.9
348.15	40000	0.9503	783.4	0.9
348.15	40000	1	778.6	0.9
