Measured thermophysical data. Solubility of carotenoid pigments (lycopene and astaxanthin) in supercritical carbon dioxide
Source: Fluid Phase Equilib., 2006, 10.1016/j.fluid.2006.05.031
Compound 1: .psi.,.psi.-carotene, C40H56, InChI=1S/C40H56/c1-33(2)19-13-23-37(7)27-17-31-39(9)29-15-25-35(5)21-11-12-22-36(6)26-16-30-40(10)32-18-28-38(8)24-14-20-34(3)4/h11-12,15-22,25-32H,13-14,23-24H2,1-10H3/b12-11+,25-15+,26-16+,31-17+,32-18+,35-21+,36-22+,37-27+,38-28+,39-29+,40-30+, purity 95.4%
Compound 2: .beta.-carotene-4,4'-dione, 3,3'-dihydroxy-, C40H52O4, InChI=1S/C40H52O4/c1-27(17-13-19-29(3)21-23-33-31(5)37(43)35(41)25-39(33,7)8)15-11-12-16-28(2)18-14-20-30(4)22-24-34-32(6)38(44)36(42)26-40(34,9)10/h11-24,35-36,41-42H,25-26H2,1-10H3/b12-11+,17-13+,18-14+,23-21+,24-22+,27-15+,28-16+,29-19+,30-20+, purity 98%
Compound 3: carbon dioxide, CO2, InChI=1S/CO2/c2-1-3, purity 99.99%

System: .psi.,.psi.-carotene; phases: Crystal, Liquid, Air at 1 atmosphere
Property: Normal melting temperature, K (Crystal); method: DTA
Normal melting temperature, K	uncertainty
450	2

System: carbon dioxide + .psi.,.psi.-carotene; phases: Gas, Crystal
Property: Mole fraction of .psi.,.psi.-carotene (Gas); method: Chromatography
Temperature, K	Pressure, kPa	Mole fraction of .psi.,.psi.-carotene	uncertainty
313	21100	3e-07	6e-08
313	26400	3.8e-07	8e-08
313	30400	2.9e-07	6e-08
313	31800	3e-07	6e-08
313	35000	3.6e-07	7e-08
313	38300	3.4e-07	7e-08
313	41800	4.7e-07	9e-08
323	17100	2.8e-07	6e-08
323	21800	4.1e-07	8e-08
323	26700	7.9e-07	1.6e-07
323	29500	8.1e-07	1.6e-07
323	34100	9.8e-07	2e-07
323	38100	1.2e-06	2e-07
333	19400	4.1e-07	8e-08
333	25700	9e-07	1.8e-07
333	27100	9.3e-07	1.9e-07
333	32400	1.2e-06	2e-07
333	36700	1.5e-06	3e-07
333	40300	1.5e-06	3e-07

System: carbon dioxide + .beta.-carotene-4,4'-dione, 3,3'-dihydroxy-; phases: Gas, Crystal
Property: Mole fraction of .beta.-carotene-4,4'-dione, 3,3'-dihydroxy- (Gas); method: Chromatography
Temperature, K	Pressure, kPa	Mole fraction of .beta.-carotene-4,4'-dione, 3,3'-dihydroxy-	uncertainty
313	10000	1e-07	2e-08
313	15800	3e-07	6e-08
313	19800	6e-07	1.2e-07
313	25700	1.8e-06	3.6e-07
313	27100	2e-06	4e-07
313	31000	2.6e-06	5.2e-07
313	33100	3e-06	6e-07
313	35200	2.7e-06	5.4e-07
313	36900	3.6e-06	7.2e-07
323	9490	9e-07	1.8e-07
323	13900	1.2e-06	2.4e-07
323	16400	2.5e-06	5e-07
323	20800	1.9e-06	3.8e-07
323	25900	3.4e-06	6.8e-07
323	27300	3.1e-06	6.2e-07
323	31500	4.2e-06	8.4e-07
323	35300	5.3e-06	1.06e-06
323	38200	6.3e-06	1.26e-06
323	40000	6.8e-06	1.36e-06
333	10500	8e-07	1.6e-07
333	16000	3.9e-06	7.8e-07
333	20500	7.1e-06	1.42e-06
333	24000	7.2e-06	1.44e-06
333	29700	1e-05	2e-06
333	33400	1e-05	2e-06
333	38700	1.2e-05	2.4e-06
