Measured thermophysical data. Liquid liquid equilibria of ternary systems (water + carboxylic acid + cumene) at 298.15K
Source: Fluid Phase Equilib., 2006, 10.1016/j.fluid.2006.07.011
Compound 1: water, H2O, InChI=1S/H2O/h1H2
Compound 2: formic acid, CH2O2, InChI=1S/CH2O2/c2-1-3/h1H,(H,2,3), purity 98%
Compound 3: acetic acid, C2H4O2, InChI=1S/C2H4O2/c1-2(3)4/h1H3,(H,3,4), purity 100%
Compound 4: propanoic acid, C3H6O2, InChI=1S/C3H6O2/c1-2-3(4)5/h2H2,1H3,(H,4,5), purity 99%
Compound 5: isopropylbenzene, C9H12, InChI=1S/C9H12/c1-8(2)9-6-4-3-5-7-9/h3-8H,1-2H3, purity 99%

System: formic acid; phases: Liquid
Property: Refractive index (Na D-line) (Liquid); method: Standard Abbe refractometry
Temperature, K	Pressure, kPa	Refractive index (Na D-line)	uncertainty
293.15	101.325	1.3711	0.0008

System: formic acid; phases: Liquid, Gas
Property: Boiling temperature at pressure P, K (Liquid); method: Distillation
Pressure, kPa	Boiling temperature at pressure P, K	uncertainty
101.325	383.05	2

System: formic acid; phases: Liquid
Property: Mass density, kg/m3 (Liquid); method: VIBTUB:UFactor:6
Temperature, K	Pressure, kPa	Mass density, kg/m3	uncertainty
293.15	101.325	1218.5	2.46

System: acetic acid; phases: Liquid
Property: Refractive index (Na D-line) (Liquid); method: Standard Abbe refractometry
Temperature, K	Pressure, kPa	Refractive index (Na D-line)	uncertainty
293.15	101.325	1.3721	0.0007

System: acetic acid; phases: Liquid, Gas
Property: Boiling temperature at pressure P, K (Liquid); method: Distillation
Pressure, kPa	Boiling temperature at pressure P, K	uncertainty
101.325	390.85	0.5

System: acetic acid; phases: Liquid
Property: Mass density, kg/m3 (Liquid); method: VIBTUB:UFactor:4
Temperature, K	Pressure, kPa	Mass density, kg/m3	uncertainty
298.15	101.325	1044.3	0.26

System: propanoic acid; phases: Liquid
Property: Refractive index (Na D-line) (Liquid); method: Standard Abbe refractometry
Temperature, K	Pressure, kPa	Refractive index (Na D-line)	uncertainty
293.15	101.325	1.3811	0.0008

System: propanoic acid; phases: Liquid, Gas
Property: Boiling temperature at pressure P, K (Liquid); method: Distillation
Pressure, kPa	Boiling temperature at pressure P, K	uncertainty
101.325	414.15	0.5

System: propanoic acid; phases: Liquid
Property: Mass density, kg/m3 (Liquid); method: VIBTUB:UFactor:6
Temperature, K	Pressure, kPa	Mass density, kg/m3	uncertainty
298.15	101.325	988	0.53

System: isopropylbenzene; phases: Liquid
Property: Refractive index (Na D-line) (Liquid); method: Standard Abbe refractometry
Temperature, K	Pressure, kPa	Refractive index (Na D-line)	uncertainty
293.15	101.325	1.4913	0.0008

System: isopropylbenzene; phases: Liquid, Gas
Property: Boiling temperature at pressure P, K (Liquid); method: Distillation
Pressure, kPa	Boiling temperature at pressure P, K	uncertainty
101.325	425.54	0.5

System: isopropylbenzene; phases: Liquid
Property: Mass density, kg/m3 (Liquid); method: VIBTUB:UFactor:6
Temperature, K	Pressure, kPa	Mass density, kg/m3	uncertainty
298.15	101.325	863.75	0.85

System: formic acid + isopropylbenzene + water; phases: Liquid mixture 1, Liquid mixture 2
Fixed: Pressure, kPa = 101
Fixed: Temperature, K = 298.15
Property: Mole fraction of formic acid (Liquid mixture 1); method: Titration method
Mole fraction of water	Mole fraction of formic acid	uncertainty
0	0.989	0.004
0.004	0	0.001
0.127	0.865	0.015
0.229	0.767	0.009
0.392	0.607	0.013
0.524	0.476	0.015
0.642	0.357	0.012
0.765	0.235	0.009
0.856	0.144	0.007
0.933	0.067	0.006
1	0	0.001

System: formic acid + isopropylbenzene + water; phases: Liquid mixture 1, Liquid mixture 2
Fixed: Temperature, K = 298.15
Fixed: Pressure, kPa = 101.3
Property: Mole fraction of formic acid (Liquid mixture 1); method: Chromatography
Property: Mole fraction of water (Liquid mixture 2); method: Chromatography
Property: Mole fraction of formic acid (Liquid mixture 2); method: Chromatography
Mole fraction of water	Mole fraction of formic acid	uncertainty	Mole fraction of water	uncertainty	Mole fraction of formic acid	uncertainty
0.914	0.086	0.006	0.003	0.003	0.003	
0.844	0.156	0.006	0.003	0.003	0.006	
0.754	0.245	0.006	0.002	0.002	0.011	
0.67	0.329	0.006	0.002	0.002	0.018	
0.561	0.438	0.006	0.002	0.002	0.023	
0.472	0.528	0.007	0.001	0.001	0.027	
0.338	0.66	0.006	0.001	0.001	0.036	
0.246	0.75	0.006	0.001	0.001	0.043	

System: acetic acid + isopropylbenzene + water; phases: Liquid mixture 1, Liquid mixture 2
Fixed: Pressure, kPa = 101
Fixed: Temperature, K = 298.15
Property: Mole fraction of acetic acid (Liquid mixture 1); method: Titration method
Mole fraction of water	Mole fraction of acetic acid	uncertainty
0.003	0	0.001
0.012	0.185	0.052
0.025	0.291	0.03
0.046	0.432	0.025
0.067	0.514	0.018
0.104	0.587	0.014
0.154	0.63	0.012
0.2	0.655	0.011
0.254	0.659	0.011
0.32	0.63	0.012
0.439	0.542	0.015
0.577	0.417	0.013
0.627	0.37	0.012
0.682	0.316	0.011
0.832	0.168	0.007
0.935	0.064	0.006
0.999	0	0.001

System: acetic acid + isopropylbenzene + water; phases: Liquid mixture 1, Liquid mixture 2
Fixed: Temperature, K = 298.15
Fixed: Pressure, kPa = 101.3
Property: Mole fraction of acetic acid (Liquid mixture 1); method: Chromatography
Property: Mole fraction of water (Liquid mixture 2); method: Chromatography
Property: Mole fraction of acetic acid (Liquid mixture 2); method: Chromatography
Mole fraction of water	Mole fraction of acetic acid	uncertainty	Mole fraction of water	uncertainty	Mole fraction of acetic acid	uncertainty
0.945	0.055	0.006	0.003	0.003	0.015	
0.903	0.097	0.006	0.005	0.004	0.025	
0.858	0.142	0.006	0.009	0.004	0.044	
0.791	0.208	0.006	0.012	0.004	0.072	
0.723	0.275	0.006	0.016	0.004	0.095	
0.67	0.327	0.006	0.018	0.004	0.135	
0.617	0.379	0.006	0.02	0.004	0.175	
0.553	0.44	0.006	0.022	0.004	0.226	
0.445	0.54	0.006	0.024	0.004	0.298	

System: propanoic acid + isopropylbenzene + water; phases: Liquid mixture 1, Liquid mixture 2
Fixed: Pressure, kPa = 101
Fixed: Temperature, K = 298.15
Property: Mole fraction of propanoic acid (Liquid mixture 1); method: Titration method
Mole fraction of water	Mole fraction of propanoic acid	uncertainty
0.003	0	0.001
0.007	0.146	0.035
0.011	0.293	0.042
0.035	0.388	0.018
0.067	0.473	0.015
0.142	0.517	0.015
0.285	0.505	0.015
0.401	0.469	0.015
0.511	0.421	0.013
0.62	0.351	0.011
0.719	0.27	0.009
0.803	0.194	0.008
0.86	0.139	0.007
1	0	0.001

System: propanoic acid + isopropylbenzene + water; phases: Liquid mixture 1, Liquid mixture 2
Fixed: Temperature, K = 298.15
Fixed: Pressure, kPa = 101.3
Property: Mole fraction of propanoic acid (Liquid mixture 1); method: Chromatography
Property: Mole fraction of water (Liquid mixture 2); method: Chromatography
Property: Mole fraction of propanoic acid (Liquid mixture 2); method: Chromatography
Mole fraction of water	Mole fraction of propanoic acid	uncertainty	Mole fraction of water	uncertainty	Mole fraction of propanoic acid	uncertainty
0.976	0.024	0.006	0.005	0.004	0.049	
0.957	0.043	0.006	0.006	0.004	0.128	
0.937	0.063	0.006	0.009	0.004	0.206	
0.911	0.088	0.006	0.011	0.004	0.278	
0.88	0.119	0.006	0.023	0.004	0.332	
0.833	0.165	0.006	0.035	0.004	0.391	
0.781	0.216	0.005	0.052	0.004	0.436	
0.677	0.299	0.006	0.067	0.004	0.48	
