Measured thermophysical data. New vapour-liquid equilibrium data on the ternary system carbon dioxide - methanol - dimethyl sulphoxide
Source: Fluid Phase Equilib., 2019, 10.1016/j.fluid.2019.05.024
Compound 1: carbon dioxide, CO2, InChI=1S/CO2/c2-1-3
Compound 2: methanol, CH4O, InChI=1S/CH4O/c1-2/h2H,1H3, purity 99.5%
Compound 3: dimethyl sulfoxide, C2H6OS, InChI=1S/C2H6OS/c1-4(2)3/h1-2H3, purity 99.96%

System: carbon dioxide + methanol + dimethyl sulfoxide; phases: Liquid, Gas
Property: Vapor or sublimation pressure, kPa (Liquid); method: Visual observation
Mole fraction of methanol	Mole fraction of dimethyl sulfoxide	Temperature, K	Vapor or sublimation pressure, kPa	uncertainty
0.067	0.116	308.05	7110	560
0.067	0.116	313.95	8130	650
0.067	0.116	318.85	9490	780
0.067	0.116	324.55	10970	850
0.059	0.101	308.55	7340	570
0.059	0.101	313.55	8450	690
0.059	0.101	319.15	9900	830
0.059	0.101	323.45	11470	1100
0.052	0.09	308.65	7420	580
0.052	0.09	313.45	8410	690
0.052	0.09	318.35	10160	890
0.052	0.09	323.35	11170	930
0.042	0.074	309.45	7720	610
0.042	0.074	313.95	8580	700
0.042	0.074	318.75	9840	820
0.042	0.074	323.95	11170	870
0.209	0.041	309.65	7060	550
0.209	0.041	314.95	8310	750
0.209	0.041	320.25	9140	720
0.209	0.041	323.95	10000	790
0.202	0.04	309.65	7430	600
0.202	0.04	313.95	7430	630
0.202	0.04	319.45	9220	730
0.202	0.04	324.45	10230	800
0.159	0.031	309.55	7500	620
0.159	0.031	314.95	8450	700
0.159	0.031	319.75	9600	750
0.159	0.031	324.45	10430	810
0.13	0.026	309.45	7150	580
0.13	0.026	314.75	8420	660
0.13	0.026	318.55	9280	740
0.13	0.026	324.45	10470	830
0.143	0.084	309.75	7340	570
0.143	0.084	314.15	8280	640
0.143	0.084	318.65	9360	730
0.143	0.084	324.75	10300	810
0.122	0.071	310.15	7430	580
0.122	0.071	314.05	8020	620
0.122	0.071	319.15	9330	730
0.122	0.071	325.15	10740	850
0.108	0.064	309.35	7350	570
0.108	0.064	314.25	8250	650
0.108	0.064	318.95	9610	770
0.108	0.064	324.35	10980	860
0.097	0.057	309.65	7460	580
0.097	0.057	313.55	8190	650
0.097	0.057	319.45	9810	780
0.097	0.057	324.15	10800	840
0.089	0.051	309.55	7520	590
0.089	0.051	314.65	8620	680
0.089	0.051	319.05	9580	750
0.089	0.051	324.45	10970	860
0.092	0.109	309.45	7340	570
0.092	0.109	314.55	8140	630
0.092	0.109	318.95	9080	710
0.092	0.109	324.15	10800	850
0.081	0.094	308.35	7160	560
0.081	0.094	314.05	8190	650
0.081	0.094	319.15	9400	800
0.081	0.094	325.05	10890	850
0.071	0.084	309.65	7440	590
0.071	0.084	313.95	8190	670
0.071	0.084	319.25	9930	790
0.071	0.084	324.05	10930	860
0.064	0.075	308.45	7330	580
0.064	0.075	313.75	8200	670
0.064	0.075	319.65	10000	800
0.064	0.075	324.85	11470	910
0.058	0.068	309.15	7590	590
0.058	0.068	314.75	8580	680
0.058	0.068	319.95	10240	800
0.058	0.068	324.35	11320	880
0.187	0.053	309.95	7240	590
0.187	0.053	313.75	7680	660
0.187	0.053	319.25	9070	710
0.187	0.053	323.35	10170	800
0.163	0.047	308.25	7090	570
0.163	0.047	313.65	7950	640
0.163	0.047	319.15	9220	730
0.163	0.047	323.85	10320	800
0.145	0.041	307.45	7150	560
0.145	0.041	310.65	7580	590
0.145	0.041	313.35	8020	620
0.145	0.041	319.45	9400	740
0.145	0.041	324.35	10560	820
0.13	0.038	309.15	7250	580
0.13	0.038	312.95	7960	620
0.13	0.038	318.85	9100	710
0.13	0.038	323.85	10130	850

System: carbon dioxide + methanol + dimethyl sulfoxide; phases: Liquid, Gas
Property: Vapor or sublimation pressure, kPa (Liquid); method: Visual Observation
Mole fraction of methanol	Mole fraction of dimethyl sulfoxide	Temperature, K	Vapor or sublimation pressure, kPa	uncertainty
0.067	0.116	310.05	7740	600
0.067	0.116	314.45	8510	690
0.067	0.116	319.35	10250	800
0.067	0.116	324.85	11130	940
0.059	0.101	310.15	7820	620
0.059	0.101	315.25	9070	770
0.059	0.101	319.85	10150	830
0.059	0.101	324.85	11770	1010
0.052	0.09	308.95	7640	600
0.052	0.09	314.35	8750	710
0.052	0.09	319.35	10220	820
0.052	0.09	324.35	11320	980
0.042	0.074	310.55	7640	700
0.042	0.074	315.15	8860	720
0.042	0.074	318.85	9970	800
0.042	0.074	324.25	11280	880
0.209	0.041	309.85	7410	660
0.209	0.041	316.05	8560	690
0.209	0.041	319.55	8970	700
0.209	0.041	324.95	10050	800
0.202	0.04	311.65	7950	720
0.202	0.04	316.15	8480	670
0.202	0.04	320.75	9500	750
0.202	0.04	326.15	10680	830
0.159	0.031	311.25	7710	600
0.159	0.031	316.95	8960	710
0.159	0.031	321.15	9640	800
0.159	0.031	325.85	10840	880
0.13	0.026	309.75	7490	590
0.13	0.026	311.75	7920	620
0.13	0.026	316.95	9210	790
0.13	0.026	322.35	10850	1050
0.13	0.026	325.85	11220	1000
0.143	0.084	310.75	7750	610
0.143	0.084	312.75	8220	640
0.143	0.084	318.55	9250	720
0.143	0.084	324.45	10560	820
0.122	0.071	311.15	7680	600
0.122	0.071	314.25	8200	640
0.122	0.071	318.35	9300	730
0.122	0.071	324.45	10600	800
0.108	0.064	310.15	7780	600
0.108	0.064	315.15	8640	680
0.108	0.064	319.75	9820	770
0.108	0.064	324.75	10870	850
0.097	0.057	310.35	7630	600
0.097	0.057	357.45	4170	1470
0.097	0.057	371.65	4720	1440
0.097	0.057	325.35	11240	1370
0.089	0.051	310.75	7780	600
0.089	0.051	314.55	8510	660
0.089	0.051	318.65	9430	740
0.089	0.051	324.85	11080	860
0.092	0.109	310.95	7850	610
0.092	0.109	315.15	8450	660
0.092	0.109	319.05	9550	790
0.092	0.109	324.05	10750	840
0.081	0.094	310.75	7770	610
0.081	0.094	314.15	8310	650
0.081	0.094	319.45	9610	790
0.081	0.094	324.95	11140	870
0.071	0.084	311.65	7930	620
0.071	0.084	314.15	8220	680
0.071	0.084	320.05	10020	790
0.071	0.084	323.65	11010	860
0.064	0.075	311.65	7690	610
0.064	0.075	314.25	8300	660
0.064	0.075	319.95	10040	780
0.064	0.075	325.35	11570	920
0.058	0.068	310.35	7670	620
0.058	0.068	314.85	8830	690
0.058	0.068	320.35	10280	810
0.058	0.068	325.05	11370	890
0.187	0.053	310.25	7430	680
0.187	0.053	313.75	8030	670
0.187	0.053	319.45	9110	710
0.187	0.053	324.05	10240	810
0.163	0.047	309.15	7720	670
0.163	0.047	313.15	8180	700
0.163	0.047	319.75	9380	780
0.163	0.047	323.05	10400	860
0.145	0.041	313.65	8180	640
0.145	0.041	319.45	9180	720
0.145	0.041	324.35	10550	850
0.13	0.038	309.85	7570	590
0.13	0.038	314.75	8300	660
0.13	0.038	320.75	9470	1110
0.13	0.038	325.85	10630	830
