Measured thermophysical data. Determination of solubility parameters from density measurements for non-polar hydrocarbons at temperatures from (298 to 433) K and pressures up to 137 MPa
Source: Fluid Phase Equilib., 2016, 10.1016/j.fluid.2016.09.021
Compound 1: heptane, C7H16, InChI=1S/C7H16/c1-3-5-7-6-4-2/h3-7H2,1-2H3, purity 99%
Compound 2: dodecane, C12H26, InChI=1S/C12H26/c1-3-5-7-9-11-12-10-8-6-4-2/h3-12H2,1-2H3, purity 99%
Compound 3: benzene, C6H6, InChI=1S/C6H6/c1-2-4-6-5-3-1/h1-6H, purity 99.7%
Compound 4: toluene, C7H8, InChI=1S/C7H8/c1-7-5-3-2-4-6-7/h2-6H,1H3, purity 99.9%

System: heptane; phases: Liquid
Property: Mass density, kg/m3 (Liquid); method: Vibrating tube method
Temperature, K	Pressure, kPa	Mass density, kg/m3	uncertainty
293	2100	687.2	2
293	3000	688.1	2
293	4000	688.9	2
293	5000	689.8	2
293	10000	694	2
293	20000	701.8	2
293	30000	708.7	2.1
293	40000	714.8	2.1
293	49900	720.8	2.1
293	59900	726.4	2.2
293	69900	731.6	2.2
293	79900	736.8	2.2
293	89900	741.5	2.3
293	99900	746.1	2.3
293	109900	750.6	2.3
293	119900	754.9	2.4
293	129900	759.2	2.4
293	134900	761.2	2.4
293	137400	762.2	2.4
313	2100	671.9	2
313	3000	672.9	2
313	4000	673.9	2
313	5000	674.8	2
313	10000	679.4	2
313	20000	688	2.1
313	30000	695.4	2.1
313	40000	702.2	2.1
313	49900	708.5	2.1
313	59900	714.3	2.2
313	69900	720	2.2
313	79900	725.2	2.2
313	89900	730.3	2.3
313	99900	735.1	2.3
313	109900	739.9	2.3
313	119900	744.3	2.4
313	129900	748.7	2.4
313	134900	751	2.4
313	137400	751.9	2.5
333	2100	654.8	2
333	3000	656	2
333	4000	657.7	2
333	5000	658.4	2
333	10000	663.9	2
333	20000	673.8	2.1
333	30000	682.3	2.1
333	40000	689.5	2.1
333	49900	696.5	2.1
333	59900	703.1	2.2
333	69900	708.9	2.2
333	79900	714.5	2.2
333	89900	720	2.3
333	99900	725.2	2.3
333	109900	729.8	2.4
333	119900	734.7	2.4
333	129900	739.3	2.5
333	134900	741.4	2.5
333	137400	742.6	2.5
353	2100	636.1	2
353	3000	637.6	2
353	4000	639.1	2
353	5000	640.4	2
353	10000	647.1	2
353	20000	658.5	2.1
353	30000	668	2.1
353	40000	676.7	2.1
353	49900	684.5	2.1
353	59900	691.3	2.2
353	69900	697.9	2.2
353	79900	703.8	2.3
353	89900	709.7	2.3
353	99900	715	2.3
353	109900	720.3	2.4
353	119900	725.3	2.4
353	129900	730.1	2.5
353	134900	732.4	2.5
353	137400	733.5	2.5
373	2100	616.9	2
373	3000	618.6	2
373	4000	620.3	2
373	5000	622	2
373	10000	629.9	2
373	20000	643.2	2.1
373	30000	654.1	2.1
373	40000	663.6	2.1
373	49900	672	2.2
373	59900	679.6	2.2
373	69900	686.7	2.2
373	79900	693.3	2.3
373	89900	699.4	2.3
373	99900	705.2	2.4
373	109900	710.7	2.4
373	119900	716	2.5
373	129900	720.9	2.5
373	134900	723.3	2.5
373	137400	724.5	2.5
393	2100	596.5	2
393	3000	598.7	2
393	4000	600.8	2
393	5000	602.8	2
393	10000	612.2	2
393	20000	627.8	2.1
393	30000	640.2	2.1
393	40000	650.8	2.1
393	49900	659.9	2.2
393	59900	668.3	2.2
393	69900	675.9	2.2
393	79900	682.9	2.3
393	89900	689.5	2.3
393	99900	695.7	2.4
393	109900	701.4	2.4
393	119900	706.8	2.5
393	129900	712.1	2.5
393	134900	714.7	2.6
393	137400	715.8	2.6
413	2100	574.1	2
413	3000	577	2
413	4000	579.6	2
413	5000	582.1	2
413	10000	593.6	2
413	20000	611.9	2.1
413	30000	626	2.1
413	40000	637.6	2.1
413	49900	647.8	2.2
413	59900	656.9	2.2
413	69900	664.7	2.3
413	79900	672.4	2.3
413	89900	679.3	2.4
413	99900	685.8	2.4
413	109900	692.2	2.5
413	119900	698	2.5
413	129900	703.6	2.6
413	134900	706.2	2.6
413	137400	707.4	2.6
433	2100	550.1	2
433	3000	553.9	2
433	4000	557.5	2
433	5000	560.7	2
433	10000	574.6	2
433	20000	595.4	2.1
433	30000	611.5	2.1
433	40000	624.3	2.1
433	49900	635.2	2.2
433	59900	644.7	2.2
433	69900	653.5	2.3
433	79900	661.6	2.3
433	89900	669	2.4
433	99900	676	2.4
433	109900	682.3	2.5
433	119900	688.5	2.5
433	129900	694.3	2.6
433	134900	697.2	2.6
433	137400	698.6	2.6
448	2100	531.1	2
448	3000	535.6	2
448	4000	539.8	2
448	5000	543.6	2
448	10000	560	2
448	20000	583	2.1
448	30000	600.3	2.1
448	40000	614.4	2.2
448	49900	626.2	2.2
448	59900	636.6	2.2
448	69900	646.2	2.3
448	79900	654.4	2.3
448	89900	661.8	2.4
448	99900	669.2	2.4
448	109900	675.8	2.5
448	119900	682.3	2.5
448	129900	688.4	2.6
448	134900	691.4	2.6
448	137400	692.6	2.6
468	2100	501.1	2
468	3000	507.8	2
468	4000	513.4	2
468	5000	518.6	2
468	10000	539.1	2
468	20000	566.5	2.1
468	30000	586.2	2.1
468	40000	601.3	2.2
468	49900	614.2	2.2
468	59900	625.3	2.3
468	69900	635.2	2.3
468	79900	644.1	2.4
468	89900	652.3	2.4
468	99900	659.9	2.5
468	109900	667.2	2.5
468	119900	673.9	2.6
468	129900	679.9	2.6
468	134900	682.8	2.7
468	137400	684.3	2.7

System: dodecane; phases: Liquid
Property: Mass density, kg/m3 (Liquid); method: Vibrating tube method
Temperature, K	Pressure, kPa	Mass density, kg/m3	uncertainty
293	2100	752.3	2
293	3100	752.9	2
293	4100	753.6	2
293	5000	754.2	2
293	10100	757.5	2
293	20000	763.5	2.1
293	30000	769	2.1
293	40000	774.3	2.1
293	50000	779	2.1
293	60000	783.8	2.1
293	69900	788	2.1
293	79900	792.5	2.2
293	89900	796.7	2.2
293	99900	800.8	2.2
293	109900	804.8	2.2
293	119900	808.7	2.3
293	129900	812.4	2.3
293	134900	814.4	2.3
293	137400	815.2	2.3
313	2100	737.7	2
313	3100	738.5	2
313	4100	739.2	2
313	5000	739.9	2
313	10100	743.4	2
313	20000	750.1	2.1
313	30000	756.3	2.1
313	40000	761.8	2.1
313	50000	767.1	2.1
313	60000	772.1	2.1
313	69900	777	2.2
313	79900	781.6	2.2
313	89900	786.1	2.2
313	99900	790.4	2.2
313	109900	794.6	2.2
313	119900	798.7	2.3
313	129900	802.7	2.3
313	134900	804.6	2.3
313	137400	805.4	2.3
333	2100	722.8	2
333	3100	723.6	2
333	4100	724.5	2.1
333	5000	725.3	2.1
333	10100	729.4	2
333	20000	736.6	2.1
333	30000	743.4	2.1
333	40000	749.6	2.1
333	50000	755.3	2.1
333	60000	760.8	2.1
333	69900	766	2.2
333	79900	770.9	2.2
333	89900	775.7	2.2
333	99900	780.1	2.2
333	109900	784.6	2.3
333	119900	788.8	2.3
333	129900	793.2	2.3
333	134900	795.1	2.3
333	137400	796	2.3
353	2100	708.1	2.1
353	3100	709	2.1
353	4100	710	2.1
353	5000	710.9	2.1
353	10100	715.6	2.1
353	20000	723.9	2.1
353	30000	731.3	2.1
353	40000	737.7	2.1
353	50000	744.1	2.1
353	60000	750.1	2.1
353	69900	755.6	2.2
353	79900	760.7	2.2
353	89900	765.7	2.2
353	99900	770.5	2.3
353	109900	775.1	2.3
353	119900	779.6	2.3
353	129900	784	2.3
353	134900	786	2.4
353	137400	787	2.4
373	2100	693.2	2.1
373	3100	694.3	2.1
373	4100	695.3	2.1
373	5000	696.3	2.1
373	10100	701.5	2.1
373	20000	710.8	2.1
373	30000	718.7	2.1
373	40000	726	2.1
373	50000	733.1	2.1
373	60000	739.4	2.2
373	69900	745.2	2.2
373	79900	750.7	2.2
373	89900	756	2.2
373	99900	761	2.3
373	109900	765.9	2.3
373	119900	770.6	2.3
373	129900	775.1	2.4
373	134900	777.4	2.4
373	137400	778.5	2.4
393	2100	678.1	2.1
393	3100	679.2	2.1
393	4100	680.4	2.1
393	5000	681.6	2.1
393	10100	687.5	2.1
393	20000	697.8	2.1
393	30000	706.6	2.1
393	40000	714.7	2.1
393	50000	722.2	2.1
393	60000	728.7	2.2
393	69900	735.1	2.2
393	79900	741.1	2.2
393	89900	746.8	2.3
393	99900	752.2	2.3
393	109900	757.2	2.3
393	119900	762	2.4
393	129900	766.8	2.4
393	134900	769	2.4
393	137400	770.2	2.4
413	2100	662.8	2.1
413	3100	664.2	2.1
413	4100	665.6	2.1
413	5000	666.9	2.1
413	10100	673.7	2.1
413	20000	685.1	2.1
413	30000	694.9	2.1
413	40000	703.6	2.1
413	50000	711.4	2.2
413	60000	718.7	2.2
413	69900	725.4	2.2
413	79900	731.7	2.2
413	89900	737.3	2.3
413	99900	743.2	2.3
413	109900	748.5	2.3
413	119900	753.7	2.4
413	129900	758.5	2.4
413	134900	760.9	2.4
413	137400	762	2.4
433	2100	646.8	2.1
433	3100	648.5	2.1
433	4100	650	2.1
433	5000	651.6	2.1
433	10100	659.5	2.1
433	20000	672	2.1
433	30000	682.8	2.1
433	40000	692.1	2.1
433	50000	700.6	2.2
433	60000	708.3	2.2
433	69900	715.6	2.2
433	79900	722.1	2.3
433	89900	728.3	2.3
433	99900	734.3	2.3
433	109900	739.8	2.4
433	119900	745.1	2.4
433	129900	750.3	2.4
433	134900	752.7	2.5
433	137400	753.9	2.5
448	2100	634.6	2.2
448	3100	636.7	2.1
448	4100	638.2	2.1
448	5000	640	2.2
448	10100	648.5	2.1
448	20000	662.4	2.1
448	30000	674	2.1
448	40000	684	2.1
448	50000	692.9	2.2
448	60000	701	2.2
448	69900	708.3	2.2
448	79900	715.3	2.3
448	89900	721.9	2.3
448	99900	727.9	2.3
448	109900	733.5	2.4
448	119900	739	2.4
448	129900	744.2	2.5
448	134900	746.7	2.5
448	137400	747.9	2.5
468	2100	617.8	2.2
468	3100	619.9	2.2
468	4100	622	2.2
468	5000	624.1	2.2
468	10100	634.1	2.1
468	20000	649.5	2.1
468	30000	661.8	2.1
468	40000	672.8	2.2
468	50000	682.6	2.2
468	60000	691	2.2
468	69900	698.9	2.3
468	79900	706.3	2.3
468	89900	712.9	2.3
468	99900	719.2	2.4
468	109900	725.1	2.4
468	119900	731	2.4
468	129900	736.3	2.5
468	134900	738.9	2.5
468	137400	740.2	2.5

System: benzene; phases: Liquid
Property: Mass density, kg/m3 (Liquid); method: Vibrating tube method
Temperature, K	Pressure, kPa	Mass density, kg/m3	uncertainty
293	2100	877.4	2
293	3100	878.1	2
293	4100	878.8	2
293	5000	879.6	2
293	10100	883.4	2
293	20000	890.4	2
293	30000	896.9	2
293	40000	902.9	2
293	50000	908.6	2
293	60000	914	2
293	70000	919.6	2
313	2100	857	2.1
313	3100	857.8	2
313	4100	858.7	2
313	5000	859.6	2
313	10100	863.9	2
313	20000	871.5	2
313	30000	878.7	2
313	40000	885.2	2
313	50000	891.6	2
313	60000	897.5	2
313	70000	902.9	2
333	2100	835.1	2
333	3100	836	2
333	4100	837	2.1
333	5000	838	2.1
333	10100	842.7	2
333	20000	851.8	2
333	30000	859.4	2
333	40000	867	2
333	50000	874.2	2
333	60000	880.8	2
333	70000	886.7	2
353	2100	813.1	2.1
353	3100	814.2	2.1
353	4100	815.4	2.1
353	5000	816.5	2.1
353	10100	822.3	2.1
353	20000	832.3	2.1
353	30000	841.2	2
353	40000	849.5	2.1
353	50000	857	2.1
353	60000	864.3	2.1
353	70000	871.2	2.1
373	2100	790.7	2.1
373	3100	792.1	2.1
373	4100	793.4	2.1
373	5000	794.7	2.1
373	10100	801.4	2.1
373	20000	812.9	2.1
373	30000	823.1	2.1
373	40000	832.3	2.1
373	50000	840.7	2.1
373	60000	848.2	2.1
373	70000	855.7	2.1
393	2100	767.6	2.2
393	3100	769.4	2.1
393	4100	770.9	2.1
393	5000	772.5	2.1
393	10100	780	2.1
393	20000	793	2.1
393	30000	804.5	2.1
393	40000	814.6	2.1
393	50000	824	2.1
393	60000	832.6	2.1
393	70000	841	2.1
413	2100	743	2.3
413	3100	745.1	2.2
413	4100	747	2.2
413	5000	748.8	2.1
413	10100	758	2.1
413	20000	773.2	2.1
413	30000	786.2	2.1
413	40000	797.5	2.1
413	50000	807.8	2.1
413	60000	817.2	2.1
413	70000	825.8	2.1
433	2100	716.7	2.4
433	3100	719.4	2.3
433	4100	721.8	2.2
433	5000	724	2.2
433	10100	735.4	2.2
433	20000	753	2.1
433	30000	767.8	2.1
433	40000	780.3	2.1
433	50000	791.6	2.1
433	60000	801.7	2.1
433	70000	811	2.1
448	2100	696	2.5
448	3100	699.2	2.4
448	4100	702.1	2.3
448	5000	704.8	2.3
448	10100	717.8	2.2
448	20000	738	2.2
448	30000	754.2	2.1
448	40000	767.8	2.1
448	50000	779.8	2.1
448	60000	790.6	2.1
448	70000	800.3	2.1
468	2100	666.9	2.5
468	3100	670.7	2.5
468	4100	674.3	2.5
468	5000	677.8	2.5
468	10100	693.2	2.3
468	20000	717	2.2
468	30000	735.1	2.2
468	40000	750.3	2.1
468	50000	763.6	2.1
468	60000	775.5	2.1
468	70000	786.1	2.1

System: toluene; phases: Liquid
Property: Mass density, kg/m3 (Liquid); method: Vibrating tube method
Temperature, K	Pressure, kPa	Mass density, kg/m3	uncertainty
293	2000	871.2	2
293	3000	871.9	2
293	4000	872.6	2
293	5000	873.2	2
293	10000	876.8	2
293	20000	883.4	2
293	30000	889.3	2
293	40000	895.1	2
293	50000	900.5	2
293	60000	905.8	2
293	70000	910.8	2
293	80000	915.8	2
293	90000	920.4	2
293	100000	924.8	2
293	110000	929.4	2
293	120000	933.6	2
293	130000	938	2
293	135000	939.9	2
293	137500	940.9	2
313	2000	852.2	2
313	3000	853	2
313	4000	853.9	2
313	5000	854.6	2
313	10000	858.6	2
313	20000	866.1	2
313	30000	872.9	2
313	40000	879	2
313	50000	884.8	2
313	60000	890.4	2
313	70000	896	2
313	80000	901.2	2
313	90000	906.3	2
313	100000	911	2
313	110000	915.7	2
313	120000	920.3	2
313	130000	924.8	2
313	135000	927	2
313	137500	927.9	2
333	2000	833	2
333	3000	834	2
333	4000	834.9	2
333	5000	835.8	2
333	10000	840.2	2
333	20000	848.2	2
333	30000	855.9	2
333	40000	863	2
333	50000	869.2	2
333	60000	875.6	2
333	70000	881.5	2
333	80000	887.1	2.1
333	90000	892.3	2.1
333	100000	897.6	2.1
333	110000	902.5	2.1
333	120000	907.3	2.1
333	130000	912	2.1
333	135000	914.2	2.1
333	137500	915.4	2.1
353	2000	814.2	2.1
353	3000	815.2	2
353	4000	816.3	2.1
353	5000	817.3	2
353	10000	822.4	2
353	20000	831.5	2
353	30000	840.1	2
353	40000	847.6	2
353	50000	854.7	2
353	60000	861.5	2.1
353	70000	867.7	2.1
353	80000	873.8	2.1
353	90000	879.6	2.1
353	100000	884.9	2.1
353	110000	890.3	2.1
353	120000	895.4	2.1
353	130000	900.3	2.1
353	135000	902.6	2.1
353	137500	903.7	2.1
373	2000	794.2	2.1
373	3000	795.4	2.1
373	4000	796.6	2.1
373	5000	797.8	2.1
373	10000	803.8	2.1
373	20000	814	2.1
373	30000	823.5	2.1
373	40000	832	2.1
373	50000	840.2	2.1
373	60000	847.2	2.1
373	70000	853.9	2.1
373	80000	860.3	2.1
373	90000	866.6	2.1
373	100000	872.2	2.1
373	110000	877.8	2.1
373	120000	883.3	2.1
373	130000	888.5	2.1
373	135000	890.8	2.1
373	137500	892	2.1
393	2000	774.2	2.1
393	3000	775.7	2.1
393	4000	777.2	2.1
393	5000	778.5	2
393	10000	785.1	2.1
393	20000	797	2.1
393	30000	807.5	2.1
393	40000	816.9	2.1
393	50000	825.2	2.1
393	60000	833.3	2.1
393	70000	840.6	2.1
393	80000	847.3	2.1
393	90000	854	2.1
393	100000	860.1	2.1
393	110000	866	2.1
393	120000	871.6	2.1
393	130000	877.2	2.1
393	135000	879.8	2.1
393	137500	881	2.1
413	2000	753.1	2.2
413	3000	754.9	2.1
413	4000	756.5	2.1
413	5000	758.3	2.1
413	10000	766.1	2.1
413	20000	779.5	2.1
413	30000	791.3	2.1
413	40000	801.6	2.1
413	50000	810.8	2.1
413	60000	819.2	2.1
413	70000	827.3	2.1
413	80000	834.6	2.1
413	90000	841.3	2.1
413	100000	848	2.1
413	110000	854.2	2.1
413	120000	860.2	2.1
413	130000	865.8	2.1
413	135000	868.5	2.1
413	137500	869.7	2.1
433	2000	731.6	2.2
433	3000	733.6	2.2
433	4000	735.6	2.2
433	5000	737.5	2.1
433	10000	746.9	2.1
433	20000	762.1	2.1
433	30000	774.9	2.1
433	40000	786.5	2.1
433	50000	796.7	2.1
433	60000	805.8	2.1
433	70000	814.3	2.1
433	80000	822	2.1
433	90000	829.2	2.1
433	100000	836	2.1
433	110000	842.6	2.1
433	120000	848.7	2.1
433	130000	854.9	2.2
433	135000	857.7	2.2
433	137500	859	2.2
448	2000	714.3	2.3
448	3000	716.6	2.2
448	4000	718.9	2.2
448	5000	721.1	2.2
448	10000	731.4	2.1
448	20000	748.5	2.1
448	30000	762.6	2.1
448	40000	774.7	2.1
448	50000	785.5	2.1
448	60000	795.1	2.1
448	70000	804.1	2.1
448	80000	812.3	2.1
448	90000	820	2.1
448	100000	827.2	2.1
448	110000	833.9	2.2
448	120000	840.2	2.2
448	130000	846.6	2.2
448	135000	849.6	2.2
448	137500	850.9	2.2
468	2000	689.9	2.3
468	3000	692.7	2.3
468	4000	695.5	2.3
468	5000	698.2	2.3
468	10000	710.6	2.2
468	20000	730.4	2.1
468	30000	745.9	2.1
468	40000	759.3	2.1
468	50000	771.1	2.1
468	60000	781.7	2.1
468	70000	790.9	2.1
468	80000	799.8	2.1
468	90000	808	2.2
468	100000	815.5	2.2
468	110000	822.8	2.2
468	120000	829.5	2.2
468	130000	836	2.2
468	135000	838.9	2.2
468	137500	840.4	2.2
