Measured thermophysical data. Phase behavior of beta-d galactose pentaacetate carbon dioxide binary system
Source: Fluid Phase Equilib., 2006, 10.1016/j.fluid.2005.11.013
Compound 1: .beta.-D-galactose pentaacetate, C16H22O11, InChI=1S/C16H22O11/c1-7(17)22-6-12-13(23-8(2)18)14(24-9(3)19)15(25-10(4)20)16(27-12)26-11(5)21/h12-16H,6H2,1-5H3/t12-,13+,14+,15-,16-/m1/s1, purity 98%
Compound 2: carbon dioxide, CO2, InChI=1S/CO2/c2-1-3

System: carbon dioxide + .beta.-D-galactose pentaacetate; phases: Liquid
Fixed: Temperature, K = 318
Fixed: Pressure, kPa = 17000
Property: Viscosity, Pa*s (Liquid); method: high pressure falling cylinger viscometer
Mass fraction of .beta.-D-galactose pentaacetate	Viscosity, Pa*s	uncertainty
0.18	9.5e-05	4e-06
0.25	0.000103	4e-06

System: carbon dioxide + .beta.-D-galactose pentaacetate; phases: Gas, Liquid
Property: Vapor or sublimation pressure, kPa (Gas); method: Closed cell (Static) method
Temperature, K	Mass fraction of .beta.-D-galactose pentaacetate	Vapor or sublimation pressure, kPa	uncertainty
308	0.021	9010	280
308	0.037	9390	330
308	0.075	9770	360
308	0.109	10060	360
308	0.128	10210	380
308	0.182	10280	380
313	0.021	10350	290
313	0.037	10890	320
313	0.075	11480	360
313	0.109	11790	370
313	0.128	11970	370
313	0.182	12090	380
318	0.021	11700	300
318	0.037	12380	330
318	0.075	13190	370
318	0.109	13520	380
318	0.128	13740	380
318	0.182	13890	390
323	0.021	13030	300
323	0.037	13880	300
323	0.075	14900	340
323	0.109	15260	390
323	0.128	15490	370
323	0.182	15690	400

System: carbon dioxide + .beta.-D-galactose pentaacetate; phases: Liquid, Gas
Property: Vapor or sublimation pressure, kPa (Liquid); method: Closed cell (Static) method
Temperature, K	Mass fraction of .beta.-D-galactose pentaacetate	Vapor or sublimation pressure, kPa	uncertainty
308	0.206	9980	380
308	0.259	10210	280
313	0.206	11820	390
313	0.259	11500	290
318	0.206	13650	410
318	0.259	12780	330
323	0.206	15490	450
323	0.259	14070	390

System: carbon dioxide + .beta.-D-galactose pentaacetate; phases: Liquid
Property: Mass density, kg/m3 (Liquid); method: Other PVT measurement
Mass fraction of .beta.-D-galactose pentaacetate	Temperature, K	Pressure, kPa	Mass density, kg/m3	uncertainty
0.206	308	10600	930	40
0.206	308	11400	940	40
0.206	308	12300	950	40
0.206	308	13700	960	40
0.206	308	15000	970	40
0.206	308	15500	970	40
0.206	313	12100	940	40
0.206	313	12700	940	40
0.206	313	13600	950	40
0.206	313	15100	960	40
0.206	313	16200	970	40
0.206	313	17500	980	40
0.206	313	18500	980	40
0.206	313	19400	980	40
0.206	318	14400	930	40
0.206	318	15100	940	40
0.206	318	15900	940	40
0.206	318	16700	950	40
0.206	318	17900	960	40
0.206	318	20300	970	40
0.206	323	15500	930	40
0.206	323	16000	940	40
0.206	323	16600	940	40
0.206	323	17700	950	40
0.206	323	18900	960	40
0.259	308	10600	990	40
0.259	308	11000	1000	40
0.259	308	11700	1010	40
0.259	308	12400	1020	40
0.259	308	13300	1030	40
0.259	308	14900	1040	40
0.259	308	17100	1060	40
0.259	313	11900	970	40
0.259	313	12600	980	40
0.259	313	13300	980	40
0.259	313	14200	990	40
0.259	313	15100	1000	40
0.259	313	15800	1010	40
0.259	313	17300	1020	40
0.259	313	19800	1040	40
