Measured thermophysical data. Experimental and correlational study of isobaric molar heat capacities of fatty acid esters: Ethyl nonanoate and ethyl dodecanoate
Source: Fluid Phase Equilib., 2019, 10.1016/j.fluid.2018.09.017
Compound 1: ethyl nonanoate, C11H22O2, InChI=1S/C11H22O2/c1-3-5-6-7-8-9-10-11(12)13-4-2/h3-10H2,1-2H3, purity 98.8%
Compound 2: ethyl dodecanoate, C14H28O2, InChI=1S/C14H28O2/c1-3-5-6-7-8-9-10-11-12-13-14(15)16-4-2/h3-13H2,1-2H3, purity 99.1%

System: ethyl nonanoate; phases: Liquid
Property: Molar heat capacity at constant pressure, J/K/mol (Liquid); method: Flow calorimetry
Temperature, K	Pressure, kPa	Molar heat capacity at constant pressure, J/K/mol	uncertainty
303.31	110	371	12
303.25	5000	371	12
303.22	9980	370	12
303.21	15150	369	12
303.24	20090	369	12
303.27	24930	368	12
313.23	170	377	12
313.26	5090	377	12
313.24	9850	376	12
313.22	14910	376	12
313.21	19900	375	12
313.24	24930	374	12
323.22	110	386	12
323.19	4970	385	12
323.23	10020	384	12
323.26	15190	383	12
323.24	20090	382	12
323.22	24920	382	12
333.18	140	394	13
333.16	4930	393	13
333.18	9950	393	13
333.21	15110	393	13
333.19	20150	392	13
333.23	25020	392	13
343.2	110	401	13
343.19	5070	400	13
343.19	9940	400	13
343.19	14950	400	13
343.21	19870	399	13
343.22	25210	399	13
353.14	160	407	13
353.11	4910	407	13
353.14	10160	406	13
353.15	14930	406	13
353.2	20210	405	13
353.23	25190	405	13
363.12	110	414	13
363.14	5090	413	13
363.17	10020	413	13
363.16	15060	412	13
363.17	20130	411	13
363.19	25160	410	13
373.12	100	420	13
373.12	4830	420	13
373.13	10020	419	13
373.13	15150	418	13
373.14	20170	418	13
373.14	24950	417	13
383.18	160	427	14
383.2	4950	426	14
383.2	10190	425	14
383.2	15000	425	14
383.22	20130	424	14
383.22	24950	424	14
393.18	110	434	14
393.18	5090	433	14
393.18	10020	433	14
393.19	15150	433	14
393.2	20190	432	14
393.24	24960	432	14

System: ethyl dodecanoate; phases: Liquid
Property: Molar heat capacity at constant pressure, J/K/mol (Liquid); method: Flow calorimetry
Temperature, K	Pressure, kPa	Molar heat capacity at constant pressure, J/K/mol	uncertainty
313.27	140	474	14
313.26	5030	472	14
313.26	9990	471	14
313.27	14970	470	14
313.29	20040	470	14
313.28	25150	469	14
323.22	160	480	14
323.23	4980	478	14
323.23	10110	477	14
323.23	14920	476	14
323.22	20140	475	14
323.22	25150	474	14
333.2	140	487	15
333.2	4920	485	15
333.2	10150	483	15
333.2	15060	482	14
333.2	19970	481	14
333.21	25020	480	14
343.15	140	493	15
343.16	5160	491	15
343.16	10270	489	15
343.19	15130	488	15
343.19	20220	487	15
343.21	25180	486	15
353.14	180	501	15
353.14	4970	498	15
353.17	9950	496	15
353.17	14920	494	15
353.17	20020	492	15
353.18	24950	491	15
363.17	110	508	15
363.18	5010	507	15
363.29	10190	505	15
363.29	15070	503	15
363.29	20150	501	15
363.29	25100	500	15
373.19	110	516	16
373.2	4900	514	15
373.21	10170	512	15
373.21	15020	511	15
373.22	19850	509	15
373.25	24930	508	15
383.23	100	523	16
383.23	5000	521	16
383.23	10040	520	16
383.24	15080	518	16
383.25	19940	517	16
383.28	25150	515	15
393.22	110	532	16
393.2	4910	530	16
393.22	10100	530	16
393.27	15020	529	16
393.23	19780	528	16
393.27	24830	527	16
