Measured thermophysical data. Thermodynamic analysis and correlation of solubility of disodium 5'-guanylate heptahydrate in aqueous ethanol mixtures
Source: Fluid Phase Equilib., 2014, 10.1016/j.fluid.2014.02.031
Compound 1: disodium 5'-guanylate heptahydrate, C10H26N5Na2O15P, InChI=1S/C10H14N5O8P.2Na.7H2O/c11-10-13-7-4(8(18)14-10)12-2-15(7)9-6(17)5(16)3(23-9)1-22-24(19,20)21;;;;;;;;;/h2-3,5-6,9,16-17H,1H2,(H2,19,20,21)(H3,11,13,14,18);;;7*1H2/q;2*+1;;;;;;;/p-2/t3-,5-,6-,9-;;;;;;;;;/m1........./s1
Compound 2: ethanol, C2H6O, InChI=1S/C2H6O/c1-2-3/h3H,2H2,1H3, purity 99.7%
Compound 3: water, H2O, InChI=1S/H2O/h1H2

System: disodium 5'-guanylate heptahydrate + ethanol + water; phases: Liquid, Crystal
Fixed: Pressure, kPa = 101
Property: Mole fraction of disodium 5'-guanylate heptahydrate (Liquid); method: Titration method
Temperature, K	Solvent: Mole fraction of ethanol	Mole fraction of disodium 5'-guanylate heptahydrate	uncertainty
278.15	0	0.006501	0.000201
278.15	0.0416	0.001451	0.000228
278.15	0.0891	0.0006032	0.000204
278.15	0.1435	0.0002927	0.0002011
278.15	0.2068	0.0001705	0.0001705
278.15	0.2811	8.921e-05	8.921e-05
278.15	0.3697	4.434e-05	4.434e-05
283.15	0	0.007077	0.000201
283.15	0.0416	0.002029	0.00023
283.15	0.0891	0.0008651	0.0002079
283.15	0.1435	0.0003839	0.0002023
283.15	0.2068	0.0002234	0.0002006
283.15	0.2811	0.0001137	0.0001137
283.15	0.3697	5.504e-05	5.504e-05
288.15	0	0.0077	0.000201
288.15	0.0416	0.002559	0.000233
288.15	0.0891	0.001165	0.000212
288.15	0.1435	0.0004937	0.0002044
288.15	0.2068	0.0002765	0.0002011
288.15	0.2811	0.0001402	0.0001402
288.15	0.3697	6.829e-05	6.829e-05
293.15	0	0.008301	0.000201
293.15	0.0416	0.003276	0.000236
293.15	0.0891	0.001475	0.00022
293.15	0.1435	0.0006357	0.000207
293.15	0.2068	0.0003524	0.0002019
293.15	0.2811	0.0001736	0.0001736
293.15	0.3697	8.17e-05	8.17e-05
298.15	0	0.008916	0.000201
298.15	0.0416	0.00412	0.000239
298.15	0.0891	0.001885	0.00023
298.15	0.1435	0.0008165	0.0002114
298.15	0.2068	0.0004462	0.0002031
298.15	0.2811	0.0002167	0.0002014
298.15	0.3697	9.123e-05	9.123e-05
303.15	0	0.009701	0.000202
303.15	0.0416	0.005182	0.000243
303.15	0.0891	0.002387	0.000246
303.15	0.1435	0.001035	0.000219
303.15	0.2068	0.0005405	0.0002052
303.15	0.2811	0.0002569	0.0002022
303.15	0.3697	0.0001031	0.0001031
308.15	0	0.01052	0.0002
308.15	0.0416	0.006298	0.000246
308.15	0.0891	0.002993	0.000263
308.15	0.1435	0.001357	0.000229
308.15	0.2068	0.0006538	0.0002097
308.15	0.2811	0.0002895	0.0002032
308.15	0.3697	0.0001207	0.0001207
313.15	0	0.01154	0.0002
313.15	0.0416	0.007844	0.00025
313.15	0.0891	0.00379	0.000294
313.15	0.1435	0.001608	0.000245
313.15	0.2068	0.0008135	0.0002134
313.15	0.2811	0.0003501	0.000205
313.15	0.3697	0.0001432	0.0001432
318.15	0	0.01271	0.0002
318.15	0.0416	0.009771	0.000256
318.15	0.0891	0.004587	0.000337
318.15	0.1435	0.001894	0.000264
318.15	0.2068	0.0009499	0.0002184
318.15	0.2811	0.0004115	0.0002069
318.15	0.3697	0.0001667	0.0001667
323.15	0	0.01416	0.0002
323.15	0.0416	0.01204	0.00026
323.15	0.0891	0.005238	0.000399
323.15	0.1435	0.002164	0.000284
323.15	0.2068	0.001057	0.000223
323.15	0.2811	0.0004913	0.0002085
323.15	0.3697	0.0001962	0.0001962
