Measured thermophysical data. Influence of the number, position and length of the alkyl-substituents on the solubility of water in pyridinium-based ionic liquids
Source: Fluid Phase Equilib., 2014, 10.1016/j.fluid.2014.09.028
Compound 1: water, H2O, InChI=1S/H2O/h1H2, purity 99.8%
Compound 2: 1-ethylpyridinium bis[(trifluoromethyl)sulfonyl]imide, C9H10F6N2O4S2, InChI=1S/C7H10N.C2F6NO4S2/c1-2-8-6-4-3-5-7-8;3-1(4,5)14(10,11)9-15(12,13)2(6,7)8/h3-7H,2H2,1H3;/q+1;-1, purity 99%
Compound 3: 1-ethyl-2-methylpyridinium bis((trifluoromethyl)sulfonyl)amide, C10H12F6N2O4S2, InChI=1S/C8H12N.C2F6NO4S2/c1-3-9-7-5-4-6-8(9)2;3-1(4,5)14(10,11)9-15(12,13)2(6,7)8/h4-7H,3H2,1-2H3;/q+1;-1, purity 99%
Compound 4: 1-ethyl-3-methylpyridinium bis((trifluoromethyl)sulfonyl)amide, C10H12F6N2O4S2, InChI=1S/C8H12N.C2F6NO4S2/c1-3-9-6-4-5-8(2)7-9;3-1(4,5)14(10,11)9-15(12,13)2(6,7)8/h4-7H,3H2,1-2H3;/q+1;-1, purity 99%
Compound 5: 1-ethyl-4-methylpyridinium bis((trifluoromethyl)sulfonyl)amide, C10H12F6N2O4S2, InChI=1S/C8H12N.C2F6NO4S2/c1-3-9-6-4-8(2)5-7-9;3-1(4,5)14(10,11)9-15(12,13)2(6,7)8/h4-7H,3H2,1-2H3;/q+1;-1, purity 99%
Compound 6: 1-butylpyridinium bis[(trifluoromethyl)sulfonyl]imide, C11H14F6N2O4S2, InChI=1S/C9H14N.C2F6NO4S2/c1-2-3-7-10-8-5-4-6-9-10;3-1(4,5)14(10,11)9-15(12,13)2(6,7)8/h4-6,8-9H,2-3,7H2,1H3;/q+1;-1, purity 99%
Compound 7: 1-butyl-2-methylpyridinium bis((trifluoromethyl)sulfonyl)amide, C12H16F6N2O4S2, InChI=1S/C10H16N.C2F6NO4S2/c1-3-4-8-11-9-6-5-7-10(11)2;3-1(4,5)14(10,11)9-15(12,13)2(6,7)8/h5-7,9H,3-4,8H2,1-2H3;/q+1;-1, purity 99%
Compound 8: 1-butyl-3-methylpyridinium 1,1,1-trifluoro-N-[(trifluoromethyl)sulfonyl]methanesulfonamide, C12H16F6N2O4S2, InChI=1S/C10H16N.C2F6NO4S2/c1-3-4-7-11-8-5-6-10(2)9-11;3-1(4,5)14(10,11)9-15(12,13)2(6,7)8/h5-6,8-9H,3-4,7H2,1-2H3;/q+1;-1, purity 99%
Compound 9: 1-butyl-4-methylpyridinium bis((trifluoromethyl)sulfonyl)amide, C12H16F6N2O4S2, InChI=1S/C10H16N.C2F6NO4S2/c1-3-4-7-11-8-5-10(2)6-9-11;3-1(4,5)14(10,11)9-15(12,13)2(6,7)8/h5-6,8-9H,3-4,7H2,1-2H3;/q+1;-1, purity 99%

System: water + 1-ethylpyridinium bis[(trifluoromethyl)sulfonyl]imide; phases: Liquid mixture 1, Liquid mixture 2
Fixed: Pressure, kPa = 101
Property: Mole fraction of water (Liquid mixture 1); method: Titration method
Temperature, K	Mole fraction of water	uncertainty
293.5	0.708	0.013
297.37	0.689	0.013
303.1	0.675	0.013
308.19	0.661	0.013
314.28	0.635	0.013
318.42	0.621	0.013
322.57	0.595	0.013
327.93	0.569	0.013
333.48	0.548	0.014
338.12	0.539	0.014
343.67	0.53	0.014

System: water + 1-ethyl-2-methylpyridinium bis((trifluoromethyl)sulfonyl)amide; phases: Liquid mixture 1, Liquid mixture 2
Fixed: Pressure, kPa = 101
Property: Mole fraction of water (Liquid mixture 1); method: Titration method
Temperature, K	Mole fraction of water	uncertainty
293.5	0.755	0.013
297.37	0.745	0.013
303.1	0.725	0.013
308.19	0.716	0.013
314.28	0.695	0.013
318.42	0.677	0.013
322.57	0.662	0.013
327.93	0.633	0.013
333.48	0.612	0.013
338.12	0.607	0.013
343.67	0.581	0.013

System: water + 1-ethyl-3-methylpyridinium bis((trifluoromethyl)sulfonyl)amide; phases: Liquid mixture 1, Liquid mixture 2
Fixed: Pressure, kPa = 101
Property: Mole fraction of water (Liquid mixture 1); method: Titration method
Temperature, K	Mole fraction of water	uncertainty
293.5	0.73	0.013
297.37	0.721	0.013
303.1	0.704	0.013
308.19	0.691	0.013
314.28	0.682	0.013
318.42	0.659	0.013
322.57	0.653	0.013
327.93	0.625	0.013
333.48	0.612	0.013
338.12	0.603	0.013
343.67	0.571	0.013

System: water + 1-ethyl-4-methylpyridinium bis((trifluoromethyl)sulfonyl)amide; phases: Liquid mixture 1, Liquid mixture 2
Fixed: Pressure, kPa = 101
Property: Mole fraction of water (Liquid mixture 1); method: Titration method
Temperature, K	Mole fraction of water	uncertainty
293.5	0.705	0.013
297.37	0.692	0.013
303.1	0.671	0.013
308.19	0.649	0.013
314.28	0.639	0.013
318.42	0.619	0.013
322.57	0.603	0.013
327.93	0.577	0.013
333.48	0.554	0.014
338.12	0.544	0.014
343.67	0.527	0.014

System: water + 1-butylpyridinium bis[(trifluoromethyl)sulfonyl]imide; phases: Liquid mixture 1, Liquid mixture 2
Fixed: Pressure, kPa = 101
Property: Mole fraction of water (Liquid mixture 1); method: Titration method
Temperature, K	Mole fraction of water	uncertainty
293.5	0.754	0.013
297.37	0.745	0.013
303.1	0.724	0.013
308.19	0.714	0.013
314.28	0.7	0.013
318.42	0.686	0.013
322.57	0.672	0.013
327.93	0.65	0.013
333.48	0.623	0.013
338.12	0.618	0.013
343.67	0.6	0.013

System: water + 1-butyl-2-methylpyridinium bis((trifluoromethyl)sulfonyl)amide; phases: Liquid mixture 1, Liquid mixture 2
Fixed: Pressure, kPa = 101
Property: Mole fraction of water (Liquid mixture 1); method: Titration method
Temperature, K	Mole fraction of water	uncertainty
293.5	0.801	0.012
297.37	0.786	0.012
303.1	0.768	0.012
308.19	0.758	0.012
314.28	0.738	0.013
318.42	0.722	0.013
322.57	0.713	0.013
327.93	0.691	0.013
333.48	0.664	0.013
338.12	0.646	0.013
343.67	0.622	0.013

System: water + 1-butyl-3-methylpyridinium 1,1,1-trifluoro-N-[(trifluoromethyl)sulfonyl]methanesulfonamide; phases: Liquid mixture 1, Liquid mixture 2
Fixed: Pressure, kPa = 101
Property: Mole fraction of water (Liquid mixture 1); method: Titration method
Temperature, K	Mole fraction of water	uncertainty
293.5	0.79	0.012
297.37	0.778	0.012
303.1	0.76	0.012
308.19	0.754	0.013
314.28	0.728	0.013
318.42	0.724	0.013
322.57	0.705	0.013
327.93	0.689	0.013
333.48	0.668	0.013
338.12	0.655	0.013
343.67	0.623	0.013

System: water + 1-butyl-4-methylpyridinium bis((trifluoromethyl)sulfonyl)amide; phases: Liquid mixture 1, Liquid mixture 2
Fixed: Pressure, kPa = 101
Property: Mole fraction of 1-butyl-4-methylpyridinium bis((trifluoromethyl)sulfonyl)amide (Liquid mixture 1); method: Titration method
Temperature, K	Mole fraction of 1-butyl-4-methylpyridinium bis((trifluoromethyl)sulfonyl)amide	uncertainty
293.5	0.761	0.012
297.37	0.751	0.013
303.1	0.728	0.013
308.19	0.714	0.013
314.28	0.692	0.013
318.42	0.682	0.013
322.57	0.668	0.013
327.93	0.655	0.013
333.48	0.619	0.013
338.12	0.609	0.013
343.67	0.595	0.013
