Measured thermophysical data. Liquid liquid equilibrium of (perfluoroalkane + alkane) binary mixtures
Source: Fluid Phase Equilib., 2006, 10.1016/j.fluid.2006.02.003
Compound 1: octadecafluorooctane, C8F18, InChI=1S/C8F18/c9-1(10,3(13,14)5(17,18)7(21,22)23)2(11,12)4(15,16)6(19,20)8(24,25)26
Compound 2: hexane, C6H14, InChI=1S/C6H14/c1-3-5-6-4-2/h3-6H2,1-2H3
Compound 3: heptane, C7H16, InChI=1S/C7H16/c1-3-5-7-6-4-2/h3-7H2,1-2H3
Compound 4: octane, C8H18, InChI=1S/C8H18/c1-3-5-7-8-6-4-2/h3-8H2,1-2H3
Compound 5: nonane, C9H20, InChI=1S/C9H20/c1-3-5-7-9-8-6-4-2/h3-9H2,1-2H3

System: hexane + octadecafluorooctane; phases: Liquid mixture 1, Liquid mixture 2
Fixed: Pressure, kPa = 101
Property: Liquid-liquid equilibrium temperature, K (Liquid mixture 1); method: VISOBS:UFactor:4
Mole fraction of octadecafluorooctane	Liquid-liquid equilibrium temperature, K	uncertainty
0.0806	293.98	0.62
0.1222	306.36	0.62
0.1683	308.95	0.62
0.2518	310.83	0.62
0.2997	310.81	0.62
0.347	310.71	0.62
0.3959	310.65	0.62
0.4425	309.61	0.62
0.4891	308.49	0.62
0.544	305.74	0.62
0.6	303.05	0.62
0.6657	296.93	0.62
0.6924	293.89	0.62

System: hexane + octadecafluorooctane; phases: Liquid mixture 1, Liquid mixture 2
Property: Vapor or sublimation pressure, kPa (Liquid mixture 1); method: visible
Mole fraction of octadecafluorooctane	Temperature, K	Vapor or sublimation pressure, kPa	uncertainty
0.2552	310.53	130	200
0.2552	310.98	710	200
0.2552	311.58	1480	200
0.2552	312.08	2180	200
0.2552	312.59	2880	200
0.2552	313.31	3780	200
0.2552	314.12	4950	200
0.2644	311.72	1430	200
0.2644	312.52	2450	200
0.2644	313.29	3400	200
0.2644	314.02	4420	200
0.2644	314.81	5450	200
0.2644	322.99	16700	230
0.2644	332.97	31000	280
0.2644	342.95	46500	360
0.2644	353	62800	450
0.2644	363.07	80200	550
0.2644	373.16	98000	660
0.2644	383.43	118500	790
0.2644	394.15	143000	950
0.2678	310.89	530	200
0.2678	311.13	850	200
0.2678	311.41	1230	200
0.2678	311.8	1740	200
0.2678	312.42	2570	200
0.2678	313.24	3600	200

System: heptane + octadecafluorooctane; phases: Liquid mixture 1, Liquid mixture 2
Fixed: Pressure, kPa = 101
Property: Liquid-liquid equilibrium temperature, K (Liquid mixture 1); method: VISOBS:UFactor:4
Mole fraction of octadecafluorooctane	Liquid-liquid equilibrium temperature, K	uncertainty
0.1024	319.13	0.62
0.1772	328.21	0.62
0.2611	330.76	0.62
0.3185	330.76	0.62
0.3818	330.96	0.62
0.4967	330.58	0.62
0.5437	329.8	0.62
0.7048	316.24	0.62

System: heptane + octadecafluorooctane; phases: Liquid mixture 1, Liquid mixture 2
Property: Vapor or sublimation pressure, kPa (Liquid mixture 1); method: visible
Mole fraction of octadecafluorooctane	Temperature, K	Vapor or sublimation pressure, kPa	uncertainty
0.2567	331.9	1520	200
0.2567	332.48	2240	200
0.2567	333.29	3200	200
0.2567	333.78	3830	200
0.3446	330.88	140	200
0.3446	331.33	600	200
0.3446	331.92	1370	200
0.3446	332.82	2410	200
0.3446	333.5	3280	200
0.3446	334.49	4460	200

System: octane + octadecafluorooctane; phases: Liquid mixture 1, Liquid mixture 2
Fixed: Pressure, kPa = 101
Property: Liquid-liquid equilibrium temperature, K (Liquid mixture 1); method: VISOBS:UFactor:2
Mole fraction of octadecafluorooctane	Liquid-liquid equilibrium temperature, K	uncertainty
0.0991	334.24	0.31
0.1669	345.48	0.31
0.2374	349.16	0.31
0.3013	350.52	0.31
0.4026	350.44	0.31
0.4984	349.7	0.31
0.5964	346.09	0.31
0.7245	336.01	0.31
0.764	327.71	0.31
0.8919	299.71	0.31

System: octane + octadecafluorooctane; phases: Liquid mixture 1, Liquid mixture 2
Property: Vapor or sublimation pressure, kPa (Liquid mixture 1); method: visible
Mole fraction of octadecafluorooctane	Temperature, K	Vapor or sublimation pressure, kPa	uncertainty
0.3608	349.8	150	200
0.3608	350.18	600	200
0.3608	350.93	1480	200
0.3608	351.8	2490	200
0.3608	352.64	3460	200
0.3608	353.44	4420	200
0.751	329.308	290	200
0.751	329.668	700	200
0.751	330.127	1270	200
0.751	330.628	1870	200
0.751	331.124	2540	200
0.751	331.619	3040	200
0.751	331.999	3550	200
0.751	332.302	4020	200
0.751	332.604	4260	200

System: nonane + octadecafluorooctane; phases: Liquid mixture 1, Liquid mixture 2
Fixed: Pressure, kPa = 101
Property: Liquid-liquid equilibrium temperature, K (Liquid mixture 1); method: VISOBS:UFactor:2
Mole fraction of octadecafluorooctane	Liquid-liquid equilibrium temperature, K	uncertainty
0.1116	352.09	0.31
0.165	362.24	0.31
0.2526	367.65	0.31
0.3505	368.85	0.31
0.4342	368.49	0.31
0.5395	367.46	0.31
0.6391	362.59	0.31
0.7639	349.16	0.31
0.8805	322.99	0.31

System: nonane + octadecafluorooctane; phases: Liquid mixture 1, Liquid mixture 2
Fixed: Mole fraction of octadecafluorooctane = 0.0828
Property: Vapor or sublimation pressure, kPa (Liquid mixture 1); method: visible
Temperature, K	Vapor or sublimation pressure, kPa	uncertainty
344.34	160	200
344.68	840	200
345.34	1850	200
345.78	2500	200
346.46	3480	200
347.12	4410	200
