Measured thermophysical data. Vapor-liquid equilibrium of mixtures containing formaldehyde, water, and butynediol
Source: Fluid Phase Equilib., 2019, 10.1016/j.fluid.2019.02.029
Compound 1: methanal, CH2O, InChI=1S/CH2O/c1-2/h1H2, purity 99%
Compound 2: water, H2O, InChI=1S/H2O/h1H2, purity 99.8%
Compound 3: 2-butyn-1,4-diol, C4H6O2, InChI=1S/C4H6O2/c5-3-1-2-4-6/h5-6H,3-4H2, purity 99%

System: methanal + water + 2-butyn-1,4-diol; phases: Liquid, Gas
Property: Vapor or sublimation pressure, kPa (Liquid); method: Closed cell (Static) method
Temperature, K	Mass fraction of methanal	Mass fraction of 2-butyn-1,4-diol	Vapor or sublimation pressure, kPa	uncertainty
393.4	0.0102	0.3418	184.4	1.6
393.1	0.0129	0.2212	189.7	1.3
393.2	0.0195	0.1068	198	1.1
393.1	0.0202	0.2167	190.9	1.3
393.3	0.0301	0.3456	184.8	1.7
393.2	0.0477	0.2278	194	1.2
393.1	0.0483	0.0504	202.9	1.3
392.8	0.0489	0.2228	191.6	1.1
393.2	0.0494	0.0535	203.5	1.3
393.2	0.0626	0.1048	200.3	1.2
393.2	0.0932	0.2131	198.5	1.3
393.2	0.0959	0.1125	203.4	1.3
393.2	0.1193	0.1389	204.5	1.2
413.2	0.0092	0.2085	350.7	2
413.3	0.017	0.1105	362.4	1.6
413.3	0.0191	0.3247	340.8	2.7
413.3	0.0442	0.1814	371.1	2
413.2	0.0452	0.1063	372.4	1.7
413.2	0.0456	0.2866	352.3	3.4
413.2	0.0465	0.0532	377.8	1.6
413.3	0.0803	0.1905	371.8	2
413.2	0.0905	0.0949	383.4	2
413.2	0.1675	0.1762	393.1	3

System: methanal + water + 2-butyn-1,4-diol; phases: Liquid, Gas
Fixed: Pressure, kPa = 101
Property: Mass fraction of methanal (Liquid); method: Chromatography
Property: Mass fraction of 2-butyn-1,4-diol (Gas); method: Chromatography
Property: Mass fraction of methanal (Gas); method: Chromatography
Temperature, K	Mass fraction of 2-butyn-1,4-diol	Mass fraction of methanal	uncertainty	Mass fraction of 2-butyn-1,4-diol	uncertainty	Mass fraction of methanal	uncertainty
393.4	0.3418	0.0102	0.0006	0.0019	0.0001	0.0131	
413.2	0.1063	0.0452	0.0027	0		0.0957	
413.2	0.2866	0.0456	0.0028	0.0024	0.0002	0.0786	
393.1	0.2212	0.0129	0.0008	0.001	0.0001	0.0181	
413.2	0.0532	0.0465	0.0028	0		0.0993	
413.3	0.1905	0.0803	0.0049	0.0015	0.0001	0.1423	
413.2	0.0949	0.0905	0.0055	0.0011	0.0001	0.1673	
413.2	0.1762	0.1675	0.0101	0.0011	0.0001	0.261	
393.2	0.1068	0.0195	0.0012	0		0.0314	
393.1	0.2167	0.0202	0.0012	0.001	0.0001	0.0295	
393.3	0.3456	0.0301	0.0018	0.0015	0.0001	0.0379	
393.2	0.1048	0.0626	0.0038	0		0.0959	
393.2	0.2278	0.0477	0.0029	0		0.0687	
393.1	0.0504	0.0483	0.0029	0		0.084	
392.8	0.2228	0.0489	0.003	0		0.0658	
393.2	0.0535	0.0494	0.003	0		0.087	
393.2	0.2131	0.0932	0.0056	0		0.1253	
393.2	0.1125	0.0959	0.0058	0		0.139	
393.2	0.1389	0.1193	0.0072	0		0.167	
413.2	0.2085	0.0092	0.0006	0.003	0.0002	0.0172	
413.3	0.1105	0.017	0.001	0.0013	0.0001	0.0337	
413.3	0.3247	0.0191	0.0012	0.0034	0.0002	0.032	
413.3	0.1814	0.0442	0.0027	0.0014	0.0001	0.078	
