Measured thermophysical data. Thermodynamic properties of mixtures containing alkoxypropanol and n-alkanol
Source: Fluid Phase Equilib., 2008, 10.1016/j.fluid.2008.02.005
Compound 1: 2-(2-hexyloxyethoxy)ethanol, C10H22O3, InChI=1S/C10H22O3/c1-2-3-4-5-7-12-9-10-13-8-6-11/h11H,2-10H2,1H3, purity 99.5%
Compound 2: heptan-1-ol, C7H16O, InChI=1S/C7H16O/c1-2-3-4-5-6-7-8/h8H,2-7H2,1H3, purity 98%
Compound 3: methanol, CH4O, InChI=1S/CH4O/c1-2/h2H,1H3
Compound 4: propan-1-ol, C3H8O, InChI=1S/C3H8O/c1-2-3-4/h4H,2-3H2,1H3
Compound 5: pentan-1-ol, C5H12O, InChI=1S/C5H12O/c1-2-3-4-5-6/h6H,2-5H2,1H3

System: 2-(2-hexyloxyethoxy)ethanol; phases: Liquid
Fixed: Pressure, kPa = 101.325
Property: Mass density, kg/m3 (Liquid); method: VIBTUB:UFactor:4
Temperature, K	Mass density, kg/m3	uncertainty
288.15	924.348	0.287
298.15	915.522	0.3
308.15	906.642	0.314

System: heptan-1-ol; phases: Liquid
Fixed: Pressure, kPa = 101.325
Property: Mass density, kg/m3 (Liquid); method: VIBTUB:UFactor:4
Temperature, K	Mass density, kg/m3	uncertainty
288.15	825.943	0.435
298.15	818.789	0.446
308.15	812.385	0.456

System: methanol; phases: Liquid
Fixed: Pressure, kPa = 101.325
Property: Mass density, kg/m3 (Liquid); method: VIBTUB:UFactor:4
Temperature, K	Mass density, kg/m3	uncertainty
288.15	795.969	0.48
298.15	786.548	0.495
308.15	777.067	0.51

System: propan-1-ol; phases: Liquid
Fixed: Pressure, kPa = 101.325
Property: Mass density, kg/m3 (Liquid); method: VIBTUB:UFactor:4
Temperature, K	Mass density, kg/m3	uncertainty
288.15	807.898	0.462
298.15	799.666	0.475
308.15	791.765	0.487

System: pentan-1-ol; phases: Liquid
Fixed: Pressure, kPa = 101.325
Property: Mass density, kg/m3 (Liquid); method: VIBTUB:UFactor:4
Temperature, K	Mass density, kg/m3	uncertainty
288.15	818.336	0.446
298.15	811.001	0.458
308.15	803.302	0.47

System: methanol + 2-(2-hexyloxyethoxy)ethanol; phases: Liquid
Fixed: Pressure, kPa = 101
Property: Mass density, kg/m3 (Liquid); method: VIBTUB:UFactor:4
Temperature, K	Mole fraction of 2-(2-hexyloxyethoxy)ethanol	Mass density, kg/m3	uncertainty
288.15	0.1165	853.467	0.393
288.15	0.162	865.705	0.374
288.15	0.2113	875.875	0.358
288.15	0.266	884.716	0.344
288.15	0.3119	890.88	0.335
288.15	0.3606	896.388	0.327
288.15	0.4012	900.31	0.321
288.15	0.4577	904.872	0.314
288.15	0.5071	908.159	0.309
288.15	0.5578	911.041	0.304
288.15	0.6037	913.218	0.301
288.15	0.6644	915.682	0.297
288.15	0.7102	917.283	0.295
288.15	0.7533	918.633	0.293
288.15	0.7928	919.837	0.291
288.15	0.8517	921.511	0.289
288.15	0.9	922.714	0.287
288.15	0.9674	924.001	0.285
298.15	0.1165	844.018	0.407
298.15	0.162	856.244	0.388
298.15	0.2113	866.451	0.372
298.15	0.266	875.458	0.358
298.15	0.3119	881.656	0.348
298.15	0.3606	887.19	0.34
298.15	0.4012	891.16	0.334
298.15	0.4577	895.844	0.327
298.15	0.5071	899.262	0.322
298.15	0.5578	902.168	0.317
298.15	0.6037	904.353	0.314
298.15	0.6644	906.87	0.31
298.15	0.7102	908.456	0.308
298.15	0.7533	909.864	0.306
298.15	0.7928	911.054	0.304
298.15	0.8517	912.714	0.302
298.15	0.9	913.911	0.3
298.15	0.9674	915.182	0.298
308.15	0.1165	834.816	0.42
308.15	0.162	846.965	0.402
308.15	0.2113	857.177	0.386
308.15	0.266	866.337	0.372
308.15	0.3119	872.742	0.362
308.15	0.3606	878.481	0.353
308.15	0.4012	882.585	0.347
308.15	0.4577	887.363	0.34
308.15	0.5071	890.741	0.334
308.15	0.5578	893.568	0.33
308.15	0.6037	895.701	0.327
308.15	0.6644	898.078	0.323
308.15	0.7102	899.602	0.321
308.15	0.7533	901.011	0.319
308.15	0.7928	902.199	0.317
308.15	0.8517	903.777	0.315
308.15	0.9	905.244	0.313
308.15	0.9674	906.508	0.311

System: propan-1-ol + 2-(2-hexyloxyethoxy)ethanol; phases: Liquid
Fixed: Pressure, kPa = 101
Property: Mass density, kg/m3 (Liquid); method: VIBTUB:UFactor:4
Temperature, K	Mole fraction of 2-(2-hexyloxyethoxy)ethanol	Mass density, kg/m3	uncertainty
288.15	0.1085	837.518	0.415
288.15	0.1608	848.615	0.398
288.15	0.2102	857.751	0.384
288.15	0.2477	863.891	0.375
288.15	0.2972	871.227	0.364
288.15	0.3493	878.129	0.354
288.15	0.4048	884.6	0.344
288.15	0.46	890.404	0.335
288.15	0.5003	894.261	0.329
288.15	0.5584	899.282	0.322
288.15	0.6066	903.088	0.316
288.15	0.6604	906.948	0.311
288.15	0.6964	909.32	0.307
288.15	0.7532	912.745	0.302
288.15	0.8054	915.595	0.298
288.15	0.8563	918.152	0.294
288.15	0.9044	920.357	0.291
288.15	0.9593	922.69	0.287
298.15	0.1085	829.325	0.427
298.15	0.1608	840.381	0.411
298.15	0.2102	849.425	0.397
298.15	0.2477	855.521	0.387
298.15	0.2972	862.829	0.376
298.15	0.3493	869.65	0.366
298.15	0.4048	876.088	0.356
298.15	0.46	881.84	0.348
298.15	0.5003	885.64	0.342
298.15	0.5584	890.668	0.335
298.15	0.6066	894.428	0.329
298.15	0.6604	898.225	0.323
298.15	0.6964	900.561	0.32
298.15	0.7532	903.981	0.315
298.15	0.8054	906.826	0.311
298.15	0.8563	909.394	0.307
298.15	0.9044	911.598	0.304
298.15	0.9593	913.937	0.3
308.15	0.1085	820.919	0.439
308.15	0.1608	831.968	0.423
308.15	0.2102	841.022	0.409
308.15	0.2477	847.161	0.4
308.15	0.2972	854.397	0.389
308.15	0.3493	861.101	0.379
308.15	0.4048	867.464	0.369
308.15	0.46	873.153	0.361
308.15	0.5003	876.925	0.355
308.15	0.5584	881.873	0.348
308.15	0.6066	885.633	0.342
308.15	0.6604	889.461	0.336
308.15	0.6964	891.847	0.333
308.15	0.7532	895.267	0.328
308.15	0.8054	898.1	0.323
308.15	0.8563	900.587	0.32
308.15	0.9044	902.735	0.317
308.15	0.9593	905.015	0.313

System: pentan-1-ol + 2-(2-hexyloxyethoxy)ethanol; phases: Liquid
Fixed: Pressure, kPa = 101
Property: Mass density, kg/m3 (Liquid); method: VIBTUB:UFactor:4
Temperature, K	Mole fraction of 2-(2-hexyloxyethoxy)ethanol	Mass density, kg/m3	uncertainty
288.15	0.1112	837.545	0.414
288.15	0.1587	846.35	0.401
288.15	0.2096	855.128	0.388
288.15	0.2584	862.625	0.377
288.15	0.3012	868.44	0.368
288.15	0.3558	874.88	0.358
288.15	0.4022	879.672	0.351
288.15	0.4506	884.17	0.344
288.15	0.5069	889.049	0.337
288.15	0.541	891.897	0.333
288.15	0.5971	896.445	0.326
288.15	0.6456	900.337	0.32
288.15	0.6998	904.59	0.314
288.15	0.747	908.177	0.309
288.15	0.8052	912.354	0.303
288.15	0.8501	915.348	0.298
288.15	0.9008	918.511	0.293
288.15	0.9459	921.161	0.29
298.15	0.1112	830.059	0.425
298.15	0.1587	838.122	0.413
298.15	0.2096	846.145	0.401
298.15	0.2584	853.171	0.391
298.15	0.3012	858.72	0.382
298.15	0.3558	865.166	0.373
298.15	0.4022	870.098	0.365
298.15	0.4506	874.849	0.358
298.15	0.5069	880.057	0.35
298.15	0.541	883.079	0.346
298.15	0.5971	887.853	0.339
298.15	0.6456	891.848	0.333
298.15	0.6998	896.131	0.327
298.15	0.747	899.702	0.321
298.15	0.8052	903.888	0.315
298.15	0.8501	906.892	0.311
298.15	0.9008	910.007	0.306
298.15	0.9459	912.609	0.302
308.15	0.1112	822.319	0.437
308.15	0.1587	830.389	0.425
308.15	0.2096	838.566	0.412
308.15	0.2584	845.659	0.402
308.15	0.3012	851.35	0.393
308.15	0.3558	857.77	0.383
308.15	0.4022	862.642	0.376
308.15	0.4506	867.245	0.369
308.15	0.5069	872.125	0.362
308.15	0.541	874.951	0.358
308.15	0.5971	879.382	0.351
308.15	0.6456	883.098	0.346
308.15	0.6998	887.198	0.34
308.15	0.747	890.721	0.335
308.15	0.8052	894.96	0.328
308.15	0.8501	898.056	0.324
308.15	0.9008	901.375	0.319
308.15	0.9459	903.991	0.315

System: heptan-1-ol + 2-(2-hexyloxyethoxy)ethanol; phases: Liquid
Fixed: Pressure, kPa = 101
Property: Mass density, kg/m3 (Liquid); method: VIBTUB:UFactor:4
Temperature, K	Mole fraction of 2-(2-hexyloxyethoxy)ethanol	Mass density, kg/m3	uncertainty
288.15	0.1109	840.489	0.409
288.15	0.1592	846.447	0.4
288.15	0.1986	851.154	0.393
288.15	0.258	857.994	0.383
288.15	0.3094	863.644	0.375
288.15	0.3515	868.149	0.368
288.15	0.3927	872.418	0.362
288.15	0.4463	877.834	0.354
288.15	0.5084	883.872	0.345
288.15	0.5574	888.492	0.338
288.15	0.6167	893.921	0.33
288.15	0.6511	896.97	0.325
288.15	0.7101	902.042	0.318
288.15	0.7491	905.269	0.313
288.15	0.8085	910.029	0.306
288.15	0.8543	913.588	0.301
288.15	0.9087	917.663	0.295
288.15	0.9487	920.583	0.291
298.15	0.1109	833.182	0.42
298.15	0.1592	839.091	0.411
298.15	0.1986	843.756	0.404
298.15	0.258	850.491	0.394
298.15	0.3094	856.08	0.386
298.15	0.3515	860.468	0.379
298.15	0.3927	864.636	0.373
298.15	0.4463	869.912	0.365
298.15	0.5084	875.796	0.357
298.15	0.5574	880.349	0.35
298.15	0.6167	885.645	0.342
298.15	0.6511	888.674	0.338
298.15	0.7101	893.703	0.33
298.15	0.7491	896.923	0.325
298.15	0.8085	901.658	0.318
298.15	0.8543	905.198	0.313
298.15	0.9087	909.197	0.307
298.15	0.9487	912.028	0.303
308.15	0.1109	825.922	0.431
308.15	0.1592	831.645	0.422
308.15	0.1986	836.178	0.415
308.15	0.258	842.797	0.406
308.15	0.3094	848.254	0.397
308.15	0.3515	852.588	0.391
308.15	0.3927	856.716	0.385
308.15	0.4463	861.89	0.377
308.15	0.5084	867.692	0.369
308.15	0.5574	872.159	0.362
308.15	0.6167	877.389	0.354
308.15	0.6511	880.331	0.35
308.15	0.7101	885.279	0.343
308.15	0.7491	888.446	0.338
308.15	0.8085	893.122	0.331
308.15	0.8543	896.613	0.326
308.15	0.9087	900.531	0.32
308.15	0.9487	903.307	0.316
