Measured thermophysical data. Activity coefficients at infinite dilution of organic solutes in 1-octyl-3-methylimidazolium nitrate using gas-liquid chromatography
Source: Fluid Phase Equilib., 2012, 10.1016/j.fluid.2012.05.006
Compound 1: 1-methyl-3-octylimidazolium nitrate, C12H23N3O3, InChI=1S/C12H23N2.NO3/c1-3-4-5-6-7-8-9-14-11-10-13(2)12-14;2-1(3)4/h10-12H,3-9H2,1-2H3;/q+1;-1, purity 99%
Compound 2: pentane, C5H12, InChI=1S/C5H12/c1-3-5-4-2/h3-5H2,1-2H3, purity 99%
Compound 3: hexane, C6H14, InChI=1S/C6H14/c1-3-5-6-4-2/h3-6H2,1-2H3, purity 99%
Compound 4: heptane, C7H16, InChI=1S/C7H16/c1-3-5-7-6-4-2/h3-7H2,1-2H3, purity 99%
Compound 5: octane, C8H18, InChI=1S/C8H18/c1-3-5-7-8-6-4-2/h3-8H2,1-2H3, purity 99%
Compound 6: nonane, C9H20, InChI=1S/C9H20/c1-3-5-7-9-8-6-4-2/h3-9H2,1-2H3, purity 98%
Compound 7: 2,2,4-trimethylpentane, C8H18, InChI=1S/C8H18/c1-7(2)6-8(3,4)5/h7H,6H2,1-5H3, purity 98%
Compound 8: cyclohexane, C6H12, InChI=1S/C6H12/c1-2-4-6-5-3-1/h1-6H2, purity 98%
Compound 9: methylcyclohexane, C7H14, InChI=1S/C7H14/c1-7-5-3-2-4-6-7/h7H,2-6H2,1H3, purity 99%
Compound 10: benzene, C6H6, InChI=1S/C6H6/c1-2-4-6-5-3-1/h1-6H, purity 99.5%
Compound 11: toluene, C7H8, InChI=1S/C7H8/c1-7-5-3-2-4-6-7/h2-6H,1H3, purity 99.5%
Compound 12: ethylbenzene, C8H10, InChI=1S/C8H10/c1-2-8-6-4-3-5-7-8/h3-7H,2H2,1H3, purity 99%
Compound 13: 1,2-dimethylbenzene, C8H10, InChI=1S/C8H10/c1-7-5-3-4-6-8(7)2/h3-6H,1-2H3, purity 98.5%
Compound 14: 1,3-dimethylbenzene, C8H10, InChI=1S/C8H10/c1-7-4-3-5-8(2)6-7/h3-6H,1-2H3, purity 95%
Compound 15: 1,4-dimethylbenzene, C8H10, InChI=1S/C8H10/c1-7-3-5-8(2)6-4-7/h3-6H,1-2H3, purity 99%
Compound 16: methanol, CH4O, InChI=1S/CH4O/c1-2/h2H,1H3, purity 99.5%
Compound 17: ethanol, C2H6O, InChI=1S/C2H6O/c1-2-3/h3H,2H2,1H3, purity 98%
Compound 18: propan-1-ol, C3H8O, InChI=1S/C3H8O/c1-2-3-4/h4H,2-3H2,1H3, purity 99%
Compound 19: propan-2-ol, C3H8O, InChI=1S/C3H8O/c1-3(2)4/h3-4H,1-2H3, purity 99%
Compound 20: acetonitrile, C2H3N, InChI=1S/C2H3N/c1-2-3/h1H3, purity 99%
Compound 21: ethyl acetate, C4H8O2, InChI=1S/C4H8O2/c1-3-6-4(2)5/h3H2,1-2H3, purity 99%
Compound 22: acetone, C3H6O, InChI=1S/C3H6O/c1-3(2)4/h1-2H3, purity 98%
Compound 23: tetrahydrofuran, C4H8O, InChI=1S/C4H8O/c1-2-4-5-3-1/h1-4H2, purity 99%
Compound 24: dichloromethane, CH2Cl2, InChI=1S/CH2Cl2/c2-1-3/h1H2, purity 99.5%
Compound 25: trichloromethane, CHCl3, InChI=1S/CHCl3/c2-1(3)4/h1H, purity 99%
Compound 26: tetrachloromethane, CCl4, InChI=1S/CCl4/c2-1(3,4)5, purity 99.5%

System: pentane + 1-methyl-3-octylimidazolium nitrate; phases: Liquid, Gas
Fixed: Mole fraction of pentane = 0
Property: Activity coefficient of pentane (Liquid); method: Chromatography
Temperature, K	Activity coefficient of pentane	uncertainty
303.15	8.5	0.3
313.15	7.8	0.28
323.15	7.45	0.26
333.15	6.94	0.25
343.15	6.46	0.23
353.15	6.19	0.22
363.15	5.77	0.21

System: hexane + 1-methyl-3-octylimidazolium nitrate; phases: Liquid, Gas
Fixed: Mole fraction of hexane = 0
Property: Activity coefficient of hexane (Liquid); method: Chromatography
Temperature, K	Activity coefficient of hexane	uncertainty
303.15	12.13	0.43
313.15	11.15	0.4
323.15	10.48	0.37
333.15	9.74	0.35
343.15	9.05	0.32
353.15	8.5	0.3
363.15	8.16	0.29

System: heptane + 1-methyl-3-octylimidazolium nitrate; phases: Liquid, Gas
Fixed: Mole fraction of heptane = 0
Property: Activity coefficient of heptane (Liquid); method: Chromatography
Temperature, K	Activity coefficient of heptane	uncertainty
303.15	15.39	0.55
313.15	14.26	0.51
323.15	13.32	0.48
333.15	12.35	0.44
343.15	11.75	0.42
353.15	11.17	0.4
363.15	10.44	0.37

System: octane + 1-methyl-3-octylimidazolium nitrate; phases: Liquid, Gas
Fixed: Mole fraction of octane = 0
Property: Activity coefficient of octane (Liquid); method: Chromatography
Temperature, K	Activity coefficient of octane	uncertainty
303.15	17.86	0.64
313.15	17	0.61
323.15	16.17	0.58
333.15	15.71	0.56
343.15	15.19	0.54
353.15	14.83	0.53
363.15	14.07	0.5

System: nonane + 1-methyl-3-octylimidazolium nitrate; phases: Liquid, Gas
Fixed: Mole fraction of nonane = 0
Property: Activity coefficient of nonane (Liquid); method: Chromatography
Temperature, K	Activity coefficient of nonane	uncertainty
303.15	23.08	0.83
313.15	21.8	0.78
323.15	20.92	0.75
333.15	20.1	0.72
343.15	19.56	0.7
353.15	18.58	0.67
363.15	18.23	0.65

System: 2,2,4-trimethylpentane + 1-methyl-3-octylimidazolium nitrate; phases: Liquid, Gas
Fixed: Mole fraction of 2,2,4-trimethylpentane = 0
Property: Activity coefficient of 2,2,4-trimethylpentane (Liquid); method: Chromatography
Temperature, K	Activity coefficient of 2,2,4-trimethylpentane	uncertainty
303.15	18.49	0.66
313.15	16.75	0.6
323.15	15.36	0.55
333.15	14.14	0.51
343.15	13.33	0.48
353.15	12.34	0.44
363.15	11.45	0.41

System: cyclohexane + 1-methyl-3-octylimidazolium nitrate; phases: Liquid, Gas
Fixed: Mole fraction of cyclohexane = 0
Property: Activity coefficient of cyclohexane (Liquid); method: Chromatography
Temperature, K	Activity coefficient of cyclohexane	uncertainty
303.15	6.52	0.23
313.15	6.27	0.22
323.15	5.89	0.21
333.15	5.58	0.2
343.15	5.27	0.19
353.15	5.09	0.19
363.15	4.93	0.18

System: methylcyclohexane + 1-methyl-3-octylimidazolium nitrate; phases: Liquid, Gas
Fixed: Mole fraction of methylcyclohexane = 0
Property: Activity coefficient of methylcyclohexane (Liquid); method: Chromatography
Temperature, K	Activity coefficient of methylcyclohexane	uncertainty
303.15	7.91	0.28
313.15	7.7	0.27
323.15	7.37	0.26
333.15	7.11	0.25
343.15	6.81	0.24
353.15	6.62	0.23
363.15	6.41	0.23

System: benzene + 1-methyl-3-octylimidazolium nitrate; phases: Liquid, Gas
Fixed: Mole fraction of benzene = 0
Property: Activity coefficient of benzene (Liquid); method: Chromatography
Temperature, K	Activity coefficient of benzene	uncertainty
303.15	0.94	0.09
313.15	0.96	0.09
323.15	0.97	0.09
333.15	0.98	0.09
343.15	0.99	0.09
353.15	1	0.09
363.15	1.01	0.09

System: toluene + 1-methyl-3-octylimidazolium nitrate; phases: Liquid, Gas
Fixed: Mole fraction of toluene = 0
Property: Activity coefficient of toluene (Liquid); method: Chromatography
Temperature, K	Activity coefficient of toluene	uncertainty
303.15	1.41	0.1
313.15	1.41	0.1
323.15	1.42	0.1
333.15	1.43	0.1
343.15	1.44	0.1
353.15	1.45	0.1
363.15	1.46	0.1

System: ethylbenzene + 1-methyl-3-octylimidazolium nitrate; phases: Liquid
Fixed: Pressure, kPa = 101
Fixed: Mole fraction of ethylbenzene = 0
Property: Activity coefficient of ethylbenzene (Liquid); method: Chromatography
Temperature, K	Activity coefficient of ethylbenzene	uncertainty
303.15	2.05	0.11
313.15	2.06	0.11
323.15	2.06	0.11
333.15	2.07	0.11
343.15	2.07	0.11
353.15	2.08	0.11
363.15	2.09	0.11

System: 1,2-dimethylbenzene + 1-methyl-3-octylimidazolium nitrate; phases: Liquid, Gas
Fixed: Mole fraction of 1,2-dimethylbenzene = 0
Property: Activity coefficient of 1,2-dimethylbenzene (Liquid); method: Chromatography
Temperature, K	Activity coefficient of 1,2-dimethylbenzene	uncertainty
303.15	1.75	0.1
313.15	1.77	0.1
323.15	1.79	0.11
333.15	1.8	0.11
343.15	1.82	0.11
353.15	1.84	0.11
363.15	1.85	0.11

System: 1,3-dimethylbenzene + 1-methyl-3-octylimidazolium nitrate; phases: Liquid, Gas
Fixed: Mole fraction of 1,3-dimethylbenzene = 0
Property: Activity coefficient of 1,3-dimethylbenzene (Liquid); method: Chromatography
Temperature, K	Activity coefficient of 1,3-dimethylbenzene	uncertainty
303.15	2.02	0.11
313.15	2.03	0.11
323.15	2.05	0.11
333.15	2.06	0.11
343.15	2.07	0.11
353.15	2.08	0.11
363.15	2.09	0.11

System: 1,4-dimethylbenzene + 1-methyl-3-octylimidazolium nitrate; phases: Liquid, Gas
Fixed: Mole fraction of 1,4-dimethylbenzene = 0
Property: Activity coefficient of 1,4-dimethylbenzene (Liquid); method: Chromatography
Temperature, K	Activity coefficient of 1,4-dimethylbenzene	uncertainty
303.15	1.98	0.11
313.15	1.99	0.11
323.15	2	0.11
333.15	2.01	0.11
343.15	2.01	0.11
353.15	2.02	0.11
363.15	2.03	0.11

System: methanol + 1-methyl-3-octylimidazolium nitrate; phases: Liquid, Gas
Fixed: Mole fraction of methanol = 0
Property: Activity coefficient of methanol (Liquid); method: Chromatography
Temperature, K	Activity coefficient of methanol	uncertainty
303.15	0.26	0.09
313.15	0.26	0.09
323.15	0.25	0.09
333.15	0.24	0.09
343.15	0.23	0.09
353.15	0.23	0.09
363.15	0.22	0.09

System: ethanol + 1-methyl-3-octylimidazolium nitrate; phases: Liquid, Gas
Fixed: Mole fraction of ethanol = 0
Property: Activity coefficient of ethanol (Liquid); method: Chromatography
Temperature, K	Activity coefficient of ethanol	uncertainty
303.15	0.38	0.09
313.15	0.37	0.09
323.15	0.35	0.09
333.15	0.34	0.09
343.15	0.33	0.09
353.15	0.31	0.09
363.15	0.3	0.09

System: propan-1-ol + 1-methyl-3-octylimidazolium nitrate; phases: Liquid, Gas
Fixed: Mole fraction of propan-1-ol = 0
Property: Activity coefficient of propan-1-ol (Liquid); method: Chromatography
Temperature, K	Activity coefficient of propan-1-ol	uncertainty
313.15	0.41	0.09
323.15	0.4	0.09
333.15	0.38	0.09
343.15	0.37	0.09
353.15	0.36	0.09
363.15	0.35	0.09

System: propan-2-ol + 1-methyl-3-octylimidazolium nitrate; phases: Liquid, Gas
Fixed: Mole fraction of propan-2-ol = 0
Property: Activity coefficient of propan-2-ol (Liquid); method: Chromatography
Temperature, K	Activity coefficient of propan-2-ol	uncertainty
303.15	0.44	0.09
313.15	0.43	0.09
323.15	0.43	0.09
333.15	0.42	0.09
343.15	0.41	0.09
353.15	0.41	0.09
363.15	0.4	0.09

System: acetonitrile + 1-methyl-3-octylimidazolium nitrate; phases: Liquid, Gas
Fixed: Mole fraction of acetonitrile = 0
Property: Activity coefficient of acetonitrile (Liquid); method: Chromatography
Temperature, K	Activity coefficient of acetonitrile	uncertainty
303.15	0.6	0.09
313.15	0.59	0.09
323.15	0.58	0.09
333.15	0.57	0.09
343.15	0.56	0.09
353.15	0.55	0.09
363.15	0.54	0.09

System: ethyl acetate + 1-methyl-3-octylimidazolium nitrate; phases: Liquid, Gas
Fixed: Mole fraction of ethyl acetate = 0
Property: Activity coefficient of ethyl acetate (Liquid); method: Chromatography
Temperature, K	Activity coefficient of ethyl acetate	uncertainty
303.15	1.65	0.1
313.15	1.64	0.1
323.15	1.63	0.1
333.15	1.63	0.1
343.15	1.62	0.1
353.15	1.61	0.1
363.15	1.6	0.1

System: acetone + 1-methyl-3-octylimidazolium nitrate; phases: Liquid, Gas
Fixed: Mole fraction of acetone = 0
Property: Activity coefficient of acetone (Liquid); method: Chromatography
Temperature, K	Activity coefficient of acetone	uncertainty
303.15	0.84	0.09
313.15	0.83	0.09
323.15	0.81	0.09
333.15	0.79	0.09
343.15	0.77	0.09
353.15	0.76	0.09
363.15	0.74	0.09

System: tetrahydrofuran + 1-methyl-3-octylimidazolium nitrate; phases: Liquid, Gas
Fixed: Mole fraction of tetrahydrofuran = 0
Property: Activity coefficient of tetrahydrofuran (Liquid); method: Chromatography
Temperature, K	Activity coefficient of tetrahydrofuran	uncertainty
303.15	1.03	0.09
313.15	1.02	0.09
323.15	1.01	0.09
333.15	1	0.09
343.15	0.99	0.09
353.15	0.98	0.09
363.15	0.97	0.09

System: dichloromethane + 1-methyl-3-octylimidazolium nitrate; phases: Liquid, Gas
Fixed: Mole fraction of dichloromethane = 0
Property: Activity coefficient of dichloromethane (Liquid); method: Chromatography
Temperature, K	Activity coefficient of dichloromethane	uncertainty
303.15	0.32	0.09
313.15	0.33	0.09
323.15	0.34	0.09
333.15	0.36	0.09
343.15	0.37	0.09
353.15	0.38	0.09
363.15	0.39	0.09

System: trichloromethane + 1-methyl-3-octylimidazolium nitrate; phases: Liquid, Gas
Fixed: Mole fraction of trichloromethane = 0
Property: Activity coefficient of trichloromethane (Liquid); method: Chromatography
Temperature, K	Activity coefficient of trichloromethane	uncertainty
303.15	0.17	0.09
313.15	0.18	0.09
323.15	0.19	0.09
333.15	0.2	0.09
343.15	0.21	0.09
353.15	0.22	0.09
363.15	0.23	0.09

System: tetrachloromethane + 1-methyl-3-octylimidazolium nitrate; phases: Liquid, Gas
Fixed: Mole fraction of tetrachloromethane = 0
Property: Activity coefficient of tetrachloromethane (Liquid); method: Chromatography
Temperature, K	Activity coefficient of tetrachloromethane	uncertainty
303.15	1.16	0.09
313.15	1.2	0.09
323.15	1.24	0.09
333.15	1.27	0.1
343.15	1.3	0.1
353.15	1.35	0.1
363.15	1.39	0.1
