Measured thermophysical data. Measurements and correlation of saturated vapor pressures of  diethoxy(methyl)(o-tolyl)silane, diethoxy(methyl)(m-tolyl)silane and  diethoxy(methyl)(p-tolyl)silane
Source: Fluid Phase Equilib., 2012, 10.1016/j.fluid.2012.08.009
Compound 1: diethoxy(methyl)(p-tolyl)silane, C12H20O2Si, InChI=1S/C12H20O2Si/c1-5-13-15(4,14-6-2)12-9-7-11(3)8-10-12/h7-10H,5-6H2,1-4H3
Compound 2: diethoxy(methyl)(o-tolyl)silane, C12H20O2Si, InChI=1S/C12H20O2Si/c1-5-13-15(4,14-6-2)12-10-8-7-9-11(12)3/h7-10H,5-6H2,1-4H3
Compound 3: diethoxy(methyl)(m-tolyl)silane, C12H20O2Si, InChI=1S/C12H20O2Si/c1-5-13-15(4,14-6-2)12-9-7-8-11(3)10-12/h7-10H,5-6H2,1-4H3
Compound 4: N-methylpyrrolidone, C5H9NO, InChI=1S/C5H9NO/c1-6-4-2-3-5(6)7/h2-4H2,1H3, purity 99.5%

System: diethoxy(methyl)(p-tolyl)silane; phases: Liquid, Gas
Property: Normal boiling temperature, K (Liquid); method: Siwoloboff method
Normal boiling temperature, K	uncertainty
512.72	1.55

System: diethoxy(methyl)(p-tolyl)silane; phases: Liquid, Gas
Property: Vapor or sublimation pressure, kPa (Liquid); method: Ebulliometric method (Recirculating still)
Temperature, K	Vapor or sublimation pressure, kPa	uncertainty
394.65	2	0.04
402.86	3	0.05
409.39	4	0.07
414.72	5	0.09
419.19	6	0.11
423.25	7	0.13
429.82	9	0.16
435.35	11	0.2
442.33	14	0.25
448.16	17	0.31
453.16	20	0.36
457.61	23	0.41
461.72	26	0.47
465.36	29	0.52
468.68	32	0.58
471.81	35	0.63
474.73	38	0.68
477.27	41	0.74
479.82	44	0.79
482.24	47	0.85
484.62	50	0.9
486.87	53	0.95

System: diethoxy(methyl)(o-tolyl)silane; phases: Liquid, Gas
Property: Normal boiling temperature, K (Liquid); method: Siwoloboff method
Normal boiling temperature, K	uncertainty
512.98	1.55

System: diethoxy(methyl)(o-tolyl)silane; phases: Liquid, Gas
Property: Vapor or sublimation pressure, kPa (Liquid); method: Ebulliometric method (Recirculating still)
Temperature, K	Vapor or sublimation pressure, kPa	uncertainty
393.45	2	0.04
401.5	3	0.05
407.98	4	0.07
413.33	5	0.09
417.79	6	0.11
421.8	7	0.13
431.54	10	0.18
439.05	13	0.23
445.46	16	0.29
450.67	19	0.34
455.4	22	0.4
459.55	25	0.45
463.3	28	0.5
466.73	31	0.56
469.94	34	0.61
472.92	37	0.67
475.72	40	0.72
478.35	43	0.77
480.89	46	0.83
483.26	49	0.88

System: diethoxy(methyl)(m-tolyl)silane; phases: Liquid, Gas
Property: Normal boiling temperature, K (Liquid); method: Siwoloboff method
Normal boiling temperature, K	uncertainty
508.9	1.55

System: diethoxy(methyl)(m-tolyl)silane; phases: Liquid, Gas
Property: Vapor or sublimation pressure, kPa (Liquid); method: Ebulliometric method (Recirculating still)
Temperature, K	Vapor or sublimation pressure, kPa	uncertainty
391.91	2	0.04
400.12	3	0.05
406.47	4	0.07
411.84	5	0.09
416.3	6	0.11
420.23	7	0.13
426.81	9	0.16
432.31	11	0.2
439.13	14	0.25
444.83	17	0.31
449.84	20	0.36
454.26	23	0.41
458.23	26	0.47
461.73	29	0.52
465.1	32	0.58
468.22	35	0.63
471.02	38	0.68
473.69	41	0.74
476.21	44	0.79
478.56	47	0.85
480.85	50	0.9
483.08	53	0.95
485.67	57	1.03
488.08	61	1.1

System: N-methylpyrrolidone; phases: Liquid, Gas
Property: Normal boiling temperature, K (Liquid); method: Siwoloboff method
Normal boiling temperature, K	uncertainty
475.29	1.55

System: N-methylpyrrolidone; phases: Liquid, Gas
Property: Vapor or sublimation pressure, kPa (Liquid); method: Ebulliometric method (Recirculating still)
Temperature, K	Vapor or sublimation pressure, kPa	uncertainty
380.76	4.742	0.086
388.05	6.361	0.115
400.39	10.287	0.186
411.34	15.218	0.274
420.9	20.973	0.378
432.23	30.076	0.542
441.78	39.963	0.72
451.08	52.176	0.94
457.44	62.11	1.12
475.79	99.402	1.79
