Measured thermophysical data. (Solid + liquid) phase equilibria of binary mixtures containing N-methyl-2-pyrrolidinone and ethers at atmospheric pressure
Source: Fluid Phase Equilib., 2005, 10.1016/j.fluid.2004.11.006
Compound 1: N-methylpyrrolidone, C5H9NO, InChI=1S/C5H9NO/c1-6-4-2-3-5(6)7/h2-4H2,1H3, purity 99.5%
Compound 2: dipropyl ether, C6H14O, InChI=1S/C6H14O/c1-3-5-7-6-4-2/h3-6H2,1-2H3, purity 99%
Compound 3: dibutyl ether, C8H18O, InChI=1S/C8H18O/c1-3-5-7-9-8-6-4-2/h3-8H2,1-2H3, purity 99%
Compound 4: dipentyl ether, C10H22O, InChI=1S/C10H22O/c1-3-5-7-9-11-10-8-6-4-2/h3-10H2,1-2H3, purity 99%
Compound 5: 2-methoxy-2-methylpropane, C5H12O, InChI=1S/C5H12O/c1-5(2,3)6-4/h1-4H3, purity 99.5%
Compound 6: 2-methoxy-2-methylbutane, C6H14O, InChI=1S/C6H14O/c1-5-6(2,3)7-4/h5H2,1-4H3, purity 99%
Compound 7: 1,1-dimethylpropyl ethyl ether, C7H16O, InChI=1S/C7H16O/c1-5-7(3,4)8-6-2/h5-6H2,1-4H3, purity 99.9%
Compound 8: 1,4-dioxane, C4H8O2, InChI=1S/C4H8O2/c1-2-6-4-3-5-1/h1-4H2, purity 99.5%
Compound 9: tetrahydrofuran, C4H8O, InChI=1S/C4H8O/c1-2-4-5-3-1/h1-4H2, purity 99.5%
Compound 10: tetrahydropyran, C5H10O, InChI=1S/C5H10O/c1-2-4-6-5-3-1/h1-5H2, purity 98%
Compound 11: 1,4,7,10,13,16-hexaoxacyclooctadecane, C12H24O6, InChI=1S/C12H24O6/c1-2-14-5-6-16-9-10-18-12-11-17-8-7-15-4-3-13-1/h1-12H2, purity 99.5%

System: N-methylpyrrolidone; phases: Crystal, Liquid, Air at 1 atmosphere
Property: Molar enthalpy of transition or fusion, kJ/mol (Crystal); method: DSC:FP
Molar enthalpy of transition or fusion, kJ/mol	uncertainty
11.04	0.38

System: N-methylpyrrolidone; phases: Crystal, Liquid
Property: Solid-liquid equilibrium temperature, K (Crystal); method: VISOBS:UFactor:2
Pressure, kPa	Solid-liquid equilibrium temperature, K	uncertainty
101.3	249.68	0.4

System: 1,4-dioxane; phases: Crystal, Liquid
Property: Solid-liquid equilibrium temperature, K (Crystal); method: VISOBS:UFactor:2
Pressure, kPa	Solid-liquid equilibrium temperature, K	uncertainty
101.3	285.08	0.4

System: 1,4,7,10,13,16-hexaoxacyclooctadecane; phases: Crystal 1, Liquid
Property: Solid-liquid equilibrium temperature, K (Crystal 1); method: VISOBS:UFactor:4
Pressure, kPa	Solid-liquid equilibrium temperature, K	uncertainty
101.3	311.76	0.8

System: dipropyl ether + N-methylpyrrolidone; phases: Liquid, Crystal
Fixed: Pressure, kPa = 101.3
Property: Solid-liquid equilibrium temperature, K (Liquid); method: VISOBS:UFactor:2
Mole fraction of N-methylpyrrolidone	Solid-liquid equilibrium temperature, K	uncertainty
0.1105	229.58	0.4
0.1453	231.94	0.4
0.1845	234.34	0.4
0.2767	237.05	0.4
0.3613	238.32	0.4
0.4758	239.6	0.4
0.5472	240.01	0.4
0.6211	240.72	0.4
0.6713	241.05	0.4
0.7259	241.8	0.4
0.7772	242.8	0.4
0.8253	243.82	0.4
0.8717	244.95	0.4
0.9198	246.53	0.4
1	249.68	0.4

System: dibutyl ether + N-methylpyrrolidone; phases: Liquid, Crystal
Fixed: Pressure, kPa = 101.3
Property: Solid-liquid equilibrium temperature, K (Liquid); method: VISOBS:UFactor:2
Mole fraction of N-methylpyrrolidone	Solid-liquid equilibrium temperature, K	uncertainty
0.3051	225.72	0.4
0.3306	228.36	0.4
0.3691	230.75	0.4
0.3969	232.42	0.4
0.4313	233.85	0.4
0.4566	235.33	0.4
0.4838	236.75	0.4
0.5063	237.27	0.4
0.5254	238.2	0.4
0.5397	238.45	0.4
0.5692	239.42	0.4
0.6005	240.26	0.4
0.6303	240.7	0.4
0.6564	241.07	0.4
0.6843	241.82	0.4
0.7195	242.32	0.4
0.7536	243.02	0.4
0.7794	243.47	0.4
0.807	243.8	0.4
0.8375	244.15	0.4
0.8672	244.94	0.4
0.883	245.05	0.4
0.9151	245.75	0.4
0.9452	247.03	0.4
0.9786	248.34	0.4
1	249.68	0.4

System: dipentyl ether + N-methylpyrrolidone; phases: Liquid, Crystal
Fixed: Pressure, kPa = 101.3
Property: Solid-liquid equilibrium temperature, K (Liquid); method: VISOBS:UFactor:2
Mole fraction of N-methylpyrrolidone	Solid-liquid equilibrium temperature, K	uncertainty
0.1413	238.75	0.4
0.198	241.35	0.4
0.2387	242.85	0.4
0.284	243.67	0.4
0.3391	244.58	0.4
0.3781	245.2	0.4
0.4097	245.6	0.4
0.469	246.05	0.4
0.4957	246.15	0.4
0.5233	246.35	0.4
0.5651	246.55	0.4
0.5941	246.7	0.4
0.6228	246.85	0.4
0.6698	246.95	0.4
0.6927	247.05	0.4
0.738	247.2	0.4
0.7907	247.33	0.4
0.8457	247.5	0.4
0.872	247.49	0.4
0.9286	247.62	0.4
0.9598	247.9	0.4
0.9856	248.36	0.4
1	249.68	0.4

System: N-methylpyrrolidone + 2-methoxy-2-methylpropane; phases: Liquid, Crystal
Fixed: Pressure, kPa = 101.3
Property: Solid-liquid equilibrium temperature, K (Liquid); method: VISOBS:UFactor:2
Mole fraction of N-methylpyrrolidone	Solid-liquid equilibrium temperature, K	uncertainty
0.1589	221.1	0.41
0.1706	222.97	0.4
0.2136	225.85	0.4
0.2433	227.44	0.4
0.28	229.15	0.4
0.3244	230.37	0.4
0.3863	231.97	0.4
0.4481	233.63	0.4
0.5307	235.83	0.4
0.5874	237.17	0.4
0.6588	238.55	0.4
0.73	240.37	0.4
0.7771	241.61	0.4
0.8379	243.25	0.4
0.8932	244.57	0.4
0.9533	246.7	0.4
1	249.68	0.4

System: N-methylpyrrolidone + 2-methoxy-2-methylbutane; phases: Liquid, Crystal
Fixed: Pressure, kPa = 101.3
Property: Solid-liquid equilibrium temperature, K (Liquid); method: VISOBS:UFactor:2
Mole fraction of N-methylpyrrolidone	Solid-liquid equilibrium temperature, K	uncertainty
0.1089	219.63	0.5
0.11	220.46	0.5
0.1279	222.61	0.4
0.151	225.05	0.4
0.1827	227.3	0.4
0.2133	228.83	0.4
0.2455	230.08	0.4
0.2737	231.19	0.4
0.3058	232.22	0.4
0.3451	233.41	0.4
0.3927	234.79	0.4
0.4328	235.5	0.4
0.4851	236.42	0.4
0.5462	237.5	0.4
0.5803	238.33	0.4
0.6344	239.18	0.4
0.6883	240.38	0.4
0.7445	241.17	0.4
0.7551	241.58	0.4
0.8308	243.2	0.4
0.9165	245.75	0.4
1	249.68	0.4

System: N-methylpyrrolidone + 1,1-dimethylpropyl ethyl ether; phases: Liquid, Crystal
Fixed: Pressure, kPa = 101.3
Property: Solid-liquid equilibrium temperature, K (Liquid); method: VISOBS:UFactor:2
Mole fraction of N-methylpyrrolidone	Solid-liquid equilibrium temperature, K	uncertainty
0.101	227.15	0.4
0.1432	231.16	0.4
0.203	234.13	0.4
0.2518	235.36	0.4
0.3056	236.56	0.4
0.3479	237.21	0.4
0.4273	238.55	0.4
0.4751	239.44	0.4
0.5472	240.42	0.4
0.6201	241.16	0.4
0.6636	241.64	0.4
0.6985	241.95	0.4
0.7237	242.1	0.4
0.7517	242.33	0.4
0.7828	242.72	0.4
0.8132	242.97	0.4
0.8495	243.78	0.4
0.8855	244.62	0.4
0.9295	246.21	0.4
0.9543	246.77	0.4
0.9751	247.86	0.4
1	249.68	0.4

System: tetrahydrofuran + N-methylpyrrolidone; phases: Liquid, Crystal
Fixed: Pressure, kPa = 101.3
Property: Solid-liquid equilibrium temperature, K (Liquid); method: VISOBS:UFactor:4
Mole fraction of N-methylpyrrolidone	Solid-liquid equilibrium temperature, K	uncertainty
0.1833	203.8	0.8
0.2115	206.45	0.8
0.2339	208.99	0.8
0.2592	211.2	0.8
0.2832	213.07	0.8
0.3059	215.05	0.8
0.3272	216.49	0.8
0.3468	217.83	0.8
0.3762	219.53	0.8
0.392	220.83	0.8
0.435	223.05	0.8
0.4635	224.86	0.8
0.4982	226.94	0.8
0.5217	228.25	0.8
0.5682	230.47	0.8
0.5957	231.35	0.8
0.6228	232.83	0.8
0.6543	234.03	0.8
0.6843	235.78	0.8
0.7166	237.2	0.8
0.7592	239.45	0.8
0.7883	240.73	0.8
0.8101	241.94	0.8
0.8652	244.61	0.8
0.9257	246.69	0.8
1	249.68	0.8

System: tetrahydropyran + N-methylpyrrolidone; phases: Liquid, Crystal
Fixed: Pressure, kPa = 101.3
Property: Solid-liquid equilibrium temperature, K (Liquid); method: VISOBS:UFactor:4
Mole fraction of N-methylpyrrolidone	Solid-liquid equilibrium temperature, K	uncertainty
0.1445	211.13	0.8
0.1592	212.82	0.8
0.1759	214.69	0.8
0.1891	216.11	0.8
0.2077	217.79	0.8
0.2348	220.1	0.8
0.2516	220.97	0.8
0.2805	222.35	0.8
0.3069	223.8	0.8
0.3273	224.5	0.8
0.3487	225.28	0.8
0.3751	226.21	0.8
0.3989	226.99	0.8
0.4203	227.8	0.8
0.4446	228.85	0.8
0.4703	230.07	0.8
0.4946	231.08	0.8
0.5301	232.39	0.8
0.5652	233.65	0.8
0.591	234.61	0.8
0.6249	235.81	0.8
0.6449	236.43	0.8
0.6712	237.42	0.8
0.6976	238.29	0.8
0.7391	239.6	0.8
0.7653	240.5	0.8
0.7911	241.48	0.8
0.8142	242.67	0.8
0.8447	243.7	0.8
0.8742	244.82	0.8
0.8994	245.92	0.8
0.9203	246.74	0.8
0.9528	247.91	0.8
1	249.68	0.8

System: 1,4-dioxane + N-methylpyrrolidone; phases: Liquid, Crystal
Fixed: Pressure, kPa = 101.3
Property: Solid-liquid equilibrium temperature, K (Liquid); method: VISOBS:UFactor:2
Mole fraction of N-methylpyrrolidone	Solid-liquid equilibrium temperature, K	uncertainty
0.7501	238.95	0.4
0.7818	240.15	0.4
0.7839	239.98	0.4
0.8069	241.02	0.4
0.8202	241.93	0.4
0.8275	242.12	0.4
0.8544	243.56	0.4
0.8557	243.51	0.4
0.8905	245.17	0.4
0.9265	246.87	0.4
0.9467	247.55	0.4
1	249.68	0.4

System: 1,4-dioxane + N-methylpyrrolidone; phases: Liquid, Crystal
Fixed: Pressure, kPa = 101.3
Property: Solid-liquid equilibrium temperature, K (Liquid); method: VISOBS:UFactor:2
Mole fraction of N-methylpyrrolidone	Solid-liquid equilibrium temperature, K	uncertainty
0	285.08	0.4
0.0439	283.42	0.4
0.1	280.5	0.4
0.1451	278.33	0.4
0.1734	276.83	0.4
0.2019	275.46	0.4
0.206	275.38	0.4
0.2245	274.27	0.4
0.2524	272.95	0.4
0.254	272.97	0.4
0.2784	271.69	0.4
0.2904	271.31	0.4
0.3038	270.49	0.4
0.3266	269.42	0.4
0.3306	269.47	0.4
0.3444	268.52	0.4
0.3524	268.49	0.4
0.3633	267.6	0.4
0.3811	267.08	0.43
0.3826	266.51	0.43
0.3986	265.76	0.4
0.4138	264.82	0.41
0.4149	265.08	0.41
0.4307	263.84	0.4
0.4472	262.79	0.4
0.4582	262.3	0.4
0.4673	261.38	0.4
0.4987	259.35	0.4
0.5241	257.57	0.4
0.5482	255.68	0.4
0.5695	254.02	0.4
0.6022	251.41	0.4
0.6344	248.44	0.4
0.6474	247.08	0.4
0.661	245.94	0.4
0.703	242.26	0.4
0.7284	239.67	0.4
0.7387	239.03	0.4

System: N-methylpyrrolidone + 1,4,7,10,13,16-hexaoxacyclooctadecane; phases: Liquid, Crystal
Fixed: Pressure, kPa = 101.3
Property: Solid-liquid equilibrium temperature, K (Liquid); method: VISOBS:UFactor:4
Mole fraction of N-methylpyrrolidone	Solid-liquid equilibrium temperature, K	uncertainty
0.9691	246.65	0.8
0.9715	246.17	0.8
0.9794	247.19	0.8
0.9895	248.59	0.8
0.9932	248.59	0.8
1	249.68	0.8

System: N-methylpyrrolidone + 1,4,7,10,13,16-hexaoxacyclooctadecane; phases: Liquid, Crystal 2
Fixed: Pressure, kPa = 101.3
Property: Solid-liquid equilibrium temperature, K (Liquid); method: VISOBS:UFactor:4
Mole fraction of N-methylpyrrolidone	Solid-liquid equilibrium temperature, K	uncertainty
0.4163	301.45	0.8
0.4631	299.74	0.8
0.5317	297.25	0.8
0.5609	296.11	0.8
0.7117	286.25	0.8
0.7551	283.14	0.8
0.8113	278.5	0.8
0.8354	276.12	0.8
0.8545	273.75	0.8
0.862	273.63	0.8
0.8805	270.02	0.8
0.9022	266.4	0.8
0.9204	263	0.8
0.928	260.68	0.81
0.9358	257.86	0.82
0.9402	255.2	0.84
0.9435	252.7	0.86

System: N-methylpyrrolidone + 1,4,7,10,13,16-hexaoxacyclooctadecane; phases: Liquid, Crystal 1
Fixed: Pressure, kPa = 101.3
Property: Solid-liquid equilibrium temperature, K (Liquid); method: VISOBS:UFactor:4
Mole fraction of N-methylpyrrolidone	Solid-liquid equilibrium temperature, K	uncertainty
0	311.76	0.8
0.135	309.95	0.8
0.2051	308.05	0.8
0.2941	305.4	0.8
0.3232	303.95	0.8
0.3304	303.51	0.8
