Measured thermophysical data. Ionic interplay of lithium salts in binary mixtures of acetonitrile and diethyl carbonate probed by physicochemical approach
Source: Fluid Phase Equilib., 2013, 10.1016/j.fluid.2013.08.022
Compound 1: lithium iodide, ILi, InChI=1S/HI.Li/h1H;/q;+1/p-1, purity 98%
Compound 2: lithium perchlorate, ClLiO4, InChI=1S/ClHO4.Li/c2-1(3,4)5;/h(H,2,3,4,5);/q;+1/p-1, purity 98%
Compound 3: lithium hexafluoroarsenate, AsF6Li, InChI=1S/AsF6.Li/c2-1(3,4,5,6)7;/q-1;+1, purity 98%
Compound 4: acetonitrile, C2H3N, InChI=1S/C2H3N/c1-2-3/h1H3, purity 99.5%
Compound 5: diethyl carbonate, C5H10O3, InChI=1S/C5H10O3/c1-3-7-5(6)8-4-2/h3-4H2,1-2H3, purity 99%

System: acetonitrile + diethyl carbonate; phases: Liquid
Fixed: Pressure, kPa = 101
Fixed: Temperature, K = 298.15
Property: Mass density, kg/m3 (Liquid); method: Vibrating tube method
Mass fraction of acetonitrile	Mass density, kg/m3	uncertainty
0	969.17	
0.25	921.12	
0.5	873.25	
0.75	824.87	
1	776.85	

System: acetonitrile + diethyl carbonate; phases: Liquid
Fixed: Pressure, kPa = 101
Fixed: Temperature, K = 298.15
Property: Viscosity, Pa*s (Liquid); method: Cone and plate viscometry
Mass fraction of acetonitrile	Viscosity, Pa*s	uncertainty
0	0.00074	
0.25	0.00065	
0.5	0.00057	
0.75	0.00045	
1	0.00034	

System: acetonitrile + diethyl carbonate + lithium iodide; phases: Liquid
Fixed: Pressure, kPa = 101
Fixed: Temperature, K = 298.15
Property: Molar conductivity, S*m2/mol (Liquid); method: Alternating current cell with electrodes
Solvent: Mass fraction of acetonitrile	Amount concentration (molarity), mol/dm3 of lithium iodide	Molar conductivity, S*m2/mol	uncertainty
0.25	0.00011529	0.011841	0.000474
0.25	0.00029879	0.008593	0.000344
0.25	0.0004341	0.006889	0.000276
0.25	0.0005378	0.005475	0.000219
0.25	0.00061975	0.004587	0.000183
0.25	0.00068614	0.004012	0.00016
0.25	0.00074102	0.003447	0.000138
0.25	0.00078713	0.002991	0.00012
0.25	0.00084396	0.00255	0.000102
0.25	0.00090319	0.002	8e-05
0.25	0.00094926	0.00191	7.6e-05
0.25	0.00098613	0.0021	8.4e-05
0.25	0.00102301	0.0024	9.6e-05
0.25	0.00105772	0.00261	0.000104
0.25	0.00107584	0.00293	0.000117
0.5	0.0001458	0.009201	0.000368
0.5	0.0002673	0.008734	0.000349
0.5	0.00037011	0.008532	0.000341
0.5	0.00045823	0.008321	0.000333
0.5	0.0005346	0.008095	0.000324
0.5	0.00060143	0.007919	0.000317
0.5	0.0007128	0.007821	0.000313
0.5	0.0008019	0.007649	0.000306
0.5	0.0008748	0.007434	0.000297
0.5	0.0009065	0.007451	0.000298
0.5	0.00093555	0.007367	0.000295
0.5	0.00103101	0.007279	0.000291
0.5	0.0010692	0.007141	0.000286
0.5	0.0011583	0.007057	0.000282
0.5	0.00128304	0.006951	0.000278
0.75	0.00022201	0.006888	0.000276
0.75	0.00043681	0.006478	0.000259
0.75	0.00089401	0.00571	0.000228
0.75	0.00129302	0.005208	0.000208
0.75	0.00168921	0.00484	0.000194
0.75	0.00186347	0.00469	0.000188
0.75	0.0021437	0.004438	0.000178
0.75	0.00226279	0.004308	0.000172
0.75	0.00252004	0.004158	0.000166
0.75	0.00275625	0.003958	0.000158
0.75	0.00281961	0.003908	0.000156
0.75	0.00308025	0.003658	0.000146
0.75	0.003364	0.00349	0.00014
0.75	0.00355216	0.003288	0.000132
0.75	0.00381924	0.00313	0.000125

System: acetonitrile + diethyl carbonate + lithium perchlorate; phases: Liquid
Fixed: Pressure, kPa = 101
Fixed: Temperature, K = 298.15
Property: Molar conductivity, S*m2/mol (Liquid); method: Alternating current cell with electrodes
Solvent: Mass fraction of acetonitrile	Amount concentration (molarity), mol/dm3 of lithium perchlorate	Molar conductivity, S*m2/mol	uncertainty
0.25	0.00013381	0.012812	0.000512
0.25	0.00035514	0.010123	0.000405
0.25	0.0005194	0.008728	0.000349
0.25	0.00064557	0.007631	0.000305
0.25	0.00074542	0.006759	0.00027
0.25	0.00082638	0.006116	0.000245
0.25	0.00089333	0.005632	0.000225
0.25	0.00097451	0.005039	0.000202
0.25	0.00105758	0.004521	0.000181
0.25	0.00109135	0.004528	0.000181
0.25	0.00112115	0.004451	0.000178
0.25	0.00115983	0.004585	0.000183
0.25	0.00121522	0.004842	0.000194
0.25	0.00125033	0.004969	0.000199
0.25	0.00129168	0.005411	0.000216
0.5	0.00014923	0.009651	0.000386
0.5	0.00027359	0.009278	0.000371
0.5	0.00037882	0.008955	0.000358
0.5	0.00054718	0.008569	0.000343
0.5	0.00067593	0.008352	0.000334
0.5	0.00077757	0.008121	0.000325
0.5	0.00082077	0.008	0.00032
0.5	0.00089538	0.007915	0.000317
0.5	0.00095756	0.007691	0.000308
0.5	0.00101018	0.007699	0.000308
0.5	0.00109436	0.007598	0.000304
0.5	0.00120955	0.007353	0.000294
0.5	0.00124116	0.007327	0.000293
0.5	0.00130653	0.00725	0.00029
0.5	0.00135072	0.007179	0.000287
0.75	0.00043681	0.007573	0.000303
0.75	0.00068121	0.007131	0.000285
0.75	0.00101761	0.006757	0.00027
0.75	0.00140625	0.006203	0.000248
0.75	0.00169725	0.005963	0.000239
0.75	0.00201156	0.005671	0.000227
0.75	0.002263	0.005492	0.00022
0.75	0.00246873	0.005276	0.000211
0.75	0.0027156	0.005135	0.000205
0.75	0.0028497	0.00505	0.000202
0.75	0.00290957	0.004981	0.000199
0.75	0.00296531	0.004913	0.000197
0.75	0.00301733	0.004916	0.000197
0.75	0.003066	0.004875	0.000195
0.75	0.00319482	0.004762	0.00019

System: acetonitrile + diethyl carbonate + lithium hexafluoroarsenate; phases: Liquid
Fixed: Pressure, kPa = 101
Fixed: Temperature, K = 298.15
Property: Molar conductivity, S*m2/mol (Liquid); method: Alternating current cell with electrodes
Solvent: Mass fraction of acetonitrile	Amount concentration (molarity), mol/dm3 of lithium hexafluoroarsenate	Molar conductivity, S*m2/mol	uncertainty
0.25	0.00013847	0.015701	0.000628
0.25	0.00036272	0.013423	0.000537
0.25	0.00052856	0.011706	0.000468
0.25	0.00065578	0.010641	0.000426
0.25	0.00075638	0.009823	0.000393
0.25	0.00083792	0.009002	0.00036
0.25	0.00090532	0.008357	0.000334
0.25	0.00098704	0.007779	0.000311
0.25	0.00107063	0.007212	0.000288
0.25	0.0011046	0.006874	0.000275
0.25	0.00113458	0.006716	0.000269
0.25	0.00117349	0.006553	0.000262
0.25	0.0012292	0.006465	0.000259
0.25	0.00126451	0.006551	0.000262
0.25	0.0013061	0.006806	0.000272
0.5	0.0001458	0.012141	0.000486
0.5	0.0002673	0.01165	0.000466
0.5	0.00037011	0.01133	0.000453
0.5	0.00045823	0.011059	0.000442
0.5	0.0005346	0.010842	0.000434
0.5	0.00060143	0.010611	0.000424
0.5	0.00066039	0.01049	0.00042
0.5	0.00075969	0.010405	0.000416
0.5	0.0008019	0.010191	0.000408
0.5	0.00084009	0.010189	0.000408
0.5	0.00096228	0.010088	0.000404
0.5	0.00105077	0.009843	0.000394
0.5	0.00114557	0.009817	0.000393
0.5	0.00118175	0.00974	0.00039
0.5	0.00125515	0.00955	0.000382
0.75	0.00041142	0.010092	0.000404
0.75	0.00075426	0.009441	0.000378
0.75	0.00104436	0.008895	0.000356
0.75	0.00129302	0.008621	0.000345
0.75	0.00150853	0.008423	0.000337
0.75	0.00169709	0.008131	0.000325
0.75	0.00186347	0.007857	0.000314
0.75	0.00201137	0.007851	0.000314
0.75	0.0021437	0.007532	0.000301
0.75	0.00226279	0.007426	0.000297
0.75	0.00237054	0.007471	0.000299
0.75	0.0024685	0.007369	0.000295
0.75	0.00263992	0.007151	0.000286
0.75	0.0029093	0.006982	0.000279
0.75	0.00319225	0.006817	0.000273
