Measured thermophysical data. Liquid-liquid equilibria for systems of water + methanol + methyl anthranilate at several temperatures
Source: Fluid Phase Equilib., 2011, 10.1016/j.fluid.2011.07.008
Compound 1: methyl 2-aminobenzoate, C8H9NO2, InChI=1S/C8H9NO2/c1-11-8(10)6-4-2-3-5-7(6)9/h2-5H,9H2,1H3, purity 99.8%
Compound 2: water, H2O, InChI=1S/H2O/h1H2, purity 99.9%
Compound 3: methanol, CH4O, InChI=1S/CH4O/c1-2/h2H,1H3, purity 99.7%
Compound 4: butan-2-ol, C4H10O, InChI=1S/C4H10O/c1-3-4(2)5/h4-5H,3H2,1-2H3
Compound 5: methyl methacrylate, C5H8O2, InChI=1S/C5H8O2/c1-4(2)5(6)7-3/h1H2,2-3H3

System: methyl 2-aminobenzoate + water; phases: Liquid mixture 2, Liquid mixture 1
Fixed: Pressure, kPa = 101
Property: Mass fraction of methyl 2-aminobenzoate (Liquid mixture 2); method: Chromatography
Temperature, K	Mass fraction of methyl 2-aminobenzoate	uncertainty
298.15	0.0031	0.0031
303.15	0.0035	0.0035
313.15	0.0058	0.0048
323.15	0.0091	0.0048

System: methyl 2-aminobenzoate + water; phases: Liquid mixture 1, Liquid mixture 2
Fixed: Pressure, kPa = 101
Property: Mass fraction of methyl 2-aminobenzoate (Liquid mixture 1); method: Chromatography
Temperature, K	Mass fraction of methyl 2-aminobenzoate	uncertainty
298.15	0.9903	0.0048
303.15	0.9892	0.0048
313.15	0.9821	0.0048
323.15	0.9754	0.0048

System: methyl 2-aminobenzoate + water; phases: Liquid mixture 2, Liquid mixture 1
Fixed: Pressure, kPa = 101
Property: Mass fraction of water (Liquid mixture 2); method: Chromatography
Temperature, K	Mass fraction of water	uncertainty
298.15	0.9969	0.0031
303.15	0.9965	0.0035
313.15	0.9942	0.0048
323.15	0.9909	0.0048

System: methyl 2-aminobenzoate + water; phases: Liquid mixture 1, Liquid mixture 2
Fixed: Pressure, kPa = 101
Property: Mass fraction of water (Liquid mixture 1); method: Chromatography
Temperature, K	Mass fraction of water	uncertainty
298.15	0.0097	0.0048
303.15	0.0108	0.0048
313.15	0.0179	0.0048
323.15	0.0246	0.0048

System: butan-2-ol + methyl methacrylate + water; phases: Liquid mixture 1, Liquid mixture 2
Fixed: Pressure, kPa = 101
Property: Mass fraction of butan-2-ol (Liquid mixture 1); method: Chromatography
Property: Mass fraction of butan-2-ol (Liquid mixture 2); method: Chromatography
Property: Mass fraction of water (Liquid mixture 2); method: Chromatography
Property: Mass fraction of methyl methacrylate (Liquid mixture 1); method: Chromatography
Property: Mass fraction of methyl methacrylate (Liquid mixture 2); method: Chromatography
Temperature, K	Mass fraction of water	Mass fraction of butan-2-ol	uncertainty	Mass fraction of butan-2-ol	uncertainty	Mass fraction of water	uncertainty	Mass fraction of methyl methacrylate	uncertainty	Mass fraction of methyl methacrylate	uncertainty
288.2	0.05	0		0		0.99		0.95	0.001	0.01	0.008
288.2	0.08	0.005	0.001	0.008	0.007	0.988		0.915	0.002	0.004	0.004
288.2	0.12	0.09	0.002	0.01	0.008	0.986		0.79	0.003	0.004	0.004
288.2	0.179	0.166	0.002	0.014	0.006	0.982		0.655	0.003	0.004	0.004
288.2	0.213	0.22	0.002	0.024	0.009	0.97		0.567	0.004	0.006	0.006
288.2	0.25	0.26	0.002	0.025	0.009	0.972		0.49	0.004	0.003	0.003
288.2	0.304	0.293	0.002	0.002	0.002	0.973		0.403	0.003	0.025	0.006
288.2	0.35	0.32	0.003	0.02	0.009	0.97		0.33	0.003	0.01	0.006
288.2	0.5	0.4	0.003	0.025	0.008	0.969		0.1	0.001	0.006	0.006
288.2	0.51	0.39	0.003	0.032	0.01	0.963		0.1	0.001	0.005	0.005
288.2	0.68	0.3	0.002	0.1	0.01	0.9		0.02	0.001	0	
318.2	0.083	0		0		0.995		0.917	0.002	0.005	0.005
318.2	0.112	0.051	0.002	0.005	0.005	0.992		0.837	0.003	0.003	0.003
318.2	0.14	0.121	0.002	0.006	0.006	0.99		0.739	0.003	0.004	0.004
318.2	0.194	0.168	0.002	0.011	0.009	0.987		0.638	0.004	0.002	0.002
318.2	0.236	0.321	0.003	0.012	0.009	0.986		0.443	0.004	0.002	0.002
318.2	0.281	0.263	0.002	0.013	0.009	0.984		0.456	0.004	0.003	0.003
318.2	0.324	0.335	0.003	0.013	0.009	0.983		0.341	0.003	0.004	0.004
318.2	0.365	0.332	0.003	0.014	0.009	0.982		0.303	0.003	0.004	0.004
318.2	0.421	0.339	0.003	0.02	0.01	0.975		0.24	0.002	0.005	0.005
318.2	0.513	0.371	0.003	0.021	0.01	0.974		0.116	0.001	0.005	0.005
318.2	0.683	0.316	0.003	0.038	0.011	0.962		0.001	0.001	0	

System: methanol + methyl 2-aminobenzoate + water; phases: Liquid mixture 1, Liquid mixture 2
Fixed: Pressure, kPa = 101
Property: Mass fraction of methanol (Liquid mixture 1); method: Chromatography
Property: Mass fraction of methanol (Liquid mixture 2); method: Chromatography
Property: Mass fraction of water (Liquid mixture 2); method: Chromatography
Property: Mass fraction of methyl 2-aminobenzoate (Liquid mixture 2); method: Chromatography
Property: Mass fraction of water (Liquid mixture 1); method: Chromatography
Temperature, K	Mass fraction of methyl 2-aminobenzoate	Mass fraction of methanol	uncertainty	Mass fraction of methanol	uncertainty	Mass fraction of water	uncertainty	Mass fraction of methyl 2-aminobenzoate	uncertainty	Mass fraction of water	uncertainty
298.15	0.8806	0.099	0.0013	0.47	0.0095	0.449		0.081	0.0082	0.0204	0.0008
298.15	0.9203	0.061	0.0012	0.3879	0.0099	0.5839		0.0282	0.0079	0.0187	0.0008
298.15	0.9555	0.0313	0.0011	0.2654	0.0104	0.7246		0.01	0.0076	0.0132	0.0008
298.15	0.9712	0.0177	0.0009	0.1088	0.0106	0.8871		0.0041	0.0041	0.0111	0.001
298.15	0.9696	0.0183	0.0009	0.1694	0.0106	0.8247		0.0059	0.0059	0.0121	0.001
298.15	0.9825	0.006	0.0011	0.06	0.0107	0.9368		0.0032	0.0032	0.0115	0.0008
298.15	0.9903	0		0		0.9969		0.0031	0.0031	0.0097	0.0008
313.15	0.8439	0.1168	0.0014	0.4338	0.0086	0.4231		0.1431	0.0091	0.0393	0.0009
313.15	0.8983	0.0729	0.0012	0.387	0.0093	0.557		0.056	0.0082	0.0288	0.0009
313.15	0.9415	0.037	0.0011	0.2623	0.01	0.7158		0.0219	0.0077	0.0215	0.0008
313.15	0.9618	0.0198	0.0011	0.1548	0.0104	0.8367		0.0085	0.0076	0.0184	0.0008
313.15	0.9708	0.012	0.0011	0.1042	0.0107	0.8878		0.008	0.0076	0.0172	0.0008
313.15	0.9767	0.0061	0.0011	0.0608	0.0106	0.9327		0.0065	0.0065	0.0172	0.0008
313.15	0.9821	0		0		0.9942		0.0058	0.0058	0.0179	0.0008
323.15	0.9754	0		0		0.9909		0.0091	0.0076	0.0246	0.0009
323.15	0.9584	0.0133	0.001	0.0804	0.0103	0.9048		0.0148	0.0076	0.0283	0.0009
323.15	0.9402	0.0278	0.0011	0.1471	0.0102	0.8306		0.0223	0.0077	0.032	0.0009
323.15	0.9201	0.0436	0.0011	0.2025	0.01	0.7657		0.0318	0.0077	0.0363	0.0009
323.15	0.8976	0.061	0.0011	0.2487	0.0098	0.7081		0.0432	0.0078	0.0414	0.0009
323.15	0.8724	0.0802	0.0012	0.2871	0.0095	0.6563		0.0566	0.0079	0.0474	0.0009
323.15	0.8441	0.1013	0.0013	0.3188	0.0093	0.6091		0.0721	0.0081	0.0546	0.001
323.15	0.8126	0.1243	0.0014	0.3449	0.0091	0.5654		0.0897	0.0084	0.0631	0.001
323.15	0.7781	0.149	0.0015	0.3661	0.0088	0.5243		0.1096	0.0087	0.0729	0.001
323.15	0.7397	0.1757	0.0016	0.3829	0.0087	0.4851		0.132	0.0088	0.0846	0.0011
