Measured thermophysical data. Vapor-liquid equilibrium measurements of dimethylsulfide, +ethanol,  +dimethylether, +methylacetate with a static total pressure method
Source: Fluid Phase Equilib., 2013, 10.1016/j.fluid.2013.06.044
Compound 1: 2-thiapropane, C2H6S, InChI=1S/C2H6S/c1-3-2/h1-2H3
Compound 2: ethanol, C2H6O, InChI=1S/C2H6O/c1-2-3/h3H,2H2,1H3
Compound 3: dimethyl ether, C2H6O, InChI=1S/C2H6O/c1-3-2/h1-2H3
Compound 4: methyl ethanoate, C3H6O2, InChI=1S/C3H6O2/c1-3(4)5-2/h1-2H3

System: 2-thiapropane; phases: Liquid
Property: Refractive index (Na D-line) (Liquid); method: Standard Abbe refractometry
Temperature, K	Pressure, kPa	Refractive index (Na D-line)	uncertainty
298.15	101.325	1.43127	0.00031

System: 2-thiapropane; phases: Liquid, Gas
Property: Vapor or sublimation pressure, kPa (Liquid); method: Closed cell (Static) method
Temperature, K	Vapor or sublimation pressure, kPa	uncertainty
336.67	232.9	1
350.33	340.4	1.4
350.35	340.3	0.9
350.41	340.4	0.9

System: ethanol; phases: Liquid
Property: Refractive index (Na D-line) (Liquid); method: Standard Abbe refractometry
Temperature, K	Pressure, kPa	Refractive index (Na D-line)	uncertainty
298.15	101.325	1.35959	0.00037

System: ethanol; phases: Liquid, Gas
Property: Vapor or sublimation pressure, kPa (Liquid); method: Closed cell (Static) method
Temperature, K	Vapor or sublimation pressure, kPa	uncertainty
350.4	96.5	0.9

System: dimethyl ether; phases: Liquid, Gas
Property: Vapor or sublimation pressure, kPa (Liquid); method: Closed cell (Static) method
Temperature, K	Vapor or sublimation pressure, kPa	uncertainty
336.67	1576.5	6.2

System: methyl ethanoate; phases: Liquid
Property: Refractive index (Na D-line) (Liquid); method: Standard Abbe refractometry
Temperature, K	Pressure, kPa	Refractive index (Na D-line)	uncertainty
298.15	101.325	1.3589	0.00036

System: methyl ethanoate; phases: Liquid, Gas
Property: Vapor or sublimation pressure, kPa (Liquid); method: Closed cell (Static) method
Temperature, K	Vapor or sublimation pressure, kPa	uncertainty
350.36	196	1

System: ethanol + 2-thiapropane; phases: Liquid, Gas
Property: Vapor or sublimation pressure, kPa (Liquid); method: Closed cell (Static) method
Mole fraction of ethanol	Temperature, K	Vapor or sublimation pressure, kPa	uncertainty
1	350.38	96.5	1.3
0.9876	350.4	108.4	5.2
0.9679	350.4	125.6	3.7
0.9481	350.39	141.4	3.3
0.8992	350.4	175.1	3.6
0.85	350.4	202.8	4
0.8011	350.39	225.4	3
0.7516	350.39	244.3	2.9
0.7014	350.39	260.4	2.6
0.6516	350.39	273.9	2.3
0.6008	350.39	285.7	2.2
0.5511	350.39	295.8	2.2
0.501	350.39	304.8	2.2
0.5007	350.38	304.3	2
0.4506	350.38	311.4	2
0.4005	350.38	317.8	2
0.3498	350.39	323.8	2
0.3007	350.39	329	2
0.2509	350.39	333.7	1.9
0.1998	350.39	337.9	1.9
0.1484	350.4	341.4	1.9
0.0977	350.39	343.8	1.9
0.0469	350.39	344.2	1.9
0.0271	350.39	343.6	1.9
0.0055	350.4	342.2	1.9
0	350.4	341.7	1.9

System: ethanol + 2-thiapropane; phases: Gas, Liquid
Property: Mole fraction of ethanol (Gas); method: Phase equilibration
Mole fraction of ethanol	Temperature, K	Mole fraction of ethanol	uncertainty
1	350.38	1	
0.9876	350.4	0.8825	0.0111
0.9679	350.4	0.7498	0.0155
0.9481	350.39	0.6559	0.0115
0.8992	350.4	0.5109	0.0103
0.85	350.4	0.4259	0.0129
0.8011	350.39	0.3701	0.0093
0.7516	350.39	0.3294	0.0093
0.7014	350.39	0.2982	0.0086
0.6516	350.39	0.2734	0.008
0.6008	350.39	0.2525	0.0076
0.5511	350.39	0.2351	0.0076
0.501	350.39	0.2195	0.0076
0.5007	350.38	0.2194	0.0075
0.4506	350.38	0.2052	0.0076
0.4005	350.38	0.1917	0.0076
0.3498	350.39	0.1783	0.0073
0.3007	350.39	0.165	0.0073
0.2509	350.39	0.1504	0.0069
0.1998	350.39	0.1333	0.0063
0.1484	350.4	0.1125	0.0057
0.0977	350.39	0.0861	0.0049
0.0469	350.39	0.0494	0.0031
0.0271	350.39	0.0309	0.0024
0.0055	350.4	0.0069	0.0008
0	350.4	0	

System: 2-thiapropane + methyl ethanoate; phases: Liquid, Gas
Property: Vapor or sublimation pressure, kPa (Liquid); method: Closed cell (Static) method
Mole fraction of methyl ethanoate	Temperature, K	Vapor or sublimation pressure, kPa	uncertainty
1	350.34	196	1.5
0.9887	350.34	199.1	1.6
0.9682	350.34	204	1.6
0.9493	350.33	208.4	1.7
0.8979	350.33	219.8	1.9
0.8493	350.33	230	2
0.799	350.33	239.9	2.2
0.7492	350.33	249.2	2.3
0.6995	350.33	258	2.4
0.648	350.33	266.7	2.4
0.5994	350.34	274.4	2.3
0.5482	350.34	282.1	2.4
0.4989	350.33	289	2.2
0.4989	350.34	289.1	2.3
0.4498	350.33	295.3	2.3
0.4002	350.34	301.4	2.2
0.3493	350.33	307.4	6.2
0.2991	350.32	313	2.1
0.2491	350.33	318.3	2
0.1993	350.33	323.2	1.9
0.1488	350.33	327.9	1.9
0.0992	350.33	332.3	1.9
0.0483	350.33	336.5	1.9
0.0278	350.34	338.2	1.9
0.0074	350.34	339.7	1.9
0	350.34	340.3	1.9

System: 2-thiapropane + methyl ethanoate; phases: Gas, Liquid
Property: Mole fraction of methyl ethanoate (Gas); method: Phase equilibration
Mole fraction of methyl ethanoate	Temperature, K	Mole fraction of methyl ethanoate	uncertainty
1	350.34	1	
0.9887	350.34	0.9751	0.0043
0.9682	350.34	0.9329	0.0058
0.9493	350.33	0.8967	0.0066
0.8979	350.33	0.8087	0.0097
0.8493	350.33	0.7356	0.0115
0.799	350.33	0.6682	0.0129
0.7492	350.33	0.6078	0.0137
0.6995	350.33	0.5529	0.0143
0.648	350.33	0.5007	0.0146
0.5994	350.34	0.4554	0.0139
0.5482	350.34	0.4109	0.0143
0.4989	350.33	0.3707	0.0136
0.4989	350.34	0.3707	0.0139
0.4498	350.33	0.3326	0.0136
0.4002	350.34	0.2955	0.0129
0.3493	350.33	0.2585	0.0166
0.2991	350.32	0.2224	0.0115
0.2491	350.33	0.1866	0.0105
0.1993	350.33	0.1506	0.0092
0.1488	350.33	0.1136	0.0076
0.0992	350.33	0.0766	0.0058
0.0483	350.33	0.0379	0.0035
0.0278	350.34	0.022	0.0026
0.0074	350.34	0.0059	0.0015
0	350.34	0	

System: 2-thiapropane + dimethyl ether; phases: Liquid, Gas
Property: Vapor or sublimation pressure, kPa (Liquid); method: Closed cell (Static) method
Mole fraction of dimethyl ether	Temperature, K	Vapor or sublimation pressure, kPa	uncertainty
1	336.67	1576.5	9.3
0.9885	336.67	1557.6	9.5
0.9699	336.67	1528.9	9.6
0.9459	336.68	1492.5	9.8
0.8936	336.67	1414.9	10.9
0.842	336.67	1340.7	12.2
0.7913	336.68	1270.8	13.1
0.7417	336.68	1203.1	14.1
0.6917	336.67	1136.2	14.3
0.6427	336.67	1072.1	14.8
0.5935	336.67	1008.9	14.9
0.5445	336.67	946.7	15.2
0.4961	336.67	886.1	15.5
0.4968	336.67	883.6	15.5
0.4466	336.67	816.9	15.9
0.3957	336.68	750.3	14.5
0.3447	336.67	683.9	13.6
0.2957	336.67	620.5	12.5
0.2448	336.67	554.9	11.2
0.1941	336.67	489.2	9.7
0.1451	336.67	425.4	7.9
0.0972	336.68	362.7	5.9
0.0493	336.68	299.4	3.6
0.0311	336.68	275	2.9
0.0137	336.67	251.7	1.9
0	336.67	232.9	1.5

System: 2-thiapropane + dimethyl ether; phases: Gas, Liquid
Property: Mole fraction of dimethyl ether (Gas); method: Phase equilibration
Mole fraction of dimethyl ether	Temperature, K	Mole fraction of dimethyl ether	uncertainty
1	336.67	1	
0.9885	336.67	0.9972	0.0007
0.9699	336.67	0.9925	0.0014
0.9459	336.68	0.9864	0.002
0.8936	336.67	0.9729	0.003
0.842	336.67	0.9591	0.0038
0.7913	336.68	0.9452	0.0045
0.7417	336.68	0.9308	0.0051
0.6917	336.67	0.9155	0.0059
0.6427	336.67	0.8992	0.0065
0.5935	336.67	0.8813	0.007
0.5445	336.67	0.8616	0.0078
0.4961	336.67	0.8396	0.0083
0.4968	336.67	0.84	0.0083
0.4466	336.67	0.8142	0.0087
0.3957	336.68	0.7838	0.0098
0.3447	336.67	0.748	0.011
0.2957	336.67	0.707	0.0113
0.2448	336.67	0.6551	0.012
0.1941	336.67	0.5902	0.0127
0.1451	336.67	0.5088	0.0115
0.0972	336.68	0.4016	0.0142
0.0493	336.68	0.2484	0.0087
0.0311	336.68	0.1711	0.0081
0.0137	336.67	0.0828	0.0052
0	336.67	0	
