Measured thermophysical data. Viscosity of liquid systems involving hydrogenated and fluorinated substances: Liquid mixtures of (hexane + perfluorohexane)
Source: Fluid Phase Equilib., 2013, 10.1016/j.fluid.2013.07.060
Compound 1: hexane, C6H14, InChI=1S/C6H14/c1-3-5-6-4-2/h3-6H2,1-2H3
Compound 2: perfluorohexane, C6F14, InChI=1S/C6F14/c7-1(8,3(11,12)5(15,16)17)2(9,10)4(13,14)6(18,19)20

System: hexane; phases: Liquid
Fixed: Pressure, kPa = 101.325
Property: Viscosity, Pa*s (Liquid); method: Capillary tube (Ostwald; Ubbelohde) method
Temperature, K	Viscosity, Pa*s	uncertainty
298.2	0.0002937	6.5e-06
303.16	0.0002798	6.2e-06
308.13	0.0002669	5.9e-06

System: hexane + perfluorohexane; phases: Liquid
Fixed: Pressure, kPa = 101
Fixed: Temperature, K = 298
Property: Mass density, kg/m3 (Liquid); method: Vibrating tube method
Mole fraction of perfluorohexane	Mass density, kg/m3	uncertainty
0	655	1
0.25	956	1
0.5	1207	1
0.75	1457	1
1	1672	1

System: hexane + perfluorohexane; phases: Liquid
Fixed: Pressure, kPa = 101
Property: Viscosity, Pa*s (Liquid); method: Capillary tube (Ostwald; Ubbelohde) method
Temperature, K	Mole fraction of perfluorohexane	Viscosity, Pa*s	uncertainty
298	0	0.000294	6e-06
298	0.243	0.000341	8e-06
298	0.5	0.000408	9e-06
298	0.5	0.000407	9e-06
298	0.705	0.000458	1e-05
298	0.727	0.000468	1e-05
298	0.902	0.000556	1.2e-05
298	1	0.000635	1.4e-05
303	0	0.00028	6e-06
303	0.243	0.000319	7e-06
303	0.5	0.000375	8e-06
303	0.705	0.000428	9e-06
303	0.727	0.000438	1e-05
303	0.902	0.00052	1.1e-05
303	1	0.000589	1.3e-05
308	0	0.000267	6e-06
308	0.243	0.000299	7e-06
308	0.5	0.00035	8e-06
308	0.5	0.000352	8e-06
308	0.705	0.000401	9e-06
308	0.727	0.00041	9e-06
308	0.902	0.000483	1e-05
308	1	0.000548	1.2e-05
