Measured thermophysical data. Vapour pressures and excess functions of (3,5; 2,6)dimethylpyridine + n-hexane, n-heptane and n-octane measurement and prediction
Source: Fluid Phase Equilib., 2005, 10.1016/j.fluid.2005.03.028
Compound 1: octane, C8H18, InChI=1S/C8H18/c1-3-5-7-8-6-4-2/h3-8H2,1-2H3, purity 99%
Compound 2: 2,6-dimethylpyridine, C7H9N, InChI=1S/C7H9N/c1-6-4-3-5-7(2)8-6/h3-5H,1-2H3, purity 99%
Compound 3: 3,5-dimethylpyridine, C7H9N, InChI=1S/C7H9N/c1-6-3-7(2)5-8-4-6/h3-5H,1-2H3, purity 98%
Compound 4: hexane, C6H14, InChI=1S/C6H14/c1-3-5-6-4-2/h3-6H2,1-2H3, purity 99%
Compound 5: heptane, C7H16, InChI=1S/C7H16/c1-3-5-7-6-4-2/h3-7H2,1-2H3, purity 99%

System: 2,6-dimethylpyridine + hexane; phases: Liquid
Fixed: Temperature, K = 303.15
Fixed: Pressure, kPa = 101.3
Property: Excess molar enthalpy (molar enthalpy of mixing), kJ/mol (Liquid); method: CALVET:UFactor:4
Mole fraction of 2,6-dimethylpyridine	Excess molar enthalpy (molar enthalpy of mixing), kJ/mol	uncertainty
0.1061	0.42	0.018
0.2206	0.716	0.025
0.2931	0.846	0.029
0.3822	0.901	0.031
0.4338	0.924	0.032
0.4341	0.92	0.032
0.4507	0.946	0.032
0.5516	0.933	0.032
0.6172	0.9	0.031
0.7034	0.798	0.028
0.7949	0.592	0.022
0.884	0.353	0.016

System: 2,6-dimethylpyridine + hexane; phases: Liquid, Gas
Property: Vapor or sublimation pressure, kPa (Liquid); method: CCELL:UFactor:2
Temperature, K	Mole fraction of 2,6-dimethylpyridine	Vapor or sublimation pressure, kPa	uncertainty
263.15	0.1245	3.454	0.068
263.15	0.2928	2.768	0.063
263.15	0.4265	2.522	0.061
263.15	0.5726	2.219	0.058
263.15	0.6766	1.959	0.056
263.15	0.7658	1.663	0.053
263.15	0.9332	0.72	0.034
263.15	0.9425	0.643	0.031
273.15	0.1245	5.442	0.084
273.15	0.2928	4.816	0.079
273.15	0.4265	4.361	0.076
273.15	0.5726	3.818	0.071
273.15	0.6766	3.344	0.067
273.15	0.7658	2.811	0.063
273.15	0.9332	1.215	0.054
273.15	0.9425	1.086	0.049
283.15	0.1245	9.069	0.114
283.15	0.2928	7.992	0.105
283.15	0.4265	7.207	0.099
283.15	0.5726	6.273	0.091
283.15	0.6766	5.462	0.085
283.15	0.7658	4.557	0.077
283.15	0.9332	1.98	0.056
283.15	0.9425	1.774	0.054
293.15	0.1245	14.493	0.159
293.15	0.2928	12.726	0.144
293.15	0.4265	11.419	0.134
293.15	0.5726	9.898	0.121
293.15	0.6766	8.581	0.11
293.15	0.7658	7.124	0.098
293.15	0.9332	3.125	0.065
293.15	0.9425	2.808	0.063
298.15	0.1245	18.064	0.189
298.15	0.2928	15.835	0.17
298.15	0.4265	14.183	0.157
298.15	0.5726	12.266	0.141
298.15	0.6766	10.614	0.127
298.15	0.7658	8.797	0.112
298.15	0.9332	3.884	0.072
298.15	0.9425	3.495	0.068
303.15	0.1245	22.322	0.224
303.15	0.2928	19.536	0.201
303.15	0.4265	17.469	0.184
303.15	0.5726	15.072	0.164
303.15	0.6766	13.024	0.147
303.15	0.7658	10.779	0.128
303.15	0.9332	4.794	0.079
303.15	0.9425	4.322	0.075
313.15	0.1245	33.273	0.314
313.15	0.2928	29.033	0.279
313.15	0.4265	25.886	0.253
313.15	0.5726	22.234	0.223
313.15	0.6766	19.17	0.198
313.15	0.7658	15.84	0.17
313.15	0.9332	7.164	0.099
313.15	0.9425	6.484	0.093
323.15	0.1245	48.174	0.438
323.15	0.2928	41.92	0.386
323.15	0.4265	37.285	0.347
323.15	0.5726	31.888	0.303
323.15	0.6766	27.455	0.266
323.15	0.7658	22.675	0.227
323.15	0.9332	10.454	0.126
323.15	0.9425	9.502	0.118
333.15	0.1245	67.953	0.601
333.15	0.2928	58.985	0.527
333.15	0.4265	52.356	0.472
333.15	0.5726	44.593	0.408
333.15	0.6766	38.365	0.356
333.15	0.7658	31.703	0.301
333.15	0.9332	14.928	0.163
333.15	0.9425	13.629	0.152
343.15	0.1245	93.637	0.813
343.15	0.2928	81.094	0.709
343.15	0.4265	71.857	0.633
343.15	0.5726	60.961	0.543
343.15	0.6766	52.436	0.472
343.15	0.7658	43.388	0.398
343.15	0.9332	20.897	0.212
343.15	0.9425	19.169	0.198
353.15	0.1245	126.336	1.083
353.15	0.2928	109.182	0.941
353.15	0.4265	96.61	0.837
353.15	0.5726	81.65	0.713
353.15	0.6766	70.246	0.619
353.15	0.7658	58.242	0.52
353.15	0.9332	28.722	0.276
353.15	0.9425	26.475	0.258

System: 2,6-dimethylpyridine + heptane; phases: Liquid
Fixed: Temperature, K = 303.15
Fixed: Pressure, kPa = 101.3
Property: Excess molar enthalpy (molar enthalpy of mixing), kJ/mol (Liquid); method: CALVET:UFactor:4
Mole fraction of 2,6-dimethylpyridine	Excess molar enthalpy (molar enthalpy of mixing), kJ/mol	uncertainty
0.1137	0.476	0.019
0.1939	0.668	0.024
0.26	0.813	0.028
0.313	0.881	0.03
0.318	0.902	0.031
0.365	0.944	0.032
0.4264	0.991	0.034
0.46	1.009	0.034
0.5077	1.011	0.034
0.58	0.951	0.033
0.7064	0.845	0.029
0.7851	0.69	0.025
0.857	0.513	0.02

System: 2,6-dimethylpyridine + heptane; phases: Liquid, Gas
Property: Vapor or sublimation pressure, kPa (Liquid); method: CCELL:UFactor:2
Temperature, K	Mole fraction of 2,6-dimethylpyridine	Vapor or sublimation pressure, kPa	uncertainty
263.15	0.1245	0.741	0.035
263.15	0.2157	0.697	0.033
263.15	0.307	0.661	0.032
263.15	0.3843	0.625	0.03
263.15	0.4903	0.586	0.029
263.15	0.6204	0.521	0.026
263.15	0.7102	0.466	0.024
263.15	0.8052	0.392	0.021
263.15	0.9224	0.235	0.015
273.15	0.1245	1.406	0.051
273.15	0.2157	1.322	0.051
273.15	0.307	1.254	0.055
273.15	0.3843	1.179	0.052
273.15	0.4903	1.103	0.049
273.15	0.6204	0.978	0.044
273.15	0.7102	0.872	0.04
273.15	0.8052	0.729	0.034
273.15	0.9224	0.445	0.023
283.15	0.1245	2.526	0.06
283.15	0.2157	2.376	0.059
283.15	0.307	2.253	0.058
283.15	0.3843	2.112	0.057
283.15	0.4903	1.971	0.056
283.15	0.6204	1.745	0.054
283.15	0.7102	1.55	0.053
283.15	0.8052	1.294	0.057
283.15	0.9224	0.802	0.037
293.15	0.1245	4.327	0.075
293.15	0.2157	4.071	0.073
293.15	0.307	3.859	0.071
293.15	0.3843	3.61	0.069
293.15	0.4903	3.363	0.067
293.15	0.6204	2.973	0.064
293.15	0.7102	2.639	0.061
293.15	0.8052	2.2	0.058
293.15	0.9224	1.387	0.051
298.15	0.1245	5.572	0.085
298.15	0.2157	5.244	0.083
298.15	0.307	4.971	0.081
298.15	0.3843	4.647	0.078
298.15	0.4903	4.326	0.075
298.15	0.6204	3.821	0.071
298.15	0.7102	3.388	0.068
298.15	0.8052	2.828	0.063
298.15	0.9224	1.798	0.055
303.15	0.1245	7.106	0.098
303.15	0.2157	6.688	0.095
303.15	0.307	6.339	0.092
303.15	0.3843	5.922	0.088
303.15	0.4903	5.51	0.085
303.15	0.6204	4.865	0.08
303.15	0.7102	4.313	0.075
303.15	0.8052	3.603	0.069
303.15	0.9224	2.312	0.059
313.15	0.1245	11.243	0.132
313.15	0.2157	10.588	0.127
313.15	0.307	10.03	0.122
313.15	0.3843	9.366	0.117
313.15	0.4903	8.707	0.111
313.15	0.6204	7.681	0.103
313.15	0.7102	6.812	0.096
313.15	0.8052	5.702	0.087
313.15	0.9224	3.728	0.07
323.15	0.1245	17.207	0.182
323.15	0.2157	16.216	0.173
323.15	0.307	15.35	0.166
323.15	0.3843	14.334	0.158
323.15	0.4903	13.319	0.149
323.15	0.6204	11.743	0.136
323.15	0.7102	10.426	0.125
323.15	0.8052	8.753	0.112
323.15	0.9224	5.832	0.088
333.15	0.1245	25.56	0.251
333.15	0.2157	24.107	0.239
333.15	0.307	22.802	0.228
333.15	0.3843	21.304	0.215
333.15	0.4903	19.792	0.203
333.15	0.6204	17.445	0.183
333.15	0.7102	15.511	0.167
333.15	0.8052	13.069	0.147
333.15	0.9224	8.875	0.113
343.15	0.1245	36.967	0.345
343.15	0.2157	34.893	0.328
343.15	0.307	32.976	0.312
343.15	0.3843	30.839	0.294
343.15	0.4903	28.65	0.276
343.15	0.6204	25.249	0.248
343.15	0.7102	22.494	0.225
343.15	0.8052	19.03	0.196
343.15	0.9224	13.173	0.148
353.15	0.1245	52.189	0.47
353.15	0.2157	49.304	0.446
353.15	0.307	46.551	0.424
353.15	0.3843	43.588	0.399
353.15	0.4903	40.503	0.374
353.15	0.6204	35.695	0.334
353.15	0.7102	31.872	0.302
353.15	0.8052	27.086	0.263
353.15	0.9224	19.111	0.197

System: 2,6-dimethylpyridine + octane; phases: Liquid
Fixed: Temperature, K = 303.15
Fixed: Pressure, kPa = 101.3
Property: Excess molar enthalpy (molar enthalpy of mixing), kJ/mol (Liquid); method: CALVET:UFactor:4
Mole fraction of 2,6-dimethylpyridine	Excess molar enthalpy (molar enthalpy of mixing), kJ/mol	uncertainty
0.108	0.5	0.02
0.199	0.72	0.026
0.202	0.76	0.027
0.346	0.976	0.033
0.413	1.03	0.035
0.506	1.05	0.036
0.597	1.03	0.035
0.698	0.906	0.031
0.708	0.871	0.03

System: 2,6-dimethylpyridine + octane; phases: Liquid, Gas
Property: Vapor or sublimation pressure, kPa (Liquid); method: CCELL:UFactor:2
Temperature, K	Mole fraction of 2,6-dimethylpyridine	Vapor or sublimation pressure, kPa	uncertainty
263.15	0.1183	0.19	0.013
263.15	0.2196	0.186	0.013
263.15	0.3426	0.181	0.012
263.15	0.4307	0.175	0.012
263.15	0.5628	0.164	0.012
263.15	0.6688	0.157	0.012
263.15	0.7755	0.142	0.011
263.15	0.9399	0.104	0.01
273.15	0.1183	0.392	0.021
273.15	0.2196	0.384	0.021
273.15	0.3426	0.373	0.02
273.15	0.4307	0.36	0.02
273.15	0.5628	0.338	0.019
273.15	0.6688	0.322	0.018
273.15	0.7755	0.292	0.017
273.15	0.9399	0.217	0.014
283.15	0.1183	0.759	0.036
283.15	0.2196	0.745	0.035
283.15	0.3426	0.721	0.034
283.15	0.4307	0.698	0.033
283.15	0.5628	0.655	0.031
283.15	0.6688	0.622	0.03
283.15	0.7755	0.565	0.028
283.15	0.9399	0.426	0.022
293.15	0.1183	1.393	0.051
293.15	0.2196	1.367	0.051
293.15	0.3426	1.322	0.051
293.15	0.4307	1.282	0.057
293.15	0.5628	1.204	0.053
293.15	0.6688	1.139	0.051
293.15	0.7755	1.037	0.047
293.15	0.9399	0.794	0.037
298.15	0.1183	1.852	0.055
298.15	0.2196	1.818	0.055
298.15	0.3426	1.758	0.054
298.15	0.4307	1.705	0.054
298.15	0.5628	1.602	0.053
298.15	0.6688	1.514	0.052
298.15	0.7755	1.381	0.051
298.15	0.9399	1.064	0.048
303.15	0.1183	2.435	0.06
303.15	0.2196	2.391	0.059
303.15	0.3426	2.312	0.059
303.15	0.4307	2.243	0.058
303.15	0.5628	2.108	0.057
303.15	0.6688	1.99	0.056
303.15	0.7755	1.819	0.055
303.15	0.9399	1.411	0.051
313.15	0.1183	4.08	0.073
313.15	0.2196	4.007	0.073
313.15	0.3426	3.877	0.072
313.15	0.4307	3.762	0.071
313.15	0.5628	3.541	0.069
313.15	0.6688	3.334	0.067
313.15	0.7755	3.062	0.065
313.15	0.9399	2.406	0.059
323.15	0.1183	6.584	0.094
323.15	0.2196	6.465	0.093
323.15	0.3426	6.261	0.091
323.15	0.4307	6.077	0.09
323.15	0.5628	5.726	0.087
323.15	0.6688	5.39	0.084
323.15	0.7755	4.969	0.081
323.15	0.9399	3.853	0.071
333.15	0.1183	10.271	0.124
333.15	0.2196	10.086	0.123
333.15	0.3426	9.778	0.12
333.15	0.4307	9.492	0.118
333.15	0.5628	8.954	0.113
333.15	0.6688	8.421	0.109
333.15	0.7755	7.803	0.104
333.15	0.9399	6.28	0.091
343.15	0.1183	15.546	0.168
343.15	0.2196	15.262	0.165
343.15	0.3426	14.817	0.162
343.15	0.4307	14.382	0.158
343.15	0.5628	13.585	0.152
343.15	0.6688	12.768	0.145
343.15	0.7755	11.895	0.138
343.15	0.9399	9.68	0.119
353.15	0.1183	22.895	0.228
353.15	0.2196	22.472	0.225
353.15	0.3426	21.848	0.22
353.15	0.4307	21.205	0.214
353.15	0.5628	20.057	0.205
353.15	0.6688	18.843	0.195
353.15	0.7755	17.652	0.185
353.15	0.9399	14.518	0.159

System: hexane + 3,5-dimethylpyridine; phases: Liquid
Fixed: Temperature, K = 303.15
Fixed: Pressure, kPa = 101.3
Property: Excess molar enthalpy (molar enthalpy of mixing), kJ/mol (Liquid); method: CALVET:UFactor:4
Mole fraction of 3,5-dimethylpyridine	Excess molar enthalpy (molar enthalpy of mixing), kJ/mol	uncertainty
0.1064	0.574	0.022
0.1889	0.839	0.029
0.314	1.083	0.037
0.434	1.15	0.039
0.5119	1.165	0.039
0.6092	1.089	0.037
0.7259	0.894	0.031
0.775	0.798	0.028
0.8934	0.409	0.018
0.9495	0.206	0.013

System: hexane + 3,5-dimethylpyridine; phases: Liquid, Gas
Property: Vapor or sublimation pressure, kPa (Liquid); method: CCELL:UFactor:2
Temperature, K	Mole fraction of 3,5-dimethylpyridine	Vapor or sublimation pressure, kPa	uncertainty
273.15	0.064	5.808	0.088
273.15	0.1399	5.5	0.085
273.15	0.3044	5.029	0.082
273.15	0.4926	4.57	0.078
273.15	0.5675	4.349	0.076
273.15	0.6973	3.778	0.072
273.15	0.9404	0.725	0.034
283.15	0.064	9.651	0.119
283.15	0.1399	9.181	0.116
283.15	0.3044	8.325	0.109
283.15	0.4926	7.485	0.103
283.15	0.5675	7.085	0.099
283.15	0.6973	6.085	0.091
283.15	0.9404	1.154	0.052
293.15	0.064	15.405	0.167
293.15	0.1399	14.687	0.161
293.15	0.3044	13.217	0.15
293.15	0.4926	11.773	0.139
293.15	0.5675	11.086	0.134
293.15	0.6973	9.434	0.12
293.15	0.9404	1.782	0.055
298.15	0.064	19.198	0.199
298.15	0.1399	18.312	0.192
298.15	0.3044	16.421	0.177
298.15	0.4926	14.564	0.163
298.15	0.5675	13.679	0.156
298.15	0.6973	11.596	0.139
298.15	0.9404	2.193	0.058
303.15	0.064	23.727	0.236
303.15	0.1399	22.631	0.228
303.15	0.3044	20.227	0.209
303.15	0.4926	17.866	0.191
303.15	0.5675	16.738	0.182
303.15	0.6973	14.141	0.161
303.15	0.9404	2.682	0.062
313.15	0.064	35.404	0.333
313.15	0.1399	33.731	0.32
313.15	0.3044	29.962	0.291
313.15	0.4926	26.265	0.263
313.15	0.5675	24.488	0.249
313.15	0.6973	20.569	0.217
313.15	0.9404	3.938	0.073
323.15	0.064	51.352	0.465
323.15	0.1399	48.815	0.446
323.15	0.3044	43.116	0.402
323.15	0.4926	37.538	0.359
323.15	0.5675	34.834	0.338
323.15	0.6973	29.129	0.291
323.15	0.9404	5.657	0.088
333.15	0.064	72.613	0.641
333.15	0.1399	68.805	0.612
333.15	0.3044	60.462	0.548
333.15	0.4926	52.313	0.485
333.15	0.5675	48.325	0.453
333.15	0.6973	40.273	0.387
333.15	0.9404	7.963	0.108

System: heptane + 3,5-dimethylpyridine; phases: Liquid
Fixed: Temperature, K = 303.15
Fixed: Pressure, kPa = 101.3
Property: Excess molar enthalpy (molar enthalpy of mixing), kJ/mol (Liquid); method: CALVET:UFactor:4
Mole fraction of 3,5-dimethylpyridine	Excess molar enthalpy (molar enthalpy of mixing), kJ/mol	uncertainty
0.0712	0.398	0.017
0.2287	0.91	0.031
0.2961	1.079	0.037
0.3799	1.175	0.04
0.4475	1.24	0.042
0.497	1.225	0.041
0.5013	1.23	0.041
0.5962	1.185	0.04
0.6871	1.042	0.035
0.7428	0.915	0.031
0.85	0.574	0.022

System: heptane + 3,5-dimethylpyridine; phases: Liquid, Gas
Property: Vapor or sublimation pressure, kPa (Liquid); method: CCELL:UFactor:2
Temperature, K	Mole fraction of 3,5-dimethylpyridine	Vapor or sublimation pressure, kPa	uncertainty
273.15	0.0865	1.429	0.052
273.15	0.1192	1.402	0.051
273.15	0.2902	1.279	0.056
273.15	0.4468	1.176	0.052
273.15	0.59	1.107	0.05
273.15	0.6903	1.005	0.046
273.15	0.823	0.736	0.035
283.15	0.0865	2.576	0.061
283.15	0.1192	2.526	0.061
283.15	0.2902	2.291	0.059
283.15	0.4468	2.093	0.057
283.15	0.59	1.953	0.056
283.15	0.6903	1.77	0.055
283.15	0.823	1.273	0.056
293.15	0.0865	4.422	0.076
293.15	0.1192	4.335	0.075
293.15	0.2902	3.914	0.072
293.15	0.4468	3.552	0.069
293.15	0.59	3.292	0.067
293.15	0.6903	2.976	0.065
293.15	0.823	2.11	0.057
298.15	0.0865	5.701	0.087
298.15	0.1192	5.588	0.086
298.15	0.2902	5.033	0.081
298.15	0.4468	4.555	0.078
298.15	0.59	4.208	0.075
298.15	0.6903	3.799	0.072
298.15	0.823	2.679	0.062
303.15	0.0865	7.276	0.1
303.15	0.1192	7.13	0.099
303.15	0.2902	6.41	0.093
303.15	0.4468	5.783	0.088
303.15	0.59	5.327	0.085
303.15	0.6903	4.802	0.08
303.15	0.823	3.372	0.068
313.15	0.0865	11.528	0.135
313.15	0.1192	11.291	0.133
313.15	0.2902	10.112	0.124
313.15	0.4468	9.075	0.116
313.15	0.59	8.315	0.11
313.15	0.6903	7.472	0.103
313.15	0.823	5.214	0.084
323.15	0.0865	17.66	0.186
323.15	0.1192	17.288	0.183
323.15	0.2902	15.431	0.169
323.15	0.4468	13.778	0.156
323.15	0.59	12.566	0.146
323.15	0.6903	11.254	0.136
323.15	0.823	7.826	0.107
333.15	0.0865	26.252	0.257
333.15	0.1192	25.686	0.253
333.15	0.2902	22.857	0.231
333.15	0.4468	20.313	0.211
333.15	0.59	18.452	0.197
333.15	0.6903	16.467	0.181
333.15	0.823	11.437	0.138

System: octane + 3,5-dimethylpyridine; phases: Liquid
Fixed: Temperature, K = 303.15
Fixed: Pressure, kPa = 101.3
Property: Excess molar enthalpy (molar enthalpy of mixing), kJ/mol (Liquid); method: CALVET:UFactor:4
Mole fraction of 3,5-dimethylpyridine	Excess molar enthalpy (molar enthalpy of mixing), kJ/mol	uncertainty
0.1056	0.555	0.021
0.2504	1.005	0.034
0.3971	1.231	0.041
0.4266	1.258	0.042
0.4971	1.272	0.043
0.5313	1.275	0.043
0.5417	1.268	0.042
0.6032	1.224	0.041
0.7289	0.99	0.034
0.8127	0.77	0.027
0.914	0.383	0.017

System: octane + 3,5-dimethylpyridine; phases: Liquid, Gas
Property: Vapor or sublimation pressure, kPa (Liquid); method: CCELL:UFactor:2
Temperature, K	Mole fraction of 3,5-dimethylpyridine	Vapor or sublimation pressure, kPa	uncertainty
273.15	0.11	0.373	0.0201
273.15	0.308	0.34	0.0188
273.15	0.4049	0.334	0.0186
273.15	0.5431	0.306	0.0175
273.15	0.59	0.302	0.0173
273.15	0.8117	0.229	0.0144
273.15	0.9404	0.135	0.0106
283.15	0.11	0.725	0.0343
283.15	0.308	0.66	0.0317
283.15	0.4049	0.647	0.0311
283.15	0.5431	0.589	0.0288
283.15	0.59	0.577	0.0283
283.15	0.8117	0.433	0.0226
283.15	0.9404	0.259	0.0156
293.15	0.11	1.335	0.0508
293.15	0.308	1.214	0.0539
293.15	0.4049	1.186	0.0528
293.15	0.5431	1.073	0.0482
293.15	0.59	1.046	0.0472
293.15	0.8117	0.781	0.0366
293.15	0.9404	0.476	0.0243
298.15	0.11	1.778	0.0544
298.15	0.308	1.616	0.0531
298.15	0.4049	1.576	0.0528
298.15	0.5431	1.423	0.0516
298.15	0.59	1.384	0.0513
298.15	0.8117	1.031	0.0466
298.15	0.9404	0.635	0.0307
303.15	0.11	2.341	0.059
303.15	0.308	2.127	0.0573
303.15	0.4049	2.071	0.0569
303.15	0.5431	1.866	0.0553
303.15	0.59	1.812	0.0548
303.15	0.8117	1.347	0.051
303.15	0.9404	0.837	0.0388
313.15	0.11	3.932	0.0721
313.15	0.308	3.571	0.0693
313.15	0.4049	3.469	0.0685
313.15	0.5431	3.113	0.0657
313.15	0.59	3.012	0.0649
313.15	0.8117	2.234	0.0585
313.15	0.9404	1.417	0.0517
323.15	0.11	6.36	0.0922
323.15	0.308	5.773	0.0877
323.15	0.4049	5.594	0.0864
323.15	0.5431	5.001	0.0816
323.15	0.59	4.825	0.0802
323.15	0.8117	3.578	0.0699
323.15	0.9404	2.317	0.0593
333.15	0.11	9.941	0.1219
333.15	0.308	9.022	0.1149
333.15	0.4049	8.721	0.1127
333.15	0.5431	7.771	0.1052
333.15	0.59	7.48	0.1028
333.15	0.8117	5.551	0.0869
333.15	0.9404	3.671	0.0709
343.15	0.11	15.072	0.1643
343.15	0.308	13.678	0.1539
343.15	0.4049	13.191	0.1504
343.15	0.5431	11.72	0.1388
343.15	0.59	11.258	0.1351
343.15	0.8117	8.369	0.1113
343.15	0.9404	5.653	0.0881
