Measured thermophysical data. Vapor pressures and standard molar enthalpies, entropies and Gibbs energies of sublimation of three 4-substituted acetanilide derivatives
Source: Fluid Phase Equilib., 2009, 10.1016/j.fluid.2009.02.001
Compound 1: N-(4-ethoxyphenyl)ethanamide, C10H13NO2, InChI=1S/C10H13NO2/c1-3-13-10-6-4-9(5-7-10)11-8(2)12/h4-7H,3H2,1-2H3,(H,11,12), purity 95%
Compound 2: N-acetyl-p-aminophenol, C8H9NO2, InChI=1S/C8H9NO2/c1-6(10)9-7-2-4-8(11)5-3-7/h2-5,11H,1H3,(H,9,10), purity 95%
Compound 3: N-(4-bromophenyl)acetamide, C8H8BrNO, InChI=1S/C8H8BrNO/c1-6(11)10-8-4-2-7(9)3-5-8/h2-5H,1H3,(H,10,11), purity 95%

System: N-(4-ethoxyphenyl)ethanamide; phases: Crystal, Liquid, Air at 1 atmosphere
Property: Normal melting temperature, K (Crystal); method: DTA
Normal melting temperature, K	uncertainty
409.6	0.5

System: N-(4-ethoxyphenyl)ethanamide; phases: Crystal, Liquid, Gas
Property: Molar enthalpy of transition or fusion, kJ/mol (Crystal); method: DSC
Molar enthalpy of transition or fusion, kJ/mol	uncertainty
30	2

System: N-(4-ethoxyphenyl)ethanamide; phases: Liquid, Gas
Property: Vapor or sublimation pressure, kPa (Liquid); method: Nonisothermal thermogravimetry
Temperature, K	Vapor or sublimation pressure, kPa	uncertainty
424.3	0.106	0.015
432.3	0.171	0.019
442.2	0.309	0.036
450.2	0.452	0.05
458.2	0.643	0.071
466.3	0.936	0.109
474.2	1.324	0.142
482.3	1.802	0.192
490.3	2.41	0.25
498.2	3.001	0.316
502.3	3.213	0.324
420.2	0.087	0.009
428.2	0.146	0.015
438.2	0.247	0.027
446.2	0.401	0.043
454.2	0.538	0.06
462.2	0.785	0.085
470.2	1.11	0.12
478.3	1.559	0.171
486.2	2.088	0.221
494.3	2.717	0.286
500.3	3.29	0.33
422.2	0.102	0.011
430.3	0.162	0.017
440.2	0.259	0.03
448.2	0.396	0.042
456.3	0.589	0.064
464.3	0.84	0.092
472.2	1.192	0.131
480.2	1.679	0.179
488.2	2.229	0.236
496.2	2.889	0.298
418.2	0.088	0.009
426.2	0.146	0.018
434.3	0.199	0.024
444.2	0.329	0.04
452.2	0.479	0.053
460.2	0.707	0.079
468.2	1.057	0.115
476.2	1.4	0.15
484.3	1.945	0.208
492.3	2.535	0.265

System: N-(4-ethoxyphenyl)ethanamide; phases: Liquid, Gas
Property: Vapor or sublimation pressure, kPa (Liquid); method: Isothermal thermogravimetry
Temperature, K	Vapor or sublimation pressure, kPa	uncertainty
460.3	0.821	0.082
462.2	0.899	0.107
464.3	0.96	0.11
466.2	1.087	0.12
468.3	1.165	0.125
470.3	1.273	0.136
472.2	1.381	0.147
474.3	1.551	0.167
476.2	1.666	0.172
478.3	1.766	0.181
480.2	1.915	0.209
482.3	2.099	0.222
484.3	2.276	0.251
486.2	2.488	0.277
488.3	2.686	0.299
490.2	2.941	0.298
461.1	0.829	0.105
463.3	0.958	0.106
465.5	1.054	0.116
467.4	1.116	0.123
469.3	1.242	0.129
471	1.26	0.13
473.3	1.377	0.151
475.4	1.567	0.163
477.6	1.691	0.174
479.1	1.789	0.198
481.2	2.014	0.233
483.3	2.204	0.246
485.3	2.4	0.28
487.1	2.633	0.276
489	2.881	0.305
491.1	3.159	0.344
461.9	0.815	0.093
464.1	0.935	0.104
466.2	1.028	0.114
468.1	1.149	0.125
470	1.259	0.134
471.8	1.327	0.137
474	1.484	0.159
476.1	1.571	0.162
478.3	1.709	0.175
479.8	1.808	0.2
482	2.037	0.223
484.1	2.228	0.243
486	2.495	0.28
487.8	2.702	0.304
489.8	2.981	0.343

System: N-acetyl-p-aminophenol; phases: Crystal, Liquid, Air at 1 atmosphere
Property: Normal melting temperature, K (Crystal); method: DTA
Normal melting temperature, K	uncertainty
445.6	0.5

System: N-acetyl-p-aminophenol; phases: Crystal, Liquid, Gas
Property: Molar enthalpy of transition or fusion, kJ/mol (Crystal); method: DSC
Molar enthalpy of transition or fusion, kJ/mol	uncertainty
27	2

System: N-acetyl-p-aminophenol; phases: Liquid, Gas
Property: Vapor or sublimation pressure, kPa (Liquid); method: Nonisothermal thermogravimetry
Temperature, K	Vapor or sublimation pressure, kPa	uncertainty
477.3	0.197	0.02
493.3	0.447	0.046
503.4	0.838	0.09
509.3	1.037	0.122
517.2	1.544	0.172
525.3	2.197	0.232
533.3	3.064	0.326
541.3	4.144	0.445
549.2	5.759	0.616
557.3	7.824	0.786
481.4	0.25	0.029
489.3	0.315	0.045
505.2	0.861	0.091
513.4	1.178	0.128
521.3	1.757	0.192
529.2	2.607	0.291
537.2	3.552	0.4
545.4	5.059	0.536
553.2	6.719	0.804
561.2	8.944	0.963
483.2	0.259	0.031
491.2	0.468	0.057
499.3	0.669	0.073
507.2	0.945	0.104
515.4	1.41	0.17
523.2	2.012	0.229
531.2	2.823	0.304
539.3	4.01	0.43
547.4	5.373	0.568
555.3	8.01	0.85
479.3	0.204	0.024
487.3	0.341	0.036
495.4	0.504	0.063
503.2	0.729	0.079
511.3	1.207	0.125
519.2	1.696	0.177
527.3	2.32	0.26
535.4	3.295	0.352
543.3	4.653	0.516
551.2	6.208	0.666
559.4	8.304	0.878

System: N-acetyl-p-aminophenol; phases: Liquid, Gas
Property: Vapor or sublimation pressure, kPa (Liquid); method: Isothermal thermogravimetry
Temperature, K	Vapor or sublimation pressure, kPa	uncertainty
477.3	0.194	0.02
479.3	0.206	0.023
481.4	0.249	0.027
483.2	0.276	0.029
485.2	0.303	0.033
487.3	0.336	0.037
489.3	0.365	0.038
491.2	0.409	0.047
493.3	0.44	0.047
495.4	0.492	0.051
497.2	0.554	0.059
499.3	0.61	0.067
501.4	0.677	0.074
503.2	0.733	0.083
505.2	0.815	0.087
507.2	0.888	0.094
478.8	0.1996	0.0229
480.8	0.2307	0.0305
482.9	0.2539	0.0276
484.7	0.2838	0.0325
486.7	0.3264	0.0403
488.8	0.3624	0.0412
490.8	0.3978	0.0469
492.7	0.449	0.0524
494.8	0.4882	0.0579
496.9	0.5169	0.0586
498.7	0.5818	0.0637
500.8	0.6364	0.069
502.9	0.7129	0.0791
504.7	0.7889	0.09
506.7	0.8517	0.0926
508.7	0.933	0.098
480	0.225	0.0294
482	0.2601	0.0321
483.8	0.2861	0.0316
485.9	0.3199	0.0376
487.9	0.3679	0.0395
490	0.3891	0.0435
491.8	0.437	0.0465
493.9	0.482	0.0506
496	0.524	0.0591
497.9	0.5547	0.061
499.9	0.6246	0.0717
502	0.6832	0.0793
503.8	0.765	0.087
505.8	0.8468	0.0933
507.9	0.9142	0.1052

System: N-(4-bromophenyl)acetamide; phases: Crystal, Liquid, Air at 1 atmosphere
Property: Normal melting temperature, K (Crystal); method: DTA
Normal melting temperature, K	uncertainty
440.3	0.5

System: N-(4-bromophenyl)acetamide; phases: Crystal, Liquid, Gas
Property: Molar enthalpy of transition or fusion, kJ/mol (Crystal); method: DSC
Molar enthalpy of transition or fusion, kJ/mol	uncertainty
26	2

System: N-(4-bromophenyl)acetamide; phases: Liquid, Gas
Property: Vapor or sublimation pressure, kPa (Liquid); method: Nonisothermal thermogravimetry
Temperature, K	Vapor or sublimation pressure, kPa	uncertainty
444.2	0.304	0.041
452.3	0.579	0.072
460.3	0.793	0.09
468.3	1.147	0.116
476.2	1.497	0.168
484.3	2.151	0.234
492.2	2.83	0.3
500.3	3.812	0.406
508.2	4.944	0.526
516.2	6.243	0.662
446.4	0.366	0.043
454.4	0.621	0.063
462.2	0.882	0.097
470.3	1.074	0.125
478.3	1.779	0.189
486.2	2.296	0.243
494.3	3.134	0.339
502.2	4.149	0.442
510.2	5.307	0.554
448.4	0.398	0.045
456.4	0.611	0.065
464.3	0.953	0.1
472.2	1.398	0.172
480.2	1.749	0.18
488.3	2.466	0.27
496.2	3.347	0.355
504.3	4.419	0.456
512.2	5.584	0.573
450.2	0.443	0.065
458.3	0.712	0.085
466.2	0.998	0.111
474.3	1.482	0.15
482.3	1.937	0.217
490.2	2.741	0.289
498.3	3.604	0.378
506.2	4.593	0.479
514.4	5.847	0.607

System: N-(4-bromophenyl)acetamide; phases: Liquid, Gas
Property: Vapor or sublimation pressure, kPa (Liquid); method: Isothermal thermogravimetry
Temperature, K	Vapor or sublimation pressure, kPa	uncertainty
446.2	0.384	0.039
448.2	0.422	0.045
450.2	0.453	0.046
452.2	0.496	0.055
454.2	0.539	0.056
456.3	0.606	0.064
458.2	0.65	0.068
460.2	0.732	0.077
462.2	0.793	0.082
464.2	0.862	0.092
466.1	0.943	0.101
468.2	1.011	0.115
470.2	1.098	0.122
472.1	1.208	0.124
474.1	1.285	0.131
476.2	1.381	0.145
446.3	0.353	0.046
447.1	0.381	0.053
449.4	0.415	0.042
451.3	0.447	0.051
453.6	0.494	0.052
455.3	0.54	0.058
457.6	0.605	0.064
459.3	0.67	0.071
461.5	0.724	0.075
463.5	0.793	0.082
465.2	0.855	0.089
467.1	0.927	0.102
469.2	1.005	0.108
471.1	1.086	0.121
473.2	1.17	0.12
475.3	1.239	0.13
446.2	0.382	0.039
447.7	0.394	0.044
449.9	0.443	0.045
452.1	0.489	0.054
453.4	0.528	0.054
455.9	0.584	0.062
457.8	0.634	0.067
459.5	0.693	0.073
462	0.777	0.08
463.6	0.84	0.086
465.9	0.911	0.094
468.3	1.006	0.114
470.2	1.075	0.12
472.4	1.175	0.135
