Measured thermophysical data. Thermophysical properties of aqueous lysine and its inhibition influence on methane and carbon dioxide hydrate phase boundary condition
Source: Fluid Phase Equilib., 2017, 10.1016/j.fluid.2017.09.012
Compound 1: water, H2O, InChI=1S/H2O/h1H2, purity 99.8%
Compound 2: L-lysine, C6H14N2O2, InChI=1S/C6H14N2O2/c7-4-2-1-3-5(8)6(9)10/h5H,1-4,7-8H2,(H,9,10)/t5-/m0/s1, purity 99%

System: water + L-lysine; phases: Liquid
Fixed: Pressure, kPa = 101
Property: Mass density, kg/m3 (Liquid); method: Vibrating tube method
Temperature, K	Mass fraction of L-lysine	Mass density, kg/m3	uncertainty
293.15	0	998.23	1.6
298.15	0	997.06	1.6
303.15	0	995.67	1.6
308.15	0	994.06	1.6
313.15	0	992.23	1.6
293.15	0.05	1013.97	1.6
298.15	0.05	1012.67	1.6
303.15	0.05	1011.17	1.6
308.15	0.05	1009.47	1.6
313.15	0.05	1007.6	1.6
293.15	0.1	1029.47	1.6
298.15	0.1	1028.04	1.6
303.15	0.1	1026.44	1.6
308.15	0.1	1024.67	1.6
313.15	0.1	1022.75	1.61

System: water + L-lysine; phases: Liquid
Fixed: Pressure, kPa = 101
Property: Viscosity, Pa*s (Liquid); method: Falling or rolling sphere viscometry
Temperature, K	Mass fraction of L-lysine	Viscosity, Pa*s	uncertainty
293.15	0	0.0009926	0.0001204
298.15	0	0.0008854	0.0001203
303.15	0	0.0007894	0.0001202
308.15	0	0.0007123	0.0001202
313.15	0	0.0006482	0.0001202
293.15	0.05	0.0012613	0.0001204
298.15	0.05	0.0011293	0.0001205
303.15	0.05	0.0010156	0.0001204
308.15	0.05	0.0009447	0.0001202
313.15	0.05	0.0008984	0.0001204
293.15	0.1	0.0013238	0.0001206
298.15	0.1	0.0011937	0.0001205
303.15	0.1	0.0010786	0.0001204
308.15	0.1	0.0010125	0.0001203
313.15	0.1	0.0009598	0.0001202

System: water + L-lysine; phases: Liquid
Fixed: Pressure, kPa = 101
Property: Refractive index (Na D-line) (Liquid); method: Standard Abbe refractometry
Temperature, K	Mass fraction of L-lysine	Refractive index (Na D-line)	uncertainty
293.15	0	1.33327	0.00032
298.15	0	1.33252	0.00031
303.15	0	1.33197	0.00031
308.15	0	1.33134	0.00032
313.15	0	1.33063	0.00032
293.15	0.05	1.34309	0.00032
298.15	0.05	1.34251	0.00032
303.15	0.05	1.34187	0.00032
308.15	0.05	1.34127	0.00032
313.15	0.05	1.34061	0.00032
293.15	0.1	1.35296	0.00032
298.15	0.1	1.35246	0.00032
303.15	0.1	1.3519	0.0003
308.15	0.1	1.35135	0.00032
313.15	0.1	1.35077	0.00032
