Measured thermophysical data. Solubility and thermodynamic properties in mixed ternary aqueous solutions of hexafluoridosilicate salts (Na+, K+ or NH4+) at T= 353.15 K
Source: Fluid Phase Equilib., 2018, 10.1016/j.fluid.2018.02.011
Compound 1: disodium hexafluorosilicate, F6Na2Si, InChI=1S/F6Si.2Na/c1-7(2,3,4,5)6;;/q-2;2*+1, purity 97%
Compound 2: dipotassium hexafluorosilicate, F6K2Si, InChI=1S/F6Si.2K/c1-7(2,3,4,5)6;;/q-2;2*+1, purity 99%
Compound 3: ammonium hexafluorosilicate, F6H8N2Si, InChI=1S/F6Si.2H3N/c1-7(2,3,4,5)6;;/h;2*1H3/q-2;;/p+2, purity 98%
Compound 4: water, H2O, InChI=1S/H2O/h1H2, purity 99.9%

System: dipotassium hexafluorosilicate + disodium hexafluorosilicate + water; phases: Liquid
Fixed: Pressure, kPa = 101
Fixed: Temperature, K = 353.15
Property: (Relative) activity of water (Liquid); method: hygrometer
Molality, mol/kg of dipotassium hexafluorosilicate	Molality, mol/kg of disodium hexafluorosilicate	(Relative) activity of water	uncertainty
0	0.05	0.9979	0.0387
0	0.06	0.9974	0.0387
0	0.07	0.997	0.0387
0	0.08	0.9966	0.0387
0	0.09	0.9962	0.0387
0	0.1	0.9958	0.0387
0	0.11	0.9953	0.0387
0	0.12	0.9949	0.0387
0	0.13	0.9945	0.0387
0	0.14	0.994	0.0387
0	0.15	0.9935	0.0388
0	0.16	0.9931	0.0388
0	0.17	0.9926	0.0388
0	0.18	0.9921	0.0388
0	0.19	0.9918	0.0388
0	0.2	0.9911	0.0388
0	0.21	0.9905	0.0388
0	0.22	0.99	0.0388
0	0.25	0.9883	0.0388
0.01	0.04	0.9979	0.0387
0.01	0.05	0.9975	0.0387
0.01	0.06	0.9971	0.0387
0.02	0.06	0.9967	0.0387
0.02	0.07	0.9963	0.0387
0.02	0.08	0.9959	0.0387
0.02	0.09	0.9955	0.0387
0.02	0.1	0.9951	0.0387
0.03	0.1	0.9946	0.0387
0.03	0.11	0.9942	0.0387
0.03	0.12	0.9937	0.0387
0.03	0.13	0.9933	0.0387
0.03	0.14	0.9928	0.0387
0.04	0.14	0.9923	0.0388
0.04	0.15	0.9918	0.0388
0.04	0.16	0.9913	0.0388
0.04	0.17	0.9908	0.0388
0.04	0.18	0.9903	0.0388
0.05	0.2	0.9887	0.0388
0.03	0.03	0.998	0.0388
0.03	0.03	0.9976	0.0387
0.04	0.04	0.9972	0.0387
0.04	0.04	0.9969	0.0387
0.05	0.05	0.9965	0.0387
0.05	0.05	0.9961	0.0387
0.06	0.06	0.9957	0.0387
0.06	0.06	0.9953	0.0387
0.07	0.07	0.9949	0.0387
0.07	0.07	0.9945	0.0387
0.08	0.08	0.9941	0.0388
0.08	0.08	0.9936	0.0388
0.09	0.09	0.9932	0.0387
0.09	0.09	0.9927	0.0388
0.1	0.1	0.9923	0.0387
0.1	0.1	0.9918	0.0388
0.11	0.11	0.9913	0.0387
0.11	0.11	0.9908	0.0388
0.13	0.13	0.9892	0.0388
0.04	0.01	0.998	0.0387
0.05	0.01	0.9977	0.0387
0.06	0.01	0.9973	0.0387
0.06	0.02	0.997	0.0387
0.07	0.02	0.9966	0.0387
0.08	0.02	0.9963	0.0387
0.09	0.02	0.9959	0.0387
0.1	0.02	0.9956	0.0387
0.1	0.03	0.9952	0.0387
0.11	0.03	0.9948	0.0387
0.12	0.03	0.9944	0.0387
0.13	0.03	0.994	0.0387
0.14	0.03	0.9936	0.0388
0.14	0.04	0.9932	0.0388
0.15	0.04	0.9928	0.0388
0.16	0.04	0.9923	0.0388
0.17	0.04	0.9918	0.0388
0.18	0.04	0.9914	0.0388
0.2	0.05	0.9899	0.0388
0.22	0.05	0.9888	0.0388
0.24	0.06	0.9871	0.0388
0.05	0	0.9981	0.0387
0.06	0	0.9977	0.0387
0.07	0	0.9974	0.0387
0.08	0	0.9971	0.0387
0.09	0	0.9967	0.0387
0.1	0	0.9964	0.0387
0.11	0	0.9961	0.0387
0.12	0	0.9957	0.0387
0.13	0	0.9954	0.0387
0.14	0	0.995	0.0387
0.15	0	0.9947	0.0387
0.16	0	0.9943	0.0387
0.17	0	0.9939	0.0388
0.18	0	0.9935	0.0388
0.19	0	0.9931	0.0388
0.2	0	0.9927	0.0388
0.21	0	0.9923	0.0388
0.22	0	0.9918	0.0388
0.25	0	0.9904	0.0388
0.27	0	0.9895	0.0388
0.3	0	0.9879	0.0388

System: dipotassium hexafluorosilicate + disodium hexafluorosilicate + water; phases: Liquid, Crystal
Fixed: Pressure, kPa = 101
Property: Solid-liquid equilibrium temperature, K (Liquid); method: hygrometric method
Molality, mol/kg of dipotassium hexafluorosilicate	Molality, mol/kg of disodium hexafluorosilicate	Solid-liquid equilibrium temperature, K	uncertainty
0.05	0.2	353.15	0.41
0.13	0.13	353.15	0.41
0.24	0.06	353.15	0.41

System: dipotassium hexafluorosilicate + ammonium hexafluorosilicate + water; phases: Liquid
Fixed: Pressure, kPa = 101
Fixed: Temperature, K = 353.15
Property: (Relative) activity of water (Liquid); method: hygrometer
Molality, mol/kg of dipotassium hexafluorosilicate	Molality, mol/kg of ammonium hexafluorosilicate	(Relative) activity of water	uncertainty
0	0.05	0.9982	0.0387
0	0.06	0.9979	0.0387
0	0.07	0.9977	0.0387
0	0.08	0.9974	0.0387
0	0.09	0.9972	0.0387
0	0.1	0.9969	0.0387
0	0.11	0.9967	0.0387
0	0.12	0.9964	0.0387
0	0.13	0.9962	0.0387
0	0.14	0.9959	0.0387
0	0.15	0.9956	0.0387
0	0.16	0.9954	0.0387
0	0.17	0.9951	0.0387
0	0.18	0.9948	0.0387
0	0.19	0.9946	0.0387
0	0.2	0.9943	0.0387
0	0.21	0.994	0.0387
0	0.22	0.9937	0.0387
0.01	0.04	0.9982	0.0387
0.01	0.05	0.9979	0.0387
0.01	0.06	0.9976	0.0387
0.02	0.06	0.9973	0.0387
0.02	0.07	0.9971	0.0387
0.02	0.08	0.9968	0.0387
0.02	0.09	0.9965	0.0387
0.02	0.1	0.9963	0.0387
0.03	0.1	0.996	0.0387
0.03	0.11	0.9957	0.0387
0.03	0.12	0.9954	0.0387
0.03	0.13	0.9951	0.0387
0.03	0.14	0.9949	0.0387
0.04	0.14	0.9946	0.0387
0.03	0.03	0.9982	0.0387
0.03	0.03	0.9979	0.0387
0.04	0.04	0.9976	0.0387
0.04	0.04	0.9973	0.0387
0.05	0.05	0.997	0.0387
0.05	0.05	0.9967	0.0387
0.06	0.06	0.9964	0.0387
0.06	0.06	0.9961	0.0387
0.07	0.07	0.9958	0.0387
0.07	0.07	0.9955	0.0387
0.08	0.08	0.9951	0.0387
0.08	0.08	0.9948	0.0387
0.09	0.09	0.9945	0.0387
0.09	0.09	0.9941	0.0387
0.1	0.1	0.9938	0.0387
0.1	0.1	0.9934	0.0387
0.04	0.01	0.9981	0.0387
0.05	0.01	0.9978	0.0387
0.06	0.01	0.9975	0.0387
0.06	0.02	0.9971	0.0387
0.07	0.02	0.9968	0.0387
0.08	0.02	0.9965	0.0387
0.09	0.02	0.9962	0.0387
0.1	0.02	0.9959	0.0387
0.1	0.03	0.9955	0.0387
0.11	0.03	0.9952	0.0387
0.12	0.03	0.9948	0.0387
0.13	0.03	0.9945	0.0387
0.14	0.03	0.9941	0.0387
0.14	0.04	0.9937	0.0387
0.15	0.04	0.9934	0.0387
0.16	0.04	0.993	0.0387
0.17	0.04	0.9925	0.0387
0.18	0.04	0.9921	0.0387
0.2	0.05	0.9908	0.0387
0.05	0	0.9981	0.0387
0.06	0	0.9977	0.0387
0.07	0	0.9974	0.0387
0.08	0	0.9971	0.0387
0.09	0	0.9967	0.0387
0.1	0	0.9964	0.0387
0.11	0	0.9961	0.0387
0.12	0	0.9957	0.0387
0.13	0	0.9954	0.0387
0.14	0	0.995	0.0387
0.15	0	0.9947	0.0387
0.16	0	0.9943	0.0387
0.17	0	0.9939	0.0387
0.18	0	0.9935	0.0387
0.19	0	0.9931	0.0387
0.2	0	0.9927	0.0387
0.21	0	0.9923	0.0387
0.22	0	0.9918	0.0387
0.25	0	0.9904	0.0387
0.27	0	0.9895	0.0388
0.3	0	0.9879	0.0387

System: dipotassium hexafluorosilicate + ammonium hexafluorosilicate + water; phases: Liquid, Crystal
Fixed: Pressure, kPa = 101
Property: Solid-liquid equilibrium temperature, K (Liquid); method: hygrometric method
Molality, mol/kg of dipotassium hexafluorosilicate	Molality, mol/kg of ammonium hexafluorosilicate	Solid-liquid equilibrium temperature, K	uncertainty
0.04	0.14	353.15	0.41
0.1	0.1	353.15	0.41
0.2	0.05	353.15	0.41

System: disodium hexafluorosilicate + ammonium hexafluorosilicate + water; phases: Liquid
Fixed: Pressure, kPa = 101
Fixed: Temperature, K = 353.15
Property: (Relative) activity of water (Liquid); method: hygrometer
Molality, mol/kg of disodium hexafluorosilicate	Molality, mol/kg of ammonium hexafluorosilicate	(Relative) activity of water	uncertainty
0	0.05	0.9982	0.0387
0	0.06	0.9979	0.0387
0	0.07	0.9977	0.0387
0	0.08	0.9974	0.0387
0	0.09	0.9972	0.0387
0	0.1	0.9969	0.0387
0	0.11	0.9967	0.0387
0	0.12	0.9964	0.0387
0	0.13	0.9962	0.0387
0	0.14	0.9959	0.0387
0	0.15	0.9956	0.0387
0	0.16	0.9954	0.0387
0	0.17	0.9951	0.0387
0	0.18	0.9948	0.0387
0	0.19	0.9946	0.0387
0	0.2	0.9943	0.0387
0	0.21	0.994	0.0387
0	0.22	0.9937	0.0387
0.01	0.04	0.9981	0.0387
0.01	0.05	0.9978	0.0387
0.01	0.06	0.9975	0.0387
0.02	0.06	0.9973	0.0387
0.02	0.07	0.997	0.0387
0.02	0.08	0.9967	0.0387
0.02	0.09	0.9964	0.0387
0.02	0.1	0.9961	0.0387
0.03	0.1	0.9958	0.0387
0.03	0.11	0.9955	0.0387
0.03	0.12	0.9952	0.0387
0.03	0.13	0.9949	0.0387
0.03	0.03	0.998	0.0388
0.03	0.03	0.9977	0.0387
0.04	0.04	0.9974	0.0387
0.04	0.04	0.997	0.0387
0.05	0.05	0.9967	0.0387
0.05	0.05	0.9964	0.0387
0.06	0.06	0.996	0.0387
0.06	0.06	0.9957	0.0387
0.07	0.07	0.9953	0.0387
0.07	0.07	0.995	0.0387
0.08	0.08	0.9946	0.0387
0.08	0.08	0.9942	0.0387
0.09	0.09	0.9939	0.0387
0.09	0.09	0.9935	0.0387
0.1	0.1	0.9931	0.0387
0.1	0.1	0.9927	0.0387
0.04	0.01	0.9979	0.0387
0.05	0.01	0.9975	0.0387
0.06	0.01	0.9972	0.0387
0.06	0.02	0.9968	0.0387
0.07	0.02	0.9964	0.0387
0.08	0.02	0.996	0.0387
0.09	0.02	0.9956	0.0387
0.1	0.02	0.9952	0.0387
0.1	0.03	0.9948	0.0387
0.11	0.03	0.9944	0.0387
0.12	0.03	0.994	0.0387
0.13	0.03	0.9935	0.0387
0.14	0.03	0.9931	0.0387
0.14	0.04	0.9926	0.0387
0.15	0.04	0.9922	0.0387
0.16	0.04	0.9917	0.0387
0.17	0.04	0.9912	0.0387
0.18	0.04	0.9908	0.0387
0.05	0	0.9979	0.0387
0.06	0	0.9974	0.0387
0.07	0	0.997	0.0387
0.08	0	0.9966	0.0387
0.09	0	0.9962	0.0387
0.1	0	0.9958	0.0387
0.11	0	0.9953	0.0387
0.12	0	0.9949	0.0387
0.13	0	0.9945	0.0387
0.14	0	0.994	0.0387
0.15	0	0.9935	0.0387
0.16	0	0.9931	0.0387
0.17	0	0.9926	0.0387
0.18	0	0.9921	0.0387
0.19	0	0.9918	0.0388
0.2	0	0.9911	0.0387
0.21	0	0.9905	0.0388
0.22	0	0.99	0.0388
0.25	0	0.9883	0.0387

System: disodium hexafluorosilicate + ammonium hexafluorosilicate + water; phases: Liquid, Crystal
Fixed: Pressure, kPa = 101
Property: Solid-liquid equilibrium temperature, K (Liquid); method: hygrometric method
Molality, mol/kg of disodium hexafluorosilicate	Molality, mol/kg of ammonium hexafluorosilicate	Solid-liquid equilibrium temperature, K	uncertainty
0.03	0.13	353.15	0.41
0.1	0.1	353.15	0.41
0.18	0.04	353.15	0.41

System: disodium hexafluorosilicate + water; phases: Liquid
Fixed: Pressure, kPa = 101
Fixed: Temperature, K = 353.15
Property: (Relative) activity of water (Liquid); method: hygrometer
Molality, mol/kg of disodium hexafluorosilicate	(Relative) activity of water	uncertainty
0.05	0.9979	0.0387
0.06	0.9974	0.0387
0.07	0.997	0.0387
0.08	0.9966	0.0387
0.09	0.9962	0.0387
0.1	0.9958	0.0387
0.11	0.9953	0.0387
0.12	0.9949	0.0387
0.13	0.9945	0.0387
0.14	0.994	0.0387
0.15	0.9935	0.0388
0.16	0.9931	0.0388
0.17	0.9926	0.0388
0.18	0.9921	0.0388
0.19	0.9918	0.0388
0.2	0.9911	0.0388
0.21	0.9905	0.0388
0.22	0.99	0.0388
0.25	0.9883	0.0388

System: dipotassium hexafluorosilicate + water; phases: Liquid
Fixed: Pressure, kPa = 101
Fixed: Temperature, K = 353.15
Property: (Relative) activity of water (Liquid); method: hygrometer
Molality, mol/kg of dipotassium hexafluorosilicate	(Relative) activity of water	uncertainty
0.05	0.9981	0.0387
0.06	0.9977	0.0387
0.07	0.9974	0.0387
0.08	0.9971	0.0387
0.09	0.9967	0.0387
0.1	0.9964	0.0387
0.11	0.9961	0.0387
0.12	0.9957	0.0387
0.13	0.9954	0.0387
0.14	0.995	0.0387
0.15	0.9947	0.0387
0.16	0.9943	0.0387
0.17	0.9939	0.0388
0.18	0.9935	0.0388
0.19	0.9931	0.0388
0.2	0.9927	0.0388
0.21	0.9923	0.0388
0.22	0.9918	0.0388
0.25	0.9904	0.0388
0.27	0.9895	0.0388
0.3	0.9879	0.0388

System: ammonium hexafluorosilicate + water; phases: Liquid
Fixed: Pressure, kPa = 101
Fixed: Temperature, K = 353.15
Property: (Relative) activity of water (Liquid); method: hygrometer
Molality, mol/kg of ammonium hexafluorosilicate	(Relative) activity of water	uncertainty
0.05	0.9982	0.0387
0.06	0.9979	0.0387
0.07	0.9977	0.0387
0.08	0.9974	0.0387
0.09	0.9972	0.0387
0.1	0.9969	0.0387
0.11	0.9967	0.0387
0.12	0.9964	0.0387
0.13	0.9962	0.0387
0.14	0.9959	0.0387
0.15	0.9956	0.0387
0.16	0.9954	0.0387
0.17	0.9951	0.0387
0.18	0.9948	0.0387
0.19	0.9946	0.0387
0.2	0.9943	0.0387
0.21	0.994	0.0387
0.22	0.9937	0.0387
