Measured thermophysical data. LLE, VLE and VLLE data for the water n-butanol n-hexane system at atmospheric pressure
Source: Fluid Phase Equilib., 2012, 10.1016/j.fluid.2011.11.025
Compound 1: butan-1-ol, C4H10O, InChI=1S/C4H10O/c1-2-3-4-5/h5H,2-4H2,1H3, purity 99.8%
Compound 2: hexane, C6H14, InChI=1S/C6H14/c1-3-5-6-4-2/h3-6H2,1-2H3, purity 99.5%
Compound 3: water, H2O, InChI=1S/H2O/h1H2, purity 99.8%

System: butan-1-ol + hexane + water; phases: Liquid mixture 1, Liquid mixture 2
Fixed: Temperature, K = 313.15
Fixed: Pressure, kPa = 101.3
Property: Mole fraction of butan-1-ol (Liquid mixture 1); method: Chromatography
Property: Mole fraction of butan-1-ol (Liquid mixture 2); method: Chromatography
Property: Mole fraction of water (Liquid mixture 2); method: Chromatography
Mole fraction of water	Mole fraction of butan-1-ol	uncertainty	Mole fraction of butan-1-ol	uncertainty	Mole fraction of water	uncertainty
0.526	0.47	0.024	0.018	0.018	0.982	
0.464	0.511	0.023	0.016	0.016	0.984	
0.377	0.548	0.022	0.014	0.014	0.986	
0.307	0.544	0.022	0.013	0.013	0.987	
0.272	0.531	0.022	0.013	0.013	0.987	
0.211	0.508	0.021	0.012	0.012	0.988	
0.154	0.451	0.037	0.012	0.012	0.988	
0.15	0.43	0.036	0.011	0.011	0.989	
0.069	0.301	0.013	0.011	0.011	0.989	
0.029	0.191	0.009	0.009	0.009	0.991	
0.008	0.052	0.003	0.007	0.007	0.993	
0.002	0		0		1	

System: butan-1-ol + hexane + water; phases: Liquid mixture 1, Liquid mixture 2, Gas
Fixed: Pressure, kPa = 101.3
Property: Mole fraction of butan-1-ol (Liquid mixture 1); method: Chromatography
Property: Mole fraction of butan-1-ol (Liquid mixture 2); method: Chromatography
Property: Mole fraction of butan-1-ol (Gas); method: Chromatography
Property: Mole fraction of water (Liquid mixture 1); method: Chromatography
Property: Mole fraction of water (Liquid mixture 2); method: Chromatography
Property: Mole fraction of water (Gas); method: Chromatography
Temperature, K	Mole fraction of butan-1-ol	uncertainty	Mole fraction of butan-1-ol	uncertainty	Mole fraction of butan-1-ol	uncertainty	Mole fraction of water	uncertainty	Mole fraction of water	uncertainty	Mole fraction of water	uncertainty
334.44	0		0		0		0.002	0.002	1		0.214	0.009
334.4	0.131	0.054	0.01	0.001	0.03	0.002	0.012	0.012	0.99	0.01	0.196	0.008
334.43	0.16	0.074	0.011	0.001	0.031	0.002	0.017	0.017	0.989	0.011	0.197	0.008
334.47	0.301	0.02	0.011	0.001	0.032	0.001	0.043	0.007	0.989	0.011	0.197	0.008
334.48	0.344	0.02	0.012	0.001	0.033	0.001	0.062	0.007	0.988	0.012	0.196	0.008
334.72	0.411	0.017	0.012	0.001	0.036	0.002	0.117	0.008	0.988	0.012	0.2	0.008
335.21	0.529	0.022	0.013	0.001	0.043	0.002	0.286	0.012	0.987	0.013	0.201	0.008
335.72	0.542	0.022	0.014	0.001	0.045	0.002	0.312	0.013	0.986	0.014	0.205	0.008
336.3	0.547	0.022	0.015	0.001	0.046	0.002	0.326	0.014	0.985	0.015	0.21	0.009
336.38	0.544	0.022	0.016	0.001	0.047	0.002	0.339	0.014	0.985	0.015	0.212	0.009
341.36	0.537	0.022	0.016	0.001	0.068	0.003	0.4	0.016	0.984	0.016	0.262	0.011
348.69	0.497	0.02	0.018	0.001	0.102	0.004	0.478	0.019	0.982	0.018	0.357	0.015
365.73	0.362	0.015	0.021	0.001	0.238	0.01	0.638	0.026	0.979	0.021	0.762	0.031

System: butan-1-ol + hexane + water; phases: Liquid, Gas
Fixed: Pressure, kPa = 101.3
Property: Mole fraction of butan-1-ol (Liquid); method: Chromatography
Property: Mole fraction of butan-1-ol (Gas); method: Chromatography
Property: Mole fraction of water (Gas); method: Chromatography
Temperature, K	Mole fraction of water	Mole fraction of butan-1-ol	uncertainty	Mole fraction of butan-1-ol	uncertainty	Mole fraction of water	uncertainty
335.16	0.169	0.471	0.019	0.035	0.002	0.204	
335.68	0.139	0.531	0.022	0.041	0.002	0.199	
337.06	0.136	0.562	0.023	0.042	0.002	0.196	
342.85	0.11	0.679	0.027	0.061	0.003	0.189	
342.78	0.235	0.615	0.025	0.068	0.003	0.243	
345.9	0.214	0.677	0.027	0.079	0.003	0.255	
353.4	0.176	0.739	0.03	0.126	0.005	0.321	
358.44	0.211	0.737	0.03	0.165	0.007	0.436	
358.58	0.196	0.747	0.03	0.165	0.007	0.422	
364.09	0.162	0.813	0.033	0.223	0.009	0.503	
353.27	0.365	0.604	0.024	0.134	0.006	0.42	
342.51	0.172	0.623	0.025	0.065	0.003	0.22	
342.59	0.125	0.634	0.026	0.069	0.003	0.189	
338.33	0.067	0.487	0.02	0.046	0.002	0.16	
343.65	0.076	0.666	0.027	0.059	0.002	0.148	
340.45	0.054	0.565	0.023	0.053	0.002	0.127	
342.79	0.053	0.623	0.025	0.056	0.002	0.133	
348.9	0.038	0.723	0.029	0.084	0.003	0.106	
352.25	0.038	0.784	0.031	0.123	0.005	0.101	
355.08	0.038	0.809	0.032	0.159	0.007	0.099	
358.83	0.04	0.836	0.033	0.197	0.008	0.111	
363.46	0.032	0.876	0.035	0.257	0.011	0.1	
367.29	0.03	0.89	0.036	0.279	0.011	0.108	
371.5	0.031	0.912	0.036	0.382	0.016	0.117	
374.26	0.039	0.916	0.037	0.395	0.016	0.163	
382.48	0.049	0.944	0.038	0.565	0.023	0.283	
371.94	0.172	0.823	0.033	0.351	0.014	0.576	
374.22	0.149	0.848	0.034	0.385	0.016	0.563	
378.51	0.101	0.897	0.036	0.444	0.018	0.518	
359.87	0.095	0.827	0.033	0.205	0.008	0.245	
355.07	0.087	0.805	0.032	0.154	0.006	0.199	
353.94	0.086	0.788	0.032	0.145	0.006	0.186	
344.55	0.101	0.63	0.025	0.081	0.003	0.162	
348.57	0.092	0.733	0.029	0.106	0.004	0.17	
347.9	0.136	0.708	0.028	0.1	0.004	0.218	
349.27	0.195	0.707	0.028	0.107	0.004	0.287	
351.21	0.243	0.683	0.027	0.11	0.005	0.337	
348.35	0.344	0.594	0.024	0.101	0.004	0.331	
347.88	0.332	0.591	0.024	0.102	0.004	0.328	
345.11	0.303	0.606	0.024	0.084	0.003	0.287	
350.58	0.303	0.639	0.026	0.118	0.005	0.358	
354.67	0.29	0.661	0.027	0.14	0.006	0.423	
