Measured thermophysical data. Measurement and correlation of solubilities of the poorlywater-soluble pharmaceutical compound etodolac by addition of co-solvents
Source: Fluid Phase Equilib., 2013, 10.1016/j.fluid.2013.05.025
Compound 1: .alpha.-cyclodextrin, C36H60O30, InChI=1S/C36H60O30/c37-1-7-25-13(43)19(49)31(55-7)62-26-8(2-38)57-33(21(51)15(26)45)64-28-10(4-40)59-35(23(53)17(28)47)66-30-12(6-42)60-36(24(54)18(30)48)65-29-11(5-41)58-34(22(52)16(29)46)63-27-9(3-39)56-32(61-25)20(50)14(27)44/h7-54H,1-6H2/t7-,8-,9-,10-,11-,12-,13-,14-,15-,16-,17-,18-,19-,20-,21-,22-,23-,24-,25-,26-,27-,28-,29-,30-,31-,32-,33-,34-,35-,36-/m1/s1, purity 97%
Compound 2: .beta.-cyclodextrin, C42H70O35, InChI=1S/C42H70O35/c43-1-8-29-15(50)22(57)36(64-8)72-30-9(2-44)66-38(24(59)17(30)52)74-32-11(4-46)68-40(26(61)19(32)54)76-34-13(6-48)70-42(28(63)21(34)56)77-35-14(7-49)69-41(27(62)20(35)55)75-33-12(5-47)67-39(25(60)18(33)53)73-31-10(3-45)65-37(71-29)23(58)16(31)51/h8-63H,1-7H2/t8-,9-,10-,11-,12-,13-,14-,15-,16-,17-,18-,19-,20-,21-,22-,23-,24-,25-,26-,27-,28-,29-,30-,31-,32-,33-,34-,35-,36-,37-,38-,39-,40-,41-,42-/m1/s1, purity 97%
Compound 3: .gamma.-cyclodextrin, C48H80O40, InChI=1S/C48H80O40/c49-1-9-33-17(57)25(65)41(73-9)82-34-10(2-50)75-43(27(67)19(34)59)84-36-12(4-52)77-45(29(69)21(36)61)86-38-14(6-54)79-47(31(71)23(38)63)88-40-16(8-56)80-48(32(72)24(40)64)87-39-15(7-55)78-46(30(70)22(39)62)85-37-13(5-53)76-44(28(68)20(37)60)83-35-11(3-51)74-42(81-33)26(66)18(35)58/h9-72H,1-8H2/t9-,10-,11-,12-,13-,14-,15-,16-,17-,18-,19-,20-,21-,22-,23-,24-,25-,26-,27-,28-,29-,30-,31-,32-,33-,34-,35-,36-,37-,38-,39-,40-,41-,42-,43-,44-,45-,46-,47-,48-/m1/s1, purity 97%
Compound 4: etodolac, C17H21NO3, InChI=1S/C17H21NO3/c1-3-11-6-5-7-12-13-8-9-21-17(4-2,10-14(19)20)16(13)18-15(11)12/h5-7,18H,3-4,8-10H2,1-2H3,(H,19,20), purity 97%
Compound 5: water, H2O, InChI=1S/H2O/h1H2, purity 99.9%

System: water + .alpha.-cyclodextrin + etodolac; phases: Liquid, Crystal
Fixed: Pressure, kPa = 101
Fixed: Temperature, K = 298.15
Property: Mole fraction of etodolac (Liquid); method: Chromatography
Solvent: Mole fraction of .alpha.-cyclodextrin	Mole fraction of etodolac	uncertainty
0	6.5e-06	3e-07
0.001	9.3e-06	6e-07
0.002	1.08e-05	6e-07
0.003	1.18e-05	6e-07
0.004	1.26e-05	7e-07
0.005	1.36e-05	7e-07
0.006	1.41e-05	7e-07
0.0071	1.44e-05	8e-07
0.008	1.52e-05	8e-07
0.009	1.6e-05	8e-07
0.0099	1.67e-05	9e-07

System: .beta.-cyclodextrin + water + etodolac; phases: Liquid, Crystal
Fixed: Pressure, kPa = 101
Fixed: Temperature, K = 298.15
Property: Mole fraction of etodolac (Liquid); method: Chromatography
Solvent: Mole fraction of .beta.-cyclodextrin	Mole fraction of etodolac	uncertainty
0	6.5e-06	3e-07
0.0001	7e-06	4e-07
0.0002	7.3e-06	8e-07
0.0003	7.5e-06	7e-07
0.0004	7.9e-06	6e-07
0.0005	8.1e-06	7e-07
0.0006	8.3e-06	6e-07
0.0007	8.5e-06	7e-07
0.0008	8.8e-06	7e-07
0.0009	9.1e-06	6e-07
0.001	9.3e-06	6e-07
0.0012	9.4e-06	5e-07
0.0013	9.5e-06	5e-07
0.0016	9.7e-06	5e-07
0.0018	9.9e-06	6e-07
0.002	1.02e-05	6e-07
0.0023	1.03e-05	5e-07
0.0025	1.05e-05	6e-07
0.0028	1.07e-05	6e-07
0.003	1.1e-05	6e-07
0.0033	1.11e-05	6e-07
0.0035	1.12e-05	6e-07
0.0038	1.16e-05	7e-07
0.004	1.18e-05	6e-07
0.0045	1.22e-05	7e-07
0.0048	1.26e-05	7e-07
0.0053	1.3e-05	7e-07
0.0055	1.32e-05	7e-07
0.006	1.36e-05	7e-07

System: water + .gamma.-cyclodextrin + etodolac; phases: Liquid, Crystal
Fixed: Pressure, kPa = 101
Fixed: Temperature, K = 298.15
Property: Mole fraction of etodolac (Liquid); method: Chromatography
Solvent: Mole fraction of .gamma.-cyclodextrin	Mole fraction of etodolac	uncertainty
0	6.5e-06	3e-07
0.0004	8.7e-06	7e-07
0.0008	8.6e-06	5e-07
0.001	7.7e-06	1e-06
0.002	5.2e-06	5e-07
0.003	3e-06	3e-07
0.004	3.2e-06	2e-07
0.005	3.1e-06	2e-07
0.006	4.3e-06	4e-07
0.007	5.9e-06	4e-07
0.008	6.9e-06	4e-07
0.009	8.1e-06	5e-07
