Measured thermophysical data. Liquid-liquid phase equilibria of ionic liquid solutions in the critical region: 1-Methyl-3-octylimidazolium tetrafluoroborate with1-pentanol or 1-hexanol
Source: Fluid Phase Equilib., 2014, 10.1016/j.fluid.2014.07.036
Compound 1: pentan-1-ol, C5H12O, InChI=1S/C5H12O/c1-2-3-4-5-6/h6H,2-5H2,1H3, purity 99.9%
Compound 2: hexan-1-ol, C6H14O, InChI=1S/C6H14O/c1-2-3-4-5-6-7/h7H,2-6H2,1H3, purity 99.9%
Compound 3: 1-methyl-3-octylimidazolium tetrafluoroborate, C12H23BF4N2, InChI=1S/C12H23N2.BF4/c1-3-4-5-6-7-8-9-14-11-10-13(2)12-14;2-1(3,4)5/h10-12H,3-9H2,1-2H3;/q+1;-1, purity 99%

System: pentan-1-ol + 1-methyl-3-octylimidazolium tetrafluoroborate; phases: Liquid
Fixed: Pressure, kPa = 85
Fixed: Wavelength, nm = 632.8
Property: Refractive index (other wavelength) (Liquid); method: minimum deviation angle
Temperature, K	Mole fraction of 1-methyl-3-octylimidazolium tetrafluoroborate	Refractive index (other wavelength)	uncertainty
290.682	0.098	1.4147	0.0003
290.681	0.096	1.4146	0.0003
290.679	0.096	1.4146	0.0003
290.676	0.094	1.4145	0.0003
290.671	0.091	1.4144	0.0003
290.666	0.089	1.4143	0.0003
290.658	0.087	1.4142	0.0003
290.646	0.085	1.4141	0.0003
290.612	0.08	1.4139	0.0003
290.595	0.078	1.4138	0.0003
290.565	0.076	1.4137	0.0003
290.525	0.071	1.4135	0.0003
290.485	0.069	1.4134	0.0003
290.432	0.066	1.4133	0.0003
290.379	0.062	1.4131	0.0003
290.309	0.059	1.413	0.0003
290.248	0.055	1.4128	0.0003
290.164	0.052	1.4127	0.0003
290.068	0.05	1.4126	0.0003
289.983	0.047	1.4125	0.0003
289.856	0.044	1.4124	0.0003
289.728	0.042	1.4123	0.0003
289.626	0.041	1.4123	0.0003
289.444	0.039	1.4123	0.0003
289.287	0.038	1.4123	0.0003
289.091	0.035	1.4122	0.0003
288.881	0.034	1.4122	0.0003
288.638	0.032	1.4122	0.0003
288.341	0.03	1.4122	0.0003
287.981	0.029	1.4123	0.0003
287.581	0.026	1.4123	0.0003
287.129	0.025	1.4124	0.0003
286.638	0.023	1.4125	0.0003
286.089	0.021	1.4126	0.0003
285.506	0.021	1.4128	0.0003
284.886	0.02	1.413	0.0003
284.24	0.019	1.4132	0.0003
283.568	0.018	1.4134	0.0003
282.866	0.015	1.4135	0.0003
282.135	0.014	1.4137	0.0003
281.394	0.012	1.4139	0.0003
290.682	0.118	1.4156	0.0003
290.681	0.121	1.4157	0.0003
290.679	0.123	1.4158	0.0003
290.676	0.125	1.4159	0.0003
290.671	0.128	1.416	0.0003
290.666	0.13	1.4161	0.0003
290.658	0.132	1.4162	0.0003
290.646	0.137	1.4164	0.0003
290.612	0.144	1.4167	0.0003
290.595	0.147	1.4168	0.0003
290.565	0.151	1.417	0.0003
290.525	0.156	1.4172	0.0003
290.485	0.161	1.4174	0.0003
290.432	0.166	1.4176	0.0003
290.379	0.168	1.4177	0.0002
290.309	0.173	1.4179	0.0002
290.248	0.175	1.418	0.0003
290.164	0.179	1.4182	0.0003
290.068	0.181	1.4183	0.0003
289.983	0.186	1.4185	0.0002
289.856	0.19	1.4187	0.0003
289.728	0.191	1.4188	0.0002
289.626	0.196	1.419	0.0002
289.444	0.203	1.4193	0.0002
289.287	0.207	1.4195	0.0003
289.091	0.214	1.4198	0.0002
288.881	0.217	1.42	0.0003
288.638	0.224	1.4203	0.0003
288.341	0.23	1.4206	0.0003
287.981	0.238	1.421	0.0003
287.581	0.246	1.4214	0.0003
287.129	0.257	1.4219	0.0003
286.638	0.268	1.4224	0.0003
286.089	0.278	1.4229	0.0003
285.506	0.285	1.4233	0.0003
284.886	0.295	1.4238	0.0003
284.24	0.305	1.4243	0.0003
283.568	0.315	1.4248	0.0003
282.866	0.32	1.4252	0.0003
282.135	0.33	1.4257	0.0003
281.394	0.339	1.4262	0.0003

System: pentan-1-ol + 1-methyl-3-octylimidazolium tetrafluoroborate; phases: Liquid
Fixed: Pressure, kPa = 85
Fixed: Wavelength, nm = 632.8
Property: Refractive index (other wavelength) (Liquid); method: minimum deviation angle
Mole fraction of 1-methyl-3-octylimidazolium tetrafluoroborate	Temperature, K	Refractive index (other wavelength)	uncertainty
0	290.679	1.4096	0.0002
0	297.174	1.4071	0.0002
0	292.95	1.4087	0.0002
0	299.35	1.4062	0.0002
0	295.034	1.4079	0.0002
0	301.73	1.4053	0.0002
0.1	290.561	1.4148	0.0002
0.1	297.324	1.4124	0.0002
0.1	292.951	1.414	0.0002
0.1	299.258	1.4116	0.0002
0.1	295.042	1.4132	0.0002
0.1	301.731	1.4107	0.0002
0.2	290.948	1.4185	0.0002
0.2	296.549	1.4165	0.0002
0.2	292.679	1.4179	0.0002
0.2	298.671	1.4158	0.0002
0.2	294.763	1.4171	0.0002
0.2	300.675	1.4151	0.0002
0.396	290.926	1.4243	0.0002
0.396	296.313	1.4224	0.0002
0.396	292.671	1.4237	0.0002
0.396	298.308	1.4217	0.0002
0.396	294.443	1.423	0.0002
0.396	300.612	1.4209	0.0002
0.498	290.759	1.4264	0.0002
0.498	295.73	1.4248	0.0002
0.498	292.327	1.4259	0.0002
0.498	297.689	1.4241	0.0002
0.498	294.006	1.4253	0.0002
0.498	299.743	1.4235	0.0002
0.598	290.491	1.4284	0.0002
0.598	295.842	1.4268	0.0002
0.598	292.276	1.4279	0.0002
0.598	297.708	1.4262	0.0002
0.598	294.074	1.4273	0.0002
0.598	299.741	1.4256	0.0002
0.697	290.67	1.4299	0.0003
0.697	295.92	1.4283	0.0003
0.697	292.39	1.4294	0.0003
0.697	297.684	1.4278	0.0003
0.697	294.117	1.4289	0.0003
0.697	299.585	1.4273	0.0003
0.797	290.594	1.4313	0.0003
0.797	295.911	1.4299	0.0003
0.797	292.297	1.4308	0.0003
0.797	297.605	1.4294	0.0003
0.797	294.092	1.4303	0.0003
0.797	299.585	1.4288	0.0003
0.898	290.593	1.4327	0.0003
0.898	295.889	1.4312	0.0003
0.898	292.218	1.4322	0.0003
0.898	297.838	1.4306	0.0003
0.898	294.056	1.4317	0.0003
0.898	299.921	1.43	0.0003
1	290.495	1.4338	0.0003
1	295.046	1.4325	0.0003
1	300.255	1.4311	0.0003
1	291.873	1.4334	0.0003
1	296.679	1.4321	0.0003
1	302.042	1.4305	0.0003
1	293.431	1.433	0.0003
1	298.41	1.4316	0.0003

System: hexan-1-ol + 1-methyl-3-octylimidazolium tetrafluoroborate; phases: Liquid
Fixed: Pressure, kPa = 85
Fixed: Wavelength, nm = 632.8
Property: Refractive index (other wavelength) (Liquid); method: minimum deviation angle
Temperature, K	Mole fraction of 1-methyl-3-octylimidazolium tetrafluoroborate	Refractive index (other wavelength)	uncertainty
300.062	0.109	1.4174	0.0002
300.059	0.105	1.4173	0.0002
300.056	0.102	1.4172	0.0002
300.05	0.102	1.4172	0.0002
300.045	0.102	1.4172	0.0002
300.039	0.098	1.4171	0.0002
300.032	0.095	1.417	0.0002
300.019	0.091	1.4169	0.0002
300.003	0.091	1.4169	0.0002
299.993	0.087	1.4168	0.0002
299.973	0.084	1.4167	0.0002
299.946	0.083	1.4167	0.0002
299.898	0.079	1.4166	0.0002
299.863	0.075	1.4165	0.0002
299.828	0.075	1.4165	0.0002
299.785	0.071	1.4164	0.0002
299.744	0.067	1.4163	0.0002
299.702	0.067	1.4163	0.0002
299.656	0.063	1.4162	0.0002
299.604	0.062	1.4162	0.0002
299.553	0.061	1.4162	0.0002
299.498	0.061	1.4162	0.0002
299.44	0.057	1.4161	0.0002
299.374	0.056	1.4161	0.0002
299.214	0.05	1.416	0.0002
299.12	0.049	1.416	0.0002
299.008	0.045	1.4159	0.0003
298.877	0.046	1.416	0.0002
298.732	0.044	1.416	0.0002
298.566	0.042	1.416	0.0002
298.385	0.037	1.4159	0.0002
298.169	0.034	1.4159	0.0002
297.924	0.034	1.416	0.0002
297.663	0.031	1.416	0.0002
297.389	0.027	1.416	0.0002
297.04	0.026	1.4161	0.0002
296.612	0.024	1.4162	0.0002
296.116	0.021	1.4163	0.0002
295.508	0.02	1.4165	0.0002
294.834	0.018	1.4167	0.0002
293.478	0.014	1.4171	0.0002
292.777	0.011	1.4173	0.0002
292.064	0.009	1.4175	0.0002
291.348	0.01	1.4178	0.0002
290.622	0.007	1.418	0.0002
289.883	0.004	1.4182	0.0002
300.062	0.134	1.4181	0.0002
300.059	0.137	1.4182	0.0002
300.056	0.141	1.4183	0.0002
300.05	0.141	1.4183	0.0002
300.045	0.141	1.4183	0.0002
300.039	0.144	1.4184	0.0002
300.032	0.148	1.4185	0.0002
300.019	0.148	1.4185	0.0002
300.003	0.155	1.4187	0.0002
299.993	0.155	1.4187	0.0002
299.973	0.158	1.4188	0.0002
299.946	0.165	1.419	0.0002
299.898	0.169	1.4191	0.0002
299.863	0.172	1.4192	0.0002
299.828	0.175	1.4193	0.0003
299.785	0.175	1.4193	0.0003
299.744	0.178	1.4194	0.0003
299.702	0.181	1.4195	0.0003
299.656	0.184	1.4196	0.0002
299.604	0.188	1.4197	0.0002
299.553	0.191	1.4198	0.0002
299.498	0.194	1.4199	0.0002
299.44	0.193	1.4199	0.0002
299.374	0.196	1.42	0.0002
299.214	0.202	1.4202	0.0002
299.12	0.208	1.4204	0.0002
299.008	0.207	1.4204	0.0002
298.877	0.213	1.4206	0.0002
298.732	0.219	1.4208	0.0002
298.566	0.221	1.4209	0.0002
298.385	0.222	1.421	0.0002
298.169	0.227	1.4212	0.0002
297.924	0.236	1.4215	0.0002
297.663	0.24	1.4217	0.0002
297.389	0.245	1.4219	0.0002
297.04	0.252	1.4222	0.0002
296.612	0.263	1.4226	0.0002
296.116	0.269	1.4229	0.0002
295.508	0.282	1.4234	0.0002
294.834	0.289	1.4238	0.0002
293.478	0.31	1.4247	0.0002
292.777	0.317	1.4251	0.0002
292.064	0.325	1.4255	0.0002
291.348	0.338	1.426	0.0002
290.622	0.346	1.4264	0.0002
289.883	0.354	1.4268	0.0002

System: hexan-1-ol + 1-methyl-3-octylimidazolium tetrafluoroborate; phases: Liquid
Fixed: Pressure, kPa = 85
Fixed: Wavelength, nm = 632.8
Property: Refractive index (other wavelength) (Liquid); method: minimum deviation angle
Mole fraction of 1-methyl-3-octylimidazolium tetrafluoroborate	Temperature, K	Refractive index (other wavelength)	uncertainty
0	293.992	1.4165	0.0002
0	298.941	1.4145	0.0002
0	304.767	1.4122	0.0002
0	295.93	1.4156	0.0002
0	300.695	1.4138	0.0002
0	306.244	1.4117	0.0002
0	297.36	1.4151	0.0002
0	303.337	1.4128	0.0002
0.1	301.308	1.4166	0.0002
0.1	306.115	1.4148	0.0002
0.1	302.856	1.416	0.0002
0.1	307.827	1.4142	0.0002
0.1	304.451	1.4155	0.0002
0.1	309.182	1.4137	0.0002
0.2	303.162	1.4188	0.0002
0.2	306.663	1.4175	0.0002
0.2	304.31	1.4183	0.0002
0.2	307.921	1.417	0.0002
0.2	305.507	1.4179	0.0002
0.2	309.185	1.4165	0.0002
0.3	305.003	1.4202	0.0002
0.3	308.702	1.419	0.0002
0.3	305.93	1.4199	0.0002
0.3	310.591	1.4184	0.0002
0.3	307.075	1.4196	0.0002
0.3	312.145	1.4179	0.0002
0.4	304.539	1.4225	0.0002
0.4	308.742	1.4211	0.0002
0.4	305.734	1.4221	0.0002
0.4	310.6	1.4204	0.0002
0.4	307.233	1.4216	0.0002
0.4	312.144	1.4199	0.0002
0.497	304.54	1.4239	0.0002
0.497	309.129	1.4225	0.0002
0.497	305.694	1.4236	0.0002
0.497	310.773	1.422	0.0002
0.497	307.733	1.4229	0.0002
0.497	312.903	1.4214	0.0002
0.6	305.516	1.4251	0.0002
0.6	310.016	1.4237	0.0002
0.6	307.037	1.4247	0.0002
0.6	311.645	1.4233	0.0002
0.6	308.592	1.4242	0.0002
0.6	312.903	1.4229	0.0002
0.699	305.516	1.4263	0.0003
0.699	309.718	1.4251	0.0003
0.699	306.677	1.426	0.0003
0.699	311.292	1.4246	0.0003
0.699	308.252	1.4255	0.0003
0.699	312.807	1.4242	0.0003
0.798	308.374	1.4267	0.0003
0.798	312.151	1.4257	0.0003
0.798	309.66	1.4264	0.0003
0.798	313.812	1.4253	0.0003
0.798	310.635	1.4261	0.0003
0.798	315.282	1.4248	0.0003
0.891	307.1	1.428	0.0003
0.891	311.308	1.4268	0.0003
0.891	308.754	1.4276	0.0003
0.891	313.38	1.4263	0.0003
0.891	310.189	1.4272	0.0003
0.891	315.282	1.4258	0.0003
1	294.372	1.4327	0.0003
1	298.932	1.4313	0.0003
1	304.598	1.4298	0.0003
1	295.863	1.4323	0.0003
1	300.672	1.4309	0.0003
1	306.242	1.4293	0.0003
1	297.207	1.4319	0.0003
1	302.95	1.4303	0.0003
