Measured thermophysical data. Gaseous PVT properties of ethyl fluoride
Source: Fluid Phase Equilib., 2005, 10.1016/j.fluid.2005.08.011
Compound 1: fluoroethane, C2H5F, InChI=1S/C2H5F/c1-2-3/h2H2,1H3, purity 99.74%

System: fluoroethane; phases: Gas
Property: Mass density, kg/m3 (Gas); method: ISOCHOR
Temperature, K	Pressure, kPa	Mass density, kg/m3	uncertainty
300.16	642.2	13.92	0.088
305.16	656.6	13.917	0.088
310.14	670.4	13.913	0.088
312.16	1205.6	27.61	0.114
314.16	1218.3	27.607	0.113
315.15	684.8	13.91	0.087
316.15	1231.8	27.605	0.113
318.15	1244.1	27.602	0.111
320.14	698.5	13.906	0.086
322.16	1268.7	27.596	0.114
324.15	1614.6	37.54	0.143
325.14	712.3	13.903	0.082
326.14	1634.4	37.536	0.143
326.16	1293.4	27.591	0.113
328.15	1652.5	37.533	0.141
330.15	1670.2	37.529	0.141
330.16	726.1	13.899	0.081
330.16	1317.6	27.585	0.111
332.15	2022.6	48.84	0.179
334.16	1341.9	27.58	0.11
334.16	1704.9	37.521	0.145
334.16	2047.7	48.835	0.177
335.15	739.5	13.896	0.08
336.16	2072.5	48.83	0.167
338.12	2287.8	56.23	0.205
338.16	1739	37.514	0.143
338.17	1365.6	27.574	0.109
338.2	2096.6	48.825	0.179
339.16	2108.2	48.823	0.179
340.12	2318.8	56.224	0.205
340.15	752.5	13.892	0.078
340.15	2419	60.32	0.22
340.16	2120.6	48.821	0.185
342.12	2347.8	56.219	0.203
342.16	1388.9	27.569	0.108
342.16	2144.2	48.816	0.176
342.16	2450.7	60.314	0.218
342.17	1773.5	37.506	0.141
344.12	2376.7	56.213	0.201
344.16	2167.5	48.811	0.169
344.16	2482.2	60.308	0.216
346.12	2404.5	56.208	0.2
346.14	2707.5	68.66	0.244
346.15	768.9	13.888	0.076
346.15	1412.4	27.563	0.107
346.15	2513.1	60.302	0.22
346.16	1806.7	37.499	0.139
346.16	2190.7	48.806	0.174
347.15	2725.9	68.657	0.242
348.13	2432.7	56.202	0.199
348.15	2743.8	68.653	0.242
348.16	2214	48.801	0.168
348.16	2543	60.296	0.218
350.15	1435.8	27.558	0.111
350.15	2460.5	56.196	0.198
350.15	2779.8	68.646	0.246
350.16	1840.5	37.491	0.138
350.16	2237.2	48.796	0.172
350.16	2573.4	60.29	0.216
350.16	2978.2	78.21	0.277
351.16	2999.9	78.206	0.274
352.15	2488.2	56.191	0.197
352.15	2815	68.639	0.244
352.16	2260.1	48.791	0.169
352.16	2603.3	60.284	0.215
352.17	3021.2	78.202	0.274
353.14	3180.2	85.66	0.305
353.16	3042.3	78.198	0.269
354.15	3204.5	85.656	0.303
354.16	790.7	13.883	0.074
354.16	1458.8	27.552	0.105
354.16	1873.7	37.484	0.137
354.16	2283	48.787	0.171
354.16	2515.3	56.185	0.196
354.16	2633.4	60.278	0.213
354.16	2850.7	68.633	0.242
354.17	3062.9	78.194	0.276
355.15	3227.8	85.651	0.301
356.14	2542.3	56.18	0.195
356.15	2663.1	60.272	0.212
356.15	2885.7	68.626	0.24
356.16	2305.7	48.782	0.167
356.16	3104.4	78.187	0.274
356.26	3251.2	85.647	0.301
357.26	3274.8	85.642	0.3
358.15	1481.8	27.547	0.109
358.15	1906.7	37.477	0.136
358.15	2569.2	56.174	0.194
358.15	2920	68.619	0.238
358.15	3297.7	85.639	0.306
358.16	2328.4	48.777	0.169
358.16	2692.5	60.266	0.211
358.16	3145.7	78.179	0.271
358.16	3506.4	97.915	0.344
359.16	3534.2	97.91	0.338
360.15	2595.9	56.168	0.193
360.15	2954.3	68.612	0.237
360.16	2721.3	60.26	0.21
360.16	3186	78.171	0.269
360.16	3343.9	85.63	0.303
360.16	3562.2	97.905	0.345
360.17	2350.8	48.772	0.165
360.17	3660.7	104.59	0.376
361.15	3589.9	97.9	0.334
361.16	3691	104.585	0.373
362.14	2622.7	56.163	0.192
362.15	811.8	13.877	0.072
362.15	2988.3	68.605	0.235
362.15	3226.2	78.163	0.268
362.15	3389.2	85.622	0.3
362.15	3617	97.896	0.341
362.16	1505	27.541	0.104
362.16	1939.6	37.469	0.135
362.16	3721.4	104.58	0.37
362.17	2373	48.767	0.168
362.17	2750.9	60.254	0.208
363.15	3644.5	97.891	0.332
363.16	3751.4	104.574	0.367
364.15	2649.2	56.157	0.191
364.15	3023	68.598	0.234
364.15	3434.4	85.613	0.297
364.15	3780.8	104.569	0.365
364.16	2394.9	48.762	0.165
364.16	3266.5	78.156	0.266
364.16	3671.6	97.886	0.337
364.17	2779.6	60.248	0.207
365.16	3698.9	97.881	0.329
365.16	3810.4	104.564	0.363
366.14	1527.7	27.536	0.107
366.14	2675.7	56.152	0.191
366.15	1971.5	37.462	0.134
366.15	3056.7	68.592	0.233
366.15	3306.2	78.148	0.264
366.15	3478.5	85.605	0.294
366.15	3725.2	97.876	0.334
366.15	3839.8	104.559	0.361
366.16	2417.4	48.757	0.167
366.16	2808.4	60.242	0.206
367.15	3751.8	97.871	0.326
367.15	3869	104.554	0.359
368.14	2702	56.146	0.19
368.14	3090.7	68.585	0.232
368.15	3346	78.14	0.263
368.15	3523.3	85.596	0.292
368.15	3898.1	104.548	0.357
368.16	2439.4	48.753	0.164
368.16	2837.3	60.236	0.205
368.16	3778.8	97.866	0.332
369.14	3805.1	97.861	0.325
369.15	3927.3	104.543	0.356
370.12	1550.1	27.531	0.102
370.13	3123.8	68.578	0.231
370.14	2728	56.14	0.189
370.14	3568	85.588	0.29
370.14	3831.8	97.857	0.329
370.15	833.2	13.872	0.071
370.15	2461.8	48.748	0.166
370.15	3385.9	78.132	0.262
370.15	3956.2	104.538	0.354
370.16	2004	37.454	0.133
370.16	2865.8	60.23	0.205
