Measured thermophysical data. Thermochemical properties of different phenyl-1H-imidazoles
Source: Fluid Phase Equilib., 2017, 10.1016/j.fluid.2016.11.010
Compound 1: 1-phenylimidazole, C9H8N2, InChI=1S/C9H8N2/c1-2-4-9(5-3-1)11-7-6-10-8-11/h1-8H, purity 98%
Compound 2: 1-(o-tolyl)-1H-imidazole, C10H10N2, InChI=1S/C10H10N2/c1-9-4-2-3-5-10(9)12-7-6-11-8-12/h2-8H,1H3, purity 99.95%
Compound 3: 4-methyl-phenyl-1H-imidazole, C10H10N2, InChI=1S/C10H10N2/c1-9-2-4-10(5-3-9)12-7-6-11-8-12/h2-8H,1H3, purity 99.95%
Compound 4: 2-methoxy-phenyl-1H-imidazole, C10H10N2O, InChI=1S/C10H10N2O/c1-13-10-5-3-2-4-9(10)12-7-6-11-8-12/h2-8H,1H3, purity 99.95%
Compound 5: 4-methoxy-phenyl-1H-imidazole, C10H10N2O, InChI=1S/C10H10N2O/c1-13-10-4-2-9(3-5-10)12-7-6-11-8-12/h2-8H,1H3, purity 99.95%
Compound 6: 2-fluoro-phenyl-1H-imidazole, C9H7FN2, InChI=1S/C9H7FN2/c10-8-3-1-2-4-9(8)12-6-5-11-7-12/h1-7H, purity 99.95%
Compound 7: 2-bromo-phenyl-1H-imidazole, C9H7BrN2, InChI=1S/C9H7BrN2/c10-8-3-1-2-4-9(8)12-6-5-11-7-12/h1-7H, purity 99.95%
Compound 8: 4-fluoro-phenyl-1H-imidazole, C9H7FN2, InChI=1S/C9H7FN2/c10-8-1-3-9(4-2-8)12-6-5-11-7-12/h1-7H, purity 99.95%
Compound 9: 4-bromo-phenyl-1H-imidazole, C9H7BrN2, InChI=1S/C9H7BrN2/c10-8-1-3-9(4-2-8)12-6-5-11-7-12/h1-7H, purity 99.95%

System: 1-phenylimidazole; phases: Liquid, Gas
Property: Vapor or sublimation pressure, kPa (Liquid); method: Transpiration method
Temperature, K	Vapor or sublimation pressure, kPa	uncertainty
298.7	0.00041	4e-05
308.6	0.00105	7e-05
313.5	0.00158	0.0001
318.4	0.00254	0.00017
319.1	0.00269	0.00017
323.5	0.00393	0.00025
328.5	0.00594	0.00041
333.7	0.00902	0.00061
338.4	0.01334	0.00088
343.2	0.01799	0.00116
348.2	0.02552	0.00164
353.1	0.03567	0.00227

System: 1-(o-tolyl)-1H-imidazole; phases: Liquid, Gas
Property: Vapor or sublimation pressure, kPa (Liquid); method: Transpiration method
Temperature, K	Vapor or sublimation pressure, kPa	uncertainty
313.3	0.00112	8e-05
318.2	0.00165	0.00012
323.2	0.00266	0.00017
328.2	0.00389	0.00025
333.2	0.00587	0.00041
338.1	0.00828	0.00056
343.1	0.01155	0.00076
348.1	0.01711	0.00111
353.1	0.02295	0.00149
358	0.03338	0.00214
363	0.04638	0.00292

System: 4-methyl-phenyl-1H-imidazole; phases: Liquid, Gas
Property: Vapor or sublimation pressure, kPa (Liquid); method: Transpiration method
Temperature, K	Vapor or sublimation pressure, kPa	uncertainty
328.3	0.00266	0.00018
333	0.00399	0.00025
338.1	0.00603	0.00043
340.8	0.00739	0.00051
345.7	0.01103	0.00074
350.7	0.01582	0.00103
355.7	0.02204	0.00143
360.7	0.0313	0.00201
365.6	0.04264	0.00272
370.6	0.0608	0.00383
375.3	0.07866	0.00491

System: 2-methoxy-phenyl-1H-imidazole; phases: Liquid, Gas
Property: Vapor or sublimation pressure, kPa (Liquid); method: Transpiration method
Temperature, K	Vapor or sublimation pressure, kPa	uncertainty
333.2	0.00084	7e-05
338.3	0.00128	9e-05
343.1	0.00192	0.00013
348.1	0.00293	0.0002
353	0.00409	0.00027
358	0.00591	0.00041
362.9	0.00864	0.00058
367.9	0.01198	0.00079
374.2	0.01855	0.0012

System: 4-methoxy-phenyl-1H-imidazole; phases: Liquid, Gas
Property: Vapor or sublimation pressure, kPa (Liquid); method: Transpiration method
Temperature, K	Vapor or sublimation pressure, kPa	uncertainty
333.4	0.00061	5e-05
338.2	0.00094	7e-05
343.3	0.00147	0.0001
348.2	0.00215	0.00015
353.3	0.00328	0.00022
358.3	0.00469	0.0003
363.3	0.00695	0.00048
368.2	0.00969	0.00066
373.2	0.01433	0.00093

System: 2-fluoro-phenyl-1H-imidazole; phases: Liquid, Gas
Property: Vapor or sublimation pressure, kPa (Liquid); method: Transpiration method
Temperature, K	Vapor or sublimation pressure, kPa	uncertainty
323.2	0.0041	0.00028
328.2	0.00615	0.00043
333.2	0.00892	0.00061
338.1	0.01364	0.00091
343.1	0.01948	0.00126
348.1	0.02761	0.00178
353.1	0.03781	0.00241
358.1	0.05311	0.00337
363	0.0745	0.00469
367.9	0.09597	0.00598

System: 2-bromo-phenyl-1H-imidazole; phases: Liquid, Gas
Property: Vapor or sublimation pressure, kPa (Liquid); method: Transpiration method
Temperature, K	Vapor or sublimation pressure, kPa	uncertainty
343.2	0.00369	0.00025
348.2	0.00534	0.00038
353.2	0.00754	0.00051
358.1	0.01128	0.00076
363.1	0.01573	0.00103
368	0.0218	0.00141
374	0.03122	0.00199

System: 4-fluoro-phenyl-1H-imidazole; phases: Liquid, Gas
Property: Vapor or sublimation pressure, kPa (Liquid); method: Transpiration method
Temperature, K	Vapor or sublimation pressure, kPa	uncertainty
313	0.00108	7e-05
318.4	0.00166	0.00012
323.3	0.00268	0.00018
328.2	0.00401	0.00027
333.2	0.00563	0.0004
335.7	0.00702	0.00048
338.2	0.00834	0.00056
340.7	0.01004	0.00068
343.2	0.01191	0.00079
345.6	0.01481	0.00098
348.2	0.01727	0.00114
353.1	0.02449	0.00159
358.2	0.03573	0.00229
363.2	0.04969	0.00315
368.1	0.06685	0.00423
373.1	0.09256	0.0058

System: 4-bromo-phenyl-1H-imidazole; phases: Crystal, Liquid, Air at 1 atmosphere
Property: Molar enthalpy of transition or fusion, kJ/mol (Crystal); method: DSC
Molar enthalpy of transition or fusion, kJ/mol	uncertainty
28.6	1.2

System: 4-bromo-phenyl-1H-imidazole; phases: Crystal, Liquid, Air at 1 atmosphere
Property: Normal melting temperature, K (Crystal); method: DTA
Normal melting temperature, K	uncertainty
393.2	1.1

System: 4-bromo-phenyl-1H-imidazole; phases: Liquid, Gas
Property: Vapor or sublimation pressure, kPa (Liquid); method: Transpiration method
Temperature, K	Vapor or sublimation pressure, kPa	uncertainty
343.3	0.00037	3e-05
348.1	0.00065	5e-05
353	0.00103	7e-05
358.2	0.00174	0.00012
363.2	0.00273	0.00018
368.2	0.00467	0.00031
374.1	0.00773	0.00053
