Measured thermophysical data. Recommended vapor pressures for aniline, nitromethane, 2-aminoethanol, and 1-methyl-2-pyrrolidone
Source: Fluid Phase Equilib., 2015, 10.1016/j.fluid.2015.06.045
Compound 1: N-methylpyrrolidone, C5H9NO, InChI=1S/C5H9NO/c1-6-4-2-3-5(6)7/h2-4H2,1H3
Compound 2: 2-aminoethan-1-ol, C2H7NO, InChI=1S/C2H7NO/c3-1-2-4/h4H,1-3H2

System: N-methylpyrrolidone; phases: Ideal gas
Fixed: Pressure, kPa = 100
Property: Molar heat capacity at constant pressure, J/K/mol (Ideal gas); method: STD
Temperature, K	Molar heat capacity at constant pressure, J/K/mol	uncertainty
100	59.31	2.97
150	72.28	3.61
200	85.04	4.25
250	99.6	4.98
273.15	106.98	5.35
298.15	115.26	5.76
300	115.89	5.79
400	149.87	7.49
500	180.98	9.05
600	207.43	10.37
700	229.6	11.48
800	248.26	12.41
900	264.08	13.2
1000	277.55	13.88

System: N-methylpyrrolidone; phases: Liquid, Gas
Property: Vapor or sublimation pressure, kPa (Liquid); method: Closed cell (Static) method
Temperature, K	Vapor or sublimation pressure, kPa	uncertainty
273.65	0.00631	0.00016
273.65	0.0063	0.00016
273.65	0.0063	0.00016
278.15	0.0094	0.00019
278.15	0.00937	0.00019
278.15	0.00938	0.00019
283.15	0.01432	0.00024
283.15	0.01432	0.00024
283.15	0.01432	0.00024
288.15	0.02162	0.00032
288.15	0.02159	0.00032
288.15	0.02159	0.00032
293.15	0.03193	0.00042
293.15	0.03195	0.00042
293.15	0.03196	0.00042
298.15	0.04664	0.00057
298.15	0.04665	0.00057
298.15	0.0466	0.00057
303.15	0.06708	0.00077
303.15	0.06709	0.00077
303.15	0.06708	0.00077
308.17	0.0951	0.00105
308.15	0.09518	0.00105
308.15	0.09516	0.00105

System: N-methylpyrrolidone; phases: Liquid
Fixed: Pressure, kPa = 101.325
Property: Molar heat capacity at constant pressure, J/K/mol (Liquid); method: Large sample (1 g) DSC
Temperature, K	Molar heat capacity at constant pressure, J/K/mol	uncertainty
265.75	168.20156626	2.9100617
265.75	168.11842164	2.9100617
270.85	169.1993017	2.9100617
270.85	169.03301246	2.9100617
275.96	169.6150248	2.9100617
275.96	169.86445866	2.9100617
281.07	170.94533872	2.99320632
281.07	170.77904948	2.99320632
286.17	171.85992954	2.99320632
286.17	171.85992954	2.99320632
291.28	173.3565327	2.99320632
291.28	172.85766498	2.99320632
296.38	173.93854504	2.99320632
296.38	174.27112352	2.99320632
301.49	175.35200358	3.07635094
301.49	175.51829282	3.07635094
306.59	176.51602826	3.07635094
306.59	176.51602826	3.07635094
311.69	177.9294868	3.07635094
311.69	177.84634218	3.07635094
316.8	178.92722224	3.07635094
316.8	179.09351148	3.07635094
321.9	180.0081023	3.15949556
321.9	180.4238254	3.15949556
327.01	181.83728394	3.15949556
327.01	181.75413932	3.15949556
332.12	183.25074248	3.15949556
332.12	183.25074248	3.15949556
337.22	184.41476716	3.15949556
337.22	184.66420102	3.15949556
342.33	185.74508108	3.24264018
342.33	186.16080418	3.24264018
347.43	187.24168424	3.24264018
347.43	187.24168424	3.24264018
352.54	188.57199816	3.24264018
352.54	188.82143202	3.24264018

System: 2-aminoethan-1-ol; phases: Metastable liquid, Gas
Property: Vapor or sublimation pressure, kPa (Metastable liquid); method: Closed cell (Static) method
Temperature, K	Vapor or sublimation pressure, kPa	uncertainty
273.65	0.00646	0.00016
273.65	0.00646	0.00016
273.65	0.00646	0.00016
275.65	0.00785	0.00018
275.65	0.00785	0.00018
275.65	0.00785	0.00018
278.15	0.00997	0.0002
278.15	0.00998	0.0002
278.15	0.00997	0.0002
280.65	0.01262	0.00023
280.65	0.01262	0.00023
280.65	0.01263	0.00023
283.15	0.0159	0.00026
283.15	0.01591	0.00026
283.15	0.01587	0.00026
285.65	0.0199	0.0003
285.65	0.01992	0.0003
285.65	0.01992	0.0003
288.15	0.02494	0.00035
288.15	0.02505	0.00035
288.15	0.02501	0.00035
290.65	0.03092	0.00041
290.65	0.03099	0.00041
293.15	0.03842	0.00048
293.15	0.03848	0.00048
293.15	0.03849	0.00048
295.65	0.04735	0.00057
295.65	0.04742	0.00057
295.65	0.04744	0.00057
298.15	0.05877	0.00069
298.15	0.05861	0.00069
298.15	0.05859	0.00069
300.65	0.07124	0.00081
300.65	0.07125	0.00081
300.65	0.07143	0.00081
303.15	0.08725	0.00097
303.15	0.08736	0.00097
303.16	0.08722	0.00097

System: 2-aminoethan-1-ol; phases: Crystal, Gas
Property: Vapor or sublimation pressure, kPa (Crystal); method: Closed cell (Static) method
Temperature, K	Vapor or sublimation pressure, kPa	uncertainty
258.17	0.00078	0.00011
258.17	0.00077	0.00011
258.17	0.00076	0.00011
263.17	0.00142	0.00011
263.17	0.00142	0.00011
263.17	0.00142	0.00011
268.17	0.00264	0.00013
268.17	0.00265	0.00013
268.17	0.00265	0.00013
273.65	0.00518	0.00015
273.65	0.0052	0.00015
273.65	0.00519	0.00015
275.65	0.00658	0.00017
275.65	0.00658	0.00017
275.65	0.00658	0.00017
278.15	0.00883	0.00019
278.15	0.00884	0.00019
278.15	0.00883	0.00019
280.65	0.01183	0.00022
280.65	0.01185	0.00022
280.65	0.01185	0.00022
283.15	0.01576	0.00026
283.15	0.01575	0.00026

System: 2-aminoethan-1-ol; phases: Metastable liquid
Fixed: Pressure, kPa = 101.325
Property: Molar heat capacity at constant pressure, J/K/mol (Metastable liquid); method: Large sample (1 g) DSC
Temperature, K	Molar heat capacity at constant pressure, J/K/mol	uncertainty
265.75	160.55226122	2.74377246
270.85	161.79943052	2.82691708
275.96	162.46458748	2.82691708
281.07	163.71175678	2.82691708
286.17	164.54320298	2.82691708
291.28	165.54093842	2.82691708
291.28	165.8735169	2.9100617
296.38	166.53867386	2.9100617
296.38	167.28697544	2.9100617
301.49	167.78584316	2.9100617
301.49	168.11842164	2.9100617
306.59	169.1993017	2.9100617
306.59	169.11615708	2.9100617
311.69	170.28018176	2.9100617
311.69	170.52961562	2.99320632
316.8	171.36106182	2.99320632
316.8	171.6936403	2.99320632
321.9	172.60823112	2.99320632
321.9	173.10709884	2.99320632
327.01	174.10483428	2.99320632
327.01	174.27112352	2.99320632
332.12	175.68458206	3.07635094
332.12	175.35200358	3.07635094
337.22	176.6823175	3.07635094
337.22	177.18118522	3.07635094
342.33	178.09577604	3.07635094
342.33	178.59464376	3.07635094
347.43	179.50923458	3.07635094
347.43	179.42608996	3.07635094
352.54	181.2552716	3.15949556
352.54	181.33841622	3.15949556

System: 2-aminoethan-1-ol; phases: Ideal gas
Fixed: Pressure, kPa = 100
Property: Molar heat capacity at constant pressure, J/K/mol (Ideal gas); method: STD
Temperature, K	Molar heat capacity at constant pressure, J/K/mol	uncertainty
100	42.58	2.13
150	53.66	2.68
200	64.26	3.21
250	74.41	3.72
273.15	79.16	3.96
298.15	84.38	4.22
300	84.78	4.24
400	106.54	5.33
500	127.9	6.4
600	146.98	7.35
700	163.08	8.15
800	176.25	8.81
900	186.86	9.34
1000	195.39	9.77
