Measured thermophysical data. High-pressure viscosity behavior of x 1,1,1,2-tetrafluoroethane (HFC-134a) + (1-x) triethylene glycol dimethylether (TriEGDME) mixtures: Measurements and modeling
Source: Fluid Phase Equilib., 2006, 10.1016/j.fluid.2006.06.015
Compound 1: 1,1,1,2-tetrafluoroethane, C2H2F4, InChI=1S/C2H2F4/c3-1-2(4,5)6/h1H2
Compound 2: 2,5,8,11-tetraoxadodecane, C8H18O4, InChI=1S/C8H18O4/c1-9-3-5-11-7-8-12-6-4-10-2/h3-8H2,1-2H3

System: 2,5,8,11-tetraoxadodecane; phases: Liquid
Property: Viscosity, Pa*s (Liquid); method: Falling or rolling sphere viscometry
Temperature, K	Pressure, kPa	Viscosity, Pa*s	uncertainty
293.15	100	0.002135	9.3e-05
293.15	20000	0.002536	0.000111
293.15	40000	0.00297	0.00013
293.15	60000	0.003434	0.000151
293.15	80000	0.003926	0.000172
293.15	100000	0.004438	0.000195
313.15	100	0.001489	6.6e-05
313.15	20000	0.001755	7.8e-05
313.15	40000	0.002044	9.1e-05
313.15	60000	0.002355	0.000106
313.15	80000	0.002687	0.000121
313.15	100000	0.00304	0.000138
333.15	100	0.00112	4.9e-05
333.15	20000	0.001308	5.7e-05
333.15	40000	0.001501	6.6e-05
333.15	60000	0.001695	7.4e-05
333.15	80000	0.001889	8.3e-05
333.15	100000	0.002082	9.2e-05
353.15	100	0.000847	5.3e-05
353.15	20000	0.000988	6.2e-05
353.15	40000	0.001138	7.1e-05
353.15	60000	0.001296	8.1e-05
353.15	80000	0.001463	9.1e-05
353.15	100000	0.001639	0.000102

System: 2,5,8,11-tetraoxadodecane + 1,1,1,2-tetrafluoroethane; phases: Liquid
Property: Viscosity, Pa*s (Liquid); method: Falling or rolling sphere viscometry
Pressure, kPa	Temperature, K	Mole fraction of 1,1,1,2-tetrafluoroethane	Viscosity, Pa*s	uncertainty
10000	293.15	0.3427	0.001588	6.9e-05
10000	293.15	0.594	0.001235	5.6e-05
10000	313.15	0.3427	0.001158	5.1e-05
10000	313.15	0.594	0.000875	4e-05
10000	333.15	0.3427	0.000863	3.8e-05
10000	333.15	0.594	0.000652	2.9e-05
10000	353.15	0.3427	0.000656	4.1e-05
10000	353.15	0.594	0.00051	3.2e-05
10000	373.15	0.3427	0.000521	4.3e-05
10000	373.15	0.594	0.000405	3.3e-05
20000	293.15	0.3427	0.00174	7.6e-05
20000	293.15	0.594	0.00135	6.1e-05
20000	313.15	0.3427	0.001262	5.6e-05
20000	313.15	0.594	0.000947	4.4e-05
20000	333.15	0.3427	0.000936	4.1e-05
20000	333.15	0.594	0.000715	3.2e-05
20000	353.15	0.3427	0.000715	4.4e-05
20000	353.15	0.594	0.000559	3.5e-05
20000	373.15	0.3427	0.00057	4.7e-05
20000	373.15	0.594	0.000447	3.7e-05
30000	293.15	0.3427	0.001908	8.3e-05
30000	293.15	0.594	0.00147	6.7e-05
30000	313.15	0.3427	0.001372	6.1e-05
30000	313.15	0.594	0.001028	4.8e-05
30000	333.15	0.3427	0.001011	4.4e-05
30000	333.15	0.594	0.00078	3.5e-05
30000	353.15	0.3427	0.000774	4.8e-05
30000	353.15	0.594	0.000609	3.8e-05
30000	373.15	0.3427	0.000619	5e-05
30000	373.15	0.594	0.000489	4e-05
40000	293.15	0.3427	0.002088	9.1e-05
40000	293.15	0.594	0.001595	7.3e-05
40000	313.15	0.3427	0.001486	6.7e-05
40000	313.15	0.594	0.001116	5.2e-05
40000	333.15	0.3427	0.001088	4.8e-05
40000	333.15	0.594	0.000847	3.8e-05
40000	353.15	0.3427	0.000835	5.2e-05
40000	353.15	0.594	0.000661	4.1e-05
40000	373.15	0.3427	0.00067	5.5e-05
40000	373.15	0.594	0.000532	4.4e-05
50000	293.15	0.3427	0.002276	0.0001
50000	293.15	0.594	0.001725	7.9e-05
50000	313.15	0.3427	0.001605	7.2e-05
50000	313.15	0.594	0.001211	5.6e-05
50000	333.15	0.3427	0.001167	5.1e-05
50000	333.15	0.594	0.000916	4.1e-05
50000	353.15	0.3427	0.000897	5.6e-05
50000	353.15	0.594	0.000713	4.5e-05
50000	373.15	0.3427	0.000722	5.9e-05
50000	373.15	0.594	0.000575	4.7e-05
60000	293.15	0.3427	0.002472	0.000109
60000	293.15	0.594	0.00186	8.6e-05
60000	313.15	0.3427	0.00173	7.8e-05
60000	313.15	0.594	0.001309	6e-05
60000	333.15	0.3427	0.001249	5.5e-05
60000	333.15	0.594	0.000987	4.4e-05
60000	353.15	0.3427	0.00096	6e-05
60000	353.15	0.594	0.000767	4.8e-05
60000	373.15	0.3427	0.000775	6.3e-05
60000	373.15	0.594	0.000619	5.1e-05
70000	293.15	0.3427	0.002672	0.000118
70000	293.15	0.594	0.002001	9.2e-05
70000	313.15	0.3427	0.00186	8.4e-05
70000	313.15	0.594	0.001412	6.5e-05
70000	333.15	0.3427	0.001334	5.9e-05
70000	333.15	0.594	0.00106	4.7e-05
70000	353.15	0.3427	0.001025	6.4e-05
70000	353.15	0.594	0.00082	5.1e-05
70000	373.15	0.3427	0.00083	6.8e-05
70000	373.15	0.594	0.000663	5.4e-05
80000	293.15	0.3427	0.002878	0.000127
80000	293.15	0.594	0.002148	9.9e-05
80000	313.15	0.3427	0.001997	9e-05
80000	313.15	0.594	0.001519	7e-05
80000	333.15	0.3427	0.001421	6.3e-05
80000	333.15	0.594	0.001135	5e-05
80000	353.15	0.3427	0.001091	6.8e-05
80000	353.15	0.594	0.000875	5.5e-05
80000	373.15	0.3427	0.000886	7.2e-05
80000	373.15	0.594	0.000708	5.8e-05
90000	293.15	0.3427	0.003087	0.000136
90000	293.15	0.594	0.002301	0.000106
90000	313.15	0.3427	0.00214	9.7e-05
90000	313.15	0.594	0.001629	7.5e-05
90000	333.15	0.3427	0.001511	6.7e-05
90000	333.15	0.594	0.001212	5.4e-05
90000	353.15	0.3427	0.001159	7.2e-05
90000	353.15	0.594	0.00093	5.8e-05
90000	373.15	0.3427	0.000944	7.7e-05
90000	373.15	0.594	0.000753	6.2e-05
100000	293.15	0.3427	0.003301	0.000146
100000	293.15	0.594	0.00246	0.000114
100000	313.15	0.3427	0.002289	0.000104
100000	313.15	0.594	0.001741	8e-05
100000	333.15	0.3427	0.001603	7.2e-05
100000	333.15	0.594	0.001292	5.7e-05
100000	353.15	0.3427	0.001228	7.6e-05
100000	353.15	0.594	0.000985	6.2e-05
100000	373.15	0.3427	0.001003	8.2e-05
100000	373.15	0.594	0.000799	6.6e-05
