Measured thermophysical data. Liquid-liquid equilibrium data for ternary systems of water + lactic acid + C4-C7 alcohols at 298.2 K and atmospheric pressure
Source: Fluid Phase Equilib., 2013, 10.1016/j.fluid.2013.06.007
Compound 1: water, H2O, InChI=1S/H2O/h1H2, purity 99.8%
Compound 2: 2-hydroxypropanoic acid, C3H6O3, InChI=1S/C3H6O3/c1-2(4)3(5)6/h2,4H,1H3,(H,5,6), purity 85%
Compound 3: butan-1-ol, C4H10O, InChI=1S/C4H10O/c1-2-3-4-5/h5H,2-4H2,1H3, purity 99%
Compound 4: butan-2-ol, C4H10O, InChI=1S/C4H10O/c1-3-4(2)5/h4-5H,3H2,1-2H3, purity 99%
Compound 5: pentan-1-ol, C5H12O, InChI=1S/C5H12O/c1-2-3-4-5-6/h6H,2-5H2,1H3, purity 99%
Compound 6: hexan-1-ol, C6H14O, InChI=1S/C6H14O/c1-2-3-4-5-6-7/h7H,2-6H2,1H3, purity 98%
Compound 7: heptan-1-ol, C7H16O, InChI=1S/C7H16O/c1-2-3-4-5-6-7-8/h8H,2-7H2,1H3, purity 99%

System: water; phases: Liquid
Property: Mass density, kg/m3 (Liquid); method: Vibrating tube method
Temperature, K	Pressure, kPa	Mass density, kg/m3	uncertainty
298.2	101.325	996.993	0.608

System: water; phases: Liquid
Property: Refractive index (Na D-line) (Liquid); method: Standard Abbe refractometry
Temperature, K	Pressure, kPa	Refractive index (Na D-line)	uncertainty
298.2	101.325	1.3325	0.0004

System: 2-hydroxypropanoic acid; phases: Liquid
Property: Mass density, kg/m3 (Liquid); method: Vibrating tube method
Temperature, K	Pressure, kPa	Mass density, kg/m3	uncertainty
298.2	101.325	1199.914	86.939

System: 2-hydroxypropanoic acid; phases: Liquid
Property: Refractive index (Na D-line) (Liquid); method: Standard Abbe refractometry
Temperature, K	Pressure, kPa	Refractive index (Na D-line)	uncertainty
298.2	101.325	1.4243	0.003

System: butan-1-ol; phases: Liquid
Property: Mass density, kg/m3 (Liquid); method: Vibrating tube method
Temperature, K	Pressure, kPa	Mass density, kg/m3	uncertainty
298.2	101.325	805.877	0.629

System: butan-1-ol; phases: Liquid
Property: Refractive index (Na D-line) (Liquid); method: Standard Abbe refractometry
Temperature, K	Pressure, kPa	Refractive index (Na D-line)	uncertainty
298.2	101.325	1.3972	0.0004

System: butan-2-ol; phases: Liquid
Property: Mass density, kg/m3 (Liquid); method: Vibrating tube method
Temperature, K	Pressure, kPa	Mass density, kg/m3	uncertainty
298.2	101.325	802.362	0.629

System: butan-2-ol; phases: Liquid
Property: Refractive index (Na D-line) (Liquid); method: Standard Abbe refractometry
Temperature, K	Pressure, kPa	Refractive index (Na D-line)	uncertainty
298.2	101.325	1.394	0.0004

System: pentan-1-ol; phases: Liquid
Property: Mass density, kg/m3 (Liquid); method: Vibrating tube method
Temperature, K	Pressure, kPa	Mass density, kg/m3	uncertainty
298.2	101.325	811.288	0.629

System: pentan-1-ol; phases: Liquid
Property: Refractive index (Na D-line) (Liquid); method: Standard Abbe refractometry
Temperature, K	Pressure, kPa	Refractive index (Na D-line)	uncertainty
298.2	101.325	1.4078	0.0004

System: hexan-1-ol; phases: Liquid
Property: Mass density, kg/m3 (Liquid); method: Vibrating tube method
Temperature, K	Pressure, kPa	Mass density, kg/m3	uncertainty
298.2	101.325	815.167	0.832

System: hexan-1-ol; phases: Liquid
Property: Refractive index (Na D-line) (Liquid); method: Standard Abbe refractometry
Temperature, K	Pressure, kPa	Refractive index (Na D-line)	uncertainty
298.2	101.325	1.416	0.0005

System: heptan-1-ol; phases: Liquid
Property: Mass density, kg/m3 (Liquid); method: Vibrating tube method
Temperature, K	Pressure, kPa	Mass density, kg/m3	uncertainty
298.2	101.325	818.915	0.63

System: heptan-1-ol; phases: Liquid
Property: Refractive index (Na D-line) (Liquid); method: Standard Abbe refractometry
Temperature, K	Pressure, kPa	Refractive index (Na D-line)	uncertainty
298.2	101.325	1.4224	0.0004

System: 2-hydroxypropanoic acid + butan-1-ol + water; phases: Liquid mixture 1, Liquid mixture 2
Fixed: Temperature, K = 298.2
Fixed: Pressure, kPa = 95
Property: Mass fraction of water (Liquid mixture 1); method: Density calibration data
Mass fraction of 2-hydroxypropanoic acid	Mass fraction of water	uncertainty
0	0.9263	0.0206
0.0296	0.8908	0.0222
0.0546	0.8654	0.0221
0.0735	0.8437	0.0206
0.0994	0.8103	0.0232
0.1156	0.7822	0.1282
0.1538	0.668	0.0658
0.1529	0.6736	0.0565
0.1652	0.56	0.0731
0.1673	0.5164	0.0884
0.1588	0.4176	0.0535
0.1462	0.3704	0.0772
0.1253	0.3219	0.0835
0.0942	0.2772	0.0228
0.0563	0.2439	0.0307
0	0.2013	0.0206

System: 2-hydroxypropanoic acid + butan-1-ol + water; phases: Liquid
Fixed: Pressure, kPa = 95
Fixed: Temperature, K = 298.2
Property: Mass density, kg/m3 (Liquid); method: Vibrating tube method
Mass fraction of water	Mass fraction of 2-hydroxypropanoic acid	Mass density, kg/m3	uncertainty
0.9263	0	985.941	4.747
0.8908	0.0296	992.267	5.774
0.8654	0.0546	997.087	5.984
0.8437	0.0735	1001.18	6.162
0.8103	0.0994	1004.467	6.006
0.7822	0.1156	1005.45	6.177
0.668	0.1538	995.753	6.476
0.6736	0.1529	996.607	6.444
0.56	0.1652	975.614	6.779
0.5164	0.1673	966.041	6.062
0.4176	0.1588	941.796	6.15
0.3704	0.1462	926.332	5.941
0.3219	0.1253	908.596	5.863
0.2772	0.0942	888.795	5.649
0.2439	0.0563	869.522	5.572
0.2013	0	844.544	4.748

System: 2-hydroxypropanoic acid + butan-1-ol + water; phases: Liquid
Fixed: Pressure, kPa = 95
Fixed: Temperature, K = 298.2
Property: Refractive index (Na D-line) (Liquid); method: Standard Abbe refractometry
Mass fraction of water	Mass fraction of 2-hydroxypropanoic acid	Refractive index (Na D-line)	uncertainty
0.9263	0	1.3404	0.0044
0.8908	0.0296	1.344	0.0044
0.8654	0.0546	1.3465	0.0044
0.8437	0.0735	1.3483	0.0045
0.8103	0.0994	1.3519	0.0044
0.7822	0.1156	1.3542	0.0045
0.668	0.1538	1.3636	0.0045
0.6736	0.1529	1.3633	0.0045
0.56	0.1652	1.3716	0.0045
0.5164	0.1673	1.3746	0.0045
0.4176	0.1588	1.3808	0.0045
0.3704	0.1462	1.3835	0.0045
0.3219	0.1253	1.3858	0.0045
0.2772	0.0942	1.3874	0.0045
0.2439	0.0563	1.3881	0.0045
0.2013	0	1.3885	0.0044

System: 2-hydroxypropanoic acid + butan-1-ol + water; phases: Liquid
Fixed: Pressure, kPa = 95
Fixed: Temperature, K = 298.2
Property: Mass density, kg/m3 (Liquid); method: Vibrating tube method
Mole fraction of water	Mole fraction of 2-hydroxypropanoic acid	Mass density, kg/m3	uncertainty
0.5395	0.016	857.88	4.851
0.5879	0.0343	877.558	5.391
0.6618	0.053	907.472	5.388
0.7325	0.0598	934.74	5.39
0.972	0.0067	991.84	5.989
0.9612	0.0152	998.872	5.989
0.9448	0.0266	1005.341	6.316
0.9231	0.0356	1003.31	5.675

System: 2-hydroxypropanoic acid + butan-1-ol + water; phases: Liquid
Fixed: Pressure, kPa = 95
Fixed: Temperature, K = 298.2
Property: Refractive index (Na D-line) (Liquid); method: Standard Abbe refractometry
Mole fraction of water	Mole fraction of 2-hydroxypropanoic acid	Refractive index (Na D-line)	uncertainty
0.5395	0.016	1.3886	0.0021
0.5879	0.0343	1.3881	0.002
0.6618	0.053	1.3862	0.0018
0.7325	0.0598	1.3827	0.0018
0.972	0.0067	1.344	0.0022
0.9612	0.0152	1.3481	0.0022
0.9448	0.0266	1.3535	0.0021
0.9231	0.0356	1.359	0.0022

System: 2-hydroxypropanoic acid + butan-1-ol + water; phases: Liquid mixture 1, Liquid mixture 2
Fixed: Temperature, K = 298.2
Fixed: Pressure, kPa = 95
Property: Mole fraction of 2-hydroxypropanoic acid (Liquid mixture 1); method: Density calibration data
Property: Mole fraction of 2-hydroxypropanoic acid (Liquid mixture 2); method: Density calibration data
Property: Mole fraction of water (Liquid mixture 2); method: Density calibration data
Mole fraction of water	Mole fraction of 2-hydroxypropanoic acid	uncertainty	Mole fraction of 2-hydroxypropanoic acid	uncertainty	Mole fraction of water	uncertainty
0.5395	0.016	0.0107	0.0067	0.0067	0.972	
0.5879	0.0343	0.0096	0.0152	0.0074	0.9612	
0.6618	0.053	0.0083	0.0266	0.0074	0.9448	
0.7325	0.0598	0.0078	0.0356	0.0074	0.9231	

System: 2-hydroxypropanoic acid + butan-2-ol + water; phases: Liquid mixture 1, Liquid mixture 2
Fixed: Temperature, K = 298.2
Fixed: Pressure, kPa = 95
Property: Mass fraction of water (Liquid mixture 1); method: Density calibration data
Mass fraction of 2-hydroxypropanoic acid	Mass fraction of water	uncertainty
0	0.8143	0.021
0.0084	0.7878	0.0211
0.0162	0.7695	0.0212
0.0247	0.7202	0.0214
0.0325	0.6414	0.022
0.0334	0.5957	0.0223
0.0325	0.5502	0.0227
0.0323	0.504	0.0231
0.0238	0.4385	0.0226
0.0194	0.4076	0.0223
0.0138	0.3938	0.0222
0.0076	0.3702	0.022
0	0.3574	0.022

System: 2-hydroxypropanoic acid + butan-2-ol + water; phases: Liquid
Fixed: Pressure, kPa = 95
Fixed: Temperature, K = 298.2
Property: Mass density, kg/m3 (Liquid); method: Vibrating tube method
Mass fraction of water	Mass fraction of 2-hydroxypropanoic acid	Mass density, kg/m3	uncertainty
0.8143	0	968.391	4.911
0.7878	0.0084	966.716	4.902
0.7695	0.0162	965.288	4.878
0.7202	0.0247	959.293	5.088
0.6414	0.0325	944.963	4.912
0.5957	0.0334	935.756	5.324
0.5502	0.0325	924.464	4.279
0.504	0.0323	916.035	4.584
0.4385	0.0238	899.721	5.083
0.4076	0.0194	893.09	5.088
0.3938	0.0138	887.554	5.001
0.3702	0.0076	881.641	4.944
0.3574	0	875.001	4.912

System: 2-hydroxypropanoic acid + butan-2-ol + water; phases: Liquid
Fixed: Pressure, kPa = 95
Fixed: Temperature, K = 298.2
Property: Refractive index (Na D-line) (Liquid); method: Standard Abbe refractometry
Mass fraction of water	Mass fraction of 2-hydroxypropanoic acid	Refractive index (Na D-line)	uncertainty
0.8143	0	1.3506	0.0044
0.7878	0.0084	1.3526	0.0044
0.7695	0.0162	1.3539	0.0044
0.7202	0.0247	1.3574	0.0045
0.6414	0.0325	1.3628	0.0044
0.5957	0.0334	1.3656	0.0047
0.5502	0.0325	1.3719	0.0042
0.504	0.0323	1.3737	0.0043
0.4385	0.0238	1.3779	0.0045
0.4076	0.0194	1.379	0.0044
0.3938	0.0138	1.3798	0.0044
0.3702	0.0076	1.3806	0.0044
0.3574	0	1.3811	0.0044

System: 2-hydroxypropanoic acid + butan-2-ol + water; phases: Liquid
Fixed: Pressure, kPa = 95
Fixed: Temperature, K = 298.2
Property: Mass density, kg/m3 (Liquid); method: Vibrating tube method
Mole fraction of water	Mole fraction of 2-hydroxypropanoic acid	Mass density, kg/m3	uncertainty
0.7167	0.0025	882.409	5.544
0.7379	0.0058	890.631	5.651
0.7536	0.0084	897.275	5.613
0.9382	0.0035	967.907	5.547
0.9301	0.0055	965.644	5.607
0.9234	0.007	963.632	5.614

System: 2-hydroxypropanoic acid + butan-2-ol + water; phases: Liquid
Fixed: Pressure, kPa = 95
Fixed: Temperature, K = 298.2
Property: Refractive index (Na D-line) (Liquid); method: Standard Abbe refractometry
Mole fraction of water	Mole fraction of 2-hydroxypropanoic acid	Refractive index (Na D-line)	uncertainty
0.7167	0.0025	1.3803	0.0023
0.7379	0.0058	1.3791	0.0022
0.7536	0.0084	1.3782	0.0023
0.9382	0.0035	1.3529	0.0023
0.9301	0.0055	1.355	0.0023
0.9234	0.007	1.3566	0.0023

System: 2-hydroxypropanoic acid + butan-2-ol + water; phases: Liquid mixture 1, Liquid mixture 2
Fixed: Temperature, K = 298.2
Fixed: Pressure, kPa = 95
Property: Mole fraction of 2-hydroxypropanoic acid (Liquid mixture 1); method: Density calibration data
Property: Mole fraction of 2-hydroxypropanoic acid (Liquid mixture 2); method: Density calibration data
Property: Mole fraction of water (Liquid mixture 2); method: Density calibration data
Mole fraction of water	Mole fraction of 2-hydroxypropanoic acid	uncertainty	Mole fraction of 2-hydroxypropanoic acid	uncertainty	Mole fraction of water	uncertainty
0.7167	0.0025	0.0025	0.0035	0.0035	0.9382	
0.7379	0.0058	0.0058	0.0055	0.0055	0.9301	
0.7536	0.0084	0.0074	0.007	0.007	0.9234	

System: 2-hydroxypropanoic acid + pentan-1-ol + water; phases: Liquid mixture 1, Liquid mixture 2
Fixed: Temperature, K = 298.2
Fixed: Pressure, kPa = 95
Property: Mass fraction of water (Liquid mixture 1); method: Density calibration data
Mass fraction of 2-hydroxypropanoic acid	Mass fraction of water	uncertainty
0	0.98	0.02
0.0999	0.8768	0.0218
0.0828	0.8919	0.0489
0.12	0.856	0.144
0.1463	0.8285	0.0219
0.1681	0.8049	0.1951
0.3052	0.6173	0.0983
0.3212	0.5204	0.0493
0.3201	0.4237	0.0983
0.298	0.3173	0.0266
0.2436	0.2362	0.036
0.1603	0.1692	0.0526
0.1314	0.1539	0.0226
0.0932	0.1383	0.0395
0.0511	0.1217	0.028
0	0.108	0.0206

System: 2-hydroxypropanoic acid + pentan-1-ol + water; phases: Liquid
Fixed: Pressure, kPa = 95
Fixed: Temperature, K = 298.2
Property: Mass density, kg/m3 (Liquid); method: Vibrating tube method
Mass fraction of water	Mass fraction of 2-hydroxypropanoic acid	Mass density, kg/m3	uncertainty
0.98	0	993.753	4.539
0.8768	0.0999	1016.635	5.785
0.8919	0.0828	1012.801	5.771
0.856	0.12	1021.233	6.068
0.8285	0.1463	1027.251	6.177
0.8049	0.1681	1031.654	6.251
0.6173	0.3052	1050.705	8.598
0.5204	0.3212	1033.221	8.72
0.4237	0.3201	1008.171	8.262
0.3173	0.298	973.111	7.818
0.2362	0.2436	933.948	6.985
0.1692	0.1603	890.288	5.813
0.1539	0.1314	878.352	5.694
0.1383	0.0932	862.84	5.534
0.1217	0.0511	846.838	5.364
0.108	0	829.368	4.635

System: 2-hydroxypropanoic acid + pentan-1-ol + water; phases: Liquid
Fixed: Pressure, kPa = 95
Fixed: Temperature, K = 298.2
Property: Refractive index (Na D-line) (Liquid); method: Standard Abbe refractometry
Mass fraction of water	Mass fraction of 2-hydroxypropanoic acid	Refractive index (Na D-line)	uncertainty
0.98	0	1.3353	0.0045
0.8768	0.0999	1.3452	0.0045
0.8919	0.0828	1.3435	0.0045
0.856	0.12	1.3474	0.0045
0.8285	0.1463	1.3501	0.0045
0.8049	0.1681	1.3525	0.0045
0.6173	0.3052	1.3716	0.0047
0.5204	0.3212	1.3803	0.0046
0.4237	0.3201	1.3877	0.0046
0.3173	0.298	1.3952	0.0046
0.2362	0.2436	1.3993	0.0046
0.1692	0.1603	1.4017	0.0046
0.1539	0.1314	1.4019	0.0045
0.1383	0.0932	1.4022	0.0045
0.1217	0.0511	1.4021	0.0045
0.108	0	1.4021	0.0045

System: 2-hydroxypropanoic acid + pentan-1-ol + water; phases: Liquid
Fixed: Pressure, kPa = 95
Fixed: Temperature, K = 298.2
Property: Mass density, kg/m3 (Liquid); method: Vibrating tube method
Mole fraction of water	Mole fraction of 2-hydroxypropanoic acid	Mass density, kg/m3	uncertainty
0.3941	0.0295	844.004	4.741
0.411	0.041	850.709	5.083
0.4397	0.0643	865.143	5.452
0.4682	0.0853	880.044	5.712
0.5106	0.1059	899.144	5.703
0.5587	0.1208	919.225	5.811
0.5703	0.1233	923.871	5.815
0.6264	0.1316	946.733	5.728
0.9843	0.011	1005.694	5.976
0.9796	0.0156	1010.522	5.976
0.9685	0.0259	1020.234	5.791
0.9571	0.0366	1029.45	5.939
0.9429	0.0494	1038.866	6.216
0.9289	0.0619	1047.141	6.219
0.9257	0.0644	1048.244	5.927
0.9092	0.0769	1052.769	6.396

System: 2-hydroxypropanoic acid + pentan-1-ol + water; phases: Liquid
Fixed: Pressure, kPa = 95
Fixed: Temperature, K = 298.2
Property: Refractive index (Na D-line) (Liquid); method: Standard Abbe refractometry
Mole fraction of water	Mole fraction of 2-hydroxypropanoic acid	Refractive index (Na D-line)	uncertainty
0.3941	0.0295	1.4024	0.002
0.411	0.041	1.4023	0.002
0.4397	0.0643	1.4023	0.0019
0.4682	0.0853	1.4023	0.0019
0.5106	0.1059	1.4019	0.0019
0.5587	0.1208	1.401	0.0015
0.5703	0.1233	1.4007	0.0015
0.6264	0.1316	1.3989	0.0016
0.9843	0.011	1.3404	0.0022
0.9796	0.0156	1.3424	0.0022
0.9685	0.0259	1.3469	0.0022
0.9571	0.0366	1.3513	0.0021
0.9429	0.0494	1.3564	0.002
0.9289	0.0619	1.3611	0.002
0.9257	0.0644	1.3621	0.002
0.9092	0.0769	1.3669	0.002

System: 2-hydroxypropanoic acid + pentan-1-ol + water; phases: Liquid mixture 1, Liquid mixture 2
Fixed: Temperature, K = 298.2
Fixed: Pressure, kPa = 95
Property: Mole fraction of 2-hydroxypropanoic acid (Liquid mixture 1); method: Density calibration data
Property: Mole fraction of 2-hydroxypropanoic acid (Liquid mixture 2); method: Density calibration data
Property: Mole fraction of water (Liquid mixture 2); method: Density calibration data
Mole fraction of water	Mole fraction of 2-hydroxypropanoic acid	uncertainty	Mole fraction of 2-hydroxypropanoic acid	uncertainty	Mole fraction of water	uncertainty
0.3941	0.0295	0.0174	0.011	0.0074	0.9843	
0.411	0.041	0.0183	0.0156	0.0074	0.9796	
0.4397	0.0643	0.0176	0.0259	0.0074	0.9685	
0.4682	0.0853	0.0142	0.0366	0.0074	0.9571	
0.5106	0.1059	0.0112	0.0494	0.0075	0.9429	
0.5587	0.1208	0.009	0.0619	0.0075	0.9289	
0.5703	0.1233	0.0091	0.0644	0.0075	0.9257	
0.6264	0.1316	0.0085	0.0769	0.0076	0.9092	

System: 2-hydroxypropanoic acid + hexan-1-ol + water; phases: Liquid mixture 1, Liquid mixture 2
Fixed: Pressure, kPa = 95
Fixed: Temperature, K = 298.2
Property: Mass fraction of water (Liquid mixture 1); method: Density calibration data
Mass fraction of 2-hydroxypropanoic acid	Mass fraction of water	uncertainty
0	0.9937	0.0063
0.0951	0.8943	0.0282
0.1785	0.8108	0.0328
0.2701	0.7147	0.0232
0.352	0.6276	0.0213
0.422	0.5048	0.0813
0.4244	0.4694	0.0495
0.411	0.3879	0.0521
0.3916	0.3003	0.0403
0.3453	0.2387	0.0221
0.3377	0.2304	0.0221
0.3007	0.1966	0.0212
0.2932	0.1915	0.1368
0.2413	0.1565	0.056
0.1947	0.1319	0.0626
0.1195	0.1074	0.023
0.088	0.0966	0.0207
0.0459	0.087	0.0792
0	0.0669	0.0206

System: 2-hydroxypropanoic acid + hexan-1-ol + water; phases: Liquid
Fixed: Pressure, kPa = 95
Fixed: Temperature, K = 298.2
Property: Mass density, kg/m3 (Liquid); method: Vibrating tube method
Mass fraction of water	Mass fraction of 2-hydroxypropanoic acid	Mass density, kg/m3	uncertainty
0.9937	0	996.156	2.781
0.8943	0.0951	1018.403	5.916
0.8108	0.1785	1037.454	6.358
0.7147	0.2701	1058.37	7.677
0.6276	0.352	1076.379	9.867
0.5048	0.422	1077.69	13.266
0.4694	0.4244	1068.749	13.4
0.3879	0.411	1039.899	12.482
0.3003	0.3916	1008.431	11.588
0.2387	0.3453	973.68	9.677
0.2304	0.3377	968.953	9.446
0.1966	0.3007	947.478	8.599
0.1915	0.2932	942.79	8.417
0.1565	0.2413	916.493	7.139
0.1319	0.1947	896.496	6.341
0.1074	0.1195	867.036	5.843
0.0966	0.088	856.099	5.458
0.087	0.0459	841.7	5.389
0.0669	0	825.583	4.586

System: 2-hydroxypropanoic acid + hexan-1-ol + water; phases: Liquid
Fixed: Pressure, kPa = 95
Fixed: Temperature, K = 298.2
Property: Refractive index (Na D-line) (Liquid); method: Standard Abbe refractometry
Mass fraction of water	Mass fraction of 2-hydroxypropanoic acid	Refractive index (Na D-line)	uncertainty
0.9937	0	1.3333	0.0042
0.8943	0.0951	1.3429	0.0046
0.8108	0.1785	1.3519	0.0046
0.7147	0.2701	1.362	0.0046
0.6276	0.352	1.3714	0.0047
0.5048	0.422	1.384	0.0048
0.4694	0.4244	1.3872	0.0048
0.3879	0.411	1.3941	0.0048
0.3003	0.3916	1.4002	0.0046
0.2387	0.3453	1.4047	0.0047
0.2304	0.3377	1.4054	0.0047
0.1966	0.3007	1.4072	0.0047
0.1915	0.2932	1.4074	0.0047
0.1565	0.2413	1.4091	0.0047
0.1319	0.1947	1.41	0.0046
0.1074	0.1195	1.4108	0.0046
0.0966	0.088	1.4111	0.0046
0.087	0.0459	1.4112	0.0046
0.0669	0	1.4119	0.0046

System: 2-hydroxypropanoic acid + hexan-1-ol + water; phases: Liquid
Fixed: Pressure, kPa = 95
Fixed: Temperature, K = 298.2
Property: Mass density, kg/m3 (Liquid); method: Vibrating tube method
Mole fraction of water	Mole fraction of 2-hydroxypropanoic acid	Mass density, kg/m3	uncertainty
0.3316	0.0216	835.044	4.342
0.3555	0.0525	847.841	4.978
0.3636	0.0638	852.895	5.362
0.4088	0.0837	865.033	6.041
0.4353	0.1103	880.545	6.635
0.4644	0.1349	897.65	6.683
0.5129	0.1583	920.934	7.07
0.5602	0.1823	950.334	7.172
0.9896	0.0088	1005.755	4.783
0.9752	0.0228	1019.986	5.281
0.9684	0.029	1025.336	5.282
0.9594	0.039	1036.331	6.328
0.9441	0.0541	1048.754	6.119
0.9261	0.0716	1061.467	6.663
0.9065	0.0904	1073.302	6.526
0.8762	0.1164	1082.721	6.905

System: 2-hydroxypropanoic acid + hexan-1-ol + water; phases: Liquid
Fixed: Pressure, kPa = 95
Fixed: Temperature, K = 298.2
Property: Refractive index (Na D-line) (Liquid); method: Standard Abbe refractometry
Mole fraction of water	Mole fraction of 2-hydroxypropanoic acid	Refractive index (Na D-line)	uncertainty
0.3316	0.0216	1.4113	0.0021
0.3555	0.0525	1.4112	0.002
0.3636	0.0638	1.4112	0.002
0.4088	0.0837	1.4103	0.002
0.4353	0.1103	1.4101	0.0019
0.4644	0.1349	1.4098	0.0019
0.5129	0.1583	1.4088	0.0019
0.5602	0.1823	1.4078	0.002
0.9896	0.0088	1.3375	0.0021
0.9752	0.0228	1.3439	0.0023
0.9684	0.029	1.3467	0.0023
0.9594	0.039	1.3503	0.0021
0.9441	0.0541	1.356	0.0021
0.9261	0.0716	1.3621	0.002
0.9065	0.0904	1.3681	0.002
0.8762	0.1164	1.3761	0.002

System: 2-hydroxypropanoic acid + hexan-1-ol + water; phases: Liquid mixture 2, Liquid mixture 1
Fixed: Pressure, kPa = 95
Fixed: Temperature, K = 298.2
Property: Mole fraction of 2-hydroxypropanoic acid (Liquid mixture 2); method: Density calibration data
Property: Mole fraction of 2-hydroxypropanoic acid (Liquid mixture 1); method: Density calibration data
Property: Mole fraction of water (Liquid mixture 1); method: Density calibration data
Mole fraction of water	Mole fraction of 2-hydroxypropanoic acid	uncertainty	Mole fraction of 2-hydroxypropanoic acid	uncertainty	Mole fraction of water	uncertainty
0.9896	0.0088	0.0088	0.0216	0.0216	0.3316	
0.9752	0.0228	0.022	0.0525	0.0175	0.3555	
0.9684	0.029	0.0218	0.0638	0.0177	0.3636	
0.9594	0.039	0.0217	0.0837	0.015	0.4088	
0.9441	0.0541	0.0217	0.1103	0.0205	0.4353	
0.9261	0.0716	0.0206	0.1349	0.0148	0.4644	
0.9065	0.0904	0.0204	0.1583	0.013	0.5129	
0.8762	0.1164	0.0193	0.1823	0.0134	0.5602	

System: 2-hydroxypropanoic acid + heptan-1-ol + water; phases: Liquid mixture 1, Liquid mixture 2
Fixed: Temperature, K = 298.2
Fixed: Pressure, kPa = 95
Property: Mass fraction of water (Liquid mixture 1); method: Density calibration data
Mass fraction of 2-hydroxypropanoic acid	Mass fraction of water	uncertainty
0	0.9984	0.0016
0.0967	0.9009	0.0563
0.1781	0.8159	0.0259
0.2715	0.7231	0.0225
0.3565	0.6345	0.021
0.4496	0.537	0.0334
0.466	0.5166	0.0209
0.499	0.4715	0.0328
0.5078	0.4042	0.0602
0.4883	0.343	0.0269
0.4585	0.2938	0.0256
0.4199	0.2405	0.0248
0.3563	0.1853	0.0214
0.3039	0.1518	0.0468
0.2511	0.1286	0.0315
0.1563	0.0949	0.0949
0.1248	0.0872	0.0872
0.0882	0.0793	0.0793
0.0488	0.069	0.069
0	0.0511	0.0206

System: 2-hydroxypropanoic acid + heptan-1-ol + water; phases: Liquid
Fixed: Pressure, kPa = 95
Fixed: Temperature, K = 298.2
Property: Mass density, kg/m3 (Liquid); method: Vibrating tube method
Mass fraction of water	Mass fraction of 2-hydroxypropanoic acid	Mass density, kg/m3	uncertainty
0.9984	0	996.839	2.544
0.9009	0.0967	1019.216	5.902
0.8159	0.1781	1038.619	6.225
0.7231	0.2715	1059.401	7.474
0.6345	0.3565	1080.721	9.99
0.537	0.4496	1101.466	14.505
0.5166	0.466	1104.049	15.615
0.4715	0.499	1108.787	17.94
0.4042	0.5078	1092.872	17.816
0.343	0.4883	1065.245	16.299
0.2938	0.4585	1039.162	14.189
0.2405	0.4199	1007.309	11.974
0.1853	0.3563	968.355	9.108
0.1518	0.3039	941.261	7.815
0.1286	0.2511	917.585	6.638
0.0949	0.1563	879.261	5.7
0.0872	0.1248	868.256	5.611
0.0793	0.0882	855.666	5.261
0.069	0.0488	842.791	5.201
0.0511	0	827.25	4.473

System: 2-hydroxypropanoic acid + heptan-1-ol + water; phases: Liquid
Fixed: Pressure, kPa = 95
Fixed: Temperature, K = 298.2
Property: Refractive index (Na D-line) (Liquid); method: Standard Abbe refractometry
Mass fraction of water	Mass fraction of 2-hydroxypropanoic acid	Refractive index (Na D-line)	uncertainty
0.9984	0	1.3326	0.0042
0.9009	0.0967	1.3426	0.0046
0.8159	0.1781	1.3512	0.0046
0.7231	0.2715	1.3606	0.0047
0.6345	0.3565	1.3707	0.0047
0.537	0.4496	1.3815	0.0048
0.5166	0.466	1.3836	0.0049
0.4715	0.499	1.3882	0.0049
0.4042	0.5078	1.3949	0.0049
0.343	0.4883	1.4003	0.0049
0.2938	0.4585	1.4042	0.0048
0.2405	0.4199	1.4084	0.0048
0.1853	0.3563	1.4121	0.0048
0.1518	0.3039	1.4141	0.0047
0.1286	0.2511	1.4154	0.0047
0.0949	0.1563	1.417	0.0047
0.0872	0.1248	1.4173	0.0046
0.0793	0.0882	1.4177	0.0046
0.069	0.0488	1.4181	0.0046
0.0511	0	1.4183	0.0046

System: 2-hydroxypropanoic acid + heptan-1-ol + water; phases: Liquid
Fixed: Pressure, kPa = 95
Fixed: Temperature, K = 298.2
Property: Mass density, kg/m3 (Liquid); method: Vibrating tube method
Mole fraction of water	Mole fraction of 2-hydroxypropanoic acid	Mass density, kg/m3	uncertainty
0.2978	0.0281	836.507	4.475
0.986	0.0135	1011.398	5.498
0.307	0.0384	840.009	4.47
0.318	0.0621	848.282	5.198
0.3405	0.0842	857.253	5.768
0.3682	0.1092	868.827	6.355
0.3919	0.1344	881.73	7.085
0.4189	0.1598	896.947	7.124
0.4537	0.1833	915.03	7.185
0.5103	0.2067	942.409	7.26
0.9809	0.0186	1016.758	5.539
0.9684	0.0308	1028.453	5.595
0.9535	0.0452	1040.43	5.366
0.9389	0.0602	1053.762	5.906
0.9199	0.079	1067.242	6.178
0.8983	0.1002	1080.497	6.696
0.8741	0.1237	1092.975	7.229
0.8442	0.1517	1104.405	7.832

System: 2-hydroxypropanoic acid + heptan-1-ol + water; phases: Liquid
Fixed: Pressure, kPa = 95
Fixed: Temperature, K = 298.2
Property: Refractive index (Na D-line) (Liquid); method: Standard Abbe refractometry
Mole fraction of water	Mole fraction of 2-hydroxypropanoic acid	Refractive index (Na D-line)	uncertainty
0.2978	0.0281	1.4182	0.0021
0.986	0.0135	1.3392	0.0023
0.307	0.0384	1.4181	0.0021
0.318	0.0621	1.4181	0.002
0.3405	0.0842	1.4178	0.0019
0.3682	0.1092	1.4174	0.0019
0.3919	0.1344	1.4171	0.0019
0.4189	0.1598	1.4167	0.0019
0.4537	0.1833	1.416	0.0019
0.5103	0.2067	1.4144	0.0019
0.9809	0.0186	1.3415	0.0023
0.9684	0.0308	1.3468	0.0023
0.9535	0.0452	1.3526	0.0022
0.9389	0.0602	1.3578	0.0021
0.9199	0.079	1.364	0.0021
0.8983	0.1002	1.3703	0.002
0.8741	0.1237	1.3766	0.0019
0.8442	0.1517	1.3834	0.0019

System: 2-hydroxypropanoic acid + heptan-1-ol + water; phases: Liquid mixture 1, Liquid mixture 2
Fixed: Temperature, K = 298.2
Fixed: Pressure, kPa = 95
Property: Mole fraction of 2-hydroxypropanoic acid (Liquid mixture 1); method: Density calibration data
Property: Mole fraction of 2-hydroxypropanoic acid (Liquid mixture 2); method: Density calibration data
Property: Mole fraction of water (Liquid mixture 2); method: Density calibration data
Mole fraction of water	Mole fraction of 2-hydroxypropanoic acid	uncertainty	Mole fraction of 2-hydroxypropanoic acid	uncertainty	Mole fraction of water	uncertainty
0.2978	0.0281	0.0281	0.0135	0.0135	0.986	
0.307	0.0384	0.0291	0.0186	0.0186	0.9809	
0.318	0.0621	0.0216	0.0308	0.0218	0.9684	
0.3405	0.0842	0.0207	0.0452	0.0217	0.9535	
0.3682	0.1092	0.0215	0.0602	0.0217	0.9389	
0.3919	0.1344	0.022	0.079	0.0219	0.9199	
0.4189	0.1598	0.0181	0.1002	0.0215	0.8983	
0.4537	0.1833	0.0133	0.1237	0.0211	0.8741	
0.5103	0.2067	0.0121	0.1517	0.0209	0.8442	
