Measured thermophysical data. Unravelling various types of non-covalent interactions of benzyl amine with ethers in n-hexane at 303.15 K by ultrasonic and DFT methods
Source: Fluid Phase Equilib., 2018, 10.1016/j.fluid.2018.08.001
Compound 1: benzylamine, C7H9N, InChI=1S/C7H9N/c8-6-7-4-2-1-3-5-7/h1-5H,6,8H2, purity 98.5%
Compound 2: tetrahydrofuran, C4H8O, InChI=1S/C4H8O/c1-2-4-5-3-1/h1-4H2, purity 97.8%
Compound 3: 1,4-dioxane, C4H8O2, InChI=1S/C4H8O2/c1-2-6-4-3-5-1/h1-4H2, purity 98.8%
Compound 4: hexane, C6H14, InChI=1S/C6H14/c1-3-5-6-4-2/h3-6H2,1-2H3, purity 95.7%

System: benzylamine; phases: Liquid
Property: Mass density, kg/m3 (Liquid); method: Pycnometric method
Temperature, K	Pressure, kPa	Mass density, kg/m3	uncertainty
303.15	101.325	975.6	1.1

System: benzylamine; phases: Liquid
Property: Speed of sound, m/s (Liquid); method: Linear variable-path acoustic interferometer
Temperature, K	Pressure, kPa	Speed of sound, m/s	uncertainty
303.15	101.325	1538.2	2.1

System: benzylamine; phases: Liquid
Property: Viscosity, Pa*s (Liquid); method: Capillary tube (Ostwald; Ubbelohde) method
Temperature, K	Pressure, kPa	Viscosity, Pa*s	uncertainty
303.15	101.325	0.00143	4e-05

System: tetrahydrofuran; phases: Liquid
Property: Mass density, kg/m3 (Liquid); method: Pycnometric method
Temperature, K	Pressure, kPa	Mass density, kg/m3	uncertainty
303.15	101.325	876.5	1.1

System: tetrahydrofuran; phases: Liquid
Property: Speed of sound, m/s (Liquid); method: Linear variable-path acoustic interferometer
Temperature, K	Pressure, kPa	Speed of sound, m/s	uncertainty
303.15	101.325	1252.2	1.9

System: tetrahydrofuran; phases: Liquid
Property: Viscosity, Pa*s (Liquid); method: Capillary tube (Ostwald; Ubbelohde) method
Temperature, K	Pressure, kPa	Viscosity, Pa*s	uncertainty
303.15	101.325	0.00046	4e-05

System: 1,4-dioxane; phases: Liquid
Property: Mass density, kg/m3 (Liquid); method: Pycnometric method
Temperature, K	Pressure, kPa	Mass density, kg/m3	uncertainty
303.15	101.325	1022.4	1.1

System: 1,4-dioxane; phases: Liquid
Property: Speed of sound, m/s (Liquid); method: Linear variable-path acoustic interferometer
Temperature, K	Pressure, kPa	Speed of sound, m/s	uncertainty
303.15	101.325	1321	1.9

System: 1,4-dioxane; phases: Liquid
Property: Viscosity, Pa*s (Liquid); method: Capillary tube (Ostwald; Ubbelohde) method
Temperature, K	Pressure, kPa	Viscosity, Pa*s	uncertainty
303.15	101.325	0.00108	4e-05

System: hexane; phases: Liquid
Property: Mass density, kg/m3 (Liquid); method: Pycnometric method
Temperature, K	Pressure, kPa	Mass density, kg/m3	uncertainty
303.15	101.325	652.9	1

System: hexane; phases: Liquid
Property: Speed of sound, m/s (Liquid); method: Linear variable-path acoustic interferometer
Temperature, K	Pressure, kPa	Speed of sound, m/s	uncertainty
303.15	101.325	1051.2	1.9

System: hexane; phases: Liquid
Property: Viscosity, Pa*s (Liquid); method: Capillary tube (Ostwald; Ubbelohde) method
Temperature, K	Pressure, kPa	Viscosity, Pa*s	uncertainty
303.15	101.325	0.00036	4e-05

System: benzylamine + tetrahydrofuran + hexane; phases: Liquid
Fixed: Pressure, kPa = 101
Fixed: Temperature, K = 303.15
Fixed: Frequency, MHz = 2
Property: Speed of sound, m/s (Liquid); method: Linear variable-path acoustic interferometer
Amount concentration (molarity), mol/dm3 of benzylamine	Amount concentration (molarity), mol/dm3 of tetrahydrofuran	Speed of sound, m/s	uncertainty
0.02	0.02	1054.2	1.9
0.04	0.04	1055.8	1.9
0.06	0.06	1056.6	1.9
0.08	0.08	1057.2	1.9
0.1	0.1	1057.8	1.9
0.12	0.12	1055.6	1.9
0.14	0.14	1056.8	1.9
0.16	0.16	1057.4	1.9
0.18	0.18	1060.4	1.9
0.2	0.2	1062.8	1.9

System: benzylamine + tetrahydrofuran + hexane; phases: Liquid
Fixed: Pressure, kPa = 101
Fixed: Temperature, K = 303.15
Property: Mass density, kg/m3 (Liquid); method: Pycnometric method
Amount concentration (molarity), mol/dm3 of benzylamine	Amount concentration (molarity), mol/dm3 of tetrahydrofuran	Mass density, kg/m3	uncertainty
0.02	0.02	651.8	1
0.04	0.04	652.4	1
0.06	0.06	653.8	1
0.08	0.08	655.2	1
0.1	0.1	655.7	1
0.12	0.12	656.5	1
0.14	0.14	658.1	1
0.16	0.16	659.4	1
0.18	0.18	660.1	1
0.2	0.2	661.7	1

System: benzylamine + tetrahydrofuran + hexane; phases: Liquid
Fixed: Pressure, kPa = 101
Fixed: Temperature, K = 303.15
Property: Viscosity, Pa*s (Liquid); method: Capillary tube (Ostwald; Ubbelohde) method
Amount concentration (molarity), mol/dm3 of benzylamine	Amount concentration (molarity), mol/dm3 of tetrahydrofuran	Viscosity, Pa*s	uncertainty
0.02	0.02	0.000323	4e-05
0.04	0.04	0.000324	4e-05
0.06	0.06	0.000326	4e-05
0.08	0.08	0.000327	4e-05
0.1	0.1	0.000331	4e-05
0.12	0.12	0.000333	4e-05
0.14	0.14	0.000333	4e-05
0.16	0.16	0.000335	4e-05
0.18	0.18	0.000335	4e-05
0.2	0.2	0.000337	4e-05

System: benzylamine + 1,4-dioxane + hexane; phases: Liquid
Fixed: Pressure, kPa = 101
Fixed: Temperature, K = 303.15
Fixed: Frequency, MHz = 2
Property: Speed of sound, m/s (Liquid); method: Linear variable-path acoustic interferometer
Amount concentration (molarity), mol/dm3 of benzylamine	Amount concentration (molarity), mol/dm3 of 1,4-dioxane	Speed of sound, m/s	uncertainty
0.02	0.02	1055.4	1.9
0.04	0.04	1056.6	1.9
0.06	0.06	1055.4	1.9
0.08	0.08	1056.8	1.9
0.1	0.1	1057.4	1.9
0.12	0.12	1058.8	1.9
0.14	0.14	1060.4	1.9
0.16	0.16	1060.8	1.9
0.18	0.18	1061.6	1.9
0.2	0.2	1062.4	1.9

System: benzylamine + 1,4-dioxane + hexane; phases: Liquid
Fixed: Pressure, kPa = 101
Fixed: Temperature, K = 303.15
Property: Mass density, kg/m3 (Liquid); method: Pycnometric method
Amount concentration (molarity), mol/dm3 of benzylamine	Amount concentration (molarity), mol/dm3 of 1,4-dioxane	Mass density, kg/m3	uncertainty
0.02	0.02	651.7	1
0.04	0.04	653.2	1
0.06	0.06	653.9	1
0.08	0.08	655.1	1
0.1	0.1	656.5	1
0.12	0.12	658	1
0.14	0.14	660	1
0.16	0.16	661	1
0.18	0.18	661.9	1
0.2	0.2	664	1

System: benzylamine + 1,4-dioxane + hexane; phases: Liquid
Fixed: Pressure, kPa = 101
Fixed: Temperature, K = 303.15
Property: Viscosity, Pa*s (Liquid); method: Capillary tube (Ostwald; Ubbelohde) method
Amount concentration (molarity), mol/dm3 of benzylamine	Amount concentration (molarity), mol/dm3 of 1,4-dioxane	Viscosity, Pa*s	uncertainty
0.02	0.02	0.000316	4e-05
0.04	0.04	0.000317	4e-05
0.06	0.06	0.000319	4e-05
0.08	0.08	0.00032	4e-05
0.1	0.1	0.000321	4e-05
0.12	0.12	0.000321	4e-05
0.14	0.14	0.000323	4e-05
0.16	0.16	0.000323	4e-05
0.18	0.18	0.000325	4e-05
0.2	0.2	0.000328	4e-05
