Measured thermophysical data. Effects of association with impurities in ammonia purification
Source: Fluid Phase Equilib., 2015, 10.1016/j.fluid.2015.07.034
Compound 1: ammonia, H3N, InChI=1S/H3N/h1H3, purity 99.99995%
Compound 2: nitrogen, N2, InChI=1S/N2/c1-2, purity 99.9999%
Compound 3: oxygen, O2, InChI=1S/O2/c1-2, purity 99.9999%
Compound 4: carbon monoxide, CO, InChI=1S/CO/c1-2, purity 99.9999%
Compound 5: methane, CH4, InChI=1S/CH4/h1H4, purity 99.9999%
Compound 6: ethane, C2H6, InChI=1S/C2H6/c1-2/h1-2H3, purity 99.9999%
Compound 7: propane, C3H8, InChI=1S/C3H8/c1-3-2/h3H2,1-2H3, purity 99.9999%
Compound 8: butane, C4H10, InChI=1S/C4H10/c1-3-4-2/h3-4H2,1-2H3, purity 99.9999%
Compound 9: 2-methylpropane, C4H10, InChI=1S/C4H10/c1-4(2)3/h4H,1-3H3, purity 99.9999%
Compound 10: propene, C3H6, InChI=1S/C3H6/c1-3-2/h3H,1H2,2H3, purity 99.9999%

System: ammonia + nitrogen; phases: Gas, Liquid
Fixed: Temperature, K = 293
Property: Mole fraction of nitrogen (Gas); method: Chromatography
Mole fraction of nitrogen	Mole fraction of nitrogen	uncertainty
9e-07	1.78e-05	1.78e-05
1.2e-06	2.78e-05	2.61e-05
2.3e-06	7.76e-05	7.76e-05
3.5e-06	0.0008621	0.0003891
4e-06	0.0011779	0.0003791
1.69e-05	0.0141893	0.0006194

System: ammonia + oxygen; phases: Gas, Liquid
Fixed: Temperature, K = 293
Property: Mole fraction of oxygen (Gas); method: Chromatography
Mole fraction of oxygen	Mole fraction of oxygen	uncertainty
7e-07	2.5e-06	2.5e-06
1.1e-06	5.4e-06	5.4e-06
2.1e-06	0.0003269	0.0001867
2.8e-06	0.0005331	0.0001566
4.1e-06	0.0008529	0.0001478

System: methane + ammonia; phases: Gas, Liquid
Fixed: Temperature, K = 293
Property: Mole fraction of methane (Gas); method: Chromatography
Mole fraction of methane	Mole fraction of methane	uncertainty
9e-07	0.000276	0.00015
2.8e-06	0.000752	0.00013
4.5e-06	0.0010542	0.0001339
5.8e-06	0.001427	0.000173
3.95e-05	0.0067688	0.0001167
7.46e-05	0.012697	0.000142
0.0001953	0.0277047	0.0002681

System: ethane + ammonia; phases: Gas, Liquid
Fixed: Temperature, K = 293
Property: Mole fraction of ethane (Gas); method: Chromatography
Mole fraction of ethane	Mole fraction of ethane	uncertainty
6e-07	5.19e-05	4.9e-05
3.3e-06	0.0002722	5e-05
7.6e-06	0.000634	4.7e-05
1.39e-05	0.0010943	4.51e-05
2.26e-05	0.0017333	4.69e-05

System: propane + ammonia; phases: Gas, Liquid
Fixed: Temperature, K = 293
Property: Mole fraction of propane (Gas); method: Chromatography
Mole fraction of propane	Mole fraction of propane	uncertainty
1.3e-06	4.87e-05	1.54e-05
2.8e-06	8.71e-05	1.54e-05
9.9e-06	0.0003264	2e-05
2.09e-05	0.0006852	2.06e-05

System: butane + ammonia; phases: Gas, Liquid
Fixed: Temperature, K = 293
Property: Mole fraction of butane (Gas); method: Chromatography
Mole fraction of butane	Mole fraction of butane	uncertainty
5.1e-06	7.37e-05	9.2e-06
1.78e-05	0.0002676	9.7e-06
2.49e-05	0.0003854	9.2e-06
3.81e-05	0.0005575	9.4e-06
0.0003743	0.0041547	3.91e-05
0.0006432	0.006443	6e-05
0.0011647	0.0091535	8.51e-05

System: 2-methylpropane + ammonia; phases: Gas, Liquid
Fixed: Temperature, K = 293
Property: Mole fraction of 2-methylpropane (Gas); method: Chromatography
Mole fraction of 2-methylpropane	Mole fraction of 2-methylpropane	uncertainty
1.9e-06	4.42e-05	1.32e-05
8.8e-06	0.0001956	1.27e-05
2.07e-05	0.0004382	1.22e-05
3.71e-05	0.0007413	1.39e-05
6.14e-05	0.0012513	1.71e-05

System: propene + ammonia; phases: Gas, Liquid
Fixed: Temperature, K = 293
Property: Mole fraction of propene (Gas); method: Chromatography
Mole fraction of propene	Mole fraction of propene	uncertainty
2.2e-06	3.51e-05	9.4e-06
9.9e-06	0.0001556	9.2e-06
2.35e-05	0.0003573	9.2e-06
4.18e-05	0.0006143	1.02e-05
6.63e-05	0.0009633	1.24e-05

System: carbon monoxide + ammonia; phases: Gas, Liquid
Fixed: Temperature, K = 293
Property: Mole fraction of carbon monoxide (Gas); method: Chromatography
Mole fraction of carbon monoxide	Mole fraction of carbon monoxide	uncertainty
1.8e-06	0.0008071	0.0003356
3.3e-06	0.001646	0.000506
4.9e-06	0.0026201	0.0007432
4.5e-06	0.0031153	0.0004515
1.08e-05	0.0086555	0.0006299
1.64e-05	0.0145964	0.0010101
2.02e-05	0.0248003	0.0016276
