Measured thermophysical data. Evaluation of 1-ethyl-3-methylimidazolium methylsulfate and 1,3-dimethylimidazolium methylsulfate as solvents for extraction of alkylbenzenes from hexadecane at 313 and 333 K
Source: Fluid Phase Equilib., 2017, 10.1016/j.fluid.2017.09.011
Compound 1: hexadecane, C16H34, InChI=1S/C16H34/c1-3-5-7-9-11-13-15-16-14-12-10-8-6-4-2/h3-16H2,1-2H3, purity 99.3%
Compound 2: propylbenzene, C9H12, InChI=1S/C9H12/c1-2-6-9-7-4-3-5-8-9/h3-5,7-8H,2,6H2,1H3, purity 99%
Compound 3: 1-ethyl-3-methylimidazolium methylsulfate, C7H14N2O4S, InChI=1S/C6H11N2.CH4O4S/c1-3-8-5-4-7(2)6-8;1-5-6(2,3)4/h4-6H,3H2,1-2H3;1H3,(H,2,3,4)/q+1;/p-1, purity 99%
Compound 4: butylbenzene, C10H14, InChI=1S/C10H14/c1-2-3-7-10-8-5-4-6-9-10/h4-6,8-9H,2-3,7H2,1H3, purity 99.3%
Compound 5: 1,3,5-trimethylbenzene, C9H12, InChI=1S/C9H12/c1-7-4-8(2)6-9(3)5-7/h4-6H,1-3H3, purity 99.5%
Compound 6: 1,3-dimethylimidazolium methylsulfate, C6H12N2O4S, InChI=1S/C5H9N2.CH4O4S/c1-6-3-4-7(2)5-6;1-5-6(2,3)4/h3-5H,1-2H3;1H3,(H,2,3,4)/q+1;/p-1, purity 99%

System: hexadecane + propylbenzene + 1-ethyl-3-methylimidazolium methylsulfate; phases: Liquid mixture 2, Liquid mixture 1
Fixed: Pressure, kPa = 101.3
Property: Mole fraction of hexadecane (Liquid mixture 2); method: Chromatography
Property: Mole fraction of hexadecane (Liquid mixture 1); method: Chromatography
Property: Mole fraction of propylbenzene (Liquid mixture 1); method: Chromatography
Temperature, K	Mole fraction of propylbenzene	Mole fraction of hexadecane	uncertainty	Mole fraction of hexadecane	uncertainty	Mole fraction of propylbenzene	uncertainty
313	0	0.001	0.001	1		0	
313	0.748	0.006	0.002	0.07	0.003	0.93	
313	0.812	0		0		0.994	
313	0.041	0.001	0.001	0.861	0.003	0.139	
333	0	0.002	0.002	1		0	
333	0.047	0.002	0.002	0.866	0.003	0.134	
333	0.089	0.002	0.002	0.763	0.003	0.237	
333	0.129	0.002	0.002	0.683	0.004	0.317	
333	0.166	0.003	0.002	0.619	0.004	0.381	
333	0.202	0.003	0.002	0.566	0.004	0.434	
333	0.236	0.003	0.002	0.522	0.004	0.478	
313	0.291	0.004	0.002	0.411	0.004	0.589	
333	0.26	0.004	0.002	0.481	0.004	0.519	
333	0.287	0.004	0.002	0.448	0.004	0.552	
333	0.311	0.004	0.002	0.419	0.004	0.581	
313	0.081	0.002	0.002	0.757	0.003	0.243	
333	0.332	0.005	0.002	0.392	0.004	0.608	
333	0.359	0.005	0.002	0.372	0.004	0.628	
333	0.405	0.006	0.002	0.314	0.004	0.686	
333	0.474	0.006	0.002	0.264	0.003	0.736	
333	0.556	0.006	0.002	0.197	0.003	0.804	
333	0.629	0.006	0.002	0.144	0.003	0.856	
313	0.312	0.004	0.002	0.385	0.004	0.615	
333	0.714	0.007	0.002	0.1	0.003	0.901	
333	0.783	0.007	0.002	0.073	0.003	0.927	
333	0.846	0		0		0.99	
313	0.117	0.002	0.002	0.675	0.004	0.325	
313	0.152	0.002	0.002	0.61	0.004	0.39	
313	0.186	0.002	0.002	0.558	0.004	0.443	
313	0.217	0.003	0.002	0.513	0.005	0.487	
313	0.242	0.003	0.002	0.473	0.004	0.527	
313	0.267	0.003	0.002	0.44	0.004	0.56	
313	0.336	0.004	0.002	0.364	0.004	0.636	
313	0.382	0.005	0.002	0.307	0.004	0.693	
313	0.45	0.005	0.002	0.258	0.003	0.742	
313	0.529	0.005	0.002	0.191	0.003	0.809	
313	0.598	0.005	0.002	0.14	0.003	0.86	
313	0.681	0.006	0.002	0.095	0.003	0.905	

System: hexadecane + butylbenzene + 1-ethyl-3-methylimidazolium methylsulfate; phases: Liquid mixture 2, Liquid mixture 1
Fixed: Pressure, kPa = 101.3
Property: Mole fraction of hexadecane (Liquid mixture 2); method: Chromatography
Property: Mole fraction of butylbenzene (Liquid mixture 1); method: Chromatography
Property: Mole fraction of hexadecane (Liquid mixture 1); method: Chromatography
Temperature, K	Mole fraction of butylbenzene	Mole fraction of hexadecane	uncertainty	Mole fraction of butylbenzene	uncertainty	Mole fraction of hexadecane	uncertainty
313	0	0.002	0.002	0		1	
313	0.033	0.002	0.002	0.13	0.003	0.87	
313	0.0643	0.002	0.002	0.231	0.003	0.769	
313	0.0945	0.002	0.002	0.31	0.004	0.69	
313	0.1247	0.003	0.002	0.373	0.004	0.627	
313	0.1537	0.003	0.002	0.425	0.004	0.575	
313	0.1792	0.003	0.002	0.47	0.004	0.53	
313	0.2003	0.003	0.002	0.51	0.005	0.49	
313	0.2234	0.004	0.002	0.543	0.004	0.457	
313	0.246	0.004	0.002	0.572	0.004	0.428	
313	0.265	0.004	0.002	0.598	0.004	0.402	
313	0.288	0.005	0.002	0.619	0.004	0.381	
313	0.328	0.005	0.002	0.678	0.004	0.322	
313	0.394	0.006	0.002	0.729	0.003	0.272	
313	0.468	0.006	0.002	0.798	0.003	0.202	
313	0.539	0.007	0.002	0.852	0.003	0.148	
313	0.62	0.008	0.002	0.899	0.003	0.101	
313	0.68	0.008	0.002	0.927	0.003	0.074	
313	0.744	0		0.997	0.002	0	
333	0	0.002	0.002	0		1	
333	0.038	0.002	0.002	0.126	0.003	0.874	
333	0.072	0.002	0.002	0.225	0.003	0.775	
333	0.107	0.003	0.002	0.302	0.004	0.698	
333	0.137	0.003	0.002	0.366	0.004	0.634	
333	0.17	0.003	0.002	0.417	0.004	0.583	
333	0.196	0.004	0.002	0.462	0.004	0.538	
333	0.218	0.004	0.002	0.503	0.005	0.497	
333	0.241	0.004	0.002	0.536	0.004	0.464	
333	0.267	0.005	0.002	0.564	0.004	0.436	
333	0.286	0.005	0.002	0.591	0.004	0.41	
333	0.31	0.005	0.002	0.612	0.004	0.388	
333	0.349	0.006	0.002	0.672	0.004	0.328	
333	0.417	0.007	0.002	0.723	0.003	0.277	
333	0.496	0.008	0.002	0.794	0.003	0.206	
333	0.571	0.009	0.002	0.848	0.003	0.152	
333	0.656	0.011	0.002	0.896	0.003	0.104	
333	0.724	0.012	0.002	0.925	0.003	0.076	
333	0.788	0		0.995	0.002	0	

System: hexadecane + 1,3,5-trimethylbenzene + 1-ethyl-3-methylimidazolium methylsulfate; phases: Liquid mixture 2, Liquid mixture 1
Fixed: Pressure, kPa = 101.3
Property: Mole fraction of hexadecane (Liquid mixture 2); method: Chromatography
Property: Mole fraction of 1,3,5-trimethylbenzene (Liquid mixture 1); method: Chromatography
Property: Mole fraction of hexadecane (Liquid mixture 1); method: Chromatography
Temperature, K	Mole fraction of 1,3,5-trimethylbenzene	Mole fraction of hexadecane	uncertainty	Mole fraction of 1,3,5-trimethylbenzene	uncertainty	Mole fraction of hexadecane	uncertainty
313	0	0.001	0.001	0		1	
313	0.049	0.001	0.001	0.132	0.003	0.868	
313	0.094	0.001	0.001	0.233	0.003	0.767	
313	0.137	0.001	0.001	0.312	0.004	0.688	
313	0.178	0.002	0.002	0.375	0.004	0.625	
313	0.212	0.002	0.002	0.429	0.004	0.571	
313	0.243	0.002	0.002	0.475	0.004	0.525	
313	0.272	0.003	0.002	0.513	0.004	0.487	
313	0.296	0.003	0.002	0.548	0.004	0.452	
313	0.32	0.003	0.002	0.578	0.004	0.422	
313	0.345	0.003	0.002	0.603	0.004	0.397	
313	0.367	0.006	0.002	0.626	0.004	0.375	
313	0.423	0.004	0.002	0.681	0.004	0.319	
313	0.487	0.004	0.002	0.732	0.003	0.268	
313	0.566	0.004	0.002	0.801	0.003	0.199	
313	0.644	0.004	0.002	0.853	0.003	0.147	
313	0.731	0.004	0.002	0.898	0.003	0.102	
313	0.777	0.004	0.002	0.927	0.003	0.073	
313	0.838	0		0.992	0.002	0	
333	0	0.003	0.002	0		1	
333	0.054	0.001	0.001	0.128	0.003	0.872	
333	0.102	0.002	0.002	0.227	0.003	0.773	
333	0.148	0.002	0.002	0.304	0.004	0.696	
333	0.191	0.002	0.002	0.366	0.004	0.634	
333	0.228	0.003	0.002	0.42	0.004	0.581	
333	0.261	0.003	0.002	0.465	0.004	0.535	
333	0.29	0.003	0.002	0.504	0.005	0.496	
333	0.317	0.003	0.002	0.538	0.004	0.462	
333	0.341	0.004	0.002	0.568	0.004	0.432	
333	0.364	0.004	0.002	0.594	0.004	0.406	
333	0.389	0.004	0.002	0.616	0.004	0.384	
333	0.447	0.004	0.002	0.672	0.004	0.328	
333	0.515	0.005	0.002	0.723	0.003	0.277	
333	0.592	0.005	0.002	0.795	0.003	0.205	
333	0.673	0.006	0.002	0.847	0.003	0.153	
333	0.768	0.006	0.002	0.891	0.003	0.109	
333	0.817	0.006	0.002	0.921	0.003	0.079	
333	0.881	0		0.985	0.002	0	

System: hexadecane + propylbenzene + 1,3-dimethylimidazolium methylsulfate; phases: Liquid mixture 2, Liquid mixture 1
Fixed: Pressure, kPa = 101.3
Property: Mole fraction of hexadecane (Liquid mixture 2); method: Chromatography
Property: Mole fraction of propylbenzene (Liquid mixture 1); method: Chromatography
Property: Mole fraction of hexadecane (Liquid mixture 1); method: Chromatography
Temperature, K	Mole fraction of propylbenzene	Mole fraction of hexadecane	uncertainty	Mole fraction of propylbenzene	uncertainty	Mole fraction of hexadecane	uncertainty
313	0	0.001	0.001	0		1	
313	0.036	0.001	0.001	0.141	0.003	0.859	
313	0.071	0.001	0.001	0.245	0.003	0.755	
313	0.102	0.002	0.002	0.328	0.004	0.672	
313	0.135	0.002	0.002	0.392	0.004	0.608	
313	0.168	0.002	0.002	0.444	0.004	0.556	
313	0.195	0.003	0.002	0.49	0.005	0.51	
313	0.219	0.003	0.002	0.529	0.004	0.471	
313	0.245	0.003	0.002	0.561	0.004	0.439	
313	0.268	0.003	0.002	0.59	0.004	0.41	
313	0.28	0.004	0.002	0.618	0.004	0.382	
313	0.304	0.004	0.002	0.639	0.004	0.361	
313	0.356	0.004	0.002	0.694	0.004	0.307	
313	0.411	0.005	0.002	0.746	0.003	0.254	
313	0.508	0.005	0.002	0.808	0.003	0.192	
313	0.579	0.006	0.002	0.86	0.003	0.14	
313	0.655	0.006	0.002	0.905	0.003	0.095	
313	0.713	0.007	0.002	0.931	0.003	0.069	
313	0.773	0		0.997	0.002	0	
333	0	0.002	0.002	0		1	
333	0.04	0.001	0.001	0.137	0.003	0.863	
333	0.079	0.002	0.002	0.239	0.003	0.761	
333	0.115	0.002	0.002	0.319	0.004	0.681	
333	0.149	0.003	0.002	0.384	0.004	0.616	
333	0.183	0.003	0.002	0.436	0.004	0.564	
333	0.214	0.003	0.002	0.48	0.004	0.52	
333	0.237	0.003	0.002	0.521	0.004	0.48	
333	0.264	0.004	0.002	0.553	0.004	0.447	
333	0.286	0.004	0.002	0.583	0.004	0.418	
333	0.304	0.004	0.002	0.61	0.004	0.39	
333	0.324	0.004	0.002	0.633	0.004	0.368	
333	0.379	0.005	0.002	0.687	0.004	0.313	
333	0.44	0.006	0.002	0.739	0.003	0.261	
333	0.531	0.007	0.002	0.804	0.003	0.196	
333	0.606	0.008	0.002	0.856	0.003	0.144	
333	0.686	0.009	0.002	0.903	0.003	0.097	
333	0.749	0.01	0.002	0.929	0.003	0.071	
333	0.808	0		0.995	0.002	0	

System: hexadecane + butylbenzene + 1,3-dimethylimidazolium methylsulfate; phases: Liquid mixture 2, Liquid mixture 1
Fixed: Pressure, kPa = 101.3
Property: Mole fraction of hexadecane (Liquid mixture 2); method: Chromatography
Property: Mole fraction of butylbenzene (Liquid mixture 1); method: Chromatography
Property: Mole fraction of hexadecane (Liquid mixture 1); method: Chromatography
Temperature, K	Mole fraction of butylbenzene	Mole fraction of hexadecane	uncertainty	Mole fraction of butylbenzene	uncertainty	Mole fraction of hexadecane	uncertainty
313	0	0.002	0.002	0		1	
313	0.029	0.001	0.001	0.132	0.003	0.868	
313	0.057	0.002	0.002	0.232	0.003	0.768	
313	0.083	0.002	0.002	0.312	0.004	0.688	
313	0.111	0.002	0.002	0.375	0.004	0.625	
313	0.135	0.002	0.002	0.429	0.004	0.571	
313	0.157	0.003	0.002	0.474	0.004	0.526	
313	0.178	0.003	0.002	0.513	0.005	0.487	
313	0.203	0.003	0.002	0.545	0.004	0.456	
313	0.217	0.004	0.002	0.576	0.004	0.424	
313	0.236	0.004	0.002	0.601	0.004	0.399	
313	0.255	0.004	0.002	0.624	0.004	0.377	
313	0.302	0.005	0.002	0.679	0.004	0.321	
313	0.353	0.005	0.002	0.732	0.003	0.268	
313	0.429	0.006	0.002	0.8	0.003	0.2	
313	0.499	0.007	0.002	0.853	0.003	0.147	
313	0.571	0.007	0.002	0.901	0.003	0.1	
313	0.627	0.008	0.002	0.928	0.003	0.072	
313	0.688	0		0.999	0.001	0	
333	0	0.002	0.002	0		1	
333	0.033	0.002	0.002	0.128	0.003	0.872	
333	0.064	0.002	0.002	0.226	0.003	0.774	
333	0.095	0.002	0.002	0.304	0.004	0.697	
333	0.124	0.003	0.002	0.367	0.004	0.633	
333	0.151	0.003	0.002	0.42	0.004	0.581	
333	0.176	0.003	0.002	0.465	0.004	0.535	
333	0.197	0.004	0.002	0.505	0.005	0.496	
333	0.222	0.004	0.002	0.536	0.004	0.464	
333	0.24	0.004	0.002	0.567	0.004	0.433	
333	0.257	0.005	0.002	0.594	0.004	0.406	
333	0.276	0.005	0.002	0.617	0.004	0.384	
333	0.325	0.006	0.002	0.673	0.004	0.327	
333	0.379	0.007	0.002	0.727	0.003	0.273	
333	0.455	0.008	0.002	0.797	0.003	0.204	
333	0.527	0.008	0.002	0.85	0.003	0.15	
333	0.602	0.01	0.002	0.899	0.003	0.101	
333	0.66	0.012	0.002	0.927	0.003	0.073	
333	0.723	0		0.999	0.001	0	

System: hexadecane + 1,3,5-trimethylbenzene + 1,3-dimethylimidazolium methylsulfate; phases: Liquid mixture 2, Liquid mixture 1
Fixed: Pressure, kPa = 101.3
Property: Mole fraction of hexadecane (Liquid mixture 2); method: Chromatography
Property: Mole fraction of 1,3,5-trimethylbenzene (Liquid mixture 1); method: Chromatography
Property: Mole fraction of hexadecane (Liquid mixture 1); method: Chromatography
Temperature, K	Mole fraction of 1,3,5-trimethylbenzene	Mole fraction of hexadecane	uncertainty	Mole fraction of 1,3,5-trimethylbenzene	uncertainty	Mole fraction of hexadecane	uncertainty
313	0	0.002	0.002	0		1	
313	0.042	0.001	0.001	0.135	0.003	0.865	
313	0.082	0.001	0.001	0.237	0.003	0.763	
313	0.117	0.001	0.001	0.318	0.004	0.682	
313	0.149	0.002	0.002	0.384	0.004	0.616	
313	0.183	0.002	0.002	0.437	0.004	0.564	
313	0.213	0.002	0.002	0.481	0.004	0.519	
313	0.245	0.002	0.002	0.517	0.004	0.483	
313	0.266	0.002	0.002	0.553	0.004	0.447	
313	0.284	0.003	0.002	0.584	0.004	0.416	
313	0.304	0.003	0.002	0.61	0.004	0.39	
313	0.323	0.003	0.002	0.633	0.004	0.367	
313	0.376	0.003	0.002	0.688	0.004	0.312	
313	0.44	0.003	0.002	0.738	0.003	0.262	
313	0.534	0.004	0.002	0.803	0.003	0.197	
313	0.614	0.004	0.002	0.854	0.003	0.146	
313	0.685	0.004	0.002	0.902	0.003	0.098	
313	0.75	0.004	0.002	0.928	0.003	0.072	
313	0.806	0		0.994	0.002	0	
333	0	0.003	0.002	0		1	
333	0.045	0.001	0.001	0.132	0.003	0.868	
333	0.089	0.001	0.001	0.231	0.003	0.769	
333	0.128	0.002	0.002	0.31	0.004	0.69	
333	0.162	0.002	0.002	0.376	0.004	0.624	
333	0.199	0.002	0.002	0.427	0.004	0.573	
333	0.23	0.002	0.002	0.472	0.004	0.528	
333	0.263	0.003	0.002	0.507	0.005	0.493	
333	0.287	0.003	0.002	0.542	0.004	0.458	
333	0.306	0.003	0.002	0.574	0.004	0.426	
333	0.324	0.003	0.002	0.602	0.004	0.398	
333	0.344	0.003	0.002	0.625	0.004	0.375	
333	0.403	0.004	0.002	0.679	0.004	0.321	
333	0.47	0.004	0.002	0.73	0.003	0.27	
333	0.56	0.005	0.002	0.797	0.003	0.203	
333	0.647	0.005	0.002	0.848	0.003	0.152	
333	0.726	0.005	0.002	0.896	0.003	0.104	
333	0.792	0.006	0.002	0.923	0.003	0.077	
333	0.856	0		0.987	0.002	0	

System: hexadecane + 1-ethyl-3-methylimidazolium methylsulfate; phases: Liquid mixture 2, Liquid mixture 1
Fixed: Pressure, kPa = 101.3
Property: Mole fraction of hexadecane (Liquid mixture 2); method: Chromatography
Temperature, K	Mole fraction of hexadecane	uncertainty
313	0.001	0.001
333	0.002	0.002
313	0.002	0.002
333	0.003	0.002

System: propylbenzene + 1-ethyl-3-methylimidazolium methylsulfate; phases: Liquid mixture 2, Liquid mixture 1
Fixed: Pressure, kPa = 101.3
Property: Mole fraction of propylbenzene (Liquid mixture 2); method: Chromatography
Temperature, K	Mole fraction of propylbenzene	uncertainty
333	0.846	
313	0.812	

System: propylbenzene + 1-ethyl-3-methylimidazolium methylsulfate; phases: Liquid mixture 1, Liquid mixture 2
Fixed: Pressure, kPa = 101.3
Property: Mole fraction of propylbenzene (Liquid mixture 1); method: Chromatography
Temperature, K	Mole fraction of propylbenzene	uncertainty
333	0.99	
313	0.994	

System: butylbenzene + 1-ethyl-3-methylimidazolium methylsulfate; phases: Liquid mixture 2, Liquid mixture 1
Fixed: Pressure, kPa = 101.3
Property: Mole fraction of butylbenzene (Liquid mixture 2); method: Chromatography
Temperature, K	Mole fraction of butylbenzene	uncertainty
313	0.744	
333	0.788	

System: butylbenzene + 1-ethyl-3-methylimidazolium methylsulfate; phases: Liquid mixture 1, Liquid mixture 2
Fixed: Pressure, kPa = 101.3
Property: Mole fraction of butylbenzene (Liquid mixture 1); method: Chromatography
Temperature, K	Mole fraction of butylbenzene	uncertainty
313	0.997	0.002
333	0.995	0.002

System: 1,3,5-trimethylbenzene + 1-ethyl-3-methylimidazolium methylsulfate; phases: Liquid mixture 2, Liquid mixture 1
Fixed: Pressure, kPa = 101.3
Property: Mole fraction of 1,3,5-trimethylbenzene (Liquid mixture 2); method: Chromatography
Temperature, K	Mole fraction of 1,3,5-trimethylbenzene	uncertainty
313	0.838	
333	0.881	

System: 1,3,5-trimethylbenzene + 1-ethyl-3-methylimidazolium methylsulfate; phases: Liquid mixture 1, Liquid mixture 2
Fixed: Pressure, kPa = 101.3
Property: Mole fraction of 1,3,5-trimethylbenzene (Liquid mixture 1); method: Chromatography
Temperature, K	Mole fraction of 1,3,5-trimethylbenzene	uncertainty
313	0.992	0.002
333	0.985	0.002

System: hexadecane + 1,3-dimethylimidazolium methylsulfate; phases: Liquid mixture 2, Liquid mixture 1
Fixed: Pressure, kPa = 101.3
Property: Mole fraction of hexadecane (Liquid mixture 2); method: Chromatography
Temperature, K	Mole fraction of hexadecane	uncertainty
313	0.001	0.001
333	0.002	0.002
313	0.002	0.002
333	0.003	0.002

System: propylbenzene + 1,3-dimethylimidazolium methylsulfate; phases: Liquid mixture 2, Liquid mixture 1
Fixed: Pressure, kPa = 101.3
Property: Mole fraction of propylbenzene (Liquid mixture 2); method: Chromatography
Temperature, K	Mole fraction of propylbenzene	uncertainty
313	0.773	
333	0.808	

System: propylbenzene + 1,3-dimethylimidazolium methylsulfate; phases: Liquid mixture 1, Liquid mixture 2
Fixed: Pressure, kPa = 101.3
Property: Mole fraction of propylbenzene (Liquid mixture 1); method: Chromatography
Temperature, K	Mole fraction of propylbenzene	uncertainty
313	0.997	0.002
333	0.995	0.002

System: butylbenzene + 1,3-dimethylimidazolium methylsulfate; phases: Liquid mixture 2, Liquid mixture 1
Fixed: Pressure, kPa = 101.3
Property: Mole fraction of butylbenzene (Liquid mixture 2); method: Chromatography
Temperature, K	Mole fraction of butylbenzene	uncertainty
313	0.688	
333	0.723	

System: butylbenzene + 1,3-dimethylimidazolium methylsulfate; phases: Liquid mixture 1, Liquid mixture 2
Fixed: Pressure, kPa = 101.3
Property: Mole fraction of butylbenzene (Liquid mixture 1); method: Chromatography
Temperature, K	Mole fraction of butylbenzene	uncertainty
313	0.999	0.001
333	0.999	0.001

System: 1,3,5-trimethylbenzene + 1,3-dimethylimidazolium methylsulfate; phases: Liquid mixture 2, Liquid mixture 1
Fixed: Pressure, kPa = 101.3
Property: Mole fraction of 1,3,5-trimethylbenzene (Liquid mixture 2); method: Chromatography
Temperature, K	Mole fraction of 1,3,5-trimethylbenzene	uncertainty
313	0.806	
333	0.856	

System: 1,3,5-trimethylbenzene + 1,3-dimethylimidazolium methylsulfate; phases: Liquid mixture 1, Liquid mixture 2
Fixed: Pressure, kPa = 101.3
Property: Mole fraction of 1,3,5-trimethylbenzene (Liquid mixture 1); method: Chromatography
Temperature, K	Mole fraction of 1,3,5-trimethylbenzene	uncertainty
313	0.994	0.002
333	0.987	0.002
