Measured thermophysical data. Excess molar volumes and excess molar enthalpies of the binary mixtures of 1,2-dichloropropane with di- and triethylene glycol mono-alkyl ethers at T=298.15K
Source: Fluid Phase Equilib., 2009, 10.1016/j.fluid.2009.06.018
Compound 1: 1,2-dichloropropane, C3H6Cl2, InChI=1S/C3H6Cl2/c1-3(5)2-4/h3H,2H2,1H3, purity 99%
Compound 2: 2-(2-propoxyethoxy)ethanol, C7H16O3, InChI=1S/C7H16O3/c1-2-4-9-6-7-10-5-3-8/h8H,2-7H2,1H3, purity 98%
Compound 3: 3,6-dioxa-1-decanol, C8H18O3, InChI=1S/C8H18O3/c1-2-3-5-10-7-8-11-6-4-9/h9H,2-8H2,1H3, purity 98%
Compound 4: 2-[2-(2-methoxyethoxy)ethoxy]ethanol, C7H16O4, InChI=1S/C7H16O4/c1-9-4-5-11-7-6-10-3-2-8/h8H,2-7H2,1H3, purity 97%
Compound 5: 2-(2-(2-ethoxyethoxy)ethoxy)ethanol, C8H18O4, InChI=1S/C8H18O4/c1-2-10-5-6-12-8-7-11-4-3-9/h9H,2-8H2,1H3, purity 90%
Compound 6: triethylene glycol monobutyl ether, C10H22O4, InChI=1S/C10H22O4/c1-2-3-5-12-7-9-14-10-8-13-6-4-11/h11H,2-10H2,1H3, purity 70%

System: 1,2-dichloropropane; phases: Liquid
Property: Refractive index (Na D-line) (Liquid); method: Standard Abbe refractometry
Temperature, K	Pressure, kPa	Refractive index (Na D-line)	uncertainty
298.15	101.325	1.43656	0.0007

System: 1,2-dichloropropane; phases: Liquid
Property: Mass density, kg/m3 (Liquid); method: Vibrating tube method
Temperature, K	Pressure, kPa	Mass density, kg/m3	uncertainty
298.15	101.325	1149.03	0.36

System: 2-(2-propoxyethoxy)ethanol; phases: Liquid
Property: Refractive index (Na D-line) (Liquid); method: Standard Abbe refractometry
Temperature, K	Pressure, kPa	Refractive index (Na D-line)	uncertainty
298.15	101.325	1.42727	0.00078

System: 2-(2-propoxyethoxy)ethanol; phases: Liquid
Property: Mass density, kg/m3 (Liquid); method: Vibrating tube method
Temperature, K	Pressure, kPa	Mass density, kg/m3	uncertainty
298.15	101.325	962.74	0.8

System: 3,6-dioxa-1-decanol; phases: Liquid
Property: Refractive index (Na D-line) (Liquid); method: Standard Abbe refractometry
Temperature, K	Pressure, kPa	Refractive index (Na D-line)	uncertainty
298.15	101.325	1.42998	0.00078

System: 3,6-dioxa-1-decanol; phases: Liquid
Property: Mass density, kg/m3 (Liquid); method: Vibrating tube method
Temperature, K	Pressure, kPa	Mass density, kg/m3	uncertainty
298.15	101.325	948.48	0.78

System: 2-[2-(2-methoxyethoxy)ethoxy]ethanol; phases: Liquid
Property: Refractive index (Na D-line) (Liquid); method: Standard Abbe refractometry
Temperature, K	Pressure, kPa	Refractive index (Na D-line)	uncertainty
298.15	101.325	1.43673	0.0009

System: 2-[2-(2-methoxyethoxy)ethoxy]ethanol; phases: Liquid
Property: Mass density, kg/m3 (Liquid); method: Vibrating tube method
Temperature, K	Pressure, kPa	Mass density, kg/m3	uncertainty
298.15	101.325	1043.3	2.07

System: 2-(2-(2-ethoxyethoxy)ethoxy)ethanol; phases: Liquid
Property: Refractive index (Na D-line) (Liquid); method: Standard Abbe refractometry
Temperature, K	Pressure, kPa	Refractive index (Na D-line)	uncertainty
298.15	101.325	1.43623	0.00211

System: 2-(2-(2-ethoxyethoxy)ethoxy)ethanol; phases: Liquid
Property: Mass density, kg/m3 (Liquid); method: Vibrating tube method
Temperature, K	Pressure, kPa	Mass density, kg/m3	uncertainty
298.15	101.325	1016.19	24.73

System: triethylene glycol monobutyl ether; phases: Liquid
Property: Refractive index (Na D-line) (Liquid); method: Standard Abbe refractometry
Temperature, K	Pressure, kPa	Refractive index (Na D-line)	uncertainty
298.15	101.325	1.43973	0.00604

System: triethylene glycol monobutyl ether; phases: Liquid
Property: Mass density, kg/m3 (Liquid); method: Vibrating tube method
Temperature, K	Pressure, kPa	Mass density, kg/m3	uncertainty
298.15	101.325	988.44	347.54

System: 1,2-dichloropropane + 2-(2-propoxyethoxy)ethanol; phases: Liquid
Fixed: Temperature, K = 298.15
Fixed: Pressure, kPa = 101
Property: Excess molar enthalpy (molar enthalpy of mixing), kJ/mol (Liquid); method: Flow calorimetry
Mole fraction of 1,2-dichloropropane	Excess molar enthalpy (molar enthalpy of mixing), kJ/mol	uncertainty
0.06	-0.1469	0.0044
0.119	-0.2506	0.0047
0.147	-0.2966	0.0045
0.202	-0.3743	0.0046
0.255	-0.429	0.0046
0.306	-0.4673	0.0046
0.355	-0.4855	0.0046
0.402	-0.4906	0.0046
0.447	-0.4823	0.0046
0.511	-0.4492	0.0046
0.552	-0.4136	0.0045
0.592	-0.3755	0.0045
0.648	-0.3082	0.0043
0.702	-0.2346	0.0042
0.753	-0.1621	0.0039
0.802	-0.0941	0.0037
0.848	-0.0302	0.0032
0.907	0.026	0.0026
0.948	0.0378	0.0023

System: 1,2-dichloropropane + 2-(2-propoxyethoxy)ethanol; phases: Liquid
Fixed: Temperature, K = 298.15
Fixed: Pressure, kPa = 101
Property: Mass density, kg/m3 (Liquid); method: Vibrating tube method
Mole fraction of 1,2-dichloropropane	Mass density, kg/m3	uncertainty
0.054	969.58	0.76
0.105	976.29	0.73
0.1473	982.03	0.71
0.203	989.81	0.67
0.2494	996.53	0.65
0.3	1004.1	0.62
0.3488	1011.66	0.6
0.4014	1020.11	0.57
0.4516	1028.46	0.55
0.5005	1036.91	0.53
0.5504	1045.89	0.51
0.5995	1055.07	0.49
0.6509	1065.09	0.47
0.7009	1075.28	0.45
0.752	1086.18	0.44
0.8015	1097.29	0.42
0.851	1109.05	0.4
0.9018	1121.84	0.39
0.9476	1134.08	0.37

System: 1,2-dichloropropane + 2-(2-propoxyethoxy)ethanol; phases: Liquid
Fixed: Temperature, K = 298.15
Fixed: Pressure, kPa = 101
Property: Excess molar volume, m3/mol (Liquid); method: Calculated with densities of this investigation
Mole fraction of 1,2-dichloropropane	Excess molar volume, m3/mol	uncertainty
0.054	-4.5e-08	7.9e-09
0.105	-8.52e-08	7.9e-09
0.1473	-1.156e-07	8e-09
0.203	-1.449e-07	8.1e-09
0.2494	-1.64e-07	8.1e-09
0.3	-1.808e-07	8.2e-09
0.3488	-1.904e-07	8.2e-09
0.4014	-1.939e-07	8.2e-09
0.4516	-1.889e-07	8.2e-09
0.5005	-1.785e-07	8.2e-09
0.5504	-1.642e-07	8.1e-09
0.5995	-1.451e-07	8.1e-09
0.6509	-1.189e-07	8e-09
0.7009	-9.16e-08	8e-09
0.752	-6.08e-08	7.9e-09
0.8015	-3.16e-08	7.8e-09
0.851	-9.8e-09	7.8e-09
0.9018	4.4e-09	7.8e-09
0.9476	9.8e-09	7.8e-09

System: 1,2-dichloropropane + 3,6-dioxa-1-decanol; phases: Liquid
Fixed: Temperature, K = 298.15
Fixed: Pressure, kPa = 101
Property: Excess molar enthalpy (molar enthalpy of mixing), kJ/mol (Liquid); method: Flow calorimetry
Mole fraction of 1,2-dichloropropane	Excess molar enthalpy (molar enthalpy of mixing), kJ/mol	uncertainty
0.066	-0.1633	0.0039
0.098	-0.2087	0.0043
0.161	-0.308	0.0048
0.191	-0.36	0.0045
0.248	-0.4114	0.0044
0.303	-0.4491	0.0045
0.355	-0.4689	0.0045
0.404	-0.4729	0.0045
0.45	-0.4621	0.0045
0.495	-0.4405	0.0045
0.558	-0.3916	0.0043
0.598	-0.3566	0.0044
0.654	-0.287	0.0043
0.707	-0.2149	0.0041
0.757	-0.1436	0.0039
0.803	-0.0779	0.0036
0.847	-0.019	0.0031
0.902	0.035	0.0025
0.953	0.0412	0.0023

System: 1,2-dichloropropane + 3,6-dioxa-1-decanol; phases: Liquid
Fixed: Temperature, K = 298.15
Fixed: Pressure, kPa = 101
Property: Mass density, kg/m3 (Liquid); method: Vibrating tube method
Mole fraction of 1,2-dichloropropane	Mass density, kg/m3	uncertainty
0.052	954.88	0.75
0.1	961.07	0.72
0.155	968.38	0.69
0.1997	974.56	0.66
0.2496	981.76	0.63
0.3037	989.93	0.6
0.3497	997.2	0.58
0.4033	1006.02	0.55
0.4504	1014.14	0.53
0.4998	1023.03	0.51
0.5535	1033.23	0.49
0.6001	1042.57	0.48
0.6494	1052.96	0.46
0.7024	1064.78	0.44
0.7527	1076.67	0.43
0.8024	1089.22	0.41
0.8488	1101.75	0.4
0.901	1116.84	0.38
0.9479	1131.48	0.37

System: 1,2-dichloropropane + 3,6-dioxa-1-decanol; phases: Liquid
Fixed: Temperature, K = 298.15
Fixed: Pressure, kPa = 101
Property: Excess molar volume, m3/mol (Liquid); method: Calculated with densities of this investigation
Mole fraction of 1,2-dichloropropane	Excess molar volume, m3/mol	uncertainty
0.052	-4.76e-08	7.9e-09
0.1	-9.34e-08	8e-09
0.155	-1.276e-07	8e-09
0.1997	-1.47e-07	8.1e-09
0.2496	-1.692e-07	8.1e-09
0.3037	-1.879e-07	8.2e-09
0.3497	-1.98e-07	8.2e-09
0.4033	-1.997e-07	8.2e-09
0.4504	-1.958e-07	8.2e-09
0.4998	-1.813e-07	8.2e-09
0.5535	-1.65e-07	8.1e-09
0.6001	-1.478e-07	8.1e-09
0.6494	-1.227e-07	8e-09
0.7024	-9.45e-08	8e-09
0.7527	-6.2e-08	7.9e-09
0.8024	-3.35e-08	7.8e-09
0.8488	-1.68e-08	7.8e-09
0.901	1.7e-09	7.8e-09
0.9479	4.8e-09	7.8e-09

System: 1,2-dichloropropane + 2-[2-(2-methoxyethoxy)ethoxy]ethanol; phases: Liquid
Fixed: Temperature, K = 298.15
Fixed: Pressure, kPa = 101
Property: Excess molar enthalpy (molar enthalpy of mixing), kJ/mol (Liquid); method: Flow calorimetry
Mole fraction of 1,2-dichloropropane	Excess molar enthalpy (molar enthalpy of mixing), kJ/mol	uncertainty
0.061	-0.1796	0.0047
0.091	-0.2362	0.0056
0.15	-0.3815	0.006
0.206	-0.4962	0.006
0.26	-0.586	0.0062
0.311	-0.6589	0.0064
0.36	-0.7083	0.0065
0.407	-0.7422	0.0066
0.452	-0.7579	0.0067
0.496	-0.7588	0.0067
0.558	-0.7358	0.0066
0.597	-0.7037	0.0066
0.654	-0.6383	0.0063
0.707	-0.5547	0.0061
0.757	-0.4638	0.0059
0.805	-0.3663	0.0058
0.851	-0.2632	0.0055
0.908	-0.1371	0.0049
0.949	-0.0603	0.0044

System: 1,2-dichloropropane + 2-[2-(2-methoxyethoxy)ethoxy]ethanol; phases: Liquid
Fixed: Temperature, K = 298.15
Fixed: Pressure, kPa = 101
Property: Mass density, kg/m3 (Liquid); method: Vibrating tube method
Mole fraction of 1,2-dichloropropane	Mass density, kg/m3	uncertainty
0.0554	1047.4	1.93
0.1	1050.82	1.83
0.1507	1054.88	1.71
0.1999	1058.91	1.6
0.2535	1063.43	1.49
0.2977	1067.32	1.4
0.3483	1071.88	1.3
0.401	1076.8	1.2
0.4512	1081.66	1.1
0.5013	1086.65	1.02
0.5522	1091.89	0.93
0.6013	1097.16	0.85
0.648	1102.3	0.78
0.7005	1108.34	0.7
0.7514	1114.4	0.63
0.7997	1120.38	0.57
0.8567	1127.98	0.5
0.8993	1133.84	0.46
0.9502	1141.27	0.4

System: 1,2-dichloropropane + 2-[2-(2-methoxyethoxy)ethoxy]ethanol; phases: Liquid
Fixed: Temperature, K = 298.15
Fixed: Pressure, kPa = 101
Property: Excess molar volume, m3/mol (Liquid); method: Calculated with densities of this investigation
Mole fraction of 1,2-dichloropropane	Excess molar volume, m3/mol	uncertainty
0.0554	-5.38e-08	7.9e-09
0.1	-9.45e-08	8e-09
0.1507	-1.443e-07	8.1e-09
0.1999	-1.835e-07	8.2e-09
0.2535	-2.177e-07	8.3e-09
0.2977	-2.466e-07	8.3e-09
0.3483	-2.7e-07	8.4e-09
0.401	-2.88e-07	8.4e-09
0.4512	-3e-07	8.4e-09
0.5013	-3.016e-07	8.4e-09
0.5522	-2.947e-07	8.4e-09
0.6013	-2.848e-07	8.4e-09
0.648	-2.643e-07	8.4e-09
0.7005	-2.368e-07	8.3e-09
0.7514	-1.996e-07	8.2e-09
0.7997	-1.586e-07	8.1e-09
0.8567	-1.212e-07	8e-09
0.8993	-8.07e-08	7.9e-09
0.9502	-3.68e-08	7.8e-09

System: 1,2-dichloropropane + 2-(2-(2-ethoxyethoxy)ethoxy)ethanol; phases: Liquid
Fixed: Temperature, K = 298.15
Fixed: Pressure, kPa = 101
Property: Excess molar enthalpy (molar enthalpy of mixing), kJ/mol (Liquid); method: Flow calorimetry
Mole fraction of 1,2-dichloropropane	Excess molar enthalpy (molar enthalpy of mixing), kJ/mol	uncertainty
0.067	-0.2117	0.0049
0.101	-0.275	0.0058
0.164	-0.437	0.0066
0.195	-0.5053	0.0061
0.253	-0.6073	0.0064
0.308	-0.6854	0.0066
0.36	-0.7418	0.0068
0.41	-0.7777	0.0069
0.457	-0.7894	0.0069
0.501	-0.7898	0.0069
0.544	-0.7756	0.0069
0.604	-0.728	0.0067
0.66	-0.6572	0.0065
0.695	-0.6036	0.0065
0.745	-0.5116	0.0063
0.807	-0.3738	0.006
0.85	-0.2744	0.0057
0.904	-0.1505	0.005
0.954	-0.055	0.0045

System: 1,2-dichloropropane + 2-(2-(2-ethoxyethoxy)ethoxy)ethanol; phases: Liquid
Fixed: Temperature, K = 298.15
Fixed: Pressure, kPa = 101
Property: Mass density, kg/m3 (Liquid); method: Vibrating tube method
Mole fraction of 1,2-dichloropropane	Mass density, kg/m3	uncertainty
0.0522	1020.53	22.42
0.1019	1024.84	20.34
0.1497	1029.19	18.45
0.2027	1034.17	16.46
0.2538	1039.19	14.67
0.3014	1044.06	13.09
0.3475	1048.98	11.65
0.4037	1055.22	10.02
0.4507	1060.69	8.76
0.5006	1066.74	7.51
0.553	1073.37	6.3
0.6023	1079.92	5.26
0.6499	1086.58	4.35
0.7036	1094.48	3.43
0.7524	1102.1	2.69
0.8009	1110.06	2.04
0.8494	1118.49	1.49
0.8988	1127.79	1.02
0.9495	1138.04	0.64

System: 1,2-dichloropropane + 2-(2-(2-ethoxyethoxy)ethoxy)ethanol; phases: Liquid
Fixed: Temperature, K = 298.15
Fixed: Pressure, kPa = 101
Property: Excess molar volume, m3/mol (Liquid); method: Calculated with densities of this investigation
Mole fraction of 1,2-dichloropropane	Excess molar volume, m3/mol	uncertainty
0.0522	-6.01e-08	7.9e-09
0.1019	-1.152e-07	8e-09
0.1497	-1.694e-07	8.1e-09
0.2027	-2.178e-07	8.3e-09
0.2538	-2.585e-07	8.3e-09
0.3014	-2.902e-07	8.4e-09
0.3475	-3.175e-07	8.5e-09
0.4037	-3.388e-07	8.5e-09
0.4507	-3.507e-07	8.6e-09
0.5006	-3.535e-07	8.6e-09
0.553	-3.437e-07	8.5e-09
0.6023	-3.263e-07	8.5e-09
0.6499	-3.042e-07	8.5e-09
0.7036	-2.7e-07	8.4e-09
0.7524	-2.355e-07	8.3e-09
0.8009	-1.88e-07	8.2e-09
0.8494	-1.354e-07	8.1e-09
0.8988	-9.16e-08	8e-09
0.9495	-4.57e-08	7.9e-09

System: 1,2-dichloropropane + triethylene glycol monobutyl ether; phases: Liquid
Fixed: Temperature, K = 298.15
Fixed: Pressure, kPa = 101
Property: Excess molar enthalpy (molar enthalpy of mixing), kJ/mol (Liquid); method: Flow calorimetry
Mole fraction of 1,2-dichloropropane	Excess molar enthalpy (molar enthalpy of mixing), kJ/mol	uncertainty
0.079	-0.2421	0.0061
0.117	-0.3255	0.0067
0.154	-0.4267	0.007
0.19	-0.5043	0.0064
0.256	-0.6124	0.0067
0.317	-0.6974	0.007
0.346	-0.7305	0.007
0.401	-0.7777	0.0072
0.452	-0.7999	0.0072
0.5	-0.8005	0.0072
0.545	-0.7866	0.0071
0.606	-0.7377	0.0069
0.645	-0.6896	0.0068
0.698	-0.6078	0.0065
0.746	-0.5159	0.0063
0.805	-0.3901	0.006
0.859	-0.2658	0.0057
0.907	-0.1552	0.0051
0.951	-0.0688	0.0046

System: 1,2-dichloropropane + triethylene glycol monobutyl ether; phases: Liquid
Fixed: Temperature, K = 298.15
Fixed: Pressure, kPa = 101
Property: Mass density, kg/m3 (Liquid); method: Vibrating tube method
Mole fraction of 1,2-dichloropropane	Mass density, kg/m3	uncertainty
0.0919	996.32	272.05
0.1463	1001.35	233.74
0.2006	1006.67	199.68
0.2501	1011.79	171.91
0.3036	1017.68	145.12
0.3548	1023.63	122.33
0.4015	1029.38	103.77
0.4519	1035.95	85.94
0.5032	1043.04	69.94
0.5498	1049.9	57.14
0.6016	1058.03	44.73
0.6526	1066.61	34.23
0.701	1075.35	25.73
0.7502	1084.93	18.47
0.8009	1095.6	12.34
0.851	1107.21	7.57
0.9003	1119.7	4.06
0.9483	1133.01	1.72

System: 1,2-dichloropropane + triethylene glycol monobutyl ether; phases: Liquid
Fixed: Temperature, K = 298.15
Fixed: Pressure, kPa = 101
Property: Excess molar volume, m3/mol (Liquid); method: Calculated with densities of this investigation
Mole fraction of 1,2-dichloropropane	Excess molar volume, m3/mol	uncertainty
0.0513	-5.25e-08	7.9e-09
0.0919	-1.145e-07	8e-09
0.1463	-1.759e-07	8.2e-09
0.2006	-2.326e-07	8.3e-09
0.2501	-2.765e-07	8.4e-09
0.3036	-3.231e-07	8.5e-09
0.3548	-3.559e-07	8.6e-09
0.4015	-3.787e-07	8.6e-09
0.4519	-3.948e-07	8.7e-09
0.5032	-4e-07	8.7e-09
0.5498	-3.948e-07	8.7e-09
0.6016	-3.809e-07	8.6e-09
0.6526	-3.555e-07	8.6e-09
0.701	-3.199e-07	8.5e-09
0.7502	-2.787e-07	8.4e-09
0.8009	-2.242e-07	8.3e-09
0.851	-1.749e-07	8.2e-09
0.9003	-1.19e-07	8e-09
0.9483	-5.87e-08	7.9e-09
