Measured thermophysical data. Experimental investigation and modeling of thermophysical properties of ethyl decanoate at high temperatures
Source: Fluid Phase Equilib., 2019, 10.1016/j.fluid.2019.112274
Compound 1: ethyl decanoate, C12H24O2, InChI=1S/C12H24O2/c1-3-5-6-7-8-9-10-11-12(13)14-4-2/h3-11H2,1-2H3, purity 99.2%

System: ethyl decanoate; phases: Liquid
Property: Speed of sound, m/s (Liquid); method: Brillouin light scattering
Temperature, K	Pressure, kPa	Speed of sound, m/s	uncertainty
300.78	100	1283.2	15.4
310.85	100	1248.4	15
320.9	100	1213.6	14.6
330.81	100	1178.4	14.2
340.24	100	1144.5	13.8
350.99	100	1106.3	13.3
360.32	100	1073.2	12.9
371.22	100	1035.6	12.5
379.78	100	1005.8	12.1
389.06	100	973.3	11.7
400.76	100	933.3	11.2
410.85	100	900.2	10.8
419.6	100	871.4	10.5
429.56	100	839.8	10.1
439.28	100	809.5	9.8
451.03	100	773.3	9.3
460.11	100	746.8	9
469.45	100	719.5	8.7
479.25	100	691.6	8.3
340.79	3000	1157.6	13.9
350.77	3000	1124.1	13.5
360.75	3000	1090.9	13.1
371.46	3000	1054.6	12.7
379.78	3000	1026.4	12.3
311.01	3000	1258.4	15.1
389.32	3000	996.7	12
400.79	3000	958.4	11.5
408.81	3000	933.4	11.2
320.94	3000	1226.4	14.7
419.67	3000	899.1	10.8
429.56	3000	868.5	10.5
439.85	3000	836.6	10.1
450.25	3000	805.8	9.7
330.76	3000	1192.9	14.3
459.85	3000	778.6	9.4
469.25	3000	752.4	9.1
300.79	3000	1290.7	15.5
479.29	3000	724.5	8.7
490.81	3000	693.8	8.4
500.76	3000	667.8	8.1
510.65	3000	642.8	7.8
520.19	3000	619.7	7.5
530.36	3000	595.4	7.2
540.66	3000	570.8	6.9
548.94	3000	551.9	6.7
558.46	3000	529.8	6.4
389.19	5000	1010.9	12.2
400.9	5000	973.6	11.7
409.55	5000	946.8	11.4
320.91	5000	1233.3	14.8
350.97	5000	1133.3	13.6
419.68	5000	915	11
429.6	5000	884.8	10.7
310.85	5000	1265	15.2
440.02	5000	854.6	10.3
360.51	5000	1102.5	13.3
450.25	5000	825.6	9.9
458.86	5000	801.3	9.7
300.81	5000	1295.7	15.6
469.28	5000	771.9	9.3
479.9	5000	743.2	9
490.41	5000	715.7	8.6
371.31	5000	1068.1	12.8
500.41	5000	690.3	8.3
510.27	5000	666.3	8
379.62	5000	1040.4	12.5
520.25	5000	642.5	7.8
529.91	5000	619.5	7.5
540.12	5000	595.3	7.2
340.76	5000	1166.4	14
549.74	5000	574.5	7
330.87	5000	1199.5	14.4
559.93	5000	551.9	6.7
440.37	7000	871.6	10.5
449.52	7000	845.4	10.2
350.89	7000	1145.9	13.8
360.55	7000	1115.4	13.4
410.3	7000	960.7	11.6
330.77	7000	1210.4	14.6
460.2	7000	816	9.8
469.32	7000	792	9.5
300.71	7000	1302.7	15.7
371.22	7000	1081.7	13
479.47	7000	764.5	9.2
488.69	7000	740.9	8.9
339.12	7000	1183	14.2
419.73	7000	932.2	11.2
500.55	7000	711.6	8.6
510.41	7000	686.9	8.3
379.56	7000	1055.4	12.7
320.98	7000	1241.3	14.9
520.27	7000	664.6	8
400.81	7000	989.3	11.9
530.11	7000	641.3	7.7
310.93	7000	1271.5	15.3
540.06	7000	618.1	7.5
430.45	7000	901.1	10.8
549.99	7000	596.7	7.2
389.22	7000	1025	12.3
562.07	7000	570.2	6.9
411.61	10000	983.4	11.8
448.51	10000	878.1	10.6
340.56	10000	1209.4	14.5
509.33	10000	722.7	8.7
423.29	10000	949.4	11.4
330.79	10000	1239.7	14.9
470.42	10000	819.1	9.9
520.04	10000	696.8	8.4
392.15	10000	1042.5	12.5
360.27	10000	1145.7	13.8
350.12	10000	1179.1	14.2
529.04	10000	678	8.2
401.26	10000	1015	12.2
300.78	10000	1329.5	16
481.5	10000	791.1	9.5
463.71	10000	837.3	10.1
540.09	10000	651.8	7.9
310.58	10000	1301.3	15.6
432.01	10000	925	11.1
383.22	10000	1069.6	12.9
439.2	10000	903.9	10.9
549.87	10000	630.6	7.6
369.47	10000	1115.6	13.4
321	10000	1269.6	15.3
492.02	10000	764.5	9.2
561	10000	607	7.3
499.48	10000	745.9	9

System: ethyl decanoate; phases: Liquid
Property: Thermal diffusivity, m2/s (Liquid); method: Dynamic light scattering
Temperature, K	Pressure, kPa	Thermal diffusivity, m2/s	uncertainty
296.31	100	8.23e-08	2.5e-09
310.29	100	8.05e-08	2.4e-09
325.23	100	7.85e-08	2.4e-09
340.18	100	7.64e-08	2.3e-09
355.19	100	7.44e-08	2.3e-09
369.85	100	7.21e-08	2.2e-09
384.31	100	6.99e-08	2.2e-09
399.6	100	6.82e-08	2.1e-09
414.43	100	6.61e-08	2e-09
429.14	100	6.39e-08	2e-09
444.19	100	6.21e-08	1.9e-09
459.76	100	5.97e-08	1.9e-09
475.27	100	5.74e-08	1.8e-09
489.57	100	5.52e-08	1.7e-09
505.38	100	5.28e-08	1.7e-09
296.25	3000	8.37e-08	2.5e-09
310.26	3000	8.19e-08	2.5e-09
325.11	3000	7.98e-08	2.4e-09
340.16	3000	7.78e-08	2.4e-09
355.26	3000	7.57e-08	2.3e-09
369.75	3000	7.34e-08	2.3e-09
384.3	3000	7.11e-08	2.2e-09
399.56	3000	6.95e-08	2.1e-09
414.35	3000	6.73e-08	2.1e-09
429.1	3000	6.5e-08	2e-09
444.38	3000	6.32e-08	2e-09
459.9	3000	6.09e-08	1.9e-09
475.26	3000	5.84e-08	1.8e-09
489.53	3000	5.62e-08	1.8e-09
504.79	3000	5.39e-08	1.7e-09
519.26	3000	5.2e-08	1.7e-09
534.77	3000	5e-08	1.6e-09
549.76	3000	4.77e-08	1.5e-09
566.27	3000	4.55e-08	1.5e-09
295.34	5000	8.46e-08	2.6e-09
310.16	5000	8.28e-08	2.5e-09
324.97	5000	8.07e-08	2.5e-09
340.11	5000	7.86e-08	2.4e-09
355.14	5000	7.65e-08	2.3e-09
369.78	5000	7.42e-08	2.3e-09
384.32	5000	7.2e-08	2.2e-09
399.6	5000	7.03e-08	2.2e-09
414.41	5000	6.81e-08	2.1e-09
429.05	5000	6.58e-08	2e-09
444.35	5000	6.4e-08	2e-09
460.12	5000	6.16e-08	1.9e-09
475.35	5000	5.92e-08	1.9e-09
489.54	5000	5.69e-08	1.8e-09
504.58	5000	5.45e-08	1.7e-09
519.36	5000	5.26e-08	1.7e-09
534.46	5000	5.06e-08	1.6e-09
549.96	5000	4.84e-08	1.6e-09
565.86	5000	4.61e-08	1.5e-09
295.72	7000	8.54e-08	2.6e-09
310.19	7000	8.37e-08	2.5e-09
325.08	7000	8.16e-08	2.5e-09
340.05	7000	7.95e-08	2.4e-09
355.22	7000	7.74e-08	2.4e-09
369.77	7000	7.5e-08	2.3e-09
384.31	7000	7.28e-08	2.2e-09
399.57	7000	7.11e-08	2.2e-09
414.36	7000	6.89e-08	2.1e-09
460.01	7000	6.23e-08	1.9e-09
475.31	7000	5.99e-08	1.9e-09
489.54	7000	5.76e-08	1.8e-09
504.77	7000	5.52e-08	1.7e-09
519.41	7000	5.33e-08	1.7e-09
534.75	7000	5.12e-08	1.6e-09
549.97	7000	4.9e-08	1.6e-09
565.87	7000	4.67e-08	1.5e-09
295.57	10000	8.67e-08	2.6e-09
310.13	10000	8.5e-08	2.6e-09
325.16	10000	8.29e-08	2.5e-09
339.89	10000	8.08e-08	2.5e-09
355.25	10000	7.86e-08	2.4e-09
369.78	10000	7.63e-08	2.3e-09
384.32	10000	7.4e-08	2.3e-09
399.55	10000	7.23e-08	2.2e-09
414.33	10000	7.01e-08	2.2e-09
429.25	10000	6.78e-08	2.1e-09
444.46	10000	6.59e-08	2e-09
460	10000	6.34e-08	2e-09
475.31	10000	6.1e-08	1.9e-09
489.54	10000	5.87e-08	1.8e-09
504.94	10000	5.62e-08	1.8e-09
519.6	10000	5.43e-08	1.7e-09
535.01	10000	5.22e-08	1.7e-09
550.17	10000	4.99e-08	1.6e-09
565.49	10000	4.76e-08	1.5e-09
460.01	7000	6.23e-08	1.9e-09
475.31	7000	5.99e-08	1.9e-09
489.54	7000	5.76e-08	1.8e-09
504.77	7000	5.52e-08	1.7e-09
