Measured thermophysical data. Isobaric vapour liquid equilibria for binary mixtures of n-heptane with bromobenzene, chlorobenzene and fluorobenzene at atmospheric pressure
Source: Fluid Phase Equilib., 2006, 10.1016/j.fluid.2005.11.020
Compound 1: heptane, C7H16, InChI=1S/C7H16/c1-3-5-7-6-4-2/h3-7H2,1-2H3, purity 99.5%
Compound 2: bromobenzene, C6H5Br, InChI=1S/C6H5Br/c7-6-4-2-1-3-5-6/h1-5H, purity 99.5%
Compound 3: chlorobenzene, C6H5Cl, InChI=1S/C6H5Cl/c7-6-4-2-1-3-5-6/h1-5H, purity 99.5%
Compound 4: fluorobenzene, C6H5F, InChI=1S/C6H5F/c7-6-4-2-1-3-5-6/h1-5H, purity 99.5%

System: heptane; phases: Liquid
Property: Mass density, kg/m3 (Liquid); method: Vibrating tube method
Temperature, K	Pressure, kPa	Mass density, kg/m3	uncertainty
293.2	101.325	683.53	0.27

System: heptane; phases: Liquid, Gas
Property: Vapor or sublimation pressure, kPa (Liquid); method: Ebulliometric method (Recirculating still)
Temperature, K	Vapor or sublimation pressure, kPa	uncertainty
371.3	100.91	1.01
371.3	100.6	1.01
371.4	100.95	1.01

System: bromobenzene; phases: Liquid
Property: Mass density, kg/m3 (Liquid); method: Vibrating tube method
Temperature, K	Pressure, kPa	Mass density, kg/m3	uncertainty
293.2	101.325	1495.28	0.48

System: bromobenzene; phases: Liquid, Gas
Property: Vapor or sublimation pressure, kPa (Liquid); method: Ebulliometric method (Recirculating still)
Temperature, K	Vapor or sublimation pressure, kPa	uncertainty
428.8	100.91	1.01

System: chlorobenzene; phases: Liquid
Property: Mass density, kg/m3 (Liquid); method: Vibrating tube method
Temperature, K	Pressure, kPa	Mass density, kg/m3	uncertainty
293.2	101.325	1106.07	0.3

System: chlorobenzene; phases: Liquid, Gas
Property: Vapor or sublimation pressure, kPa (Liquid); method: Ebulliometric method (Recirculating still)
Temperature, K	Vapor or sublimation pressure, kPa	uncertainty
404.6	100.82	1.01

System: fluorobenzene; phases: Liquid
Property: Mass density, kg/m3 (Liquid); method: Vibrating tube method
Temperature, K	Pressure, kPa	Mass density, kg/m3	uncertainty
293.2	101.325	1022.27	0.27

System: fluorobenzene; phases: Liquid, Gas
Property: Vapor or sublimation pressure, kPa (Liquid); method: Ebulliometric method (Recirculating still)
Temperature, K	Vapor or sublimation pressure, kPa	uncertainty
357.5	100.55	1.01

System: bromobenzene + heptane; phases: Liquid, Gas
Property: Boiling temperature at pressure P, K (Liquid); method: Ebulliometric method (Recirculating still)
Mole fraction of heptane	Pressure, kPa	Boiling temperature at pressure P, K	uncertainty
0	100.91	428.8	0.2
0.0255	100.95	423.9	0.2
0.055	100.81	418.9	0.2
0.0764	100.97	415.6	0.2
0.1076	100.82	411.4	0.2
0.1462	100.96	407.1	0.2
0.2253	100.95	399.7	0.2
0.2995	100.96	394.2	0.2
0.3585	100.95	390.6	0.2
0.4587	100.97	385.8	0.2
0.5766	100.98	381.4	0.2
0.7151	100.64	377.2	0.2
0.8943	100.96	373.2	0.2
1	100.95	371.4	0.2

System: bromobenzene + heptane; phases: Gas, Liquid
Property: Mole fraction of heptane (Gas); method: Density calibration data
Mole fraction of heptane	Pressure, kPa	Mole fraction of heptane	uncertainty
0	100.91	0	0.0001
0.0255	100.95	0.1438	0.001
0.055	100.81	0.2704	0.0011
0.0764	100.97	0.3457	0.0013
0.1076	100.82	0.4354	0.0017
0.1462	100.96	0.5248	0.002
0.2253	100.95	0.6527	0.0019
0.2995	100.96	0.7298	0.0017
0.3585	100.95	0.7738	0.0016
0.4587	100.97	0.8328	0.0014
0.5766	100.98	0.8818	0.0012
0.7151	100.64	0.919	0.0011
0.8943	100.96	0.9673	0.001
1	100.95	1	0.0001

System: chlorobenzene + heptane; phases: Liquid, Gas
Property: Boiling temperature at pressure P, K (Liquid); method: Ebulliometric method (Recirculating still)
Mole fraction of heptane	Pressure, kPa	Boiling temperature at pressure P, K	uncertainty
0	100.82	404.6	0.2
0.0314	100.82	401.9	0.2
0.088	100.86	397.1	0.2
0.1579	100.88	392.5	0.2
0.2277	100.89	388.9	0.2
0.2962	100.9	386.1	0.2
0.3709	100.95	383.5	0.2
0.47	100.96	380.7	0.2
0.5865	100.98	378	0.2
0.7294	100.98	375.2	0.2
0.8922	100.95	372.7	0.2
1	100.91	371.3	0.2

System: chlorobenzene + heptane; phases: Gas, Liquid
Property: Mole fraction of heptane (Gas); method: Density calibration data
Mole fraction of heptane	Pressure, kPa	Mole fraction of heptane	uncertainty
0	100.82	0	0.0001
0.0314	100.82	0.1103	0.001
0.088	100.86	0.2637	0.0011
0.1579	100.88	0.3991	0.0015
0.2277	100.89	0.502	0.002
0.2962	100.9	0.5766	0.002
0.3709	100.95	0.6421	0.0019
0.47	100.96	0.7138	0.0018
0.5865	100.98	0.7808	0.0016
0.7294	100.98	0.8541	0.0013
0.8922	100.95	0.9387	0.0011
1	100.91	1	0.0001

System: heptane + fluorobenzene; phases: Liquid, Gas
Property: Boiling temperature at pressure P, K (Liquid); method: Ebulliometric method (Recirculating still)
Mole fraction of fluorobenzene	Pressure, kPa	Boiling temperature at pressure P, K	uncertainty
0	100.6	371.3	0.2
0.0734	100.69	368.5	0.2
0.1923	100.71	364.9	0.2
0.2952	100.69	362.5	0.2
0.4257	100.67	360.4	0.2
0.5564	100.66	358.9	0.2
0.7017	100.61	357.8	0.2
0.7989	100.61	357.4	0.2
0.8959	100.59	357.2	0.2
0.9373	100.64	357.3	0.2
0.9836	100.61	357.4	0.2
1	100.55	357.5	0.2

System: heptane + fluorobenzene; phases: Gas, Liquid
Property: Mole fraction of fluorobenzene (Gas); method: Density calibration data
Mole fraction of fluorobenzene	Pressure, kPa	Mole fraction of fluorobenzene	uncertainty
0	100.6	0	0.0001
0.0734	100.69	0.1472	0.001
0.1923	100.71	0.3248	0.0012
0.2952	100.69	0.4401	0.0017
0.4257	100.67	0.5559	0.002
0.5564	100.66	0.6519	0.0019
0.7017	100.61	0.7504	0.0017
0.7989	100.61	0.8197	0.0014
0.8959	100.59	0.8953	0.0012
0.9373	100.64	0.9334	0.0011
0.9836	100.61	0.9817	0.001
1	100.55	1	0.0001
