Measured thermophysical data. High-pressure phase equilibria in the carbon dioxide + pyrrole system
Source: Fluid Phase Equilib., 2009, 10.1016/j.fluid.2008.09.019
Compound 1: carbon dioxide, CO2, InChI=1S/CO2/c2-1-3
Compound 2: pyrrole, C4H5N, InChI=1S/C4H5N/c1-2-4-5-3-1/h1-5H

System: pyrrole + carbon dioxide; phases: Liquid mixture 1, Liquid mixture 2
Property: Vapor or sublimation pressure, kPa (Liquid mixture 1); method: Closed cell (Static) method
Temperature, K	Mole fraction of pyrrole	Vapor or sublimation pressure, kPa	uncertainty
313	0.11	9780	690
313	0.138	10020	690
313	0.18	10580	690
313	0.233	10760	690
313	0.305	10880	690
313	0.355	10160	690
323	0.233	13130	690
323	0.305	13240	690
323	0.355	12670	690
333	0.355	14630	690

System: pyrrole + carbon dioxide; phases: Liquid, Gas
Property: Vapor or sublimation pressure, kPa (Liquid); method: Closed cell (Static) method
Temperature, K	Mole fraction of pyrrole	Vapor or sublimation pressure, kPa	uncertainty
313	0.07	8630	700
313	0.416	9330	690
313	0.465	9080	690
313	0.533	8400	690
323	0.465	11680	690
