Measured thermophysical data. Speed of sound measurements in deuterium oxide (D2O) over the temperature range from (278.2 to 353.2) K at pressures up to 20 MPa
Source: Fluid Phase Equilib., 2016, 10.1016/j.fluid.2015.10.034
Compound 1: water-d2, D2O, InChI=1S/H2O/h1H2/i/hD2, purity 99.99%

System: water-d2; phases: Liquid
Fixed: Frequency, MHz = 8
Property: Speed of sound, m/s (Liquid); method: Pulse-echo method
Pressure, kPa	Temperature, K	Speed of sound, m/s	uncertainty
20152.4	278.214	1353.71	0.69
20109	278.213	1353.64	0.69
15116.6	278.214	1346.45	0.69
15113.1	278.214	1346.43	0.69
9986	278.214	1339.29	0.69
9983.38	278.213	1339.27	0.69
5021.92	278.213	1332.48	0.68
5025.06	278.214	1332.5	0.68
2465.6	278.216	1329.13	0.68
2465.23	278.216	1329.11	0.68
150.191	278.213	1326.03	0.68
152.009	278.213	1326	0.68
20197.5	283.207	1376.42	0.7
20195.2	283.207	1376.44	0.7
15142.3	283.207	1369.03	0.7
15143.3	283.207	1369.06	0.7
9943.65	283.208	1361.56	0.69
9942.38	283.207	1361.56	0.69
5043.05	283.207	1354.64	0.69
5043.65	283.207	1354.64	0.69
2497.99	283.207	1351.09	0.69
2494.78	283.207	1351.09	0.69
154.896	283.207	1347.85	0.69
156.955	283.207	1347.85	0.69
20360.8	293.201	1414.18	0.97
20333.3	293.201	1414.18	0.97
15052.3	293.201	1406.21	0.71
15047.2	293.201	1406.21	0.71
10085.8	293.201	1398.8	0.71
10078	293.201	1398.8	0.71
5125.59	293.201	1391.39	0.71
5119.79	293.201	1391.37	0.71
2473.12	293.201	1387.45	0.7
2473.17	293.201	1387.45	0.7
179.816	293.201	1384.09	0.7
181.194	293.201	1384.12	0.7
20276.2	313.202	1464.59	0.73
20266.8	313.202	1464.53	0.73
15060.2	313.202	1456.31	0.73
15060.4	313.202	1456.34	0.73
9993.36	313.202	1448.32	0.73
9985.03	313.202	1448.26	0.73
5110.8	313.202	1440.51	0.72
5110.46	313.202	1440.49	0.72
2468.49	313.202	1436.26	0.72
2458.23	313.202	1436.26	0.72
109.88	313.202	1432.53	0.72
109.607	313.202	1432.53	0.72
20125.5	333.204	1489.95	0.74
20121.5	333.204	1489.98	0.74
15109.4	333.204	1481.58	0.74
15107.4	333.204	1481.61	0.74
10071.3	333.204	1473.11	2.33
10043.5	333.204	1473.03	2.33
5054.69	333.204	1464.53	0.73
5055	333.204	1464.55	0.73
2499.25	333.205	1460.14	0.73
2499.56	333.205	1460.11	0.73
195.576	333.204	1456.17	0.73
211.294	333.204	1456.2	0.73
20068.5	353.204	1497.05	0.75
20056.3	353.204	1496.99	0.75
15061.7	353.203	1488.07	0.74
15059.7	353.203	1488.04	0.74
10094.4	353.203	1479.06	0.74
10090.9	353.204	1479.03	0.74
5032.08	353.203	1469.72	0.74
5034.08	353.203	1469.7	0.74
2527.97	353.203	1465.03	0.73
2522.28	353.203	1465.06	0.73
144.587	353.203	1460.58	0.73
142.151	353.203	1460.58	0.73
