Measured thermophysical data. Thermodynamic properties of the butenes Part I. Experimental densities, vapor pressures, and critical points
Source: Fluid Phase Equilib., 2005, 10.1016/j.fluid.2004.09.013
Compound 1: 1-butene, C4H8, InChI=1S/C4H8/c1-3-4-2/h3H,1,4H2,2H3, purity 99.9%
Compound 2: 2-methylpropene, C4H8, InChI=1S/C4H8/c1-4(2)3/h1H2,2-3H3, purity 99.9%
Compound 3: (Z)-2-butene, C4H8, InChI=1S/C4H8/c1-3-4-2/h3-4H,1-2H3/b4-3-, purity 99.9%
Compound 4: (E)-2-butene, C4H8, InChI=1S/C4H8/c1-3-4-2/h3-4H,1-2H3/b4-3+, purity 99.9%

System: 1-butene; phases: Liquid, Gas
Property: Critical pressure, kPa (Liquid); method: DIRECT:FP
Critical pressure, kPa	uncertainty
4005.1	10.6

System: 1-butene; phases: Liquid, Gas
Property: Critical temperature, K (Liquid); method: VISOBSS:FP
Critical temperature, K	uncertainty
419.29	0.11

System: 1-butene; phases: Liquid, Gas
Property: Critical density, kg/m3 (Liquid); method: visual observation in a variable volume cell:FP
Critical density, kg/m3	uncertainty
237.88	4.76

System: 1-butene; phases: Liquid, Gas
Property: Vapor or sublimation pressure, kPa (Liquid); method: CCELL:UFactor:2
Temperature, K	Vapor or sublimation pressure, kPa	uncertainty
289.42	225.85	0.89
294	260.86	1.02
301.73	329.59	1.23
306.48	378.14	1.43
315.34	484.39	1.76
321.69	572.17	2.07
329.51	695.71	2.48
337.04	833.9	2.9
337.68	845.55	2.93
345.48	1009.74	3.52
353.71	1207.86	4.15
358.53	1337.51	4.57
361.4	1416.52	4.88
366.99	1590.4	5.47
367.1	1594.78	5.48
379.44	2014.24	6.74
386.99	2310.4	7.75
395.35	2678.67	8.93
403.65	3085.76	10.23
409.68	3413.15	11.29
415.36	3739.2	12.28

System: 1-butene; phases: Fluid (supercritical or subcritical phases)
Property: Mass density, kg/m3 (Fluid (supercritical or subcritical phases)); method: Vibrating tube method
Temperature, K	Pressure, kPa	Mass density, kg/m3	uncertainty
273.24	612	619.16	1.25
273.24	4987	624.98	1.27
273.24	9990	631.06	1.3
273.24	15004	636.64	1.32
273.24	20005	641.81	1.35
273.24	24989	646.61	1.38
273.24	29996	651.13	1.4
273.24	34991	655.38	1.43
273.24	39998	659.41	1.46
278.25	610	613.23	1.24
278.25	4982	619.35	1.26
278.25	9991	625.73	1.29
278.25	14984	631.55	1.31
278.25	20001	636.92	1.34
278.25	24985	641.91	1.37
278.25	30007	646.61	1.4
278.25	34997	650.99	1.43
278.25	39995	655.14	1.46
283.26	610	607.22	1.23
283.26	4984	613.69	1.25
283.26	9995	620.39	1.28
283.26	15000	626.47	1.31
283.26	19989	632.05	1.33
283.26	24987	637.22	1.36
283.26	30013	642.08	1.39
283.26	35003	646.62	1.42
283.26	39990	650.88	1.45
288.27	611	601.14	1.22
288.27	14998	621.36	1.3
288.28	4990	607.98	1.24
288.28	9997	615.01	1.27
288.28	19990	627.16	1.33
288.28	24993	632.55	1.36
288.28	30009	637.56	1.39
288.28	35002	642.25	1.42
288.28	39995	646.65	1.45
293.29	611	594.95	1.21
293.29	4994	602.2	1.23
293.29	9995	609.58	1.26
293.29	14989	616.2	1.29
293.29	19984	622.26	1.32
293.29	24990	627.84	1.52
293.29	29991	633.02	1.38
293.29	34994	637.87	1.41
293.29	39994	642.42	1.45
298.3	613	588.66	1.19
298.3	4990	596.33	1.22
298.3	10001	604.11	1.25
298.3	14994	611.04	1.28
298.3	19995	617.35	1.31
298.3	24993	623.14	1.34
298.3	30005	628.51	1.38
298.3	35015	633.51	1.41
298.3	40003	638.19	1.44
303.31	661	582.33	1.18
303.31	9983	598.56	1.24
303.31	15001	605.85	1.27
303.31	19987	612.4	1.3
303.31	24994	618.42	1.34
303.31	30008	623.99	1.37
303.31	35004	629.15	1.4
303.32	4995	590.39	1.21
303.32	40006	633.97	1.44
308.32	4985	584.34	1.2
308.32	9991	592.99	1.23
308.32	14996	600.61	1.26
308.32	19992	607.46	1.3
308.32	25004	613.71	1.33
308.32	30007	619.45	1.36
308.32	34999	624.79	1.4
308.32	40000	629.76	1.43
308.33	713	575.87	1.17
313.2	947	569.83	1.16
313.2	4992	578.34	1.19
313.2	9990	587.43	1.22
313.2	14997	595.4	1.25
313.2	19994	602.53	1.29
313.2	24994	609.01	1.32
313.2	30011	614.95	1.36
313.2	35009	620.44	1.39
313.2	39997	625.59	1.43
318.21	1037	563.26	1.15
318.21	5017	572.17	1.18
318.21	10015	581.78	1.21
318.21	15007	590.11	1.25
318.21	20018	597.56	1.28
318.21	25018	604.28	1.32
318.21	30002	610.4	1.35
318.21	35001	616.07	1.39
318.21	39996	621.35	1.43
323.21	1110	556.48	1.14
323.21	9982	575.95	1.2
323.21	14984	584.73	1.24
323.21	25001	599.51	1.31
323.21	30001	605.88	1.35
323.21	34994	611.74	1.38
323.21	40004	617.19	1.42
323.22	5006	565.82	1.16
323.22	19997	592.52	1.27
328.22	1187	549.53	1.12
328.22	4989	559.32	1.15
328.22	9998	570.14	1.19
328.22	14996	579.36	1.23
328.22	19992	587.47	1.27
328.22	25011	594.75	1.3
328.22	30003	601.33	1.34
328.22	34986	607.37	1.38
328.22	40001	613	1.42
333.22	1276	542.42	1.11
333.22	4994	552.72	1.14
333.22	10001	564.22	1.18
333.22	14993	573.92	1.22
333.22	20000	582.4	1.26
333.22	24986	589.92	1.3
333.22	29987	596.76	1.34
333.22	35007	603.04	1.38
333.22	40005	608.82	1.42
338.22	1372	535.11	1.1
338.22	4996	545.96	1.13
338.22	9985	558.18	1.17
338.22	14991	568.42	1.21
338.22	19988	577.27	1.25
338.22	25002	585.14	1.29
338.22	29995	592.2	1.33
338.22	34993	598.67	1.37
338.22	39988	604.63	1.41
343.22	1477	527.59	1.08
343.22	4989	538.99	1.12
343.22	9987	552.06	1.16
343.22	14985	562.84	1.2
343.22	19995	572.12	1.24
343.22	24993	580.29	1.29
343.22	29995	587.63	1.33
343.22	34993	594.3	1.37
343.22	39996	600.44	1.41
348.22	9989	545.85	1.15
348.22	24986	575.42	1.28
348.23	1592	519.85	1.07
348.23	4984	531.84	1.1
348.23	14988	557.22	1.19
348.23	20000	566.94	1.24
348.23	29995	583.02	1.32
348.23	35000	589.94	1.36
348.23	39996	596.25	1.41
353.23	1715	511.85	1.06
353.23	4999	524.53	1.09
353.23	9991	539.5	1.14
353.23	14992	551.53	1.18
353.23	19991	561.68	1.23
353.23	24984	570.52	1.27
353.23	30003	578.41	1.32
353.23	34996	585.54	1.36
353.23	40004	592.05	1.4
358.23	1846	503.54	1.04
358.23	4995	516.91	1.08
358.23	9989	533.03	1.13
358.23	14984	545.76	1.18
358.23	19997	556.43	1.22
358.23	25002	565.63	1.27
358.23	30007	573.81	1.31
358.23	34991	581.14	1.36
358.23	39997	587.85	1.4
363.23	1991	494.93	1.03
363.23	4996	509.02	1.06
363.23	9987	526.43	1.12
363.23	14995	539.91	1.17
363.23	19993	551.05	1.21
363.23	24987	560.63	1.26
363.23	29994	569.1	1.31
363.23	35013	576.7	1.35
363.23	39993	583.59	1.4
368.23	2145	485.95	1.01
368.23	4994	500.81	1.05
368.23	10001	519.71	1.11
368.23	15000	534.01	1.16
368.23	19992	545.69	1.21
368.23	24989	555.66	1.25
368.23	29994	564.43	1.3
368.23	34993	572.27	1.35
368.23	39995	579.38	1.39
373.23	2313	476.57	0.99
373.23	10000	512.83	1.1
373.23	19991	540.27	1.2
373.23	24984	550.66	1.25
373.23	30002	559.76	1.3
373.23	35005	567.88	1.34
373.23	39997	575.19	1.39
373.24	5000	492.29	1.03
373.24	15001	528.02	1.15
378.23	4992	483.29	1.02
378.23	40004	571.03	1.39
378.24	2492	466.71	0.98
378.24	9989	505.75	1.08
378.24	14998	521.94	1.14
378.24	20001	534.83	1.19
378.24	24999	545.69	1.24
378.24	30000	555.11	1.29
378.24	35012	563.49	1.34
383.24	2679	456.23	0.96
383.24	5001	473.89	1
383.24	9994	498.55	1.07
383.24	14998	515.79	1.13
383.24	19999	529.35	1.19
383.24	24986	540.63	1.24
383.24	29986	550.4	1.29
383.24	34993	559.06	1.34
383.24	39986	566.81	1.39
388.24	2883	445.15	0.94
388.24	4993	463.82	0.98
388.24	9989	491.12	1.06
388.24	14987	509.52	1.12
388.24	20000	523.81	1.18
388.24	24990	535.58	1.23
388.24	29995	545.72	1.28
388.24	35013	554.66	1.33
388.24	40001	562.62	1.38
393.24	3099	433.35	0.92
393.24	4988	452.98	0.96
393.24	10001	483.54	1.04
393.24	14990	503.16	1.11
393.24	20005	518.2	1.17
393.24	24996	530.47	1.23
393.24	30000	540.98	1.28
393.24	35004	550.18	1.33
393.24	39996	558.42	1.38
398.24	3328	420.6	0.9
398.24	4984	441.24	0.94
398.24	9995	475.63	1.03
398.24	14988	496.67	1.1
398.24	20004	512.53	1.16
398.24	24995	525.32	1.22
398.24	29999	536.22	1.27
398.24	34991	545.71	1.33
398.24	40002	554.2	1.38
403.24	3570	406.72	0.89
403.24	4981	428.43	0.92
403.24	9984	467.46	1.01
403.24	14984	490.08	1.09
403.24	19994	506.77	1.16
403.24	24991	520.14	1.22
403.24	29990	531.44	1.27
403.24	34986	541.24	1.32
403.24	40010	549.99	1.38
408.24	3826	391.44	0.88
408.24	4981	414.13	0.91
408.24	9995	459.14	0.99
408.24	14983	483.4	1.07
408.24	19998	501	1.15
408.24	24993	514.95	1.21
408.24	29994	526.66	1.27
408.24	34991	536.79	1.32
408.24	40009	545.77	1.38
413.24	4097	374.62	0.89
413.24	4986	397.78	0.91
413.24	9991	450.43	0.98
413.24	14983	476.61	1.06
413.24	20002	495.19	1.14
413.24	24998	509.75	1.21
413.24	30000	521.88	1.26
413.24	34989	532.32	1.32
413.24	40005	541.58	1.37
418.24	4381	356.12	1.08
418.24	4990	378.2	0.93
418.24	9997	441.54	0.96
418.24	14996	469.76	1.05
418.24	20000	489.3	1.13
418.24	24996	504.48	1.2
418.24	29999	517.07	1.26
418.24	34991	527.85	1.32
418.24	40005	537.36	1.37
423.24	5017	354.2	0.85
423.24	9991	431.88	0.94
423.24	14996	462.7	1.03
423.24	20000	483.36	1.11
423.24	24995	499.21	1.19
423.24	29997	512.25	1.26
423.24	34989	523.35	1.31
423.24	39991	533.12	1.37
428.24	5020	318.6	0.92
428.24	9997	422.29	0.93
428.24	14995	455.57	1.02
428.24	19996	477.35	1.1
428.24	24996	493.9	1.18
428.24	29993	507.4	1.25
428.24	34987	518.87	1.31
428.24	39990	528.9	1.37
433.24	5019	257.92	0.99
433.24	9998	412.15	0.92
433.24	14987	448.26	1
433.24	19989	471.28	1.09
433.24	24994	488.57	1.17
433.24	29992	502.55	1.25
433.24	34997	514.38	1.31
433.24	40003	524.73	1.37
438.24	5011	195.21	0.84
438.24	9986	401.49	0.92
438.24	14995	440.85	0.99
438.24	19991	465.16	1.07
438.24	24999	483.18	1.16
438.24	29997	497.7	1.24
438.24	35010	509.95	1.31
438.24	39994	520.5	1.37
443.24	5018	165.31	0.7
443.24	14986	433.23	0.97
443.24	20005	458.99	1.06
443.24	24988	477.7	1.15
443.24	30010	492.78	1.23
443.24	35012	505.33	1.31
443.24	39996	516.19	1.37
443.25	9990	390.35	0.91
448.24	5018	148	0.66
448.24	14981	425.58	0.95
448.24	19992	452.7	1.05
448.24	24997	472.33	1.13
448.24	29998	487.86	1.22
448.24	34998	500.83	1.3
448.24	39998	512	1.36
448.25	9991	378.84	0.89
453.24	5018	136.35	0.64
453.24	14996	418.01	0.94
453.24	19984	446.42	1.03
453.24	24987	466.88	1.12
453.24	29994	482.99	1.21
453.24	34990	496.33	1.29
453.24	40001	507.8	1.36
453.25	9992	366.88	0.87
458.24	5019	127.66	0.62
458.24	14983	409.67	0.92
458.24	20004	440.23	1.02
458.24	29989	478.1	1.2
458.24	34985	491.83	1.28
458.24	39994	503.63	1.36
458.25	9993	354.52	0.85
458.25	25009	461.51	1.11
463.24	5016	120.75	0.6
463.24	14996	401.9	0.91
463.24	19997	433.9	1.01
463.24	25004	456.08	1.1
463.24	30003	473.27	1.19
463.24	34993	487.39	1.27
463.25	9983	341.52	0.83
463.25	39998	499.47	1.36
468.24	5016	115	0.58
468.24	9989	328.56	0.8
468.24	14982	393.76	0.89
468.24	19984	427.48	0.99
468.24	24997	450.6	1.09
468.24	30000	468.38	1.17
468.24	35011	482.95	1.26
468.24	39999	495.31	1.35
473.24	5018	110.27	0.55
473.24	9985	315.25	0.78
473.24	19988	421.13	0.98
473.24	24992	445.14	1.07
473.24	29997	463.51	1.16
473.24	35002	478.49	1.25
473.24	39996	491.17	1.34
473.25	14995	385.74	0.88
478.24	5019	106.11	0.53
478.24	9987	302.04	0.75
478.24	14989	377.47	0.86
478.24	19983	414.69	0.97
478.24	24987	439.66	1.06
478.24	30006	458.68	1.15
478.24	35011	474.08	1.24
478.24	39998	487.02	1.33
483.24	5019	102.43	0.51
483.24	9986	289.02	0.72
483.24	14996	369.24	0.85
483.24	19994	408.37	0.95
483.24	24993	434.22	1.05
483.24	30007	453.8	1.14
483.24	35009	469.63	1.23
483.24	39997	482.92	1.32
488.24	5019	99.18	0.48
488.24	9991	276.55	0.7
488.24	14995	361.05	0.83
488.24	20003	402.02	0.94
488.24	24984	428.73	1.04
488.24	29996	448.96	1.13
488.24	35002	465.2	1.22
488.24	39995	478.82	1.31
493.24	5019	96.24	0.46
493.24	9993	264.66	0.67
493.24	14985	352.7	0.82
493.24	19990	395.6	0.93
493.24	24997	423.36	1.03
493.24	30000	444.14	1.12
493.24	35000	460.8	1.21
493.24	39994	474.74	1.3
498.24	5019	93.59	0.44
498.24	9985	253.12	0.65
498.24	14988	344.51	0.8
498.24	19988	389.08	0.92
498.24	25004	417.97	1.02
498.24	30000	439.33	1.11
498.24	35005	456.43	1.2
498.24	39995	470.68	1.3
503.24	5016	91.1	0.42
503.24	9996	242.88	0.63
503.24	14997	336.49	0.79
503.24	19985	382.45	0.9
503.24	25003	412.55	1.01
503.24	29994	434.51	1.1
503.24	34998	452.04	1.2
503.24	39994	466.64	1.29
508.24	5019	88.94	0.41
508.24	9985	232.83	0.6
508.24	14995	328.41	0.77
508.24	20001	376.3	0.89
508.24	25001	407.17	1
508.24	29985	429.72	1.09
508.24	34995	447.71	1.19
508.24	39994	462.63	1.28
513.23	19985	369.92	0.88
513.23	35000	443.43	1.18
513.24	5019	86.9	0.39
513.24	9990	224.06	0.58
513.24	14981	320.32	0.76
513.24	24995	401.8	0.99
513.24	30001	425.05	1.08
513.24	39991	458.64	1.27
518.23	5019	85.01	0.38
518.23	14997	312.76	0.74
518.23	19988	363.73	0.87
518.23	25002	396.53	0.98
518.23	30001	420.37	1.07
518.23	35013	439.18	1.17
518.24	9981	215.7	0.56
518.24	39995	454.74	1.26
523.23	5018	83.27	0.37
523.23	9990	208.53	0.58
523.23	14996	305.24	0.77
523.23	19995	357.64	0.87
523.23	25003	391.29	0.97
523.23	30001	415.71	1.07
523.23	35000	434.96	1.16
523.23	40001	450.86	1.25

System: 2-methylpropene; phases: Liquid, Gas
Property: Critical pressure, kPa (Liquid); method: DIRECT:FP
Critical pressure, kPa	uncertainty
4009.8	10.6

System: 2-methylpropene; phases: Liquid, Gas
Property: Critical temperature, K (Liquid); method: VISOBSS:FP
Critical temperature, K	uncertainty
418.09	0.11

System: 2-methylpropene; phases: Liquid, Gas
Property: Critical density, kg/m3 (Liquid); method: visual observation in a variable volume cell:FP
Critical density, kg/m3	uncertainty
233.97	4.68

System: 2-methylpropene; phases: Liquid, Gas
Property: Vapor or sublimation pressure, kPa (Liquid); method: CCELL:UFactor:2
Temperature, K	Vapor or sublimation pressure, kPa	uncertainty
285.97	206.58	0.91
297.46	297.04	1.22
307.88	404.2	1.62
315.82	503.41	2
324.78	633	2.45
328.93	704.67	2.77
337.82	871.92	3.36
348.26	1100.76	4.18
357.33	1343.9	5.06
364.25	1545.08	5.79
371.52	1784.71	6.65
380.19	2094.53	7.73
386.12	2332.68	8.63
393.36	2656.53	9.77
399.86	2967.13	10.92
412.88	3665.76	13.26

System: 2-methylpropene; phases: Fluid (supercritical or subcritical phases)
Property: Mass density, kg/m3 (Fluid (supercritical or subcritical phases)); method: Vibrating tube method
Temperature, K	Pressure, kPa	Mass density, kg/m3	uncertainty
273.23	615	619.2	1.25
273.23	9987	631.07	1.3
273.23	15001	636.64	1.32
273.23	20001	641.78	1.35
273.23	25007	646.58	1.38
273.23	29992	651.06	1.4
273.23	34986	655.29	1.43
273.23	40007	659.29	1.46
273.24	5018	625.04	1.27
278.24	625	613.32	1.24
278.24	9983	625.79	1.29
278.24	29985	646.57	1.4
278.25	4992	619.43	1.26
278.25	14997	631.6	1.31
278.25	19994	636.96	1.34
278.25	24995	641.93	1.37
278.25	35001	650.96	1.43
278.25	39983	655.07	1.46
283.26	623	607.34	1.23
283.26	4980	613.78	1.25
283.26	10001	620.49	1.28
283.26	15002	626.55	1.31
283.26	19992	632.11	1.33
283.26	24993	637.28	1.36
283.26	29994	642.09	1.39
283.26	34999	646.62	1.42
283.26	39994	650.87	1.45
288.27	622	601.26	1.22
288.27	4986	608.09	1.24
288.27	9999	615.12	1.27
288.27	15002	621.46	1.3
288.27	20000	627.26	1.33
288.27	24990	632.61	1.36
288.27	30003	637.6	1.39
288.27	35005	642.28	1.42
288.27	40002	646.66	1.45
293.28	624	595.08	1.21
293.28	4999	602.33	1.23
293.28	9991	609.69	1.26
293.28	14989	616.34	1.29
293.28	19994	622.38	1.32
293.28	24993	627.94	1.35
293.28	30001	633.11	1.38
293.28	35003	637.94	1.41
293.28	39987	642.44	1.45
298.3	624	588.78	1.19
298.3	4988	596.46	1.22
298.3	9992	604.23	1.25
298.3	14991	611.17	1.28
298.3	20004	617.49	1.31
298.3	25009	623.26	1.34
298.3	30005	628.61	1.38
298.3	34998	633.59	1.41
298.3	40003	638.26	1.44
303.3	638	582.38	1.18
303.3	14996	606.02	1.27
303.3	19992	612.59	1.3
303.3	24991	618.59	1.34
303.3	34996	629.29	1.4
303.3	39999	634.1	1.44
303.31	4990	590.52	1.21
303.31	9994	598.73	1.24
303.31	29988	624.13	1.37
308.31	706	575.94	1.17
308.32	4988	584.48	1.2
308.32	9989	593.14	1.23
308.32	14992	600.77	1.26
308.32	19998	607.63	1.3
308.32	24997	613.87	1.33
308.32	30005	619.62	1.36
308.32	34988	624.91	1.4
308.32	40003	629.89	1.43
313.2	951	569.89	1.16
313.2	4993	578.43	1.19
313.2	9992	587.58	1.22
313.2	14986	595.55	1.25
313.2	19994	602.7	1.29
313.2	24994	609.17	1.32
313.2	29987	615.08	1.36
313.2	34991	620.58	1.39
313.2	40013	625.7	1.43
318.21	1034	563.28	1.15
318.21	4991	572.22	1.18
318.21	9993	581.88	1.21
318.21	15000	590.28	1.25
318.21	20002	597.73	1.28
318.21	24998	604.47	1.32
318.21	29993	610.61	1.35
318.21	34995	616.28	1.39
318.21	39991	621.54	1.43
323.22	1130	556.5	1.14
323.22	5015	565.89	1.16
323.22	10019	576.14	1.2
323.22	15017	584.94	1.24
323.22	20010	592.7	1.27
323.22	25016	599.69	1.31
323.22	30006	606.04	1.35
323.22	34990	611.88	1.39
328.22	1213	549.51	1.12
328.22	4997	559.34	1.15
328.22	10001	570.24	1.19
328.22	14997	579.49	1.23
328.22	19998	587.62	1.27
328.22	24989	594.87	1.3
328.22	29993	601.47	1.34
328.22	35002	607.53	1.38
333.22	1303	542.34	1.11
333.22	4983	552.65	1.14
333.22	9997	564.28	1.18
333.22	15001	574.03	1.22
333.22	19998	582.51	1.26
333.22	25001	590.09	1.3
333.22	30012	596.94	1.34
333.22	34994	603.17	1.38
338.22	1401	534.97	1.1
338.22	4983	545.83	1.13
338.22	9985	558.2	1.17
338.22	14988	568.49	1.21
338.22	20002	577.4	1.25
338.22	24995	585.25	1.29
338.22	30004	592.35	1.33
338.22	34989	598.79	1.37
338.23	39972	604.69	1.41
343.22	1507	527.38	1.08
343.22	4990	538.84	1.12
343.22	14984	562.89	1.2
343.22	19992	572.21	1.24
343.22	24986	580.39	1.29
343.23	10002	552.06	1.16
343.23	29994	587.74	1.33
343.23	35010	594.44	1.37
348.23	1624	519.55	1.07
348.23	4982	531.6	1.1
348.23	9996	545.8	1.15
348.23	15003	557.28	1.19
348.23	19988	566.99	1.24
348.23	24994	575.52	1.28
348.23	29995	583.14	1.32
348.23	34998	590.02	1.36
353.23	1750	511.45	1.06
353.23	4999	524.22	1.09
353.23	9995	539.41	1.14
353.23	15002	551.55	1.18
353.23	19988	561.74	1.23
353.23	24993	570.61	1.27
353.23	29992	578.51	1.32
353.23	35002	585.65	1.36
358.23	1880	503.02	1.04
358.23	4995	516.51	1.08
358.23	9992	532.9	1.13
358.23	14994	545.74	1.18
358.23	19987	556.44	1.22
358.23	25000	565.71	1.27
358.23	29992	573.87	1.31
358.23	34986	581.23	1.36
363.23	2029	494.29	1.03
363.23	4995	508.53	1.06
363.23	9990	526.24	1.12
363.23	14992	539.87	1.17
363.23	19984	551.08	1.21
363.23	25007	560.75	1.26
363.23	29987	569.21	1.31
363.23	34996	576.84	1.35
368.23	2186	485.16	1.01
368.23	4992	500.2	1.05
368.23	9984	519.43	1.11
368.23	14990	533.92	1.16
368.23	29990	564.54	1.3
368.24	19992	545.7	1.21
368.24	25001	555.77	1.25
368.24	35000	572.42	1.35
373.23	2351	475.57	0.99
373.23	29996	559.86	1.3
373.23	34996	567.99	1.34
373.24	4995	491.52	1.03
373.24	9984	512.47	1.1
373.24	14991	527.88	1.15
373.24	19998	540.27	1.2
373.24	25004	550.75	1.25
373.24	39995	575.36	1.39
378.24	2531	465.5	0.98
378.24	4999	482.41	1.01
378.24	9996	505.39	1.08
378.24	14983	521.73	1.14
378.24	19996	534.78	1.19
378.24	25004	545.72	1.24
378.24	29995	555.17	1.29
378.24	34988	563.54	1.34
383.24	2689	454.37	0.95
383.24	4984	472.67	1
383.24	9995	498.07	1.07
383.24	14986	515.53	1.13
383.24	20004	529.26	1.19
383.24	25006	540.65	1.24
383.24	29986	550.43	1.29
383.24	34992	559.1	1.34
388.24	2901	443.01	0.94
388.24	4994	462.48	0.98
388.24	9997	490.56	1.06
388.24	14986	509.22	1.12
388.24	19997	523.66	1.18
388.24	25009	535.55	1.23
388.24	29994	545.71	1.28
388.24	35003	554.67	1.33
393.24	3122	430.77	0.92
393.24	4982	451.26	0.96
393.24	9992	482.81	1.04
393.24	14983	502.79	1.11
393.24	20002	518.03	1.17
393.24	25003	530.42	1.23
393.24	29986	540.94	1.28
393.24	34999	550.22	1.33
398.24	3358	417.5	0.9
398.24	4991	439.31	0.93
398.24	10000	474.88	1.02
398.24	15001	496.33	1.1
398.24	19996	512.31	1.16
398.24	24996	525.25	1.22
398.24	30012	536.21	1.27
398.24	35008	545.78	1.33
403.24	3596	402.69	0.89
403.24	4988	426.04	0.91
403.24	14999	489.7	1.09
403.24	19992	506.53	1.16
403.24	24997	520.05	1.22
403.24	30004	531.43	1.27
403.24	34985	541.26	1.32
403.25	9993	466.62	1.01
408.24	3850	386.28	0.89
408.24	4991	411.13	0.92
408.24	14992	482.94	1.07
408.24	19999	500.74	1.15
408.24	24999	514.84	1.21
408.24	30000	526.63	1.27
408.25	9982	458.05	0.99
408.25	34995	536.8	1.32
413.24	4118	367.6	0.91
413.24	30005	521.83	1.26
413.24	35003	532.34	1.32
413.25	4983	393.59	0.92
413.25	9996	449.33	0.98
413.25	14993	476.09	1.06
413.25	19996	494.87	1.14
413.25	24999	509.59	1.2
418.24	4397	346.27	1.09
418.24	4989	372.46	0.97
418.24	14988	469.1	1.04
418.24	19991	488.93	1.13
418.24	24993	504.3	1.2
418.25	9999	440.27	0.96
418.25	30007	517.01	1.26
418.25	34986	527.81	1.32
423.24	5018	345.72	0.87
423.24	19992	482.96	1.11
423.24	30010	512.18	1.26
423.25	9984	430.4	0.94
423.25	14989	462	1.03
423.25	25000	499.02	1.19
423.25	34992	523.34	1.31
423.25	39996	533.35	1.37
428.24	5018	303.01	0.98
428.24	24987	493.65	1.18
428.24	34996	518.85	1.31
428.25	9990	420.58	0.93
428.25	14983	454.76	1.01
428.25	19986	476.9	1.1
428.25	30000	507.31	1.25
433.24	5019	233.56	0.96
433.25	9991	410.25	0.93
433.25	14996	447.46	1
433.25	19984	470.79	1.09
433.25	24991	488.3	1.17
433.25	30001	502.44	1.25
433.25	34994	514.34	1.31
438.25	5019	183.56	0.78
438.25	9997	399.54	0.92
438.25	14998	440.02	0.98
438.25	19984	464.66	1.07
438.25	24988	482.93	1.16
438.25	30000	497.59	1.24
438.25	34992	509.86	1.31
443.25	5019	159.03	0.68
443.25	9994	388.26	0.91
443.25	14989	432.39	0.97
443.25	20002	458.54	1.06
443.25	24984	477.51	1.15
443.25	29996	492.7	1.23
443.25	34994	505.36	1.31
448.25	5018	144.08	0.66
448.25	9996	376.53	0.89
448.25	14997	424.77	0.95
448.25	19999	452.29	1.05
448.25	24998	472.14	1.13
448.25	29994	487.82	1.22
448.25	35009	500.91	1.3
453.25	5016	133.47	0.64
453.25	9986	364.19	0.87
453.25	14989	416.85	0.94
453.25	19999	446.01	1.03
453.25	25000	466.69	1.12
453.25	29993	482.93	1.21
453.25	35004	496.39	1.29
458.25	5017	125.47	0.61
458.25	9993	351.66	0.85
458.25	14983	408.65	0.92
458.25	19987	439.63	1.02
458.25	25004	461.27	1.11
458.25	29988	478.03	1.2
458.25	34987	491.88	1.28
463.25	5016	119.04	0.59
463.25	9981	338.41	0.82
463.25	14994	400.72	0.91
463.25	19983	433.24	1.01
463.25	25001	455.8	1.1
463.25	29987	473.13	1.19
463.25	34998	487.42	1.27
463.25	39991	499.76	1.36
468.25	5015	113.61	0.57
468.25	9993	325.38	0.8
468.25	14991	392.57	0.89
468.25	19999	426.94	0.99
468.25	24992	450.29	1.09
468.25	29998	468.26	1.17
468.25	34985	482.91	1.26
473.25	5018	109.13	0.55
473.25	9986	311.87	0.77
473.25	14992	384.37	0.88
473.25	20001	420.52	0.98
473.25	24988	444.78	1.07
473.25	29996	463.37	1.16
473.25	34999	478.46	1.25
478.25	5019	105.12	0.52
478.25	9988	298.62	0.74
478.25	14996	376.12	0.86
478.25	19999	414.08	0.97
478.25	24987	439.29	1.06
478.25	30005	458.51	1.15
478.25	34997	474	1.24
483.25	5019	101.57	0.5
483.25	9988	285.6	0.72
483.25	14984	367.69	0.84
483.25	19990	407.57	0.95
483.25	24996	433.89	1.05
483.25	29989	453.63	1.14
483.25	35003	469.59	1.23
488.24	4981	97.35	0.48
488.24	20000	401.24	0.94
488.25	9987	273.08	0.69
488.25	14983	359.4	0.83
488.25	24997	428.38	1.04
488.25	30002	448.75	1.13
488.25	35005	465.15	1.22
493.24	4981	94.56	0.46
493.24	9988	261.21	0.67
493.24	14986	351.12	0.81
493.24	19989	394.84	0.93
493.24	24992	422.89	1.03
493.24	30006	443.91	1.12
493.24	35002	460.71	1.21
498.24	5019	92.91	0.44
498.24	19995	387.94	0.91
498.24	30000	439.07	1.11
498.25	9984	249.88	0.64
498.25	14995	342.92	0.8
498.25	24992	417.4	1.02
498.25	34999	456.28	1.2
503.24	4997	90.01	0.42
503.24	9991	239.72	0.62
503.24	14990	334.64	0.78
503.24	19984	381.57	0.9
503.24	24988	411.94	1.01
503.24	30005	434.24	1.1
503.24	34991	451.87	1.19
503.24	39995	466.57	1.29
508.24	5016	88.26	0.4
508.24	9990	230.13	0.6
508.24	14990	326.56	0.77
508.24	19994	375.29	0.89
508.24	24991	406.52	0.99
508.24	30000	429.41	1.09
508.24	34996	447.5	1.19
508.24	39992	462.51	1.28
513.24	5016	86.21	0.39
513.24	9990	221.29	0.58
513.24	14992	318.59	0.75
513.24	19996	368.96	0.88
513.24	24989	401.13	0.98
513.24	30003	424.62	1.08
513.24	35008	443.17	1.18
513.24	39996	458.53	1.27
518.23	5016	84.36	0.37
518.24	9992	213.29	0.56
518.24	14986	310.73	0.74
518.24	19995	362.67	0.87
518.24	24992	395.78	0.97
518.24	29993	419.86	1.07
518.24	34991	438.82	1.17
518.24	39999	454.51	1.26
523.23	5019	82.65	0.36
523.23	9982	205.67	0.57
523.23	14990	303.2	0.77
523.23	19986	356.38	0.86
523.23	24989	390.45	0.97
523.23	29998	415.17	1.07
523.23	39987	450.55	1.25
523.24	34992	434.55	1.16

System: (Z)-2-butene; phases: Liquid, Gas
Property: Critical pressure, kPa (Liquid); method: DIRECT:FP
Critical pressure, kPa	uncertainty
4225.5	10.6

System: (Z)-2-butene; phases: Liquid, Gas
Property: Critical temperature, K (Liquid); method: VISOBSS:FP
Critical temperature, K	uncertainty
435.75	0.11

System: (Z)-2-butene; phases: Liquid, Gas
Property: Critical density, kg/m3 (Liquid); method: visual observation in a variable volume cell:FP
Critical density, kg/m3	uncertainty
238.12	4.76

System: (Z)-2-butene; phases: Liquid, Gas
Property: Vapor or sublimation pressure, kPa (Liquid); method: CCELL:UFactor:4
Temperature, K	Vapor or sublimation pressure, kPa	uncertainty
290.72	166.5	1.15
297.95	212.17	1.43
306.92	280.95	1.87
316.39	369.5	2.44
326.09	483.32	3.14
331.25	549.64	3.58
335.93	625.67	4.06
344.91	767.01	5.71
345.17	778.59	5.77
353.84	949.22	6.1
364.75	1196.63	7.62
367.83	1274.29	8.15
376.36	1508.8	9.58
380.95	1643.17	10.45
382.47	1703.67	10.95
390.94	1987.95	12.61
396.4	2209.29	13.98
400.36	2343.18	14.86
407.79	2693.73	17.05
414.25	3004.62	18.94
416.29	3089.47	19.55
422.73	3456.31	21.8
425.59	3598.38	22.67
430.42	3884.67	24.48
433.88	4101.06	25.82

System: (Z)-2-butene; phases: Fluid (supercritical or subcritical phases)
Property: Mass density, kg/m3 (Fluid (supercritical or subcritical phases)); method: Vibrating tube method
Temperature, K	Pressure, kPa	Mass density, kg/m3	uncertainty
273.24	530	644.99	1.3
273.24	5019	650.08	1.32
273.24	10002	655.33	1.34
273.24	15013	660.23	1.36
273.24	19996	664.79	1.39
273.24	24988	669.08	1.41
273.24	29997	673.15	1.43
273.24	35005	677.01	1.46
273.24	39991	680.66	1.49
278.25	531	639.3	1.29
278.25	4987	644.61	1.31
278.25	10000	650.13	1.33
278.25	15004	655.23	1.35
278.25	19984	659.97	1.38
278.25	25004	664.45	1.4
278.25	30003	668.65	1.43
278.25	34993	672.62	1.45
278.25	39994	676.39	1.48
283.26	528	633.56	1.28
283.26	5005	639.17	1.3
283.26	9984	644.91	1.32
283.26	14999	650.24	1.35
283.26	19995	655.17	1.37
283.26	25010	659.81	1.4
283.26	29992	664.14	1.42
283.26	35004	668.25	1.45
283.26	39997	672.15	1.48
288.27	531	627.75	1.27
288.27	4995	633.64	1.29
288.27	10005	639.69	1.31
288.27	14999	645.22	1.34
288.27	20014	650.37	1.36
288.27	25005	655.16	1.39
288.27	29991	659.64	1.42
288.27	34992	663.87	1.44
288.27	40003	667.9	1.47
293.28	532	621.87	1.26
293.28	4990	628.07	1.28
293.28	10006	634.4	1.3
293.28	20011	645.53	1.35
293.28	25006	650.48	1.38
293.28	30000	655.14	1.41
293.28	34996	659.52	1.44
293.28	39986	663.65	1.47
293.29	14995	640.16	1.33
298.29	29993	650.63	1.4
298.3	528	615.89	1.25
298.3	5009	622.46	1.27
298.3	9991	629.06	1.29
298.3	14998	635.11	1.32
298.3	20004	640.67	1.35
298.3	24996	645.82	1.37
298.3	34987	655.14	1.43
298.3	40002	659.43	1.46
303.31	568	609.88	1.23
303.31	4986	616.72	1.26
303.31	9987	623.69	1.28
303.31	15011	630.03	1.31
303.31	20004	635.8	1.34
303.31	25003	641.15	1.37
303.31	29993	646.12	1.4
303.31	34986	650.78	1.43
303.31	40003	655.2	1.46
308.32	610	603.77	1.22
308.32	5003	610.96	1.25
308.32	9990	618.26	1.27
308.32	14985	624.84	1.3
308.32	19996	630.86	1.33
308.32	24991	636.41	1.36
308.32	29986	641.56	1.39
308.32	34983	646.37	1.42
308.32	40002	650.92	1.45
313.2	842	598.01	1.21
313.2	25002	631.74	1.35
313.21	4983	605.15	1.24
313.21	9999	612.86	1.26
313.21	14998	619.73	1.29
313.21	19993	625.98	1.32
313.21	29990	637.05	1.39
313.21	34989	642.02	1.42
313.21	39990	646.68	1.45
318.21	898	591.77	1.2
318.21	4989	599.26	1.23
318.21	9999	607.36	1.25
318.21	14989	614.54	1.29
318.21	19986	621.05	1.32
318.21	24990	627.03	1.35
318.21	30002	632.56	1.38
318.21	34994	637.68	1.41
318.21	39987	642.47	1.45
323.21	965	585.41	1.19
323.21	4984	593.22	1.21
323.21	9985	601.76	1.25
323.21	14986	609.3	1.28
323.21	20004	616.11	1.31
323.21	25000	622.31	1.34
323.21	29993	628.01	1.37
323.21	34993	633.32	1.41
323.21	40000	638.29	1.44
328.21	14983	604.03	1.27
328.21	25010	617.59	1.33
328.21	34998	628.95	1.4
328.21	40002	634.07	1.44
328.22	1031	578.91	1.18
328.22	4985	587.11	1.2
328.22	9992	596.13	1.24
328.22	19995	611.12	1.3
328.22	29991	623.48	1.37
333.22	1102	572.28	1.16
333.22	4993	580.89	1.19
333.22	10002	590.44	1.23
333.22	14991	598.72	1.26
333.22	19994	606.12	1.29
333.22	24988	612.8	1.33
333.22	30003	618.94	1.36
333.22	34991	624.59	1.4
333.22	40010	629.87	1.43
338.22	1174	565.5	1.15
338.22	4996	574.54	1.18
338.22	9996	584.64	1.22
338.22	14984	593.34	1.25
338.22	19986	601.06	1.29
338.22	25003	608.03	1.32
338.22	29995	614.37	1.36
338.22	34988	620.2	1.39
338.22	39995	625.64	1.43
343.22	1261	558.56	1.14
343.22	4987	568.03	1.17
343.22	9997	578.77	1.21
343.22	14987	587.91	1.24
343.22	19988	595.98	1.28
343.22	25014	603.24	1.32
343.22	30005	609.78	1.35
343.22	34992	615.82	1.39
343.22	40014	621.42	1.43
348.22	1356	551.46	1.13
348.22	4981	561.37	1.16
348.22	10002	572.81	1.2
348.22	14996	582.44	1.23
348.22	19993	590.86	1.27
348.22	25004	598.39	1.31
348.22	30012	605.19	1.35
348.22	34983	611.41	1.38
348.22	39993	617.18	1.42
353.22	1456	544.16	1.11
353.22	5002	554.62	1.14
353.22	14994	576.89	1.22
353.22	19998	585.7	1.26
353.22	24991	593.51	1.3
353.22	29987	600.55	1.34
353.22	34994	606.99	1.38
353.22	40002	612.94	1.42
353.23	10003	566.75	1.18
358.22	1569	536.68	1.1
358.22	4987	547.6	1.13
358.22	9992	560.57	1.17
358.22	15002	571.3	1.22
358.22	19998	580.5	1.26
358.22	24995	588.63	1.3
358.22	29992	595.93	1.34
358.22	34990	602.57	1.38
358.22	40000	608.7	1.42
363.23	1690	528.95	1.09
363.23	4993	540.42	1.12
363.23	9989	554.28	1.16
363.23	15000	565.61	1.21
363.23	19996	575.23	1.25
363.23	25014	583.72	1.29
363.23	29996	591.25	1.33
363.23	34991	598.13	1.37
363.23	40007	604.46	1.41
368.22	1794	520.86	1.07
368.22	4994	533.05	1.11
368.22	9998	547.94	1.15
368.22	15001	559.86	1.2
368.22	20006	569.97	1.24
368.22	24996	578.78	1.28
368.22	30000	586.63	1.33
368.23	35006	593.73	1.37
368.23	40001	600.21	1.41
373.23	1956	512.69	1.06
373.23	5016	525.44	1.09
373.23	10014	541.44	1.14
373.23	15017	554.07	1.19
373.23	20017	564.64	1.23
373.23	25015	573.81	1.28
373.23	30004	581.92	1.32
373.23	35002	589.24	1.36
373.23	39988	595.91	1.41
378.23	2103	504.11	1.04
378.23	5016	517.48	1.08
378.23	9997	534.7	1.13
378.23	15005	548.12	1.18
378.23	19992	559.18	1.23
378.23	24999	568.75	1.27
378.23	29991	577.18	1.32
378.23	34989	584.74	1.36
378.23	39985	591.64	1.4
383.23	2265	495.17	1.03
383.23	4994	509.13	1.06
383.23	9994	527.89	1.12
383.23	15008	542.15	1.17
383.23	20012	553.81	1.22
383.23	24996	563.74	1.26
383.23	29984	572.46	1.31
383.23	34981	580.28	1.36
383.23	40007	587.41	1.4
388.23	2438	485.86	1.01
388.23	4986	500.47	1.05
388.23	9987	520.91	1.11
388.23	14983	536.02	1.16
388.23	19990	548.28	1.21
388.23	24990	558.67	1.26
388.23	30000	567.77	1.31
388.23	34996	575.85	1.35
388.23	39999	583.17	1.4
393.23	2620	476.09	0.99
393.23	4998	491.49	1.03
393.23	9997	513.82	1.1
393.23	15000	529.93	1.15
393.23	20002	542.79	1.2
393.23	24993	553.61	1.25
393.23	29998	563	1.3
393.23	35001	571.39	1.35
393.23	39987	578.89	1.39
398.23	2818	466.01	0.98
398.23	4984	481.85	1.01
398.23	20014	537.23	1.2
398.23	25003	548.52	1.25
398.23	34998	566.9	1.34
398.23	39994	574.66	1.39
398.24	9988	506.47	1.09
398.24	14995	523.68	1.14
398.24	29983	558.24	1.3
403.23	3025	454.7	0.96
403.23	14991	517.31	1.13
403.23	25002	543.35	1.24
403.23	29989	553.46	1.29
403.23	34986	562.37	1.34
403.23	39984	570.38	1.39
403.24	4991	471.74	1
403.24	9985	498.93	1.07
403.24	20009	531.6	1.19
408.23	14993	510.87	1.13
408.23	29988	548.67	1.29
408.23	39992	566.14	1.39
408.24	3245	443.06	0.94
408.24	5000	461.02	0.98
408.24	10003	491.26	1.06
408.24	20000	525.89	1.18
408.24	25002	538.19	1.24
408.24	35001	557.91	1.34
413.23	34991	553.36	1.33
413.23	39999	561.87	1.38
413.24	3479	430.52	0.92
413.24	4987	448.83	0.95
413.24	9995	483.23	1.04
413.24	14993	504.29	1.12
413.24	20000	520.13	1.18
413.24	25001	532.97	1.23
413.24	29987	543.83	1.28
418.23	9989	474.95	1.03
418.23	29990	538.98	1.28
418.24	3727	416.94	0.91
418.24	4983	435.78	0.93
418.24	14999	497.65	1.11
418.24	19989	514.28	1.17
418.24	24991	527.69	1.22
418.24	35007	548.86	1.33
418.24	40000	557.55	1.38
423.24	3987	401.93	0.9
423.24	4998	421.22	0.93
423.24	9996	466.36	1.01
423.24	14993	490.76	1.09
423.24	19998	508.37	1.16
423.24	24983	522.32	1.22
423.24	30000	534.08	1.27
423.24	34984	544.2	1.33
423.24	39995	553.2	1.38
428.24	4261	385.43	0.91
428.24	4996	404.14	0.92
428.24	10003	457.53	0.99
428.24	14984	483.8	1.08
428.24	20011	502.46	1.15
428.24	24985	517	1.21
428.24	29987	529.17	1.27
428.24	34985	539.65	1.32
428.24	40008	548.93	1.38
433.24	4552	367.25	1.26
433.24	5002	383.51	0.93
433.24	9988	448.25	0.98
433.24	15006	476.83	1.06
433.24	20002	496.43	1.14
433.24	24994	511.67	1.21
433.24	29984	524.27	1.27
433.24	35007	535.14	1.32
433.24	39990	544.63	1.38
438.24	5016	356.57	0.89
438.24	9984	438.25	0.96
438.24	15001	469.64	1.05
438.24	20003	490.38	1.13
438.24	24991	506.29	1.2
438.24	29997	519.4	1.26
438.24	35007	530.6	1.32
438.24	39994	540.34	1.37
443.23	5019	312.48	1.08
443.24	10006	428.67	0.95
443.24	14981	462.28	1.03
443.24	20008	484.35	1.12
443.24	24985	500.93	1.2
443.24	29991	514.54	1.26
443.24	34987	526.05	1.32
443.24	39991	536.15	1.37
448.23	5020	224.32	1.06
448.24	9992	418.15	0.95
448.24	15006	454.98	1.02
448.24	20001	478.13	1.1
448.24	24996	495.5	1.19
448.24	30011	509.66	1.26
448.24	34990	521.51	1.32
448.24	39989	531.87	1.37
453.24	5018	172.57	0.79
453.24	9981	407.03	0.95
453.24	14999	447.35	1
453.24	20011	471.95	1.09
453.24	24994	490.05	1.18
453.24	29992	504.64	1.25
453.24	34997	516.94	1.31
453.24	39986	527.56	1.37
458.24	5019	150.54	0.7
458.24	9982	395.53	0.93
458.24	14988	439.55	0.99
458.24	20006	465.63	1.08
458.24	24985	484.52	1.16
458.24	30000	499.71	1.25
458.24	34991	512.34	1.31
458.24	39989	523.28	1.37
463.23	39987	519.02	1.37
463.24	5019	137.08	0.68
463.24	9986	383.54	0.91
463.24	14987	431.68	0.97
463.24	20001	459.21	1.06
463.24	24986	479.01	1.15
463.24	29986	494.71	1.24
463.24	34995	507.77	1.31
468.24	5018	127.59	0.66
468.24	10000	371.16	0.89
468.24	14996	423.86	0.96
468.24	20007	452.9	1.05
468.24	24993	473.52	1.14
468.24	29993	489.76	1.23
468.24	34996	503.22	1.31
468.24	40007	514.77	1.37
473.23	5018	120.28	0.64
473.24	9991	357.88	0.87
473.24	14997	415.28	0.94
473.24	20004	446.42	1.04
473.24	25004	467.94	1.13
473.24	30000	484.78	1.22
473.24	34996	498.62	1.3
473.24	39991	510.47	1.37
478.23	14995	407.2	0.92
478.23	19994	439.87	1.02
478.23	25001	462.4	1.12
478.23	35013	494.09	1.29
478.23	39992	506.21	1.37
478.24	5015	114.19	0.61
478.24	9987	344.22	0.84
478.24	29999	479.77	1.21
483.23	5018	109.23	0.59
483.23	19992	433.21	1.01
483.24	10014	330.62	0.82
483.24	14991	398.7	0.91
483.24	25005	456.72	1.1
483.24	29995	474.68	1.19
483.24	34999	489.39	1.28
483.24	39992	501.87	1.37
488.23	5019	104.99	0.56
488.23	19987	426.61	1
488.23	25005	451.11	1.09
488.23	29989	469.66	1.18
488.23	34990	484.81	1.27
488.23	39992	497.63	1.36
488.24	10014	316.46	0.79
488.24	15002	390.34	0.89
493.23	5016	101.23	0.54
493.23	9986	301.65	0.76
493.23	14996	381.74	0.88
493.23	19990	420.02	0.98
493.23	24987	445.42	1.08
493.23	29998	464.71	1.17
493.23	35003	480.29	1.26
493.23	40013	493.44	1.35
498.23	5018	97.97	0.51
498.23	9985	287.72	0.73
498.23	14994	373.12	0.86
498.23	19993	413.38	0.97
498.23	24997	439.84	1.07
498.23	29994	459.71	1.16
498.23	35006	475.76	1.25
498.23	40006	489.2	1.35
503.23	5019	95.03	0.49
503.23	10004	274.87	0.7
503.23	14996	364.53	0.84
503.23	20003	406.9	0.96
503.23	24990	434.25	1.06
503.23	29984	454.72	1.15
503.23	34985	471.2	1.24
503.23	39993	485.02	1.34
508.23	5019	92.41	0.46
508.23	9990	262	0.68
508.23	15002	356.04	0.83
508.23	19984	400.28	0.94
508.23	25008	428.76	1.05
508.23	29983	449.83	1.14
508.23	35004	466.79	1.23
508.23	40004	480.91	1.33
513.23	5014	89.94	0.44
513.23	9984	250.08	0.65
513.23	14990	347.39	0.81
513.23	19997	393.83	0.93
513.23	25007	423.21	1.04
513.23	29985	444.89	1.13
513.23	35002	462.3	1.23
513.23	40010	476.76	1.32
518.22	5019	87.78	0.42
518.22	14988	338.79	0.8
518.22	25002	417.6	1.02
518.22	30005	440.02	1.12
518.22	39988	472.55	1.31
518.23	9996	239.51	0.63
518.23	20004	386.86	0.92
518.23	34991	457.76	1.22
523.22	5019	85.68	0.41
523.22	9990	229.24	0.66
523.22	14985	330.32	0.83
523.22	25011	412.04	1.02
523.22	29990	435.04	1.11
523.22	34984	453.26	1.21
523.22	40013	468.46	1.3
523.23	20001	380.33	0.92

System: (E)-2-butene; phases: Liquid, Gas
Property: Critical pressure, kPa (Liquid); method: DIRECT:FP
Critical pressure, kPa	uncertainty
4027.3	10.6

System: (E)-2-butene; phases: Liquid, Gas
Property: Critical temperature, K (Liquid); method: VISOBSS:FP
Critical temperature, K	uncertainty
428.61	0.11

System: (E)-2-butene; phases: Liquid, Gas
Property: Critical density, kg/m3 (Liquid); method: visual observation in a variable volume cell:FP
Critical density, kg/m3	uncertainty
236.4	4.73

System: (E)-2-butene; phases: Liquid, Gas
Property: Vapor or sublimation pressure, kPa (Liquid); method: CCELL:UFactor:2
Temperature, K	Vapor or sublimation pressure, kPa	uncertainty
274.84	105.09	0.48
278.8	122.11	0.52
283.68	145.21	0.59
287.85	167.86	0.67
292.59	196.47	0.76
296.57	221.89	0.89
307.78	313.51	1.16
313.09	365.29	1.35
318.13	418.65	1.56
327.87	543.04	1.96
336.87	680.67	2.42
345.89	842.53	2.97
354.94	1035.43	3.59
363.31	1234.95	4.25
372.35	1486.49	5.03
376.81	1618.17	5.49
381.64	1778.37	6.01
385.75	1920.41	6.49
391.25	2128.92	7.15
396.15	2323.13	7.77
401.02	2529.75	8.44
405.96	2755.81	9.19
411.21	3015.98	10.04
416.99	3326.01	11.04
423.45	3697.04	12.16

System: (E)-2-butene; phases: Fluid (supercritical or subcritical phases)
Property: Mass density, kg/m3 (Fluid (supercritical or subcritical phases)); method: Vibrating tube method
Temperature, K	Pressure, kPa	Mass density, kg/m3	uncertainty
273.24	553	627.87	1.27
273.24	4992	633.27	1.29
273.24	9995	638.88	1.31
273.24	14991	644.04	1.33
273.24	19997	648.86	1.36
273.24	24996	653.38	1.39
273.24	29993	657.62	1.41
273.24	34997	661.64	1.44
273.24	39989	665.43	1.47
278.25	553	622.2	1.26
278.25	4990	627.88	1.28
278.25	10005	633.76	1.3
278.25	15007	639.16	1.33
278.25	20007	644.16	1.35
278.25	24990	648.82	1.38
278.25	30005	653.23	1.41
278.25	34987	657.36	1.44
278.25	40004	661.3	1.46
283.26	551	616.48	1.25
283.26	4990	622.46	1.27
283.26	9993	628.6	1.29
283.26	15009	634.25	1.32
283.26	20003	639.45	1.34
283.26	24994	644.29	1.37
283.26	29985	648.83	1.4
283.26	35008	653.12	1.43
283.26	40005	657.17	1.46
288.27	548	610.68	1.24
288.27	4995	616.99	1.26
288.27	9994	623.43	1.28
288.27	14992	629.3	1.31
288.27	19992	634.71	1.34
288.27	24999	639.75	1.37
288.27	29993	644.44	1.4
288.27	34985	648.85	1.43
288.27	40007	653.04	1.46
293.28	550	604.8	1.22
293.28	4985	611.45	1.25
293.28	9991	618.21	1.27
293.28	14993	624.34	1.3
293.28	19997	629.98	1.33
293.28	24993	635.19	1.36
293.28	29998	640.06	1.39
293.28	35013	644.64	1.42
293.28	39998	648.92	1.45
298.29	551	598.83	1.21
298.29	4989	605.85	1.24
298.29	14986	619.36	1.29
298.29	19984	625.21	1.32
298.29	25012	630.65	1.35
298.29	29999	635.67	1.38
298.29	34986	640.36	1.42
298.29	39987	644.79	1.45
298.3	9994	612.96	1.26
303.3	590	592.81	1.2
303.3	4982	600.18	1.23
303.3	9998	607.66	1.26
303.3	19987	620.43	1.32
303.3	25004	626.07	1.35
303.3	29998	631.26	1.38
303.3	35005	636.13	1.41
303.31	15001	614.35	1.28
303.31	39999	640.69	1.44
308.31	635	586.69	1.19
308.31	4989	594.43	1.22
308.32	10005	602.29	1.25
308.32	14996	609.28	1.28
308.32	19995	615.63	1.31
308.32	24994	621.44	1.34
308.32	29983	626.82	1.37
308.32	35009	631.86	1.41
308.32	39996	636.54	1.44
313.2	869	580.91	1.18
313.21	4996	588.66	1.21
313.21	10004	596.91	1.24
313.21	14989	604.2	1.27
313.21	20008	610.83	1.3
313.21	24999	616.85	1.33
313.21	29996	622.41	1.37
313.21	34992	627.58	1.4
313.21	39986	632.41	1.44
318.21	939	574.67	1.17
318.21	5000	582.76	1.19
318.21	9985	591.43	1.23
318.21	14990	599.1	1.26
318.21	20004	605.99	1.29
318.21	25005	612.25	1.33
318.21	29987	617.99	1.36
318.21	34986	623.33	1.4
318.21	39990	628.31	1.43
323.22	1000	568.23	1.16
323.22	4994	576.71	1.18
323.22	9997	585.9	1.22
323.22	14997	593.93	1.25
323.22	19997	601.1	1.29
323.22	24992	607.59	1.32
323.22	30007	613.57	1.36
323.22	34983	619.06	1.39
323.22	39993	624.2	1.43
328.22	1068	561.65	1.14
328.22	4987	570.54	1.17
328.22	9989	580.26	1.21
328.22	14994	588.69	1.24
328.22	19994	596.17	1.28
328.22	24990	602.92	1.31
328.22	30006	609.12	1.35
328.22	34984	614.78	1.39
328.22	39992	620.09	1.43
333.22	1143	554.92	1.13
333.22	5001	564.29	1.16
333.22	9997	574.58	1.2
333.22	15004	583.44	1.23
333.22	19992	591.23	1.27
333.22	25005	598.27	1.31
333.22	30004	604.66	1.35
333.22	35005	610.54	1.38
333.22	39985	615.98	1.42
338.22	1226	548.04	1.12
338.22	4986	557.85	1.15
338.22	10000	568.81	1.19
338.22	15000	578.1	1.23
338.22	20000	586.27	1.26
338.22	25000	593.57	1.3
338.22	29994	600.18	1.34
338.22	35008	606.28	1.38
338.22	39996	611.89	1.42
343.22	1315	540.98	1.11
343.22	29988	595.68	1.34
343.22	34990	601.95	1.38
343.22	39986	607.75	1.41
343.23	4999	551.32	1.14
343.23	10003	562.95	1.18
343.23	14999	572.73	1.22
343.23	19997	581.25	1.26
343.23	25007	588.85	1.3
348.23	1414	533.71	1.09
348.23	4992	544.57	1.13
348.23	10005	556.98	1.17
348.23	14992	567.27	1.21
348.23	19998	576.19	1.25
348.23	25013	584.1	1.29
348.23	29992	591.18	1.33
348.23	35003	597.68	1.37
348.23	39996	603.63	1.41
353.23	1522	526.23	1.08
353.23	4999	537.68	1.11
353.23	9984	550.87	1.16
353.23	14991	561.76	1.2
353.23	20002	571.1	1.24
353.23	25003	579.31	1.28
353.23	30000	586.67	1.33
353.23	35004	593.37	1.37
353.23	39995	599.51	1.41
358.23	1641	518.52	1.07
358.23	4984	530.51	1.1
358.23	10005	544.73	1.15
358.23	14998	556.2	1.19
358.23	20004	565.97	1.24
358.23	24987	574.48	1.28
358.23	29994	582.12	1.32
358.23	35007	589.05	1.36
358.23	39996	595.37	1.41
363.23	1765	510.53	1.05
363.23	5001	523.21	1.09
363.23	9988	538.37	1.14
363.23	14981	550.47	1.18
363.23	19993	560.72	1.23
363.23	25001	569.62	1.27
363.23	30001	577.52	1.32
363.23	34991	584.64	1.36
363.23	40008	591.18	1.4
368.24	1900	502.25	1.04
368.24	4996	515.59	1.08
368.24	9996	531.94	1.13
368.24	14998	544.78	1.17
368.24	19997	555.48	1.22
368.24	25002	564.74	1.27
368.24	29994	572.92	1.31
368.24	35003	580.31	1.35
368.24	39988	587	1.4
373.23	2021	493.52	1.02
373.23	4987	507.69	1.06
373.23	9991	525.4	1.12
373.23	14991	538.98	1.17
373.23	19999	550.26	1.21
373.24	24990	559.83	1.26
373.24	29992	568.32	1.31
373.24	34981	575.91	1.35
373.24	39982	582.83	1.4
378.24	2209	484.69	1.01
378.24	5019	499.59	1.05
378.24	10006	518.69	1.11
378.24	14990	533.06	1.16
378.24	20005	544.87	1.21
378.24	25019	554.94	1.25
378.24	30003	563.71	1.3
378.24	34996	571.57	1.35
378.24	40001	578.7	1.39
383.24	2379	475.33	0.99
383.24	5004	490.95	1.03
383.24	10000	511.79	1.09
383.24	14991	527.07	1.15
383.24	19991	539.46	1.2
383.24	24987	549.92	1.25
383.24	30002	559.07	1.3
383.24	34999	567.19	1.34
383.24	39984	574.5	1.39
388.24	2560	465.51	0.97
388.24	4995	481.89	1.01
388.24	9989	504.7	1.08
388.24	15004	521.06	1.14
388.24	20002	534.05	1.19
388.24	25003	544.95	1.24
388.24	29994	554.4	1.29
388.24	34999	562.8	1.34
388.24	39985	570.33	1.39
393.24	2756	454.89	0.96
393.24	10003	497.51	1.07
393.24	19992	528.52	1.18
393.24	24995	539.91	1.24
393.24	29988	549.71	1.29
393.24	34990	558.37	1.34
393.24	39993	566.17	1.39
393.25	4997	472.39	1
393.25	14998	514.88	1.13
398.24	2959	443.84	0.94
398.24	4981	462.17	0.98
398.24	19993	522.99	1.18
398.24	24990	534.84	1.23
398.24	29994	545.03	1.28
398.24	34989	553.97	1.33
398.24	39985	561.98	1.38
398.25	9988	490.01	1.06
398.25	14985	508.6	1.12
403.24	3180	432.03	0.92
403.24	4993	451.14	0.96
403.24	20001	517.41	1.17
403.24	24988	529.74	1.23
403.24	29983	540.28	1.28
403.24	40005	557.82	1.38
403.25	9990	482.36	1.04
403.25	14985	502.24	1.11
403.25	34985	549.53	1.33
408.25	3414	419.31	0.9
408.25	4983	439.35	0.93
408.25	9983	474.42	1.02
408.25	14983	495.75	1.1
408.25	19999	511.74	1.16
408.25	24993	524.63	1.22
408.25	29986	535.55	1.27
408.25	35006	545.13	1.33
408.25	39984	553.58	1.38
413.25	3663	405.52	0.89
413.25	4996	426.54	0.91
413.25	9995	466.32	1.01
413.25	14985	489.18	1.09
413.25	19983	505.96	1.16
413.25	24984	519.43	1.22
413.25	30003	530.83	1.27
413.25	34985	540.64	1.32
413.25	39999	549.4	1.38
418.25	3926	390.44	0.88
418.25	5005	412.09	0.91
418.25	10002	457.93	0.99
418.25	14984	482.48	1.07
418.25	19988	500.19	1.15
418.25	25008	514.29	1.21
418.25	30007	526.05	1.27
418.25	34987	536.18	1.32
418.25	40000	545.19	1.38
423.25	4203	373.85	0.89
423.25	4985	394.86	0.91
423.25	9986	449.09	0.97
423.25	14991	475.65	1.06
423.25	20002	494.39	1.14
423.25	24993	509.02	1.2
423.25	30004	521.25	1.26
423.25	34988	531.71	1.32
423.25	39993	540.98	1.37
428.25	4495	355.87	1.16
428.25	4987	374.39	0.93
428.25	9990	440.12	0.96
428.25	14983	468.7	1.04
428.25	20010	488.52	1.13
428.25	24997	503.78	1.2
428.25	30004	516.44	1.26
428.25	34994	527.25	1.32
428.25	39986	536.76	1.37
433.25	5019	349.08	0.86
433.25	9991	430.38	0.94
433.25	14995	461.71	1.03
433.25	19998	482.53	1.11
433.25	25004	498.52	1.19
433.25	30001	511.61	1.26
433.25	34993	522.78	1.31
433.25	39997	532.57	1.37
438.25	5017	309.55	0.96
438.25	9985	420.62	0.93
438.25	14989	454.5	1.01
438.25	19998	476.52	1.1
438.25	25008	493.22	1.18
438.25	30004	506.79	1.25
438.25	34989	518.29	1.31
438.25	39985	528.34	1.37
443.25	5019	241.91	0.98
443.25	9986	410.38	0.93
443.25	14991	447.2	1
443.25	20002	470.46	1.09
443.25	25001	487.86	1.17
443.25	30002	501.91	1.25
443.25	34997	513.82	1.31
443.25	39989	524.15	1.37
448.25	5019	186.22	0.8
448.25	9990	399.76	0.92
448.25	14990	439.76	0.98
448.25	19992	464.3	1.07
448.25	24997	482.49	1.16
448.25	29990	497.07	1.24
448.25	34988	509.34	1.31
448.25	39987	519.97	1.37
453.25	5019	159.59	0.69
453.25	9992	388.61	0.91
453.25	14987	432.19	0.97
453.25	20001	458.19	1.06
453.25	24998	477.11	1.15
453.25	29995	492.22	1.23
453.25	34989	504.85	1.31
453.25	39997	515.79	1.37
458.25	5018	143.71	0.66
458.25	15001	424.61	0.95
458.25	20004	451.96	1.05
458.25	24994	471.69	1.13
458.25	30004	487.34	1.22
458.25	34994	500.33	1.3
458.25	40004	511.57	1.37
458.26	9992	376.95	0.89
463.25	5019	132.86	0.64
463.25	9998	364.93	0.87
463.25	14997	416.89	0.94
463.25	20001	445.66	1.03
463.25	24994	466.25	1.12
463.25	29992	482.44	1.21
463.25	34997	495.87	1.3
463.25	39985	507.37	1.37
468.25	5019	124.67	0.62
468.25	14984	408.44	0.92
468.25	19991	439.31	1.02
468.25	24990	460.78	1.11
468.25	29991	477.55	1.2
468.25	34993	491.38	1.28
468.25	39991	503.2	1.37
468.26	9993	352.22	0.85
473.25	5018	118.06	0.6
473.25	9998	339.4	0.83
473.25	15002	400.67	0.91
473.25	19991	432.96	1.01
473.25	24985	455.31	1.1
473.25	29991	472.65	1.19
473.25	35002	486.9	1.27
473.25	39993	499.03	1.36
478.25	5018	112.62	0.57
478.25	9993	326	0.8
478.25	14989	392.47	0.89
478.25	19985	426.52	0.99
478.25	25003	449.85	1.09
478.25	29992	467.75	1.18
478.25	35005	482.42	1.26
478.25	40012	494.85	1.35
483.25	5018	107.95	0.55
483.25	9988	312.49	0.77
483.25	14996	384.28	0.88
483.25	19982	420.06	0.98
483.25	25007	444.4	1.08
483.25	29987	462.83	1.16
483.25	35000	477.93	1.25
483.25	39990	490.66	1.34
488.25	5018	103.9	0.53
488.25	9985	299.1	0.75
488.25	14997	376.01	0.86
488.25	20002	413.74	0.97
488.25	25005	438.9	1.06
488.25	29988	457.94	1.15
488.25	34992	473.43	1.24
488.25	40013	486.57	1.33
493.25	5018	100.36	0.5
493.25	9986	285.99	0.72
493.25	14990	367.61	0.85
493.25	20001	407.28	0.95
493.25	25006	433.4	1.05
493.25	29986	453.04	1.14
493.25	35005	469.02	1.23
493.25	39997	482.38	1.33
498.25	5018	97.2	0.48
498.25	9992	273.51	0.7
498.25	14982	359.21	0.83
498.25	19993	400.8	0.94
498.25	25004	427.91	1.04
498.25	29983	448.16	1.13
498.25	35000	464.56	1.23
498.25	39994	478.26	1.32
503.25	5019	94.38	0.46
503.25	9995	261.54	0.67
503.25	14996	351.04	0.82
503.25	19991	394.38	0.93
503.25	25000	422.42	1.03
503.25	30008	443.38	1.12
503.25	35007	460.15	1.22
503.25	39992	474.14	1.31
508.25	5017	91.73	0.44
508.25	9986	249.99	0.64
508.25	14991	342.7	0.8
508.25	19987	387.81	0.92
508.25	24998	416.93	1.02
508.25	30007	438.53	1.11
508.25	34991	455.68	1.21
508.25	39996	470.06	1.3
513.25	5019	89.39	0.42
513.25	9982	239.32	0.62
513.25	14985	334.4	0.79
513.25	19985	381.11	0.9
513.25	24987	411.43	1.01
513.25	29999	433.67	1.1
513.25	34992	451.29	1.2
513.25	39993	465.98	1.29
518.24	30001	428.87	1.09
518.24	35000	446.94	1.19
518.25	5016	87.15	0.4
518.25	9990	229.8	0.6
518.25	14984	326.26	0.77
518.25	20002	374.92	0.89
518.25	24995	406.05	1
518.25	39988	461.92	1.28
523.24	24994	400.62	0.99
523.24	39996	457.91	1.27
523.25	5016	85.12	0.39
523.25	9982	220.69	0.63
523.25	14998	318.44	0.8
523.25	20000	368.56	0.89
523.25	29990	424.03	1.09
523.25	34989	442.55	1.18
