Measured thermophysical data. A model to calculate concentration-dependent surface tension of binary systems
Source: Fluid Phase Equilib., 2016, 10.1016/j.fluid.2016.04.007
Compound 1: glycerol, C3H8O3, InChI=1S/C3H8O3/c4-1-3(6)2-5/h3-6H,1-2H2, purity 99%
Compound 2: propan-2-ol, C3H8O, InChI=1S/C3H8O/c1-3(2)4/h3-4H,1-2H3, purity 99%
Compound 3: ethyl acetate, C4H8O2, InChI=1S/C4H8O2/c1-3-6-4(2)5/h3H2,1-2H3, purity 99%
Compound 4: N,N-dimethylethanamide, C4H9NO, InChI=1S/C4H9NO/c1-4(6)5(2)3/h1-3H3, purity 99%
Compound 5: dimethylformamide, C3H7NO, InChI=1S/C3H7NO/c1-4(2)3-5/h3H,1-2H3, purity 99%
Compound 6: butan-1-ol, C4H10O, InChI=1S/C4H10O/c1-2-3-4-5/h5H,2-4H2,1H3, purity 99%
Compound 7: water, H2O, InChI=1S/H2O/h1H2, purity 99.8%

System: glycerol + water; phases: Liquid, Air at 1 atmosphere
Property: Surface tension liquid-gas, N/m (Liquid); method: Wilhelmy plate method
Temperature, K	Mole fraction of glycerol	Surface tension liquid-gas, N/m	uncertainty
295.15	1	0.0636	0.0003
300.15	1	0.0633	0.0003
305.15	1	0.0629	0.0003
310.15	1	0.0626	0.0003
315.15	1	0.0621	0.0003
295.15	0.1	0.0694	0.0001
300.15	0.1	0.069	0.001
305.15	0.1	0.0678	0.0001
310.15	0.1	0.0674	0.0001
315.15	0.1	0.067	0.0001
295.15	0.09	0.0699	0.0001
300.15	0.09	0.0696	0.0001
305.15	0.09	0.0682	0.0001
310.15	0.09	0.0678	0.0001
315.15	0.09	0.0673	0.0001
295.15	0.08	0.0701	0.0001
300.15	0.08	0.0698	0.0001
305.15	0.08	0.0684	0.0001
310.15	0.08	0.0679	0.0001
315.15	0.08	0.0674	0.0001
295.15	0.07	0.0709	0.0001
300.15	0.07	0.0702	0.0001
305.15	0.07	0.069	0.0001
310.15	0.07	0.0684	0.0001
315.15	0.07	0.0678	0.0001
295.15	0.06	0.0711	0.0001
300.15	0.06	0.0704	0.0001
305.15	0.06	0.0692	0.0001
310.15	0.06	0.0685	0.0001
315.15	0.06	0.0679	0.0001
295.15	0.05	0.0711	0.0001
300.15	0.05	0.0706	0.0001
305.15	0.05	0.0693	0.0001
310.15	0.05	0.0686	0.0001
315.15	0.05	0.06795	8e-05
295.15	0.04	0.0713	0.0001
300.15	0.04	0.0708	0.0001
305.15	0.04	0.0695	0.0001
310.15	0.04	0.0689	0.0001
315.15	0.04	0.0682	0.0001
295.15	0.03	0.0715	0.0001
300.15	0.03	0.071	0.0001
305.15	0.03	0.0697	0.0001
310.15	0.03	0.0691	0.0001
315.15	0.03	0.0683	0.0001
295.15	0.02	0.0715	0.0001
300.15	0.02	0.0711	0.0001
305.15	0.02	0.0698	0.0001
310.15	0.02	0.0692	0.0001
315.15	0.02	0.0684	0.0001
295.15	0.01	0.0717	0.0001
300.15	0.01	0.0713	0.0001
305.15	0.01	0.07	0.0001
310.15	0.01	0.0695	0.0001
315.15	0.01	0.0686	0.0001
295.15	0	0.0724	0.0001
300.15	0	0.0715	0.0001
305.15	0	0.0708	0.0001
310.15	0	0.07	0.0001
315.15	0	0.0695	0.0001

System: propan-2-ol + water; phases: Liquid, Air at 1 atmosphere
Property: Surface tension liquid-gas, N/m (Liquid); method: Wilhelmy plate method
Temperature, K	Mole fraction of propan-2-ol	Surface tension liquid-gas, N/m	uncertainty
295.15	1	0.021	0.0001
300.15	1	0.02065	0.0001
305.15	1	0.0203	0.0001
310.15	1	0.02	0.0001
315.15	1	0.0195	0.0001
295.15	0.1	0.0421	0.0001
300.15	0.1	0.0418	0.0001
305.15	0.1	0.0412	0.0001
310.15	0.1	0.0409	0.0001
315.15	0.1	0.0404	0.0001
295.15	0.09	0.0439	0.0001
300.15	0.09	0.0434	0.0001
305.15	0.09	0.0431	0.0001
310.15	0.09	0.0426	0.0001
315.15	0.09	0.0423	0.0001
295.15	0.08	0.044	0.0001
300.15	0.08	0.0436	0.0001
305.15	0.08	0.0433	0.0001
310.15	0.08	0.0429	0.0001
315.15	0.08	0.0426	0.0001
295.15	0.07	0.0471	0.0001
300.15	0.07	0.0465	0.0001
305.15	0.07	0.046	0.0001
310.15	0.07	0.0457	0.0001
315.15	0.07	0.0453	0.0001
295.15	0.06	0.0487	0.0001
300.15	0.06	0.0482	0.0001
305.15	0.06	0.0476	0.0001
310.15	0.06	0.0473	0.0001
315.15	0.06	0.047	0.0001
295.15	0.05	0.0507	0.0001
300.15	0.05	0.0503	0.0001
305.15	0.05	0.0498	0.0001
310.15	0.05	0.0494	0.0001
315.15	0.05	0.0492	0.0001
295.15	0.04	0.0527	0.0001
300.15	0.04	0.0521	0.0001
305.15	0.04	0.0517	0.0001
310.15	0.04	0.0512	0.0001
315.15	0.04	0.0508	0.0001
295.15	0.03	0.0561	0.0001
300.15	0.03	0.0556	0.0001
305.15	0.03	0.0551	0.0001
310.15	0.03	0.0546	0.0001
315.15	0.03	0.0543	0.0001
295.15	0.02	0.0595	0.0001
300.15	0.02	0.0591	0.0001
305.15	0.02	0.0587	0.0001
310.15	0.02	0.0583	0.0001
315.15	0.02	0.0579	0.0001
295.15	0.01	0.0599	0.0002
300.15	0.01	0.0594	0.0001
305.15	0.01	0.059	0.0001
310.15	0.01	0.0586	0.0001
315.15	0.01	0.0581	0.0002
295.15	0	0.0724	0.0001
300.15	0	0.0715	0.0001
305.15	0	0.0708	0.0001
310.15	0	0.07	0.0001
315.15	0	0.0695	0.0001

System: ethyl acetate + water; phases: Liquid, Air at 1 atmosphere
Property: Surface tension liquid-gas, N/m (Liquid); method: Wilhelmy plate method
Temperature, K	Mole fraction of ethyl acetate	Surface tension liquid-gas, N/m	uncertainty
295.15	1	0.0236	0.0001
300.15	1	0.0232	0.0001
305.15	1	0.0228	0.0001
310.15	1	0.0224	0.0001
315.15	1	0.0221	0.0001
295.15	0.1	0.0333	0.0001
300.15	0.1	0.0328	0.0001
305.15	0.1	0.0322	0.0001
310.15	0.1	0.0318	0.0001
315.15	0.1	0.0315	0.0001
295.15	0.09	0.0345	0.0001
300.15	0.09	0.0342	0.0001
305.15	0.09	0.0339	0.0001
310.15	0.09	0.0336	0.0001
315.15	0.09	0.0333	0.0001
295.15	0.08	0.0358	0.0001
300.15	0.08	0.0356	0.0001
305.15	0.08	0.035	0.0001
310.15	0.08	0.0345	0.0001
315.15	0.08	0.0343	0.0001
295.15	0.07	0.0367	0.0001
300.15	0.07	0.0362	0.0001
305.15	0.07	0.0357	0.0001
310.15	0.07	0.0353	0.0001
315.15	0.07	0.035	0.0001
295.15	0.06	0.0372	0.0001
300.15	0.06	0.0366	0.0001
305.15	0.06	0.0362	0.0001
310.15	0.06	0.0357	0.0001
315.15	0.06	0.0355	0.0001
295.15	0.05	0.0377	0.0001
300.15	0.05	0.0373	0.0001
305.15	0.05	0.037	0.0001
310.15	0.05	0.0365	0.0001
315.15	0.05	0.0361	0.0001
295.15	0.04	0.0405	0.0001
300.15	0.04	0.04	0.0001
305.15	0.04	0.0396	0.0001
310.15	0.04	0.0393	0.0001
315.15	0.04	0.039	0.0001
295.15	0.03	0.0436	0.0001
300.15	0.03	0.0433	0.0001
305.15	0.03	0.0428	0.0001
310.15	0.03	0.0424	0.0001
315.15	0.03	0.0422	0.0001
295.15	0.02	0.0458	0.0001
300.15	0.02	0.0456	0.0001
305.15	0.02	0.0454	0.0001
310.15	0.02	0.045	0.0001
315.15	0.02	0.0447	0.0001
295.15	0.01	0.047	0.0003
300.15	0.01	0.0467	0.0001
305.15	0.01	0.0462	0.0001
310.15	0.01	0.0458	0.0001
315.15	0.01	0.0454	0.0003
295.15	0	0.0724	0.0001
300.15	0	0.0715	0.0001
305.15	0	0.0708	0.0001
310.15	0	0.07	0.0001
315.15	0	0.0695	0.0001

System: N,N-dimethylethanamide + water; phases: Liquid, Air at 1 atmosphere
Property: Surface tension liquid-gas, N/m (Liquid); method: Wilhelmy plate method
Temperature, K	Mole fraction of N,N-dimethylethanamide	Surface tension liquid-gas, N/m	uncertainty
295.15	1	0.0368	0.0002
300.15	1	0.0355	0.0002
305.15	1	0.0352	0.0002
310.15	1	0.0347	0.0002
315.15	1	0.0343	0.0002
295.15	0.1	0.0602	0.0001
300.15	0.1	0.0598	0.0001
305.15	0.1	0.0595	0.0001
310.15	0.1	0.059	0.0001
315.15	0.1	0.0587	0.0001
295.15	0.09	0.0609	0.0001
300.15	0.09	0.0606	0.0001
305.15	0.09	0.0603	0.0001
310.15	0.09	0.0599	0.0001
315.15	0.09	0.0593	0.0001
295.15	0.08	0.0617	0.0001
300.15	0.08	0.0612	0.0001
305.15	0.08	0.061	0.0001
310.15	0.08	0.0608	0.0001
315.15	0.08	0.0604	0.0001
295.15	0.07	0.0624	0.0001
300.15	0.07	0.0622	0.0001
305.15	0.07	0.0618	0.0001
310.15	0.07	0.0615	0.0001
315.15	0.07	0.0611	0.0001
295.15	0.06	0.063	0.0001
300.15	0.06	0.0625	0.0001
305.15	0.06	0.0622	0.0001
310.15	0.06	0.0618	0.0001
315.15	0.06	0.0614	0.0001
295.15	0.05	0.0635	0.0001
300.15	0.05	0.0631	0.0001
305.15	0.05	0.0627	0.0001
310.15	0.05	0.0625	0.0001
315.15	0.05	0.0622	0.0001
295.15	0.04	0.0638	0.0001
300.15	0.04	0.0635	0.0001
305.15	0.04	0.0631	0.0001
310.15	0.04	0.0629	0.0001
315.15	0.04	0.0626	0.0001
295.15	0.03	0.0654	0.0001
300.15	0.03	0.0651	0.0001
305.15	0.03	0.0646	0.0001
310.15	0.03	0.0642	0.0001
315.15	0.03	0.0639	0.0001
295.15	0.02	0.0668	0.0001
300.15	0.02	0.0664	0.0001
305.15	0.02	0.0658	0.0001
310.15	0.02	0.0655	0.0001
315.15	0.02	0.0651	0.0001
295.15	0.01	0.0685	0.0001
300.15	0.01	0.068	0.0001
305.15	0.01	0.0675	0.0001
310.15	0.01	0.0671	0.0001
315.15	0.01	0.0666	0.0001
295.15	0	0.0724	0.0001
300.15	0	0.0715	0.0001
305.15	0	0.0708	0.0001
310.15	0	0.07	0.0001
315.15	0	0.0695	0.0001

System: dimethylformamide + water; phases: Liquid, Air at 1 atmosphere
Property: Surface tension liquid-gas, N/m (Liquid); method: Wilhelmy plate method
Temperature, K	Mole fraction of dimethylformamide	Surface tension liquid-gas, N/m	uncertainty
295.15	1	0.0364	0.0002
300.15	1	0.0344	0.0002
305.15	1	0.0333	0.0002
310.15	1	0.0324	0.0002
315.15	1	0.0314	0.0002
295.15	0.1	0.0609	0.0001
300.15	0.1	0.0602	0.0001
305.15	0.1	0.0594	0.0001
310.15	0.1	0.0588	0.0001
315.15	0.1	0.058	0.0001
295.15	0.09	0.0612	0.0001
300.15	0.09	0.0608	0.0001
305.15	0.09	0.06	0.0001
310.15	0.09	0.0593	0.0001
315.15	0.09	0.0588	0.0001
295.15	0.08	0.0618	0.0001
300.15	0.08	0.0613	0.0001
305.15	0.08	0.0605	0.0001
310.15	0.08	0.0597	0.0001
315.15	0.08	0.0591	0.0001
295.15	0.07	0.0623	0.0001
300.15	0.07	0.0618	0.0001
305.15	0.07	0.0612	0.0001
310.15	0.07	0.0606	0.0001
315.15	0.07	0.0599	0.0001
295.15	0.06	0.0634	0.0001
300.15	0.06	0.0626	0.0001
305.15	0.06	0.062	0.0001
310.15	0.06	0.0611	0.0001
315.15	0.06	0.0606	0.0001
295.15	0.05	0.0643	0.0001
300.15	0.05	0.0637	0.0001
305.15	0.05	0.0629	0.0001
310.15	0.05	0.0622	0.0001
315.15	0.05	0.0617	0.0001
295.15	0.04	0.0652	0.0001
300.15	0.04	0.0644	0.0001
305.15	0.04	0.0635	0.0001
310.15	0.04	0.0626	0.0001
315.15	0.04	0.062	0.0001
295.15	0.03	0.0661	0.0001
300.15	0.03	0.0655	0.0001
305.15	0.03	0.0646	0.0001
310.15	0.03	0.064	0.0001
315.15	0.03	0.0633	0.0001
295.15	0.02	0.0679	0.0001
300.15	0.02	0.067	0.0001
305.15	0.02	0.0663	0.0001
310.15	0.02	0.0658	0.0001
315.15	0.02	0.065	0.0001
295.15	0.01	0.0693	0.0001
300.15	0.01	0.0684	0.0001
305.15	0.01	0.0676	0.0001
310.15	0.01	0.0672	0.0001
315.15	0.01	0.0664	0.0001
295.15	0	0.0693	0.0001
300.15	0	0.0684	0.0001
305.15	0	0.0676	0.0001
310.15	0	0.0672	0.0001
315.15	0	0.0664	0.0001

System: butan-1-ol + water; phases: Liquid, Air at 1 atmosphere
Property: Surface tension liquid-gas, N/m (Liquid); method: Wilhelmy plate method
Temperature, K	Mole fraction of butan-1-ol	Surface tension liquid-gas, N/m	uncertainty
295.15	1	0.0243	0.0001
300.15	1	0.0239	0.0001
305.15	1	0.02359	0.00012
310.15	1	0.0231	0.0001
315.15	1	0.0228	0.0001
295.15	0.08	0.0276	0.0001
300.15	0.08	0.0273	0.0001
305.15	0.08	0.027	0.0001
310.15	0.08	0.0266	0.0001
315.15	0.08	0.0262	0.0001
295.15	0.07	0.0288	0.0001
300.15	0.07	0.0286	0.0001
305.15	0.07	0.0282	0.0001
310.15	0.07	0.0278	0.0001
315.15	0.07	0.0273	0.0001
295.15	0.06	0.0314	0.0001
300.15	0.06	0.031	0.0001
305.15	0.06	0.0306	0.0001
310.15	0.06	0.0303	0.0001
315.15	0.06	0.03	0.0001
295.15	0.05	0.0338	0.0001
300.15	0.05	0.0347	0.0001
305.15	0.05	0.033	0.0001
310.15	0.05	0.0326	0.0001
315.15	0.05	0.0323	0.0001
295.15	0.04	0.0368	0.0001
300.15	0.04	0.0383	0.0001
305.15	0.04	0.0378	0.0001
310.15	0.04	0.0373	0.0001
315.15	0.04	0.0369	0.0001
295.15	0.03	0.0368	0.0001
300.15	0.03	0.0402	0.0001
305.15	0.03	0.0397	0.0001
310.15	0.03	0.0393	0.0001
315.15	0.03	0.039	0.0001
295.15	0.02	0.0408	0.0001
300.15	0.02	0.044	0.0001
305.15	0.02	0.0436	0.0001
310.15	0.02	0.0434	0.0001
315.15	0.02	0.0431	0.0001
295.15	0.01	0.054	0.0001
300.15	0.01	0.0533	0.0001
305.15	0.01	0.0528	0.0001
310.15	0.01	0.0523	0.0001
315.15	0.01	0.0518	0.0001
295.15	0	0.0724	0.0001
300.15	0	0.0715	0.0001
305.15	0	0.0708	0.0001
310.15	0	0.07	0.0001
315.15	0	0.0695	0.0001
