Measured thermophysical data. Density of biofuel mixtures (Dibutyl ether + Heptane) at temperatures from (298.15-393.15) K and at pressures up to 140 MPa: Experimental data and PC-SAFT modeling
Source: Fluid Phase Equilib., 2019, 10.1016/j.fluid.2019.02.028
Compound 1: heptane, C7H16, InChI=1S/C7H16/c1-3-5-7-6-4-2/h3-7H2,1-2H3, purity 99.5%
Compound 2: dibutyl ether, C8H18O, InChI=1S/C8H18O/c1-3-5-7-9-8-6-4-2/h3-8H2,1-2H3, purity 99.3%

System: dibutyl ether + heptane; phases: Liquid
Property: Mass density, kg/m3 (Liquid); method: Vibrating tube method
Mole fraction of dibutyl ether	Temperature, K	Pressure, kPa	Mass density, kg/m3	uncertainty
0.325	298.15	100	724.4	7
0.325	298.15	1000	725.2	7
0.325	298.15	5000	728.9	7
0.325	298.15	10000	733.2	7
0.325	298.15	15000	737.3	7
0.325	298.15	20000	741.1	7
0.325	298.15	25000	744.9	7
0.325	298.15	30000	748.4	7
0.325	298.15	35000	751.7	7
0.325	298.15	40000	754.9	7
0.325	298.15	45000	758.1	7
0.325	298.15	50000	761.1	7
0.325	298.15	55000	764	7
0.325	298.15	60000	766.8	7
0.325	298.15	65000	769.6	7
0.325	298.15	70000	772.3	7
0.325	298.15	80000	777.3	7
0.325	298.15	90000	782.2	7
0.325	298.15	100000	786.8	7.1
0.325	298.15	110000	791.2	7.1
0.325	298.15	120000	795.3	7.1
0.325	298.15	130000	799.3	7.1
0.325	298.15	140000	803.2	7.1
0.325	313.15	100	711.3	7
0.325	313.15	1000	712.3	7
0.325	313.15	5000	716.4	7
0.325	313.15	10000	721.1	7
0.325	313.15	15000	725.5	7
0.325	313.15	20000	729.8	7
0.325	313.15	25000	733.6	7
0.325	313.15	30000	737.6	7
0.325	313.15	35000	741.2	7
0.325	313.15	40000	744.5	7
0.325	313.15	45000	747.9	7
0.325	313.15	50000	751.2	7
0.325	313.15	55000	754.3	7
0.325	313.15	60000	757.3	7
0.325	313.15	65000	760.1	7
0.325	313.15	70000	762.9	7
0.325	313.15	80000	768.3	7
0.325	313.15	90000	773.4	7.1
0.325	313.15	100000	778.2	7.1
0.325	313.15	110000	782.8	7.1
0.325	313.15	120000	787.2	7.1
0.325	313.15	130000	791.5	7.1
0.325	313.15	140000	795.5	7.1
0.325	333.15	100	693.6	7
0.325	333.15	1000	694.7	7
0.325	333.15	5000	699.4	7
0.325	333.15	10000	704.8	7
0.325	333.15	15000	709.9	7
0.325	333.15	20000	714.6	7
0.325	333.15	25000	719	7
0.325	333.15	30000	723.2	7
0.325	333.15	35000	727.2	7
0.325	333.15	40000	731	7
0.325	333.15	45000	734.6	7
0.325	333.15	50000	738.1	7
0.325	333.15	55000	741.4	7
0.325	333.15	60000	744.6	7
0.325	333.15	65000	747.8	7
0.325	333.15	70000	750.7	7
0.325	333.15	80000	756.5	7.1
0.325	333.15	90000	762	7.1
0.325	333.15	100000	767.1	7.1
0.325	333.15	110000	771.9	7.1
0.325	333.15	120000	776.5	7.1
0.325	333.15	130000	781	7.1
0.325	333.15	140000	785.2	7.1
0.325	353.15	100	675.6	7
0.325	353.15	1000	676.9	7
0.325	353.15	5000	682.3	7
0.325	353.15	10000	688.5	7
0.325	353.15	15000	694.1	7
0.325	353.15	20000	699.4	7
0.325	353.15	25000	704.4	7
0.325	353.15	30000	709	7
0.325	353.15	35000	713.4	7
0.325	353.15	40000	717.4	7
0.325	353.15	45000	721.4	7
0.325	353.15	50000	725.3	7
0.325	353.15	55000	728.8	7
0.325	353.15	60000	732.3	7
0.325	353.15	65000	735.7	7
0.325	353.15	70000	738.9	7
0.325	353.15	80000	744.9	7.1
0.325	353.15	90000	750.8	7.1
0.325	353.15	100000	756.1	7.1
0.325	353.15	110000	761.4	7.1
0.325	353.15	120000	766.2	7.1
0.325	353.15	130000	770.8	7.1
0.325	353.15	140000	775.3	7.1
0.325	373.15	1000	658.4	7
0.325	373.15	5000	664.8	7
0.325	373.15	10000	671.8	7
0.325	373.15	15000	678.3	7
0.325	373.15	20000	684.3	7
0.325	373.15	25000	689.7	7
0.325	373.15	30000	694.9	7
0.325	373.15	35000	699.7	7
0.325	373.15	40000	704.2	7
0.325	373.15	45000	708.5	7
0.325	373.15	50000	712.5	7
0.325	373.15	55000	716.5	7
0.325	373.15	60000	720.2	7
0.325	373.15	65000	723.8	7
0.325	373.15	70000	727.2	7
0.325	373.15	80000	733.8	7.1
0.325	373.15	90000	739.9	7.1
0.325	373.15	100000	745.7	7.1
0.325	373.15	110000	751.1	7.1
0.325	373.15	120000	756.2	7.1
0.325	373.15	130000	761.2	7.1
0.325	373.15	140000	765.7	7.1
0.325	393.15	1000	639	7
0.325	393.15	5000	646.6	7
0.325	393.15	10000	654.8	7
0.325	393.15	15000	662.2	7
0.325	393.15	20000	668.9	7
0.325	393.15	25000	675	7
0.325	393.15	30000	680.6	7
0.325	393.15	35000	686	7
0.325	393.15	40000	690.9	7
0.325	393.15	45000	695.5	7
0.325	393.15	50000	699.9	7
0.325	393.15	55000	704.2	7
0.325	393.15	60000	708.2	7
0.325	393.15	65000	712	7
0.325	393.15	70000	715.7	7.1
0.325	393.15	80000	722.7	7.1
0.325	393.15	90000	729.2	7.1
0.325	393.15	100000	735.2	7.1
0.325	393.15	110000	741	7.1
0.325	393.15	120000	746.2	7.1
0.325	393.15	130000	751.4	7.1
0.325	393.15	140000	756.3	7.1
0.5	298.15	100	738.6	7
0.5	298.15	1000	739.4	7
0.5	298.15	5000	743.1	7
0.5	298.15	10000	747.4	7
0.5	298.15	15000	751.4	7
0.5	298.15	20000	755.2	7
0.5	298.15	25000	758.9	7
0.5	298.15	30000	762.4	7
0.5	298.15	35000	765.7	7
0.5	298.15	40000	769	7
0.5	298.15	45000	772.1	7
0.5	298.15	50000	775.1	7
0.5	298.15	55000	778	7
0.5	298.15	60000	780.8	7
0.5	298.15	65000	783.5	7
0.5	298.15	70000	786.2	7
0.5	298.15	80000	791.3	7
0.5	298.15	90000	796.2	7
0.5	298.15	100000	800.8	7.1
0.5	298.15	110000	805.2	7.1
0.5	298.15	120000	809.4	7.1
0.5	298.15	130000	813.4	7.1
0.5	298.15	140000	817.3	7.1
0.5	313.15	100	725.5	7
0.5	313.15	1000	726.4	7
0.5	313.15	5000	730.5	7
0.5	313.15	10000	735.1	7
0.5	313.15	15000	739.6	7
0.5	313.15	20000	743.7	7
0.5	313.15	25000	747.5	7
0.5	313.15	30000	751.5	7
0.5	313.15	35000	755.1	7
0.5	313.15	40000	758.4	7
0.5	313.15	45000	761.8	7
0.5	313.15	50000	765	7
0.5	313.15	55000	768.2	7
0.5	313.15	60000	771.1	7
0.5	313.15	65000	774	7
0.5	313.15	70000	776.8	7
0.5	313.15	80000	782.2	7
0.5	313.15	90000	787.3	7
0.5	313.15	100000	792.1	7.1
0.5	313.15	110000	796.7	7.1
0.5	313.15	120000	801.1	7.1
0.5	313.15	130000	805.4	7.1
0.5	313.15	140000	809.4	7.1
0.5	333.15	100	707.7	7
0.5	333.15	1000	708.9	7
0.5	333.15	5000	713.5	7
0.5	333.15	10000	718.8	7
0.5	333.15	15000	723.9	7
0.5	333.15	20000	728.4	7
0.5	333.15	25000	732.8	7
0.5	333.15	30000	737	7
0.5	333.15	35000	741	7
0.5	333.15	40000	744.7	7
0.5	333.15	45000	748.3	7
0.5	333.15	50000	751.8	7
0.5	333.15	55000	755.1	7
0.5	333.15	60000	758.4	7
0.5	333.15	65000	761.5	7
0.5	333.15	70000	764.5	7
0.5	333.15	80000	770.2	7
0.5	333.15	90000	775.7	7.1
0.5	333.15	100000	780.8	7.1
0.5	333.15	110000	785.7	7.1
0.5	333.15	120000	790.3	7.1
0.5	333.15	130000	794.8	7.1
0.5	333.15	140000	799.1	7.1
0.5	353.15	100	689.8	7
0.5	353.15	1000	691	7
0.5	353.15	5000	696.3	7
0.5	353.15	10000	702.4	7
0.5	353.15	15000	708	7
0.5	353.15	20000	713.3	7
0.5	353.15	25000	718.1	7
0.5	353.15	30000	722.7	7
0.5	353.15	35000	727	7
0.5	353.15	40000	731.1	7
0.5	353.15	45000	735	7
0.5	353.15	50000	738.9	7
0.5	353.15	55000	742.4	7
0.5	353.15	60000	745.9	7
0.5	353.15	65000	749.3	7
0.5	353.15	70000	752.5	7
0.5	353.15	80000	758.6	7
0.5	353.15	90000	764.4	7.1
0.5	353.15	100000	769.8	7.1
0.5	353.15	110000	775	7.1
0.5	353.15	120000	779.9	7.1
0.5	353.15	130000	784.5	7.1
0.5	353.15	140000	789.1	7.1
0.5	373.15	1000	672.6	7
0.5	373.15	5000	678.7	7
0.5	373.15	10000	685.7	7
0.5	373.15	15000	692.1	7
0.5	373.15	20000	697.9	7
0.5	373.15	25000	703.3	7
0.5	373.15	30000	708.4	7
0.5	373.15	35000	713.2	7
0.5	373.15	40000	717.7	7
0.5	373.15	45000	722.1	7
0.5	373.15	50000	726.1	7
0.5	373.15	55000	729.9	7
0.5	373.15	60000	733.7	7
0.5	373.15	65000	737.2	7
0.5	373.15	70000	740.6	7
0.5	373.15	80000	747.2	7.1
0.5	373.15	90000	753.4	7.1
0.5	373.15	100000	759.1	7.1
0.5	373.15	110000	764.6	7.1
0.5	373.15	120000	769.6	7.1
0.5	373.15	130000	774.7	7.1
0.5	373.15	140000	779.3	7.1
0.5	393.15	1000	653.5	7
0.5	393.15	5000	660.8	7
0.5	393.15	10000	668.8	7
0.5	393.15	15000	676	7
0.5	393.15	20000	682.6	7
0.5	393.15	25000	688.6	7
0.5	393.15	30000	694.2	7
0.5	393.15	35000	699.5	7
0.5	393.15	40000	704.4	7
0.5	393.15	45000	709	7
0.5	393.15	50000	713.4	7
0.5	393.15	55000	717.6	7
0.5	393.15	60000	721.6	7
0.5	393.15	65000	725.3	7
0.5	393.15	70000	729.1	7
0.5	393.15	80000	736.1	7.1
0.5	393.15	90000	742.6	7.1
0.5	393.15	100000	748.6	7.1
0.5	393.15	110000	754.4	7.1
0.5	393.15	120000	759.7	7.1
0.5	393.15	130000	764.8	7.1
0.5	393.15	140000	769.9	7.1
0.675	298.15	100	749.5	7
0.675	298.15	1000	750.4	7
0.675	298.15	5000	754	7
0.675	298.15	10000	758.2	7
0.675	298.15	15000	762.3	7
0.675	298.15	20000	766.1	7
0.675	298.15	25000	769.7	7
0.675	298.15	30000	773.2	7
0.675	298.15	35000	776.6	7
0.675	298.15	40000	779.7	7
0.675	298.15	45000	782.9	7
0.675	298.15	50000	785.9	7
0.675	298.15	55000	788.8	7
0.675	298.15	60000	791.6	7
0.675	298.15	65000	794.3	7
0.675	298.15	70000	797	7
0.675	298.15	80000	802.1	7
0.675	298.15	90000	807	7
0.675	298.15	100000	811.6	7
0.675	298.15	110000	816	7.1
0.675	298.15	120000	820.2	7.1
0.675	298.15	130000	824.2	7.1
0.675	298.15	140000	828.2	7.1
0.675	313.15	100	736.5	7
0.675	313.15	1000	737.4	7
0.675	313.15	5000	741.4	7
0.675	313.15	10000	746	7
0.675	313.15	15000	750.4	7
0.675	313.15	20000	754.6	7
0.675	313.15	25000	758.3	7
0.675	313.15	30000	762.2	7
0.675	313.15	35000	765.9	7
0.675	313.15	40000	769.2	7
0.675	313.15	45000	772.5	7
0.675	313.15	50000	775.8	7
0.675	313.15	55000	778.9	7
0.675	313.15	60000	781.9	7
0.675	313.15	65000	784.7	7
0.675	313.15	70000	787.5	7
0.675	313.15	80000	792.9	7
0.675	313.15	90000	798	7
0.675	313.15	100000	802.8	7.1
0.675	313.15	110000	807.5	7.1
0.675	313.15	120000	811.9	7.1
0.675	313.15	130000	816.1	7.1
0.675	313.15	140000	820.2	7.1
0.675	333.15	100	718.7	7
0.675	333.15	1000	719.9	7
0.675	333.15	5000	724.3	7
0.675	333.15	10000	729.6	7
0.675	333.15	15000	734.6	7
0.675	333.15	20000	739.2	7
0.675	333.15	25000	743.5	7
0.675	333.15	30000	747.7	7
0.675	333.15	35000	751.7	7
0.675	333.15	40000	755.5	7
0.675	333.15	45000	759	7
0.675	333.15	50000	762.5	7
0.675	333.15	55000	765.8	7
0.675	333.15	60000	769	7
0.675	333.15	65000	772.1	7
0.675	333.15	70000	775.1	7
0.675	333.15	80000	780.9	7
0.675	333.15	90000	786.3	7
0.675	333.15	100000	791.4	7.1
0.675	333.15	110000	796.4	7.1
0.675	333.15	120000	801	7.1
0.675	333.15	130000	805.5	7.1
0.675	333.15	140000	809.7	7.1
0.675	353.15	100	700.8	7
0.675	353.15	1000	702	7
0.675	353.15	5000	707.2	7
0.675	353.15	10000	713.2	7
0.675	353.15	15000	718.8	7
0.675	353.15	20000	723.9	7
0.675	353.15	25000	728.8	7
0.675	353.15	30000	733.3	7
0.675	353.15	35000	737.7	7
0.675	353.15	40000	741.7	7
0.675	353.15	45000	745.6	7
0.675	353.15	50000	749.5	7
0.675	353.15	55000	753	7
0.675	353.15	60000	756.5	7
0.675	353.15	65000	759.8	7
0.675	353.15	70000	763.1	7
0.675	353.15	80000	769.1	7
0.675	353.15	90000	774.9	7.1
0.675	353.15	100000	780.4	7.1
0.675	353.15	110000	785.5	7.1
0.675	353.15	120000	790.4	7.1
0.675	353.15	130000	795.1	7.1
0.675	353.15	140000	799.6	7.1
0.675	373.15	1000	683.7	7
0.675	373.15	5000	689.7	7
0.675	373.15	10000	696.5	7
0.675	373.15	15000	702.9	7
0.675	373.15	20000	708.6	7
0.675	373.15	25000	714	7
0.675	373.15	30000	719.1	7
0.675	373.15	35000	723.7	7
0.675	373.15	40000	728.3	7
0.675	373.15	45000	732.6	7
0.675	373.15	50000	736.6	7
0.675	373.15	55000	740.5	7
0.675	373.15	60000	744.2	7
0.675	373.15	65000	747.8	7
0.675	373.15	70000	751.2	7
0.675	373.15	80000	757.8	7.1
0.675	373.15	90000	763.9	7.1
0.675	373.15	100000	769.6	7.1
0.675	373.15	110000	775.1	7.1
0.675	373.15	120000	780.2	7.1
0.675	373.15	130000	785.1	7.1
0.675	373.15	140000	789.8	7.1
0.675	393.15	1000	664.6	7
0.675	393.15	5000	671.7	7
0.675	393.15	10000	679.6	7
0.675	393.15	15000	686.8	7
0.675	393.15	20000	693.2	7
0.675	393.15	25000	699.2	7
0.675	393.15	30000	704.7	7
0.675	393.15	35000	710	7
0.675	393.15	40000	714.8	7
0.675	393.15	45000	719.4	7
0.675	393.15	50000	723.8	7
0.675	393.15	55000	728	7
0.675	393.15	60000	732	7
0.675	393.15	65000	735.8	7
0.675	393.15	70000	739.5	7
0.675	393.15	80000	746.5	7.1
0.675	393.15	90000	753	7.1
0.675	393.15	100000	759	7.1
0.675	393.15	110000	764.8	7.1
0.675	393.15	120000	770.1	7.1
0.675	393.15	130000	775.3	7.1
0.675	393.15	140000	780.3	7.1
0.85	298.15	100	763.8	7
0.85	298.15	1000	764.7	7
0.85	298.15	5000	768.2	7
0.85	298.15	10000	772.4	7
0.85	298.15	15000	776.4	7
0.85	298.15	20000	780.2	7
0.85	298.15	25000	783.7	7
0.85	298.15	30000	787.3	7
0.85	298.15	35000	790.6	7
0.85	298.15	40000	793.8	7
0.85	298.15	45000	796.9	7
0.85	298.15	50000	799.8	7
0.85	298.15	55000	802.8	7
0.85	298.15	60000	805.6	7
0.85	298.15	65000	808.3	7
0.85	298.15	70000	811	7
0.85	298.15	80000	816.1	7
0.85	298.15	90000	821	7
0.85	298.15	100000	825.5	7
0.85	298.15	110000	830	7
0.85	298.15	120000	834.2	7.1
0.85	298.15	130000	838.3	7.1
0.85	298.15	140000	842.1	7.1
0.85	313.15	100	750.7	7
0.85	313.15	1000	751.6	7
0.85	313.15	5000	755.6	7
0.85	313.15	10000	760.1	7
0.85	313.15	15000	764.5	7
0.85	313.15	20000	768.6	7
0.85	313.15	25000	772.3	7
0.85	313.15	30000	776.2	7
0.85	313.15	35000	779.7	7
0.85	313.15	40000	783.1	7
0.85	313.15	45000	786.4	7
0.85	313.15	50000	789.7	7
0.85	313.15	55000	792.7	7
0.85	313.15	60000	795.7	7
0.85	313.15	65000	798.6	7
0.85	313.15	70000	801.4	7
0.85	313.15	80000	806.7	7
0.85	313.15	90000	811.9	7
0.85	313.15	100000	816.7	7
0.85	313.15	110000	821.4	7.1
0.85	313.15	120000	825.7	7.1
0.85	313.15	130000	830.1	7.1
0.85	313.15	140000	834.2	7.1
0.85	333.15	100	733	7
0.85	333.15	1000	734	7
0.85	333.15	5000	738.5	7
0.85	333.15	10000	743.6	7
0.85	333.15	15000	748.6	7
0.85	333.15	20000	753.1	7
0.85	333.15	25000	757.5	7
0.85	333.15	30000	761.5	7
0.85	333.15	35000	765.5	7
0.85	333.15	40000	769.2	7
0.85	333.15	45000	772.7	7
0.85	333.15	50000	776.2	7
0.85	333.15	55000	779.6	7
0.85	333.15	60000	782.7	7
0.85	333.15	65000	785.8	7
0.85	333.15	70000	788.8	7
0.85	333.15	80000	794.6	7
0.85	333.15	90000	800	7
0.85	333.15	100000	805.2	7.1
0.85	333.15	110000	810	7.1
0.85	333.15	120000	814.7	7.1
0.85	333.15	130000	819.3	7.1
0.85	333.15	140000	823.5	7.1
0.85	353.15	100	715	7
0.85	353.15	1000	716.2	7
0.85	353.15	5000	721.3	7
0.85	353.15	10000	727.2	7
0.85	353.15	15000	732.7	7
0.85	353.15	20000	737.8	7
0.85	353.15	25000	742.6	7
0.85	353.15	30000	747.1	7
0.85	353.15	35000	751.4	7
0.85	353.15	40000	755.4	7
0.85	353.15	45000	759.3	7
0.85	353.15	50000	763	7
0.85	353.15	55000	766.6	7
0.85	353.15	60000	770.1	7
0.85	353.15	65000	773.4	7
0.85	353.15	70000	776.7	7
0.85	353.15	80000	782.7	7
0.85	353.15	90000	788.5	7
0.85	353.15	100000	794	7.1
0.85	353.15	110000	799.2	7.1
0.85	353.15	120000	804	7.1
0.85	353.15	130000	808.7	7.1
0.85	353.15	140000	813.3	7.1
0.85	373.15	1000	697.9	7
0.85	373.15	5000	703.8	7
0.85	373.15	10000	710.5	7
0.85	373.15	15000	716.7	7
0.85	373.15	20000	722.4	7
0.85	373.15	25000	727.7	7
0.85	373.15	30000	732.7	7
0.85	373.15	35000	737.4	7
0.85	373.15	40000	741.9	7
0.85	373.15	45000	746.1	7
0.85	373.15	50000	750	7
0.85	373.15	55000	754	7
0.85	373.15	60000	757.7	7
0.85	373.15	65000	761.2	7
0.85	373.15	70000	764.6	7
0.85	373.15	80000	771.2	7
0.85	373.15	90000	777.3	7.1
0.85	373.15	100000	783	7.1
0.85	373.15	110000	788.5	7.1
0.85	373.15	120000	793.6	7.1
0.85	373.15	130000	798.6	7.1
0.85	373.15	140000	803.3	7.1
0.85	393.15	1000	679	7
0.85	393.15	5000	685.9	7
0.85	393.15	10000	693.5	7
0.85	393.15	15000	700.6	7
0.85	393.15	20000	706.9	7
0.85	393.15	25000	712.8	7
0.85	393.15	30000	718.3	7
0.85	393.15	35000	723.5	7
0.85	393.15	40000	728.3	7
0.85	393.15	45000	732.8	7
0.85	393.15	50000	737.2	7
0.85	393.15	55000	741.4	7
0.85	393.15	60000	745.3	7
0.85	393.15	65000	749.1	7
0.85	393.15	70000	752.8	7
0.85	393.15	80000	759.7	7.1
0.85	393.15	90000	766.2	7.1
0.85	393.15	100000	772.3	7.1
0.85	393.15	110000	778.1	7.1
0.85	393.15	120000	783.4	7.1
0.85	393.15	130000	788.6	7.1
0.85	393.15	140000	793.6	7.1
