Measured thermophysical data. Phase equilibria for the extraction of sec-butylbenzene from dodecane with N,N-dimethylformamide
Source: Fluid Phase Equilib., 2006, 10.1016/j.fluid.2005.12.006
Compound 1: dodecane, C12H26, InChI=1S/C12H26/c1-3-5-7-9-11-12-10-8-6-4-2/h3-12H2,1-2H3
Compound 2: (1-methylpropyl)benzene, C10H14, InChI=1S/C10H14/c1-3-9(2)10-7-5-4-6-8-10/h4-9H,3H2,1-2H3
Compound 3: dimethylformamide, C3H7NO, InChI=1S/C3H7NO/c1-4(2)3-5/h3H,1-2H3

System: dodecane; phases: Liquid
Property: Refractive index (Na D-line) (Liquid); method: Standard Abbe refractometry
Temperature, K	Pressure, kPa	Refractive index (Na D-line)	uncertainty
293.1	101.325	1.422	0.0007

System: (1-methylpropyl)benzene; phases: Liquid
Property: Refractive index (Na D-line) (Liquid); method: Standard Abbe refractometry
Temperature, K	Pressure, kPa	Refractive index (Na D-line)	uncertainty
293.1	101.325	1.489	0.0007

System: dimethylformamide; phases: Liquid
Property: Refractive index (Na D-line) (Liquid); method: Standard Abbe refractometry
Temperature, K	Pressure, kPa	Refractive index (Na D-line)	uncertainty
293.1	101.325	1.4281	0.0007

System: dimethylformamide + dodecane; phases: Liquid mixture 1, Liquid mixture 2
Fixed: Pressure, kPa = 101
Property: Mole fraction of dodecane (Liquid mixture 1); method: CHROM:UFactor:16
Temperature, K	Mole fraction of dodecane	uncertainty
288	0.9272	0.009
298	0.9101	0.0111
308	0.8702	0.0161
318	0.7756	0.0278

System: dimethylformamide + dodecane; phases: Liquid mixture 2, Liquid mixture 1
Fixed: Pressure, kPa = 101
Property: Mole fraction of dodecane (Liquid mixture 2); method: CHROM:UFactor:16
Temperature, K	Mole fraction of dodecane	uncertainty
288	0.0132	0.0016
298	0.0152	0.0019
308	0.0167	0.0021
318	0.0182	0.0023

System: dimethylformamide + dodecane + (1-methylpropyl)benzene; phases: Liquid mixture 2, Liquid mixture 1
Fixed: Pressure, kPa = 101
Property: Mole fraction of dodecane (Liquid mixture 2); method: CHROM:UFactor:16
Property: Mole fraction of (1-methylpropyl)benzene (Liquid mixture 1); method: CHROM:UFactor:16
Property: Mole fraction of dodecane (Liquid mixture 1); method: CHROM:UFactor:16
Temperature, K	Mole fraction of (1-methylpropyl)benzene	Mole fraction of dodecane	uncertainty	Mole fraction of (1-methylpropyl)benzene	uncertainty	Mole fraction of dodecane	uncertainty
288	0	0.0132	0.0016	0	0.0001	0.9272	
288	0.0207	0.0157	0.0019	0.0573	0.0071	0.8694	
288	0.0268	0.0167	0.0021	0.0736	0.0091	0.827	
288	0.0419	0.0191	0.0024	0.1105	0.0137	0.7716	
288	0.0551	0.0211	0.0026	0.1409	0.0175	0.7277	
288	0.0779	0.0253	0.0031	0.1895	0.0235	0.6733	
288	0.0969	0.0287	0.0036	0.2248	0.0279	0.6235	
288	0.1162	0.0332	0.0041	0.2552	0.0316	0.5832	
288	0.1334	0.0375	0.0046	0.2826	0.035	0.5612	
288	0.1463	0.0394	0.0049	0.2993	0.0371	0.5404	
288	0.1581	0.0409	0.0051	0.3105	0.0385	0.5217	
298	0	0.0152	0.0019	0	0.0001	0.9101	
298	0.0212	0.0174	0.0022	0.0569	0.0071	0.8424	
298	0.0327	0.0191	0.0024	0.0856	0.0106	0.8062	
298	0.0494	0.0226	0.0028	0.1242	0.0154	0.7573	
298	0.0644	0.0258	0.0032	0.1553	0.0192	0.717	
298	0.086	0.0313	0.0039	0.1938	0.024	0.6587	
298	0.1071	0.0364	0.0045	0.2282	0.0283	0.605	
298	0.1267	0.0405	0.005	0.2573	0.0319	0.5525	
298	0.1431	0.0464	0.0058	0.2752	0.0341	0.5207	
298	0.1501	0.0468	0.0058	0.2816	0.0349	0.5012	
298	0.1602	0.0475	0.0059	0.2931	0.0363	0.4801	
308	0	0.0167	0.0021	0	0.0001	0.8702	
308	0.0229	0.0187	0.0023	0.0594	0.0074	0.8066	
308	0.0355	0.0217	0.0027	0.0882	0.0109	0.7618	
308	0.0514	0.0242	0.003	0.1219	0.0151	0.6981	
308	0.0683	0.0277	0.0034	0.1526	0.0189	0.6532	
308	0.0873	0.0335	0.0042	0.1839	0.0228	0.5883	
308	0.1122	0.0418	0.0052	0.2186	0.0271	0.5508	
308	0.1286	0.0474	0.0059	0.2381	0.0295	0.4801	
308	0.144	0.0529	0.0066	0.2536	0.0314	0.46	
308	0.152	0.0549	0.0068	0.2603	0.0323	0.4401	
308	0.163	0.0551	0.0068	0.2701	0.0335	0.4202	
318	0	0.0182	0.0023	0	0.0001	0.7756	
318	0.0234	0.021	0.0026	0.0584	0.0072	0.7011	
318	0.0365	0.023	0.0029	0.0868	0.0108	0.6592	
318	0.0563	0.0281	0.0035	0.1257	0.0156	0.6032	
318	0.0741	0.0344	0.0043	0.157	0.0195	0.5729	
318	0.099	0.0432	0.0054	0.1925	0.0239	0.5314	
318	0.1146	0.052	0.0064	0.2103	0.0261	0.4762	
318	0.1325	0.0558	0.0069	0.2289	0.0284	0.4451	
318	0.1491	0.0639	0.0079	0.2444	0.0303	0.4201	
318	0.1565	0.0661	0.0082	0.2492	0.0309	0.3802	
318	0.1654	0.0695	0.0086	0.2499	0.031	0.3603	
