Measured thermophysical data. Experiment and correlation of osmotic coefficient for aqueous solution of  carboxylic acids using NRTL nonrandom factor model
Source: Fluid Phase Equilib., 2012, 10.1016/j.fluid.2012.05.002
Compound 1: formic acid, CH2O2, InChI=1S/CH2O2/c2-1-3/h1H,(H,2,3), purity 98%
Compound 2: water, H2O, InChI=1S/H2O/h1H2
Compound 3: propanoic acid, C3H6O2, InChI=1S/C3H6O2/c1-2-3(4)5/h2H2,1H3,(H,4,5), purity 98%
Compound 4: butanoic acid, C4H8O2, InChI=1S/C4H8O2/c1-2-3-4(5)6/h2-3H2,1H3,(H,5,6), purity 98%
Compound 5: propanedioic acid, C3H4O4, InChI=1S/C3H4O4/c4-2(5)1-3(6)7/h1H2,(H,4,5)(H,6,7), purity 98%
Compound 6: hydroxybutanedioic acid, C4H6O5, InChI=1S/C4H6O5/c5-2(4(8)9)1-3(6)7/h2,5H,1H2,(H,6,7)(H,8,9), purity 98%
Compound 7: 2,3-dihydroxybutanedioic acid, C4H6O6, InChI=1S/C4H6O6/c5-1(3(7)8)2(6)4(9)10/h1-2,5-6H,(H,7,8)(H,9,10), purity 98%
Compound 8: citric acid, C6H8O7, InChI=1S/C6H8O7/c7-3(8)1-6(13,5(11)12)2-4(9)10/h13H,1-2H2,(H,7,8)(H,9,10)(H,11,12), purity 98%
Compound 9: acetic acid, C2H4O2, InChI=1S/C2H4O2/c1-2(3)4/h1H3,(H,3,4), purity 98%

System: formic acid + water; phases: Liquid
Fixed: Pressure, kPa = 20
Fixed: Temperature, K = 298.1
Property: Osmotic coefficient (Liquid); method: ISOPIE
Molality, mol/kg of formic acid	Osmotic coefficient	uncertainty
0.3334	1.0472	0.0031
0.6596	1.0776	0.0039
0.7817	1.0892	0.0046
0.9947	1.1093	0.0045
1.2477	1.133	0.0107
1.4389	1.1507	0.0102
1.6876	1.1735	0.0071
2.2697	1.2257	0.0098
2.6666	1.2603	0.0101
2.9126	1.2814	0.0169
3.395	1.322	0.0125
3.7817	1.3536	0.0143
4.4463	1.4064	0.0213
4.8361	1.4364	0.0184
5.3524	1.475	0.0185
5.6192	1.4944	0.0192

System: propanoic acid + water; phases: Liquid
Fixed: Pressure, kPa = 20
Fixed: Temperature, K = 298.1
Property: Osmotic coefficient (Liquid); method: ISOPIE
Molality, mol/kg of propanoic acid	Osmotic coefficient	uncertainty
0.3425	1.0543	0.0037
0.4819	1.0362	0.0046
0.6261	1.0182	0.0035
0.8086	0.9963	0.0012
1.054	0.9683	0.0028
1.2944	0.9423	0.0135
1.7955	0.8925	0.0134
2.2606	0.8509	0.0155
2.9181	0.7984	0.0078
4.1254	0.7179	0.011
5.4503	0.6474	0.0138
7.9476	0.5488	0.0175
8.1318	0.542	0.0185
10.5053	0.4779	0.0204
12.4021	0.4378	0.0227

System: butanoic acid + water; phases: Liquid
Fixed: Pressure, kPa = 20
Fixed: Temperature, K = 298.1
Property: Osmotic coefficient (Liquid); method: ISOPIE
Molality, mol/kg of butanoic acid	Osmotic coefficient	uncertainty
0.2966	1.05136	0.00939
0.3972	1.03303	0.01208
0.7027	0.9809	0.0023
0.9898	0.9364	0.0052
1.5391	0.8612	0.0079
2.5005	0.7547	0.0106
2.6522	0.7403	0.0114
4.544	0.5981	0.0157
5.3528	0.5533	0.0183
6.3643	0.5064	0.0192
7.7774	0.4537	0.0226
9.5981	0.4015	0.0233
11.9952	0.3508	0.0264
15.2898	0.3019	0.0272
17.5977	0.278	0.0284

System: propanedioic acid + water; phases: Liquid
Fixed: Pressure, kPa = 20
Fixed: Temperature, K = 298.1
Property: Osmotic coefficient (Liquid); method: ISOPIE
Molality, mol/kg of propanedioic acid	Osmotic coefficient	uncertainty
0.1216	1.1437	0.0083
0.3009	0.4556	0.0221
0.5079	0.2684	0.0286
0.6604	0.2741	0.0281
0.7994	0.3139	0.0267
1.0104	0.3539	0.0251
1.0796	0.3625	0.0261
1.6311	0.3733	0.0243
2.392	0.4014	0.0232
3.1273	0.4365	0.0218
4.097	0.4553	0.0211
5.1201	0.4685	0.0206
6.3693	0.498	0.0194
9.5447	0.5247	0.0224

System: hydroxybutanedioic acid + water; phases: Liquid
Fixed: Pressure, kPa = 20
Fixed: Temperature, K = 298.1
Property: Osmotic coefficient (Liquid); method: ISOPIE
Molality, mol/kg of hydroxybutanedioic acid	Osmotic coefficient	uncertainty
0.1223	1.3433	0.0133
0.2625	0.828	0.0078
0.3917	0.4264	0.0242
0.5398	0.3508	0.0257
0.8231	0.4412	0.0223
0.9977	0.5058	0.0192
1.2454	0.5277	0.0183
1.8481	0.5314	0.0197
2.6339	0.5397	0.0178
3.2068	0.554	0.0173
3.9963	0.5655	0.0172
5.1656	0.5841	0.0173
6.3255	0.6129	0.0167
7.3519	0.6256	0.0145

System: 2,3-dihydroxybutanedioic acid + water; phases: Liquid
Fixed: Pressure, kPa = 20
Fixed: Temperature, K = 298.1
Property: Osmotic coefficient (Liquid); method: ISOPIE
Molality, mol/kg of 2,3-dihydroxybutanedioic acid	Osmotic coefficient	uncertainty
0.3554	0.4608	0.0228
0.51	0.3823	0.0241
0.698	0.3131	0.0267
1.0737	0.2859	0.0277
1.2681	0.2851	0.0277
1.7392	0.2828	0.0278
2.3615	0.2917	0.0299
2.404	0.2923	0.0274
3.4488	0.3221	0.0276
4.3114	0.3512	0.0251
5.2034	0.3792	0.0241
6.5168	0.4157	0.0227
7.7368	0.4371	0.0219

System: citric acid + water; phases: Liquid
Fixed: Pressure, kPa = 20
Fixed: Temperature, K = 298.1
Property: Osmotic coefficient (Liquid); method: ISOPIE
Molality, mol/kg of citric acid	Osmotic coefficient	uncertainty
0.2947	1.058	0.006
0.3878	1.058	0.0043
0.6515	1.058	0.0041
0.8686	1.067	0.0061
1.039	1.073	0.0037
1.225	1.082	0.004
1.753	1.12	0.01
2.327	1.168	0.0137
2.699	1.194	0.0075
3.133	1.23	0.0089
3.816	1.288	0.0112
4.436	1.344	0.0141
5.134	1.403	0.0156
5.522	1.435	0.0169
5.987	1.469	0.0197
6.701	1.521	0.0202
7.6	1.579	0.0225
8.205	1.618	0.0262

System: acetic acid + water; phases: Liquid
Fixed: Pressure, kPa = 20
Fixed: Temperature, K = 298.1
Property: Osmotic coefficient (Liquid); method: ISOPIE
Molality, mol/kg of acetic acid	Osmotic coefficient	uncertainty
0.3254	1.0339	0.0034
0.4489	1.0143	0.003
0.6191	0.9913	0.0134
0.7688	0.9736	0.0014
1.0286	0.9465	0.0043
1.2621	0.925	0.0036
1.6382	0.8942	0.0068
2.2357	0.8518	0.0153
2.5885	0.8295	0.0074
3.6931	0.7678	0.009
4.6873	0.7199	0.0109
6.2922	0.6523	0.0136
9.6348	0.5351	0.0184
14.9213	0.3751	0.0305
