Measured thermophysical data. Determination of partial molar excess enthalpies at infinite dilution for the systems four alcohols + [bmim]PF6 at different temperatures by isothermal titration calorimeter
Source: Fluid Phase Equilib., 2007, 10.1016/j.fluid.2007.06.007
Compound 1: propan-1-ol, C3H8O, InChI=1S/C3H8O/c1-2-3-4/h4H,2-3H2,1H3
Compound 2: propan-2-ol, C3H8O, InChI=1S/C3H8O/c1-3(2)4/h3-4H,1-2H3
Compound 3: butan-1-ol, C4H10O, InChI=1S/C4H10O/c1-2-3-4-5/h5H,2-4H2,1H3
Compound 4: heptane, C7H16, InChI=1S/C7H16/c1-3-5-7-6-4-2/h3-7H2,1-2H3
Compound 5: 1-butyl-3-methylimidazolium hexafluorophosphate, C8H15F6N2P, InChI=1S/C8H15N2.F6P/c1-3-4-5-10-7-6-9(2)8-10;1-7(2,3,4,5)6/h6-8H,3-5H2,1-2H3;/q+1;-1
Compound 6: water, H2O, InChI=1S/H2O/h1H2
Compound 7: ethanol, C2H6O, InChI=1S/C2H6O/c1-2-3/h3H,2H2,1H3

System: ethanol + water; phases: Liquid
Fixed: Temperature, K = 298.15
Fixed: Pressure, kPa = 101
Property: Excess molar enthalpy (molar enthalpy of mixing), kJ/mol (Liquid); method: Calvet calorimetry
Mole fraction of ethanol	Excess molar enthalpy (molar enthalpy of mixing), kJ/mol	uncertainty
0.000102	-0.00104	0.00078
0.000206	-0.00208	0.00079
0.000308	-0.00312	0.0008
0.000412	-0.00415	0.00081
0.000516	-0.00518	0.00081
0.000619	-0.00621	0.00082
0.000723	-0.00722	0.00083
0.000827	-0.00826	0.00084
0.000931	-0.00927	0.00086
0.001034	-0.0103	0.00088
0.001138	-0.01132	0.00091
0.001241	-0.01233	0.00094
0.001345	-0.01334	0.00096
0.001448	-0.01436	0.00099
0.001551	-0.01537	0.00102

System: ethanol + water; phases: Liquid
Fixed: Temperature, K = 298.15
Fixed: Pressure, kPa = 101
Property: Excess molar enthalpy (molar enthalpy of mixing), kJ/mol (Liquid); method: Calvet calorimetry
Mole fraction of water	Excess molar enthalpy (molar enthalpy of mixing), kJ/mol	uncertainty
0.001021	-0.00212	0.00094
0.00205	-0.00424	0.00095
0.003074	-0.0063	0.00096
0.004102	-0.00835	0.00098
0.00513	-0.01037	0.00101
0.006155	-0.01238	0.00106
0.007179	-0.01437	0.00111
0.008203	-0.01633	0.00116
0.009225	-0.01828	0.00122
0.010239	-0.02023	0.00127
0.011252	-0.02213	0.00133
0.012264	-0.02405	0.00139
0.013276	-0.0259	0.00145
0.014283	-0.02777	0.00151
0.015286	-0.02961	0.00158

System: ethanol + heptane; phases: Liquid
Fixed: Temperature, K = 298.15
Fixed: Pressure, kPa = 101
Property: Excess molar enthalpy (molar enthalpy of mixing), kJ/mol (Liquid); method: Calvet calorimetry
Mole fraction of ethanol	Excess molar enthalpy (molar enthalpy of mixing), kJ/mol	uncertainty
0.000794	0.01911	0.00114
0.001594	0.03683	0.00176
0.002391	0.05388	0.00241
0.003191	0.07013	0.00305
0.003992	0.08574	0.00367
0.00479	0.09995	0.00424
0.005589	0.11313	0.00477
0.006387	0.12516	0.00525
0.007185	0.1361	0.00569
0.007976	0.14604	0.0061
0.008768	0.15512	0.00646
0.009558	0.16346	0.0068

System: ethanol + heptane; phases: Liquid
Fixed: Temperature, K = 298.15
Fixed: Pressure, kPa = 101
Property: Excess molar enthalpy (molar enthalpy of mixing), kJ/mol (Liquid); method: Calvet calorimetry
Mole fraction of heptane	Excess molar enthalpy (molar enthalpy of mixing), kJ/mol	uncertainty
0.00013	0.00042	0.00092
0.000261	0.00084	0.00093
0.000392	0.00127	0.00093
0.000524	0.00168	0.00093
0.000655	0.00205	0.00094
0.000787	0.00246	0.00094
0.000919	0.00284	0.00094
0.001051	0.00321	0.00094
0.001183	0.00362	0.00095
0.001314	0.00399	0.00095
0.001445	0.00438	0.00095
0.001577	0.00475	0.00095

System: ethanol + 1-butyl-3-methylimidazolium hexafluorophosphate; phases: Liquid
Fixed: Pressure, kPa = 101
Property: Excess molar enthalpy (molar enthalpy of mixing), kJ/mol (Liquid); method: Calvet calorimetry
Temperature, K	Mole fraction of ethanol	Excess molar enthalpy (molar enthalpy of mixing), kJ/mol	uncertainty
288.15	0.001144	0.0087	0.00098
288.15	0.002285	0.01738	0.00119
288.15	0.003423	0.02631	0.00147
288.15	0.004559	0.0344	0.00175
288.15	0.005692	0.04353	0.00208
288.15	0.006823	0.05257	0.00242
288.15	0.007951	0.06147	0.00276
288.15	0.009076	0.07031	0.0031
298.15	0.001112	0.00861	0.00098
298.15	0.002231	0.01651	0.00117
298.15	0.003346	0.02419	0.0014
298.15	0.004465	0.03241	0.00168
298.15	0.005584	0.03919	0.00192
298.15	0.006698	0.04699	0.00221
298.15	0.007812	0.05506	0.00251
298.15	0.008925	0.0626	0.0028
308.15	0.00114	0.01016	0.00101
308.15	0.002261	0.01793	0.00121
308.15	0.00339	0.02645	0.00147
308.15	0.004524	0.03507	0.00177
308.15	0.005658	0.04219	0.00203
308.15	0.006787	0.04977	0.00231
308.15	0.007915	0.05826	0.00263
308.15	0.009044	0.06596	0.00293
318.15	0.001144	0.01057	0.00102
318.15	0.002294	0.02089	0.0013
318.15	0.00344	0.02874	0.00155
318.15	0.004591	0.03666	0.00183
318.15	0.005741	0.04621	0.00218
318.15	0.006886	0.05571	0.00254
318.15	0.008031	0.06402	0.00286
318.15	0.009176	0.0729	0.0032

System: propan-1-ol + 1-butyl-3-methylimidazolium hexafluorophosphate; phases: Liquid
Fixed: Pressure, kPa = 101
Property: Excess molar enthalpy (molar enthalpy of mixing), kJ/mol (Liquid); method: Calvet calorimetry
Temperature, K	Mole fraction of propan-1-ol	Excess molar enthalpy (molar enthalpy of mixing), kJ/mol	uncertainty
288.15	0.000953	0.00917	0.00099
288.15	0.001891	0.01728	0.00119
288.15	0.002836	0.02581	0.00145
288.15	0.003785	0.03448	0.00175
288.15	0.004734	0.04271	0.00205
288.15	0.005679	0.05131	0.00237
288.15	0.006625	0.05941	0.00268
288.15	0.007571	0.06759	0.00299
298.15	0.000901	0.00877	0.00098
298.15	0.001808	0.01733	0.00119
298.15	0.002711	0.02573	0.00145
298.15	0.003619	0.03381	0.00172
298.15	0.004527	0.04173	0.00201
298.15	0.005431	0.04958	0.0023
298.15	0.006336	0.05708	0.00259
298.15	0.007241	0.0647	0.00288
308.15	0.000957	0.00941	0.00099
308.15	0.001911	0.01794	0.00121
308.15	0.002864	0.02639	0.00147
308.15	0.003815	0.03482	0.00176
308.15	0.004765	0.04321	0.00206
308.15	0.005712	0.05146	0.00237
308.15	0.006658	0.05961	0.00268
308.15	0.007602	0.06759	0.00299
318.15	0.001129	0.01165	0.00104
318.15	0.002265	0.02328	0.00137
318.15	0.003396	0.03469	0.00176
318.15	0.004532	0.0456	0.00215
318.15	0.005668	0.05701	0.00258
318.15	0.006798	0.06834	0.00302
318.15	0.007929	0.07942	0.00346
318.15	0.009059	0.09013	0.00388

System: propan-2-ol + 1-butyl-3-methylimidazolium hexafluorophosphate; phases: Liquid
Fixed: Pressure, kPa = 101
Property: Excess molar enthalpy (molar enthalpy of mixing), kJ/mol (Liquid); method: Calvet calorimetry
Temperature, K	Mole fraction of propan-2-ol	Excess molar enthalpy (molar enthalpy of mixing), kJ/mol	uncertainty
288.15	0.000943	0.00893	0.00099
288.15	0.001871	0.01783	0.00121
288.15	0.002806	0.02667	0.00148
288.15	0.003745	0.03532	0.00178
288.15	0.004685	0.04416	0.0021
288.15	0.00562	0.05281	0.00242
288.15	0.006556	0.06108	0.00274
288.15	0.007492	0.06985	0.00308
298.15	0.000909	0.00875	0.00098
298.15	0.001826	0.01746	0.00119
298.15	0.002738	0.02593	0.00146
298.15	0.003654	0.03435	0.00174
298.15	0.004571	0.04288	0.00205
298.15	0.005484	0.05146	0.00237
298.15	0.006398	0.05989	0.0027
298.15	0.007311	0.0684	0.00302
308.15	0.000919	0.00916	0.00099
308.15	0.001837	0.01761	0.0012
308.15	0.002753	0.02548	0.00144
308.15	0.003667	0.03316	0.0017
308.15	0.004579	0.0408	0.00198
308.15	0.00549	0.04798	0.00224
308.15	0.006399	0.0553	0.00252
308.15	0.007307	0.06244	0.00279
318.15	0.000994	0.01009	0.00101
318.15	0.00201	0.01978	0.00126
318.15	0.003012	0.0288	0.00155
318.15	0.004011	0.03793	0.00187
318.15	0.005009	0.04663	0.00219
318.15	0.006005	0.05567	0.00253
318.15	0.006999	0.06438	0.00287
318.15	0.007991	0.0718	0.00316

System: butan-1-ol + 1-butyl-3-methylimidazolium hexafluorophosphate; phases: Liquid
Fixed: Pressure, kPa = 101
Property: Excess molar enthalpy (molar enthalpy of mixing), kJ/mol (Liquid); method: Calvet calorimetry
Temperature, K	Mole fraction of butan-1-ol	Excess molar enthalpy (molar enthalpy of mixing), kJ/mol	uncertainty
288.15	0.000787	0.00833	0.00098
288.15	0.001572	0.01636	0.00116
288.15	0.002356	0.02453	0.00141
288.15	0.003139	0.0324	0.00167
288.15	0.003921	0.04038	0.00196
288.15	0.004701	0.04831	0.00225
288.15	0.00548	0.05606	0.00255
288.15	0.006258	0.06407	0.00286
298.15	0.000761	0.00859	0.00098
298.15	0.00152	0.01682	0.00118
298.15	0.002279	0.02527	0.00143
298.15	0.003036	0.03337	0.00171
298.15	0.003792	0.04136	0.002
298.15	0.004547	0.04914	0.00229
298.15	0.005301	0.0568	0.00258
298.15	0.006053	0.06432	0.00287
308.15	0.000768	0.00844	0.00098
308.15	0.001541	0.01618	0.00116
308.15	0.002312	0.0235	0.00138
308.15	0.003086	0.0309	0.00162
308.15	0.003861	0.03849	0.00189
308.15	0.004632	0.04614	0.00217
308.15	0.005405	0.0539	0.00247
308.15	0.006177	0.06134	0.00275
318.15	0.000821	0.00952	0.001
318.15	0.001647	0.01885	0.00123
318.15	0.00247	0.02799	0.00152
318.15	0.003297	0.0361	0.00181
318.15	0.004125	0.04482	0.00212
318.15	0.004949	0.0534	0.00245
318.15	0.005774	0.06189	0.00277
318.15	0.006599	0.07003	0.00309
328.15	0.000874	0.01142	0.00104
328.15	0.001747	0.02212	0.00133
328.15	0.002618	0.03205	0.00166
328.15	0.003488	0.04239	0.00203
328.15	0.004357	0.05259	0.00242
328.15	0.005223	0.06284	0.00281
328.15	0.006089	0.07287	0.0032
328.15	0.006952	0.08286	0.00359
