Measured thermophysical data. Vapor-liquid equilibrium data for the carbon dioxide and oxygen (CO2 + O2) system at the temperatures 218, 233, 253, 273, 288 and 298 K and pressures up to 14 MPa
Source: Fluid Phase Equilib., 2016, 10.1016/j.fluid.2016.04.002
Compound 1: carbon dioxide, CO2, InChI=1S/CO2/c2-1-3, purity 99.999%
Compound 2: oxygen, O2, InChI=1S/O2/c1-2, purity 99.9999%

System: carbon dioxide + oxygen; phases: Liquid, Gas
Property: Mole fraction of carbon dioxide (Liquid); method: Chromatography
Temperature, K	Pressure, kPa	Mole fraction of carbon dioxide	uncertainty
218.147	554.6	0.99999	1e-05
218.148	2195.7	0.96687	0.00099
218.148	3936.2	0.92958	0.00108
218.148	5918.9	0.88226	0.00127
218.149	7893.5	0.82832	0.00155
218.148	9733.5	0.76941	0.00189
218.148	11791	0.68723	0.00244
218.148	13021.2	0.61994	0.00297
218.148	14035.8	0.53329	0.00366
218.148	14356.3	0.47535	0.00455
218.148	14387.3	0.4644	0.0048
218.149	14411.1	0.45232	0.0055
233.143	1004.8	0.99999	1e-05
233.142	1967.7	0.98023	0.00099
233.141	2934.5	0.9602	0.001
233.143	3940.8	0.93829	0.00106
233.143	5947.7	0.89067	0.00123
233.143	7833.4	0.84017	0.00148
233.142	8872.4	0.80939	0.00166
233.142	9851.4	0.77736	0.00185
233.14	11834.1	0.69897	0.00236
233.142	12824.8	0.64711	0.00275
233.142	13644.5	0.58762	0.00324
233.144	14186.8	0.51081	0.00471
233.144	14215.8	0.50044	0.00506
233.146	14240.7	0.4864	0.00643
253.147	1969.9	0.99999	1e-05
253.146	2963.2	0.97899	0.00097
253.146	4936.5	0.93518	0.00107
253.146	6908.1	0.8864	0.00125
253.146	8305.8	0.84783	0.00144
253.148	9622.6	0.8064	0.00168
253.147	10846.3	0.76222	0.00196
253.146	11855.7	0.71747	0.00225
253.146	12767.8	0.66173	0.00266
253.146	13276.2	0.59988	0.00388
253.147	13302.4	0.59165	0.00413
253.147	13320.1	0.58371	0.00478
273.147	3484.8	0.99999	1e-05
273.145	5016.1	0.96558	0.00099
273.146	5925.5	0.94385	0.00104
273.146	6925.8	0.91829	0.00112
273.146	7910.7	0.8911	0.00123
273.146	8889.4	0.86113	0.00138
273.145	9853.7	0.8271	0.00156
273.147	10886.4	0.78003	0.00188
273.146	11331.4	0.74899	0.00214
273.145	11557.9	0.71514	0.00431
273.146	11577.9	0.70363	0.00707
288.139	5085.9	0.99999	1e-05
288.137	5649.8	0.98649	0.00097
288.136	7049.4	0.9506	0.00102
288.134	8428.9	0.90854	0.00116
288.137	8866.6	0.8923	0.00123
288.138	9257.3	0.87508	0.00131
288.139	9578.4	0.8559	0.00143
288.138	9706.6	0.84282	0.00163
288.141	9723.1	0.84006	0.00168
288.139	9744.7	0.83495	0.00185
298.137	6432.8	0.99999	1e-05
298.133	7111	0.98137	0.00097
298.135	7419.1	0.97218	0.00098
298.134	7840.3	0.95809	0.00101
298.135	8025.8	0.95087	0.00103
298.135	8128.4	0.94625	0.00104
298.135	8264.8	0.93815	0.00108
298.136	8301.9	0.93439	0.00116
298.134	8318	0.93085	0.00156

System: carbon dioxide + oxygen; phases: Gas, Liquid
Property: Mole fraction of carbon dioxide (Gas); method: Chromatography
Temperature, K	Pressure, kPa	Mole fraction of carbon dioxide	uncertainty
218.147	554.6	0.99999	1e-05
218.148	1023.7	0.57354	0.00399
218.148	2195.7	0.29849	0.00278
218.148	3936.2	0.19663	0.00193
218.15	5918.9	0.16093	0.00167
218.148	7893.5	0.15229	0.00161
218.148	9733.5	0.15918	0.00166
218.147	11791	0.18681	0.00186
218.148	13021.1	0.22283	0.00214
218.148	14035.9	0.28665	0.00272
218.148	14356.3	0.33855	0.00414
218.147	14387.3	0.34936	0.00445
218.149	14411.1	0.36111	0.00526
233.143	1004.8	0.99999	1e-05
233.142	1967.7	0.56397	0.00407
233.142	2934.6	0.41117	0.00383
233.143	3940.8	0.33185	0.00309
233.143	5947.5	0.2628	0.00245
233.142	7833.5	0.24021	0.00226
233.141	8872.4	0.23715	0.00223
233.141	9851.4	0.2394	0.00225
233.141	11834.1	0.26143	0.00243
233.142	12824.8	0.28657	0.00267
233.142	13644.5	0.32548	0.00306
233.144	14186.8	0.39244	0.00463
233.144	14215.8	0.40299	0.00502
233.145	14240.7	0.41751	0.00651
253.147	1969.9	0.99999	1e-05
253.147	2963.1	0.72731	0.00255
253.146	4936.3	0.51051	0.00455
253.146	6908	0.42654	0.00397
253.146	8305.7	0.3999	0.00372
253.148	9622.2	0.3911	0.00364
253.148	10846.1	0.39517	0.00368
253.146	11855.8	0.41081	0.00382
253.146	12767.7	0.44495	0.00415
253.146	13276.2	0.50132	0.00505
253.147	13302.3	0.50988	0.0051
253.147	13320	0.51743	0.00557
273.147	3484.8	0.99999	1e-05
273.144	3943.3	0.91844	0.00129
273.145	5016.2	0.78625	0.00208
273.146	5925.6	0.71346	0.00267
273.146	6925.9	0.65904	0.00317
273.146	7910.7	0.62377	0.0035
273.146	8889.6	0.60275	0.00369
273.146	9853.9	0.59503	0.00376
273.146	10886.4	0.60684	0.00366
273.146	11331.2	0.62764	0.00349
273.145	11557.8	0.66096	0.0048
273.146	11578	0.67276	0.00749
288.139	5085.9	0.99999	1e-05
288.137	5649.8	0.94168	0.00111
288.142	7049.3	0.84273	0.00165
288.141	8428.9	0.7908	0.00202
288.137	8866.6	0.78344	0.00207
288.139	9257.3	0.78234	0.00208
288.138	9578.4	0.78942	0.00204
288.141	9706.6	0.79944	0.00206
288.141	9723.2	0.80207	0.00206
288.142	9744.7	0.80674	0.00216
298.137	6432.8	0.99999	1e-05
298.141	7111	0.95624	0.00104
298.135	7419.1	0.94072	0.00109
298.138	7839.2	0.92467	0.00116
298.14	8025.8	0.91978	0.00118
298.135	8133.9	0.91818	0.00119
298.135	8264.8	0.91898	0.00118
298.137	8301.9	0.92108	0.00121
298.136	8318	0.92389	0.00154

System: carbon dioxide + oxygen; phases: Gas, Liquid
Property: Mole fraction of carbon dioxide (Gas); method: Chromatography
Temperature, K	Pressure, kPa	Mole fraction of carbon dioxide	uncertainty
218.148	14439	0.3945	0.00306
218.147	14439	0.39472	0.00306
233.142	14261.7	0.44465	0.00346
233.142	14261.7	0.44445	0.00346
253.147	13356	0.55468	0.00345
253.148	13356.1	0.5547	0.00345
273.146	11597.6	0.68191	0.00247
273.145	11597.5	0.68219	0.00247
