Measured thermophysical data. Liquid-liquid equilibrium measurement and thermodynamics modeling for the systems water + thioglycolic acid + isopropyl ether/methyl tert-butyl ether at 298.15 and 308.15 K
Source: Fluid Phase Equilib., 2018, 10.1016/j.fluid.2018.08.003
Compound 1: 2-mercaptoacetic acid, C2H4O2S, InChI=1S/C2H4O2S/c3-2(4)1-5/h5H,1H2,(H,3,4), purity 99%
Compound 2: water, H2O, InChI=1S/H2O/h1H2, purity 99.9%
Compound 3: diisopropyl ether, C6H14O, InChI=1S/C6H14O/c1-5(2)7-6(3)4/h5-6H,1-4H3, purity 99%
Compound 4: 2-methoxy-2-methylpropane, C5H12O, InChI=1S/C5H12O/c1-5(2,3)6-4/h1-4H3, purity 99%

System: water + 2-mercaptoacetic acid + diisopropyl ether; phases: Liquid mixture 1, Liquid mixture 2
Fixed: Pressure, kPa = 101.3
Property: Mole fraction of water (Liquid mixture 1); method: Chromatography
Temperature, K	Mole fraction of 2-mercaptoacetic acid	Mole fraction of water	uncertainty
298.15	0.0321	0.0758	0.0283
298.15	0.0607	0.1152	0.0275
298.15	0.0865	0.1475	0.0229
298.15	0.1178	0.1699	0.0229
298.15	0.1343	0.2054	0.0233
298.15	0.1585	0.2153	0.0251
298.15	0.1762	0.2545	0.0496
298.15	0.1849	0.2748	0.041
298.15	0.1935	0.3138	0.0593
298.15	0.1967	0.3362	0.0683
298.15	0.1961	0.3899	0.1142
308.15	0.0432	0.1344	0.017
308.15	0.0751	0.1411	0.0264
308.15	0.1015	0.2086	0.0393
308.15	0.1225	0.242	0.0402
308.15	0.1323	0.2767	0.0398
308.15	0.1554	0.3257	0.0397
308.15	0.1686	0.3574	0.0402
308.15	0.1812	0.3826	0.0403
308.15	0.1891	0.4015	0.0395
308.15	0.1954	0.4199	0.0422

System: water + 2-mercaptoacetic acid + diisopropyl ether; phases: Liquid mixture 2, Liquid mixture 1
Fixed: Pressure, kPa = 101.3
Property: Mole fraction of water (Liquid mixture 2); method: Chromatography
Temperature, K	Mole fraction of 2-mercaptoacetic acid	Mole fraction of water	uncertainty
298.15	0.0084	0.9869	0.0131
298.15	0.0169	0.9749	0.0251
298.15	0.025	0.9636	0.0303
298.15	0.0351	0.9499	0.0304
298.15	0.0419	0.9357	0.0314
298.15	0.0526	0.9201	0.0313
298.15	0.0615	0.9049	0.0302
298.15	0.074	0.8877	0.0304
298.15	0.0853	0.8698	0.0302
298.15	0.0944	0.8561	0.0306
298.15	0.1047	0.8393	0.031
308.15	0.0084	0.9847	0.0153
308.15	0.015	0.9766	0.0234
308.15	0.0246	0.9676	0.0298
308.15	0.0318	0.9553	0.0278
308.15	0.0412	0.9428	0.029
308.15	0.0513	0.928	0.0273
308.15	0.0626	0.913	0.0272
308.15	0.0774	0.8957	0.0257
308.15	0.089	0.8808	0.0253
308.15	0.107	0.8621	0.024

System: water + 2-mercaptoacetic acid + 2-methoxy-2-methylpropane; phases: Liquid mixture 1, Liquid mixture 2
Fixed: Pressure, kPa = 101.3
Property: Mole fraction of water (Liquid mixture 1); method: Chromatography
Temperature, K	Mole fraction of 2-mercaptoacetic acid	Mole fraction of water	uncertainty
298.15	0.0722	0.2204	0.0282
298.15	0.0884	0.2559	0.0239
298.15	0.1277	0.2964	0.0243
298.15	0.1521	0.3236	0.0282
298.15	0.1739	0.3596	0.0409
298.15	0.1944	0.4184	0.081
298.15	0.2106	0.4631	0.0439
298.15	0.2159	0.5071	0.0353
298.15	0.2101	0.5678	0.0531
298.15	0.2085	0.6306	0.0592
298.15	0.1767	0.7069	0.0538
308.15	0.0602	0.2335	0.03
308.15	0.0884	0.2759	0.0262
308.15	0.1277	0.3164	0.0416
308.15	0.1391	0.3786	0.0668
308.15	0.1509	0.4287	0.051
308.15	0.1542	0.4945	0.1827
308.15	0.1616	0.5208	0.1895
308.15	0.1609	0.5871	0.1422
308.15	0.1701	0.6681	0.2077
308.15	0.1405	0.7606	0.0893
308.15	0.1287	0.7739	0.0628

System: water + 2-mercaptoacetic acid + 2-methoxy-2-methylpropane; phases: Liquid mixture 2, Liquid mixture 1
Fixed: Pressure, kPa = 101.3
Property: Mole fraction of water (Liquid mixture 2); method: Chromatography
Temperature, K	Mole fraction of 2-mercaptoacetic acid	Mole fraction of water	uncertainty
298.15	0.0071	0.985	0.015
298.15	0.0094	0.9822	0.0178
298.15	0.0149	0.9761	0.0238
298.15	0.0214	0.9693	0.0259
298.15	0.0257	0.9637	0.0254
298.15	0.0334	0.9549	0.0263
298.15	0.0428	0.9437	0.0279
298.15	0.0504	0.9324	0.0283
298.15	0.0572	0.9227	0.0274
298.15	0.0722	0.9015	0.0274
298.15	0.092	0.8779	0.0258
308.15	0.005	0.9887	0.0113
308.15	0.008	0.9848	0.0152
308.15	0.0124	0.9798	0.0202
308.15	0.0163	0.9742	0.0242
308.15	0.0224	0.9678	0.027
308.15	0.0304	0.9587	0.0293
308.15	0.0368	0.952	0.0291
308.15	0.0417	0.9416	0.0336
308.15	0.0554	0.9177	0.0353
308.15	0.0992	0.835	0.0355
308.15	0.1093	0.8125	0.0364
