Measured thermophysical data. Viscosity of the binary systems 2-methyl-2-propanol with n-alkanes at T = (303.15, 308.15, 313.15, 318.15 and 323.15) K: Prediction and correlation - New UNIFAC-VISCO  interaction parameters
Source: Fluid Phase Equilib., 2010, 10.1016/j.fluid.2010.10.009
Compound 1: 2-methylpropan-2-ol, C4H10O, InChI=1S/C4H10O/c1-4(2,3)5/h5H,1-3H3, purity 99.7%
Compound 2: heptane, C7H16, InChI=1S/C7H16/c1-3-5-7-6-4-2/h3-7H2,1-2H3, purity 99.5%
Compound 3: octane, C8H18, InChI=1S/C8H18/c1-3-5-7-8-6-4-2/h3-8H2,1-2H3, purity 99%
Compound 4: nonane, C9H20, InChI=1S/C9H20/c1-3-5-7-9-8-6-4-2/h3-9H2,1-2H3, purity 99%
Compound 5: decane, C10H22, InChI=1S/C10H22/c1-3-5-7-9-10-8-6-4-2/h3-10H2,1-2H3, purity 99%

System: 2-methylpropan-2-ol; phases: Liquid
Property: Viscosity, Pa*s (Liquid); method: Concentric cylinders viscometry
Temperature, K	Pressure, kPa	Viscosity, Pa*s	uncertainty
303.15	101.325	0.003387	1.57e-05

System: heptane; phases: Liquid
Property: Viscosity, Pa*s (Liquid); method: Concentric cylinders viscometry
Temperature, K	Pressure, kPa	Viscosity, Pa*s	uncertainty
303.15	101.325	0.0003773	7.6e-06

System: octane; phases: Liquid
Property: Viscosity, Pa*s (Liquid); method: Concentric cylinders viscometry
Temperature, K	Pressure, kPa	Viscosity, Pa*s	uncertainty
303.15	101.325	0.0004918	8.1e-06

System: nonane; phases: Liquid
Property: Viscosity, Pa*s (Liquid); method: Concentric cylinders viscometry
Temperature, K	Pressure, kPa	Viscosity, Pa*s	uncertainty
303.15	101.325	0.0006323	8.6e-06

System: decane; phases: Liquid
Property: Viscosity, Pa*s (Liquid); method: Concentric cylinders viscometry
Temperature, K	Pressure, kPa	Viscosity, Pa*s	uncertainty
303.15	101.325	0.0007838	9.2e-06

System: 2-methylpropan-2-ol + heptane; phases: Liquid
Fixed: Pressure, kPa = 101
Property: Viscosity, Pa*s (Liquid); method: Concentric cylinders viscometry
Mole fraction of 2-methylpropan-2-ol	Temperature, K	Viscosity, Pa*s	uncertainty
0	303.15	0.0003773	7.6e-06
0	308.15	0.0003603	7.6e-06
0	313.15	0.0003432	7.6e-06
0	318.15	0.0003269	7.5e-06
0	323.15	0.0003106	7.5e-06
0.103	303.15	0.0003899	7.6e-06
0.103	308.15	0.0003703	7.6e-06
0.103	313.15	0.000353	7.6e-06
0.103	318.15	0.0003329	7.5e-06
0.103	323.15	0.0003144	7.5e-06
0.2002	303.15	0.0004118	7.7e-06
0.2002	308.15	0.0003885	7.6e-06
0.2002	313.15	0.000367	7.6e-06
0.2002	318.15	0.0003441	7.5e-06
0.2002	323.15	0.0003201	7.5e-06
0.3006	303.15	0.0004501	7.8e-06
0.3006	308.15	0.0004228	7.7e-06
0.3006	313.15	0.0003983	7.7e-06
0.3006	318.15	0.0003737	7.6e-06
0.3006	323.15	0.0003489	7.6e-06
0.3999	303.15	0.0004922	7.8e-06
0.3999	308.15	0.000463	7.8e-06
0.3999	313.15	0.000433	7.7e-06
0.3999	318.15	0.0004062	7.7e-06
0.3999	323.15	0.0003805	7.6e-06
0.5001	303.15	0.000558	8e-06
0.5001	308.15	0.0005194	7.9e-06
0.5001	313.15	0.0004838	7.8e-06
0.5001	318.15	0.0004507	7.7e-06
0.5001	323.15	0.000419	7.7e-06
0.6001	303.15	0.0006624	8.2e-06
0.6001	308.15	0.0006063	8.1e-06
0.6001	313.15	0.0005587	8e-06
0.6001	318.15	0.0005157	7.9e-06
0.6001	323.15	0.0004765	7.8e-06
0.6996	303.15	0.0008071	8.6e-06
0.6996	308.15	0.0007282	8.3e-06
0.6996	313.15	0.000667	8.2e-06
0.6996	318.15	0.0006022	8.1e-06
0.6996	323.15	0.0005477	7.9e-06
0.8001	303.15	0.0010997	9.4e-06
0.8001	308.15	0.0009711	8.9e-06
0.8001	313.15	0.0008581	8.6e-06
0.8001	318.15	0.0007681	8.4e-06
0.8001	323.15	0.0006836	8.2e-06
0.9	303.15	0.0016994	1.12e-05
0.9	308.15	0.0014259	1.02e-05
0.9	313.15	0.0012138	9.6e-06
0.9	318.15	0.0010441	9.1e-06
0.9	323.15	0.0009079	8.7e-06
0.95	303.15	0.0022629	1.34e-05
0.95	308.15	0.0018597	1.17e-05
0.95	313.15	0.0015413	1.06e-05
0.95	318.15	0.0012932	9.8e-06
0.95	323.15	0.0010961	9.3e-06
1	303.15	0.003387	1.64e-05
1	308.15	0.0026299	1.41e-05
1	313.15	0.0020974	1.22e-05
1	318.15	0.0017066	1.1e-05
1	323.15	0.0014146	1.01e-05

System: 2-methylpropan-2-ol + octane; phases: Liquid
Fixed: Pressure, kPa = 101
Property: Viscosity, Pa*s (Liquid); method: Concentric cylinders viscometry
Mole fraction of 2-methylpropan-2-ol	Temperature, K	Viscosity, Pa*s	uncertainty
0	303.15	0.0004918	8.1e-06
0	308.15	0.0004684	8.1e-06
0	313.15	0.000447	8e-06
0	318.15	0.000425	7.9e-06
0	323.15	0.0004049	7.9e-06
0.1002	303.15	0.0005022	8.1e-06
0.1002	308.15	0.0004758	8e-06
0.1002	313.15	0.0004509	8e-06
0.1002	318.15	0.0004272	7.9e-06
0.1002	323.15	0.0004044	7.8e-06
0.2002	303.15	0.0005263	8.2e-06
0.2002	308.15	0.0004972	8.1e-06
0.2002	313.15	0.00047	8e-06
0.2002	318.15	0.0004443	7.9e-06
0.2002	323.15	0.0004198	7.8e-06
0.2996	303.15	0.000558	8.2e-06
0.2996	308.15	0.000525	8.1e-06
0.2996	313.15	0.0004943	8e-06
0.2996	318.15	0.0004656	7.9e-06
0.2996	323.15	0.0004377	7.9e-06
0.4003	303.15	0.0006031	8.3e-06
0.4003	308.15	0.0005644	8.2e-06
0.4003	313.15	0.0005287	8.1e-06
0.4003	318.15	0.0004956	8e-06
0.4003	323.15	0.0004646	7.9e-06
0.5006	303.15	0.0006658	8.4e-06
0.5006	308.15	0.0006186	8.3e-06
0.5006	313.15	0.0005757	8.1e-06
0.5006	318.15	0.0005363	8e-06
0.5006	323.15	0.0005	8e-06
0.5998	303.15	0.0007587	8.6e-06
0.5998	308.15	0.0006975	8.4e-06
0.5998	313.15	0.0006429	8.3e-06
0.5998	318.15	0.0005938	8.1e-06
0.5998	323.15	0.000549	8e-06
0.7	303.15	0.000912	8.9e-06
0.7	308.15	0.0008243	8.7e-06
0.7	313.15	0.0007485	8.5e-06
0.7	318.15	0.0006822	8.3e-06
0.7	323.15	0.0006233	8.2e-06
0.799	303.15	0.0011869	9.6e-06
0.799	308.15	0.0010437	9.2e-06
0.799	313.15	0.0009254	8.9e-06
0.799	318.15	0.0008261	8.6e-06
0.799	323.15	0.0007415	8.4e-06
0.8499	303.15	0.0014375	1.04e-05
0.8499	308.15	0.0012358	9.7e-06
0.8499	313.15	0.0010745	9.3e-06
0.8499	318.15	0.0009428	8.9e-06
0.8499	323.15	0.000833	8.6e-06
0.9	303.15	0.0017814	1.14e-05
0.9	308.15	0.0014963	1.05e-05
0.9	313.15	0.0012749	9.8e-06
0.9	318.15	0.0010994	9.3e-06
0.9	323.15	0.000958	8.9e-06
0.9235	303.15	0.0020155	1.22e-05
0.9235	308.15	0.0016691	1.1e-05
0.9235	313.15	0.0014045	1.02e-05
0.9235	318.15	0.0011981	9.6e-06
0.9235	323.15	0.0010342	9.1e-06
0.9499	303.15	0.0023528	1.37e-05
0.9499	308.15	0.0019131	1.19e-05
0.9499	313.15	0.001584	1.08e-05
0.9499	318.15	0.0013325	1e-05
0.9499	323.15	0.0011363	9.4e-06
1	303.15	0.003387	1.64e-05
1	308.15	0.0026299	1.41e-05
1	313.15	0.0020974	1.22e-05
1	318.15	0.0017066	1.1e-05
1	323.15	0.0014146	1.01e-05

System: 2-methylpropan-2-ol + nonane; phases: Liquid
Fixed: Pressure, kPa = 101
Property: Viscosity, Pa*s (Liquid); method: Concentric cylinders viscometry
Mole fraction of 2-methylpropan-2-ol	Temperature, K	Viscosity, Pa*s	uncertainty
0	303.15	0.0006323	8.6e-06
0	308.15	0.0005974	8.5e-06
0	313.15	0.0005652	8.4e-06
0	318.15	0.0005352	8.3e-06
0	323.15	0.0005073	8.2e-06
0.1012	303.15	0.0006377	8.6e-06
0.1012	308.15	0.0005996	8.4e-06
0.1012	313.15	0.0005644	8.3e-06
0.1012	318.15	0.000532	8.2e-06
0.1012	323.15	0.000502	8.1e-06
0.2008	303.15	0.0006593	8.6e-06
0.2008	308.15	0.0006177	8.4e-06
0.2008	313.15	0.0005795	8.3e-06
0.2008	318.15	0.0005442	8.2e-06
0.2008	323.15	0.0005114	8.1e-06
0.3	303.15	0.0006872	8.6e-06
0.3	308.15	0.0006414	8.4e-06
0.3	313.15	0.0005995	8.3e-06
0.3	318.15	0.0005608	8.2e-06
0.3	323.15	0.0005247	8.1e-06
0.3999	303.15	0.0007276	8.6e-06
0.3999	308.15	0.000676	8.5e-06
0.3999	313.15	0.0006289	8.3e-06
0.3999	318.15	0.0005857	8.2e-06
0.3999	323.15	0.0005459	8.1e-06
0.4995	303.15	0.0007904	8.7e-06
0.4995	308.15	0.0007297	8.6e-06
0.4995	313.15	0.0006749	8.4e-06
0.4995	318.15	0.0006251	8.3e-06
0.4995	323.15	0.0005795	8.2e-06
0.5998	303.15	0.0008796	8.9e-06
0.5998	308.15	0.0008038	8.7e-06
0.5998	313.15	0.0007366	8.5e-06
0.5998	318.15	0.0006766	8.4e-06
0.5998	323.15	0.0006227	8.2e-06
0.6991	303.15	0.001027	9.3e-06
0.6991	308.15	0.000923	8.9e-06
0.6991	313.15	0.0008336	8.7e-06
0.6991	318.15	0.0007558	8.5e-06
0.6991	323.15	0.0006874	8.3e-06
0.7997	303.15	0.0012969	1e-05
0.7997	308.15	0.0011357	9.5e-06
0.7997	313.15	0.001003	9.1e-06
0.7997	318.15	0.0008918	8.8e-06
0.7997	323.15	0.0007976	8.5e-06
0.9	303.15	0.0018558	1.17e-05
0.9	308.15	0.0015561	1.06e-05
0.9	313.15	0.0013226	9.9e-06
0.9	318.15	0.0011373	9.4e-06
0.9	323.15	0.0009883	9e-06
0.9494	303.15	0.0023916	1.38e-05
0.9494	308.15	0.0019437	1.19e-05
0.9494	313.15	0.0016083	1.08e-05
0.9494	318.15	0.0013514	1e-05
0.9494	323.15	0.0011508	9.4e-06
1	303.15	0.003387	1.64e-05
1	308.15	0.0026299	1.41e-05
1	313.15	0.0020974	1.22e-05
1	318.15	0.0017066	1.1e-05
1	323.15	0.0014146	1.01e-05

System: 2-methylpropan-2-ol + decane; phases: Liquid
Fixed: Pressure, kPa = 101
Property: Viscosity, Pa*s (Liquid); method: Concentric cylinders viscometry
Mole fraction of 2-methylpropan-2-ol	Temperature, K	Viscosity, Pa*s	uncertainty
0	303.15	0.0007838	9.2e-06
0	308.15	0.0007337	9e-06
0	313.15	0.0006883	8.8e-06
0	318.15	0.0006466	8.7e-06
0	323.15	0.0006085	8.5e-06
0.1003	303.15	0.0007786	9.1e-06
0.1003	308.15	0.0007263	8.9e-06
0.1003	313.15	0.0006791	8.7e-06
0.1003	318.15	0.0006362	8.6e-06
0.1003	323.15	0.000597	8.4e-06
0.2001	303.15	0.0007925	9e-06
0.2001	308.15	0.0007382	8.8e-06
0.2001	313.15	0.0006879	8.7e-06
0.2001	318.15	0.0006422	8.5e-06
0.2001	323.15	0.0006002	8.4e-06
0.3	303.15	0.000825	9e-06
0.3	308.15	0.0007653	8.8e-06
0.3	313.15	0.0007104	8.6e-06
0.3	318.15	0.0006604	8.5e-06
0.3	323.15	0.0006153	8.4e-06
0.3997	303.15	0.0008622	9e-06
0.3997	308.15	0.0007934	8.8e-06
0.3997	313.15	0.0007326	8.6e-06
0.3997	318.15	0.0006775	8.5e-06
0.3997	323.15	0.000627	8.3e-06
0.5	303.15	0.0009148	9.1e-06
0.5	308.15	0.0008404	8.9e-06
0.5	313.15	0.0007726	8.7e-06
0.5	318.15	0.0007125	8.5e-06
0.5	323.15	0.0006566	8.4e-06
0.5999	303.15	0.0009861	9.2e-06
0.5999	308.15	0.0008974	9e-06
0.5999	313.15	0.0008188	8.7e-06
0.5999	318.15	0.0007493	8.5e-06
0.5999	323.15	0.0006869	8.4e-06
0.6997	303.15	0.0011293	9.6e-06
0.6997	308.15	0.0010096	9.2e-06
0.6997	313.15	0.0009091	8.9e-06
0.6997	318.15	0.0008219	8.7e-06
0.6997	323.15	0.0007459	8.5e-06
0.8001	303.15	0.0013716	1.03e-05
0.8001	308.15	0.0011994	9.6e-06
0.8001	313.15	0.0010583	9.2e-06
0.8001	318.15	0.0009404	8.9e-06
0.8001	323.15	0.0008399	8.6e-06
0.8999	303.15	0.0019365	1.19e-05
0.8999	308.15	0.001621	1.08e-05
0.8999	313.15	0.0013764	1.01e-05
0.8999	318.15	0.0011817	9.5e-06
0.8999	323.15	0.0010235	9.1e-06
0.9499	303.15	0.0023658	1.37e-05
0.9499	308.15	0.0019482	1.19e-05
0.9499	313.15	0.0016141	1.08e-05
0.9499	318.15	0.0013573	1e-05
0.9499	323.15	0.0011553	9.4e-06
1	303.15	0.003387	1.64e-05
1	308.15	0.0026299	1.41e-05
1	313.15	0.0020974	1.22e-05
1	318.15	0.0017066	1.1e-05
1	323.15	0.0014146	1.01e-05
