Measured thermophysical data. Phase diagrams of Na2SO4-MgSO4-CO(NH2)2-H2O system at 60 C and their application
Source: Fluid Phase Equilib., 2016, 10.1016/j.fluid.2015.11.016
Compound 1: urea, CH4N2O, InChI=1S/CH4N2O/c2-1(3)4/h(H4,2,3,4), purity 99%
Compound 2: water, H2O, InChI=1S/H2O/h1H2, purity 99.9%
Compound 3: sodium sulfate, Na2O4S, InChI=1S/2Na.H2O4S/c;;1-5(2,3)4/h;;(H2,1,2,3,4)/q2*+1;/p-2, purity 99%
Compound 4: magnesium sulfate, MgO4S, InChI=1S/Mg.H2O4S/c;1-5(2,3)4/h;(H2,1,2,3,4)/q+2;/p-2, purity 99%

System: urea + water + sodium sulfate; phases: Liquid, Crystal
Fixed: Temperature, K = 333.15
Fixed: Pressure, kPa = 101
Property: Mass fraction of sodium sulfate (Liquid); method: barium sulfate precipitation method
Mass fraction of urea	Mass fraction of sodium sulfate	uncertainty
0	0.312	0.0007
0.0775	0.2788	0.0007
0.1529	0.2239	0.0005
0.2596	0.1642	0.0004
0.354	0.1317	0.0003
0.4288	0.0871	0.0002
0.5327	0.0795	0.0002
0.6081	0.0562	0.0001
0.6921	0.0526	0.0001
0.6836	0.0534	0.0001

System: urea + water + sodium sulfate; phases: Liquid, Crystal
Fixed: Temperature, K = 333.15
Fixed: Pressure, kPa = 101
Property: Mass fraction of sodium sulfate (Liquid); method: barium sulfate precipitation method
Mass fraction of urea	Mass fraction of sodium sulfate	uncertainty
0.6921	0.0526	0.0005
0.6836	0.0534	0.0001
0.6931	0.0508	0.0005
0.7069	0	

System: urea + magnesium sulfate + water; phases: Liquid, Crystal
Fixed: Temperature, K = 333.15
Fixed: Pressure, kPa = 101
Property: Mass fraction of magnesium sulfate (Liquid); method: Titration method
Mass fraction of urea	Mass fraction of magnesium sulfate	uncertainty
0.7069	0	
0.6215	0.0432	0.0011
0.6086	0.1331	0.0011
0.55	0.2156	0.0006

System: urea + magnesium sulfate + water; phases: Liquid, Crystal of intercomponent compound 1
Fixed: Temperature, K = 333.15
Fixed: Pressure, kPa = 101
Property: Mass fraction of magnesium sulfate (Liquid); method: Titration method
Mass fraction of urea	Mass fraction of magnesium sulfate	uncertainty
0.55	0.2156	0.0006
0.5479	0.2196	0.0006
0.4692	0.2269	0.0005
0.361	0.2468	0.0006
0.3115	0.2626	0.0006
0.1905	0.3026	0.0007

System: urea + magnesium sulfate + water; phases: Liquid, Crystal of intercomponent compound 2
Fixed: Temperature, K = 333.15
Fixed: Pressure, kPa = 101
Property: Mass fraction of magnesium sulfate (Liquid); method: Titration method
Mass fraction of urea	Mass fraction of magnesium sulfate	uncertainty
0.1905	0.3026	0.0007
0.1116	0.3233	0.0008
0.032	0.3327	0.0008

System: urea + magnesium sulfate + water; phases: Liquid, Crystal
Property: Mass fraction of magnesium sulfate (Liquid); method: Titration method
Mass fraction of urea	Temperature, K	Pressure, kPa	Mass fraction of magnesium sulfate	uncertainty
0	333.15	101	0.3524	0.0008

System: water + sodium sulfate; phases: Liquid, Crystal
Property: Mass fraction of sodium sulfate (Liquid); method: barium sulfate precipitation method
Temperature, K	Pressure, kPa	Mass fraction of sodium sulfate	uncertainty
333.15	101	0.312	0.0007

System: urea + water; phases: Liquid, Crystal
Property: Mass fraction of urea (Liquid); method: barium sulfate precipitation method
Temperature, K	Pressure, kPa	Mass fraction of urea	uncertainty
333.15	101	0.7069	

System: magnesium sulfate + water; phases: Liquid, Crystal
Property: Mass fraction of magnesium sulfate (Liquid); method: Titration method
Temperature, K	Pressure, kPa	Mass fraction of magnesium sulfate	uncertainty
333.15	101	0.3524	0.0008
