Measured thermophysical data. Measurements of the thermal conductivity of n-hexane in the supercritical region
Source: Fluid Phase Equilib., 2019, 10.1016/j.fluid.2018.10.006
Compound 1: hexane, C6H14, InChI=1S/C6H14/c1-3-5-6-4-2/h3-6H2,1-2H3, purity 99%

System: hexane; phases: Fluid (supercritical or subcritical phases)
Property: Thermal conductivity, W/m/K (Fluid (supercritical or subcritical phases)); method: Coaxial cylinder method
Temperature, K	Pressure, kPa	Thermal conductivity, W/m/K	uncertainty
508.17	2949	0.0646	0.00323
508.17	2953	0.06509	0.00325
508.17	2956	0.06509	0.00323
508.17	2963	0.06603	0.0033
508.17	2966	0.06628	0.00333
508.17	2970	0.06681	0.00335
508.17	2974	0.06734	0.00341
508.17	2979	0.06826	0.00345
508.17	2982	0.0687	0.00353
508.17	2990	0.07041	0.00363
508.17	2991	0.0707	0.00368
508.17	2995	0.07129	0.00371
508.17	2998	0.07219	0.00394
508.17	3002	0.07324	0.00411
508.17	3007	0.07436	0.00436
508.17	3009	0.07488	0.0049
508.17	3013	0.0758	0.00541
508.17	3015	0.07648	0.00482
508.17	3017	0.07703	0.00449
508.17	3021	0.07822	0.0043
508.17	3022	0.07848	0.00426
508.17	3024	0.0792	0.00427
508.17	3026	0.07994	0.00423
508.17	3029	0.08069	0.00422
508.17	3031	0.08185	0.00424
508.17	3033	0.08287	0.00426
508.17	3034	0.08344	0.00427
508.17	3036	0.08467	0.0043
508.17	3037	0.08467	0.00429
508.17	3038	0.08604	0.00436
508.17	3039	0.08566	0.00433
508.17	3040	0.08735	0.0044
508.17	3041	0.08647	0.00432
508.17	3041	0.08824	0.00442
508.17	3042	0.09103	0.00457
508.17	3043	0.09201	0.00461
508.17	3045	0.09401	0.00469
508.17	3046	0.09504	0.00474
508.17	3047	0.0961	0.00475
508.17	3048	0.09828	0.00487
508.17	3049	0.09941	0.00493
508.17	3050	0.10175	0.00505
508.17	3051	0.10482	0.00523
508.17	3052	0.10809	0.00534
508.17	3053	0.11185	0.00555
508.17	3054	0.11685	0.00578
508.17	3055	0.12261	0.00611
508.17	3056	0.13189	0.00663
508.17	3057	0.14872	0.00759
508.17	3058	0.16252	0.00837
508.17	3059	0.14383	0.00727
508.17	3060	0.13189	0.00654
508.17	3061	0.12313	0.00604
508.17	3062	0.11685	0.00564
508.17	3063	0.11233	0.0054
508.17	3064	0.10881	0.0052
508.17	3065	0.10602	0.00501
508.17	3066	0.10386	0.00489
508.17	3067	0.10239	0.00477
508.17	3068	0.1006	0.00467
508.17	3069	0.09945	0.00459
508.17	3070	0.09832	0.00453
508.17	3071	0.09743	0.00448
508.17	3073	0.09613	0.00439
508.17	3074	0.09508	0.00433
508.17	3075	0.09456	0.00431
508.17	3076	0.09404	0.00428
508.17	3077	0.09323	0.00425
508.17	3078	0.09287	0.00424
508.17	3079	0.09237	0.00423
508.17	3080	0.09171	0.00422
508.17	3081	0.09127	0.00424
508.17	3082	0.09079	0.00425
508.17	3083	0.09032	0.00429
508.17	3084	0.08985	0.00433
508.17	3085	0.08955	0.00442
508.17	3086	0.0889	0.00451
508.17	3087	0.08845	0.0047
508.17	3088	0.088	0.00482
508.17	3089	0.08755	0.00499
508.17	3090	0.08755	0.00507
508.17	3091	0.08711	0.00505
508.17	3092	0.08667	0.00497
508.17	3094	0.08581	0.00457
508.17	3095	0.08539	0.00441
508.17	3100	0.08334	0.00386
508.17	3105	0.08267	0.004
508.17	3108	0.08217	0.00382
508.17	3115	0.08124	0.00375
508.17	3120	0.08025	0.00371
508.17	3125	0.08032	0.00371
508.17	3130	0.08032	0.00372
508.17	3132	0.08032	0.00372
508.92	900	0.03769	0.00195
508.92	1100	0.03855	0.00199
508.92	1234	0.03889	0.002
508.92	1401	0.03933	0.00202
508.92	1510	0.03959	0.00203
508.92	1603	0.03996	0.00205
508.92	1710	0.04032	0.00206
508.92	1806	0.0407	0.00208
508.92	1908	0.04118	0.00209
508.92	2006	0.04167	0.00211
508.92	2111	0.04248	0.00215
508.92	2210	0.043	0.00217
508.92	2300	0.04353	0.00219
508.92	2409	0.04463	0.00223
508.92	2509	0.04579	0.00228
508.92	2600	0.04701	0.00234
508.92	2650	0.04777	0.00237
508.92	2726	0.0491	0.00243
508.92	2744	0.04937	0.00244
508.92	2752	0.04965	0.00245
508.92	2763	0.04993	0.00246
508.92	2847	0.05261	0.00258
508.92	2898	0.05429	0.00269
508.92	2902	0.05464	0.00271
508.92	2927	0.05568	0.00275
508.92	2955	0.05752	0.00284
508.92	2968	0.05888	0.0029
508.92	2975	0.05948	0.00293
508.92	2985	0.06031	0.00298
508.92	2988	0.06094	0.00303
508.92	2992	0.06115	0.00303
508.92	2999	0.06202	0.00309
508.92	3004	0.06246	0.00311
508.92	3011	0.06336	0.00317
508.92	3015	0.06429	0.00323
508.92	3019	0.06477	0.00326
508.92	3025	0.06574	0.00331
508.92	3028	0.06624	0.00337
508.92	3033	0.06751	0.00348
508.92	3035	0.06804	0.00351
508.92	3039	0.06857	0.00356
508.92	3042	0.06938	0.0037
508.92	3044	0.06994	0.0038
508.92	3048	0.07107	0.004
508.92	3050	0.0715	0.00408
508.92	3052	0.07223	0.00428
508.92	3055	0.07344	0.00485
508.92	3056	0.07375	0.00521
508.92	3059	0.07469	0.00575
508.92	3060	0.07532	0.00525
508.92	3063	0.0763	0.0045
508.92	3065	0.07747	0.00432
508.92	3067	0.07868	0.00424
508.92	3068	0.07903	0.0042
508.92	3069	0.0801	0.00421
508.92	3070	0.08047	0.00419
508.92	3071	0.08084	0.00417
508.92	3073	0.08254	0.0042
508.92	3074	0.08353	0.00421
508.92	3075	0.08412	0.00422
508.92	3076	0.08532	0.00424
508.92	3077	0.08593	0.00424
508.92	3078	0.08697	0.00427
508.92	3079	0.08803	0.0043
508.92	3080	0.08934	0.00434
508.92	3081	0.09069	0.00438
508.92	3082	0.09234	0.00444
508.92	3083	0.09384	0.00448
508.92	3084	0.09568	0.00455
508.92	3085	0.0977	0.00462
508.92	3086	0.1001	0.00471
508.92	3087	0.103	0.00482
508.92	3088	0.10614	0.00493
508.92	3089	0.1087	0.00503
508.92	3090	0.10963	0.00507
508.92	3091	0.11004	0.00508
508.92	3092	0.10934	0.00504
508.92	3093	0.10715	0.00493
508.92	3094	0.10494	0.00483
508.92	3095	0.10282	0.00473
508.92	3096	0.10103	0.00466
508.92	3097	0.09872	0.00456
508.92	3098	0.0967	0.00444
508.92	3099	0.0947	0.00436
508.92	3100	0.09356	0.00431
508.92	3101	0.09223	0.00425
508.92	3102	0.09134	0.00421
508.92	3103	0.09045	0.00415
508.92	3104	0.08916	0.0041
508.92	3105	0.08837	0.00407
508.92	3106	0.08751	0.00403
508.92	3107	0.08708	0.00401
508.92	3108	0.08666	0.00398
508.92	3109	0.08604	0.00396
508.92	3110	0.08542	0.00393
508.92	3111	0.08502	0.00392
508.92	3112	0.08462	0.0039
508.92	3113	0.08398	0.00386
508.92	3114	0.08318	0.00383
508.92	3115	0.08318	0.00383
508.92	3120	0.08124	0.00376
508.92	3125	0.07976	0.00373
508.92	3130	0.07868	0.0037
508.92	3135	0.07761	0.00368
508.92	3140	0.07664	0.00362
508.92	3145	0.07595	0.00356
508.92	3150	0.07561	0.00353
508.92	3155	0.07461	0.00348
508.92	3159	0.07461	0.00348
508.92	3160	0.07429	0.00346
508.92	3165	0.07396	0.00345
508.92	3170	0.07364	0.00343
508.92	3175	0.07309	0.00341
508.92	3180	0.07309	0.00341
508.92	3185	0.07278	0.0034
508.92	3190	0.07248	0.00339
508.92	3195	0.07217	0.00337
508.92	3200	0.07227	0.00338
508.92	3205	0.07189	0.00336
508.92	3215	0.07157	0.00334
508.92	3220	0.07128	0.00334
508.92	3225	0.07128	0.00333
508.92	3230	0.07107	0.00333
508.92	3235	0.07101	0.00332
508.92	3240	0.07092	0.00332
508.92	3245	0.07081	0.00331
508.92	3250	0.07098	0.00332
508.92	3255	0.07098	0.00332
508.92	3260	0.07098	0.00332
508.92	3265	0.07069	0.00331
508.92	3270	0.07069	0.00331
508.92	3275	0.07069	0.00331
508.92	3280	0.07069	0.00331
508.92	3285	0.07069	0.00331
508.92	3290	0.0704	0.0033
508.92	3295	0.0704	0.0033
508.92	3300	0.0704	0.0033
508.92	3310	0.0704	0.0033
508.92	3320	0.07069	0.00331
508.92	3330	0.07069	0.00331
508.92	3340	0.07069	0.00331
508.92	3350	0.0707	0.00331
508.92	3355	0.07041	0.0033
508.92	3360	0.07041	0.0033
508.92	3365	0.07041	0.0033
508.92	3370	0.07041	0.0033
508.92	3375	0.07041	0.0033
508.92	3380	0.07041	0.0033
508.92	3385	0.07041	0.0033
508.92	3390	0.07013	0.00328
508.92	3395	0.07013	0.00328
508.92	3500	0.07013	0.00328
508.92	3535	0.07013	0.00328
508.92	3540	0.07013	0.00328
508.92	3545	0.06984	0.00327
508.92	3550	0.07041	0.0033
508.92	3555	0.07041	0.0033
508.92	3560	0.07041	0.0033
508.92	3565	0.07041	0.0033
508.92	3570	0.07041	0.0033
508.92	3605	0.06984	0.00327
508.92	3670	0.06984	0.00327
508.92	3690	0.06984	0.00327
508.92	3700	0.0707	0.00331
508.92	3900	0.0707	0.00331
508.92	4000	0.0707	0.00331
508.92	4300	0.07129	0.00333
508.92	4400	0.07159	0.00335
508.92	4500	0.07188	0.00336
508.92	4600	0.07219	0.00337
508.92	4700	0.07219	0.00337
508.92	4800	0.0725	0.00338
508.92	4900	0.0725	0.00338
508.92	5000	0.0728	0.0034
508.92	5100	0.0728	0.0034
508.92	5200	0.07342	0.00342
508.92	5300	0.07342	0.00342
508.92	5400	0.07342	0.00342
508.92	5500	0.07373	0.00343
508.92	5600	0.07437	0.00346
508.92	5800	0.07437	0.00346
508.92	6000	0.07437	0.00346
508.92	6100	0.07437	0.00346
508.92	6200	0.07469	0.00347
508.92	6400	0.07501	0.00349
508.92	6500	0.07534	0.0035
508.92	7000	0.07634	0.00354
508.92	7500	0.07702	0.00357
508.92	8000	0.07771	0.0036
508.92	8500	0.07771	0.0036
508.92	9000	0.07828	0.00362
508.92	9500	0.07915	0.00366
508.92	10000	0.07951	0.00368
509.85	2686	0.04642	0.00231
509.85	2700	0.04668	0.00232
509.85	2710	0.04655	0.00232
509.85	2720	0.04706	0.00234
509.85	2730	0.0472	0.00234
509.85	2740	0.04733	0.00235
509.85	2750	0.04759	0.00236
509.85	2760	0.04786	0.00237
509.85	2770	0.04813	0.00238
509.85	2780	0.04827	0.00238
509.85	2790	0.04841	0.00239
509.85	2800	0.04854	0.00239
509.85	2805	0.04868	0.0024
509.85	2810	0.04882	0.00241
509.85	2815	0.0491	0.00242
509.85	2820	0.04925	0.00242
509.85	2825	0.04939	0.00243
509.85	2830	0.04953	0.00244
509.85	2835	0.04968	0.00244
509.85	2840	0.04957	0.00244
509.85	2845	0.04972	0.00244
509.85	2850	0.04986	0.00245
509.85	2855	0.05001	0.00246
509.85	2860	0.05016	0.00246
509.85	2865	0.05031	0.00247
509.85	2870	0.05046	0.00247
509.85	2875	0.05061	0.00248
509.85	2880	0.05077	0.00249
509.85	2885	0.05123	0.00251
509.85	2890	0.05123	0.00251
509.85	2895	0.05139	0.00251
509.85	2900	0.05154	0.00252
509.85	2905	0.0517	0.00253
509.85	2910	0.05186	0.00253
509.85	2915	0.05218	0.00255
509.85	2920	0.05243	0.00256
509.85	2925	0.05259	0.00256
509.85	2930	0.05293	0.00258
509.85	2935	0.05309	0.00258
509.85	2940	0.05326	0.00259
509.85	2945	0.05344	0.0026
509.85	2950	0.05378	0.00262
509.85	2955	0.05395	0.00262
509.85	2960	0.05431	0.00264
509.85	2965	0.05466	0.00265
509.85	2970	0.05502	0.00267
509.85	2975	0.05557	0.00269
509.85	2980	0.05557	0.00269
509.85	2985	0.05595	0.00271
509.85	2990	0.05595	0.00271
509.85	2995	0.05651	0.00273
509.85	3000	0.0569	0.00275
509.85	3005	0.05749	0.00277
509.85	3010	0.05788	0.00279
509.85	3015	0.05829	0.00281
509.85	3020	0.05869	0.00285
509.85	3025	0.05975	0.00289
509.85	3030	0.05975	0.0029
509.85	3035	0.05975	0.0029
509.85	3040	0.06085	0.00295
509.85	3045	0.0613	0.00297
509.85	3050	0.0618	0.00307
509.85	3055	0.06256	0.00314
509.85	3060	0.06305	0.0032
509.85	3065	0.06429	0.00329
509.85	3070	0.06507	0.0034
509.85	3080	0.06696	0.00378
509.85	3085	0.06809	0.00415
509.85	3090	0.06955	0.00477
509.85	3095	0.07139	0.00437
509.85	3100	0.07333	0.00396
509.85	3105	0.07573	0.00383
509.85	3110	0.07753	0.00379
509.85	3115	0.08101	0.00386
509.85	3120	0.08569	0.00399
509.85	3125	0.08932	0.00411
509.85	3130	0.09098	0.00416
509.85	3135	0.09203	0.0042
509.85	3140	0.08826	0.00405
509.85	3145	0.08512	0.00394
509.85	3150	0.0829	0.00387
509.85	3155	0.08149	0.00383
509.85	3160	0.07984	0.00376
509.85	3170	0.07755	0.00365
509.85	3180	0.07646	0.00358
509.85	3190	0.07505	0.0035
509.85	3200	0.07436	0.00347
509.85	3210	0.07368	0.00344
509.85	3220	0.07319	0.00341
509.85	3230	0.07264	0.00339
509.85	3240	0.07251	0.00338
509.85	3250	0.07211	0.00337
509.85	3260	0.07181	0.00335
509.85	3270	0.07177	0.00335
509.85	3280	0.07145	0.00334
509.85	3290	0.07134	0.00333
509.85	3300	0.07091	0.00332
509.85	3310	0.07096	0.00332
509.85	3320	0.07054	0.0033
509.85	3330	0.07035	0.00329
509.85	3340	0.06992	0.00328
509.85	3390	0.06989	0.00328
509.85	3400	0.06989	0.00328
509.85	3450	0.06947	0.00326
509.85	3500	0.06961	0.00326
509.85	3600	0.06975	0.00327
509.85	3800	0.07031	0.0033
509.85	4000	0.07061	0.0033
509.85	4200	0.07105	0.00332
509.85	4400	0.07134	0.00333
509.85	4600	0.07179	0.00335
509.85	4800	0.07215	0.00337
509.85	5000	0.07254	0.00338
509.85	5200	0.07285	0.0034
509.85	5400	0.07315	0.00341
509.85	5600	0.07355	0.00343
509.85	5800	0.07393	0.00344
509.85	6000	0.07421	0.00345
509.85	6200	0.07453	0.00347
509.85	6400	0.07484	0.00348
509.85	6600	0.07514	0.00349
509.85	6800	0.07543	0.00351
509.85	7000	0.0757	0.00352
509.85	7200	0.07596	0.00353
509.85	7400	0.07619	0.00354
509.85	7600	0.07646	0.00355
509.85	7800	0.07673	0.00356
509.85	8000	0.07679	0.00356
509.85	8200	0.07703	0.00357
509.85	8500	0.07741	0.00359
509.85	9000	0.07802	0.00361
509.85	9500	0.07856	0.00364
509.85	10000	0.0791	0.00366
510.36	245	0.0379	0.00196
510.36	1000	0.03854	0.00199
510.36	2245	0.04183	0.00212
510.36	2715	0.04665	0.00232
510.36	3110	0.06796	0.00333
510.36	3112	0.06824	0.00334
510.36	3114	0.06881	0.00341
510.36	3116	0.06939	0.00344
510.36	3118	0.07027	0.00353
510.36	3120	0.07087	0.00356
510.36	3122	0.07148	0.00358
510.36	3124	0.07242	0.00367
510.36	3126	0.07338	0.00368
510.36	3128	0.07403	0.00371
510.36	3130	0.0747	0.00374
510.36	3132	0.07538	0.00376
510.36	3133	0.07607	0.0038
510.36	3134	0.07624	0.0038
510.36	3137	0.0784	0.00387
510.36	3138	0.07915	0.00385
510.36	3139	0.07991	0.00388
510.36	3140	0.08056	0.00391
510.36	3141	0.08119	0.00393
510.36	3142	0.08199	0.00397
510.36	3143	0.08268	0.00394
510.36	3144	0.0833	0.00397
510.36	3145	0.08393	0.004
510.36	3146	0.08457	0.00402
510.36	3147	0.08501	0.00404
510.36	3148	0.08552	0.00403
510.36	3150	0.08631	0.00406
510.36	3151	0.08656	0.00407
510.36	3152	0.08673	0.00408
510.36	3153	0.08695	0.00406
510.36	3154	0.08709	0.00407
510.36	3155	0.087	0.00406
510.36	3156	0.08691	0.00406
510.36	3157	0.08682	0.00405
510.36	3158	0.08656	0.00402
510.36	3159	0.08634	0.00401
510.36	3160	0.08604	0.004
510.36	3161	0.08582	0.00399
510.36	3162	0.08548	0.00398
510.36	3163	0.08518	0.00395
510.36	3164	0.08476	0.00394
510.36	3166	0.08393	0.00389
510.36	3168	0.0832	0.00385
510.36	3170	0.08248	0.00382
510.36	3172	0.08173	0.00378
510.36	3174	0.08088	0.00375
510.36	3176	0.08019	0.00371
510.36	3178	0.07941	0.00368
510.36	3180	0.07883	0.00365
510.36	3182	0.07826	0.00363
510.36	3184	0.07767	0.0036
510.36	3186	0.07716	0.00358
510.36	3188	0.07654	0.00355
510.36	3190	0.076	0.00353
510.36	3192	0.07563	0.00351
510.36	3194	0.07525	0.0035
510.36	3196	0.07489	0.00348
510.36	3198	0.07452	0.00347
510.36	3200	0.07416	0.00346
510.36	3202	0.0738	0.00344
510.36	3204	0.07362	0.00344
510.36	3206	0.07337	0.00343
510.36	3208	0.07309	0.00341
510.36	3210	0.07292	0.00341
510.36	3212	0.07274	0.00341
510.36	3214	0.0724	0.00339
510.36	3216	0.0724	0.00339
510.36	3218	0.07206	0.00338
510.36	3220	0.07206	0.00338
510.36	3222	0.07189	0.00338
510.36	3225	0.07175	0.00337
510.36	3228	0.07155	0.00336
510.36	3230	0.07155	0.00336
510.36	3232	0.07138	0.00335
510.36	3234	0.07128	0.00335
510.36	3236	0.07122	0.00334
510.36	3238	0.07122	0.00334
510.36	3242	0.07105	0.00333
510.36	3245	0.07105	0.00333
510.36	3248	0.07105	0.00333
510.36	3250	0.07072	0.00332
510.36	3252	0.07072	0.00332
510.36	3254	0.07072	0.00331
510.36	3256	0.07039	0.0033
510.36	3258	0.07039	0.0033
510.36	3260	0.07039	0.0033
510.36	3265	0.0704	0.0033
510.36	3270	0.07008	0.00328
510.36	3280	0.06975	0.00327
510.36	3290	0.0696	0.00326
510.36	3300	0.06944	0.00326
510.36	3310	0.06944	0.00326
510.36	3320	0.06912	0.00324
510.36	3340	0.06881	0.00323
510.36	3350	0.0685	0.00322
510.36	3360	0.0685	0.00322
510.36	3370	0.0685	0.00322
510.36	3380	0.0685	0.00322
510.36	3392	0.06834	0.00321
510.36	3450	0.06819	0.00321
510.36	3500	0.0685	0.00322
510.36	3520	0.0686	0.00322
510.36	3540	0.0686	0.00322
510.36	3560	0.0686	0.00322
510.36	3580	0.0686	0.00322
510.36	3600	0.06851	0.00322
510.36	3620	0.06851	0.00322
510.36	3640	0.06854	0.00322
510.36	3650	0.06857	0.00322
510.36	3670	0.0686	0.00322
510.36	3680	0.06861	0.00322
510.36	3700	0.06864	0.00322
510.36	3720	0.06873	0.00323
510.36	3740	0.06883	0.00323
510.36	3750	0.06886	0.00323
510.36	3800	0.06913	0.00324
510.36	3810	0.06917	0.00324
510.36	3820	0.06922	0.00325
510.36	3830	0.06922	0.00325
510.36	3840	0.06919	0.00325
510.36	3860	0.06928	0.00325
510.36	3970	0.06973	0.00327
510.36	3980	0.06964	0.00326
510.36	4010	0.06977	0.00327
511.55	900	0.03854	0.00199
511.55	1000	0.03823	0.00198
511.55	1100	0.03832	0.00198
511.55	1200	0.03859	0.00199
511.55	1300	0.03877	0.002
511.55	1400	0.03895	0.002
511.55	1500	0.03914	0.00201
511.55	1600	0.03932	0.00202
511.55	1700	0.0397	0.00203
511.55	1800	0.04008	0.00205
511.55	1900	0.04047	0.00207
511.55	2000	0.04087	0.00208
511.55	2100	0.04127	0.0021
511.55	2200	0.0419	0.00212
511.55	2300	0.04254	0.00215
511.55	2400	0.04342	0.00219
511.55	2462	0.04388	0.0022
511.55	2466	0.04388	0.0022
511.55	2500	0.04434	0.00222
511.55	2600	0.0453	0.00226
511.55	2700	0.04656	0.00231
511.55	2800	0.04846	0.0024
511.55	2900	0.05075	0.00249
511.55	2973	0.05292	0.00258
511.55	2988	0.05356	0.00262
511.55	3050	0.05558	0.00268
511.55	3065	0.05634	0.00271
511.55	3084	0.05785	0.00278
511.55	3096	0.05908	0.00285
511.55	3103	0.05968	0.00291
511.55	3110	0.06064	0.00297
511.55	3116	0.06128	0.003
511.55	3130	0.06341	0.00316
511.55	3140	0.06508	0.00326
511.55	3145	0.06587	0.0033
511.55	3150	0.06678	0.00334
511.55	3155	0.06787	0.00339
511.55	3160	0.06879	0.0034
511.55	3165	0.0699	0.00341
511.55	3168	0.07058	0.00345
511.55	3170	0.07104	0.00341
511.55	3173	0.0718	0.00344
511.55	3175	0.07228	0.00346
511.55	3180	0.07336	0.00347
511.55	3183	0.07404	0.00346
511.55	3185	0.07447	0.00348
511.55	3187	0.07504	0.00349
511.55	3190	0.07571	0.00352
511.55	3192	0.07616	0.00354
511.55	3193	0.07629	0.00355
511.55	3195	0.07668	0.00357
511.55	3200	0.07761	0.00362
511.55	3205	0.07821	0.00369
511.55	3212	0.07869	0.00385
511.55	3220	0.07869	0.00391
511.55	3225	0.07855	0.00386
511.55	3230	0.07767	0.00382
511.55	3235	0.07701	0.00374
511.55	3240	0.07636	0.00369
511.55	3245	0.07571	0.00356
511.55	3250	0.07508	0.00349
511.55	3255	0.07386	0.00344
511.55	3260	0.07266	0.00339
511.55	3265	0.07151	0.00334
511.55	3270	0.07151	0.00334
511.55	3275	0.07209	0.00337
511.55	3280	0.07209	0.00337
511.55	3285	0.07209	0.00337
511.55	3290	0.07267	0.00341
511.55	3295	0.07267	0.0034
511.55	3300	0.07151	0.00334
511.55	3305	0.07151	0.00334
511.55	3310	0.07151	0.00334
511.55	3315	0.07095	0.00332
511.55	3325	0.07095	0.00332
511.55	3330	0.07095	0.00332
511.55	3335	0.07144	0.00334
511.55	3340	0.07144	0.00334
511.55	3345	0.07144	0.00334
511.55	3350	0.07144	0.00334
511.55	3360	0.07088	0.00332
511.55	3365	0.07088	0.00332
511.55	3370	0.07033	0.00329
511.55	3375	0.07033	0.00329
511.55	3385	0.07033	0.00329
511.55	3395	0.07033	0.00329
511.55	3400	0.07033	0.00329
511.55	3410	0.07088	0.00332
511.55	3450	0.07081	0.00331
511.55	3455	0.07081	0.00331
511.55	3455	0.07081	0.00331
511.55	3460	0.07062	0.0033
511.55	3460	0.07064	0.00331
511.55	3470	0.07062	0.0033
511.55	3480	0.07051	0.0033
511.55	3490	0.07054	0.0033
511.55	3500	0.07026	0.00329
511.55	3550	0.0701	0.00328
511.55	3600	0.07	0.00328
511.55	3650	0.06992	0.00328
511.55	3700	0.06992	0.00328
511.55	3750	0.06969	0.00327
511.55	3800	0.06964	0.00326
511.55	3850	0.06975	0.00327
511.55	3900	0.06992	0.00328
511.55	3950	0.06992	0.00328
511.55	4000	0.06992	0.00328
511.55	4100	0.07009	0.00328
511.55	4150	0.07009	0.00328
511.55	4300	0.0702	0.00329
511.55	4400	0.07048	0.00331
511.55	4500	0.07048	0.0033
511.55	4600	0.07077	0.00333
511.55	4700	0.07105	0.00332
511.55	4800	0.07105	0.00333
511.55	5000	0.07163	0.00335
511.55	5100	0.07163	0.00335
511.55	5300	0.07217	0.00337
511.55	5500	0.0724	0.00338
511.55	5800	0.07283	0.0034
511.55	6000	0.07313	0.00343
511.55	6200	0.07344	0.00342
511.55	6400	0.07374	0.00343
511.55	6600	0.07406	0.00345
511.55	6800	0.07437	0.00346
511.55	6900	0.07456	0.00347
511.55	7100	0.07481	0.00348
511.55	7200	0.07501	0.00349
511.55	7300	0.07513	0.00349
511.55	7500	0.07618	0.00354
511.55	7800	0.07658	0.00355
511.55	8000	0.07685	0.00357
511.55	8200	0.07712	0.00358
511.55	8300	0.07719	0.00358
511.55	8400	0.07733	0.00358
511.55	8500	0.07746	0.00359
511.55	8600	0.0776	0.0036
511.55	8700	0.07767	0.0036
511.55	9000	0.07803	0.00361
511.55	9100	0.07815	0.00362
511.55	9200	0.07822	0.00362
511.55	9300	0.07828	0.00362
511.55	9400	0.07837	0.00363
511.55	9700	0.0787	0.00364
511.55	10000	0.07902	0.00366
511.79	1600	0.03961	0.00203
511.79	1800	0.04006	0.00205
511.79	1900	0.04052	0.00207
511.79	2000	0.041	0.00209
511.79	2090	0.04133	0.0021
511.79	2100	0.04148	0.00211
511.79	2110	0.04151	0.00211
511.79	2200	0.04198	0.00213
511.79	2300	0.0427	0.00216
511.79	2400	0.04354	0.00219
511.79	2500	0.04428	0.00222
511.79	2600	0.04543	0.00227
511.79	2700	0.04664	0.00232
511.79	2800	0.04819	0.00238
511.79	2817	0.04857	0.00239
511.79	2911	0.05076	0.00249
511.79	2958	0.052	0.00254
511.79	2987	0.05281	0.00258
511.79	3000	0.05337	0.0026
511.79	3049	0.05564	0.00269
511.79	3076	0.05734	0.00276
511.79	3093	0.05872	0.00282
511.79	3101	0.05933	0.00285
511.79	3113	0.06039	0.00288
511.79	3121	0.06126	0.00292
511.79	3133	0.06272	0.00298
511.79	3143	0.06414	0.00304
511.79	3151	0.06537	0.00309
511.79	3156	0.06613	0.00314
511.79	3163	0.06743	0.00322
511.79	3167	0.06811	0.00328
511.79	3169	0.06851	0.00329
511.79	3172	0.06906	0.00336
511.79	3175	0.06962	0.00343
511.79	3177	0.07014	0.00346
511.79	3179	0.07048	0.00353
511.79	3181	0.07092	0.00354
511.79	3183	0.07134	0.00362
511.79	3185	0.07166	0.00366
511.79	3186	0.07193	0.00366
511.79	3188	0.07227	0.00374
511.79	3189	0.07257	0.00382
511.79	3190	0.07273	0.00382
511.79	3191	0.07304	0.00383
511.79	3192	0.07319	0.00387
511.79	3193	0.07344	0.00391
511.79	3194	0.07367	0.0039
511.79	3195	0.07382	0.00393
511.79	3196	0.07398	0.00398
511.79	3197	0.07424	0.00398
511.79	3198	0.07446	0.00404
511.79	3199	0.07463	0.0041
511.79	3200	0.07479	0.00409
511.79	3202	0.07528	0.00412
511.79	3204	0.07561	0.00428
511.79	3205	0.07578	0.00428
511.79	3206	0.07595	0.00423
511.79	3209	0.07635	0.00426
511.79	3212	0.07676	0.00426
511.79	3214	0.077	0.00427
511.79	3216	0.07724	0.00429
511.79	3219	0.07745	0.0042
511.79	3221	0.07749	0.00421
511.79	3223	0.07756	0.00411
511.79	3226	0.07759	0.0041
511.79	3231	0.07766	0.00388
511.79	3234	0.07766	0.00375
511.79	3236	0.07745	0.00374
511.79	3237	0.07745	0.00373
511.79	3240	0.07732	0.00364
511.79	3243	0.07697	0.0036
511.79	3246	0.07663	0.00358
511.79	3247	0.07629	0.00357
511.79	3247	0.07629	0.00357
511.79	3251	0.07496	0.0035
511.79	3253	0.07496	0.00349
511.79	3256	0.07463	0.00348
511.79	3257	0.07431	0.00347
511.79	3264	0.07399	0.00363
511.79	3265	0.07367	0.00361
511.79	3269	0.07336	0.00357
511.79	3270	0.07336	0.00357
511.79	3276	0.07336	0.00353
511.79	3278	0.07336	0.00351
511.79	3280	0.07336	0.00352
511.79	3285	0.07336	0.00351
511.79	3291	0.07243	0.0034
511.79	3293	0.07243	0.00339
511.79	3295	0.07243	0.00339
511.79	3300	0.07213	0.00341
511.79	3301	0.07183	0.00339
511.79	3306	0.07183	0.00338
511.79	3310	0.07153	0.00336
511.79	3313	0.07123	0.00336
511.79	3315	0.07123	0.00336
511.79	3319	0.07122	0.00335
511.79	3321	0.07122	0.00334
511.79	3325	0.07122	0.00335
511.79	3327	0.07122	0.00335
511.79	3330	0.07122	0.00335
511.79	3332	0.07122	0.00335
511.79	3335	0.07122	0.00333
511.79	3340	0.07122	0.00333
511.79	3346	0.07122	0.00333
511.79	3350	0.07123	0.00333
511.79	3353	0.07123	0.00333
511.79	3355	0.07123	0.00333
511.79	3360	0.07123	0.00333
511.79	3365	0.07064	0.00331
511.79	3367	0.07064	0.00331
511.79	3368	0.07064	0.00331
511.79	3370	0.07064	0.00331
511.79	3375	0.07064	0.00331
511.79	3380	0.07064	0.00331
511.79	3385	0.07064	0.00331
511.79	3390	0.07064	0.00331
511.79	3395	0.07064	0.00331
511.79	3400	0.07064	0.00331
511.79	3410	0.07064	0.00331
511.79	3420	0.07065	0.00331
511.79	3440	0.07065	0.00331
511.79	3460	0.07065	0.00331
511.79	3500	0.07041	0.0033
511.79	3600	0.06993	0.00328
511.79	3657	0.06978	0.00327
511.79	3700	0.06973	0.00327
511.79	3750	0.06973	0.00327
511.79	3800	0.06973	0.00327
511.79	3850	0.06973	0.00327
511.79	3900	0.06973	0.00327
511.79	3950	0.06975	0.00327
511.79	3980	0.06975	0.00327
511.79	4000	0.06988	0.00327
511.79	4030	0.06995	0.00328
511.79	4100	0.07011	0.00328
511.79	4180	0.07039	0.0033
511.79	4190	0.07026	0.00329
511.79	4200	0.07026	0.00329
511.79	4400	0.07099	0.00333
511.79	4600	0.07159	0.00336
511.79	4800	0.07179	0.00337
511.79	5400	0.07303	0.00341
511.79	6000	0.074	0.00345
511.79	7000	0.07567	0.00352
511.79	8000	0.07705	0.00357
511.79	9000	0.07812	0.00362
511.79	10000	0.07922	0.00366
513.09	2634	0.0455	0.00227
513.09	2645	0.04562	0.00227
513.09	2653	0.04575	0.00228
513.09	2654	0.04575	0.00228
513.09	2655	0.04575	0.00228
513.09	2661	0.04587	0.00228
513.09	2722	0.04549	0.00227
513.09	2740	0.04678	0.00232
513.09	2760	0.04705	0.00233
513.09	2763	0.04704	0.00233
513.09	2839	0.04831	0.00238
513.09	2849	0.04859	0.0024
513.09	2879	0.04916	0.00242
513.09	2894	0.04931	0.00243
513.09	2909	0.0496	0.00244
513.09	2931	0.05008	0.00246
513.09	2953	0.05053	0.00248
513.09	2983	0.05146	0.00251
513.09	3010	0.05237	0.00255
513.09	3034	0.05319	0.00259
513.09	3054	0.05386	0.00261
513.09	3098	0.05597	0.0027
513.09	3114	0.05684	0.00274
513.09	3152	0.05939	0.00286
513.09	3163	0.06043	0.0029
513.09	3169	0.06085	0.00292
513.09	3176	0.06151	0.00295
513.09	3180	0.06217	0.00298
513.09	3184	0.06262	0.003
513.09	3186	0.06285	0.00301
513.09	3193	0.06308	0.00302
513.09	3195	0.06308	0.00302
513.09	3200	0.06331	0.00304
513.09	3205	0.06425	0.00308
513.09	3207	0.06497	0.00311
513.09	3212	0.06596	0.00315
513.09	3216	0.06647	0.00318
513.09	3231	0.06898	0.00327
513.09	3232	0.06917	0.00328
513.09	3234	0.06942	0.00329
513.09	3235	0.06951	0.0033
513.09	3236	0.06967	0.0033
513.09	3237	0.06987	0.00331
513.09	3238	0.07001	0.00332
513.09	3240	0.07024	0.00333
513.09	3242	0.07052	0.00334
513.09	3243	0.07067	0.00334
513.09	3244	0.07081	0.00335
513.09	3246	0.0711	0.00336
513.09	3247	0.07125	0.00337
513.09	3248	0.07133	0.00337
513.09	3249	0.07154	0.00338
513.09	3251	0.07169	0.00338
513.09	3252	0.07184	0.00339
513.09	3253	0.07198	0.00339
513.09	3254	0.07213	0.00339
513.09	3255	0.07228	0.0034
513.09	3256	0.07243	0.0034
513.09	3257	0.07258	0.00341
513.09	3258	0.07265	0.00341
513.09	3260	0.07284	0.00342
513.09	3261	0.07295	0.00342
513.09	3261	0.073	0.00342
513.09	3262	0.07311	0.00343
513.09	3263	0.07319	0.00343
513.09	3265	0.07338	0.00344
513.09	3266	0.07346	0.00344
513.09	3267	0.07354	0.00345
513.09	3274	0.07412	0.00347
513.09	3277	0.07428	0.00348
513.09	3279	0.07428	0.00348
513.09	3280	0.07438	0.00348
513.09	3282	0.07445	0.00348
513.09	3284	0.07451	0.00348
513.09	3287	0.07452	0.00348
513.09	3288	0.07459	0.00349
513.09	3290	0.07463	0.00349
513.09	3292	0.07463	0.00349
513.09	3292	0.07463	0.00349
513.09	3295	0.07469	0.00349
513.09	3298	0.07463	0.00348
513.09	3303	0.07463	0.00348
513.09	3306	0.07437	0.00347
513.09	3310	0.07332	0.00342
513.09	3312	0.07332	0.00342
513.09	3313	0.07228	0.00338
513.09	3318	0.07228	0.00338
513.09	3319	0.07228	0.00338
513.09	3322	0.07228	0.00338
513.09	3326	0.07228	0.00338
513.09	3330	0.07228	0.00338
513.09	3331	0.07228	0.00338
513.09	3332	0.07228	0.00338
513.09	3334	0.07228	0.00338
513.09	3336	0.07228	0.00338
513.09	3340	0.07228	0.00338
513.09	3343	0.07197	0.00336
513.09	3345	0.07087	0.00332
513.09	3346	0.07087	0.00332
513.09	3347	0.07087	0.00332
513.09	3350	0.07087	0.00332
513.09	3360	0.07087	0.00332
513.09	3370	0.07087	0.00332
513.09	3380	0.07087	0.00332
513.09	3390	0.07087	0.00332
513.09	3400	0.06942	0.00325
513.09	3420	0.06942	0.00325
513.09	3430	0.06942	0.00325
513.09	3450	0.06824	0.00321
513.09	3450	0.06843	0.00321
513.09	3500	0.06824	0.00321
513.09	3600	0.06824	0.00321
513.09	3700	0.06824	0.00321
513.09	3800	0.06824	0.00321
513.09	3900	0.06824	0.00321
513.09	4000	0.07056	0.0033
513.09	4100	0.0708	0.00331
513.09	4100	0.07056	0.0033
513.09	4200	0.07086	0.00331
513.09	4300	0.07086	0.00331
513.09	4600	0.07116	0.00333
513.09	4700	0.07125	0.00333
513.09	4800	0.07144	0.00334
513.09	4900	0.07165	0.00335
513.09	5000	0.07187	0.00336
513.09	5100	0.07209	0.00337
513.09	5200	0.07225	0.00337
513.09	5300	0.0725	0.00338
513.09	5400	0.07269	0.00339
513.09	5500	0.07288	0.0034
513.09	5600	0.07304	0.00341
513.09	5700	0.07323	0.00341
513.09	5800	0.07339	0.00342
513.09	5900	0.07359	0.00343
513.09	6000	0.07375	0.00344
513.09	6100	0.07391	0.00344
513.09	6200	0.07408	0.00345
513.09	6300	0.07424	0.00346
513.09	6400	0.07438	0.00346
513.09	6500	0.07454	0.00347
513.09	6600	0.07471	0.00348
513.09	6700	0.07488	0.00348
513.09	6800	0.07501	0.00349
513.09	6900	0.07515	0.00349
513.09	7000	0.07528	0.0035
513.09	7100	0.07542	0.0035
513.09	7150	0.07549	0.00351
513.09	7200	0.07556	0.00351
513.09	7211	0.07556	0.00351
513.09	7292	0.07569	0.00352
513.09	7496	0.07597	0.00353
513.09	7501	0.07597	0.00353
513.09	7517	0.07597	0.00353
513.09	7533	0.07599	0.00353
513.09	7800	0.07638	0.00354
513.09	8100	0.07676	0.00356
513.09	8200	0.07687	0.00357
513.09	8500	0.07722	0.00358
513.09	8790	0.07758	0.00359
513.09	8830	0.07762	0.0036
513.09	8882	0.07769	0.0036
513.09	9275	0.07816	0.00362
513.09	9297	0.07816	0.00362
513.09	9300	0.07816	0.00362
513.09	9344	0.0782	0.00362
513.09	9367	0.07824	0.00362
513.09	9700	0.07864	0.00364
513.09	9900	0.07883	0.00365
513.09	10000	0.07894	0.00365
515.56	676	0.03834	0.00198
515.56	700	0.03843	0.00198
515.56	900	0.03853	0.00199
515.56	1220	0.039	0.00201
515.56	1221	0.039	0.00201
515.56	1672	0.04008	0.00205
515.56	1786	0.04038	0.00206
515.56	1822	0.04059	0.00207
515.56	2209	0.0423	0.00214
515.56	2287	0.04275	0.00216
515.56	2404	0.04344	0.00219
515.56	2503	0.04392	0.00221
515.56	2607	0.04465	0.00223
515.56	2688	0.04553	0.00227
515.56	2751	0.04606	0.00229
515.56	2811	0.04699	0.00233
515.56	2856	0.04713	0.00234
515.56	2919	0.04712	0.00234
515.56	2953	0.04782	0.00236
515.56	2989	0.04928	0.00242
515.56	3019	0.05004	0.00245
515.56	3062	0.05082	0.00249
515.56	3072	0.05082	0.00249
515.56	3083	0.05163	0.00252
515.56	3103	0.05247	0.00255
515.56	3114	0.05247	0.00255
515.56	3122	0.05247	0.00255
515.56	3140	0.05247	0.00256
515.56	3153	0.05333	0.00259
515.56	3164	0.05333	0.00259
515.56	3174	0.05422	0.00263
515.56	3180	0.05422	0.00263
515.56	3193	0.05609	0.0027
515.56	3201	0.05609	0.0027
515.56	3209	0.05609	0.0027
515.56	3220	0.05609	0.0027
515.56	3230	0.05808	0.00279
515.56	3235	0.05808	0.00279
515.56	3243	0.05808	0.00279
515.56	3249	0.05808	0.00279
515.56	3257	0.06022	0.00288
515.56	3265	0.06022	0.00288
515.56	3270	0.06022	0.00288
515.56	3275	0.06022	0.00288
515.56	3283	0.06205	0.00295
515.56	3293	0.06205	0.00295
515.56	3301	0.06374	0.00302
515.56	3309	0.06474	0.00306
515.56	3316	0.065	0.00307
515.56	3322	0.06539	0.00309
515.56	3329	0.06578	0.00311
515.56	3334	0.06604	0.00312
515.56	3339	0.06631	0.00313
515.56	3342	0.06658	0.00314
515.56	3347	0.06685	0.00315
515.56	3350	0.06698	0.00316
515.56	3352	0.06712	0.00316
515.56	3357	0.06737	0.00317
515.56	3360	0.06751	0.00318
515.56	3362	0.06759	0.00318
515.56	3368	0.06795	0.0032
515.56	3373	0.06823	0.00321
515.56	3386	0.06866	0.00323
515.56	3394	0.06909	0.00324
515.56	3426	0.06997	0.00328
515.56	3453	0.06911	0.00324
515.56	3462	0.06911	0.00324
515.56	3482	0.06911	0.00324
515.56	3490	0.06911	0.00324
515.56	3499	0.06911	0.00324
515.56	3520	0.06911	0.00324
515.56	3541	0.06911	0.00324
515.56	3550	0.06911	0.00324
515.56	3566	0.06911	0.00324
515.56	3579	0.06769	0.00318
515.56	3614	0.06769	0.00318
515.56	3638	0.06769	0.00318
515.56	3682	0.06769	0.00318
515.56	3700	0.06769	0.00318
515.56	3750	0.06938	0.00325
515.56	3800	0.06938	0.00325
515.56	3841	0.06944	0.00326
515.56	3900	0.0695	0.00326
515.56	3928	0.06953	0.00326
515.56	3941	0.06959	0.00326
515.56	3995	0.06965	0.00326
515.56	4000	0.06968	0.00327
515.56	4025	0.06968	0.00327
515.56	4104	0.06983	0.00327
515.56	4200	0.07004	0.00328
515.56	4307	0.07016	0.00329
515.56	4388	0.07034	0.00329
515.56	4400	0.0704	0.0033
515.56	4488	0.07058	0.0033
515.56	4537	0.07067	0.00331
515.56	4593	0.0708	0.00331
515.56	4620	0.07089	0.00332
515.56	4700	0.07098	0.00332
515.56	4790	0.07114	0.00333
515.56	4800	0.07117	0.00333
515.56	4830	0.07123	0.00333
515.56	4900	0.07129	0.00333
515.56	5000	0.07151	0.00334
515.56	5100	0.07167	0.00335
515.56	5130	0.0717	0.00335
515.56	5200	0.07182	0.00335
515.56	5300	0.07198	0.00336
515.56	5400	0.07217	0.00337
515.56	5580	0.07243	0.00338
515.56	5600	0.07246	0.00338
515.56	5690	0.07265	0.00339
515.56	5740	0.07275	0.00339
515.56	5800	0.07285	0.0034
515.56	5900	0.07301	0.0034
515.56	6050	0.07327	0.00342
515.56	6060	0.07327	0.00342
515.56	6080	0.0733	0.00342
515.56	6300	0.07366	0.00343
515.56	6380	0.0738	0.00344
515.56	6460	0.07393	0.00344
515.56	6610	0.07417	0.00345
515.56	6920	0.07464	0.00347
515.56	6950	0.07468	0.00347
515.56	7020	0.07478	0.00348
515.56	7100	0.07488	0.00348
515.56	7470	0.0754	0.0035
515.56	7560	0.07554	0.00351
515.56	7570	0.07557	0.00351
515.56	7600	0.0756	0.00351
515.56	7840	0.07592	0.00353
515.56	7870	0.07595	0.00353
515.56	7940	0.07602	0.00353
515.56	8050	0.07617	0.00354
515.56	8100	0.0762	0.00354
515.56	8140	0.07624	0.00354
515.56	8230	0.07638	0.00354
515.56	8370	0.07656	0.00355
515.56	8470	0.07663	0.00356
515.56	8540	0.0767	0.00356
515.56	8730	0.07695	0.00357
515.56	8870	0.07714	0.00358
515.56	9080	0.07739	0.00359
515.56	9100	0.07739	0.00359
525.42	1000	0.0403	0.00206
525.42	1500	0.0416	0.00211
525.42	1975	0.04209	0.00213
525.42	1984	0.04209	0.00213
525.42	2100	0.04213	0.00213
525.42	2200	0.04213	0.00213
525.42	2300	0.04213	0.00213
525.42	2404	0.04213	0.00213
525.42	2423	0.04213	0.00213
525.42	2425	0.04213	0.00213
525.42	2500	0.04372	0.0022
525.42	2740	0.04444	0.00223
525.42	2850	0.04444	0.00223
525.42	3000	0.04701	0.00233
525.42	3050	0.04756	0.00235
525.42	3100	0.04855	0.00239
525.42	3150	0.04855	0.00239
525.42	3200	0.04958	0.00244
525.42	3250	0.05034	0.00247
525.42	3300	0.05065	0.00248
525.42	3350	0.05177	0.00253
525.42	3400	0.05311	0.00258
525.42	3450	0.0538	0.00261
525.42	3500	0.05526	0.00267
525.42	3550	0.05659	0.00272
525.42	3600	0.05777	0.00277
525.42	3650	0.059	0.00282
525.42	3700	0.0603	0.00288
525.42	3750	0.06164	0.00293
525.42	3800	0.06281	0.00298
525.42	3850	0.06378	0.00302
525.42	3900	0.06477	0.00306
525.42	4000	0.06632	0.00313
525.42	4100	0.06685	0.00315
525.42	4200	0.06685	0.00315
525.42	4300	0.06685	0.00315
525.42	4400	0.06684	0.00315
525.42	4500	0.06684	0.00315
525.42	4600	0.06684	0.00315
525.42	4700	0.06683	0.00315
525.42	4800	0.06683	0.00315
525.42	4900	0.06848	0.00322
525.42	5000	0.06848	0.00322
525.42	5100	0.06848	0.00322
525.42	5200	0.06848	0.00322
525.42	5300	0.07141	0.00334
525.42	5400	0.07172	0.00335
525.42	5500	0.07172	0.00335
525.42	5600	0.07172	0.00335
525.42	5700	0.07203	0.00336
525.42	5800	0.07203	0.00336
525.42	5900	0.07218	0.00337
525.42	6000	0.07233	0.00338
525.42	6100	0.07249	0.00338
525.42	6200	0.07249	0.00338
525.42	6300	0.07265	0.00339
525.42	6400	0.07281	0.0034
525.42	6500	0.0728	0.0034
525.42	6600	0.07296	0.0034
525.42	6700	0.07312	0.00341
525.42	6800	0.07328	0.00342
525.42	6900	0.07348	0.00342
525.42	7000	0.07361	0.00343
525.42	7100	0.07377	0.00344
525.42	7200	0.07393	0.00344
525.42	7317	0.0741	0.00345
525.42	7328	0.07412	0.00345
525.42	7405	0.07412	0.00345
525.42	7500	0.07428	0.00346
525.42	7600	0.07445	0.00346
525.42	7700	0.07462	0.00347
525.42	7800	0.07478	0.00348
525.42	7900	0.07482	0.00348
525.42	8000	0.07495	0.00349
525.42	8100	0.07512	0.00349
525.42	8200	0.07529	0.0035
525.42	8300	0.07546	0.00351
525.42	8400	0.07546	0.00351
525.42	8500	0.07546	0.00351
525.42	8600	0.07563	0.00351
525.42	8700	0.07583	0.00352
525.42	8800	0.07597	0.00353
525.42	8900	0.07614	0.00353
525.42	9000	0.07632	0.00354
525.42	9100	0.07632	0.00354
525.42	9200	0.07649	0.00355
525.42	9300	0.07667	0.00356
525.42	9400	0.07674	0.00356
525.42	9500	0.07684	0.00356
525.42	9600	0.07701	0.00357
525.42	9700	0.07712	0.00358
525.42	9800	0.07726	0.00358
525.42	9900	0.07737	0.00359
525.42	10150	0.07772	0.0036
525.42	10200	0.07779	0.0036
525.42	10300	0.07793	0.00361
525.42	10400	0.07804	0.00361
525.42	10500	0.07815	0.00362
525.42	10600	0.07833	0.00363
525.42	10800	0.07855	0.00364
525.42	11500	0.07941	0.00367
525.42	11600	0.07956	0.00368
525.42	11800	0.07975	0.00369
525.42	12000	0.07994	0.00369
525.42	12300	0.08032	0.00371
525.42	12500	0.08048	0.00372
553	1000	0.04354	0.00219
553	1120	0.0439	0.0022
553	1400	0.04407	0.00221
553	1500	0.04431	0.00222
553	1600	0.04443	0.00223
553	1700	0.04455	0.00223
553	1800	0.0448	0.00224
553	1900	0.04493	0.00225
553	2000	0.04518	0.00226
553	2100	0.04543	0.00227
553	2200	0.04556	0.00227
553	2300	0.04582	0.00228
553	2400	0.04608	0.00229
553	2500	0.04635	0.0023
553	2600	0.04661	0.00231
553	2700	0.04688	0.00233
553	2800	0.04716	0.00234
553	2900	0.04743	0.00235
553	3000	0.04743	0.00235
553	3100	0.04814	0.00238
553	3200	0.04857	0.00239
553	3300	0.04897	0.00241
553	3400	0.04942	0.00243
553	3500	0.05003	0.00245
553	3600	0.0505	0.00247
553	3700	0.05127	0.0025
553	3800	0.05191	0.00253
553	3900	0.05255	0.00256
553	4000	0.05325	0.00259
553	4100	0.05395	0.00262
553	4200	0.05468	0.00265
553	4268	0.05523	0.00267
553	4390	0.05618	0.00271
553	4700	0.0589	0.00282
553	4800	0.05987	0.00286
553	4900	0.06075	0.0029
553	5000	0.06166	0.00293
553	5300	0.06418	0.00304
553	5500	0.06559	0.0031
553	5800	0.06746	0.00317
553	6000	0.06843	0.00321
553	6300	0.06974	0.00327
553	6500	0.07019	0.00329
553	6800	0.07109	0.00332
553	7000	0.0717	0.00335
553	7200	0.07202	0.00336
553	7500	0.07265	0.00339
553	7800	0.07329	0.00342
553	8000	0.07361	0.00343
553	8300	0.07427	0.00346
553	8500	0.07427	0.00346
553	8800	0.07545	0.00351
553	9000	0.07545	0.00351
553	9250	0.07562	0.00351
553	9500	0.07582	0.00352
553	9800	0.07617	0.00354
553	10000	0.07635	0.00354
553	10300	0.07652	0.00355
553	10500	0.07688	0.00357
553	10800	0.07716	0.00358
553	11000	0.0773	0.00358
553	11500	0.07777	0.0036
553	12000	0.07832	0.00363
553	12300	0.07869	0.00364
553	12870	0.07914	0.00366
553	13500	0.07983	0.00369
553	14000	0.08021	0.0037
553	14500	0.08068	0.00372
553	15000	0.08119	0.00375
