Measured thermophysical data. Liquid densities of acetone and n-heptane and excess volumes of the binary system in a wide temperature and pressure range
Source: Fluid Phase Equilib., 2011, 10.1016/j.fluid.2010.10.028
Compound 1: acetone, C3H6O, InChI=1S/C3H6O/c1-3(2)4/h1-2H3, purity 99.2%
Compound 2: heptane, C7H16, InChI=1S/C7H16/c1-3-5-7-6-4-2/h3-7H2,1-2H3

System: acetone + heptane; phases: Liquid
Property: Mass density, kg/m3 (Liquid); method: Vibrating tube method
Temperature, K	Pressure, kPa	Mole fraction of acetone	Mass density, kg/m3	uncertainty
337.69	970	0.801	700.39	1.21
337.69	4850	0.801	706.05	1.22
337.69	9830	0.7024	699.81	1.23
337.69	9840	0.492	680.33	1.23
337.69	9870	0.801	712.82	1.23
337.69	14820	0.7024	705.98	1.24
337.69	14860	0.801	719.01	1.24
337.69	14870	0.492	686.47	1.24
337.69	19850	0.801	724.74	1.25
337.69	19870	0.492	692.06	1.26
337.69	24790	0.7024	717.01	1.26
337.69	24840	0.492	697.27	1.27
337.69	24840	0.801	730.15	1.26
337.69	29870	0.492	702.18	1.29
337.69	39870	0.7024	731.35	1.3
337.69	49840	0.801	752.9	1.32
337.69	64830	0.801	764.19	1.37
337.69	84730	0.7024	763.81	1.46
337.69	89820	0.7024	766.84	1.47
337.69	94820	0.7024	769.76	1.49
337.69	99820	0.7024	772.57	1.51
337.69	104830	0.7024	775.31	1.53
337.69	109800	0.7024	777.96	1.55
337.69	114820	0.7024	780.54	1.56
337.69	119800	0.7024	783.06	1.58
337.69	124820	0.7024	785.53	1.6
337.69	129820	0.7024	787.95	1.62
337.7	930	0.7024	687.32	1.21
337.7	960	0.492	668.07	1.22
337.7	4830	0.7024	693.05	1.22
337.7	4860	0.611	683.33	1.22
337.7	4870	0.492	673.74	1.22
337.7	9860	0.611	690.06	1.23
337.7	14890	0.611	696.23	1.24
337.7	19800	0.7024	711.67	1.25
337.7	19850	0.611	701.87	1.25
337.7	24870	0.611	707.18	1.26
337.7	29860	0.611	712.16	1.28
337.7	29890	0.7024	722.13	1.27
337.7	34850	0.492	706.79	1.3
337.7	34850	0.611	716.83	1.29
337.7	34850	0.801	739.96	1.28
337.7	34880	0.7024	726.85	1.29
337.7	39850	0.492	711.17	1.32
337.7	39860	0.611	721.28	1.31
337.7	39860	0.801	744.5	1.3
337.7	44850	0.7024	735.58	1.32
337.7	44850	0.801	748.79	1.31
337.7	44860	0.611	725.53	1.33
337.7	49840	0.7024	739.64	1.34
337.7	49850	0.611	729.53	1.34
337.7	49860	0.492	719.29	1.36
337.7	54830	0.611	733.35	1.36
337.7	54830	0.7024	743.51	1.35
337.7	54850	0.492	723.05	1.38
337.7	54850	0.801	756.81	1.34
337.7	59810	0.7024	747.21	1.37
337.7	59840	0.801	760.56	1.35
337.7	59850	0.492	726.67	1.4
337.7	59940	0.611	737.16	1.38
337.7	64800	0.7024	750.79	1.39
337.7	64840	0.492	730.12	1.42
337.7	64920	0.611	740.68	1.4
337.7	69780	0.7024	754.21	1.4
337.7	69840	0.4	783.77	1.39
337.7	69840	0.8992	783.77	1.36
337.7	69910	0.611	744.03	1.42
337.7	69930	0.801	767.73	1.39
337.7	74900	0.611	747.3	1.44
337.7	74910	0.801	771.08	1.4
337.7	79880	0.611	750.44	1.46
337.7	79880	0.801	774.31	1.42
337.7	84860	0.611	753.48	1.48
337.7	84870	0.801	777.45	1.43
337.7	89840	0.611	756.41	1.5
337.7	99810	0.801	786.3	1.48
337.7	109780	0.801	791.8	1.51
337.7	114850	0.801	794.44	1.53
337.7	119850	0.611	772.4	1.61
337.7	119860	0.801	797.03	1.54
337.71	950	0.611	677.6	1.21
337.71	1150	0.4	716.73	1.24
337.71	1150	0.8992	716.73	1.21
337.71	5000	0.4	722.27	1.25
337.71	5000	0.8992	722.27	1.22
337.71	9990	0.4	728.91	1.26
337.71	9990	0.8992	728.91	1.22
337.71	14960	0.4	735.03	1.26
337.71	14960	0.8992	735.03	1.23
337.71	19960	0.4	740.75	1.27
337.71	19960	0.8992	740.75	1.24
337.71	24950	0.4	746.11	1.28
337.71	24950	0.8992	746.11	1.25
337.71	29870	0.801	735.19	1.27
337.71	29930	0.4	751.13	1.29
337.71	29930	0.8992	751.13	1.26
337.71	34930	0.4	755.89	1.31
337.71	34930	0.8992	755.89	1.28
337.71	39920	0.4	760.43	1.32
337.71	39920	0.8992	760.43	1.29
337.71	44840	0.492	715.3	1.34
337.71	49900	0.4	768.86	1.34
337.71	49900	0.8992	768.86	1.31
337.71	54890	0.4	772.81	1.36
337.71	54890	0.8992	772.81	1.32
337.71	64860	0.4	780.28	1.38
337.71	64860	0.8992	780.28	1.35
337.71	69930	0.492	733.51	1.44
337.71	74770	0.7024	757.51	1.42
337.71	74840	0.4	787.15	1.41
337.71	74840	0.8992	787.15	1.38
337.71	74910	0.492	736.73	1.46
337.71	79750	0.7024	760.71	1.44
337.71	79820	0.4	790.43	1.42
337.71	79820	0.8992	790.43	1.39
337.71	79900	0.492	739.82	1.48
337.71	84890	0.492	742.8	1.5
337.71	89860	0.801	780.47	1.45
337.71	89870	0.492	745.68	1.52
337.71	94760	0.4	799.66	1.46
337.71	94760	0.8992	799.66	1.43
337.71	94820	0.611	759.24	1.52
337.71	94840	0.492	748.47	1.54
337.71	94840	0.801	783.46	1.46
337.71	99730	0.4	802.55	1.47
337.71	99730	0.8992	802.55	1.44
337.71	99820	0.492	751.17	1.56
337.71	104700	0.4	805.37	1.49
337.71	104700	0.8992	805.37	1.46
337.71	104790	0.611	764.72	1.55
337.71	104800	0.492	753.81	1.59
337.71	104800	0.801	789.1	1.5
337.71	109680	0.4	808.11	1.5
337.71	109680	0.8992	808.11	1.47
337.71	109770	0.492	756.37	1.61
337.71	109850	0.611	767.36	1.57
337.71	114650	0.4	810.79	1.51
337.71	114650	0.8992	810.79	1.48
337.71	114850	0.492	758.9	1.63
337.71	114860	0.611	769.89	1.59
337.71	119620	0.4	813.4	1.52
337.71	119620	0.8992	813.4	1.5
337.71	119840	0.492	761.32	1.65
337.71	124840	0.492	763.7	1.67
337.71	124850	0.801	799.52	1.56
337.71	129550	0.4	818.42	1.55
337.71	129550	0.8992	818.42	1.52
337.71	129840	0.801	801.97	1.57
337.71	129850	0.492	766	1.71
337.72	44910	0.4	764.73	1.33
337.72	44910	0.8992	764.73	1.3
337.72	59870	0.4	776.58	1.37
337.72	59870	0.8992	776.58	1.34
337.72	84800	0.4	793.6	1.43
337.72	84800	0.8992	793.6	1.4
337.72	89780	0.4	796.66	1.45
337.72	89780	0.8992	796.66	1.42
337.72	99810	0.611	762.02	1.53
337.72	124590	0.4	815.94	1.54
337.72	124590	0.8992	815.94	1.51
337.72	124870	0.611	774.78	1.63
337.72	129860	0.611	777.16	1.65
347.61	960	0.7024	676.19	1.21
347.61	4840	0.7024	682.43	1.22
347.61	9820	0.7024	689.72	1.23
347.61	14820	0.7024	696.37	1.24
347.61	19810	0.7024	702.46	1.25
347.61	24790	0.7024	708.14	1.26
347.61	29890	0.7024	713.58	1.28
347.61	34890	0.7024	718.57	1.29
347.61	39880	0.7024	723.29	1.31
347.61	44870	0.7024	727.75	1.33
347.61	49860	0.7024	731.98	1.34
347.61	54840	0.7024	736.03	1.36
347.61	59830	0.7024	739.91	1.38
347.61	64820	0.7024	743.63	1.4
347.61	69810	0.7024	747.19	1.41
347.61	74800	0.7024	750.62	1.43
347.61	79780	0.7024	753.92	1.45
347.61	84760	0.7024	757.12	1.47
347.61	89750	0.7024	760.21	1.49
347.61	94730	0.7024	763.2	1.51
347.61	99820	0.7024	766.18	1.53
347.61	104810	0.7024	768.98	1.54
347.61	109800	0.7024	771.73	1.56
347.61	114810	0.7024	774.41	1.58
347.61	119820	0.7024	777.02	1.6
347.61	124830	0.7024	779.56	1.62
347.61	129810	0.7024	782.01	1.64
347.62	1020	0.801	689	1.21
347.62	1220	0.4	705.05	1.24
347.62	1220	0.8992	705.05	1.21
347.62	4860	0.801	695.13	1.22
347.62	5030	0.4	711.05	1.25
347.62	5030	0.8992	711.05	1.22
347.62	9870	0.801	702.45	1.23
347.62	10010	0.4	718.22	1.26
347.62	10010	0.8992	718.22	1.23
347.62	14850	0.801	709.08	1.24
347.62	15000	0.4	724.83	1.26
347.62	15000	0.8992	724.83	1.23
347.62	19850	0.801	715.23	1.25
347.62	24850	0.801	720.94	1.26
347.62	29860	0.801	726.31	1.27
347.62	34950	0.4	746.98	1.31
347.62	34950	0.8992	746.98	1.28
347.62	39850	0.801	736.15	1.3
347.62	39940	0.4	751.76	1.32
347.62	39940	0.8992	751.76	1.29
347.62	44930	0.4	756.3	1.33
347.62	44930	0.8992	756.3	1.31
347.62	49910	0.4	760.61	1.35
347.62	49910	0.8992	760.61	1.32
347.62	54840	0.801	749.08	1.35
347.62	54890	0.4	764.72	1.36
347.62	54890	0.8992	764.72	1.33
347.62	59880	0.4	768.69	1.38
347.62	59880	0.8992	768.69	1.35
347.62	64870	0.4	772.47	1.39
347.62	64870	0.8992	772.47	1.36
347.62	69850	0.4	776.15	1.4
347.62	69850	0.8992	776.15	1.37
347.62	74830	0.4	779.64	1.42
347.62	74830	0.8992	779.64	1.39
347.62	74890	0.801	763.9	1.41
347.62	79820	0.4	783.06	1.43
347.62	79820	0.8992	783.06	1.4
347.62	79870	0.801	767.26	1.43
347.62	84800	0.4	786.42	1.45
347.62	84800	0.8992	786.42	1.42
347.62	89780	0.4	789.6	1.46
347.62	89780	0.8992	789.6	1.43
347.62	94760	0.4	792.68	1.47
347.62	94760	0.8992	792.68	1.45
347.62	99740	0.4	795.68	1.49
347.62	99740	0.8992	795.68	1.46
347.62	99810	0.801	779.62	1.5
347.62	104710	0.4	798.57	1.5
347.62	104710	0.8992	798.57	1.47
347.62	109700	0.4	801.41	1.51
347.62	109700	0.8992	801.41	1.49
347.62	114660	0.4	804.17	1.53
347.62	114660	0.8992	804.17	1.5
347.62	119630	0.4	806.86	1.54
347.62	119630	0.8992	806.86	1.51
347.62	124610	0.4	809.5	1.55
347.62	124610	0.8992	809.5	1.53
347.62	124830	0.801	793.29	1.58
347.62	129570	0.4	812.05	1.57
347.62	129570	0.8992	812.05	1.54
347.63	1030	0.492	657.71	1.22
347.63	1030	0.611	666.96	1.21
347.63	4850	0.492	663.76	1.22
347.63	4870	0.611	673.09	1.22
347.63	9850	0.492	670.93	1.23
347.63	9870	0.611	680.36	1.23
347.63	14850	0.492	677.45	1.24
347.63	19850	0.492	683.45	1.26
347.63	19980	0.4	730.92	1.27
347.63	19980	0.8992	730.92	1.24
347.63	24860	0.492	689	1.27
347.63	24960	0.4	736.6	1.28
347.63	24960	0.8992	736.6	1.26
347.63	29860	0.492	694.2	1.29
347.63	29960	0.4	741.95	1.3
347.63	29960	0.8992	741.95	1.27
347.63	34850	0.492	699.05	1.31
347.63	34850	0.801	731.37	1.29
347.63	39860	0.492	703.65	1.32
347.63	44850	0.801	740.65	1.32
347.63	44870	0.492	708.02	1.34
347.63	49830	0.492	712.11	1.36
347.63	49850	0.801	744.95	1.33
347.63	54850	0.492	716.07	1.38
347.63	59840	0.801	752.99	1.36
347.63	59850	0.492	719.82	1.4
347.63	64820	0.801	756.73	1.38
347.63	64830	0.492	723.43	1.42
347.63	64920	0.611	733.74	1.41
347.63	69910	0.801	760.44	1.4
347.63	69920	0.611	737.26	1.43
347.63	69930	0.492	726.98	1.45
347.63	74910	0.492	730.29	1.47
347.63	79900	0.492	733.48	1.49
347.63	84860	0.801	770.5	1.45
347.63	84880	0.492	736.56	1.51
347.63	89840	0.801	773.63	1.46
347.63	89860	0.492	739.56	1.53
347.63	94820	0.801	776.66	1.48
347.63	104780	0.801	782.49	1.51
347.63	104800	0.492	747.95	1.6
347.63	109760	0.611	761.37	1.59
347.63	109760	0.801	785.29	1.53
347.63	109770	0.492	750.58	1.62
347.63	114860	0.801	788.08	1.54
347.63	119840	0.801	790.72	1.56
347.63	124840	0.492	758.13	1.69
347.63	124840	0.611	769.09	1.65
347.63	129860	0.492	760.49	1.72
347.63	129860	0.801	795.81	1.59
347.64	14870	0.611	686.95	1.24
347.64	19860	0.611	693.03	1.25
347.64	24870	0.611	698.69	1.27
347.64	29860	0.611	703.93	1.28
347.64	34870	0.611	708.89	1.3
347.64	39870	0.611	713.55	1.32
347.64	44850	0.611	717.99	1.33
347.64	49850	0.611	722.19	1.35
347.64	54850	0.611	726.18	1.37
347.64	59940	0.611	730.09	1.39
347.64	74910	0.611	740.63	1.45
347.64	79900	0.611	743.88	1.47
347.64	84880	0.611	747.05	1.49
347.64	89870	0.611	750.1	1.51
347.64	94840	0.611	753.04	1.53
347.64	94850	0.492	742.44	1.56
347.64	99820	0.492	745.23	1.58
347.64	99820	0.611	755.91	1.55
347.64	104780	0.611	758.67	1.57
347.64	114850	0.492	753.18	1.64
347.64	114870	0.611	764.04	1.61
347.64	119840	0.611	766.59	1.63
347.64	119860	0.492	755.69	1.67
347.64	129860	0.611	771.5	1.67
357.54	1050	0.7024	664.83	1.21
357.54	4810	0.7024	671.47	1.22
357.54	9820	0.7024	679.43	1.23
357.54	14810	0.7024	686.58	1.24
357.54	14860	0.611	677.52	1.24
357.54	19810	0.7024	693.14	1.25
357.54	24800	0.7024	699.18	1.27
357.54	29900	0.7024	704.93	1.28
357.54	34880	0.7024	710.21	1.3
357.54	39870	0.7024	715.16	1.32
357.54	44860	0.7024	719.83	1.33
357.54	49860	0.7024	724.29	1.35
357.54	54850	0.7024	728.52	1.37
357.54	59830	0.7024	732.55	1.39
357.54	64830	0.7024	736.42	1.41
357.54	69820	0.7024	740.13	1.42
357.54	74790	0.7024	743.68	1.44
357.54	84760	0.7024	750.39	1.48
357.54	94820	0.7024	756.74	1.52
357.55	1070	0.611	655.88	1.21
357.55	1080	0.492	647.12	1.22
357.55	1300	0.4	692.98	1.24
357.55	1300	0.8992	692.98	1.21
357.55	4850	0.492	653.64	1.22
357.55	4860	0.611	662.51	1.22
357.55	5030	0.4	699.4	1.25
357.55	5030	0.8992	699.4	1.22
357.55	9850	0.492	661.43	1.23
357.55	9860	0.611	670.41	1.23
357.55	10030	0.4	707.18	1.25
357.55	10030	0.8992	707.18	1.23
357.55	14850	0.492	668.43	1.25
357.55	15010	0.4	714.27	1.26
357.55	15010	0.8992	714.27	1.24
357.55	19840	0.492	674.79	1.26
357.55	19870	0.611	684.02	1.26
357.55	20010	0.4	720.81	1.28
357.55	20010	0.8992	720.81	1.25
357.55	24840	0.492	680.72	1.28
357.55	24850	0.611	689.97	1.27
357.55	24990	0.4	726.84	1.29
357.55	24990	0.8992	726.84	1.26
357.55	29870	0.492	686.24	1.29
357.55	29870	0.611	695.58	1.29
357.55	29970	0.4	732.49	1.3
357.55	29970	0.8992	732.49	1.27
357.55	34840	0.492	691.34	1.31
357.55	34860	0.611	700.78	1.3
357.55	34960	0.4	737.79	1.31
357.55	34960	0.8992	737.79	1.28
357.55	39860	0.492	696.15	1.33
357.55	39860	0.611	705.69	1.32
357.55	39960	0.4	742.81	1.33
357.55	39960	0.8992	742.81	1.3
357.55	44840	0.492	700.71	1.35
357.55	44850	0.611	710.3	1.34
357.55	44950	0.4	747.57	1.34
357.55	44950	0.8992	747.57	1.31
357.55	49840	0.611	714.7	1.36
357.55	49940	0.4	752.09	1.35
357.55	49940	0.8992	752.09	1.33
357.55	54850	0.492	709.15	1.39
357.55	54940	0.4	756.43	1.37
357.55	54940	0.611	718.97	1.38
357.55	54940	0.8992	756.43	1.34
357.55	59860	0.492	713.06	1.41
357.55	59930	0.4	760.56	1.38
357.55	59930	0.611	722.96	1.4
357.55	59930	0.8992	760.56	1.36
357.55	64830	0.492	716.77	1.43
357.55	64890	0.4	764.53	1.4
357.55	64890	0.8992	764.53	1.37
357.55	69890	0.4	768.36	1.41
357.55	69890	0.8992	768.36	1.39
357.55	69910	0.611	730.41	1.44
357.55	69930	0.492	720.43	1.46
357.55	74860	0.4	772.01	1.43
357.55	74860	0.8992	772.01	1.4
357.55	74890	0.611	733.9	1.46
357.55	74910	0.492	723.89	1.48
357.55	79780	0.7024	747.09	1.46
357.55	79880	0.611	737.26	1.48
357.55	84830	0.4	778.99	1.46
357.55	84830	0.8992	778.99	1.43
357.55	89740	0.7024	753.59	1.5
357.55	89810	0.4	782.3	1.47
357.55	89810	0.8992	782.3	1.45
357.55	89830	0.611	743.64	1.52
357.55	94820	0.611	746.67	1.54
357.55	94860	0.492	736.47	1.57
357.55	99800	0.611	749.61	1.56
357.55	99820	0.7024	759.74	1.54
357.55	104700	0.4	791.65	1.52
357.55	104700	0.8992	791.65	1.49
357.55	104820	0.7024	762.65	1.56
357.55	109810	0.7024	765.49	1.58
357.55	114810	0.7024	768.22	1.6
357.55	119810	0.7024	770.9	1.62
357.55	124810	0.7024	773.52	1.64
357.55	129800	0.7024	776.06	1.66
357.56	1060	0.801	677.14	1.21
357.56	4870	0.801	683.82	1.22
357.56	9840	0.801	691.71	1.23
357.56	14860	0.801	698.89	1.24
357.56	34850	0.801	722.54	1.29
357.56	49850	0.492	705.01	1.37
357.56	59820	0.801	745.17	1.37
357.56	64910	0.611	726.75	1.42
357.56	64920	0.801	749.17	1.39
357.56	69910	0.801	752.93	1.41
357.56	74880	0.801	756.52	1.42
357.56	79850	0.4	775.55	1.44
357.56	79850	0.8992	775.55	1.42
357.56	79900	0.492	727.2	1.5
357.56	84860	0.611	740.5	1.5
357.56	84870	0.801	763.37	1.46
357.56	84890	0.492	730.4	1.52
357.56	89840	0.801	766.6	1.48
357.56	89880	0.492	733.49	1.55
357.56	94780	0.4	785.51	1.49
357.56	94780	0.8992	785.51	1.46
357.56	94830	0.801	769.76	1.49
357.56	99750	0.4	788.61	1.5
357.56	99750	0.8992	788.61	1.48
357.56	99810	0.801	772.8	1.51
357.56	99830	0.492	739.34	1.59
357.56	104780	0.611	752.46	1.59
357.56	104780	0.801	775.76	1.53
357.56	104810	0.492	742.14	1.61
357.56	109680	0.4	794.58	1.53
357.56	109680	0.8992	794.58	1.5
357.56	109800	0.492	744.86	1.64
357.56	109860	0.611	755.29	1.61
357.56	114650	0.4	797.46	1.54
357.56	114650	0.8992	797.46	1.52
357.56	114760	0.492	747.47	1.66
357.56	114840	0.801	781.49	1.56
357.56	114860	0.611	758	1.63
357.56	119620	0.4	800.25	1.56
357.56	119620	0.8992	800.25	1.53
357.56	119840	0.611	760.62	1.65
357.56	119850	0.492	750.09	1.68
357.56	124590	0.4	802.96	1.57
357.56	124590	0.8992	802.96	1.55
357.56	124850	0.492	752.62	1.71
357.56	124850	0.611	763.18	1.67
357.56	124850	0.801	786.88	1.6
357.56	129540	0.4	805.62	1.59
357.56	129540	0.8992	805.62	1.56
357.56	129840	0.492	755.04	1.74
357.56	129850	0.611	765.68	1.69
357.57	19850	0.801	705.47	1.25
357.57	24850	0.801	711.56	1.26
357.57	29850	0.801	717.2	1.28
357.57	39860	0.801	727.56	1.31
357.57	44860	0.801	732.3	1.32
357.57	49830	0.801	736.79	1.34
357.57	54840	0.801	741.09	1.36
357.57	79870	0.801	760	1.44
357.57	109760	0.801	778.61	1.55
357.57	119850	0.801	784.21	1.58
357.57	129840	0.801	789.47	1.61
367.47	1110	0.7024	653.24	1.21
367.47	4830	0.7024	660.5	1.22
367.47	9820	0.7024	669.16	1.23
367.47	14810	0.7024	676.86	1.24
367.47	19800	0.7024	683.87	1.26
367.47	24870	0.7024	690.44	1.27
367.47	29900	0.7024	696.42	1.29
367.47	29980	0.4	723.61	1.3
367.47	29980	0.8992	723.61	1.28
367.47	34870	0.7024	701.98	1.3
367.47	39870	0.7024	707.22	1.32
367.47	44860	0.7024	712.14	1.34
367.47	49850	0.7024	716.78	1.36
367.47	54840	0.7024	721.18	1.38
367.47	59880	0.4	753.02	1.39
367.47	59880	0.8992	753.02	1.36
367.47	64830	0.7024	729.41	1.42
367.47	69810	0.7024	733.25	1.44
367.47	79780	0.7024	740.5	1.48
367.47	89740	0.7024	747.21	1.52
367.47	94830	0.7024	750.48	1.54
367.47	99830	0.7024	753.58	1.56
367.47	104830	0.7024	756.58	1.58
367.47	109810	0.7024	759.49	1.6
367.47	114820	0.7024	762.32	1.62
367.47	119810	0.7024	765.08	1.64
367.47	124820	0.7024	767.78	1.66
367.47	129810	0.7024	770.39	1.68
367.48	1150	0.611	644.69	1.21
367.48	5040	0.4	687.92	1.25
367.48	5040	0.8992	687.92	1.22
367.48	9850	0.611	660.49	1.23
367.48	10030	0.4	696.45	1.25
367.48	10030	0.8992	696.45	1.23
367.48	15010	0.4	704.13	1.26
367.48	15010	0.8992	704.13	1.24
367.48	19860	0.611	675.16	1.26
367.48	20000	0.4	711.11	1.28
367.48	20000	0.8992	711.11	1.25
367.48	24860	0.611	681.55	1.27
367.48	25000	0.4	717.58	1.29
367.48	25000	0.8992	717.58	1.26
367.48	29870	0.611	687.49	1.29
367.48	34860	0.611	693	1.31
367.48	39940	0.4	734.49	1.33
367.48	39940	0.8992	734.49	1.3
367.48	44850	0.611	703	1.35
367.48	44920	0.4	739.45	1.34
367.48	44920	0.8992	739.45	1.32
367.48	49910	0.4	744.24	1.36
367.48	49910	0.8992	744.24	1.33
367.48	49940	0.611	707.7	1.37
367.48	54900	0.4	748.72	1.37
367.48	54900	0.8992	748.72	1.35
367.48	54920	0.611	712.06	1.39
367.48	59830	0.7024	725.38	1.4
367.48	64860	0.4	757.11	1.41
367.48	64860	0.8992	757.11	1.38
367.48	64900	0.611	720.16	1.43
367.48	69840	0.4	761.04	1.42
367.48	69840	0.8992	761.04	1.4
367.48	74790	0.7024	736.93	1.46
367.48	74820	0.4	764.83	1.44
367.48	74820	0.8992	764.83	1.41
367.48	74880	0.611	727.57	1.47
367.48	79790	0.4	768.48	1.45
367.48	79790	0.8992	768.48	1.43
367.48	84760	0.7024	743.91	1.5
367.48	84780	0.4	772.02	1.47
367.48	84780	0.8992	772.02	1.44
367.48	84860	0.611	734.42	1.51
367.48	89740	0.4	775.41	1.48
367.48	89740	0.8992	775.41	1.46
367.48	89840	0.611	737.67	1.54
367.48	94810	0.611	740.81	1.56
367.48	99700	0.4	781.91	1.51
367.48	99700	0.8992	781.91	1.49
367.48	104670	0.4	785.01	1.53
367.48	104670	0.8992	785.01	1.51
367.48	104780	0.611	746.78	1.6
367.48	109630	0.4	788.01	1.55
367.48	109630	0.8992	788.01	1.52
367.48	114860	0.611	752.48	1.65
367.48	119560	0.4	793.8	1.58
367.48	119560	0.8992	793.8	1.55
367.48	119860	0.611	755.19	1.67
367.48	124530	0.4	796.59	1.59
367.48	124530	0.8992	796.59	1.57
367.48	129810	0.4	799.46	1.6
367.48	129810	0.8992	799.46	1.58
367.49	1150	0.492	636.24	1.22
367.49	1160	0.801	665.36	1.21
367.49	1370	0.4	680.97	1.24
367.49	1370	0.8992	680.97	1.21
367.49	4860	0.801	672.53	1.22
367.49	4870	0.492	643.34	1.22
367.49	4870	0.611	651.91	1.22
367.49	9840	0.801	681.17	1.23
367.49	9860	0.492	651.84	1.23
367.49	14860	0.801	688.96	1.24
367.49	14870	0.492	659.41	1.25
367.49	14880	0.611	668.22	1.24
367.49	19850	0.801	696.01	1.25
367.49	19860	0.492	666.25	1.26
367.49	24850	0.801	702.51	1.27
367.49	29860	0.801	708.54	1.28
367.49	34850	0.492	683.77	1.32
367.49	34860	0.801	714.16	1.3
367.49	34950	0.4	729.18	1.31
367.49	34950	0.8992	729.18	1.29
367.49	39860	0.611	698.15	1.33
367.49	44850	0.492	693.62	1.36
367.49	54840	0.801	733.6	1.36
367.49	59920	0.611	716.21	1.41
367.49	69900	0.611	723.93	1.45
367.49	79870	0.611	731.07	1.49
367.49	94730	0.4	778.72	1.5
367.49	94730	0.8992	778.72	1.47
367.49	99800	0.611	743.84	1.58
367.49	99840	0.492	733.62	1.61
367.49	104810	0.492	736.49	1.63
367.49	109800	0.492	739.28	1.65
367.49	109850	0.611	749.68	1.62
367.49	114600	0.4	790.95	1.56
367.49	114600	0.8992	790.95	1.54
367.49	114760	0.492	742	1.68
367.49	119830	0.492	744.68	1.7
367.49	124840	0.492	747.26	1.72
367.49	124860	0.611	757.81	1.69
367.49	129850	0.492	749.77	1.76
367.49	129850	0.611	760.39	1.71
367.5	24850	0.492	672.52	1.28
367.5	29850	0.492	678.35	1.3
367.5	39850	0.801	719.44	1.31
367.5	39860	0.492	688.84	1.34
367.5	44870	0.801	724.43	1.33
367.5	49850	0.492	698.13	1.38
367.5	49850	0.801	729.14	1.35
367.5	54850	0.492	702.41	1.4
367.5	59830	0.801	737.85	1.38
367.5	59870	0.492	706.5	1.42
367.5	64830	0.492	710.35	1.44
367.5	64930	0.801	742.02	1.4
367.5	69830	0.492	714.07	1.47
367.5	69910	0.801	745.93	1.42
367.5	74910	0.801	749.67	1.44
367.5	74930	0.492	717.72	1.49
367.5	79900	0.801	753.27	1.45
367.5	79920	0.492	721.13	1.51
367.5	84870	0.801	756.74	1.47
367.5	84880	0.492	724.42	1.54
367.5	89850	0.801	760.09	1.49
367.5	89870	0.492	727.6	1.56
367.5	94840	0.801	763.33	1.51
367.5	94860	0.492	730.65	1.58
367.5	99820	0.801	766.48	1.53
367.5	104790	0.801	769.51	1.54
367.5	109770	0.801	772.47	1.56
367.5	114840	0.801	775.42	1.58
367.5	119830	0.801	778.22	1.6
367.5	124850	0.801	780.96	1.61
367.5	129850	0.801	783.62	1.63
377.39	1230	0.611	632.91	1.21
377.39	4860	0.611	640.68	1.22
377.39	9830	0.7024	659.14	1.23
377.39	9860	0.611	650.09	1.23
377.39	14860	0.611	658.35	1.25
377.39	39860	0.611	690.09	1.33
377.39	74880	0.611	720.69	1.48
377.39	84850	0.611	727.78	1.53
377.39	99800	0.611	737.52	1.6
377.39	119850	0.611	749.19	1.69
377.39	124860	0.611	751.9	1.71
377.4	1220	0.492	624.83	1.22
377.4	1220	0.7024	641.88	1.21
377.4	1230	0.801	652.62	1.22
377.4	4820	0.7024	649.63	1.22
377.4	4850	0.801	660.44	1.22
377.4	4860	0.492	632.5	1.22
377.4	9850	0.492	641.73	1.24
377.4	9860	0.801	669.95	1.23
377.4	14830	0.7024	667.51	1.24
377.4	14850	0.801	678.33	1.24
377.4	14860	0.492	649.89	1.25
377.4	19830	0.7024	675.07	1.26
377.4	19850	0.492	657.2	1.27
377.4	19850	0.801	685.9	1.26
377.4	19860	0.611	665.8	1.26
377.4	24840	0.492	663.85	1.28
377.4	24840	0.7024	681.95	1.27
377.4	24860	0.611	672.6	1.28
377.4	24870	0.801	692.89	1.27
377.4	29840	0.7024	688.29	1.29
377.4	29860	0.611	678.86	1.3
377.4	34830	0.7024	694.18	1.31
377.4	34840	0.492	675.68	1.32
377.4	34870	0.611	684.68	1.31
377.4	39820	0.7024	699.65	1.33
377.4	39850	0.492	681.01	1.34
377.4	44820	0.7024	704.82	1.34
377.4	44850	0.611	695.17	1.35
377.4	44870	0.492	686.02	1.36
377.4	49820	0.7024	709.68	1.36
377.4	49840	0.492	690.72	1.38
377.4	49850	0.611	699.96	1.37
377.4	54810	0.7024	714.29	1.38
377.4	54870	0.801	725.65	1.37
377.4	54930	0.611	704.59	1.4
377.4	59810	0.7024	718.67	1.4
377.4	59840	0.492	699.41	1.43
377.4	59850	0.801	730.07	1.39
377.4	59940	0.611	708.91	1.42
377.4	64790	0.7024	722.84	1.42
377.4	64830	0.801	734.28	1.41
377.4	64920	0.611	713	1.44
377.4	69890	0.7024	726.94	1.45
377.4	69900	0.611	716.92	1.46
377.4	69920	0.492	707.37	1.48
377.4	69930	0.801	738.44	1.43
377.4	74790	0.4	757.14	1.45
377.4	74790	0.8992	757.14	1.42
377.4	74870	0.7024	730.75	1.47
377.4	74920	0.801	742.33	1.45
377.4	79860	0.7024	734.43	1.49
377.4	79880	0.611	724.31	1.51
377.4	79890	0.492	714.63	1.53
377.4	79910	0.801	746.08	1.47
377.4	84840	0.7024	737.97	1.51
377.4	84870	0.492	718.02	1.55
377.4	84910	0.801	749.68	1.49
377.4	89820	0.7024	741.37	1.53
377.4	89840	0.611	731.15	1.55
377.4	89860	0.492	721.32	1.57
377.4	89880	0.801	753.15	1.5
377.4	94790	0.7024	744.65	1.55
377.4	94820	0.611	734.38	1.57
377.4	94830	0.492	724.48	1.6
377.4	94860	0.801	756.48	1.52
377.4	99780	0.7024	747.85	1.57
377.4	99820	0.492	727.55	1.62
377.4	99840	0.801	759.75	1.54
377.4	104750	0.7024	750.93	1.59
377.4	104780	0.611	740.53	1.62
377.4	104790	0.492	730.51	1.65
377.4	104810	0.801	762.89	1.56
377.4	109780	0.492	733.39	1.67
377.4	109790	0.801	765.94	1.58
377.4	109820	0.7024	753.96	1.61
377.4	109850	0.611	743.53	1.64
377.4	114760	0.801	768.91	1.6
377.4	114820	0.7024	756.89	1.63
377.4	114850	0.611	746.4	1.66
377.4	119800	0.7024	759.71	1.65
377.4	119830	0.492	738.96	1.72
377.4	119830	0.801	771.84	1.62
377.4	124810	0.7024	762.48	1.67
377.4	124850	0.492	741.61	1.74
377.4	124850	0.801	774.66	1.63
377.4	129810	0.7024	765.17	1.69
377.4	129840	0.611	754.52	1.73
377.4	129840	0.801	777.42	1.65
377.4	129850	0.492	744.18	1.78
377.41	1430	0.4	667.78	1.24
377.41	1430	0.8992	667.78	1.22
377.41	5010	0.4	675.34	1.24
377.41	5010	0.8992	675.34	1.22
377.41	10000	0.4	684.66	1.25
377.41	10000	0.8992	684.66	1.23
377.41	14980	0.4	692.99	1.27
377.41	14980	0.8992	692.99	1.24
377.41	19960	0.4	700.52	1.28
377.41	19960	0.8992	700.52	1.25
377.41	24950	0.4	707.43	1.29
377.41	24950	0.8992	707.43	1.27
377.41	29840	0.801	699.24	1.29
377.41	29860	0.492	670	1.3
377.41	29930	0.4	713.82	1.3
377.41	29930	0.8992	713.82	1.28
377.41	34850	0.801	705.2	1.3
377.41	34930	0.4	719.78	1.32
377.41	34930	0.8992	719.78	1.29
377.41	39850	0.801	710.77	1.32
377.41	39910	0.4	725.35	1.33
377.41	39910	0.8992	725.35	1.31
377.41	44860	0.801	716	1.34
377.41	44890	0.4	730.6	1.35
377.41	44890	0.8992	730.6	1.33
377.41	49850	0.801	720.93	1.35
377.41	49880	0.4	735.58	1.37
377.41	49880	0.8992	735.58	1.34
377.41	54850	0.492	695.17	1.41
377.41	54860	0.4	740.29	1.38
377.41	54860	0.8992	740.29	1.36
377.41	59860	0.4	744.79	1.4
377.41	59860	0.8992	744.79	1.37
377.41	64820	0.492	703.44	1.45
377.41	64830	0.4	749.06	1.41
377.41	64830	0.8992	749.06	1.39
377.41	69810	0.4	753.19	1.43
377.41	69810	0.8992	753.19	1.41
377.41	74900	0.492	711.06	1.5
377.41	79760	0.4	760.91	1.46
377.41	79760	0.8992	760.91	1.44
377.41	84740	0.4	764.58	1.48
377.41	84740	0.8992	764.58	1.46
377.41	89720	0.4	768.12	1.5
377.41	89720	0.8992	768.12	1.47
377.41	94700	0.4	771.53	1.51
377.41	94700	0.8992	771.53	1.49
377.41	99670	0.4	774.85	1.53
377.41	99670	0.8992	774.85	1.51
377.41	104650	0.4	778.05	1.55
377.41	104650	0.8992	778.05	1.52
377.41	109630	0.4	781.18	1.56
377.41	109630	0.8992	781.18	1.54
377.41	114600	0.4	784.19	1.58
377.41	114600	0.8992	784.19	1.55
377.41	114850	0.492	736.23	1.7
377.41	119570	0.4	787.15	1.59
377.41	119570	0.8992	787.15	1.57
377.41	124540	0.4	790.02	1.61
377.41	124540	0.8992	790.02	1.59
377.41	129820	0.4	793	1.62
377.41	129820	0.8992	793	1.6
387.3	19850	0.611	656.37	1.26
387.31	1350	0.611	620.65	1.22
387.31	4850	0.611	628.99	1.22
387.31	9850	0.611	639.33	1.23
387.31	14880	0.611	648.36	1.25
387.31	39860	0.611	682.12	1.34
387.31	49860	0.611	692.49	1.38
387.31	54850	0.611	697.23	1.4
387.31	64910	0.611	706.07	1.45
387.31	84880	0.611	721.4	1.54
387.31	109790	0.611	737.58	1.66
387.31	114860	0.611	740.58	1.68
387.31	119850	0.611	743.43	1.7
387.31	124850	0.611	746.21	1.73
387.31	129830	0.611	748.89	1.75
387.32	1320	0.801	639.55	1.22
387.32	1540	0.4	654.4	1.24
387.32	1540	0.8992	654.4	1.22
387.32	9840	0.801	658.47	1.23
387.32	14970	0.4	681.93	1.27
387.32	14970	0.8992	681.93	1.24
387.32	24870	0.611	663.63	1.28
387.32	29860	0.611	670.27	1.3
387.32	34870	0.611	676.42	1.32
387.32	39850	0.801	702.19	1.33
387.32	39920	0.4	716.49	1.34
387.32	39920	0.8992	716.49	1.32
387.32	44860	0.611	687.46	1.36
387.32	49850	0.801	712.89	1.36
387.32	49880	0.4	727.19	1.37
387.32	49880	0.8992	727.19	1.35
387.32	54850	0.801	717.78	1.38
387.32	59840	0.611	701.71	1.43
387.32	59850	0.4	736.82	1.41
387.32	59850	0.801	722.41	1.4
387.32	59850	0.8992	736.82	1.38
387.32	64820	0.801	726.8	1.42
387.32	64830	0.4	741.3	1.42
387.32	64830	0.8992	741.3	1.4
387.32	69930	0.611	710.16	1.47
387.32	74800	0.4	749.67	1.46
387.32	74800	0.8992	749.67	1.44
387.32	74910	0.611	714.05	1.5
387.32	74910	0.801	735.15	1.46
387.32	79790	0.4	753.62	1.48
387.32	79790	0.8992	753.62	1.45
387.32	79900	0.611	717.8	1.52
387.32	84760	0.4	757.4	1.49
387.32	84760	0.8992	757.4	1.47
387.32	89750	0.4	761.05	1.51
387.32	89750	0.8992	761.05	1.49
387.32	89870	0.611	724.87	1.57
387.32	94730	0.4	764.59	1.53
387.32	94730	0.8992	764.59	1.51
387.32	94840	0.801	749.8	1.54
387.32	94850	0.611	728.19	1.59
387.32	99700	0.4	768.01	1.54
387.32	99700	0.8992	768.01	1.52
387.32	99840	0.611	731.42	1.61
387.32	104670	0.4	771.32	1.56
387.32	104670	0.8992	771.32	1.54
387.32	104810	0.611	734.54	1.64
387.32	104810	0.801	756.41	1.58
387.32	109640	0.4	774.53	1.58
387.32	109640	0.8992	774.53	1.56
387.32	109780	0.801	759.56	1.6
387.32	114600	0.4	777.64	1.6
387.32	114600	0.8992	777.64	1.57
387.32	119580	0.4	780.68	1.61
387.32	119580	0.8992	780.68	1.59
387.32	119830	0.801	765.63	1.64
387.32	124530	0.4	783.61	1.63
387.32	124530	0.8992	783.61	1.61
387.32	129840	0.4	786.68	1.64
387.32	129840	0.8992	786.68	1.62
387.33	1300	0.7024	628.97	1.22
387.33	4820	0.7024	637.48	1.22
387.33	4860	0.492	621.33	1.22
387.33	4860	0.801	648.03	1.22
387.33	5010	0.4	662.6	1.24
387.33	5010	0.8992	662.6	1.22
387.33	9820	0.7024	647.9	1.23
387.33	9850	0.492	631.47	1.24
387.33	10000	0.4	672.89	1.25
387.33	10000	0.8992	672.89	1.23
387.33	14850	0.492	640.29	1.25
387.33	14860	0.801	667.65	1.25
387.33	19810	0.7024	665.07	1.26
387.33	19860	0.801	675.81	1.26
387.33	19960	0.4	690.05	1.28
387.33	19960	0.8992	690.05	1.26
387.33	24860	0.801	683.23	1.27
387.33	24940	0.4	697.46	1.29
387.33	24940	0.8992	697.46	1.27
387.33	29820	0.7024	679.2	1.3
387.33	29830	0.801	690	1.29
387.33	29940	0.4	704.27	1.31
387.33	29940	0.8992	704.27	1.28
387.33	34860	0.801	696.35	1.31
387.33	34930	0.4	710.58	1.32
387.33	34930	0.8992	710.58	1.3
387.33	39820	0.7024	691.19	1.33
387.33	44790	0.7024	696.6	1.35
387.33	44850	0.801	707.68	1.34
387.33	44910	0.4	722	1.36
387.33	44910	0.8992	722	1.33
387.33	49890	0.7024	701.8	1.37
387.33	54870	0.4	732.14	1.39
387.33	54870	0.8992	732.14	1.37
387.33	59840	0.492	692.57	1.44
387.33	59880	0.7024	711.17	1.41
387.33	69820	0.801	731	1.44
387.33	69830	0.4	745.58	1.44
387.33	69830	0.8992	745.58	1.42
387.33	79900	0.801	739.02	1.48
387.33	84880	0.801	742.74	1.5
387.33	89860	0.801	746.32	1.52
387.33	99770	0.7024	741.29	1.59
387.33	99830	0.801	753.17	1.56
387.33	114840	0.801	762.65	1.62
387.33	124840	0.801	768.53	1.65
387.33	129850	0.801	771.37	1.67
387.34	1350	0.492	613.12	1.22
387.34	14820	0.7024	656.98	1.25
387.34	19850	0.492	648.12	1.27
387.34	24830	0.7024	672.45	1.28
387.34	24840	0.492	655.23	1.29
387.34	29850	0.492	661.75	1.31
387.34	34810	0.7024	685.41	1.31
387.34	34840	0.492	667.74	1.33
387.34	39870	0.492	673.37	1.35
387.34	44860	0.492	678.6	1.37
387.34	49850	0.492	683.53	1.39
387.34	54850	0.492	688.17	1.42
387.34	54880	0.7024	706.61	1.39
387.34	64820	0.492	696.75	1.46
387.34	64880	0.7024	715.51	1.44
387.34	69860	0.7024	719.63	1.46
387.34	69930	0.492	700.84	1.49
387.34	74840	0.7024	723.6	1.48
387.34	74900	0.492	704.65	1.51
387.34	79840	0.7024	727.41	1.5
387.34	79890	0.492	708.31	1.54
387.34	84810	0.7024	731.07	1.52
387.34	84890	0.492	711.86	1.56
387.34	89810	0.7024	734.6	1.54
387.34	89860	0.492	715.24	1.59
387.34	94770	0.7024	737.98	1.57
387.34	94840	0.492	718.51	1.61
387.34	99820	0.492	721.68	1.64
387.34	104740	0.7024	744.46	1.61
387.34	104800	0.492	724.73	1.66
387.34	109720	0.7024	747.55	1.63
387.34	109770	0.492	727.68	1.69
387.34	114800	0.7024	750.59	1.65
387.34	114840	0.492	730.61	1.71
387.34	119810	0.7024	753.51	1.67
387.34	119850	0.492	733.41	1.74
387.34	124820	0.7024	756.37	1.69
387.34	124850	0.492	736.14	1.76
387.34	129810	0.7024	759.13	1.71
387.34	129840	0.492	738.77	1.79
397.26	1500	0.801	626.11	1.22
397.26	1680	0.4	640.61	1.24
397.26	1680	0.8992	640.61	1.22
397.26	5010	0.4	649.41	1.24
397.26	5010	0.8992	649.41	1.22
397.26	14870	0.611	638.19	1.25
397.26	14980	0.4	670.71	1.27
397.26	14980	0.8992	670.71	1.25
397.26	19970	0.4	679.48	1.28
397.26	19970	0.8992	679.48	1.26
397.26	29940	0.4	694.66	1.31
397.26	29940	0.8992	694.66	1.29
397.26	44910	0.4	713.39	1.36
397.26	44910	0.8992	713.39	1.34
397.26	49900	0.4	718.87	1.38
397.26	49900	0.8992	718.87	1.36
397.26	54890	0.4	724.02	1.4
397.26	54890	0.8992	724.02	1.38
397.26	59880	0.4	728.9	1.41
397.26	59880	0.8992	728.9	1.39
397.26	64940	0.611	699.14	1.46
397.26	69840	0.4	738.01	1.45
397.26	69840	0.8992	738.01	1.43
397.26	74820	0.4	742.26	1.47
397.26	74820	0.8992	742.26	1.45
397.26	84790	0.4	750.27	1.51
397.26	84790	0.8992	750.27	1.49
397.26	89770	0.4	754.07	1.52
397.26	89770	0.8992	754.07	1.5
397.26	104690	0.4	764.67	1.58
397.26	104690	0.8992	764.67	1.56
397.26	109670	0.4	767.98	1.6
397.26	109670	0.8992	767.98	1.57
397.26	114610	0.4	771.16	1.61
397.26	114610	0.8992	771.16	1.59
397.26	119600	0.4	774.27	1.63
397.26	119600	0.8992	774.27	1.61
397.27	1520	0.611	608	1.22
397.27	4850	0.801	635.17	1.22
397.27	4860	0.611	616.98	1.22
397.27	9850	0.801	646.73	1.24
397.27	9870	0.611	628.41	1.24
397.27	10000	0.4	660.81	1.25
397.27	10000	0.8992	660.81	1.23
397.27	14860	0.801	656.72	1.25
397.27	19840	0.801	665.54	1.26
397.27	19860	0.611	646.79	1.27
397.27	24850	0.611	654.54	1.29
397.27	24870	0.801	673.51	1.28
397.27	24950	0.4	687.4	1.29
397.27	24950	0.8992	687.4	1.27
397.27	29850	0.611	661.6	1.3
397.27	34860	0.801	687.43	1.31
397.27	34870	0.611	668.12	1.32
397.27	34940	0.4	701.35	1.33
397.27	34940	0.8992	701.35	1.31
397.27	39870	0.611	674.11	1.35
397.27	39930	0.4	707.57	1.34
397.27	39930	0.8992	707.57	1.32
397.27	44850	0.801	699.35	1.35
397.27	44870	0.611	679.73	1.37
397.27	49850	0.611	684.97	1.39
397.27	49850	0.801	704.77	1.37
397.27	54850	0.611	689.91	1.41
397.27	54860	0.801	709.87	1.39
397.27	59840	0.611	694.59	1.44
397.27	64820	0.801	719.28	1.43
397.27	64860	0.4	733.56	1.43
397.27	64860	0.8992	733.56	1.41
397.27	69920	0.611	703.34	1.48
397.27	69920	0.801	723.77	1.45
397.27	79800	0.4	746.33	1.49
397.27	79800	0.8992	746.33	1.47
397.27	79900	0.801	731.97	1.49
397.27	79910	0.611	711.27	1.53
397.27	84880	0.611	715	1.56
397.27	84880	0.801	735.83	1.51
397.27	89870	0.611	718.57	1.58
397.27	89870	0.801	739.53	1.53
397.27	94750	0.4	757.72	1.54
397.27	94750	0.8992	757.72	1.52
397.27	94840	0.801	743.11	1.55
397.27	94850	0.611	722.01	1.6
397.27	99720	0.4	761.24	1.56
397.27	99720	0.8992	761.24	1.54
397.27	99830	0.611	725.33	1.63
397.27	104800	0.611	728.56	1.65
397.27	104800	0.801	749.91	1.6
397.27	109770	0.611	731.66	1.68
397.27	119830	0.801	759.4	1.66
397.27	124560	0.4	777.29	1.65
397.27	124560	0.8992	777.29	1.63
397.27	129820	0.4	780.45	1.66
397.27	129820	0.8992	780.45	1.64
397.27	129840	0.801	765.29	1.69
397.28	1470	0.7024	615.75	1.22
397.28	1500	0.492	600.98	1.22
397.28	4850	0.7024	624.89	1.22
397.28	4860	0.492	609.77	1.23
397.28	9830	0.7024	636.41	1.24
397.28	9850	0.492	620.92	1.24
397.28	14840	0.7024	646.37	1.25
397.28	14860	0.492	630.52	1.25
397.28	19840	0.7024	655.11	1.27
397.28	24820	0.7024	662.95	1.28
397.28	29820	0.7024	670.12	1.3
397.28	29840	0.492	653.43	1.31
397.28	29860	0.801	680.72	1.3
397.28	34830	0.7024	676.7	1.32
397.28	34860	0.492	659.77	1.33
397.28	39840	0.7024	682.81	1.34
397.28	39850	0.801	693.57	1.33
397.28	44820	0.7024	688.48	1.36
397.28	44860	0.492	671.15	1.38
397.28	49810	0.7024	693.79	1.38
397.28	54840	0.492	681.14	1.42
397.28	54910	0.7024	698.93	1.4
397.28	59840	0.492	685.74	1.45
397.28	59850	0.801	714.7	1.41
397.28	59860	0.7024	703.65	1.42
397.28	64820	0.492	690.08	1.47
397.28	64890	0.7024	708.2	1.45
397.28	69880	0.7024	712.51	1.47
397.28	74860	0.7024	716.61	1.49
397.28	74910	0.492	698.27	1.52
397.28	74910	0.801	727.94	1.47
397.28	74920	0.611	707.37	1.51
397.28	79830	0.7024	720.53	1.51
397.28	79900	0.492	702.07	1.55
397.28	84840	0.7024	724.33	1.54
397.28	84890	0.492	705.69	1.58
397.28	89820	0.7024	727.97	1.56
397.28	94800	0.7024	731.49	1.58
397.28	94850	0.492	712.56	1.63
397.28	99780	0.7024	734.88	1.6
397.28	99820	0.801	746.56	1.58
397.28	104760	0.7024	738.15	1.63
397.28	109780	0.801	753.14	1.62
397.28	114820	0.7024	744.47	1.67
397.28	114850	0.492	725.01	1.73
397.28	114850	0.801	756.36	1.64
397.28	114870	0.611	734.74	1.7
397.28	119800	0.7024	747.44	1.69
397.28	119860	0.611	737.69	1.72
397.28	124830	0.7024	750.39	1.71
397.28	124840	0.492	730.68	1.78
397.28	124840	0.801	762.38	1.68
397.28	124860	0.611	740.54	1.75
397.28	129790	0.7024	753.19	1.74
397.28	129840	0.492	733.39	1.81
397.28	129840	0.611	743.3	1.77
397.29	19850	0.492	638.92	1.27
397.29	24860	0.492	646.54	1.29
397.29	39850	0.492	665.68	1.35
397.29	49840	0.492	676.28	1.4
397.29	69930	0.492	694.29	1.5
397.29	89860	0.492	709.18	1.6
397.29	99830	0.492	715.82	1.65
397.29	104800	0.492	718.94	1.68
397.29	109740	0.7024	741.31	1.65
397.29	109770	0.492	722	1.71
397.29	119840	0.492	727.87	1.76
407.2	1850	0.4	626.34	1.24
407.2	1850	0.8992	626.34	1.22
407.2	5000	0.4	635.78	1.24
407.2	5000	0.8992	635.78	1.22
407.2	10000	0.4	648.49	1.25
407.2	10000	0.8992	648.49	1.24
407.2	14980	0.4	659.29	1.27
407.2	14980	0.8992	659.29	1.25
407.2	49890	0.4	710.54	1.39
407.2	49890	0.8992	710.54	1.37
407.21	1650	0.611	594.88	1.22
407.21	1660	0.801	612.07	1.22
407.21	4870	0.611	604.63	1.23
407.21	4870	0.801	621.91	1.23
407.21	9870	0.611	617.29	1.24
407.21	14860	0.801	645.72	1.25
407.21	14880	0.611	627.98	1.25
407.21	19850	0.801	655.22	1.27
407.21	19960	0.4	668.77	1.28
407.21	19960	0.8992	668.77	1.26
407.21	24940	0.4	677.3	1.3
407.21	24940	0.8992	677.3	1.28
407.21	29940	0.4	685.05	1.31
407.21	29940	0.8992	685.05	1.29
407.21	34930	0.4	692.12	1.33
407.21	34930	0.8992	692.12	1.31
407.21	39920	0.4	698.68	1.35
407.21	39920	0.8992	698.68	1.33
407.21	44900	0.4	704.79	1.37
407.21	44900	0.8992	704.79	1.35
407.21	54880	0.4	715.92	1.4
407.21	54880	0.8992	715.92	1.38
407.21	59880	0.4	721.06	1.42
407.21	59880	0.8992	721.06	1.4
407.21	64860	0.4	725.91	1.44
407.21	64860	0.8992	725.91	1.42
407.21	69840	0.4	730.52	1.46
407.21	69840	0.8992	730.52	1.44
407.21	74830	0.4	734.95	1.48
407.21	74830	0.8992	734.95	1.46
407.21	79810	0.4	739.19	1.5
407.21	79810	0.8992	739.19	1.48
407.21	84790	0.4	743.24	1.52
407.21	84790	0.8992	743.24	1.5
407.21	89780	0.4	747.17	1.54
407.21	89780	0.8992	747.17	1.52
407.22	1650	0.492	588.49	1.22
407.22	4850	0.492	597.92	1.23
407.22	9860	0.801	634.81	1.24
407.22	19860	0.611	637.25	1.27
407.22	24840	0.492	637.87	1.29
407.22	24850	0.611	645.53	1.29
407.22	24850	0.801	663.77	1.28
407.22	29850	0.492	645.2	1.32
407.22	29860	0.801	671.47	1.3
407.22	29870	0.611	653.05	1.31
407.22	34850	0.801	678.52	1.32
407.22	34860	0.611	659.9	1.33
407.22	39850	0.801	685.05	1.34
407.22	39860	0.611	666.23	1.35
407.22	44860	0.801	691.11	1.36
407.22	44870	0.611	672.1	1.37
407.22	49870	0.611	677.58	1.4
407.22	54850	0.611	682.71	1.42
407.22	59830	0.611	687.58	1.45
407.22	59840	0.492	679.01	1.46
407.22	59840	0.801	707.14	1.42
407.22	64930	0.611	692.3	1.47
407.22	69830	0.801	716.45	1.46
407.22	69920	0.611	696.69	1.49
407.22	74910	0.611	700.88	1.52
407.22	74920	0.801	720.89	1.49
407.22	79900	0.611	704.88	1.54
407.22	79920	0.801	725.05	1.51
407.22	84880	0.611	708.71	1.57
407.22	84890	0.801	729.04	1.53
407.22	89850	0.611	712.41	1.59
407.22	89860	0.492	703.26	1.62
407.22	89890	0.801	732.88	1.55
407.22	94740	0.4	750.92	1.56
407.22	94740	0.8992	750.92	1.54
407.22	94840	0.611	715.96	1.62
407.22	94870	0.801	736.56	1.57
407.22	99720	0.4	754.58	1.58
407.22	99720	0.8992	754.58	1.56
407.22	99820	0.611	719.38	1.64
407.22	99840	0.801	740.12	1.59
407.22	104690	0.4	758.09	1.59
407.22	104690	0.8992	758.09	1.57
407.22	104790	0.611	722.68	1.67
407.22	104820	0.801	743.55	1.61
407.22	109650	0.4	761.5	1.61
407.22	109650	0.8992	761.5	1.59
407.22	109770	0.492	716.44	1.72
407.22	109790	0.801	746.89	1.63
407.22	109860	0.611	725.93	1.69
407.22	114620	0.4	764.8	1.63
407.22	114620	0.8992	764.8	1.61
407.22	114770	0.801	750.12	1.65
407.22	114860	0.492	719.55	1.75
407.22	114870	0.611	729.06	1.72
407.22	119590	0.4	768	1.65
407.22	119590	0.8992	768	1.63
407.22	119840	0.492	722.47	1.78
407.22	119840	0.801	753.32	1.68
407.22	119850	0.611	732.05	1.74
407.22	124560	0.4	771.11	1.67
407.22	124560	0.8992	771.11	1.65
407.22	124850	0.492	725.34	1.8
407.22	124850	0.611	735.01	1.77
407.22	124850	0.801	756.37	1.7
407.22	129820	0.4	774.33	1.68
407.22	129820	0.8992	774.33	1.66
407.22	129840	0.611	737.84	1.79
407.22	129840	0.801	759.34	1.72
407.23	4820	0.7024	611.92	1.23
407.23	9850	0.492	610.28	1.24
407.23	14860	0.492	620.71	1.26
407.23	19860	0.492	629.81	1.27
407.23	24820	0.7024	653.51	1.29
407.23	29820	0.7024	661.13	1.31
407.23	34840	0.492	651.87	1.34
407.23	39860	0.492	658.08	1.36
407.23	44850	0.492	663.81	1.38
407.23	49840	0.801	696.75	1.38
407.23	49850	0.492	669.19	1.41
407.23	54850	0.801	702.09	1.4
407.23	54860	0.492	674.25	1.43
407.23	64830	0.492	683.5	1.48
407.23	64830	0.801	711.9	1.44
407.23	69930	0.492	687.88	1.51
407.23	74910	0.492	691.98	1.54
407.23	79890	0.492	695.9	1.56
407.23	84870	0.492	699.66	1.59
407.23	94840	0.492	706.73	1.64
407.23	99820	0.492	710.09	1.67
407.23	104790	0.492	713.3	1.7
407.23	129830	0.492	728.11	1.83
407.24	1620	0.7024	602.1	1.22
407.24	9830	0.7024	624.8	1.24
407.24	14840	0.7024	635.66	1.25
407.24	19810	0.7024	645.07	1.27
407.24	34830	0.7024	668.11	1.33
407.24	39830	0.7024	674.52	1.35
407.24	44820	0.7024	680.48	1.37
407.24	49810	0.7024	686.06	1.39
407.24	54890	0.7024	691.39	1.41
407.24	59890	0.7024	696.35	1.43
407.24	64860	0.7024	701.02	1.46
407.24	69850	0.7024	705.48	1.48
407.24	74830	0.7024	709.73	1.5
407.24	79820	0.7024	713.81	1.53
407.24	84800	0.7024	717.74	1.55
407.24	94760	0.7024	725.11	1.6
407.24	99830	0.7024	728.64	1.62
407.24	119800	0.7024	741.56	1.71
407.25	89790	0.7024	721.47	1.57
407.25	104820	0.7024	732.04	1.64
407.25	109820	0.7024	735.31	1.67
407.25	114820	0.7024	738.47	1.69
407.25	124810	0.7024	744.56	1.73
407.25	129820	0.7024	747.45	1.76
417.16	1870	0.611	581.34	1.22
417.16	4870	0.611	591.69	1.23
417.16	9860	0.611	605.85	1.24
417.16	14870	0.611	617.52	1.26
417.16	19870	0.611	627.57	1.27
417.16	29860	0.611	644.4	1.31
417.16	34860	0.611	651.63	1.34
417.16	44870	0.611	664.46	1.38
417.16	49860	0.611	670.17	1.41
417.16	54850	0.611	675.54	1.43
417.16	59830	0.611	680.59	1.46
417.16	64940	0.611	685.5	1.48
417.16	69910	0.611	690.02	1.51
417.16	74900	0.611	694.35	1.53
417.16	79880	0.611	698.49	1.56
417.16	84870	0.611	702.46	1.58
417.16	89850	0.611	706.26	1.61
417.16	94840	0.611	709.93	1.63
417.16	99820	0.611	713.43	1.66
417.16	119850	0.611	726.48	1.76
417.17	1870	0.492	575.55	1.22
417.17	4860	0.492	585.56	1.23
417.17	9850	0.492	599.32	1.24
417.17	24840	0.611	636.42	1.29
417.17	39880	0.611	658.3	1.36
417.17	44850	0.492	656.44	1.39
417.17	49850	0.492	662.04	1.42
417.17	54840	0.492	667.29	1.44
417.17	59840	0.492	672.26	1.47
417.17	104790	0.611	716.82	1.69
417.17	104800	0.492	707.7	1.71
417.17	109770	0.492	710.89	1.74
417.17	109780	0.611	720.13	1.71
417.17	114870	0.611	723.4	1.74
417.17	124850	0.611	729.46	1.79
417.17	129850	0.611	732.41	1.81
417.18	1840	0.801	597.33	1.22
417.18	4870	0.801	607.96	1.23
417.18	14870	0.492	610.71	1.26
417.18	19870	0.492	620.5	1.28
417.18	24830	0.492	629.07	1.3
417.18	29860	0.492	636.88	1.32
417.18	34860	0.492	643.95	1.34
417.18	39860	0.492	650.43	1.37
417.18	64820	0.492	676.9	1.49
417.18	69910	0.492	681.45	1.52
417.18	74890	0.492	685.69	1.55
417.18	79880	0.492	689.75	1.58
417.18	84870	0.492	693.62	1.6
417.18	89860	0.492	697.34	1.63
417.18	94830	0.492	700.9	1.66
417.18	99820	0.492	704.36	1.69
417.18	114850	0.492	714.07	1.77
417.18	119830	0.492	717.08	1.79
417.18	124850	0.492	720.01	1.82
417.18	129840	0.492	722.86	1.86
417.19	2070	0.4	611.4	1.24
417.19	2070	0.8992	611.4	1.22
417.19	5030	0.4	621.55	1.24
417.19	5030	0.8992	621.55	1.23
417.19	9870	0.801	622.44	1.24
417.19	10010	0.4	635.78	1.25
417.19	10010	0.8992	635.78	1.24
417.19	14860	0.801	634.41	1.25
417.19	15000	0.4	647.66	1.27
417.19	15000	0.8992	647.66	1.25
417.19	19860	0.801	644.76	1.27
417.19	19970	0.4	657.99	1.28
417.19	19970	0.8992	657.99	1.27
417.19	24870	0.801	653.93	1.29
417.19	24970	0.4	667.12	1.3
417.19	24970	0.8992	667.12	1.28
417.19	29860	0.801	662.11	1.31
417.19	29960	0.4	675.37	1.32
417.19	29960	0.8992	675.37	1.3
417.19	34850	0.801	669.57	1.33
417.19	34950	0.4	682.9	1.34
417.19	34950	0.8992	682.9	1.32
417.19	39860	0.801	676.46	1.35
417.19	39930	0.4	689.8	1.35
417.19	39930	0.8992	689.8	1.34
417.19	44860	0.801	682.8	1.37
417.19	44890	0.7024	672.51	1.38
417.19	49870	0.801	688.76	1.39
417.19	49890	0.4	702.22	1.39
417.19	49890	0.7024	678.35	1.4
417.19	49890	0.8992	702.22	1.37
417.19	54860	0.801	694.3	1.41
417.19	54870	0.4	707.85	1.41
417.19	54870	0.8992	707.85	1.39
417.19	54880	0.7024	683.78	1.42
417.19	59860	0.7024	688.95	1.44
417.19	59870	0.801	699.57	1.43
417.19	64830	0.801	704.51	1.45
417.19	69830	0.801	709.22	1.48
417.19	74920	0.801	713.82	1.5
417.19	79790	0.7024	707.06	1.54
417.19	79800	0.4	732.02	1.51
417.19	79800	0.8992	732.02	1.49
417.19	79910	0.801	718.11	1.52
417.19	84890	0.801	722.24	1.54
417.19	89750	0.4	740.27	1.55
417.19	89750	0.8992	740.27	1.53
417.19	94870	0.801	730.03	1.59
417.19	104800	0.801	737.2	1.63
417.19	114770	0.801	743.97	1.67
417.19	119800	0.7024	735.65	1.73
417.19	119830	0.801	747.24	1.7
417.19	124820	0.7024	738.72	1.76
417.19	124830	0.801	750.39	1.72
417.19	129810	0.7024	741.7	1.78
417.19	129840	0.801	753.43	1.74
417.2	1810	0.7024	587.77	1.22
417.2	4810	0.7024	598.33	1.23
417.2	9830	0.7024	612.79	1.24
417.2	14820	0.7024	624.66	1.26
417.2	19830	0.7024	634.93	1.27
417.2	24810	0.7024	643.93	1.29
417.2	29810	0.7024	652.02	1.31
417.2	34810	0.7024	659.38	1.33
417.2	39820	0.7024	666.17	1.35
417.2	44910	0.4	696.21	1.37
417.2	44910	0.8992	696.21	1.36
417.2	59870	0.4	713.19	1.43
417.2	59870	0.8992	713.19	1.41
417.2	64850	0.4	718.24	1.45
417.2	64850	0.7024	693.8	1.47
417.2	64850	0.8992	718.24	1.43
417.2	69820	0.4	723.05	1.47
417.2	69820	0.8992	723.05	1.45
417.2	69830	0.7024	698.42	1.49
417.2	74810	0.4	727.63	1.49
417.2	74810	0.8992	727.63	1.47
417.2	74820	0.7024	702.83	1.52
417.2	84780	0.4	736.22	1.53
417.2	84780	0.7024	711.1	1.56
417.2	84780	0.8992	736.22	1.51
417.2	89760	0.7024	714.98	1.59
417.2	89890	0.801	726.21	1.57
417.2	94720	0.4	744.15	1.57
417.2	94720	0.8992	744.15	1.55
417.2	94740	0.7024	718.71	1.61
417.2	99690	0.4	747.91	1.59
417.2	99690	0.8992	747.91	1.57
417.2	99840	0.7024	722.39	1.64
417.2	99840	0.801	733.67	1.61
417.2	104650	0.4	751.51	1.61
417.2	104650	0.8992	751.51	1.59
417.2	104810	0.7024	725.87	1.66
417.2	109620	0.4	755.03	1.63
417.2	109620	0.8992	755.03	1.61
417.2	109800	0.801	740.64	1.65
417.2	109810	0.7024	729.22	1.69
417.2	114590	0.4	758.45	1.65
417.2	114590	0.8992	758.45	1.63
417.2	114820	0.7024	732.49	1.71
417.2	119550	0.4	761.72	1.67
417.2	119550	0.8992	761.72	1.65
417.2	124810	0.4	765.12	1.69
417.2	124810	0.8992	765.12	1.67
417.2	129820	0.4	768.24	1.71
417.2	129820	0.8992	768.24	1.69

System: acetone + heptane; phases: Liquid
Property: Excess molar volume, m3/mol (Liquid); method: Calculated with densities of this investigation
Temperature, K	Pressure, kPa	Mole fraction of acetone	Excess molar volume, m3/mol	uncertainty
337.7	5000	0.097	6.49e-07	1.1e-08
337.7	5000	0.208	1.081e-06	1.4e-08
337.7	5000	0.296	1.324e-06	1.7e-08
337.7	5000	0.4	1.541e-06	1.9e-08
337.7	5000	0.492	1.439e-06	1.8e-08
337.7	5000	0.611	1.46e-06	1.8e-08
337.7	5000	0.702	1.297e-06	1.6e-08
337.7	5000	0.801	1.014e-06	1.4e-08
337.7	5000	0.899	6.34e-07	1.1e-08
337.7	20000	0.097	5.27e-07	1e-08
337.7	20000	0.208	8.79e-07	1.3e-08
337.7	20000	0.296	1.083e-06	1.4e-08
337.7	20000	0.4	1.271e-06	1.6e-08
337.7	20000	0.492	1.163e-06	1.5e-08
337.7	20000	0.611	1.198e-06	1.5e-08
337.7	20000	0.702	1.069e-06	1.4e-08
337.7	20000	0.801	8.37e-07	1.2e-08
337.7	20000	0.899	5.32e-07	1e-08
337.7	40000	0.097	4.38e-07	9e-09
337.7	40000	0.208	7.33e-07	1.1e-08
337.7	40000	0.296	8.96e-07	1.3e-08
337.7	40000	0.4	1.063e-06	1.4e-08
337.7	40000	0.492	9.51e-07	1.3e-08
337.7	40000	0.611	9.97e-07	1.4e-08
337.7	40000	0.702	8.88e-07	1.3e-08
337.7	40000	0.801	6.96e-07	1.1e-08
337.7	40000	0.899	4.54e-07	9e-09
337.7	60000	0.097	3.92e-07	9e-09
337.7	60000	0.208	6.41e-07	1.1e-08
337.7	60000	0.296	7.85e-07	1.2e-08
337.7	60000	0.4	9.33e-07	1.3e-08
337.7	60000	0.492	8.18e-07	1.2e-08
337.7	60000	0.611	8.58e-07	1.2e-08
337.7	60000	0.702	7.78e-07	1.2e-08
337.7	60000	0.801	6.11e-07	1e-08
337.7	60000	0.899	4.04e-07	9e-09
337.7	80000	0.097	3.61e-07	9e-09
337.7	80000	0.208	5.82e-07	1e-08
337.7	80000	0.296	7.09e-07	1.1e-08
337.7	80000	0.4	8.46e-07	1.2e-08
337.7	80000	0.492	7.27e-07	1.1e-08
337.7	80000	0.611	7.73e-07	1.2e-08
337.7	80000	0.702	6.98e-07	1.1e-08
337.7	80000	0.801	5.47e-07	1e-08
337.7	80000	0.899	3.65e-07	9e-09
337.7	100000	0.097	3.45e-07	9e-09
337.7	100000	0.208	5.46e-07	1e-08
337.7	100000	0.296	6.6e-07	1.1e-08
337.7	100000	0.4	7.85e-07	1.2e-08
337.7	100000	0.492	6.66e-07	1.1e-08
337.7	100000	0.611	7.11e-07	1.1e-08
337.7	100000	0.702	6.4e-07	1.1e-08
337.7	100000	0.801	4.96e-07	1e-08
337.7	100000	0.899	3.35e-07	9e-09
337.7	120000	0.097	3.47e-07	9e-09
337.7	120000	0.208	5.26e-07	1e-08
337.7	120000	0.296	6.24e-07	1e-08
337.7	120000	0.4	7.44e-07	1.1e-08
337.7	120000	0.492	6.2e-07	1e-08
337.7	120000	0.611	6.63e-07	1.1e-08
337.7	120000	0.702	5.97e-07	1e-08
337.7	120000	0.801	4.6e-07	9e-09
337.7	120000	0.899	3.1e-07	9e-09
337.7	130000	0.097	3.47e-07	9e-09
337.7	130000	0.208	5.21e-07	1e-08
337.7	130000	0.296	6.17e-07	1e-08
337.7	130000	0.4	7.28e-07	1.1e-08
337.7	130000	0.492	6.02e-07	1e-08
337.7	130000	0.611	6.44e-07	1.1e-08
337.7	130000	0.702	5.78e-07	1e-08
337.7	130000	0.801	4.45e-07	9e-09
337.7	130000	0.899	2.99e-07	9e-09
367.5	5000	0.097	7.48e-07	1.2e-08
367.5	5000	0.208	1.273e-06	1.6e-08
367.5	5000	0.296	1.662e-06	2e-08
367.5	5000	0.4	1.944e-06	2.2e-08
367.5	5000	0.492	1.786e-06	2.1e-08
367.5	5000	0.611	1.776e-06	2.1e-08
367.5	5000	0.702	1.595e-06	1.9e-08
367.5	5000	0.801	1.213e-06	1.6e-08
367.5	5000	0.899	7.05e-07	1.1e-08
367.5	20000	0.097	5.71e-07	1e-08
367.5	20000	0.208	9.6e-07	1.3e-08
367.5	20000	0.296	1.281e-06	1.6e-08
367.5	20000	0.4	1.502e-06	1.8e-08
367.5	20000	0.492	1.341e-06	1.7e-08
367.5	20000	0.611	1.356e-06	1.7e-08
367.5	20000	0.702	1.232e-06	1.6e-08
367.5	20000	0.801	9.37e-07	1.3e-08
367.5	20000	0.899	5.53e-07	1e-08
367.5	40000	0.097	4.55e-07	9e-09
367.5	40000	0.208	7.61e-07	1.2e-08
367.5	40000	0.296	1.02e-06	1.4e-08
367.5	40000	0.4	1.189e-06	1.5e-08
367.5	40000	0.492	1.04e-06	1.4e-08
367.5	40000	0.611	1.066e-06	1.4e-08
367.5	40000	0.702	9.74e-07	1.3e-08
367.5	40000	0.801	7.44e-07	1.2e-08
367.5	40000	0.899	4.46e-07	9e-09
367.5	60000	0.097	3.81e-07	9e-09
367.5	60000	0.208	6.35e-07	1.1e-08
367.5	60000	0.296	8.61e-07	1.2e-08
367.5	60000	0.4	9.94e-07	1.4e-08
367.5	60000	0.492	8.63e-07	1.2e-08
367.5	60000	0.611	8.92e-07	1.3e-08
367.5	60000	0.702	8.24e-07	1.2e-08
367.5	60000	0.801	6.29e-07	1.1e-08
367.5	60000	0.899	3.81e-07	9e-09
367.5	80000	0.097	3.28e-07	9e-09
367.5	80000	0.208	5.55e-07	1e-08
367.5	80000	0.296	7.52e-07	1.2e-08
367.5	80000	0.4	8.64e-07	1.2e-08
367.5	80000	0.492	7.51e-07	1.1e-08
367.5	80000	0.611	7.82e-07	1.2e-08
367.5	80000	0.702	7.21e-07	1.1e-08
367.5	80000	0.801	5.5e-07	1e-08
367.5	80000	0.899	3.37e-07	9e-09
367.5	100000	0.097	2.92e-07	8e-09
367.5	100000	0.208	4.99e-07	1e-08
367.5	100000	0.296	6.74e-07	1.1e-08
367.5	100000	0.4	7.71e-07	1.2e-08
367.5	100000	0.492	6.72e-07	1.1e-08
367.5	100000	0.611	7.02e-07	1.1e-08
367.5	100000	0.702	6.47e-07	1.1e-08
367.5	100000	0.801	4.91e-07	1e-08
367.5	100000	0.899	2.99e-07	9e-09
367.5	120000	0.097	2.74e-07	8e-09
367.5	120000	0.208	4.64e-07	9e-09
367.5	120000	0.296	6.19e-07	1e-08
367.5	120000	0.4	7.04e-07	1.1e-08
367.5	120000	0.492	6.11e-07	1e-08
367.5	120000	0.611	6.39e-07	1.1e-08
367.5	120000	0.702	5.88e-07	1e-08
367.5	120000	0.801	4.44e-07	9e-09
367.5	120000	0.899	2.67e-07	8e-09
367.5	130000	0.097	2.72e-07	8e-09
367.5	130000	0.208	4.52e-07	9e-09
367.5	130000	0.296	5.99e-07	1e-08
367.5	130000	0.4	6.76e-07	1.1e-08
367.5	130000	0.492	5.86e-07	1e-08
367.5	130000	0.611	6.13e-07	1e-08
367.5	130000	0.702	5.63e-07	1e-08
367.5	130000	0.801	4.25e-07	9e-09
367.5	130000	0.899	2.53e-07	8e-09
397.3	5000	0.097	9.19e-07	1.3e-08
397.3	5000	0.208	1.704e-06	2e-08
397.3	5000	0.296	2.097e-06	2.4e-08
397.3	5000	0.4	2.463e-06	2.8e-08
397.3	5000	0.492	2.442e-06	2.7e-08
397.3	5000	0.611	2.398e-06	2.7e-08
397.3	5000	0.702	2.072e-06	2.4e-08
397.3	5000	0.801	1.662e-06	2e-08
397.3	5000	0.899	9.71e-07	1.4e-08
397.3	20000	0.097	6.72e-07	1.1e-08
397.3	20000	0.208	1.237e-06	1.6e-08
397.3	20000	0.296	1.512e-06	1.8e-08
397.3	20000	0.4	1.78e-06	2.1e-08
397.3	20000	0.492	1.72e-06	2e-08
397.3	20000	0.611	1.705e-06	2e-08
397.3	20000	0.702	1.457e-06	1.8e-08
397.3	20000	0.801	1.187e-06	1.5e-08
397.3	20000	0.899	7.05e-07	1.1e-08
397.3	40000	0.097	5.35e-07	1e-08
397.3	40000	0.208	9.58e-07	1.3e-08
397.3	40000	0.296	1.156e-06	1.5e-08
397.3	40000	0.4	1.369e-06	1.7e-08
397.3	40000	0.492	1.285e-06	1.6e-08
397.3	40000	0.611	1.288e-06	1.6e-08
397.3	40000	0.702	1.095e-06	1.4e-08
397.3	40000	0.801	9.03e-07	1.3e-08
397.3	40000	0.899	5.42e-07	1e-08
397.3	60000	0.097	4.34e-07	9e-09
397.3	60000	0.208	7.97e-07	1.2e-08
397.3	60000	0.296	9.57e-07	1.3e-08
397.3	60000	0.4	1.133e-06	1.5e-08
397.3	60000	0.492	1.047e-06	1.4e-08
397.3	60000	0.611	1.061e-06	1.4e-08
397.3	60000	0.702	8.97e-07	1.3e-08
397.3	60000	0.801	7.47e-07	1.2e-08
397.3	60000	0.899	4.49e-07	9e-09
397.3	80000	0.097	3.65e-07	9e-09
397.3	80000	0.208	6.82e-07	1.1e-08
397.3	80000	0.296	8.22e-07	1.2e-08
397.3	80000	0.4	9.8e-07	1.3e-08
397.3	80000	0.492	8.91e-07	1.3e-08
397.3	80000	0.611	9.13e-07	1.3e-08
397.3	80000	0.702	7.7e-07	1.2e-08
397.3	80000	0.801	6.4e-07	1.1e-08
397.3	80000	0.899	3.84e-07	9e-09
397.3	100000	0.097	3.12e-07	9e-09
397.3	100000	0.208	6.02e-07	1e-08
397.3	100000	0.296	7.25e-07	1.1e-08
397.3	100000	0.4	8.73e-07	1.2e-08
397.3	100000	0.492	7.83e-07	1.2e-08
397.3	100000	0.611	8.08e-07	1.2e-08
397.3	100000	0.702	6.75e-07	1.1e-08
397.3	100000	0.801	5.64e-07	1e-08
397.3	100000	0.899	3.32e-07	9e-09
397.3	120000	0.097	2.78e-07	9e-09
397.3	120000	0.208	5.44e-07	1e-08
397.3	120000	0.296	6.59e-07	1.1e-08
397.3	120000	0.4	7.94e-07	1.2e-08
397.3	120000	0.492	7.03e-07	1.1e-08
397.3	120000	0.611	7.28e-07	1.1e-08
397.3	120000	0.702	6.06e-07	1e-08
397.3	120000	0.801	5.05e-07	1e-08
397.3	120000	0.899	2.93e-07	9e-09
397.3	130000	0.097	2.73e-07	8e-09
397.3	130000	0.208	5.23e-07	1e-08
397.3	130000	0.296	6.26e-07	1.1e-08
397.3	130000	0.4	7.65e-07	1.2e-08
397.3	130000	0.492	6.69e-07	1.1e-08
397.3	130000	0.611	6.96e-07	1.1e-08
397.3	130000	0.702	5.77e-07	1e-08
397.3	130000	0.801	4.79e-07	9e-09
397.3	130000	0.899	2.71e-07	8e-09
417.2	5000	0.097	1.064e-06	1.5e-08
417.2	5000	0.208	2.048e-06	2.4e-08
417.2	5000	0.296	2.541e-06	2.8e-08
417.2	5000	0.4	2.962e-06	3.3e-08
417.2	5000	0.492	3.021e-06	3.3e-08
417.2	5000	0.611	2.951e-06	3.2e-08
417.2	5000	0.702	2.61e-06	2.9e-08
417.2	5000	0.801	2.063e-06	2.4e-08
417.2	5000	0.899	1.179e-06	1.6e-08
417.2	20000	0.097	7.44e-07	1.2e-08
417.2	20000	0.208	1.4e-06	1.7e-08
417.2	20000	0.296	1.702e-06	2e-08
417.2	20000	0.4	1.986e-06	2.3e-08
417.2	20000	0.492	1.969e-06	2.3e-08
417.2	20000	0.611	1.936e-06	2.2e-08
417.2	20000	0.702	1.698e-06	2e-08
417.2	20000	0.801	1.356e-06	1.7e-08
417.2	20000	0.899	7.81e-07	1.2e-08
417.2	40000	0.097	5.59e-07	1e-08
417.2	40000	0.208	1.054e-06	1.4e-08
417.2	40000	0.296	1.254e-06	1.6e-08
417.2	40000	0.4	1.475e-06	1.8e-08
417.2	40000	0.492	1.426e-06	1.7e-08
417.2	40000	0.611	1.41e-06	1.7e-08
417.2	40000	0.702	1.235e-06	1.6e-08
417.2	40000	0.801	9.93e-07	1.4e-08
417.2	40000	0.899	5.79e-07	1e-08
417.2	60000	0.097	4.4e-07	9e-09
417.2	60000	0.208	8.55e-07	1.2e-08
417.2	60000	0.296	1.012e-06	1.4e-08
417.2	60000	0.4	1.204e-06	1.5e-08
417.2	60000	0.492	1.143e-06	1.5e-08
417.2	60000	0.611	1.145e-06	1.5e-08
417.2	60000	0.702	1e-06	1.4e-08
417.2	60000	0.801	8.13e-07	1.2e-08
417.2	60000	0.899	4.73e-07	1e-08
417.2	80000	0.097	3.55e-07	9e-09
417.2	80000	0.208	7.25e-07	1.1e-08
417.2	80000	0.296	8.54e-07	1.2e-08
417.2	80000	0.4	1.028e-06	1.4e-08
417.2	80000	0.492	9.65e-07	1.3e-08
417.2	80000	0.611	9.78e-07	1.3e-08
417.2	80000	0.702	8.55e-07	1.2e-08
417.2	80000	0.801	6.98e-07	1.1e-08
417.2	80000	0.899	4e-07	9e-09
417.2	100000	0.097	2.99e-07	9e-09
417.2	100000	0.208	6.33e-07	1.1e-08
417.2	100000	0.296	7.45e-07	1.1e-08
417.2	100000	0.4	9.03e-07	1.3e-08
417.2	100000	0.492	8.44e-07	1.2e-08
417.2	100000	0.611	8.64e-07	1.2e-08
417.2	100000	0.702	7.52e-07	1.2e-08
417.2	100000	0.801	6.15e-07	1e-08
417.2	100000	0.899	3.45e-07	9e-09
417.2	120000	0.097	2.66e-07	9e-09
417.2	120000	0.208	5.73e-07	1e-08
417.2	120000	0.296	6.67e-07	1.1e-08
417.2	120000	0.4	8.22e-07	1.2e-08
417.2	120000	0.492	7.55e-07	1.2e-08
417.2	120000	0.611	7.78e-07	1.2e-08
417.2	120000	0.702	6.75e-07	1.1e-08
417.2	120000	0.801	5.53e-07	1e-08
417.2	120000	0.899	3.06e-07	9e-09
417.2	130000	0.097	2.56e-07	8e-09
417.2	130000	0.208	5.5e-07	1e-08
417.2	130000	0.296	6.43e-07	1.1e-08
417.2	130000	0.4	7.89e-07	1.2e-08
417.2	130000	0.492	7.23e-07	1.1e-08
417.2	130000	0.611	7.45e-07	1.1e-08
417.2	130000	0.702	6.47e-07	1.1e-08
417.2	130000	0.801	5.29e-07	1e-08
417.2	130000	0.899	2.88e-07	9e-09
