Measured thermophysical data. Liquid phase equilibria for mixtures of (an aliphatic hydrocarbon + toluene + gamma-butyrolactone)
Source: Fluid Phase Equilib., 2010, 10.1016/j.fluid.2009.09.019
Compound 1: toluene, C7H8, InChI=1S/C7H8/c1-7-5-3-2-4-6-7/h2-6H,1H3, purity 99%
Compound 2: heptane, C7H16, InChI=1S/C7H16/c1-3-5-7-6-4-2/h3-7H2,1-2H3, purity 99%
Compound 3: hexane, C6H14, InChI=1S/C6H14/c1-3-5-6-4-2/h3-6H2,1-2H3, purity 99%
Compound 4: cyclohexane, C6H12, InChI=1S/C6H12/c1-2-4-6-5-3-1/h1-6H2, purity 98%
Compound 5: .gamma.-butyrolactone, C4H6O2, InChI=1S/C4H6O2/c5-4-2-1-3-6-4/h1-3H2, purity 98%

System: toluene; phases: Liquid
Property: Refractive index (Na D-line) (Liquid); method: Standard Abbe refractometry
Temperature, K	Pressure, kPa	Refractive index (Na D-line)	uncertainty
293.2	101.325	1.4967	0.0004

System: toluene; phases: Liquid
Property: Mass density, kg/m3 (Liquid); method: Vibrating tube method
Temperature, K	Pressure, kPa	Mass density, kg/m3	uncertainty
293.2	101.325	778.12	0.24

System: heptane; phases: Liquid
Property: Refractive index (Na D-line) (Liquid); method: Standard Abbe refractometry
Temperature, K	Pressure, kPa	Refractive index (Na D-line)	uncertainty
293.2	101.325	1.3873	0.0004

System: heptane; phases: Liquid
Property: Mass density, kg/m3 (Liquid); method: Vibrating tube method
Temperature, K	Pressure, kPa	Mass density, kg/m3	uncertainty
293.2	101.325	684.1	0.25

System: hexane; phases: Liquid
Property: Refractive index (Na D-line) (Liquid); method: Standard Abbe refractometry
Temperature, K	Pressure, kPa	Refractive index (Na D-line)	uncertainty
293.2	101.325	1.375	0.0004

System: hexane; phases: Liquid
Property: Mass density, kg/m3 (Liquid); method: Vibrating tube method
Temperature, K	Pressure, kPa	Mass density, kg/m3	uncertainty
293.2	101.325	660.1	0.25

System: cyclohexane; phases: Liquid
Property: Refractive index (Na D-line) (Liquid); method: Standard Abbe refractometry
Temperature, K	Pressure, kPa	Refractive index (Na D-line)	uncertainty
293.2	101.325	1.4263	0.0005

System: cyclohexane; phases: Liquid
Property: Mass density, kg/m3 (Liquid); method: Vibrating tube method
Temperature, K	Pressure, kPa	Mass density, kg/m3	uncertainty
293.2	101.325	778.12	0.61

System: .gamma.-butyrolactone; phases: Liquid
Property: Refractive index (Na D-line) (Liquid); method: Standard Abbe refractometry
Temperature, K	Pressure, kPa	Refractive index (Na D-line)	uncertainty
293.2	101.325	1.4344	0.0005

System: .gamma.-butyrolactone; phases: Liquid
Property: Mass density, kg/m3 (Liquid); method: Vibrating tube method
Temperature, K	Pressure, kPa	Mass density, kg/m3	uncertainty
293.2	101.325	1128.7	1.11

System: .gamma.-butyrolactone + heptane; phases: Liquid mixture 1, Liquid mixture 2
Fixed: Temperature, K = 298.15
Fixed: Pressure, kPa = 101
Property: Mass fraction of heptane (Liquid mixture 1); method: Chromatography
Mass fraction of heptane	uncertainty
0.9909	0.004
0.0344	0.004

System: .gamma.-butyrolactone + hexane; phases: Liquid mixture 1, Liquid mixture 2
Fixed: Temperature, K = 298.15
Fixed: Pressure, kPa = 101
Property: Mass fraction of hexane (Liquid mixture 1); method: Chromatography
Mass fraction of hexane	uncertainty
0.9883	0.004
0.0585	0.004

System: .gamma.-butyrolactone + cyclohexane; phases: Liquid mixture 1, Liquid mixture 2
Fixed: Temperature, K = 298.15
Fixed: Pressure, kPa = 101
Property: Mass fraction of cyclohexane (Liquid mixture 1); method: Chromatography
Mass fraction of cyclohexane	uncertainty
0.9894	0.004
0.0654	0.004

System: .gamma.-butyrolactone + toluene + hexane; phases: Liquid mixture 1, Liquid mixture 2
Fixed: Pressure, kPa = 101
Fixed: Temperature, K = 298.15
Property: Mass fraction of toluene (Liquid mixture 1); method: Chromatography
Mass fraction of hexane	Mass fraction of toluene	uncertainty
0.0585	0	
0.0833	0.1836	0.0174
0.1193	0.2651	0.0097
0.1547	0.3385	0.0061
0.2312	0.3846	0.0049
0.4074	0.4107	0.0049
0.5446	0.365	0.0052
0.6626	0.2821	0.0054
0.7686	0.1943	0.0055
0.9883	0	

System: .gamma.-butyrolactone + toluene + hexane; phases: Liquid mixture 1, Liquid mixture 2
Fixed: Temperature, K = 298.15
Fixed: Pressure, kPa = 101.3
Property: Mass fraction of .gamma.-butyrolactone (Liquid mixture 1); method: Chromatography
Property: Mass fraction of toluene (Liquid mixture 2); method: Chromatography
Property: Mass fraction of .gamma.-butyrolactone (Liquid mixture 2); method: Chromatography
Property: Mass fraction of toluene (Liquid mixture 1); method: Chromatography
Property: Mass fraction of hexane (Liquid mixture 2); method: Chromatography
Mass fraction of hexane	Mass fraction of .gamma.-butyrolactone	uncertainty	Mass fraction of toluene	uncertainty	Mass fraction of .gamma.-butyrolactone	uncertainty	Mass fraction of toluene	uncertainty	Mass fraction of hexane	uncertainty
0.9169	0.0289	0.004	0.0233	0.0053	0.9176		0.0542	0.0054	0.0591	0.0041
0.8534	0.035	0.004	0.0505	0.0054	0.8856		0.1116	0.0055	0.0639	0.004
0.8124	0.0388	0.004	0.0745	0.0053	0.8604		0.1488	0.0056	0.0651	0.0041
0.7536	0.0391	0.004	0.1085	0.0053	0.8183		0.2073	0.0056	0.0732	0.0041
0.7005	0.0478	0.0041	0.147	0.0052	0.7759		0.2517	0.0054	0.0771	0.0041
0.5881	0.0729	0.0041	0.2088	0.0052	0.6931		0.339	0.0056	0.0981	0.0042

System: .gamma.-butyrolactone + toluene + heptane; phases: Liquid mixture 1, Liquid mixture 2
Fixed: Pressure, kPa = 101
Fixed: Temperature, K = 298.15
Property: Mass fraction of toluene (Liquid mixture 1); method: Chromatography
Mass fraction of heptane	Mass fraction of toluene	uncertainty
0.0344	0	
0.0526	0.102	0.0211
0.0708	0.1881	0.018
0.0915	0.2729	0.019
0.1072	0.3573	0.022
0.1702	0.4145	0.0055
0.2522	0.4477	0.0053
0.304	0.4554	0.0051
0.4367	0.4368	0.0052
0.5576	0.3742	0.0055
0.6643	0.2862	0.0056
0.767	0.2012	0.0056
0.8755	0.0971	0.0054
0.9909	0	

System: .gamma.-butyrolactone + toluene + heptane; phases: Liquid mixture 1, Liquid mixture 2
Fixed: Temperature, K = 298.15
Fixed: Pressure, kPa = 101.3
Property: Mass fraction of .gamma.-butyrolactone (Liquid mixture 1); method: Chromatography
Property: Mass fraction of toluene (Liquid mixture 2); method: Chromatography
Property: Mass fraction of .gamma.-butyrolactone (Liquid mixture 2); method: Chromatography
Property: Mass fraction of toluene (Liquid mixture 1); method: Chromatography
Property: Mass fraction of heptane (Liquid mixture 2); method: Chromatography
Mass fraction of heptane	Mass fraction of .gamma.-butyrolactone	uncertainty	Mass fraction of toluene	uncertainty	Mass fraction of .gamma.-butyrolactone	uncertainty	Mass fraction of toluene	uncertainty	Mass fraction of heptane	uncertainty
0.915	0.0221	0.004	0.0302	0.0051	0.9295		0.0629	0.0056	0.0403	0.0041
0.8401	0.0246	0.004	0.0754	0.0053	0.8721		0.1353	0.0055	0.0525	0.0041
0.7576	0.0373	0.004	0.1285	0.0054	0.8161		0.2051	0.0055	0.0554	0.004
0.6966	0.0406	0.004	0.1688	0.0052	0.7672		0.2628	0.0058	0.064	0.0041
0.6331	0.0467	0.0041	0.2247	0.0054	0.6905		0.3202	0.0055	0.0848	0.0041
0.5431	0.0767	0.0043	0.2747	0.006	0.6405		0.3802	0.0055	0.0848	0.004

System: .gamma.-butyrolactone + toluene + cyclohexane; phases: Liquid mixture 1, Liquid mixture 2
Fixed: Pressure, kPa = 101
Fixed: Temperature, K = 298.15
Property: Mass fraction of toluene (Liquid mixture 1); method: Chromatography
Mass fraction of cyclohexane	Mass fraction of toluene	uncertainty
0.0654	0	
0.1313	0.1733	0.0108
0.167	0.2493	0.0062
0.2411	0.3029	0.0049
0.336	0.3319	0.0046
0.5128	0.3219	0.0047
0.6383	0.2709	0.0048
0.7124	0.2308	0.0053
0.9894	0	

System: .gamma.-butyrolactone + toluene + cyclohexane; phases: Liquid mixture 1, Liquid mixture 2
Fixed: Temperature, K = 298.15
Fixed: Pressure, kPa = 101.3
Property: Mass fraction of .gamma.-butyrolactone (Liquid mixture 1); method: Chromatography
Property: Mass fraction of toluene (Liquid mixture 2); method: Chromatography
Property: Mass fraction of .gamma.-butyrolactone (Liquid mixture 2); method: Chromatography
Property: Mass fraction of toluene (Liquid mixture 1); method: Chromatography
Property: Mass fraction of cyclohexane (Liquid mixture 2); method: Chromatography
Mass fraction of cyclohexane	Mass fraction of .gamma.-butyrolactone	uncertainty	Mass fraction of toluene	uncertainty	Mass fraction of .gamma.-butyrolactone	uncertainty	Mass fraction of toluene	uncertainty	Mass fraction of cyclohexane	uncertainty
0.9107	0.0264	0.004	0.0291	0.0051	0.883		0.0629	0.0053	0.0879	0.0041
0.879	0.0309	0.004	0.0628	0.0052	0.8409		0.0901	0.0055	0.0963	0.0041
0.8362	0.0319	0.004	0.0924	0.0052	0.8053		0.1319	0.0055	0.1023	0.0041
0.7805	0.0396	0.004	0.1305	0.0051	0.7568		0.1799	0.0057	0.1127	0.0042
0.7375	0.0365	0.0043	0.1728	0.0051	0.7001		0.226	0.0049	0.1271	0.0043
0.625	0.0959	0.0046	0.2286	0.0051	0.6207		0.2791	0.0048	0.1507	0.0043
