Measured thermophysical data. Volumetric, isentropic compressibility and electrical conductivity of solutions of tri-sodium phosphate in 1-propanol +water mixed-solvent media over the temperature range of 283.15 303.15K
Source: Fluid Phase Equilib., 2008, 10.1016/j.fluid.2008.01.004
Compound 1: propan-1-ol, C3H8O, InChI=1S/C3H8O/c1-2-3-4/h4H,2-3H2,1H3
Compound 2: water, H2O, InChI=1S/H2O/h1H2
Compound 3: trisodium phosphate, Na3O4P, InChI=1S/3Na.H3O4P/c;;;1-5(2,3)4/h;;;(H3,1,2,3,4)/q3*+1;/p-3

System: trisodium phosphate + water; phases: Liquid
Fixed: Pressure, kPa = 101
Property: Molar conductivity, S*m2/mol (Liquid); method: digital conductivity meter
Temperature, K	Molality, mol/kg of trisodium phosphate	Molar conductivity, S*m2/mol	uncertainty
283.15	0.0026	0.038177	0.001527
283.15	0.0039	0.036139	0.001446
283.15	0.0053	0.034761	0.00139
283.15	0.0105	0.030594	0.001224
283.15	0.0132	0.029312	0.001172
283.15	0.0183	0.027537	0.001101
283.15	0.0234	0.025916	0.001037
283.15	0.0342	0.023375	0.000935
283.15	0.045	0.021804	0.000872
283.15	0.0563	0.021115	0.000845
283.15	0.0662	0.01973	0.00079
283.15	0.0767	0.019175	0.000767
283.15	0.088	0.018602	0.000744
283.15	0.0968	0.017942	0.000718
283.15	0.1086	0.017816	0.000713
283.15	0.1133	0.017296	0.000692
283.15	0.1296	0.016593	0.000664
283.15	0.141	0.016099	0.000644
283.15	0.1515	0.015836	0.000633
283.15	0.1638	0.015914	0.000637
283.15	0.1755	0.015527	0.000621
283.15	0.1868	0.01533	0.00061
283.15	0.1954	0.015417	0.000617
283.15	0.2224	0.014518	0.000581
283.15	0.2333	0.014349	0.000574
283.15	0.2509	0.014208	0.000568
288.15	0.0026	0.039494	0.00158
288.15	0.0039	0.036896	0.001476
288.15	0.0053	0.036311	0.001452
288.15	0.0105	0.032519	0.001301
288.15	0.0132	0.031838	0.001274
288.15	0.0183	0.029191	0.001168
288.15	0.0234	0.028069	0.001123
288.15	0.0342	0.02529	0.00101
288.15	0.045	0.023596	0.000944
288.15	0.0563	0.022284	0.000891
288.15	0.0662	0.021571	0.000863
288.15	0.0767	0.021013	0.000841
288.15	0.088	0.019911	0.000796
288.15	0.0968	0.019586	0.000783
288.15	0.1086	0.01911	0.00076
288.15	0.1133	0.018844	0.000754
288.15	0.1296	0.01807	0.00072
288.15	0.141	0.017528	0.000701
288.15	0.1515	0.017365	0.000695
288.15	0.1638	0.017389	0.000696
288.15	0.1755	0.016847	0.000674
288.15	0.1868	0.016466	0.000659
288.15	0.1954	0.016248	0.00065
288.15	0.2224	0.015338	0.000614
288.15	0.2333	0.015217	0.000609
288.15	0.2509	0.014976	0.000599
293.15	0.0026	0.040637	0.001625
293.15	0.0039	0.037922	0.001517
293.15	0.0053	0.037989	0.00152
293.15	0.0105	0.034172	0.001367
293.15	0.0132	0.033313	0.001333
293.15	0.0183	0.030912	0.001236
293.15	0.0234	0.029721	0.001189
293.15	0.0342	0.026426	0.001057
293.15	0.045	0.024886	0.000995
293.15	0.0563	0.023621	0.000945
293.15	0.0662	0.022726	0.000909
293.15	0.0767	0.021843	0.000874
293.15	0.088	0.020909	0.000836
293.15	0.0968	0.020619	0.000825
293.15	0.1086	0.020143	0.000806
293.15	0.1133	0.019836	0.000793
293.15	0.1296	0.018938	0.000758
293.15	0.141	0.018469	0.000739
293.15	0.1515	0.018242	0.00073
293.15	0.1638	0.018141	0.000726
293.15	0.1755	0.017607	0.000704
293.15	0.1868	0.017233	0.000689
293.15	0.1954	0.017135	0.000685
293.15	0.2224	0.016164	0.000647
293.15	0.2333	0.016006	0.00064
293.15	0.2509	0.01571	0.000628
298.15	0.0026	0.041487	0.001659
298.15	0.0039	0.040131	0.001605
298.15	0.0053	0.039169	0.001567
298.15	0.0105	0.035933	0.001437
298.15	0.0132	0.034723	0.001389
298.15	0.0183	0.032754	0.00131
298.15	0.0234	0.031041	0.001242
298.15	0.0342	0.02798	0.00112
298.15	0.045	0.026297	0.001052
298.15	0.0563	0.025021	0.001001
298.15	0.0662	0.02392	0.00096
298.15	0.0767	0.023084	0.000923
298.15	0.088	0.02213	0.00089
298.15	0.0968	0.021689	0.000868
298.15	0.1086	0.021091	0.000844
298.15	0.1133	0.020745	0.00083
298.15	0.1296	0.01989	0.0008
298.15	0.141	0.019487	0.000779
298.15	0.1515	0.019257	0.00077
298.15	0.1638	0.019143	0.000766
298.15	0.1755	0.018599	0.000744
298.15	0.1868	0.018007	0.00072
298.15	0.1954	0.017774	0.000711
298.15	0.2224	0.016861	0.000674
298.15	0.2333	0.016799	0.000672
298.15	0.2509	0.01633	0.000653
303.15	0.0026	0.040933	0.001637
303.15	0.0039	0.040392	0.001616
303.15	0.0053	0.039793	0.001592
303.15	0.0105	0.03675	0.00147
303.15	0.0132	0.035535	0.001421
303.15	0.0183	0.033348	0.001334
303.15	0.0234	0.031815	0.001273
303.15	0.0342	0.028988	0.00116
303.15	0.045	0.02736	0.00109
303.15	0.0563	0.025859	0.001034
303.15	0.0662	0.024834	0.000993
303.15	0.0767	0.023838	0.000954
303.15	0.088	0.022995	0.00092
303.15	0.0968	0.02255	0.0009
303.15	0.1086	0.021585	0.000863
303.15	0.1133	0.021485	0.000859
303.15	0.1296	0.020771	0.000831
303.15	0.141	0.020086	0.000803
303.15	0.1515	0.019751	0.00079
303.15	0.1638	0.019785	0.000791
303.15	0.1755	0.019256	0.00077
303.15	0.1868	0.018571	0.000743
303.15	0.1954	0.018212	0.000728
303.15	0.2224	0.017294	0.000692
303.15	0.2333	0.017085	0.000683
303.15	0.2509	0.016716	0.000669

System: trisodium phosphate + water; phases: Liquid
Fixed: Pressure, kPa = 101
Property: Speed of sound, m/s (Liquid); method: Sing-around technique in a fixed-path interferometer
Temperature, K	Molality, mol/kg of trisodium phosphate	Speed of sound, m/s	uncertainty
283.15	0	1447.59	1
283.15	0.0089	1450.71	1
283.15	0.0105	1451.22	1
283.15	0.0116	1451.55	1
283.15	0.0132	1451.97	1
283.15	0.0183	1453.44	1
283.15	0.0234	1455.01	1
283.15	0.0342	1457.75	1
283.15	0.045	1460.67	1
283.15	0.0563	1463.61	1
283.15	0.0662	1466.09	1
283.15	0.088	1471.66	1.01
283.15	0.0968	1473.87	1.01
283.15	0.1086	1476.76	1.01
283.15	0.1133	1477.93	1.01
283.15	0.1296	1481.99	1.01
283.15	0.141	1484.82	1.01
283.15	0.1515	1487.29	1.01
283.15	0.1638	1490.31	1.01
283.15	0.1755	1493.12	1.01
283.15	0.1868	1495.96	1.01
283.15	0.1954	1497.96	1.01
283.15	0.2224	1504.59	1.02
283.15	0.2333	1507.25	1.02
283.15	0.2509	1511.41	1.02
288.15	0	1466.25	1
288.15	0.0089	1468.96	1
288.15	0.0105	1469.46	1
288.15	0.0116	1469.82	1
288.15	0.0132	1470.19	1
288.15	0.0183	1471.59	1
288.15	0.0234	1473.13	1
288.15	0.0342	1475.8	1
288.15	0.045	1478.59	1
288.15	0.0563	1481.45	1
288.15	0.0662	1483.87	1.01
288.15	0.088	1489.3	1.01
288.15	0.0968	1491.47	1.01
288.15	0.1086	1494.26	1.01
288.15	0.1133	1495.4	1.01
288.15	0.1296	1499.33	1.01
288.15	0.141	1502.09	1.01
288.15	0.1515	1504.49	1.01
288.15	0.1638	1507.39	1.01
288.15	0.1755	1510.13	1.01
288.15	0.1868	1512.89	1.02
288.15	0.1954	1514.83	1.02
288.15	0.2224	1521.31	1.02
288.15	0.2333	1523.88	1.02
288.15	0.2509	1527.93	1.02
293.15	0	1482.66	1
293.15	0.0089	1485.13	1
293.15	0.0105	1485.57	1
293.15	0.0116	1485.96	1
293.15	0.0132	1486.32	1
293.15	0.0183	1487.68	1
293.15	0.0234	1489.21	1
293.15	0.0342	1491.77	1
293.15	0.045	1494.51	1
293.15	0.0563	1497.28	1
293.15	0.0662	1499.65	1
293.15	0.088	1504.9	1
293.15	0.0968	1507	1
293.15	0.1086	1509.69	1
293.15	0.1133	1510.79	1
293.15	0.1296	1514.63	1.01
293.15	0.141	1517.33	1.01
293.15	0.1515	1519.66	1.01
293.15	0.1638	1522.49	1.01
293.15	0.1755	1525.16	1.01
293.15	0.1868	1527.85	1.01
293.15	0.1954	1529.72	1.01
293.15	0.2224	1536	1.01
293.15	0.2333	1538.51	1.01
293.15	0.2509	1542.4	1.02
298.15	0	1497	0.99
298.15	0.0089	1499.33	0.99
298.15	0.0105	1499.79	0.99
298.15	0.0116	1500.23	0.99
298.15	0.0132	1500.48	0.99
298.15	0.0183	1501.82	0.99
298.15	0.0234	1503.32	0.99
298.15	0.0342	1505.8	0.99
298.15	0.045	1508.46	0.99
298.15	0.0563	1511.14	1
298.15	0.0662	1513.44	1
298.15	0.088	1518.55	1
298.15	0.0968	1520.61	1
298.15	0.1086	1523.27	1
298.15	0.1133	1524.33	1
298.15	0.1296	1528.04	1
298.15	0.141	1530.65	1
298.15	0.1515	1532.92	1
298.15	0.1638	1535.68	1.01
298.15	0.1755	1538.26	1.01
298.15	0.1868	1540.83	1.01
298.15	0.1954	1542.66	1.01
298.15	0.2224	1548.78	1.01
298.15	0.2333	1551.19	1.01
298.15	0.2509	1555.01	1.01
303.15	0	1509.44	0.99
303.15	0.0089	1511.66	0.99
303.15	0.0105	1512.11	0.99
303.15	0.0116	1512.53	0.99
303.15	0.0132	1512.79	0.99
303.15	0.0183	1514.11	0.99
303.15	0.0234	1515.62	0.99
303.15	0.0342	1518.02	1
303.15	0.045	1520.62	1
303.15	0.0563	1523.22	1
303.15	0.0662	1525.47	1
303.15	0.088	1530.46	1
303.15	0.0968	1532.43	1
303.15	0.1086	1535.02	1
303.15	0.1133	1536.06	1
303.15	0.1296	1539.64	1
303.15	0.141	1542.19	1
303.15	0.1515	1544.41	1.01
303.15	0.1638	1547.12	1.01
303.15	0.1755	1549.58	1.01
303.15	0.1868	1552.1	1.01
303.15	0.1954	1553.88	1.01
303.15	0.2224	1559.88	1.01
303.15	0.2333	1562.19	1.01
303.15	0.2509	1565.89	1.01

System: trisodium phosphate + water; phases: Liquid
Fixed: Pressure, kPa = 101
Property: Mass density, kg/m3 (Liquid); method: VIBTUB:UFactor:4
Temperature, K	Molality, mol/kg of trisodium phosphate	Mass density, kg/m3	uncertainty
283.15	0	999.699	0.26
283.15	0.0089	1001.506	0.265
283.15	0.0105	1001.837	0.264
283.15	0.0116	1002.059	0.263
283.15	0.0132	1002.385	0.265
283.15	0.0183	1003.436	0.264
283.15	0.0234	1004.45	0.264
283.15	0.0342	1006.618	0.267
283.15	0.045	1008.775	0.268
283.15	0.0563	1011.002	0.27
283.15	0.0662	1012.939	0.273
283.15	0.088	1017.25	0.279
283.15	0.0968	1018.965	0.28
283.15	0.1086	1021.251	0.284
283.15	0.1133	1022.184	0.285
283.15	0.1296	1025.355	0.29
283.15	0.141	1027.58	0.291
283.15	0.1515	1029.56	0.294
283.15	0.1638	1031.95	0.298
283.15	0.1755	1034.172	0.302
283.15	0.1868	1036.392	0.304
283.15	0.1954	1037.964	0.308
283.15	0.2224	1043.228	0.317
283.15	0.2333	1045.316	0.317
283.15	0.2509	1048.586	0.321
288.15	0	999.099	0.267
288.15	0.0089	1000.875	0.31
288.15	0.0105	1001.198	0.255
288.15	0.0116	1001.419	0.265
288.15	0.0132	1001.736	0.268
288.15	0.0183	1002.775	0.261
288.15	0.0234	1003.773	0.263
288.15	0.0342	1005.91	0.264
288.15	0.045	1008.038	0.265
288.15	0.0563	1010.232	0.267
288.15	0.0662	1012.146	0.271
288.15	0.088	1016.4	0.275
288.15	0.0968	1018.095	0.277
288.15	0.1086	1020.354	0.279
288.15	0.1133	1021.276	0.284
288.15	0.1296	1024.405	0.286
288.15	0.141	1026.608	0.288
288.15	0.1515	1028.563	0.291
288.15	0.1638	1030.926	0.295
288.15	0.1755	1033.123	0.299
288.15	0.1868	1035.317	0.301
288.15	0.1954	1036.874	0.306
288.15	0.2224	1042.08	0.314
288.15	0.2333	1044.145	0.314
288.15	0.2509	1047.385	0.316
293.15	0	998.203	0.265
293.15	0.0089	999.952	0.301
293.15	0.0105	1000.271	0.252
293.15	0.0116	1000.488	0.261
293.15	0.0132	1000.802	0.264
293.15	0.0183	1001.825	0.258
293.15	0.0234	1002.812	0.259
293.15	0.0342	1004.922	0.261
293.15	0.045	1007.024	0.262
293.15	0.0563	1009.195	0.264
293.15	0.0662	1011.085	0.268
293.15	0.088	1015.29	0.273
293.15	0.0968	1016.968	0.274
293.15	0.1086	1019.201	0.276
293.15	0.1133	1020.113	0.28
293.15	0.1296	1023.211	0.283
293.15	0.141	1025.39	0.285
293.15	0.1515	1027.323	0.288
293.15	0.1638	1029.666	0.292
293.15	0.1755	1031.84	0.296
293.15	0.1868	1034.014	0.298
293.15	0.1954	1035.554	0.303
293.15	0.2224	1040.712	0.311
293.15	0.2333	1042.758	0.311
293.15	0.2509	1045.966	0.313
298.15	0	997.043	0.264
298.15	0.0089	998.77	0.298
298.15	0.0105	999.088	0.252
298.15	0.0116	999.3	0.259
298.15	0.0132	999.611	0.262
298.15	0.0183	1000.622	0.255
298.15	0.0234	1001.599	0.256
298.15	0.0342	1003.685	0.257
298.15	0.045	1005.765	0.259
298.15	0.0563	1007.911	0.261
298.15	0.0662	1009.785	0.265
298.15	0.088	1013.948	0.269
298.15	0.0968	1015.608	0.271
298.15	0.1086	1017.82	0.273
298.15	0.1133	1018.726	0.277
298.15	0.1296	1021.794	0.28
298.15	0.141	1023.955	0.282
298.15	0.1515	1025.872	0.285
298.15	0.1638	1028.191	0.289
298.15	0.1755	1030.347	0.293
298.15	0.1868	1032.5	0.295
298.15	0.1954	1034.03	0.3
298.15	0.2224	1039.145	0.307
298.15	0.2333	1041.174	0.308
298.15	0.2509	1044.356	0.31
303.15	0	995.645	0.258
303.15	0.0089	997.355	0.258
303.15	0.0105	997.668	0.257
303.15	0.0116	997.879	0.255
303.15	0.0132	998.187	0.257
303.15	0.0183	999.189	0.254
303.15	0.0234	1000.153	0.251
303.15	0.0342	1002.223	0.254
303.15	0.045	1004.283	0.256
303.15	0.0563	1006.408	0.258
303.15	0.0662	1008.268	0.261
303.15	0.088	1012.395	0.267
303.15	0.0968	1014.041	0.267
303.15	0.1086	1016.235	0.271
303.15	0.1133	1017.131	0.273
303.15	0.1296	1020.178	0.277
303.15	0.141	1022.317	0.279
303.15	0.1515	1024.222	0.282
303.15	0.1638	1026.525	0.285
303.15	0.1755	1028.662	0.289
303.15	0.1868	1030.8	0.292
303.15	0.1954	1032.318	0.295
303.15	0.2224	1037.392	0.304
303.15	0.2333	1039.407	0.304
303.15	0.2509	1042.566	0.308

System: propan-1-ol + water; phases: Liquid
Fixed: Pressure, kPa = 101
Property: Speed of sound, m/s (Liquid); method: Sing-around technique in a fixed-path interferometer
Mass fraction of propan-1-ol	Temperature, K	Speed of sound, m/s	uncertainty
0.05	283.15	1499	1.05
0.05	288.15	1512.25	1.05
0.05	293.15	1523.88	1.05
0.05	298.15	1533.85	1.05
0.05	303.15	1542.22	1.05
0.1	283.15	1548.59	1.07
0.1	288.15	1556.55	1.06
0.1	293.15	1563.3	1.06
0.1	298.15	1568.72	1.06
0.1	303.15	1572.86	1.05
0.15	283.15	1585.18	1.06
0.15	288.15	1587.6	1.06
0.15	293.15	1588.95	1.06
0.15	298.15	1589.24	1.06
0.15	303.15	1588.56	1.06

System: propan-1-ol + water; phases: Liquid
Fixed: Pressure, kPa = 101
Property: Mass density, kg/m3 (Liquid); method: VIBTUB:UFactor:4
Mass fraction of propan-1-ol	Temperature, K	Mass density, kg/m3	uncertainty
0.05	283.15	992.405	0.288
0.05	288.15	991.687	0.312
0.05	293.15	990.671	0.309
0.05	298.15	989.387	0.307
0.05	303.15	987.86	0.289
0.1	283.15	987.187	0.29
0.1	288.15	986.194	0.293
0.1	293.15	984.913	0.293
0.1	298.15	983.372	0.295
0.1	303.15	981.595	0.295
0.15	283.15	982.892	0.302
0.15	288.15	981.496	0.308
0.15	293.15	979.828	0.308
0.15	298.15	977.921	0.309
0.15	303.15	975.791	0.307

System: propan-1-ol + trisodium phosphate + water; phases: Liquid
Fixed: Pressure, kPa = 101
Property: Molar conductivity, S*m2/mol (Liquid); method: digital conductivity meter
Solvent: Mass fraction of propan-1-ol	Temperature, K	Molality, mol/kg of trisodium phosphate	Molar conductivity, S*m2/mol	uncertainty
0.05	283.15	0.0029	0.031558	0.001262
0.05	283.15	0.0039	0.02929	0.00117
0.05	283.15	0.0053	0.028738	0.00115
0.05	283.15	0.0054	0.028478	0.001139
0.05	283.15	0.0079	0.026386	0.001055
0.05	283.15	0.0104	0.024414	0.000977
0.05	283.15	0.0131	0.023439	0.000938
0.05	283.15	0.0184	0.022559	0.000902
0.05	283.15	0.0236	0.021304	0.000852
0.05	283.15	0.0381	0.019972	0.000799
0.05	283.15	0.0527	0.01811	0.00072
0.05	283.15	0.0664	0.016652	0.000666
0.05	283.15	0.0799	0.016081	0.000643
0.05	283.15	0.0934	0.015565	0.000623
0.05	283.15	0.1066	0.014895	0.000596
0.05	283.15	0.1211	0.013996	0.00056
0.05	283.15	0.1336	0.01364	0.00055
0.05	283.15	0.1478	0.013292	0.000532
0.05	283.15	0.159	0.012862	0.000514
0.05	288.15	0.0029	0.033588	0.001344
0.05	288.15	0.0039	0.032375	0.001295
0.05	288.15	0.0053	0.031738	0.00127
0.05	288.15	0.0054	0.032314	0.001293
0.05	288.15	0.0079	0.029467	0.001179
0.05	288.15	0.0104	0.028006	0.00112
0.05	288.15	0.0131	0.027289	0.001092
0.05	288.15	0.0184	0.025145	0.001006
0.05	288.15	0.0236	0.023286	0.000931
0.05	288.15	0.0381	0.021072	0.000843
0.05	288.15	0.0527	0.019043	0.000762
0.05	288.15	0.0664	0.017697	0.000708
0.05	288.15	0.0799	0.016852	0.000674
0.05	288.15	0.0934	0.016591	0.000664
0.05	288.15	0.1066	0.015814	0.000633
0.05	288.15	0.1211	0.014964	0.000599
0.05	288.15	0.1336	0.014458	0.000578
0.05	288.15	0.1478	0.014263	0.000571
0.05	288.15	0.159	0.013892	0.000556
0.05	293.15	0.0029	0.035773	0.001431
0.05	293.15	0.0039	0.034403	0.001376
0.05	293.15	0.0053	0.034524	0.001381
0.05	293.15	0.0054	0.033663	0.001347
0.05	293.15	0.0079	0.031541	0.001262
0.05	293.15	0.0104	0.029582	0.001183
0.05	293.15	0.0131	0.028853	0.001154
0.05	293.15	0.0184	0.026376	0.001055
0.05	293.15	0.0236	0.024937	0.000997
0.05	293.15	0.0381	0.022313	0.000893
0.05	293.15	0.0527	0.02025	0.00081
0.05	293.15	0.0664	0.018992	0.00076
0.05	293.15	0.0799	0.018019	0.000721
0.05	293.15	0.0934	0.017732	0.000709
0.05	293.15	0.1066	0.016777	0.000671
0.05	293.15	0.1211	0.016146	0.000646
0.05	293.15	0.1336	0.015651	0.000626
0.05	293.15	0.1478	0.015302	0.000612
0.05	293.15	0.159	0.014859	0.000594
0.05	298.15	0.0029	0.036243	0.00145
0.05	298.15	0.0039	0.035983	0.001439
0.05	298.15	0.0053	0.033803	0.001352
0.05	298.15	0.0054	0.034339	0.001374
0.05	298.15	0.0079	0.032989	0.00132
0.05	298.15	0.0104	0.031557	0.001262
0.05	298.15	0.0131	0.029813	0.001193
0.05	298.15	0.0184	0.028384	0.001135
0.05	298.15	0.0236	0.026126	0.001045
0.05	298.15	0.0381	0.023324	0.000933
0.05	298.15	0.0527	0.021638	0.000866
0.05	298.15	0.0664	0.020158	0.000806
0.05	298.15	0.0799	0.019131	0.000765
0.05	298.15	0.0934	0.01848	0.00074
0.05	298.15	0.1066	0.017652	0.000706
0.05	298.15	0.1211	0.016969	0.000679
0.05	298.15	0.1336	0.016352	0.000654
0.05	298.15	0.1478	0.01587	0.00063
0.05	298.15	0.159	0.015515	0.000621
0.05	303.15	0.0029	0.035628	0.001425
0.05	303.15	0.0039	0.035424	0.001417
0.05	303.15	0.0053	0.034508	0.00138
0.05	303.15	0.0054	0.034485	0.001379
0.05	303.15	0.0079	0.033681	0.001347
0.05	303.15	0.0104	0.032188	0.001288
0.05	303.15	0.0131	0.030398	0.001216
0.05	303.15	0.0184	0.028923	0.001157
0.05	303.15	0.0236	0.026854	0.001074
0.05	303.15	0.0381	0.024158	0.000966
0.05	303.15	0.0527	0.022632	0.000905
0.05	303.15	0.0664	0.020952	0.000838
0.05	303.15	0.0799	0.019985	0.000799
0.05	303.15	0.0934	0.019235	0.000769
0.05	303.15	0.1066	0.018326	0.000733
0.05	303.15	0.1211	0.017414	0.000697
0.05	303.15	0.1336	0.016758	0.00067
0.05	303.15	0.1478	0.016375	0.000655
0.05	303.15	0.159	0.016049	0.000642
0.1	283.15	0.0026	0.02607	0.00104
0.1	283.15	0.0039	0.025092	0.001004
0.1	283.15	0.0053	0.023728	0.000949
0.1	283.15	0.0106	0.020875	0.000835
0.1	283.15	0.0128	0.020359	0.000814
0.1	283.15	0.0185	0.019071	0.000763
0.1	283.15	0.0234	0.017737	0.000709
0.1	283.15	0.0394	0.015899	0.000636
0.1	283.15	0.0533	0.014602	0.000584
0.1	283.15	0.0658	0.013556	0.000542
0.1	283.15	0.0801	0.012868	0.000515
0.1	283.15	0.1067	0.012211	0.000488
0.1	283.15	0.1197	0.012055	0.000482
0.1	283.15	0.1339	0.011828	0.000473
0.1	283.15	0.1482	0.011704	0.000468
0.1	283.15	0.1608	0.0116	0.0005
0.1	288.15	0.0026	0.028569	0.001143
0.1	288.15	0.0039	0.027471	0.001099
0.1	288.15	0.0053	0.026301	0.001052
0.1	288.15	0.0106	0.023006	0.00092
0.1	288.15	0.0128	0.022356	0.000894
0.1	288.15	0.0185	0.020624	0.000825
0.1	288.15	0.0234	0.019359	0.000774
0.1	288.15	0.0394	0.01715	0.00069
0.1	288.15	0.0533	0.015757	0.00063
0.1	288.15	0.0658	0.014665	0.000587
0.1	288.15	0.0801	0.013894	0.000556
0.1	288.15	0.1067	0.013174	0.000527
0.1	288.15	0.1197	0.012931	0.000517
0.1	288.15	0.1339	0.01253	0.0005
0.1	288.15	0.1482	0.012468	0.000499
0.1	288.15	0.1608	0.012306	0.000492
0.1	293.15	0.0026	0.030926	0.001237
0.1	293.15	0.0039	0.02919	0.00117
0.1	293.15	0.0053	0.028248	0.00113
0.1	293.15	0.0106	0.024861	0.000994
0.1	293.15	0.0128	0.024047	0.000962
0.1	293.15	0.0185	0.022241	0.00089
0.1	293.15	0.0234	0.020729	0.000829
0.1	293.15	0.0394	0.018125	0.000725
0.1	293.15	0.0533	0.016787	0.000671
0.1	293.15	0.0658	0.015718	0.000629
0.1	293.15	0.0801	0.015052	0.000602
0.1	293.15	0.1067	0.014427	0.000577
0.1	293.15	0.1197	0.014202	0.000568
0.1	293.15	0.1339	0.013599	0.000544
0.1	293.15	0.1482	0.013306	0.000532
0.1	293.15	0.1608	0.013394	0.000536
0.1	298.15	0.0026	0.032292	0.001292
0.1	298.15	0.0039	0.030402	0.001216
0.1	298.15	0.0053	0.028854	0.001154
0.1	298.15	0.0106	0.026631	0.001065
0.1	298.15	0.0128	0.025749	0.00103
0.1	298.15	0.0185	0.023593	0.000944
0.1	298.15	0.0234	0.022543	0.000902
0.1	298.15	0.0394	0.019751	0.00079
0.1	298.15	0.0533	0.018243	0.00073
0.1	298.15	0.0658	0.016856	0.000674
0.1	298.15	0.0801	0.015851	0.000634
0.1	298.15	0.1067	0.014842	0.000594
0.1	298.15	0.1197	0.014565	0.000583
0.1	298.15	0.1339	0.014077	0.000563
0.1	298.15	0.1482	0.013603	0.000544
0.1	298.15	0.1608	0.01367	0.00055
0.1	303.15	0.0026	0.032584	0.001303
0.1	303.15	0.0039	0.031107	0.001244
0.1	303.15	0.0053	0.029101	0.001164
0.1	303.15	0.0106	0.027354	0.001094
0.1	303.15	0.0128	0.026511	0.00106
0.1	303.15	0.0185	0.024516	0.000981
0.1	303.15	0.0234	0.023195	0.000928
0.1	303.15	0.0394	0.020252	0.00081
0.1	303.15	0.0533	0.018602	0.000744
0.1	303.15	0.0658	0.017383	0.000695
0.1	303.15	0.0801	0.016452	0.000658
0.1	303.15	0.1067	0.015338	0.000614
0.1	303.15	0.1197	0.015103	0.000604
0.1	303.15	0.1339	0.014636	0.000585
0.1	303.15	0.1482	0.014384	0.000575
0.1	303.15	0.1608	0.014202	0.000568
0.15	283.15	0.0028	0.022329	0.000893
0.15	283.15	0.0039	0.020705	0.000828
0.15	283.15	0.0052	0.020243	0.00081
0.15	283.15	0.0104	0.019068	0.000763
0.15	283.15	0.0132	0.018487	0.000739
0.15	283.15	0.0185	0.017702	0.000708
0.15	283.15	0.0237	0.017037	0.000681
0.15	283.15	0.0389	0.015553	0.000622
0.15	283.15	0.0528	0.014437	0.000577
0.15	283.15	0.0657	0.013898	0.000556
0.15	283.15	0.0791	0.013143	0.000526
0.15	283.15	0.0918	0.012816	0.000513
0.15	283.15	0.1074	0.012372	0.000495
0.15	288.15	0.0028	0.024691	0.000988
0.15	288.15	0.0039	0.023835	0.000953
0.15	288.15	0.0052	0.023038	0.000922
0.15	288.15	0.0104	0.020618	0.000825
0.15	288.15	0.0132	0.019594	0.000784
0.15	288.15	0.0185	0.018554	0.000742
0.15	288.15	0.0237	0.017577	0.000703
0.15	288.15	0.0389	0.016204	0.000648
0.15	288.15	0.0528	0.014922	0.000597
0.15	288.15	0.0657	0.014555	0.000582
0.15	288.15	0.0791	0.013832	0.000553
0.15	288.15	0.0918	0.013279	0.000531
0.15	288.15	0.1074	0.012894	0.000516
0.15	293.15	0.0028	0.027178	0.001087
0.15	293.15	0.0039	0.026172	0.001047
0.15	293.15	0.0052	0.025438	0.001018
0.15	293.15	0.0104	0.022424	0.000897
0.15	293.15	0.0132	0.020864	0.000835
0.15	293.15	0.0185	0.019303	0.000772
0.15	293.15	0.0237	0.018037	0.000721
0.15	293.15	0.0389	0.016599	0.000664
0.15	293.15	0.0528	0.015412	0.000616
0.15	293.15	0.0657	0.01514	0.00061
0.15	293.15	0.0791	0.014154	0.000566
0.15	293.15	0.0918	0.013547	0.000542
0.15	293.15	0.1074	0.013184	0.000527
0.15	298.15	0.0028	0.028254	0.00113
0.15	298.15	0.0039	0.026955	0.001078
0.15	298.15	0.0052	0.025898	0.001036
0.15	298.15	0.0104	0.023847	0.000954
0.15	298.15	0.0132	0.022377	0.000895
0.15	298.15	0.0185	0.020336	0.000813
0.15	298.15	0.0237	0.018977	0.000759
0.15	298.15	0.0389	0.017577	0.000703
0.15	298.15	0.0528	0.016062	0.000642
0.15	298.15	0.0657	0.015513	0.000621
0.15	298.15	0.0791	0.014596	0.000584
0.15	298.15	0.0918	0.014009	0.00056
0.15	298.15	0.1074	0.013601	0.000544
0.15	303.15	0.0028	0.028792	0.001152
0.15	303.15	0.0039	0.0278	0.0011
0.15	303.15	0.0052	0.027013	0.001081
0.15	303.15	0.0104	0.025183	0.001007
0.15	303.15	0.0132	0.024055	0.000962
0.15	303.15	0.0185	0.021599	0.000864
0.15	303.15	0.0237	0.019924	0.000797
0.15	303.15	0.0389	0.018063	0.000723
0.15	303.15	0.0528	0.016738	0.00067
0.15	303.15	0.0657	0.016046	0.000642
0.15	303.15	0.0791	0.015263	0.000611
0.15	303.15	0.0918	0.014854	0.000594
0.15	303.15	0.1074	0.014393	0.000576

System: propan-1-ol + trisodium phosphate + water; phases: Liquid
Fixed: Pressure, kPa = 101
Property: Speed of sound, m/s (Liquid); method: Sing-around technique in a fixed-path interferometer
Solvent: Mass fraction of propan-1-ol	Temperature, K	Molality, mol/kg of trisodium phosphate	Speed of sound, m/s	uncertainty
0.05	283.15	0	1499	1.05
0.05	283.15	0.0029	1499.87	1.05
0.05	283.15	0.0039	1500.2	1.05
0.05	283.15	0.0054	1500.62	1.05
0.05	283.15	0.0131	1502.53	1.05
0.05	283.15	0.0184	1503.91	1.06
0.05	283.15	0.0236	1505.23	1.06
0.05	283.15	0.0381	1508.79	1.06
0.05	283.15	0.0527	1512.13	1.06
0.05	283.15	0.0664	1515.27	1.06
0.05	283.15	0.0799	1518.33	1.06
0.05	283.15	0.0934	1521.38	1.06
0.05	283.15	0.1066	1524.14	1.06
0.05	283.15	0.1211	1527.27	1.06
0.05	283.15	0.1452	1532.41	1.06
0.05	283.15	0.1478	1532.87	1.07
0.05	283.15	0.1871	1540.99	1.07
0.05	288.15	0	1512.25	1.05
0.05	288.15	0.0029	1513.14	1.06
0.05	288.15	0.0039	1513.42	1.06
0.05	288.15	0.0054	1513.86	1.06
0.05	288.15	0.0131	1515.81	1.06
0.05	288.15	0.0184	1517.13	1.06
0.05	288.15	0.0236	1518.42	1.06
0.05	288.15	0.0381	1521.89	1.06
0.05	288.15	0.0527	1525.21	1.06
0.05	288.15	0.0664	1528.25	1.06
0.05	288.15	0.0799	1531.21	1.06
0.05	288.15	0.0934	1534.2	1.06
0.05	288.15	0.1066	1536.9	1.06
0.05	288.15	0.1211	1539.98	1.06
0.05	288.15	0.1452	1545	1.07
0.05	288.15	0.1478	1545.48	1.07
0.05	288.15	0.1871	1553.47	1.07
0.05	293.15	0	1523.88	1.05
0.05	293.15	0.0029	1524.74	1.05
0.05	293.15	0.0039	1525.01	1.05
0.05	293.15	0.0054	1525.45	1.05
0.05	293.15	0.0131	1527.32	1.05
0.05	293.15	0.0184	1528.64	1.05
0.05	293.15	0.0236	1529.92	1.05
0.05	293.15	0.0381	1533.3	1.06
0.05	293.15	0.0527	1536.53	1.06
0.05	293.15	0.0664	1539.5	1.06
0.05	293.15	0.0799	1542.4	1.06
0.05	293.15	0.0934	1545.34	1.06
0.05	293.15	0.1066	1547.97	1.06
0.05	293.15	0.1211	1550.99	1.06
0.05	293.15	0.1452	1555.9	1.07
0.05	293.15	0.1478	1556.38	1.06
0.05	293.15	0.1871	1564.17	1.07
0.05	298.15	0	1533.85	1.05
0.05	298.15	0.0029	1534.66	1.05
0.05	298.15	0.0039	1534.95	1.05
0.05	298.15	0.0054	1535.35	1.05
0.05	298.15	0.0131	1537.23	1.05
0.05	298.15	0.0184	1538.49	1.05
0.05	298.15	0.0236	1539.74	1.05
0.05	298.15	0.0381	1543.04	1.05
0.05	298.15	0.0527	1546.22	1.06
0.05	298.15	0.0664	1549.1	1.1
0.05	298.15	0.0799	1551.96	1.06
0.05	298.15	0.0934	1554.83	1.06
0.05	298.15	0.1066	1557.41	1.06
0.05	298.15	0.1211	1560.35	1.06
0.05	298.15	0.1452	1565.15	1.06
0.05	298.15	0.1478	1565.62	1.06
0.05	298.15	0.1871	1573.21	1.07
0.05	303.15	0	1542.22	1.05
0.05	303.15	0.0029	1543.03	1.05
0.05	303.15	0.0039	1543.3	1.1
0.05	303.15	0.0054	1543.71	1.05
0.05	303.15	0.0131	1545.56	1.05
0.05	303.15	0.0184	1546.8	1.1
0.05	303.15	0.0236	1548.01	1.05
0.05	303.15	0.0381	1551.26	1.06
0.05	303.15	0.0527	1554.38	1.06
0.05	303.15	0.0664	1557.19	1.06
0.05	303.15	0.0799	1559.99	1.06
0.05	303.15	0.0934	1562.8	1.1
0.05	303.15	0.1066	1565.28	1.06
0.05	303.15	0.1211	1568.16	1.06
0.05	303.15	0.1452	1572.82	1.06
0.05	303.15	0.1478	1573.29	1.06
0.05	303.15	0.1871	1580.7	1.1
0.1	283.15	0	1548.59	1.07
0.1	283.15	0.0533	1560.51	1.08
0.1	283.15	0.0658	1562.95	1.07
0.1	283.15	0.0801	1565.76	1.07
0.1	283.15	0.1067	1570.79	1.08
0.1	283.15	0.1197	1573.15	1.08
0.1	283.15	0.1339	1575.71	1.07
0.1	283.15	0.1482	1578.32	1.07
0.1	283.15	0.1608	1580.47	1.07
0.1	283.15	0.1875	1585.17	1.07
0.1	288.15	0	1556.55	1.06
0.1	288.15	0.0533	1568.47	1.06
0.1	288.15	0.0658	1570.84	1.06
0.1	288.15	0.0801	1573.62	1.06
0.1	288.15	0.1067	1578.59	1.07
0.1	288.15	0.1197	1580.92	1.07
0.1	288.15	0.1339	1583.47	1.07
0.1	288.15	0.1482	1586.02	1.07
0.1	288.15	0.1608	1588.17	1.07
0.1	288.15	0.1875	1592.73	1.07
0.1	293.15	0	1563.3	1.06
0.1	293.15	0.0533	1575.03	1.06
0.1	293.15	0.0658	1577.36	1.06
0.1	293.15	0.0801	1580.09	1.06
0.1	293.15	0.1067	1584.96	1.07
0.1	293.15	0.1197	1587.25	1.07
0.1	293.15	0.1339	1589.76	1.07
0.1	293.15	0.1482	1592.25	1.07
0.1	293.15	0.1608	1594.38	1.07
0.1	293.15	0.1875	1598.83	1.07
0.1	298.15	0	1568.72	1.06
0.1	298.15	0.0533	1580.2	1.06
0.1	298.15	0.0658	1582.5	1.06
0.1	298.15	0.0801	1585.15	1.06
0.1	298.15	0.1067	1589.91	1.07
0.1	298.15	0.1197	1592.15	1.07
0.1	298.15	0.1339	1594.61	1.07
0.1	298.15	0.1482	1597.05	1.07
0.1	298.15	0.1608	1599.12	1.07
0.1	298.15	0.1875	1603.48	1.07
0.1	303.15	0	1572.86	1.05
0.1	303.15	0.0533	1584.07	1.06
0.1	303.15	0.0658	1586.32	1.06
0.1	303.15	0.0801	1588.91	1.06
0.1	303.15	0.1067	1593.55	1.06
0.1	303.15	0.1197	1595.73	1.06
0.1	303.15	0.1339	1598.13	1.07
0.1	303.15	0.1482	1600.5	1.07
0.1	303.15	0.1608	1602.52	1.07
0.1	303.15	0.1875	1606.78	1.07
0.15	283.15	0	1585.18	1.06
0.15	283.15	0.0105	1587.51	1.07
0.15	283.15	0.0186	1589.05	1.07
0.15	283.15	0.0236	1589.98	1.07
0.15	283.15	0.0399	1592.76	1.07
0.15	283.15	0.0517	1594.66	1.07
0.15	283.15	0.0653	1596.82	1.07
0.15	283.15	0.0762	1598.44	1.07
0.15	283.15	0.0931	1600.98	1.07
0.15	283.15	0.1058	1602.85	1.07
0.15	288.15	0	1587.6	1.06
0.15	288.15	0.0105	1589.86	1.07
0.15	288.15	0.0186	1591.36	1.07
0.15	288.15	0.0236	1592.28	1.07
0.15	288.15	0.0399	1594.98	1.07
0.15	288.15	0.0517	1596.85	1.07
0.15	288.15	0.0653	1598.96	1.07
0.15	288.15	0.0762	1600.55	1.07
0.15	288.15	0.0931	1603.02	1.07
0.15	288.15	0.1058	1604.82	1.07
0.15	293.15	0	1588.95	1.06
0.15	293.15	0.0105	1591.15	1.06
0.15	293.15	0.0186	1592.61	1.06
0.15	293.15	0.0236	1593.49	1.06
0.15	293.15	0.0399	1596.12	1.07
0.15	293.15	0.0517	1597.93	1.07
0.15	293.15	0.0653	1599.97	1.07
0.15	293.15	0.0762	1601.52	1.07
0.15	293.15	0.0931	1603.88	1.07
0.15	293.15	0.1058	1605.63	1.07
0.15	298.15	0	1589.24	1.06
0.15	298.15	0.0105	1591.36	1.06
0.15	298.15	0.0186	1592.78	1.06
0.15	298.15	0.0236	1593.64	1.06
0.15	298.15	0.0399	1596.18	1.06
0.15	298.15	0.0517	1597.93	1.07
0.15	298.15	0.0653	1599.89	1.07
0.15	298.15	0.0762	1601.37	1.07
0.15	298.15	0.0931	1603.64	1.07
0.15	298.15	0.1058	1605.32	1.07
0.15	303.15	0	1588.56	1.06
0.15	303.15	0.0105	1590.62	1.06
0.15	303.15	0.0186	1591.99	1.06
0.15	303.15	0.0236	1592.8	1.06
0.15	303.15	0.0399	1595.27	1.06
0.15	303.15	0.0517	1596.96	1.06
0.15	303.15	0.0653	1598.83	1.07
0.15	303.15	0.0762	1600.27	1.07
0.15	303.15	0.0931	1602.45	1.07
0.15	303.15	0.1058	1604.03	1.07

System: propan-1-ol + trisodium phosphate + water; phases: Liquid
Fixed: Pressure, kPa = 101
Property: Mass density, kg/m3 (Liquid); method: VIBTUB:UFactor:4
Solvent: Mass fraction of propan-1-ol	Temperature, K	Molality, mol/kg of trisodium phosphate	Mass density, kg/m3	uncertainty
0.05	283.15	0	992.405	0.288
0.05	283.15	0.0029	992.981	0.291
0.05	283.15	0.0039	993.205	0.296
0.05	283.15	0.0054	993.51	0.29
0.05	283.15	0.0131	995.064	0.286
0.05	283.15	0.0184	996.128	0.284
0.05	283.15	0.0236	997.16	0.282
0.05	283.15	0.0381	1000.065	0.278
0.05	283.15	0.0527	1002.939	0.279
0.05	283.15	0.0664	1005.585	0.283
0.05	283.15	0.0799	1008.212	0.287
0.05	283.15	0.0934	1010.835	0.291
0.05	283.15	0.1066	1013.39	0.293
0.05	283.15	0.1211	1016.15	0.297
0.05	283.15	0.1452	1020.76	0.296
0.05	283.15	0.1478	1021.218	0.296
0.05	283.15	0.1871	1028.556	0.315
0.05	288.15	0	991.687	0.312
0.05	288.15	0.0029	992.255	0.28
0.05	288.15	0.0039	992.476	0.301
0.05	288.15	0.0054	992.776	0.248
0.05	288.15	0.0131	994.303	0.284
0.05	288.15	0.0184	995.357	0.283
0.05	288.15	0.0236	996.373	0.283
0.05	288.15	0.0381	999.24	0.277
0.05	288.15	0.0527	1002.076	0.276
0.05	288.15	0.0664	1004.69	0.28
0.05	288.15	0.0799	1007.288	0.284
0.05	288.15	0.0934	1009.877	0.288
0.05	288.15	0.1066	1012.404	0.291
0.05	288.15	0.1211	1015.133	0.295
0.05	288.15	0.1452	1019.693	0.312
0.05	288.15	0.1478	1020.143	0.275
0.05	288.15	0.1871	1027.408	0.311
0.05	293.15	0	990.671	0.309
0.05	293.15	0.0029	991.233	0.281
0.05	293.15	0.0039	991.449	0.299
0.05	293.15	0.0054	991.746	0.252
0.05	293.15	0.0131	993.254	0.284
0.05	293.15	0.0184	994.293	0.283
0.05	293.15	0.0236	995.298	0.283
0.05	293.15	0.0381	998.129	0.277
0.05	293.15	0.0527	1000.937	0.273
0.05	293.15	0.0664	1003.521	0.277
0.05	293.15	0.0799	1006.091	0.281
0.05	293.15	0.0934	1008.654	0.285
0.05	293.15	0.1066	1011.157	0.287
0.05	293.15	0.1211	1013.857	0.292
0.05	293.15	0.1452	1018.373	0.307
0.05	293.15	0.1478	1018.821	0.274
0.05	293.15	0.1871	1026.021	0.308
0.05	298.15	0	989.387	0.307
0.05	298.15	0.0029	989.943	0.283
0.05	298.15	0.0039	990.158	0.299
0.05	298.15	0.0054	990.449	0.255
0.05	298.15	0.0131	991.939	0.285
0.05	298.15	0.0184	992.97	0.284
0.05	298.15	0.0236	993.963	0.284
0.05	298.15	0.0381	996.768	0.278
0.05	298.15	0.0527	999.547	0.271
0.05	298.15	0.0664	1002.105	0.273
0.05	298.15	0.0799	1004.652	0.278
0.05	298.15	0.0934	1007.195	0.281
0.05	298.15	0.1066	1009.672	0.284
0.05	298.15	0.1211	1012.352	0.288
0.05	298.15	0.1452	1016.829	0.303
0.05	298.15	0.1478	1017.274	0.272
0.05	298.15	0.1871	1024.414	0.304
0.05	303.15	0	987.86	0.289
0.05	303.15	0.0029	988.411	0.291
0.05	303.15	0.0039	988.624	0.294
0.05	303.15	0.0054	988.91	0.29
0.05	303.15	0.0131	990.388	0.287
0.05	303.15	0.0184	991.408	0.285
0.05	303.15	0.0236	992.392	0.283
0.05	303.15	0.0381	995.173	0.279
0.05	303.15	0.0527	997.927	0.273
0.05	303.15	0.0664	1000.466	0.27
0.05	303.15	0.0799	1002.992	0.274
0.05	303.15	0.0934	1005.515	0.278
0.05	303.15	0.1066	1007.972	0.28
0.05	303.15	0.1211	1010.632	0.284
0.05	303.15	0.1452	1015.078	0.282
0.05	303.15	0.1478	1015.517	0.283
0.05	303.15	0.1871	1022.607	0.302
0.1	283.15	0	987.187	0.29
0.1	283.15	0.0533	997.644	0.258
0.1	283.15	0.0658	1000.059	0.273
0.1	283.15	0.0801	1002.79	0.274
0.1	283.15	0.1067	1007.862	0.286
0.1	283.15	0.1197	1010.308	0.28
0.1	283.15	0.1339	1013.011	0.291
0.1	283.15	0.1482	1015.678	0.293
0.1	283.15	0.1608	1017.989	0.296
0.1	283.15	0.1875	1022.919	0.304
0.1	288.15	0	986.194	0.293
0.1	288.15	0.0533	996.51	0.267
0.1	288.15	0.0658	998.898	0.273
0.1	288.15	0.0801	1001.598	0.271
0.1	288.15	0.1067	1006.614	0.281
0.1	288.15	0.1197	1009.038	0.277
0.1	288.15	0.1339	1011.714	0.287
0.1	288.15	0.1482	1014.357	0.289
0.1	288.15	0.1608	1016.641	0.293
0.1	288.15	0.1875	1021.528	0.299
0.1	293.15	0	984.913	0.293
0.1	293.15	0.0533	995.108	0.269
0.1	293.15	0.0658	997.473	0.274
0.1	293.15	0.0801	1000.145	0.268
0.1	293.15	0.1067	1005.115	0.278
0.1	293.15	0.1197	1007.515	0.274
0.1	293.15	0.1339	1010.168	0.284
0.1	293.15	0.1482	1012.786	0.286
0.1	293.15	0.1608	1015.052	0.29
0.1	293.15	0.1875	1019.899	0.296
0.1	298.15	0	983.372	0.295
0.1	298.15	0.0533	993.466	0.272
0.1	298.15	0.0658	995.807	0.275
0.1	298.15	0.0801	998.456	0.269
0.1	298.15	0.1067	1003.385	0.274
0.1	298.15	0.1197	1005.765	0.271
0.1	298.15	0.1339	1008.397	0.28
0.1	298.15	0.1482	1010.996	0.282
0.1	298.15	0.1608	1013.245	0.286
0.1	298.15	0.1875	1018.053	0.292
0.1	303.15	0	981.595	0.295
0.1	303.15	0.0533	991.597	0.27
0.1	303.15	0.0658	993.92	0.277
0.1	303.15	0.0801	996.551	0.271
0.1	303.15	0.1067	1001.441	0.271
0.1	303.15	0.1197	1003.808	0.269
0.1	303.15	0.1339	1006.42	0.277
0.1	303.15	0.1482	1009	0.279
0.1	303.15	0.1608	1011.234	0.282
0.1	303.15	0.1875	1016.01	0.29
0.15	283.15	0	982.892	0.302
0.15	283.15	0.0105	984.972	0.298
0.15	283.15	0.0186	986.556	0.296
0.15	283.15	0.0236	987.552	0.292
0.15	283.15	0.0399	990.701	0.287
0.15	283.15	0.0517	992.968	0.283
0.15	283.15	0.0653	995.561	0.278
0.15	283.15	0.0762	997.617	0.274
0.15	283.15	0.0931	1000.794	0.272
0.15	283.15	0.1058	1003.2	0.276
0.15	288.15	0	981.496	0.308
0.15	288.15	0.0105	983.545	0.298
0.15	288.15	0.0186	985.108	0.295
0.15	288.15	0.0236	986.092	0.294
0.15	288.15	0.0399	989.205	0.287
0.15	288.15	0.0517	991.446	0.284
0.15	288.15	0.0653	994.01	0.278
0.15	288.15	0.0762	996.044	0.275
0.15	288.15	0.0931	999.189	0.27
0.15	288.15	0.1058	1001.569	0.268
0.15	293.15	0	979.828	0.308
0.15	293.15	0.0105	981.852	0.299
0.15	293.15	0.0186	983.399	0.296
0.15	293.15	0.0236	984.371	0.296
0.15	293.15	0.0399	987.452	0.289
0.15	293.15	0.0517	989.673	0.285
0.15	293.15	0.0653	992.21	0.28
0.15	293.15	0.0762	994.224	0.277
0.15	293.15	0.0931	997.34	0.272
0.15	293.15	0.1058	999.699	0.266
0.15	298.15	0	977.921	0.309
0.15	298.15	0.0105	979.924	0.301
0.15	298.15	0.0186	981.454	0.298
0.15	298.15	0.0236	982.416	0.297
0.15	298.15	0.0399	985.47	0.291
0.15	298.15	0.0517	987.67	0.287
0.15	298.15	0.0653	990.188	0.282
0.15	298.15	0.0762	992.185	0.279
0.15	298.15	0.0931	995.272	0.274
0.15	298.15	0.1058	997.613	0.268
0.15	303.15	0	975.791	0.307
0.15	303.15	0.0105	977.778	0.304
0.15	303.15	0.0186	979.296	0.301
0.15	303.15	0.0236	980.251	0.299
0.15	303.15	0.0399	983.279	0.293
0.15	303.15	0.0517	985.462	0.289
0.15	303.15	0.0653	987.96	0.285
0.15	303.15	0.0762	989.94	0.281
0.15	303.15	0.0931	993.009	0.277
0.15	303.15	0.1058	995.33	0.274
