Measured thermophysical data. Limiting activity coefficients in binary mixtures of 1-alkanols and ethylbenzene
Source: Fluid Phase Equilib., 2008, 10.1016/j.fluid.2007.09.021
Compound 1: methanol, CH4O, InChI=1S/CH4O/c1-2/h2H,1H3
Compound 2: propan-1-ol, C3H8O, InChI=1S/C3H8O/c1-2-3-4/h4H,2-3H2,1H3
Compound 3: butan-1-ol, C4H10O, InChI=1S/C4H10O/c1-2-3-4-5/h5H,2-4H2,1H3
Compound 4: ethanol, C2H6O, InChI=1S/C2H6O/c1-2-3/h3H,2H2,1H3
Compound 5: pentan-1-ol, C5H12O, InChI=1S/C5H12O/c1-2-3-4-5-6/h6H,2-5H2,1H3
Compound 6: ethylbenzene, C8H10, InChI=1S/C8H10/c1-2-8-6-4-3-5-7-8/h3-7H,2H2,1H3
Compound 7: hexan-1-ol, C6H14O, InChI=1S/C6H14O/c1-2-3-4-5-6-7/h7H,2-6H2,1H3

System: methanol + ethylbenzene; phases: Liquid, Gas
Fixed: Mole fraction of methanol = 0
Property: Activity coefficient of methanol (Liquid); method: Chromatography
Temperature, K	Activity coefficient of methanol	uncertainty
293.15	26.2	1.3
303.15	21.4	1.1
313.15	18	1
323.15	15	0.8

System: methanol + ethylbenzene; phases: Liquid, Gas
Fixed: Mole fraction of ethylbenzene = 0
Property: Activity coefficient of ethylbenzene (Liquid); method: Differential ebulliometry
Temperature, K	Activity coefficient of ethylbenzene	uncertainty
308.15	12.8	0.2
318.15	12.2	0.2
328.15	11.8	0.2
337.15	11.4	0.2

System: ethanol + ethylbenzene; phases: Liquid, Gas
Fixed: Mole fraction of ethanol = 0
Property: Activity coefficient of ethanol (Liquid); method: Chromatography
Temperature, K	Activity coefficient of ethanol	uncertainty
293.15	20.1	0.8
303.15	16.2	0.7
313.15	13.7	0.7
323.15	11.2	0.4

System: ethanol + ethylbenzene; phases: Liquid, Gas
Fixed: Mole fraction of ethylbenzene = 0
Property: Activity coefficient of ethylbenzene (Liquid); method: Differential ebulliometry
Temperature, K	Activity coefficient of ethylbenzene	uncertainty
323.15	6.86	0.14
333.15	6.53	0.14
343.15	6.19	0.12
351.15	5.9	0.12

System: propan-1-ol + ethylbenzene; phases: Liquid, Gas
Fixed: Mole fraction of propan-1-ol = 0
Property: Activity coefficient of propan-1-ol (Liquid); method: Chromatography
Temperature, K	Activity coefficient of propan-1-ol	uncertainty
293.15	15.8	0.8
303.15	12.9	0.7
313.15	10.3	0.7
323.15	8.7	0.44

System: propan-1-ol + ethylbenzene; phases: Liquid, Gas
Fixed: Mole fraction of ethylbenzene = 0
Property: Activity coefficient of ethylbenzene (Liquid); method: Differential ebulliometry
Temperature, K	Activity coefficient of ethylbenzene	uncertainty
343.15	4.48	0.08
353.15	4.21	0.08
363.15	3.98	0.08
370.15	3.8	0.08

System: butan-1-ol + ethylbenzene; phases: Liquid, Gas
Fixed: Mole fraction of butan-1-ol = 0
Property: Activity coefficient of butan-1-ol (Liquid); method: Chromatography
Temperature, K	Activity coefficient of butan-1-ol	uncertainty
303.15	11.8	0.6
313.15	9.49	0.5
323.15	7.63	0.39

System: butan-1-ol + ethylbenzene; phases: Liquid, Gas
Fixed: Mole fraction of butan-1-ol = 0
Property: Activity coefficient of butan-1-ol (Liquid); method: Differential ebulliometry
Temperature, K	Activity coefficient of butan-1-ol	uncertainty
398.15	2.55	0.26
409.15	2.24	0.14

System: butan-1-ol + ethylbenzene; phases: Liquid, Gas
Property: Activity coefficient of ethylbenzene (Liquid); method: Chromatography
Temperature, K	Mole fraction of ethylbenzene	Activity coefficient of ethylbenzene	uncertainty
323.15	0	3.84	0.15

System: butan-1-ol + ethylbenzene; phases: Liquid, Gas
Fixed: Mole fraction of ethylbenzene = 0
Property: (Relative) activity of ethylbenzene (Liquid); method: Differential ebulliometry
Temperature, K	(Relative) activity of ethylbenzene	uncertainty
363.15	3.24	0.06
373.15	3.05	0.06
383.15	2.78	0.06
390.15	2.67	0.06

System: pentan-1-ol + ethylbenzene; phases: Liquid, Gas
Fixed: Mole fraction of pentan-1-ol = 0
Property: Activity coefficient of pentan-1-ol (Liquid); method: Differential ebulliometry
Temperature, K	Activity coefficient of pentan-1-ol	uncertainty
368.15	3.62	0.08
378.15	3.19	0.06
388.15	2.89	0.06
398.15	2.57	0.06
409.15	2.29	0.06

System: pentan-1-ol + ethylbenzene; phases: Liquid, Gas
Property: Activity coefficient of ethylbenzene (Liquid); method: Chromatography
Temperature, K	Mole fraction of ethylbenzene	Activity coefficient of ethylbenzene	uncertainty
323.15	0	3.37	0.12

System: ethylbenzene + hexan-1-ol; phases: Liquid, Gas
Property: Activity coefficient of ethylbenzene (Liquid); method: Chromatography
Temperature, K	Mole fraction of ethylbenzene	Activity coefficient of ethylbenzene	uncertainty
323.15	0	2.77	0.11

System: ethylbenzene + hexan-1-ol; phases: Liquid, Gas
Fixed: Mole fraction of hexan-1-ol = 0
Property: Activity coefficient of hexan-1-ol (Liquid); method: Differential ebulliometry
Temperature, K	Activity coefficient of hexan-1-ol	uncertainty
368.15	3.25	0.06
378.15	2.95	0.18
388.15	2.62	0.06
398.15	2.43	0.1
409.15	2.11	0.04
