Measured thermophysical data. Isobaric vapor-liquid equilibrium for binary system of cinnamaldehyde + benzaldehyde at 10, 20 and 30 kPa
Source: Fluid Phase Equilib., 2014, 10.1016/j.fluid.2013.12.002
Compound 1: (E)-3-phenyl-2-propanal, C9H8O, InChI=1S/C9H8O/c10-8-4-7-9-5-2-1-3-6-9/h1-8H, purity 98%
Compound 2: benzaldehyde, C7H6O, InChI=1S/C7H6O/c8-6-7-4-2-1-3-5-7/h1-6H, purity 98.5%
Compound 3: benzene, C6H6, InChI=1S/C6H6/c1-2-4-6-5-3-1/h1-6H, purity 99.5%
Compound 4: toluene, C7H8, InChI=1S/C7H8/c1-7-5-3-2-4-6-7/h2-6H,1H3, purity 99.5%

System: (E)-3-phenyl-2-propanal; phases: Liquid, Gas
Property: Vapor or sublimation pressure, kPa (Liquid); method: Ebulliometric method (Recirculating still)
Temperature, K	Vapor or sublimation pressure, kPa	uncertainty
442.84	10	0.155
463.15	20	0.33
475.83	30	0.495

System: benzaldehyde; phases: Liquid, Gas
Property: Vapor or sublimation pressure, kPa (Liquid); method: Ebulliometric method (Recirculating still)
Temperature, K	Vapor or sublimation pressure, kPa	uncertainty
377.63	10	0.15
396.65	20	0.31
408.67	30	0.45

System: benzene; phases: Liquid, Gas
Property: Vapor or sublimation pressure, kPa (Liquid); method: Ebulliometric method (Recirculating still)
Temperature, K	Vapor or sublimation pressure, kPa	uncertainty
353.26	101.33	1.43

System: toluene; phases: Liquid, Gas
Property: Vapor or sublimation pressure, kPa (Liquid); method: Ebulliometric method (Recirculating still)
Temperature, K	Vapor or sublimation pressure, kPa	uncertainty
383.81	101.33	1.43

System: benzene + toluene; phases: Liquid, Gas
Fixed: Pressure, kPa = 101.33
Property: Boiling temperature at pressure P, K (Liquid); method: Ebulliometric method (Recirculating still)
Mole fraction of benzene	Boiling temperature at pressure P, K	uncertainty
1	353.26	0.29
0.9552	354.16	0.32
0.8716	355.94	0.32
0.7921	357.63	0.32
0.7223	359.32	0.32
0.6604	360.86	0.31
0.5659	363.37	0.31
0.4942	365.36	0.31
0.4162	367.78	0.31
0.3214	370.97	0.3
0.2219	374.56	0.3
0.1061	379.14	0.31
0	383.81	0.29

System: benzene + toluene; phases: Gas, Liquid
Fixed: Pressure, kPa = 101.33
Property: Mole fraction of benzene (Gas); method: Chromatography
Mole fraction of benzene	Mole fraction of benzene	uncertainty
1	1	
0.9552	0.9834	0.0069
0.8716	0.9457	0.0067
0.7921	0.9075	0.0066
0.7223	0.8671	0.0064
0.6604	0.8318	0.0063
0.5659	0.7661	0.0061
0.4942	0.711	0.0061
0.4162	0.6393	0.0061
0.3214	0.5357	0.0061
0.2219	0.4062	0.0054
0.1061	0.2203	0.0046
0	0	

System: benzaldehyde + (E)-3-phenyl-2-propanal; phases: Liquid, Gas
Property: Boiling temperature at pressure P, K (Liquid); method: Ebulliometric method (Recirculating still)
Mole fraction of (E)-3-phenyl-2-propanal	Pressure, kPa	Boiling temperature at pressure P, K	uncertainty
1	10	442.84	0.31
0.9458	10	432.52	1.06
0.8769	10	422.44	0.8
0.8177	10	415.99	0.64
0.7474	10	408.89	0.51
0.6328	10	400.85	0.39
0.5441	10	397.02	0.36
0.4643	10	392.03	0.34
0.3402	10	387.49	0.31
0.2655	10	385.87	0.31
0.1832	10	382.36	0.3
0.1103	10	381.05	0.29
0.0603	10	380.34	0.3
0	10	377.63	0.3
1	20	463.15	0.33
0.9621	20	456.72	1.05
0.9063	20	448.48	0.84
0.7911	20	434.63	0.36
0.7721	20	433.18	0.49
0.7203	20	428.74	0.48
0.6454	20	422.86	0.43
0.5188	20	415.23	0.37
0.4656	20	413.16	0.35
0.3415	20	407.83	0.34
0.2756	20	405.18	0.32
0.1578	20	400.92	0.32
0.0654	20	398.39	0.31
0	20	396.65	0.31
1	30	475.83	0.33
0.9612	30	469.67	0.94
0.8823	30	459.19	0.79
0.7911	30	448.74	0.63
0.6999	30	440.46	0.51
0.6442	30	436.52	0.45
0.6049	30	433.87	0.42
0.558	30	430.88	0.39
0.4782	30	426.84	0.36
0.3402	30	420.48	0.33
0.2794	30	418.12	0.33
0.1578	30	412.94	0.32
0.0603	30	410.5	0.31
0	30	408.67	0.3

System: benzaldehyde + (E)-3-phenyl-2-propanal; phases: Gas, Liquid
Property: Mole fraction of (E)-3-phenyl-2-propanal (Gas); method: Chromatography
Mole fraction of (E)-3-phenyl-2-propanal	Pressure, kPa	Mole fraction of (E)-3-phenyl-2-propanal	uncertainty
1	10	1	
0.9458	10	0.6218	0.0314
0.8769	10	0.3821	0.0165
0.8177	10	0.2727	0.0087
0.7474	10	0.1879	0.0048
0.6328	10	0.1151	0.0031
0.5441	10	0.0853	0.0024
0.4643	10	0.0623	0.0022
0.3402	10	0.0386	0.0021
0.2655	10	0.0282	0.002
0.1832	10	0.0181	0.002
0.1103	10	0.0104	0.002
0.0603	10	0.0056	0.002
0	10	0	
1	20	1	
0.9621	20	0.7581	0.0319
0.9063	20	0.5307	0.0181
0.7911	20	0.2799	0.0074
0.7721	20	0.2578	0.0062
0.7203	20	0.2059	0.0046
0.6454	20	0.1547	0.0033
0.5188	20	0.0945	0.0026
0.4656	20	0.0781	0.0023
0.3415	20	0.0467	0.0021
0.2756	20	0.0343	0.002
0.1578	20	0.0171	0.002
0.0654	20	0.0068	0.002
0	20	0	
1	30	1	
0.9612	30	0.7852	0.0266
0.8823	30	0.5056	0.0175
0.7911	30	0.3245	0.009
0.6999	30	0.2198	0.0055
0.6442	30	0.1751	0.004
0.6049	30	0.1498	0.0034
0.558	30	0.1238	0.0028
0.4782	30	0.0898	0.0024
0.3402	30	0.0496	0.0021
0.2794	30	0.037	0.0021
0.1578	30	0.0172	0.002
0.0603	30	0.0058	0.002
0	30	0	
