Measured thermophysical data. Solubility, liquid-liquid equilibrium and critical states for the quaternary system formic acid - ethanol - ethyl formate - water at 298.15 K and 308.15 K
Source: Fluid Phase Equilib., 2019, 10.1016/j.fluid.2018.12.024
Compound 1: ethyl methanoate, C3H6O2, InChI=1S/C3H6O2/c1-2-5-3-4/h3H,2H2,1H3, purity 99.4%
Compound 2: formic acid, CH2O2, InChI=1S/CH2O2/c2-1-3/h1H,(H,2,3), purity 99.6%
Compound 3: ethanol, C2H6O, InChI=1S/C2H6O/c1-2-3/h3H,2H2,1H3
Compound 4: water, H2O, InChI=1S/H2O/h1H2

System: ethanol + ethyl methanoate + water; phases: Liquid mixture 1, Liquid mixture 2
Fixed: Pressure, kPa = 101
Property: Mole fraction of ethyl methanoate (Liquid mixture 1); method: Titration method
Temperature, K	Mole fraction of ethanol	Mole fraction of ethyl methanoate	uncertainty
298.15	0.104	0.679	0.042
298.15	0.153	0.545	0.032
298.15	0.177	0.453	0.067
298.15	0.181	0.425	0.22
298.15	0.186	0.395	0.184
298.15	0.19	0.357	0.133
298.15	0.186	0.312	0.101
298.15	0.187	0.284	0.169
298.15	0.18	0.225	0.087
298.15	0.176	0.212	0.099
298.15	0.172	0.2	0.105
298.15	0.17	0.184	0.042
298.15	0.162	0.15	0.04
298.15	0.157	0.133	0.031
298.15	0.149	0.11	0.028
298.15	0.137	0.086	0.086
298.15	0.129	0.07	0.07
298.15	0.094	0.04	0.04
308.15	0.03	0.786	0.021
308.15	0.076	0.706	0.087
308.15	0.109	0.638	0.112
308.15	0.133	0.588	0.035
308.15	0.148	0.532	0.137
308.15	0.162	0.48	0.289
308.15	0.167	0.443	0.18
308.15	0.169	0.391	0.15
308.15	0.171	0.352	0.097
308.15	0.17	0.322	0.08
308.15	0.167	0.285	0.059
308.15	0.162	0.254	0.063
308.15	0.158	0.227	0.065
308.15	0.154	0.21	0.057
308.15	0.152	0.192	0.061
308.15	0.146	0.173	0.147
308.15	0.13	0.121	0.029
308.15	0.119	0.1	0.1
308.15	0.108	0.079	0.079

System: ethanol + ethyl methanoate + water; phases: Liquid mixture 2, Liquid mixture 1
Fixed: Pressure, kPa = 101
Property: Mole fraction of ethanol (Liquid mixture 2); method: NMR
Property: Mole fraction of ethanol (Liquid mixture 1); method: NMR
Property: Mole fraction of ethyl methanoate (Liquid mixture 1); method: NMR
Temperature, K	Mole fraction of ethyl methanoate	Mole fraction of ethanol	uncertainty	Mole fraction of ethanol	uncertainty	Mole fraction of ethyl methanoate	uncertainty
298.15	0.774	0.037	0.012	0.029	0.029	0.016	
308.15	0.752	0.045	0.012	0.024	0.024	0.013	
308.15	0.689	0.079	0.011	0.034	0.029	0.018	
308.15	0.604	0.121	0.011	0.056	0.018	0.021	
298.15	0.835	0		0		0.017	
308.15	0.825	0		0		0.02	
308.15	0.518	0.155	0.011	0.072	0.018	0.032	
298.15	0.116	0.148	0.011	0.148	0.011	0.116	
308.15	0.139	0.145	0.011	0.145	0.012	0.139	
308.15	0.379	0.17	0.011	0.093	0.022	0.04	
298.15	0.712	0.075	0.011	0.047	0.03	0.022	
298.15	0.606	0.12	0.011	0.069	0.029	0.026	
298.15	0.48	0.152	0.011	0.092	0.038	0.029	
298.15	0.358	0.174	0.011	0.12	0.012	0.048	

System: formic acid + ethyl methanoate + water; phases: Liquid mixture 1, Liquid mixture 2
Fixed: Pressure, kPa = 101
Property: Mole fraction of ethyl methanoate (Liquid mixture 1); method: NMR
Temperature, K	Mole fraction of formic acid	Mole fraction of ethyl methanoate	uncertainty
298.15	0.013	0.793	0.032
298.15	0.054	0.67	0.108
298.15	0.09	0.561	0.153
298.15	0.1	0.486	0.188
298.15	0.114	0.414	0.203
298.15	0.119	0.35	0.111
298.15	0.119	0.285	0.075
298.15	0.12	0.256	0.071
298.15	0.114	0.219	0.054
298.15	0.113	0.204	0.046
298.15	0.11	0.186	0.116
298.15	0.101	0.151	0.151
298.15	0.098	0.135	0.036
298.15	0.093	0.117	0.036
298.15	0.082	0.09	0.022
298.15	0.07	0.075	0.075
308.15	0.044	0.76	0.031
308.15	0.06	0.714	0.038
308.15	0.073	0.655	0.173
308.15	0.099	0.534	0.063
308.15	0.104	0.483	0.289
308.15	0.108	0.443	0.232
308.15	0.11	0.415	0.109
308.15	0.11	0.368	0.151
308.15	0.108	0.312	0.113
308.15	0.107	0.269	0.082
308.15	0.099	0.2	0.085
308.15	0.097	0.188	0.129
308.15	0.093	0.166	0.079

System: formic acid + ethyl methanoate + water; phases: Liquid mixture 2, Liquid mixture 1
Fixed: Pressure, kPa = 101
Property: Mole fraction of formic acid (Liquid mixture 2); method: NMR
Property: Mole fraction of formic acid (Liquid mixture 1); method: NMR
Property: Mole fraction of ethyl methanoate (Liquid mixture 1); method: NMR
Temperature, K	Mole fraction of ethyl methanoate	Mole fraction of formic acid	uncertainty	Mole fraction of formic acid	uncertainty	Mole fraction of ethyl methanoate	uncertainty
298.15	0.735	0.029	0.01	0.032	0.013	0.022	
308.15	0.825	0		0		0.02	
298.15	0.636	0.06	0.01	0.05	0.012	0.042	
298.15	0.5	0.095	0.01	0.076	0.011	0.096	
308.15	0.798	0.03	0.015	0.024	0.024	0.022	
308.15	0.685	0.069	0.01	0.053	0.017	0.032	
308.15	0.545	0.098	0.01	0.076	0.014	0.057	
298.15	0.206	0.105	0.01	0.105	0.011	0.206	
308.15	0.226	0.102	0.01	0.102	0.01	0.226	
298.15	0.835	0		0		0.017	
