Measured thermophysical data. Solubility of L-asparagine monohydrate in water and water-isopropanol mixed solvents: Measurements and thermodynamic modelling
Source: Fluid Phase Equilib., 2016, 10.1016/j.fluid.2015.12.040
Compound 1: L-asparagine monohydrate, C4H10N2O4, InChI=1S/C4H8N2O3.H2O/c5-2(4(8)9)1-3(6)7;/h2H,1,5H2,(H2,6,7)(H,8,9);1H2/t2-;/m0./s1, purity 99%
Compound 2: propan-2-ol, C3H8O, InChI=1S/C3H8O/c1-3(2)4/h3-4H,1-2H3, purity 99.8%
Compound 3: water, H2O, InChI=1S/H2O/h1H2, purity 99.8%

System: L-asparagine monohydrate; phases: Crystal, Liquid, Air at 1 atmosphere
Property: Molar enthalpy of transition or fusion, kJ/mol (Crystal); method: DSC
Molar enthalpy of transition or fusion, kJ/mol	uncertainty
135.029872032	13.722181792

System: L-asparagine monohydrate; phases: Crystal, Liquid, Air at 1 atmosphere
Property: Normal melting temperature, K (Crystal); method: DTA
Normal melting temperature, K	uncertainty
511.75	0.4

System: propan-2-ol + L-asparagine monohydrate + water; phases: Liquid, Crystal
Fixed: Pressure, kPa = 101.325
Property: Mass ratio of solute to solvent of L-asparagine monohydrate (Liquid); method: gravimetric method
Solvent: Mole fraction of propan-2-ol	Temperature, K	Mass ratio of solute to solvent of L-asparagine monohydrate	uncertainty
0	298.15	0.02785	0.001116
0	303.15	0.03577	0.001433
0	308.15	0.04574	0.001833
0	313.15	0.05824	0.002334
0	318.15	0.073	0.002925
0	323.15	0.08754	0.003507
0	333.15	0.129126	0.005173
0.1	298.15	0.01551	0.000621
0.1	303.15	0.020937	0.000839
0.1	308.15	0.028186	0.001129
0.1	313.15	0.034	0.001362
0.1	318.15	0.0415	0.001663
0.1	323.15	0.049354	0.001978
0.1	333.15	0.08112	0.00325
0.2	298.15	0.00945	0.000379
0.2	303.15	0.011783	0.000472
0.2	308.15	0.01635	0.000655
0.2	313.15	0.021	0.000841
0.2	318.15	0.02591	0.001038
0.2	323.15	0.029312	0.001175
0.2	333.15	0.0482	0.001931
0.3	298.15	0.005142	0.000206
0.3	303.15	0.006509	0.000261
0.3	308.15	0.0099	0.000397
0.3	313.15	0.01287	0.000516
0.3	318.15	0.017211	0.00069
0.3	323.15	0.0186	0.000745
0.3	333.15	0.03007	0.001205
0.4	298.15	0.003427	0.000137
0.4	303.15	0.004121	0.000165
0.4	308.15	0.005662	0.000227
0.4	313.15	0.0077	0.000309
0.4	318.15	0.009925	0.000398
0.4	323.15	0.011899	0.000477
0.4	333.15	0.017797	0.000713
0.5	298.15	0.001896	7.6e-05
0.5	303.15	0.002337	9.4e-05
0.5	308.15	0.003089	0.000124
0.5	313.15	0.004287	0.000172
0.5	318.15	0.005318	0.000213
0.5	323.15	0.007804	0.000313
0.5	333.15	0.010125	0.000406
0.6	298.15	0.001024	4.1e-05
0.6	303.15	0.001418	5.7e-05
0.6	308.15	0.001749	7e-05
0.6	313.15	0.002314	9.3e-05
0.6	318.15	0.00257	0.000103
0.6	323.15	0.00382	0.000153
0.6	333.15	0.00527	0.000211
0.8	298.15	0.000114	5e-06
0.8	303.15	0.000164	7e-06
0.8	308.15	0.000205	8e-06
0.8	313.15	0.000275	1.1e-05
0.8	318.15	0.000336	1.3e-05
0.8	323.15	0.000408	1.6e-05
0.8	333.15	0.000631	2.5e-05
