Measured thermophysical data. Separation of acetonitrile + ethanol mixture using imidazolium - Based ionic liquids as entrainers
Source: Fluid Phase Equilib., 2018, 10.1016/j.fluid.2018.06.017
Compound 1: acetonitrile, C2H3N, InChI=1S/C2H3N/c1-2-3/h1H3, purity 99%
Compound 2: ethanol, C2H6O, InChI=1S/C2H6O/c1-2-3/h3H,2H2,1H3, purity 99.8%
Compound 3: 1,3-dimethylimidazolium dimethylphosphate, C7H15N2O4P, InChI=1S/C5H9N2.C2H7O4P/c1-6-3-4-7(2)5-6;1-5-7(3,4)6-2/h3-5H,1-2H3;1-2H3,(H,3,4)/q+1;/p-1
Compound 4: 1-ethyl-3-methylimidazolium diethyl phosphate, C10H21N2O4P, InChI=1S/C6H11N2.C4H11O4P/c1-3-8-5-4-7(2)6-8;1-3-7-9(5,6)8-4-2/h4-6H,3H2,1-2H3;3-4H2,1-2H3,(H,5,6)/q+1;/p-1
Compound 5: 1-butyl-3-methylimidazolium dibutyl phosphate, C16H33N2O4P, InChI=1S/C8H15N2.C8H19O4P/c1-3-4-5-10-7-6-9(2)8-10;1-3-5-7-11-13(9,10)12-8-6-4-2/h6-8H,3-5H2,1-2H3;3-8H2,1-2H3,(H,9,10)/q+1;/p-1

System: acetonitrile + ethanol; phases: Liquid, Gas
Fixed: Pressure, kPa = 101.3
Property: Boiling temperature at pressure P, K (Liquid); method: Ebulliometric method (Recirculating still)
Mole fraction of acetonitrile	Boiling temperature at pressure P, K	uncertainty
0	351.45	0.21
0.03	350.15	0.22
0.087	348.65	0.22
0.135	347.52	0.22
0.222	346.65	0.22
0.325	346.1	0.22
0.413	345.85	0.22
0.539	346	0.22
0.627	346.35	0.22
0.711	346.84	0.22
0.79	347.89	0.22
0.854	348.95	0.22
0.938	351.35	0.23
0.96	352.25	0.24
1	354.3	0.22

System: acetonitrile + ethanol; phases: Gas, Liquid
Fixed: Pressure, kPa = 101.3
Property: Mole fraction of acetonitrile (Gas); method: Chromatography
Mole fraction of acetonitrile	Mole fraction of acetonitrile	uncertainty
0	0	
0.03	0.076	0.005
0.087	0.179	0.004
0.135	0.24	0.004
0.222	0.322	0.004
0.325	0.39	0.004
0.413	0.434	0.005
0.539	0.494	0.005
0.627	0.542	0.005
0.711	0.593	0.005
0.79	0.656	0.005
0.854	0.723	0.005
0.938	0.85	0.004
0.96	0.895	0.006
1	1	

System: acetonitrile + ethanol + 1,3-dimethylimidazolium dimethylphosphate; phases: Liquid, Gas
Fixed: Pressure, kPa = 101.3
Property: Mole fraction of 1,3-dimethylimidazolium dimethylphosphate (Liquid); method: Chromatography
Property: Mole fraction of 1,3-dimethylimidazolium dimethylphosphate (Gas); method: Chromatography
Property: Mole fraction of acetonitrile (Gas); method: Chromatography
Temperature, K	Mole fraction of acetonitrile	Mole fraction of 1,3-dimethylimidazolium dimethylphosphate	uncertainty	Mole fraction of 1,3-dimethylimidazolium dimethylphosphate	uncertainty	Mole fraction of acetonitrile	uncertainty
350.75	0.028	0.019	0.002	0		0.069	
349.79	0.057	0.021	0.002	0		0.126	
348.4	0.113	0.02	0.002	0		0.215	
347.17	0.198	0.02	0.002	0		0.308	
346.28	0.283	0.018	0.002	0		0.374	
345.9	0.396	0.019	0.002	0		0.444	
346.05	0.509	0.02	0.002	0		0.507	
346.59	0.621	0.02	0.002	0		0.573	
347.52	0.706	0.021	0.002	0		0.638	
348.93	0.79	0.021	0.002	0		0.723	
350.21	0.848	0.02	0.002	0		0.781	
350.94	0.877	0.019	0.002	0		0.816	
351.89	0.904	0.02	0.002	0		0.86	
352.95	0.932	0.02	0.002	0		0.905	
351.55	0.031	0.05	0.002	0		0.072	
350.69	0.062	0.051	0.002	0		0.132	
349.28	0.125	0.051	0.002	0		0.225	
348.35	0.187	0.05	0.002	0		0.294	
347.55	0.28	0.05	0.002	0		0.378	
347.15	0.373	0.051	0.002	0		0.443	
347.28	0.466	0.05	0.002	0		0.511	
347.75	0.56	0.051	0.002	0		0.581	
348.3	0.623	0.051	0.002	0		0.63	
349.73	0.716	0.05	0.002	0		0.714	
350.95	0.779	0.05	0.002	0		0.781	
351.72	0.81	0.049	0.002	0		0.818	
352.68	0.841	0.049	0.002	0		0.861	
353.6	0.872	0.05	0.002	0		0.9	
354.35	0.023	0.101	0.002	0		0.052	
353.68	0.046	0.101	0.002	0		0.098	
352.55	0.092	0.102	0.002	0		0.175	
351.2	0.161	0.102	0.002	0		0.271	
350.63	0.208	0.1	0.002	0		0.324	
349.85	0.301	0.1	0.002	0		0.418	
349.8	0.392	0.101	0.002	0		0.505	
350.15	0.461	0.102	0.002	0		0.57	
350.97	0.553	0.102	0.002	0		0.663	
352.15	0.646	0.1	0.002	0		0.757	
353.55	0.715	0.101	0.002	0		0.837	
355.1	0.785	0.1	0.002	0		0.911	
356.35	0.831	0.1	0.002	0		0.956	
357.06	0.853	0.101	0.002	0		0.973	

System: acetonitrile + ethanol + 1-ethyl-3-methylimidazolium diethyl phosphate; phases: Liquid, Gas
Fixed: Pressure, kPa = 101.3
Property: Mole fraction of 1-ethyl-3-methylimidazolium diethyl phosphate (Liquid); method: Chromatography
Property: Mole fraction of 1-ethyl-3-methylimidazolium diethyl phosphate (Gas); method: Chromatography
Property: Mole fraction of acetonitrile (Gas); method: Chromatography
Temperature, K	Mole fraction of acetonitrile	Mole fraction of 1-ethyl-3-methylimidazolium diethyl phosphate	uncertainty	Mole fraction of 1-ethyl-3-methylimidazolium diethyl phosphate	uncertainty	Mole fraction of acetonitrile	uncertainty
350.95	0.025	0.02	0.002	0		0.062	
350.05	0.052	0.021	0.002	0		0.12	
348.1	0.125	0.019	0.002	0		0.237	
346.85	0.211	0.018	0.002	0		0.32	
346.25	0.304	0.02	0.002	0		0.389	
345.92	0.388	0.019	0.002	0		0.436	
346.08	0.493	0.021	0.002	0		0.497	
346.35	0.581	0.02	0.002	0		0.544	
347.17	0.672	0.02	0.002	0		0.613	
348.3	0.751	0.021	0.002	0		0.68	
349.48	0.814	0.02	0.002	0		0.748	
350.56	0.863	0.018	0.002	0		0.796	
351.8	0.898	0.02	0.002	0		0.854	
352.75	0.926	0.019	0.002	0		0.898	
352.35	0.021	0.05	0.002	0		0.053	
351.35	0.042	0.05	0.002	0		0.099	
349.48	0.113	0.051	0.002	0		0.223	
348.1	0.2	0.049	0.002	0		0.32	
347.35	0.277	0.05	0.002	0		0.386	
347.1	0.363	0.051	0.002	0		0.45	
347.15	0.449	0.05	0.002	0		0.51	
347.58	0.543	0.05	0.002	0		0.58	
348.45	0.634	0.05	0.002	0		0.654	
349.55	0.702	0.05	0.002	0		0.717	
350.88	0.767	0.051	0.002	0		0.787	
352.05	0.816	0.05	0.002	0		0.844	
353.18	0.862	0.049	0.002	0		0.898	
354.05	0.887	0.05	0.002	0		0.934	
354.76	0.908	0.051	0.002	0		0.961	
354.4	0.014	0.1	0.002	0		0.035	
353.95	0.031	0.1	0.002	0		0.076	
352.35	0.096	0.101	0.002	0		0.203	
351.25	0.154	0.102	0.002	0		0.285	
350.18	0.233	0.101	0.002	0		0.377	
349.55	0.318	0.1	0.002	0		0.466	
349.6	0.409	0.101	0.002	0		0.548	
350	0.483	0.101	0.002	0		0.615	
350.65	0.558	0.1	0.002	0		0.687	
351.78	0.632	0.102	0.002	0		0.775	
352.75	0.696	0.101	0.002	0		0.842	
353.85	0.753	0.1	0.002	0		0.899	
354.67	0.789	0.101	0.002	0		0.936	
355.53	0.824	0.1	0.002	0		0.963	

System: acetonitrile + ethanol + 1-butyl-3-methylimidazolium dibutyl phosphate; phases: Liquid, Gas
Fixed: Pressure, kPa = 101.3
Property: Mole fraction of 1-butyl-3-methylimidazolium dibutyl phosphate (Liquid); method: Chromatography
Property: Mole fraction of 1-butyl-3-methylimidazolium dibutyl phosphate (Gas); method: Chromatography
Property: Mole fraction of acetonitrile (Gas); method: Chromatography
Temperature, K	Mole fraction of acetonitrile	Mole fraction of 1-butyl-3-methylimidazolium dibutyl phosphate	uncertainty	Mole fraction of 1-butyl-3-methylimidazolium dibutyl phosphate	uncertainty	Mole fraction of acetonitrile	uncertainty
350.7	0.031	0.02	0.002	0		0.079	
349.88	0.049	0.019	0.002	0		0.116	
348.15	0.125	0.018	0.002	0		0.233	
346.95	0.205	0.02	0.002	0		0.317	
346.15	0.292	0.019	0.002	0		0.383	
345.9	0.389	0.019	0.002	0		0.446	
346	0.483	0.02	0.002	0		0.498	
346.46	0.592	0.021	0.002	0		0.569	
347.1	0.664	0.021	0.002	0		0.617	
348.18	0.748	0.02	0.002	0		0.679	
349.45	0.81	0.021	0.002	0		0.748	
350.67	0.864	0.019	0.002	0		0.801	
351.8	0.901	0.019	0.002	0		0.854	
352.85	0.926	0.021	0.002	0		0.903	
351.55	0.038	0.05	0.002	0		0.092	
350.75	0.054	0.05	0.002	0		0.127	
349.1	0.12	0.049	0.002	0		0.229	
348.05	0.182	0.051	0.002	0		0.303	
347.15	0.281	0.051	0.002	0		0.397	
346.85	0.361	0.05	0.002	0		0.457	
346.97	0.466	0.049	0.002	0		0.526	
347.55	0.556	0.051	0.002	0		0.601	
348.45	0.645	0.049	0.002	0		0.67	
349.58	0.714	0.05	0.002	0		0.734	
350.65	0.767	0.05	0.002	0		0.787	
351.98	0.817	0.051	0.002	0		0.848	
352.93	0.856	0.049	0.002	0		0.888	
353.88	0.885	0.05	0.002	0		0.926	
354.7	0.907	0.051	0.002	0		0.957	
353.45	0.025	0.101	0.002	0		0.064	
352.87	0.043	0.1	0.002	0		0.105	
350.9	0.123	0.1	0.002	0		0.245	
349.95	0.177	0.101	0.002	0		0.32	
349.05	0.262	0.1	0.002	0		0.417	
348.72	0.34	0.1	0.002	0		0.494	
348.95	0.424	0.102	0.002	0		0.575	
349.35	0.504	0.101	0.002	0		0.653	
350.3	0.59	0.1	0.002	0		0.74	
351.33	0.655	0.101	0.002	0		0.806	
352.45	0.713	0.101	0.002	0		0.869	
353.5	0.761	0.1	0.002	0		0.91	
354.65	0.801	0.102	0.002	0		0.948	
355.85	0.841	0.101	0.002	0		0.973	
