Measured thermophysical data. Solid-liquid metastable phase equilibria for the ternary system (Li2SO4 + K2SO4 + H2O) at 288.15 and 323.15 K and p = 0.1 MPa
Source: Fluid Phase Equilib., 2015, 10.1016/j.fluid.2015.05.044
Compound 1: water, H2O, InChI=1S/H2O/h1H2, purity 99.9%
Compound 2: potassium sulfate, K2O4S, InChI=1S/2K.H2O4S/c;;1-5(2,3)4/h;;(H2,1,2,3,4)/q2*+1;/p-2, purity 99%
Compound 3: lithium sulfate, Li2O4S, InChI=1S/2Li.H2O4S/c;;1-5(2,3)4/h;;(H2,1,2,3,4)/q2*+1;/p-2, purity 99%

System: water + potassium sulfate + lithium sulfate; phases: Liquid
Fixed: Temperature, K = 288.15
Fixed: Pressure, kPa = 100
Property: Refractive index (Na D-line) (Liquid); method: Standard Abbe refractometry
Mass fraction of potassium sulfate	Mass fraction of lithium sulfate	Refractive index (Na D-line)	uncertainty
0	0.269	1.3863	0.0004
0.015	0.2682	1.387	0.0005
0.024	0.2661	1.3886	0.0006
0.029	0.2401	1.3842	0.0005
0.0418	0.2054	1.3797	0.0005
0.0558	0.1773	1.3761	0.0005
0.0617	0.1702	1.3758	0.0005
0.074	0.154	1.3739	0.0005
0.0922	0.1372	1.3731	0.0004
0.0988	0.13	1.3717	0.0007
0.1009	0.1271	1.3719	0.0008
0.1072	0.0749	1.3646	0.0005
0.104	0.0551	1.3605	0.0004
0.1041	0.0361	1.3575	0.0004
0.1012	0	1.3516	0.0004

System: water + potassium sulfate + lithium sulfate; phases: Liquid
Fixed: Temperature, K = 323.15
Fixed: Pressure, kPa = 100
Property: Refractive index (Na D-line) (Liquid); method: Standard Abbe refractometry
Mass fraction of potassium sulfate	Mass fraction of lithium sulfate	Refractive index (Na D-line)	uncertainty
0	0.2558	1.3762	0.0004
0.0158	0.2573	1.3764	0.0004
0.0313	0.2565	1.3763	0.0004
0.041	0.208	1.3724	0.0016
0.0476	0.1964	1.3677	0.0023
0.049	0.1908	1.3676	0.0006
0.06	0.1719	1.3655	0.0004
0.0625	0.163	1.3641	0.0005
0.0733	0.1442	1.3623	0.0004
0.0808	0.1411	1.3622	0.0004
0.0892	0.1321	1.3596	0.0005
0.0936	0.1305	1.3598	0.0004
0.1125	0.1135	1.3594	0.0005
0.1305	0.0936	1.3596	0.0004
0.1321	0.0892	1.3598	0.0004
0.1414	0.0836	1.3596	0.0006
0.1428	0.0833	1.3596	0.0007
0.149	0.0788	1.3604	0.0006
0.1479	0.0561	1.3551	0.0005
0.1485	0.0555	1.3557	0.0005
0.1537	0.0326	1.3526	0.0005
0.1529	0	1.3463	0.0004

System: water + potassium sulfate + lithium sulfate; phases: Liquid
Fixed: Temperature, K = 288.15
Fixed: Pressure, kPa = 100
Property: Mass density, kg/m3 (Liquid); method: Vibrating tube method
Mass fraction of potassium sulfate	Mass fraction of lithium sulfate	Mass density, kg/m3	uncertainty
0	0.269	1250.42	0.41
0.015	0.2682	1258.39	1.77
0.024	0.2661	1266.01	2.36
0.029	0.2401	1243.93	1.84
0.0418	0.2054	1220.34	1.4
0.0558	0.1773	1201.99	2.21
0.0617	0.1702	1201.15	2.21
0.074	0.154	1193.65	2.03
0.0922	0.1372	1194.94	1.08
0.0988	0.13	1189.49	2.39
0.1009	0.1271	1189.19	2.31
0.1072	0.0749	1148.63	2.2
0.104	0.0551	1125.02	1.52
0.1041	0.0361	1108.58	1.49
0.1012	0	1075.8	1.08

System: water + potassium sulfate + lithium sulfate; phases: Liquid
Fixed: Temperature, K = 323.15
Fixed: Pressure, kPa = 100
Property: Mass density, kg/m3 (Liquid); method: Vibrating tube method
Mass fraction of potassium sulfate	Mass fraction of lithium sulfate	Mass density, kg/m3	uncertainty
0	0.2558	1237.09	0.98
0.0158	0.2573	1247.13	1.61
0.0313	0.2565	1258.95	1.82
0.041	0.208	1223.98	1.62
0.049	0.1908	1205.37	9.89
0.06	0.1719	1195.95	2.42
0.0625	0.163	1198.67	2.42
0.0733	0.1442	1193.35	6.34
0.0781	0.1413	1181.67	6.34
0.0892	0.1321	1181.29	1.02
0.0936	0.1305	1181.18	0.99
0.1125	0.1135	1181.2	2.08
0.1305	0.0936	1181.29	0.68
0.1321	0.0892	1181.18	1.1
0.1414	0.0836	1185.06	1.65
0.1428	0.0833	1183.65	2.15
0.149	0.0788	1186.4	1.65
0.1479	0.0561	1166.43	2.5
0.1537	0.0326	1145.88	2.73
0.1529	0	1101.96	2.42

System: water + potassium sulfate + lithium sulfate; phases: Liquid, Crystal of intercomponent compound 1
Fixed: Pressure, kPa = 100
Fixed: Temperature, K = 288.15
Property: Mass fraction of lithium sulfate (Liquid); method: gravimetric methods using sodium tetraphenyl borate and barium chloride as the precipitators
Mass fraction of potassium sulfate	Mass fraction of lithium sulfate	uncertainty
0	0.269	0.0013
0.015	0.2682	0.0013

System: water + potassium sulfate + lithium sulfate; phases: Liquid, Crystal of intercomponent compound 2
Fixed: Pressure, kPa = 100
Fixed: Temperature, K = 288.15
Property: Mass fraction of lithium sulfate (Liquid); method: gravimetric methods using sodium tetraphenyl borate and barium chloride as the precipitators
Mass fraction of potassium sulfate	Mass fraction of lithium sulfate	uncertainty
0.029	0.2401	0.0051
0.0418	0.2054	0.0044
0.0558	0.1773	0.0035
0.0617	0.1702	0.0026
0.074	0.154	0.0023
0.0922	0.1372	0.0021
0.0988	0.13	0.0023

System: water + potassium sulfate + lithium sulfate; phases: Liquid, Crystal of intercomponent compound 2
Fixed: Pressure, kPa = 100
Fixed: Temperature, K = 323.15
Property: Mass fraction of lithium sulfate (Liquid); method: gravimetric methods using sodium tetraphenyl borate and barium chloride as the precipitators
Mass fraction of potassium sulfate	Mass fraction of lithium sulfate	uncertainty
0.0388	0.2154	0.0062
0.041	0.208	0.004
0.0476	0.1964	0.0037
0.049	0.1908	0.0036
0.06	0.1719	0.0066
0.0625	0.163	0.0066
0.0733	0.1442	0.0029
0.0781	0.1413	0.0014
0.0808	0.1411	0.002
0.0892	0.1321	0.002
0.0936	0.1305	0.0013
0.1125	0.1135	0.0022
0.1305	0.0936	0.0022
0.1321	0.0892	0.0023
0.1414	0.0836	0.0016
0.1428	0.0833	0.0015

System: water + potassium sulfate + lithium sulfate; phases: Liquid, Crystal
Fixed: Pressure, kPa = 100
Fixed: Temperature, K = 323.15
Property: Mass fraction of lithium sulfate (Liquid); method: gravimetric methods using sodium tetraphenyl borate and barium chloride as the precipitators
Mass fraction of potassium sulfate	Mass fraction of lithium sulfate	uncertainty
0.0561	0.1479	0.0013
0.0555	0.1485	0.0013
0.0326	0.1537	0.0012
0	0.1529	0.0012

System: water + potassium sulfate + lithium sulfate; phases: Liquid, Crystal of intercomponent compound 1
Fixed: Pressure, kPa = 100
Fixed: Temperature, K = 323.15
Property: Mass fraction of lithium sulfate (Liquid); method: gravimetric methods using sodium tetraphenyl borate and barium chloride as the precipitators
Mass fraction of potassium sulfate	Mass fraction of lithium sulfate	uncertainty
0	0.2558	0.0013
0.0158	0.2573	0.0013

System: water + potassium sulfate + lithium sulfate; phases: Liquid, Crystal
Fixed: Pressure, kPa = 100
Fixed: Temperature, K = 323.15
Property: Mass fraction of lithium sulfate (Liquid); method: gravimetric methods using sodium tetraphenyl borate and barium chloride as the precipitators
Mass fraction of potassium sulfate	Mass fraction of lithium sulfate	uncertainty
0.1072	0.0749	0.0012
0.104	0.0551	0.0011
0.1041	0.0361	0.0011
0.1012	0	
