Measured thermophysical data. Study of the behaviour of the azeotropic mixture ethanol water with imidazolium-based ionic liquids
Source: Fluid Phase Equilib., 2007, 10.1016/j.fluid.2007.03.021
Compound 1: ethanol, C2H6O, InChI=1S/C2H6O/c1-2-3/h3H,2H2,1H3
Compound 2: water, H2O, InChI=1S/H2O/h1H2
Compound 3: 1-hexyl-3-methylimidazolium chloride, C10H19ClN2, InChI=1S/C10H19N2.ClH/c1-3-4-5-6-7-12-9-8-11(2)10-12;/h8-10H,3-7H2,1-2H3;1H/q+1;/p-1

System: ethanol; phases: Liquid, Gas
Property: Normal boiling temperature, K (Liquid); method: Ebulliometric method (Recirculating still)
Normal boiling temperature, K	uncertainty
351.43	0.05

System: ethanol; phases: Liquid
Property: Mass density, kg/m3 (Liquid); method: Vibrating tube method
Temperature, K	Pressure, kPa	Mass density, kg/m3	uncertainty
298.15	101.325	785.45	0.13

System: ethanol; phases: Liquid
Property: Viscosity, Pa*s (Liquid); method: Capillary tube (Ostwald; Ubbelohde) method
Temperature, K	Pressure, kPa	Viscosity, Pa*s	uncertainty
298.15	101.325	0.001082	9e-06

System: ethanol + 1-hexyl-3-methylimidazolium chloride; phases: Liquid, Gas
Fixed: Pressure, kPa = 101
Property: Boiling temperature at pressure P, K (Liquid); method: EBULLIO:UFactor:8
Mole fraction of ethanol	Boiling temperature at pressure P, K	uncertainty
0.503	416.78	1.07
0.54	405.53	1.01
0.584	397	0.96
0.618	391.16	0.95
0.643	386.47	0.94
0.687	379.97	0.93
0.706	377.59	0.92
0.751	371.45	0.92
0.785	367.56	0.91
0.808	364.98	0.91
0.847	360.16	0.91
0.862	358.77	0.9
0.875	357.63	0.89
0.903	355.4	0.89
0.919	354.51	0.89
0.935	353.76	0.88
0.952	352.95	0.88
0.965	352.5	0.88
0.975	352.18	0.88
0.985	351.91	0.88
0.992	351.74	0.88
1	351.44	0.88

System: water + 1-hexyl-3-methylimidazolium chloride; phases: Liquid, Gas
Fixed: Pressure, kPa = 101
Property: Boiling temperature at pressure P, K (Liquid); method: EBULLIO:UFactor:8
Mole fraction of water	Boiling temperature at pressure P, K	uncertainty
0.58	415.51	0.92
0.64	407.59	0.91
0.74	396.05	0.91
0.803	389.3	0.91
0.847	384.09	0.91
0.894	379.15	0.9
0.909	377.8	0.9
0.917	376.9	0.9
0.925	376.39	0.89
0.931	375.97	0.89
0.934	375.7	0.89
0.941	375.37	0.89
0.947	374.98	0.88
0.952	374.83	0.88
0.961	374.51	0.88
0.965	374.39	0.88
0.986	373.69	0.88
0.99	373.59	0.88
0.994	373.48	0.88
0.996	373.38	0.88
0.998	373.3	0.88
1	373.15	0.88

System: ethanol + water + 1-hexyl-3-methylimidazolium chloride; phases: Liquid, Gas
Fixed: Pressure, kPa = 101.3
Property: Boiling temperature at pressure P, K (Liquid); method: EBULLIO:UFactor:8
Mole fraction of ethanol	Mole fraction of water	Boiling temperature at pressure P, K	uncertainty
0.026	0.884	372.45	0.96
0.036	0.83	376.09	0.98
0.04	0.949	370.51	0.91
0.053	0.927	368.63	0.95
0.066	0.901	366.63	0.91
0.066	0.911	366.38	0.92
0.067	0.876	366.29	0.9
0.081	0.894	364.74	0.92
0.088	0.866	364.47	0.91
0.091	0.815	367.09	0.94
0.093	0.706	378.48	0.95
0.1	0.871	363.48	0.9
0.111	0.819	365.27	0.91
0.115	0.748	368.92	0.9
0.116	0.862	362.34	0.9
0.12	0.847	362.69	0.94
0.147	0.794	362.48	0.9
0.155	0.805	361.45	0.9
0.157	0.521	387.31	0.94
0.161	0.817	360.31	0.91
0.17	0.735	364.77	0.93
0.212	0.737	360.64	0.91
0.227	0.749	358.68	0.91
0.255	0.637	362.41	0.9
0.269	0.704	357.65	0.9
0.274	0.581	364.52	0.9
0.286	0.646	359.77	0.9
0.317	0.358	382.32	0.96
0.328	0.644	356.81	0.91
0.389	0.341	372.99	0.94
0.402	0.568	356.01	0.89
0.403	0.506	358.72	0.92
0.423	0.46	359.76	0.89
0.46	0.314	366.79	0.92
0.512	0.456	354.83	0.89
0.531	0.354	357.89	0.91
0.583	0.217	362.51	0.89
0.71	0.13	358.66	0.89
0.788	0.089	356.13	0.89
0.837	0.054	355.49	0.89
0.855	0.069	353.89	0.89
0.855	0.089	353.11	0.89
0.873	0.125	351.47	0.89
0.903	0.08	351.86	0.88
0.918	0.047	352.4	0.89

System: ethanol + water + 1-hexyl-3-methylimidazolium chloride; phases: Gas, Liquid
Fixed: Pressure, kPa = 101.3
Property: Mole fraction of ethanol (Gas); method: Density calibration data
Mole fraction of ethanol	Mole fraction of water	Mole fraction of ethanol	uncertainty
0.026	0.884	0.264	0.005
0.036	0.83	0.255	0.006
0.04	0.949	0.136	0.005
0.053	0.927	0.229	0.011
0.066	0.901	0.308	0.006
0.066	0.911	0.311	0.004
0.067	0.876	0.352	0.006
0.081	0.894	0.357	0.007
0.088	0.866	0.383	0.005
0.091	0.815	0.399	0.005
0.093	0.706	0.348	0.004
0.1	0.871	0.398	0.005
0.111	0.819	0.4	0.005
0.115	0.748	0.434	0.005
0.116	0.862	0.418	0.007
0.12	0.847	0.394	0.006
0.147	0.794	0.445	0.006
0.155	0.805	0.454	0.006
0.157	0.521	0.482	0.006
0.161	0.817	0.467	0.007
0.17	0.735	0.434	0.005
0.212	0.737	0.498	0.008
0.227	0.749	0.507	0.007
0.255	0.637	0.513	0.007
0.269	0.704	0.54	0.007
0.274	0.581	0.54	0.007
0.286	0.646	0.53	0.007
0.317	0.358	0.677	0.006
0.328	0.644	0.563	0.007
0.389	0.341	0.69	0.006
0.402	0.568	0.585	0.007
0.403	0.506	0.572	0.007
0.423	0.46	0.575	0.007
0.46	0.314	0.692	0.006
0.512	0.456	0.609	0.007
0.531	0.354	0.627	0.006
0.583	0.217	0.732	0.006
0.71	0.13	0.766	0.005
0.788	0.089	0.789	0.005
0.837	0.054	0.824	0.005
0.855	0.069	0.82	0.005
0.855	0.089	0.817	0.005
0.873	0.125	0.865	0.004
0.903	0.08	0.889	0.005
0.918	0.047	0.898	0.004
