Measured thermophysical data. Guaiacol and its mixtures: new data and predictive models Part 2: Gibbs energy of solvation
Source: Fluid Phase Equilib., 2018, 10.1016/j.fluid.2018.04.004
Compound 1: 2-methoxyphenol, C7H8O2, InChI=1S/C7H8O2/c1-9-7-5-3-2-4-6(7)8/h2-5,8H,1H3, purity 98%
Compound 2: acetonitrile, C2H3N, InChI=1S/C2H3N/c1-2-3/h1H3, purity 99%
Compound 3: ethanol, C2H6O, InChI=1S/C2H6O/c1-2-3/h3H,2H2,1H3, purity 95%
Compound 4: tetrahydrofuran, C4H8O, InChI=1S/C4H8O/c1-2-4-5-3-1/h1-4H2, purity 98%

System: acetonitrile + 2-methoxyphenol; phases: Liquid
Fixed: Pressure, kPa = 101
Fixed: Temperature, K = 298.15
Property: Activity coefficient of acetonitrile (Liquid); method: Chromatography
Mole fraction of acetonitrile	Activity coefficient of acetonitrile	uncertainty
0.1036	1.295	0.045
0.0989	1.297	0.054
0.1011	1.286	0.044
0.2062	1.286	0.043
0.1983	1.321	0.04
0.2012	1.297	0.041
0.3048	1.254	0.043
0.3005	1.262	0.042
0.2919	1.286	0.049
0.4045	1.234	0.043
0.4	1.245	0.04
0.3956	1.239	0.043
0.4932	1.198	0.052
0.4988	1.196	0.05
0.4948	1.199	0.043
0.5959	1.163	0.051
0.6021	1.163	0.052
0.5976	1.167	0.065
0.7011	1.129	0.063
0.6985	1.131	0.066
0.7049	1.128	0.052
0.7957	1.092	0.06
0.8002	1.1	0.055
0.8984	1.068	0.045
0.9013	1.056	0.043
0.8973	1.092	0.053

System: tetrahydrofuran + 2-methoxyphenol; phases: Liquid
Fixed: Pressure, kPa = 101
Property: Activity coefficient of tetrahydrofuran (Liquid); method: Chromatography
Temperature, K	Mole fraction of tetrahydrofuran	Activity coefficient of tetrahydrofuran	uncertainty
298.15	0.0895	0.283	0.028
298.15	0.0938	0.287	0.028
298.15	0.0979	0.287	0.028
298.15	0.1932	0.358	0.027
298.15	0.1946	0.36	0.027
298.15	0.1939	0.362	0.027
298.15	0.294	0.453	0.026
298.15	0.2911	0.45	0.026
298.15	0.2905	0.453	0.026
298.15	0.3818	0.554	0.025
298.15	0.3899	0.548	0.025
298.15	0.3886	0.561	0.025
298.15	0.4958	0.694	0.023
298.15	0.5193	0.72	0.023
298.15	0.5103	0.71	0.023
298.15	0.6503	0.859	0.021
298.15	0.6266	0.836	0.022
298.15	0.624	0.835	0.021
298.15	0.7131	0.906	0.021
298.15	0.7306	0.915	0.02
298.15	0.7087	0.907	0.02
298.15	0.8006	0.958	0.02
298.15	0.8069	0.956	0.027
298.15	0.8035	0.967	0.02
298.15	0.8994	0.991	0.019
298.15	0.9108	0.993	0.023
298.15	0.8979	0.987	0.02
308.15	0.101	0.348	0.027
308.15	0.098	0.347	0.027
308.15	0.1005	0.344	0.027
308.15	0.1918	0.42	0.026
308.15	0.1955	0.426	0.027
308.15	0.1966	0.415	0.026
308.15	0.2944	0.496	0.027
308.15	0.3013	0.505	0.027
308.15	0.2935	0.496	0.025
308.15	0.3952	0.597	0.024
308.15	0.3846	0.589	0.027
308.15	0.3829	0.591	0.025
308.15	0.472	0.685	0.025
308.15	0.483	0.692	0.025
308.15	0.4941	0.706	0.023
308.15	0.6132	0.824	0.021
308.15	0.6043	0.816	0.022
308.15	0.6086	0.819	0.025
308.15	0.6966	0.888	0.021
308.15	0.7051	0.898	0.023
308.15	0.7167	0.894	0.023
308.15	0.7946	0.946	0.026
308.15	0.7962	0.948	0.022
308.15	0.7983	0.949	0.023
308.15	0.8529	0.977	0.021
308.15	0.8891	0.98	0.024
308.15	0.8935	0.984	0.024
318.15	0.0947	0.373	0.027
318.15	0.0978	0.379	0.029
318.15	0.0812	0.369	0.029
318.15	0.1923	0.438	0.03
318.15	0.1939	0.436	0.027
318.15	0.1907	0.433	0.027
318.15	0.293	0.502	0.027
318.15	0.2922	0.508	0.029
318.15	0.2914	0.513	0.03
318.15	0.3767	0.587	0.024
318.15	0.3905	0.6	0.024
318.15	0.3843	0.596	0.025
318.15	0.4863	0.701	0.026
318.15	0.4939	0.714	0.023
318.15	0.4939	0.711	0.023
318.15	0.598	0.802	0.023
318.15	0.5895	0.782	0.024
318.15	0.6001	0.808	0.025
318.15	0.6888	0.873	0.021
318.15	0.705	0.884	0.026
318.15	0.7028	0.881	0.022
318.15	0.7979	0.935	0.024
318.15	0.8003	0.942	0.023
318.15	0.7919	0.93	0.02
318.15	0.8938	0.98	0.025
318.15	0.8907	0.97	0.023
318.15	0.9005	0.975	0.022

System: ethanol + 2-methoxyphenol; phases: Liquid
Fixed: Pressure, kPa = 101
Property: Activity coefficient of ethanol (Liquid); method: Chromatography
Temperature, K	Mole fraction of ethanol	Activity coefficient of ethanol	uncertainty
298.15	0.1046	1.771	0.115
298.15	0.1074	1.755	0.097
298.15	0.0974	1.797	0.092
298.15	0.1594	1.651	0.083
298.15	0.1758	1.617	0.067
298.15	0.1854	1.583	0.088
298.15	0.2961	1.412	0.065
298.15	0.3105	1.394	0.061
298.15	0.2387	1.5	0.064
298.15	0.4457	1.267	0.048
298.15	0.3734	1.335	0.07
298.15	0.3887	1.322	0.058
298.15	0.4918	1.223	0.066
298.15	0.5145	1.202	0.079
298.15	0.5214	1.202	0.096
298.15	0.6117	1.15	0.107
298.15	0.622	1.146	0.091
298.15	0.6456	1.129	0.089
298.15	0.7254	1.136	0.07
298.15	0.7153	1.16	0.067
298.15	0.7149	1.157	0.071
298.15	0.8118	1.058	0.079
298.15	0.8229	1.077	0.079
298.15	0.8203	1.057	0.065
298.15	0.9081	0.981	0.034
298.15	0.9103	1.046	0.052
298.15	0.9088	1.056	0.045
308.15	0.1035	1.691	0.084
308.15	0.1046	1.678	0.097
308.15	0.1019	1.685	0.103
308.15	0.1925	1.523	0.085
308.15	0.2082	1.482	0.064
308.15	0.2066	1.496	0.113
308.15	0.3118	1.344	0.089
308.15	0.294	1.37	0.071
308.15	0.4052	1.248	0.054
308.15	0.4055	1.253	0.097
308.15	0.4145	1.237	0.089
308.15	0.5073	1.183	0.109
308.15	0.5038	1.18	0.094
308.15	0.516	1.174	0.063
308.15	0.6137	1.118	0.053
308.15	0.6115	1.121	0.091
308.15	0.6057	1.125	0.074
308.15	0.7138	1.066	0.081
308.15	0.7129	1.078	0.058
308.15	0.8092	1.039	0.052
308.15	0.811	1.036	0.067
308.15	0.8078	1.038	0.096
308.15	0.9048	1.008	0.074
308.15	0.903	1.01	0.061
308.15	0.9013	1.007	0.072
318.15	0.1037	1.745	0.106
318.15	0.1056	1.704	0.115
318.15	0.1063	1.701	0.114
318.15	0.1841	1.567	0.083
318.15	0.1852	1.553	0.059
318.15	0.2106	1.525	0.096
318.15	0.3131	1.354	0.115
318.15	0.2995	1.378	0.068
318.15	0.2709	1.428	0.099
318.15	0.4169	1.266	0.074
318.15	0.4246	1.26	0.067
318.15	0.4235	1.263	0.055
318.15	0.5108	1.226	0.083
318.15	0.5152	1.218	0.092
318.15	0.5096	1.225	0.119
318.15	0.6111	1.156	0.056
318.15	0.6073	1.16	0.078
318.15	0.6066	1.163	0.103
318.15	0.7125	1.106	0.079
318.15	0.7048	1.105	0.074
318.15	0.7154	1.103	0.108
318.15	0.8081	1.061	0.1
318.15	0.8018	1.065	0.104
318.15	0.8015	1.041	0.069
318.15	0.8975	1.031	0.055
318.15	0.8885	1.028	0.065
