Measured thermophysical data. Liquid phase behavior of hexafluorophosphate ionic liquids with polyhydric alcohols
Source: Fluid Phase Equilib., 2012, 10.1016/j.fluid.2011.11.004
Compound 1: 1-butyl-3-methylimidazolium hexafluorophosphate, C8H15F6N2P, InChI=1S/C8H15N2.F6P/c1-3-4-5-10-7-6-9(2)8-10;1-7(2,3,4,5)6/h6-8H,3-5H2,1-2H3;/q+1;-1, purity 97%
Compound 2: 1-hexyl-3-methylimidazolium hexafluorophosphate, C10H19F6N2P, InChI=1S/C10H19N2.F6P/c1-3-4-5-6-7-12-9-8-11(2)10-12;1-7(2,3,4,5)6/h8-10H,3-7H2,1-2H3;/q+1;-1, purity 97%
Compound 3: 1-octyl-3-methylimidazolium hexafluorophosphate, C12H23F6N2P, InChI=1S/C12H23N2.F6P/c1-3-4-5-6-7-8-9-14-11-10-13(2)12-14;1-7(2,3,4,5)6/h10-12H,3-9H2,1-2H3;/q+1;-1, purity 95%
Compound 4: 1,2-ethanediol, C2H6O2, InChI=1S/C2H6O2/c3-1-2-4/h3-4H,1-2H2, purity 99.5%
Compound 5: 1,2-propanediol, C3H8O2, InChI=1S/C3H8O2/c1-3(5)2-4/h3-5H,2H2,1H3, purity 99.5%
Compound 6: propan-1,3-diol, C3H8O2, InChI=1S/C3H8O2/c4-2-1-3-5/h4-5H,1-3H2, purity 99.6%
Compound 7: 1,2-butanediol, C4H10O2, InChI=1S/C4H10O2/c1-2-4(6)3-5/h4-6H,2-3H2,1H3, purity 98%
Compound 8: 1,2-pentanediol, C5H12O2, InChI=1S/C5H12O2/c1-2-3-5(7)4-6/h5-7H,2-4H2,1H3, purity 96%
Compound 9: 1,3-butanediol, C4H10O2, InChI=1S/C4H10O2/c1-4(6)2-3-5/h4-6H,2-3H2,1H3, purity 99%
Compound 10: 1,4-butanediol, C4H10O2, InChI=1S/C4H10O2/c5-3-1-2-4-6/h5-6H,1-4H2, purity 98%
Compound 11: 2,3-butanediol, C4H10O2, InChI=1S/C4H10O2/c1-3(5)4(2)6/h3-6H,1-2H3, purity 98%
Compound 12: 1,5-pentanediol, C5H12O2, InChI=1S/C5H12O2/c6-4-2-1-3-5-7/h6-7H,1-5H2, purity 97%
Compound 13: 1,2-hexanediol, C6H14O2, InChI=1S/C6H14O2/c1-2-3-4-6(8)5-7/h6-8H,2-5H2,1H3, purity 98%

System: 1,2-ethanediol + 1-octyl-3-methylimidazolium hexafluorophosphate; phases: Liquid mixture 1, Liquid mixture 2
Fixed: Pressure, kPa = 101.3
Property: Liquid-liquid equilibrium temperature, K (Liquid mixture 1); method: Laser detection of cloud point temperature
Mole fraction of 1-octyl-3-methylimidazolium hexafluorophosphate	Liquid-liquid equilibrium temperature, K	uncertainty
0.076	353.55	0.51
0.096	358.19	0.39
0.117	360.42	0.22
0.149	360.8	0.2
0.18	360.65	0.2
0.23	360.65	0.21
0.236	360.47	0.21
0.291	359.25	0.21
0.313	358.14	0.21
0.339	357.45	0.21
0.358	357.04	0.22
0.408	354.18	0.23
0.466	351.02	0.27
0.47	350.65	0.27
0.492	348.2	0.36
0.528	342.03	0.37
0.598	331.36	0.36

System: 1,2-ethanediol + 1-octyl-3-methylimidazolium hexafluorophosphate; phases: Liquid mixture 1, Liquid mixture 2
Property: Upper consolute temperature, K (Liquid mixture 1); method: fit of experimental data
Mole fraction of 1-octyl-3-methylimidazolium hexafluorophosphate	Upper consolute temperature, K	uncertainty
0.199	360.66	0.08

System: 1,2-propanediol + 1-octyl-3-methylimidazolium hexafluorophosphate; phases: Liquid mixture 1, Liquid mixture 2
Fixed: Pressure, kPa = 101.3
Property: Liquid-liquid equilibrium temperature, K (Liquid mixture 1); method: Laser detection of cloud point temperature
Mole fraction of 1-octyl-3-methylimidazolium hexafluorophosphate	Liquid-liquid equilibrium temperature, K	uncertainty
0.042	308.28	1.59
0.05	314.6	1.01
0.065	320.14	0.47
0.093	324.24	0.29
0.134	327.73	0.21
0.143	327.95	0.21
0.187	328.09	0.2
0.238	328.09	0.2
0.255	327.83	0.2
0.293	327.25	0.2
0.376	325.5	0.21
0.449	322.13	0.22
0.515	319.11	0.23
0.539	317.16	0.28
0.568	314.05	0.24
0.622	311.25	0.24
0.655	307.99	0.28

System: 1,2-propanediol + 1-octyl-3-methylimidazolium hexafluorophosphate; phases: Liquid mixture 1, Liquid mixture 2
Property: Upper consolute temperature, K (Liquid mixture 1); method: fit of experimental data
Mole fraction of 1-octyl-3-methylimidazolium hexafluorophosphate	Upper consolute temperature, K	uncertainty
0.22	328.18	0.12

System: propan-1,3-diol + 1-octyl-3-methylimidazolium hexafluorophosphate; phases: Liquid mixture 1, Liquid mixture 2
Fixed: Pressure, kPa = 101.3
Property: Liquid-liquid equilibrium temperature, K (Liquid mixture 1); method: Laser detection of cloud point temperature
Mole fraction of 1-octyl-3-methylimidazolium hexafluorophosphate	Liquid-liquid equilibrium temperature, K	uncertainty
0.028	342.26	0.45
0.033	343.27	0.94
0.05	352	0.99
0.052	356.76	1.02
0.066	359.29	0.39
0.09	363.15	0.28
0.133	366.02	0.21
0.177	366.07	0.2
0.179	366.17	0.2
0.24	365.91	0.2
0.3	365.1	0.21
0.363	362.62	0.21
0.452	359.19	0.22
0.503	355.6	0.24
0.568	351.79	0.24
0.586	349.93	0.28
0.611	347.5	0.28

System: propan-1,3-diol + 1-octyl-3-methylimidazolium hexafluorophosphate; phases: Liquid mixture 1, Liquid mixture 2
Property: Upper consolute temperature, K (Liquid mixture 1); method: fit of experimental data
Mole fraction of 1-octyl-3-methylimidazolium hexafluorophosphate	Upper consolute temperature, K	uncertainty
0.22	366.67	0.08

System: 1,2-butanediol + 1-octyl-3-methylimidazolium hexafluorophosphate; phases: Liquid mixture 1, Liquid mixture 2
Fixed: Pressure, kPa = 101.3
Property: Liquid-liquid equilibrium temperature, K (Liquid mixture 1); method: Laser detection of cloud point temperature
Mole fraction of 1-octyl-3-methylimidazolium hexafluorophosphate	Liquid-liquid equilibrium temperature, K	uncertainty
0.04	318.16	0.38
0.041	314.36	0.88
0.056	320.77	0.34
0.083	320.77	0.2
0.085	321.67	0.2
0.13	321.91	0.2
0.167	322.62	0.2
0.188	322.52	0.21
0.192	322.4	0.21
0.282	321.92	0.2
0.334	321.45	0.2
0.355	320.82	0.2
0.415	320.15	0.21
0.455	318.24	0.22
0.508	316.25	0.21
0.614	312.24	0.31
0.618	311.76	0.31
0.709	302.88	0.29
0.71	303.34	0.29
0.802	292.64	0.31

System: 1,2-butanediol + 1-octyl-3-methylimidazolium hexafluorophosphate; phases: Liquid mixture 1, Liquid mixture 2
Property: Upper consolute temperature, K (Liquid mixture 1); method: fit of experimental data
Mole fraction of 1-octyl-3-methylimidazolium hexafluorophosphate	Upper consolute temperature, K	uncertainty
0.227	322.43	0.12

System: 1,3-butanediol + 1-octyl-3-methylimidazolium hexafluorophosphate; phases: Liquid mixture 1, Liquid mixture 2
Fixed: Pressure, kPa = 101.3
Property: Liquid-liquid equilibrium temperature, K (Liquid mixture 1); method: Laser detection of cloud point temperature
Mole fraction of 1-octyl-3-methylimidazolium hexafluorophosphate	Liquid-liquid equilibrium temperature, K	uncertainty
0.046	333.4	0.28
0.104	339.16	0.25
0.105	340.02	0.25
0.167	342.88	0.21
0.223	343.9	0.2
0.271	343.98	0.2
0.306	343.62	0.2
0.323	343.43	0.2
0.37	342.52	0.21
0.446	340.19	0.21
0.516	338.05	0.25
0.53	336.97	0.27
0.547	335.29	0.28
0.617	330.69	0.25
0.7	324.16	0.27
0.735	319.39	0.35
0.75	316.9	0.39
0.822	306.59	0.36
0.892	295.95	0.36

System: 1,3-butanediol + 1-octyl-3-methylimidazolium hexafluorophosphate; phases: Liquid mixture 1, Liquid mixture 2
Property: Upper consolute temperature, K (Liquid mixture 1); method: fit of experimental data
Mole fraction of 1-octyl-3-methylimidazolium hexafluorophosphate	Upper consolute temperature, K	uncertainty
0.279	343.98	0.14

System: 1,4-butanediol + 1-octyl-3-methylimidazolium hexafluorophosphate; phases: Liquid mixture 1, Liquid mixture 2
Fixed: Pressure, kPa = 101.3
Property: Liquid-liquid equilibrium temperature, K (Liquid mixture 1); method: Laser detection of cloud point temperature
Mole fraction of 1-octyl-3-methylimidazolium hexafluorophosphate	Liquid-liquid equilibrium temperature, K	uncertainty
0.011	307.12	4.22
0.019	323.98	3.6
0.025	332.04	1.44
0.047	345.15	0.69
0.094	356.22	0.33
0.158	360.44	0.22
0.159	361.11	0.22
0.209	361.13	0.2
0.257	360.65	0.2
0.327	359.1	0.2
0.351	358.84	0.2
0.365	358.83	0.2
0.399	358.15	0.2
0.441	357.25	0.21
0.509	354.14	0.22
0.55	352.35	0.22
0.589	350.45	0.25
0.641	345.73	0.28
0.656	343.42	0.37
0.73	337.43	0.4
0.814	316.17	0.54

System: 1,4-butanediol + 1-octyl-3-methylimidazolium hexafluorophosphate; phases: Liquid mixture 1, Liquid mixture 2
Property: Upper consolute temperature, K (Liquid mixture 1); method: fit of experimental data
Mole fraction of 1-octyl-3-methylimidazolium hexafluorophosphate	Upper consolute temperature, K	uncertainty
0.28	361.56	0.16

System: 2,3-butanediol + 1-octyl-3-methylimidazolium hexafluorophosphate; phases: Liquid mixture 1, Liquid mixture 2
Fixed: Pressure, kPa = 101.3
Property: Liquid-liquid equilibrium temperature, K (Liquid mixture 1); method: Laser detection of cloud point temperature
Mole fraction of 1-octyl-3-methylimidazolium hexafluorophosphate	Liquid-liquid equilibrium temperature, K	uncertainty
0.034	312.89	0.29
0.043	313.86	0.33
0.045	313.7	0.34
0.061	316.46	0.36
0.066	316.62	0.21
0.109	318.04	0.21
0.142	318.83	0.2
0.184	319.08	0.2
0.208	318.89	0.2
0.227	318.84	0.2
0.257	318.31	0.2
0.311	317.12	0.21
0.408	314.63	0.21
0.454	311.91	0.23
0.518	308.29	0.23
0.551	306.34	0.25
0.586	302.98	0.26
0.668	296.76	0.29
0.789	282.32	0.31

System: 2,3-butanediol + 1-octyl-3-methylimidazolium hexafluorophosphate; phases: Liquid mixture 1, Liquid mixture 2
Property: Upper consolute temperature, K (Liquid mixture 1); method: fit of experimental data
Mole fraction of 1-octyl-3-methylimidazolium hexafluorophosphate	Upper consolute temperature, K	uncertainty
0.206	318.9	0.1

System: 1,2-pentanediol + 1-octyl-3-methylimidazolium hexafluorophosphate; phases: Liquid mixture 1, Liquid mixture 2
Fixed: Pressure, kPa = 101.3
Property: Liquid-liquid equilibrium temperature, K (Liquid mixture 1); method: Laser detection of cloud point temperature
Mole fraction of 1-octyl-3-methylimidazolium hexafluorophosphate	Liquid-liquid equilibrium temperature, K	uncertainty
0.041	325.47	0.57
0.055	329.19	0.46
0.068	331.11	0.24
0.099	332.19	0.21
0.118	332.53	0.2
0.15	332.63	0.2
0.186	332.68	0.2
0.217	332.66	0.2
0.24	332.34	0.2
0.268	331.8	0.21
0.306	330.52	0.21
0.338	329.85	0.21
0.357	329.03	0.22
0.367	328.61	0.21
0.402	327.34	0.21
0.435	326.29	0.22
0.459	324.63	0.24

System: 1,2-pentanediol + 1-octyl-3-methylimidazolium hexafluorophosphate; phases: Liquid mixture 1, Liquid mixture 2
Property: Upper consolute temperature, K (Liquid mixture 1); method: fit of experimental data
Mole fraction of 1-octyl-3-methylimidazolium hexafluorophosphate	Upper consolute temperature, K	uncertainty
0.175	332.71	0.06

System: 1,5-pentanediol + 1-octyl-3-methylimidazolium hexafluorophosphate; phases: Liquid mixture 1, Liquid mixture 2
Fixed: Pressure, kPa = 101.3
Property: Liquid-liquid equilibrium temperature, K (Liquid mixture 1); method: Laser detection of cloud point temperature
Mole fraction of 1-octyl-3-methylimidazolium hexafluorophosphate	Liquid-liquid equilibrium temperature, K	uncertainty
0.038	342.49	0.87
0.066	354.31	0.7
0.084	357.52	0.28
0.141	362.27	0.23
0.186	363.34	0.2
0.201	363.49	0.2
0.234	363.35	0.2
0.252	363.21	0.2
0.278	363.02	0.2
0.301	362.46	0.21
0.351	361.35	0.22
0.402	358.15	0.26
0.469	351.83	0.27

System: 1,5-pentanediol + 1-octyl-3-methylimidazolium hexafluorophosphate; phases: Liquid mixture 1, Liquid mixture 2
Property: Upper consolute temperature, K (Liquid mixture 1); method: fit of experimental data
Mole fraction of 1-octyl-3-methylimidazolium hexafluorophosphate	Upper consolute temperature, K	uncertainty
0.228	360.3	0.06

System: 1,2-hexanediol + 1-hexyl-3-methylimidazolium hexafluorophosphate; phases: Liquid mixture 1, Liquid mixture 2
Fixed: Pressure, kPa = 101.3
Property: Liquid-liquid equilibrium temperature, K (Liquid mixture 1); method: Laser detection of cloud point temperature
Mole fraction of 1-hexyl-3-methylimidazolium hexafluorophosphate	Liquid-liquid equilibrium temperature, K	uncertainty
0.02	351	0.68
0.059	363.6	0.46
0.096	366.5	0.25
0.12	368.19	0.23
0.135	368.49	0.2
0.155	368.52	0.2
0.206	368.07	0.2
0.255	367.27	0.2
0.28	366.78	0.21
0.348	364.93	0.21
0.394	362.74	0.23
0.46	358.16	0.26
0.526	351.32	0.29
0.599	343.57	0.3
0.63	339.96	0.31

System: 1,2-hexanediol + 1-hexyl-3-methylimidazolium hexafluorophosphate; phases: Liquid mixture 1, Liquid mixture 2
Property: Upper consolute temperature, K (Liquid mixture 1); method: fit of experimental data
Mole fraction of 1-hexyl-3-methylimidazolium hexafluorophosphate	Upper consolute temperature, K	uncertainty
0.184	368.6	0.4

System: 1,2-ethanediol + 1-hexyl-3-methylimidazolium hexafluorophosphate; phases: Liquid mixture 1, Liquid mixture 2
Fixed: Pressure, kPa = 101.3
Property: Liquid-liquid equilibrium temperature, K (Liquid mixture 1); method: Laser detection of cloud point temperature
Mole fraction of 1-hexyl-3-methylimidazolium hexafluorophosphate	Liquid-liquid equilibrium temperature, K	uncertainty
0.014	302.07	3.37
0.016	295.41	5.6
0.025	320.58	5.6
0.068	342.14	0.66
0.108	346.69	0.24
0.177	349.33	0.21
0.21	349.05	0.2
0.211	348.71	0.2
0.258	348.49	0.2
0.3	348.12	0.2
0.368	347.07	0.21
0.444	343.49	0.22
0.513	339.63	0.28
0.529	338.05	0.28
0.598	332.92	0.27
0.671	325.36	0.31
0.732	317.01	0.34

System: 1,2-ethanediol + 1-hexyl-3-methylimidazolium hexafluorophosphate; phases: Liquid mixture 1, Liquid mixture 2
Property: Upper consolute temperature, K (Liquid mixture 1); method: fit of experimental data
Mole fraction of 1-hexyl-3-methylimidazolium hexafluorophosphate	Upper consolute temperature, K	uncertainty
0.252	348.8	0.2

System: 1,2-propanediol + 1-hexyl-3-methylimidazolium hexafluorophosphate; phases: Liquid mixture 1, Liquid mixture 2
Fixed: Pressure, kPa = 101.3
Property: Liquid-liquid equilibrium temperature, K (Liquid mixture 1); method: Laser detection of cloud point temperature
Mole fraction of 1-hexyl-3-methylimidazolium hexafluorophosphate	Liquid-liquid equilibrium temperature, K	uncertainty
0.048	318.35	0.65
0.05	320.58	0.39
0.061	322.39	0.29
0.087	324.6	0.22
0.144	326.33	0.2
0.204	326.5	0.2
0.246	325.99	0.2
0.3	325.34	0.2
0.336	324.87	0.2
0.353	324.25	0.21
0.354	323.99	0.22
0.431	322.34	0.21
0.433	321.63	0.21
0.49	319.44	0.23
0.528	316.62	0.24
0.551	315.27	0.22
0.617	312.19	0.23
0.637	310.58	0.26
0.641	310.24	0.26
0.701	305.89	0.25

System: 1,2-propanediol + 1-hexyl-3-methylimidazolium hexafluorophosphate; phases: Liquid mixture 1, Liquid mixture 2
Property: Upper consolute temperature, K (Liquid mixture 1); method: fit of experimental data
Mole fraction of 1-hexyl-3-methylimidazolium hexafluorophosphate	Upper consolute temperature, K	uncertainty
0.224	326.1	0.2

System: propan-1,3-diol + 1-hexyl-3-methylimidazolium hexafluorophosphate; phases: Liquid mixture 1, Liquid mixture 2
Property: Upper consolute temperature, K (Liquid mixture 1); method: fit of experimental data
Mole fraction of 1-hexyl-3-methylimidazolium hexafluorophosphate	Upper consolute temperature, K	uncertainty
0.241	358.9	0.12

System: 1,2-butanediol + 1-hexyl-3-methylimidazolium hexafluorophosphate; phases: Liquid mixture 1, Liquid mixture 2
Fixed: Pressure, kPa = 101.3
Property: Liquid-liquid equilibrium temperature, K (Liquid mixture 1); method: Laser detection of cloud point temperature
Mole fraction of 1-hexyl-3-methylimidazolium hexafluorophosphate	Liquid-liquid equilibrium temperature, K	uncertainty
0.048	325.78	0.35
0.065	328.24	0.3
0.076	328.81	0.24
0.097	330.46	0.21
0.139	331.06	0.2
0.184	330.98	0.2
0.198	330.98	0.2
0.225	330.81	0.2
0.27	330.32	0.2
0.323	329.28	0.21
0.373	327.29	0.22
0.417	325.48	0.22
0.502	320.96	0.23
0.543	317.85	0.25
0.607	313.44	0.26
0.673	306.61	0.29
0.702	303.68	0.32
0.779	293.73	0.33

System: 1,2-butanediol + 1-hexyl-3-methylimidazolium hexafluorophosphate; phases: Liquid mixture 1, Liquid mixture 2
Property: Upper consolute temperature, K (Liquid mixture 1); method: fit of experimental data
Mole fraction of 1-hexyl-3-methylimidazolium hexafluorophosphate	Upper consolute temperature, K	uncertainty
0.198	330.97	0.16

System: 1,2-hexanediol + 1-butyl-3-methylimidazolium hexafluorophosphate; phases: Liquid mixture 1, Liquid mixture 2
Fixed: Pressure, kPa = 101.3
Property: Liquid-liquid equilibrium temperature, K (Liquid mixture 1); method: Laser detection of cloud point temperature
Mole fraction of 1-butyl-3-methylimidazolium hexafluorophosphate	Liquid-liquid equilibrium temperature, K	uncertainty
0.057	391.61	0.47
0.076	395.68	0.26
0.119	397.41	0.21
0.158	398.01	0.2
0.212	398.49	0.2
0.255	398.18	0.2
0.3	397.84	0.2
0.34	397.15	0.21
0.396	395.2	0.21
0.448	392.91	0.23
0.465	391.18	0.27
0.5	388.32	0.3
0.543	382.49	0.33
0.593	376.39	0.35
0.633	369.51	0.4

System: 1,2-hexanediol + 1-butyl-3-methylimidazolium hexafluorophosphate; phases: Liquid mixture 1, Liquid mixture 2
Property: Upper consolute temperature, K (Liquid mixture 1); method: fit of experimental data
Mole fraction of 1-butyl-3-methylimidazolium hexafluorophosphate	Upper consolute temperature, K	uncertainty
0.232	398.44	0.1

System: 1,2-ethanediol + 1-butyl-3-methylimidazolium hexafluorophosphate; phases: Liquid mixture 1, Liquid mixture 2
Fixed: Pressure, kPa = 101.3
Property: Liquid-liquid equilibrium temperature, K (Liquid mixture 1); method: Laser detection of cloud point temperature
Mole fraction of 1-butyl-3-methylimidazolium hexafluorophosphate	Liquid-liquid equilibrium temperature, K	uncertainty
0.097	337.36	0.6
0.109	340.73	0.52
0.115	341.56	0.34
0.151	341.99	0.2
0.202	342.15	0.2
0.241	342.18	0.2
0.289	342.01	0.2
0.351	341.36	0.2
0.406	339.91	0.21
0.458	338.03	0.21
0.493	336.59	0.23
0.541	333.52	0.23
0.59	330.77	0.24
0.652	326.26	0.25

System: 1,2-ethanediol + 1-butyl-3-methylimidazolium hexafluorophosphate; phases: Liquid mixture 1, Liquid mixture 2
Property: Upper consolute temperature, K (Liquid mixture 1); method: fit of experimental data
Mole fraction of 1-butyl-3-methylimidazolium hexafluorophosphate	Upper consolute temperature, K	uncertainty
0.232	342.18	0.04

System: 1,2-hexanediol + 1-octyl-3-methylimidazolium hexafluorophosphate; phases: Liquid mixture 1, Liquid mixture 2
Fixed: Pressure, kPa = 101.3
Property: Liquid-liquid equilibrium temperature, K (Liquid mixture 1); method: Laser detection of cloud point temperature
Mole fraction of 1-octyl-3-methylimidazolium hexafluorophosphate	Liquid-liquid equilibrium temperature, K	uncertainty
0.038	337.53	0.93
0.05	342.99	0.66
0.051	344.97	0.65
0.068	347.16	0.21
0.114	347.76	0.2
0.161	348.29	0.2
0.202	348.27	0.2
0.231	347.58	0.2
0.234	347.6	0.2
0.276	347.22	0.2
0.365	345.68	0.21
0.435	342.19	0.23
0.507	338.28	0.23
0.531	336.17	0.28
0.579	331.39	0.28
0.61	328.66	0.28
0.655	324.1	0.29
0.7	319.09	0.31
0.735	314.84	0.34
0.801	305.09	0.42
0.851	293.2	0.52

System: 1,2-hexanediol + 1-octyl-3-methylimidazolium hexafluorophosphate; phases: Liquid mixture 1, Liquid mixture 2
Property: Upper consolute temperature, K (Liquid mixture 1); method: fit of experimental data
Mole fraction of 1-octyl-3-methylimidazolium hexafluorophosphate	Upper consolute temperature, K	uncertainty
0.2	348.25	0.12
