Measured thermophysical data. Can cholinium chloride form eutectic solvents with organic chloride-based salts?
Source: Fluid Phase Equilib., 2019, 10.1016/j.fluid.2019.04.019
Compound 1: choline chloride, C5H14ClNO, InChI=1S/C5H14NO.ClH/c1-6(2,3)4-5-7;/h7H,4-5H2,1-3H3;1H/q+1;/p-1, purity 98%
Compound 2: ammonium chloride (NH4Cl), ClH4N, InChI=1S/ClH.H3N/h1H;1H3, purity 99.5%
Compound 3: beta.-methylcholine chloride, C6H16ClNO, InChI=1S/C6H16NO.ClH/c1-6(8)5-7(2,3)4;/h6,8H,5H2,1-4H3;1H/q+1;/p-1, purity 98%
Compound 4: tetramethylammonium chloride, C4H12ClN, InChI=1S/C4H12N.ClH/c1-5(2,3)4;/h1-4H3;1H/q+1;/p-1, purity 97%
Compound 5: tetraethylammonium chloride, C8H20ClN, InChI=1S/C8H20N.ClH/c1-5-9(6-2,7-3)8-4;/h5-8H2,1-4H3;1H/q+1;/p-1, purity 98%
Compound 6: tetrapropylammonium chloride, C12H28ClN, InChI=1S/C12H28N.ClH/c1-5-9-13(10-6-2,11-7-3)12-8-4;/h5-12H2,1-4H3;1H/q+1;/p-1, purity 98%
Compound 7: trimethylbenzylammonium chloride, C10H16ClN, InChI=1S/C10H16N.ClH/c1-11(2,3)9-10-7-5-4-6-8-10;/h4-8H,9H2,1-3H3;1H/q+1;/p-1, purity 98%
Compound 8: diethanoldimethylammonium chloride, C6H16ClNO2, InChI=1S/C6H16NO2.ClH/c1-7(2,3-5-8)4-6-9;/h8-9H,3-6H2,1-2H3;1H/q+1;/p-1, purity 99%
Compound 9: 1-methyl-1-propyl-piperidinium chloride, C9H20ClN, InChI=1S/C9H20N.ClH/c1-3-7-10(2)8-5-4-6-9-10;/h3-9H2,1-2H3;1H/q+1;/p-1, purity 99%
Compound 10: 1-butylpyridinium chloride, C9H14ClN, InChI=1S/C9H14N.ClH/c1-2-3-7-10-8-5-4-6-9-10;/h4-6,8-9H,2-3,7H2,1H3;1H/q+1;/p-1, purity 98%
Compound 11: choline bromide, C5H14BrNO, InChI=1S/C5H14NO.BrH/c1-6(2,3)4-5-7;/h7H,4-5H2,1-3H3;1H/q+1;/p-1, purity 98%

System: beta.-methylcholine chloride; phases: Crystal, Liquid, Air at 1 atmosphere
Property: Normal melting temperature, K (Crystal); method: DTA
Normal melting temperature, K	uncertainty
442	0.5

System: beta.-methylcholine chloride; phases: Crystal, Liquid, Air at 1 atmosphere
Property: Molar enthalpy of transition or fusion, kJ/mol (Crystal); method: DSC
Molar enthalpy of transition or fusion, kJ/mol	uncertainty
6.72	0.29

System: tetramethylammonium chloride; phases: Crystal, Liquid, Air at 1 atmosphere
Property: Normal melting temperature, K (Crystal); method: VISOBS
Normal melting temperature, K	uncertainty
614.7	0.5

System: tetraethylammonium chloride; phases: Crystal, Liquid, Air at 1 atmosphere
Property: Normal melting temperature, K (Crystal); method: VISOBS
Normal melting temperature, K	uncertainty
535.4	0.5

System: tetrapropylammonium chloride; phases: Crystal, Liquid, Air at 1 atmosphere
Property: Normal melting temperature, K (Crystal); method: VISOBS
Normal melting temperature, K	uncertainty
502.4	0.5

System: trimethylbenzylammonium chloride; phases: Crystal, Liquid, Air at 1 atmosphere
Property: Normal melting temperature, K (Crystal); method: VISOBS
Normal melting temperature, K	uncertainty
509.2	0.5

System: diethanoldimethylammonium chloride; phases: Crystal, Liquid, Air at 1 atmosphere
Property: Normal melting temperature, K (Crystal); method: VISOBS
Normal melting temperature, K	uncertainty
563.8	0.5

System: 1-methyl-1-propyl-piperidinium chloride; phases: Crystal, Liquid, Air at 1 atmosphere
Property: Normal melting temperature, K (Crystal); method: VISOBS
Normal melting temperature, K	uncertainty
498.4	0.5

System: 1-butylpyridinium chloride; phases: Crystal, Liquid, Air at 1 atmosphere
Property: Normal melting temperature, K (Crystal); method: DTA
Normal melting temperature, K	uncertainty
405.4	0.5

System: 1-butylpyridinium chloride; phases: Crystal, Liquid, Air at 1 atmosphere
Property: Molar enthalpy of transition or fusion, kJ/mol (Crystal); method: DSC
Molar enthalpy of transition or fusion, kJ/mol	uncertainty
26.13	0.76

System: choline bromide; phases: Crystal, Liquid, Air at 1 atmosphere
Property: Normal melting temperature, K (Crystal); method: VISOBS
Normal melting temperature, K	uncertainty
581.6	0.5

System: choline chloride + ammonium chloride (NH4Cl); phases: Liquid, Crystal
Fixed: Pressure, kPa = 101.3
Property: Solid-liquid equilibrium temperature, K (Liquid); method: VISOBS
Mole fraction of choline chloride	Solid-liquid equilibrium temperature, K	uncertainty
0.494	473.8	2.8
0.589	483.6	2.8
0.695	503.8	2.8
0.763	513.6	2.8
0.879	539.9	2.8

System: choline chloride + ammonium chloride (NH4Cl); phases: Liquid, Crystal
Fixed: Pressure, kPa = 101.3
Property: Solid-liquid equilibrium temperature, K (Liquid); method: VISOBS
Mole fraction of choline chloride	Solid-liquid equilibrium temperature, K	uncertainty
0.106	598.8	2.8
0.2	568.6	2.8
0.296	537.2	2.8
0.384	510	2.8

System: choline chloride + tetramethylammonium chloride; phases: Liquid, Crystal
Fixed: Pressure, kPa = 101.3
Property: Solid-liquid equilibrium temperature, K (Liquid); method: VISOBS
Mole fraction of choline chloride	Solid-liquid equilibrium temperature, K	uncertainty
0.495	473.4	2.8
0.581	493.6	2.8
0.694	520	2.8
0.804	541.8	2.8
0.898	567.5	2.8

System: choline chloride + tetramethylammonium chloride; phases: Liquid, Crystal
Fixed: Pressure, kPa = 101.3
Property: Solid-liquid equilibrium temperature, K (Liquid); method: VISOBS
Mole fraction of choline chloride	Solid-liquid equilibrium temperature, K	uncertainty
0	614.6	2.8
0.102	586.9	2.8
0.204	563.6	2.8
0.306	525.7	2.8
0.397	497.7	2.8

System: choline chloride + tetraethylammonium chloride; phases: Liquid, Crystal
Fixed: Pressure, kPa = 101.3
Property: Solid-liquid equilibrium temperature, K (Liquid); method: VISOBS
Mole fraction of choline chloride	Solid-liquid equilibrium temperature, K	uncertainty
0.497	503.3	2.8
0.596	515.8	2.8
0.642	522.3	2.8
0.684	532.6	2.8
0.73	540.8	2.8
0.794	548.4	2.8
0.847	558.7	2.8
0.914	564	2.8
0.938	568.7	2.8

System: choline chloride + tetraethylammonium chloride; phases: Liquid, Crystal
Fixed: Pressure, kPa = 101.3
Property: Solid-liquid equilibrium temperature, K (Liquid); method: VISOBS
Mole fraction of choline chloride	Solid-liquid equilibrium temperature, K	uncertainty
0	535.4	2.8
0.122	534.5	2.8
0.204	530.4	2.8
0.312	526.4	2.8
0.403	514.6	2.8

System: choline chloride + tetrapropylammonium chloride; phases: Liquid, Crystal
Fixed: Pressure, kPa = 101.3
Property: Solid-liquid equilibrium temperature, K (Liquid); method: VISOBS
Mole fraction of choline chloride	Solid-liquid equilibrium temperature, K	uncertainty
0.621	497.7	2.8
0.708	518.8	2.8
0.755	531.7	2.8
0.784	542.9	2.8
0.882	563.2	2.8
0.951	573.4	2.8

System: choline chloride + tetrapropylammonium chloride; phases: Liquid, Crystal
Fixed: Pressure, kPa = 101.3
Property: Solid-liquid equilibrium temperature, K (Liquid); method: VISOBS
Mole fraction of choline chloride	Solid-liquid equilibrium temperature, K	uncertainty
0	502.4	2.8
0.101	500.4	2.8
0.2	496.6	2.8
0.293	490.9	2.8
0.404	484.8	2.8
0.511	478.2	2.8

System: choline chloride + trimethylbenzylammonium chloride; phases: Liquid, Crystal
Fixed: Pressure, kPa = 101.3
Property: Solid-liquid equilibrium temperature, K (Liquid); method: VISOBS
Mole fraction of choline chloride	Solid-liquid equilibrium temperature, K	uncertainty
0.497	477.6	2.8
0.6	491.6	2.8
0.701	503.5	2.8
0.798	525.8	2.8
0.899	547.5	2.8

System: choline chloride + trimethylbenzylammonium chloride; phases: Liquid, Crystal
Fixed: Pressure, kPa = 101.3
Property: Solid-liquid equilibrium temperature, K (Liquid); method: VISOBS
Mole fraction of choline chloride	Solid-liquid equilibrium temperature, K	uncertainty
0	509.2	2.8
0.096	503.1	2.8
0.202	495.8	2.8
0.303	489.6	2.8
0.402	483.5	2.8

System: choline chloride + 1-methyl-1-propyl-piperidinium chloride; phases: Liquid, Crystal
Fixed: Pressure, kPa = 101.3
Property: Solid-liquid equilibrium temperature, K (Liquid); method: VISOBS
Mole fraction of choline chloride	Solid-liquid equilibrium temperature, K	uncertainty
0.491	451.6	2.8
0.591	468.9	2.8
0.688	492	2.8
0.807	518.7	2.8
0.876	544	2.8

System: choline chloride + 1-methyl-1-propyl-piperidinium chloride; phases: Liquid, Crystal
Fixed: Pressure, kPa = 101.3
Property: Solid-liquid equilibrium temperature, K (Liquid); method: VISOBS
Mole fraction of choline chloride	Solid-liquid equilibrium temperature, K	uncertainty
0	498.3	2.8
0.093	489.5	2.8
0.209	478.5	2.8
0.295	468.7	2.8
0.383	457.7	2.8

System: tetramethylammonium chloride + ammonium chloride (NH4Cl); phases: Liquid, Crystal
Fixed: Pressure, kPa = 101.3
Property: Solid-liquid equilibrium temperature, K (Liquid); method: VISOBS
Mole fraction of tetramethylammonium chloride	Solid-liquid equilibrium temperature, K	uncertainty
0.499	518.9	3
0.6	540.6	3
0.7	552.2	3
0.801	565.6	3
0.9	593.8	3
0.945	601.7	3

System: tetramethylammonium chloride + ammonium chloride (NH4Cl); phases: Liquid, Crystal
Fixed: Pressure, kPa = 101.3
Property: Solid-liquid equilibrium temperature, K (Liquid); method: VISOBS
Mole fraction of tetramethylammonium chloride	Solid-liquid equilibrium temperature, K	uncertainty
0.1	597.88	3
0.201	573.78	3.02
0.301	527.35	3.04
0.4	497.82	3.04

System: tetramethylammonium chloride + tetraethylammonium chloride; phases: Liquid, Crystal
Fixed: Pressure, kPa = 101.3
Property: Solid-liquid equilibrium temperature, K (Liquid); method: VISOBS
Mole fraction of tetramethylammonium chloride	Solid-liquid equilibrium temperature, K	uncertainty
0.4	447.7	3
0.5	475.7	3.1
0.599	507.7	3
0.696	532.3	3
0.801	563.1	3
0.9	596.4	3
0.946	601.9	3

System: tetramethylammonium chloride + tetraethylammonium chloride; phases: Liquid, Crystal
Fixed: Pressure, kPa = 101.3
Property: Solid-liquid equilibrium temperature, K (Liquid); method: VISOBS
Mole fraction of tetramethylammonium chloride	Solid-liquid equilibrium temperature, K	uncertainty
0.068	520.9	3
0.111	512.9	3
0.2	490.9	3
0.3	459	3

System: tetramethylammonium chloride + tetrapropylammonium chloride; phases: Liquid, Crystal
Fixed: Pressure, kPa = 101.3
Property: Solid-liquid equilibrium temperature, K (Liquid); method: VISOBS
Mole fraction of tetramethylammonium chloride	Solid-liquid equilibrium temperature, K	uncertainty
0.502	421.5	3.1
0.6	465.5	3.1
0.699	515.2	3
0.798	551.8	3
0.899	589.2	3
0.949	603	3

System: tetramethylammonium chloride + tetrapropylammonium chloride; phases: Liquid, Crystal
Fixed: Pressure, kPa = 101.3
Property: Solid-liquid equilibrium temperature, K (Liquid); method: VISOBS
Mole fraction of tetramethylammonium chloride	Solid-liquid equilibrium temperature, K	uncertainty
0.055	489.7	3
0.103	477.5	3
0.202	439.8	3
0.303	405.6	3
0.401	360.7	3.1

System: tetramethylammonium chloride + trimethylbenzylammonium chloride; phases: Liquid, Crystal
Fixed: Pressure, kPa = 101.3
Property: Solid-liquid equilibrium temperature, K (Liquid); method: VISOBS
Mole fraction of tetramethylammonium chloride	Solid-liquid equilibrium temperature, K	uncertainty
0.098	497.6	3
0.202	480.8	3
0.301	459.4	3

System: tetramethylammonium chloride + trimethylbenzylammonium chloride; phases: Liquid, Crystal
Fixed: Pressure, kPa = 101.3
Property: Solid-liquid equilibrium temperature, K (Liquid); method: VISOBS
Mole fraction of tetramethylammonium chloride	Solid-liquid equilibrium temperature, K	uncertainty
0.401	487	3
0.518	514	3
0.599	525.7	3
0.7	547.9	3
0.799	569.5	3
0.9	597.6	3
0.945	605.6	3

System: choline chloride + beta.-methylcholine chloride; phases: Liquid, Crystal
Fixed: Pressure, kPa = 101.3
Property: Solid-liquid equilibrium temperature, K (Liquid); method: VISOBS
Mole fraction of choline chloride	Solid-liquid equilibrium temperature, K	uncertainty
0.498	411.7	2.7
0.599	453.7	2.7
0.697	491.2	2.6
0.8	523	2.6
0.899	553.1	2.6

System: choline chloride + beta.-methylcholine chloride; phases: Liquid, Crystal
Fixed: Pressure, kPa = 101.3
Property: Solid-liquid equilibrium temperature, K (Liquid); method: VISOBS
Mole fraction of choline chloride	Solid-liquid equilibrium temperature, K	uncertainty
0.106	433.1	2.6
0.148	433.3	2.6
0.301	417.7	2.6
0.399	416.4	2.6

System: choline chloride + diethanoldimethylammonium chloride; phases: Liquid, Crystal
Fixed: Pressure, kPa = 101.3
Property: Solid-liquid equilibrium temperature, K (Liquid); method: VISOBS
Mole fraction of choline chloride	Solid-liquid equilibrium temperature, K	uncertainty
0.518	435	2.7
0.62	463.5	2.6
0.7	486.5	2.6
0.8	523.7	2.6
0.902	553.7	2.6

System: choline chloride + diethanoldimethylammonium chloride; phases: Liquid, Crystal
Fixed: Pressure, kPa = 101.3
Property: Solid-liquid equilibrium temperature, K (Liquid); method: VISOBS
Mole fraction of choline chloride	Solid-liquid equilibrium temperature, K	uncertainty
0	563.7	2.6
0.101	538.8	2.6
0.199	514.4	2.6
0.297	485.1	2.6
0.402	463.6	2.6

System: choline chloride + 1-butylpyridinium chloride; phases: Liquid, Crystal
Fixed: Pressure, kPa = 101.3
Property: Solid-liquid equilibrium temperature, K (Liquid); method: VISOBS
Mole fraction of choline chloride	Solid-liquid equilibrium temperature, K	uncertainty
0.449	373.9	2.6
0.498	386.6	2.7
0.55	403.4	2.7
0.598	418.9	2.7
0.651	443.1	2.7
0.699	463.6	2.6
0.77	483.6	2.6
0.801	503.1	2.6
0.848	523.7	2.6
0.898	543.6	2.6

System: choline chloride + 1-butylpyridinium chloride; phases: Liquid, Crystal
Fixed: Pressure, kPa = 101.3
Property: Solid-liquid equilibrium temperature, K (Liquid); method: VISOBS
Mole fraction of choline chloride	Solid-liquid equilibrium temperature, K	uncertainty
0.05	403.55	2.6
0.101	397.98	2.6
0.15	393.78	2.6
0.202	387.58	2.6
0.251	384.48	2.61
0.303	375.15	2.61
0.351	368.52	2.61
0.399	363.32	2.61

System: choline chloride + choline bromide; phases: Liquid, Crystal
Fixed: Pressure, kPa = 101.3
Property: Solid-liquid equilibrium temperature, K (Liquid); method: VISOBS
Mole fraction of choline chloride	Solid-liquid equilibrium temperature, K	uncertainty
0	581.6	2.6
0.102	543.7	2.6
0.206	515.7	2.6
0.301	490.9	2.6
0.398	468.4	2.6

System: choline chloride + choline bromide; phases: Liquid, Crystal
Fixed: Pressure, kPa = 101.3
Property: Solid-liquid equilibrium temperature, K (Liquid); method: VISOBS
Mole fraction of choline chloride	Solid-liquid equilibrium temperature, K	uncertainty
0.499	441.6	2.6
0.599	463.8	2.6
0.706	492	2.6
0.803	518.6	2.6
0.9	545.6	2.6
