Measured thermophysical data. Determination and modeling of the solubilities of NH4Al(SO4)2 12H2O in the NH4+ -Al3+ -H3O+ -HSO4- -SO4 2- -H2O system at different H2SO4 molalities and temperatures
Source: Fluid Phase Equilib., 2015, 10.1016/j.fluid.2015.06.022
Compound 1: water, H2O, InChI=1S/H2O/h1H2, purity 99.9%
Compound 2: aluminum ammonium sulfate, AlH4NO8S2, InChI=1S/Al.H3N.2H2O4S/c;;2*1-5(2,3)4/h;1H3;2*(H2,1,2,3,4)/q+3;;;/p-3

System: water + aluminum ammonium sulfate; phases: Liquid, Crystal
Fixed: Pressure, kPa = 101
Property: Molality, mol/kg of aluminum ammonium sulfate (Liquid); method: gravimetric method
Temperature, K	Molality, mol/kg of aluminum ammonium sulfate	uncertainty
283.15	0.1721	0.02
289.19	0.2076	0.02
293.16	0.2331	0.0201
298.15	0.2777	0.0201
303.15	0.3269	0.0201
308.15	0.3893	0.0202
313.15	0.4596	0.0203
318.15	0.5498	0.0204
323.15	0.6536	0.0205
328.15	0.7729	0.0207
333.15	0.9087	0.0211
338.15	1.0968	0.0217
343.15	1.3087	0.0222
348.15	1.5533	0.0233
353.15	1.8846	0.0243
