Measured thermophysical data. Thermochemistry of halogenobenzoic acids as an access to PC-SAFT solubility modeling
Source: Fluid Phase Equilib., 2016, 10.1016/j.fluid.2015.10.001
Compound 1: 2-fluorobenzoic acid, C7H5FO2, InChI=1S/C7H5FO2/c8-6-4-2-1-3-5(6)7(9)10/h1-4H,(H,9,10)
Compound 2: 3-fluorobenzoic acid, C7H5FO2, InChI=1S/C7H5FO2/c8-6-3-1-2-5(4-6)7(9)10/h1-4H,(H,9,10)
Compound 3: 4-fluorobenzoic acid, C7H5FO2, InChI=1S/C7H5FO2/c8-6-3-1-5(2-4-6)7(9)10/h1-4H,(H,9,10)
Compound 4: 2-iodobenzoic acid, C7H5IO2, InChI=1S/C7H5IO2/c8-6-4-2-1-3-5(6)7(9)10/h1-4H,(H,9,10)
Compound 5: 3-iodobenzoic acid, C7H5IO2, InChI=1S/C7H5IO2/c8-6-3-1-2-5(4-6)7(9)10/h1-4H,(H,9,10)
Compound 6: 4-iodobenzoic acid, C7H5IO2, InChI=1S/C7H5IO2/c8-6-3-1-5(2-4-6)7(9)10/h1-4H,(H,9,10)

System: 2-fluorobenzoic acid; phases: Crystal, Liquid, Air at 1 atmosphere
Property: Normal melting temperature, K (Crystal); method: DTA
Normal melting temperature, K	uncertainty
396.7	0.4

System: 2-fluorobenzoic acid; phases: Crystal, Liquid, Air at 1 atmosphere
Property: Molar enthalpy of transition or fusion, kJ/mol (Crystal); method: DSC
Molar enthalpy of transition or fusion, kJ/mol	uncertainty
20.3	0.6

System: 2-fluorobenzoic acid; phases: Crystal, Gas
Property: Vapor or sublimation pressure, kPa (Crystal); method: Transpiration method
Temperature, K	Vapor or sublimation pressure, kPa	uncertainty
333.9	0.00321	0.00023
334.6	0.0035	0.00023
335.9	0.00389	0.00026
337	0.00451	0.0003
338.9	0.00528	0.00035
340.2	0.00614	0.00044
342	0.00738	0.00051
342.2	0.00734	0.00051
345	0.0094	0.00064
346.6	0.01115	0.00075
348.3	0.0132	0.00088
351.2	0.01709	0.00113
352.4	0.01997	0.00132
353.2	0.02087	0.00135
354.2	0.02242	0.00151
356.5	0.02903	0.00191
358.2	0.03398	0.00218
358.3	0.0322	0.00209
360.5	0.03997	0.0026
361.3	0.04428	0.00283
363.4	0.05001	0.00318
364.5	0.05529	0.00363
367.2	0.07204	0.00463

System: 3-fluorobenzoic acid; phases: Crystal, Liquid, Air at 1 atmosphere
Property: Normal melting temperature, K (Crystal); method: DTA
Normal melting temperature, K	uncertainty
395.9	0.4

System: 3-fluorobenzoic acid; phases: Crystal, Liquid, Air at 1 atmosphere
Property: Molar enthalpy of transition or fusion, kJ/mol (Crystal); method: DSC
Molar enthalpy of transition or fusion, kJ/mol	uncertainty
18.5	0.4

System: 3-fluorobenzoic acid; phases: Crystal, Gas
Property: Vapor or sublimation pressure, kPa (Crystal); method: Transpiration method
Temperature, K	Vapor or sublimation pressure, kPa	uncertainty
331.9	0.00407	0.00028
334.9	0.00564	0.00038
338	0.00734	0.00052
342.1	0.01139	0.00077
345	0.01472	0.00097
347.1	0.01783	0.00118
350.4	0.02353	0.00154
353.3	0.03091	0.00202
356.5	0.04119	0.00266
359.5	0.0543	0.00348
362.6	0.06845	0.00434

System: 4-fluorobenzoic acid; phases: Crystal, Liquid, Air at 1 atmosphere
Property: Normal melting temperature, K (Crystal); method: DTA
Normal melting temperature, K	uncertainty
456.1	0.4

System: 4-fluorobenzoic acid; phases: Crystal, Liquid, Air at 1 atmosphere
Property: Molar enthalpy of transition or fusion, kJ/mol (Crystal); method: DSC
Molar enthalpy of transition or fusion, kJ/mol	uncertainty
21.6	0.5

System: 4-fluorobenzoic acid; phases: Crystal, Gas
Property: Vapor or sublimation pressure, kPa (Crystal); method: Transpiration method
Temperature, K	Vapor or sublimation pressure, kPa	uncertainty
343	0.00456	0.00031
346.2	0.00612	0.00044
349.3	0.00844	0.00059
355.1	0.01384	0.00091
356.5	0.01539	0.00104
359.5	0.02097	0.00138
363.7	0.02861	0.00184
365.6	0.03441	0.00222
366.9	0.03729	0.00243
371.8	0.05523	0.00354
375.8	0.07688	0.00494
380.9	0.11622	0.00737
385.2	0.15937	0.01003
386.2	0.1701	0.01068

System: 2-iodobenzoic acid; phases: Crystal, Liquid, Air at 1 atmosphere
Property: Normal melting temperature, K (Crystal); method: DTA
Normal melting temperature, K	uncertainty
434.5	0.4

System: 2-iodobenzoic acid; phases: Crystal, Liquid, Air at 1 atmosphere
Property: Molar enthalpy of transition or fusion, kJ/mol (Crystal); method: DSC
Molar enthalpy of transition or fusion, kJ/mol	uncertainty
27.6	0.6

System: 2-iodobenzoic acid; phases: Crystal, Gas
Property: Vapor or sublimation pressure, kPa (Crystal); method: Transpiration method
Temperature, K	Vapor or sublimation pressure, kPa	uncertainty
362.4	0.00113	8e-05
367.6	0.00188	0.00013
376.2	0.00432	0.00028
381.9	0.00744	0.00051
386.9	0.01099	0.00075
393.2	0.02004	0.00131
393.2	0.01875	0.00122
397.2	0.02759	0.00177
399.2	0.03193	0.00208
403.2	0.04492	0.00288
403.2	0.0431	0.00277
407.3	0.06078	0.00389
411.5	0.08737	0.00554

System: 3-iodobenzoic acid; phases: Crystal, Liquid, Air at 1 atmosphere
Property: Normal melting temperature, K (Crystal); method: DTA
Normal melting temperature, K	uncertainty
458.9	0.4

System: 3-iodobenzoic acid; phases: Crystal, Liquid, Air at 1 atmosphere
Property: Molar enthalpy of transition or fusion, kJ/mol (Crystal); method: DSC
Molar enthalpy of transition or fusion, kJ/mol	uncertainty
27.7	0.6

System: 3-iodobenzoic acid; phases: Crystal, Gas
Property: Vapor or sublimation pressure, kPa (Crystal); method: Transpiration method
Temperature, K	Vapor or sublimation pressure, kPa	uncertainty
366.6	0.00121	9e-05
370.4	0.00171	0.00012
375.8	0.00281	0.0002
380.8	0.00438	0.00028
386	0.00688	0.00048
389.1	0.00894	0.00061
391.9	0.01174	0.00079
395.1	0.01521	0.00101
399.2	0.02068	0.00135
404.1	0.03146	0.00204
404.2	0.03145	0.00204
409	0.04684	0.00298
411.4	0.05339	0.00338
414.2	0.06461	0.00413
417.5	0.08451	0.00541
422	0.1194	0.0075

System: 4-iodobenzoic acid; phases: Crystal, Liquid, Air at 1 atmosphere
Property: Normal melting temperature, K (Crystal); method: DTA
Normal melting temperature, K	uncertainty
543.9	0.4

System: 4-iodobenzoic acid; phases: Crystal, Liquid, Air at 1 atmosphere
Property: Molar enthalpy of transition or fusion, kJ/mol (Crystal); method: DSC
Molar enthalpy of transition or fusion, kJ/mol	uncertainty
33.7	0.9

System: 4-iodobenzoic acid; phases: Crystal, Gas
Property: Vapor or sublimation pressure, kPa (Crystal); method: Transpiration method
Temperature, K	Vapor or sublimation pressure, kPa	uncertainty
388.9	0.00205	0.00014
391.1	0.00244	0.00017
403.3	0.00654	0.00045
409.4	0.01081	0.00073
415.3	0.01743	0.00114
421.5	0.02673	0.00171
424.5	0.03413	0.00219
427.4	0.04118	0.00264
433.5	0.06312	0.00397
