Measured thermophysical data. Measurement and correlation of binary vapor liquid equilibria of isomeric butanols with 1,4-dioxane
Source: Fluid Phase Equilib., 2008, 10.1016/j.fluid.2007.11.002
Compound 1: 2-methylpropan-2-ol, C4H10O, InChI=1S/C4H10O/c1-4(2,3)5/h5H,1-3H3
Compound 2: butan-2-ol, C4H10O, InChI=1S/C4H10O/c1-3-4(2)5/h4-5H,3H2,1-2H3
Compound 3: 2-methyl-1-propanol, C4H10O, InChI=1S/C4H10O/c1-4(2)3-5/h4-5H,3H2,1-2H3
Compound 4: butan-1-ol, C4H10O, InChI=1S/C4H10O/c1-2-3-4-5/h5H,2-4H2,1H3
Compound 5: 1,4-dioxane, C4H8O2, InChI=1S/C4H8O2/c1-2-6-4-3-5-1/h1-4H2

System: 2-methylpropan-2-ol; phases: Liquid, Gas
Property: Normal boiling temperature, K (Liquid); method: Ebulliometric method (Recirculating still)
Normal boiling temperature, K	uncertainty
355.55	0.22

System: 2-methylpropan-2-ol; phases: Liquid
Property: Refractive index (Na D-line) (Liquid); method: Standard Abbe refractometry
Temperature, K	Pressure, kPa	Refractive index (Na D-line)	uncertainty
298.15	101.325	1.3823	0.0012

System: 2-methylpropan-2-ol; phases: Liquid, Gas
Property: Vapor or sublimation pressure, kPa (Liquid); method: Ebulliometric method (Recirculating still)
Temperature, K	Vapor or sublimation pressure, kPa	uncertainty
323.15	24.4	0.48
325.05	26.66	
333.15	39.06	0.62
340.05	53.33	
343.15	60.93	0.89
349.75	79.99	
353.15	92.26	1.2
355.55	101.325	

System: butan-2-ol; phases: Liquid, Gas
Property: Normal boiling temperature, K (Liquid); method: Ebulliometric method (Recirculating still)
Normal boiling temperature, K	uncertainty
372.65	0.22

System: butan-2-ol; phases: Liquid
Property: Refractive index (Na D-line) (Liquid); method: Standard Abbe refractometry
Temperature, K	Pressure, kPa	Refractive index (Na D-line)	uncertainty
298.15	101.325	1.3955	0.0012

System: butan-2-ol; phases: Liquid, Gas
Property: Vapor or sublimation pressure, kPa (Liquid); method: Ebulliometric method (Recirculating still)
Temperature, K	Vapor or sublimation pressure, kPa	uncertainty
343.15	29.86	0.59
363.15	70.25	0.9

System: 2-methyl-1-propanol; phases: Liquid, Gas
Property: Normal boiling temperature, K (Liquid); method: Ebulliometric method (Recirculating still)
Normal boiling temperature, K	uncertainty
381.05	0.22

System: 2-methyl-1-propanol; phases: Liquid
Property: Refractive index (Na D-line) (Liquid); method: Standard Abbe refractometry
Temperature, K	Pressure, kPa	Refractive index (Na D-line)	uncertainty
298.15	101.325	1.3939	0.0012

System: 2-methyl-1-propanol; phases: Liquid, Gas
Property: Vapor or sublimation pressure, kPa (Liquid); method: Ebulliometric method (Recirculating still)
Temperature, K	Vapor or sublimation pressure, kPa	uncertainty
333.15	12.5	0.34
343.15	20.35	0.4
353.15	32.25	0.55
353.15	32.19	0.5

System: butan-1-ol; phases: Liquid, Gas
Property: Normal boiling temperature, K (Liquid); method: Ebulliometric method (Recirculating still)
Normal boiling temperature, K	uncertainty
390.85	0.22

System: butan-1-ol; phases: Liquid
Property: Refractive index (Na D-line) (Liquid); method: Standard Abbe refractometry
Temperature, K	Pressure, kPa	Refractive index (Na D-line)	uncertainty
298.15	101.325	1.397	0.0012

System: butan-1-ol; phases: Liquid, Gas
Property: Vapor or sublimation pressure, kPa (Liquid); method: Ebulliometric method (Recirculating still)
Temperature, K	Vapor or sublimation pressure, kPa	uncertainty
363.15	34.12	0.57

System: 1,4-dioxane; phases: Liquid, Gas
Property: Normal boiling temperature, K (Liquid); method: Ebulliometric method (Recirculating still)
Normal boiling temperature, K	uncertainty
374.45	0.22

System: 1,4-dioxane; phases: Liquid
Property: Refractive index (Na D-line) (Liquid); method: Standard Abbe refractometry
Temperature, K	Pressure, kPa	Refractive index (Na D-line)	uncertainty
298.15	101.325	1.4205	0.0012

System: 1,4-dioxane; phases: Liquid, Gas
Property: Vapor or sublimation pressure, kPa (Liquid); method: Ebulliometric method (Recirculating still)
Temperature, K	Vapor or sublimation pressure, kPa	uncertainty
323.15	15.93	0.36
333.15	23.94	0.44
333.15	24	0.42
335.85	26.66	0.44
343.15	35.19	0.59
343.15	35.11	0.54
343.15	35.2	0.54
353.15	50.78	0.8
353.15	50.41	0.68
353.15	50.53	0.68
354.65	53.33	0.8
363.15	70.91	0.88
366.95	79.99	1
374.45	101.325	1.1

System: butan-2-ol + 1,4-dioxane; phases: Liquid, Gas
Property: Vapor or sublimation pressure, kPa (Liquid); method: Ebulliometric method (Recirculating still)
Mole fraction of butan-2-ol	Temperature, K	Vapor or sublimation pressure, kPa	uncertainty
0	343.15	35.19	0.59
0	363.15	70.91	0.88
0.0377	363.15	71.71	0.91
0.0642	363.15	72.25	0.91
0.0682	343.15	35.72	0.6
0.0981	363.15	72.78	0.92
0.1168	343.15	35.86	0.6
0.1284	363.15	73.18	0.92
0.1746	343.15	36.12	0.61
0.1793	363.15	73.71	0.92
0.2258	343.15	36.12	0.61
0.2269	363.15	74.38	0.93
0.2734	343.15	36.26	0.61
0.2765	363.15	74.51	0.93
0.3385	343.15	36.12	0.61
0.3398	363.15	74.65	0.93
0.3911	343.15	36.12	0.62
0.401	363.15	74.78	0.93
0.4427	343.15	35.86	0.61
0.4523	363.15	74.51	0.93
0.4962	343.15	35.72	0.61
0.5184	363.15	74.38	0.93
0.5414	343.15	35.46	0.61
0.5666	363.15	74.11	0.93
0.5968	343.15	35.06	0.61
0.6247	363.15	73.84	0.93
0.6416	343.15	34.79	0.61
0.6792	363.15	73.58	0.93
0.6943	343.15	34.26	0.61
0.7316	363.15	73.05	0.92
0.7549	343.15	33.59	0.61
0.7829	363.15	72.65	0.92
0.8012	343.15	33.19	0.61
0.8385	363.15	72.11	0.92
0.8578	343.15	32.39	0.61
0.9047	363.15	71.31	0.91
0.9064	343.15	31.59	0.6
0.9445	343.15	31.06	0.61
0.9628	363.15	70.65	0.9
0.9876	343.15	30.12	0.61
1	343.15	29.86	0.59
1	363.15	70.25	0.9

System: butan-2-ol + 1,4-dioxane; phases: Gas, Liquid
Property: Mole fraction of butan-2-ol (Gas); method: Chromatography
Mole fraction of butan-2-ol	Temperature, K	Mole fraction of butan-2-ol	uncertainty
0	343.15	0	0.0001
0	363.15	0	0.0001
0.0377	363.15	0.0486	0.0128
0.0642	363.15	0.0799	0.0121
0.0682	343.15	0.0779	0.0119
0.0981	363.15	0.1174	0.0119
0.1168	343.15	0.1286	0.0114
0.1284	363.15	0.1492	0.0115
0.1746	343.15	0.1848	0.0114
0.1793	363.15	0.1995	0.0116
0.2258	343.15	0.2317	0.0116
0.2269	363.15	0.2443	0.0119
0.2734	343.15	0.2734	0.012
0.2765	363.15	0.2896	0.0125
0.3385	343.15	0.3283	0.0132
0.3398	363.15	0.3462	0.014
0.3911	343.15	0.3714	0.0145
0.401	363.15	0.4005	0.016
0.4427	343.15	0.4132	0.0163
0.4523	363.15	0.4461	0.0181
0.4962	343.15	0.4566	0.0184
0.5184	363.15	0.5056	0.0212
0.5414	343.15	0.4937	0.0206
0.5666	363.15	0.5498	0.0211
0.5968	343.15	0.5401	0.0209
0.6247	363.15	0.6072	0.0204
0.6416	343.15	0.5789	0.0206
0.6792	363.15	0.6565	0.0196
0.6943	343.15	0.6266	0.0201
0.7316	363.15	0.7082	0.0187
0.7549	343.15	0.6853	0.0192
0.7829	363.15	0.7603	0.0174
0.8012	343.15	0.7336	0.0184
0.8385	363.15	0.8186	0.0158
0.8578	343.15	0.7981	0.017
0.9047	363.15	0.8906	0.0138
0.9064	343.15	0.8595	0.0158
0.9445	343.15	0.9127	0.0154
0.9628	363.15	0.9564	0.0125
0.9876	343.15	0.9793	0.0149
1	343.15	1	0.0001
1	363.15	1	0.0001

System: 2-methyl-1-propanol + 1,4-dioxane; phases: Liquid, Gas
Fixed: Temperature, K = 353.15
Property: Vapor or sublimation pressure, kPa (Liquid); method: Ebulliometric method (Recirculating still)
Mole fraction of 1,4-dioxane	Vapor or sublimation pressure, kPa	uncertainty
0	32.25	0.55
0.0551	34.39	0.65
0.1148	36.65	0.68
0.1635	38.52	0.69
0.2247	40.52	0.7
0.301	42.79	0.72
0.3684	44.65	0.74
0.4208	45.85	0.75
0.4855	47.18	0.76
0.5224	47.72	0.77
0.5776	48.78	0.78
0.609	49.18	0.78
0.6723	49.85	0.79
0.7322	50.52	0.79
0.7818	50.78	0.8
0.8329	51.18	0.8
0.8951	51.18	0.8
0.9432	51.05	0.8
1	50.78	0.8

System: 2-methyl-1-propanol + 1,4-dioxane; phases: Liquid, Gas
Property: Vapor or sublimation pressure, kPa (Liquid); method: Ebulliometric method (Recirculating still)
Temperature, K	Mole fraction of 1,4-dioxane	Vapor or sublimation pressure, kPa	uncertainty
333.15	0	12.5	0.34
333.15	0.0927	14.5	0.4
333.15	0.1352	15.43	0.41
333.15	0.1787	16.49	0.42
333.15	0.2658	18.22	0.43
333.15	0.353	19.82	0.43
333.15	0.4361	21.15	0.44
333.15	0.5207	22.08	0.44
333.15	0.6026	23.01	0.45
333.15	0.6852	23.67	0.45
333.15	0.7206	23.94	0.45
333.15	0.7662	24.21	0.45
333.15	0.8432	24.34	0.45
333.15	0.8819	24.47	0.45
333.15	0.9217	24.34	0.45
333.15	0.959	24.21	0.45
333.15	0.9845	24.07	0.45
333.15	1	23.94	0.44
343.15	0	20.35	0.4
343.15	0.0927	23.41	0.52
343.15	0.1352	24.74	0.52
343.15	0.1787	26.33	0.5
343.15	0.2658	28.6	0.52
343.15	0.353	30.72	0.53
343.15	0.4361	32.58	0.54
343.15	0.5207	33.92	0.54
343.15	0.6026	34.98	0.54
343.15	0.6852	35.78	0.55
343.15	0.7206	36.04	0.55
343.15	0.7662	36.31	0.55
343.15	0.8432	36.44	0.55
343.15	0.8819	36.58	0.55
343.15	0.9217	36.44	0.55
343.15	0.959	36.04	0.55
343.15	0.9845	35.51	0.55
343.15	1	35.11	0.54
353.15	0	32.19	0.5
353.15	0.0927	36.04	0.63
353.15	0.1352	37.64	0.63
353.15	0.1787	39.24	0.63
353.15	0.2658	42.03	0.64
353.15	0.353	44.42	0.65
353.15	0.4361	46.42	0.66
353.15	0.5207	48.01	0.66
353.15	0.6026	49.21	0.67
353.15	0.6852	50.27	0.68
353.15	0.7206	50.54	0.68
353.15	0.7662	50.94	0.68
353.15	0.8432	51.2	0.68
353.15	0.8819	51.34	0.68
353.15	0.9217	51.2	0.68
353.15	0.959	50.94	0.69
353.15	0.9845	50.54	0.69
353.15	1	50.41	0.68

System: 2-methyl-1-propanol + 1,4-dioxane; phases: Gas, Liquid
Fixed: Temperature, K = 353.15
Property: Mole fraction of 1,4-dioxane (Gas); method: Chromatography
Mole fraction of 1,4-dioxane	Mole fraction of 1,4-dioxane	uncertainty
0	0	0.0001
0.0551	0.1172	0.0173
0.1148	0.219	0.0158
0.1635	0.2933	0.0154
0.2247	0.3752	0.0163
0.301	0.459	0.0193
0.3684	0.5283	0.0212
0.4208	0.5711	0.0203
0.4855	0.6159	0.0195
0.5224	0.6348	0.0193
0.5776	0.6798	0.0187
0.609	0.7027	0.0177
0.6723	0.7408	0.0166
0.7322	0.7746	0.0156
0.7818	0.809	0.0146
0.8329	0.841	0.0139
0.8951	0.8957	0.0126
0.9432	0.9388	0.012
1	1	0.0001

System: 2-methylpropan-2-ol + 1,4-dioxane; phases: Liquid, Gas
Property: Vapor or sublimation pressure, kPa (Liquid); method: Ebulliometric method (Recirculating still)
Temperature, K	Mass fraction of 2-methylpropan-2-ol	Vapor or sublimation pressure, kPa	uncertainty
323.15	0	15.93	0.36
323.15	0.0482	17.47	0.45
323.15	0.1079	19.2	0.43
323.15	0.1534	20	0.42
323.15	0.2065	20.94	0.43
323.15	0.2518	21.6	0.43
323.15	0.3126	22.67	0.44
323.15	0.3672	23.07	0.44
323.15	0.4097	23.6	0.45
323.15	0.4611	24	0.45
323.15	0.5146	24.4	0.45
323.15	0.5683	24.53	0.46
323.15	0.6224	24.67	0.47
323.15	0.6795	24.8	0.47
323.15	0.7202	24.93	0.48
323.15	0.7728	25.07	0.48
323.15	0.8266	25.07	0.48
323.15	0.8747	24.93	0.48
323.15	0.9231	24.67	0.48
323.15	0.9731	24.53	0.48
323.15	1	24.4	0.48
333.15	0	24	0.42
333.15	0.0482	26	0.53
333.15	0.1079	28	0.54
333.15	0.1534	29.6	0.52
333.15	0.2065	30.8	0.52
333.15	0.2518	31.73	0.53
333.15	0.3126	33.2	0.55
333.15	0.3672	34.4	0.56
333.15	0.4097	34.93	0.56
333.15	0.4611	36	0.57
333.15	0.5146	36.4	0.57
333.15	0.5683	37.06	0.59
333.15	0.6224	37.86	0.6
333.15	0.6795	38.66	0.62
333.15	0.7202	38.93	0.61
333.15	0.7728	39.2	0.62
333.15	0.8266	39.33	0.62
333.15	0.8747	39.46	0.62
333.15	0.9231	39.2	0.63
333.15	0.9731	39.2	0.63
333.15	1	39.06	0.62
343.15	0	35.2	0.54
343.15	0.0482	37.6	0.65
343.15	0.1079	39.73	0.68
343.15	0.1534	41.86	0.69
343.15	0.2065	44	0.72
343.15	0.2518	45.86	0.71
343.15	0.3126	48	0.74
343.15	0.3672	49.86	0.77
343.15	0.4097	51.33	0.78
343.15	0.4611	53.33	0.8
343.15	0.5146	54.66	0.82
343.15	0.5683	56.26	0.84
343.15	0.6224	57.6	0.85
343.15	0.6795	58.93	0.87
343.15	0.7202	59.6	0.86
343.15	0.7728	60.26	0.88
343.15	0.8266	61.2	0.89
343.15	0.8747	61.33	0.89
343.15	0.9231	61.6	0.9
343.15	0.9731	61.33	0.9
343.15	1	60.93	0.89
353.15	0	50.53	0.68
353.15	0.0482	53.46	0.86
353.15	0.1079	56.93	0.88
353.15	0.1534	59.46	0.9
353.15	0.2065	62.53	0.95
353.15	0.2518	65.33	0.98
353.15	0.3126	69.06	1.01
353.15	0.3672	72.13	1.04
353.15	0.4097	74.53	1.07
353.15	0.4611	77.59	1.11
353.15	0.5146	80.66	1.12
353.15	0.5683	83.19	1.13
353.15	0.6224	85.46	1.15
353.15	0.6795	87.72	1.17
353.15	0.7202	89.12	1.18
353.15	0.7728	90.66	1.19
353.15	0.8266	91.73	1.2
353.15	0.8747	92.53	1.21
353.15	0.9231	93.06	1.21
353.15	0.9731	92.93	1.21
353.15	1	92.26	1.2

System: 2-methylpropan-2-ol + 1,4-dioxane; phases: Liquid, Gas
Property: Boiling temperature at pressure P, K (Liquid); method: Ebulliometric method (Recirculating still)
Pressure, kPa	Mole fraction of 2-methylpropan-2-ol	Boiling temperature at pressure P, K	uncertainty
26.66	0	335.85	0.39
26.66	0.0482	333.95	0.5
26.66	0.1079	331.65	0.48
26.66	0.1534	330.35	0.43
26.66	0.2065	329.55	0.41
26.66	0.2518	328.65	0.4
26.66	0.3126	327.85	0.39
26.66	0.3672	327.05	0.39
26.66	0.4097	326.25	0.39
26.66	0.4611	325.75	0.37
26.66	0.5146	325.45	0.37
26.66	0.5683	325.05	0.36
26.66	0.6224	324.85	0.35
26.66	0.6795	324.75	0.35
26.66	0.7202	324.65	0.35
26.66	0.7728	324.55	0.35
26.66	0.8266	324.45	0.34
26.66	0.8747	324.45	0.34
26.66	0.9231	324.75	0.34
26.66	0.9731	324.95	0.34
26.66	1	325.05	0.34
53.33	0	354.65	0.45
53.33	0.0482	352.75	0.52
53.33	0.1079	350.65	0.54
53.33	0.1534	349.25	0.49
53.33	0.2065	347.85	0.49
53.33	0.2518	346.75	0.46
53.33	0.3126	345.45	0.46
53.33	0.3672	344.45	0.46
53.33	0.4097	343.75	0.44
53.33	0.4611	343.05	0.44
53.33	0.5146	342.35	0.43
53.33	0.5683	341.65	0.42
53.33	0.6224	341.15	0.41
53.33	0.6795	340.75	0.41
53.33	0.7202	340.35	0.4
53.33	0.7728	340.25	0.4
53.33	0.8266	339.85	0.39
53.33	0.8747	339.75	0.39
53.33	0.9231	339.65	0.38
53.33	0.9731	339.95	0.38
53.33	1	340.05	0.38
79.99	0	366.95	0.44
79.99	0.0482	364.85	0.53
79.99	0.1079	362.75	0.52
79.99	0.1534	361.35	0.49
79.99	0.2065	359.85	0.49
79.99	0.2518	358.65	0.47
79.99	0.3126	357.25	0.46
79.99	0.3672	356.15	0.45
79.99	0.4097	355.45	0.44
79.99	0.4611	354.55	0.43
79.99	0.5146	353.65	0.42
79.99	0.5683	352.95	0.41
79.99	0.6224	352.25	0.41
79.99	0.6795	351.65	0.4
79.99	0.7202	351.25	0.39
79.99	0.7728	350.85	0.38
79.99	0.8266	350.35	0.38
79.99	0.8747	350.15	0.38
79.99	0.9231	349.75	0.37
79.99	0.9731	349.65	0.36
79.99	1	349.75	0.36
101.325	0	374.45	0.45
101.325	0.0482	372.55	0.55
101.325	0.1079	370.45	0.54
101.325	0.1534	368.95	0.52
101.325	0.2065	367.35	0.51
101.325	0.2518	366.15	0.5
101.325	0.3126	364.55	0.49
101.325	0.3672	363.15	0.47
101.325	0.4097	362.35	0.45
101.325	0.4611	361.05	0.44
101.325	0.5146	360.15	0.43
101.325	0.5683	359.15	0.41
101.325	0.6224	358.35	0.4
101.325	0.6795	357.45	0.39
101.325	0.7202	356.95	0.38
101.325	0.7728	356.35	0.37
101.325	0.8266	355.85	0.37
101.325	0.8747	355.55	0.36
101.325	0.9231	355.35	0.36
101.325	0.9731	355.25	0.37
101.325	1	355.55	0.37

System: butan-1-ol + 1,4-dioxane; phases: Liquid, Gas
Fixed: Temperature, K = 363.15
Property: Vapor or sublimation pressure, kPa (Liquid); method: Ebulliometric method (Recirculating still)
Mole fraction of 1,4-dioxane	Vapor or sublimation pressure, kPa	uncertainty
0	34.12	0.57
0.0215	35.72	0.75
0.0652	37.99	0.78
0.1284	41.99	0.81
0.1777	44.25	0.81
0.2033	45.85	0.83
0.2469	47.72	0.83
0.3158	50.65	0.87
0.3642	52.79	0.9
0.4091	54.79	0.91
0.4565	56.52	0.91
0.5172	58.25	0.94
0.5988	61.18	0.98
0.6292	62.12	0.98
0.8217	67.32	1.04
0.9578	69.85	1.07
1	70.91	1.08

System: butan-1-ol + 1,4-dioxane; phases: Gas, Liquid
Fixed: Temperature, K = 363.15
Property: Mole fraction of 1,4-dioxane (Gas); method: Chromatography
Mole fraction of 1,4-dioxane	Mole fraction of 1,4-dioxane	uncertainty
0	0	0.0001
0.0215	0.0562	0.021
0.0652	0.1586	0.0187
0.1284	0.2808	0.0176
0.1777	0.361	0.018
0.2033	0.4015	0.0173
0.2469	0.4463	0.0187
0.3158	0.5211	0.0216
0.3642	0.5714	0.0208
0.4091	0.6067	0.0201
0.4565	0.6482	0.0191
0.5172	0.6829	0.0184
0.5988	0.7504	0.0168
0.6292	0.7688	0.0158
0.8217	0.8844	0.0119
0.9578	0.9713	0.0097
1	1	0.0001
