Measured thermophysical data. Interactions of pyridinium, pyrrolidinium or piperidinium based ionic liquids with water: Measurements and COSMO-RS modelling
Source: Fluid Phase Equilib., 2016, 10.1016/j.fluid.2016.01.014
Compound 1: 1-butylpyridinium chloride, C9H14ClN, InChI=1S/C9H14N.ClH/c1-2-3-7-10-8-5-4-6-9-10;/h4-6,8-9H,2-3,7H2,1H3;1H/q+1;/p-1, purity 98%
Compound 2: 1-butyl-2-methylpyridinium chloride, C10H16ClN, InChI=1S/C10H16N.ClH/c1-3-4-8-11-9-6-5-7-10(11)2;/h5-7,9H,3-4,8H2,1-2H3;1H/q+1;/p-1, purity 99%
Compound 3: 1-butyl-3-methylpyridinium chloride, C10H16ClN, InChI=1S/C10H16N.ClH/c1-3-4-7-11-8-5-6-10(2)9-11;/h5-6,8-9H,3-4,7H2,1-2H3;1H/q+1;/p-1, purity 99%
Compound 4: 1-butyl-4-methylpyridinium chloride, C10H16ClN, InChI=1S/C10H16N.ClH/c1-3-4-7-11-8-5-10(2)6-9-11;/h5-6,8-9H,3-4,7H2,1-2H3;1H/q+1;/p-1, purity 98%
Compound 5: 1-butyl-1-methylpyrrolidinium chloride, C9H20ClN, InChI=1S/C9H20N.ClH/c1-3-4-7-10(2)8-5-6-9-10;/h3-9H2,1-2H3;1H/q+1;/p-1, purity 98%
Compound 6: 1-butyl-1-methylpiperidinium chloride, C10H22ClN, InChI=1S/C10H22N.ClH/c1-3-4-8-11(2)9-6-5-7-10-11;/h3-10H2,1-2H3;1H/q+1;/p-1, purity 99%
Compound 7: water, H2O, InChI=1S/H2O/h1H2, purity 99.8%

System: 1-butylpyridinium chloride + water; phases: Liquid
Fixed: Pressure, kPa = 101
Fixed: Temperature, K = 298.2
Property: Activity coefficient of water (Liquid); method: Novasina hygrometer Labmaster-aw
Mole fraction of water	Activity coefficient of water	uncertainty
0.9887	1	0.039
0.9736	0.988	0.039
0.9597	0.966	0.039
0.9434	0.942	0.039
0.9091	0.87	0.039
0.8782	0.801	0.039
0.8286	0.674	0.039
0.7593	0.488	0.039

System: water + 1-butyl-2-methylpyridinium chloride; phases: Liquid
Fixed: Pressure, kPa = 101
Fixed: Temperature, K = 298.2
Property: Activity coefficient of water (Liquid); method: Novasina hygrometer Labmaster-aw
Mole fraction of water	Activity coefficient of water	uncertainty
0.9895	0.999	0.039
0.9767	0.991	0.039
0.9611	0.965	0.039
0.9414	0.935	0.039
0.913	0.867	0.039
0.8768	0.784	0.039
0.8193	0.616	0.039
0.7343	0.405	0.039

System: water + 1-butyl-3-methylpyridinium chloride; phases: Liquid
Fixed: Pressure, kPa = 101
Fixed: Temperature, K = 298.2
Property: Activity coefficient of water (Liquid); method: Novasina hygrometer Labmaster-aw
Mole fraction of water	Activity coefficient of water	uncertainty
0.9893	0.999	0.039
0.9765	0.992	0.039
0.9608	0.967	0.039
0.9426	0.939	0.039
0.9166	0.892	0.039
0.8827	0.811	0.039
0.8254	0.656	0.039
0.751	0.456	0.039
0.6214	0.224	0.039

System: water + 1-butyl-4-methylpyridinium chloride; phases: Liquid
Fixed: Pressure, kPa = 101
Fixed: Temperature, K = 298.2
Property: Activity coefficient of water (Liquid); method: Novasina hygrometer Labmaster-aw
Mole fraction of water	Activity coefficient of water	uncertainty
0.9892	0.998	0.039
0.9769	0.99	0.039
0.9603	0.967	0.039
0.9413	0.937	0.039
0.9119	0.883	0.039
0.8763	0.793	0.039
0.817	0.631	0.039
0.7391	0.426	0.039
0.6781	0.327	0.039

System: water + 1-butyl-1-methylpyrrolidinium chloride; phases: Liquid
Fixed: Pressure, kPa = 101
Fixed: Temperature, K = 298.2
Property: Activity coefficient of water (Liquid); method: Novasina hygrometer Labmaster-aw
Mole fraction of water	Activity coefficient of water	uncertainty
0.9894	0.997	0.039
0.9781	0.989	0.039
0.9603	0.954	0.039
0.9463	0.921	0.039
0.9261	0.857	0.039
0.8984	0.739	0.039
0.8588	0.576	0.039
0.804	0.392	0.039
0.7554	0.264	0.039

System: water + 1-butyl-1-methylpiperidinium chloride; phases: Liquid
Fixed: Pressure, kPa = 101
Fixed: Temperature, K = 298.2
Property: Activity coefficient of water (Liquid); method: Novasina hygrometer Labmaster-aw
Mole fraction of water	Activity coefficient of water	uncertainty
0.9899	0.999	0.039
0.9776	0.991	0.039
0.9622	0.969	0.039
0.9432	0.932	0.039
0.9196	0.874	0.039
0.8843	0.781	0.039
0.8231	0.573	0.039
0.7469	0.404	0.039
