Measured thermophysical data. Solubility of elemental sulfur in pure organic solvents and organic solvent-ionic liquid mixtures from 293.15 to 353.15 K
Source: Fluid Phase Equilib., 2011, 10.1016/j.fluid.2011.09.012
Compound 1: toluene, C7H8, InChI=1S/C7H8/c1-7-5-3-2-4-6-7/h2-6H,1H3, purity 99%
Compound 2: cyclooctasulfur, S8, InChI=1S/S8/c1-2-4-6-8-7-5-3-1, purity 99%
Compound 3: 1-hexyl-3-methylimidazolium hexafluorophosphate, C10H19F6N2P, InChI=1S/C10H19N2.F6P/c1-3-4-5-6-7-12-9-8-11(2)10-12;1-7(2,3,4,5)6/h8-10H,3-7H2,1-2H3;/q+1;-1, purity 99%
Compound 4: sulfur, S, InChI=1S/S, purity 99%
Compound 5: chlorobenzene, C6H5Cl, InChI=1S/C6H5Cl/c7-6-4-2-1-3-5-6/h1-5H, purity 99%
Compound 6: 1,4-dimethylbenzene, C8H10, InChI=1S/C8H10/c1-7-3-5-8(2)6-4-7/h3-6H,1-2H3, purity 99%
Compound 7: cyclohexane, C6H12, InChI=1S/C6H12/c1-2-4-6-5-3-1/h1-6H2, purity 99%
Compound 8: 1-butyl-3-methylimidazolium hexafluorophosphate, C8H15F6N2P, InChI=1S/C8H15N2.F6P/c1-3-4-5-10-7-6-9(2)8-10;1-7(2,3,4,5)6/h6-8H,3-5H2,1-2H3;/q+1;-1, purity 99%
Compound 9: 1-butyl-3-methylimidazolium tetrafluoroborate, C8H15BF4N2, InChI=1S/C8H15N2.BF4/c1-3-4-5-10-7-6-9(2)8-10;2-1(3,4)5/h6-8H,3-5H2,1-2H3;/q+1;-1, purity 99%
Compound 10: 1-hexyl-3-methylimidazolium tetrafluoroborate, C10H19BF4N2, InChI=1S/C10H19N2.BF4/c1-3-4-5-6-7-12-9-8-11(2)10-12;2-1(3,4)5/h8-10H,3-7H2,1-2H3;/q+1;-1, purity 99%

System: toluene + cyclooctasulfur + 1-hexyl-3-methylimidazolium hexafluorophosphate; phases: Liquid, Crystal
Fixed: Pressure, kPa = 101
Property: Mole fraction of cyclooctasulfur (Liquid); method: cloud point
Solvent: Mole fraction of 1-hexyl-3-methylimidazolium hexafluorophosphate	Temperature, K	Mole fraction of cyclooctasulfur	uncertainty
0.35	303.15	0.01088	0.0049
0.35	313.15	0.01512	0.0049
0.35	323.15	0.02028	0.0049
0.35	333.15	0.02855	0.0049
0.35	343.15	0.03685	0.00491
0.35	353.15	0.05133	0.00491
0.4	303.15	0.0084	0.0049
0.4	313.15	0.0117	0.0049
0.4	323.15	0.01498	0.0049
0.4	333.15	0.02148	0.0049
0.4	343.15	0.02823	0.0049
0.4	353.15	0.0431	0.00491
0.5	303.15	0.00472	0.00472
0.5	313.15	0.00691	0.0049
0.5	323.15	0.00893	0.0049
0.5	333.15	0.01172	0.0049
0.5	343.15	0.01633	0.0049
0.5	353.15	0.02233	0.00491
0.6	303.15	0.00384	0.00384
0.6	313.15	0.00453	0.00453
0.6	323.15	0.00627	0.0049
0.6	333.15	0.00799	0.0049
0.6	343.15	0.01211	0.0049
0.6	353.15	0.0189	0.0049

System: toluene + sulfur; phases: Liquid, Crystal
Fixed: Pressure, kPa = 101
Property: Mole fraction of sulfur (Liquid); method: cloud point
Temperature, K	Mole fraction of sulfur	uncertainty
293.15	0.05392	0.00132
303.15	0.07547	0.00133
313.15	0.09745	0.00146
323.15	0.12841	0.00167
333.15	0.16429	0.00195
343.15	0.21182	0.00199
353.15	0.24979	0.00183

System: 1,4-dimethylbenzene + sulfur; phases: Liquid, Crystal
Fixed: Pressure, kPa = 101
Property: Mole fraction of sulfur (Liquid); method: cloud point
Temperature, K	Mole fraction of sulfur	uncertainty
5.392	0.07129	0.00301
7.547	0.08659	0.0026
9.745	0.09745	0.00324
12.841	0.12667	0.00444
16.429	0.16959	0.00416
21.182	0.21145	0.00414
24.979	0.25577	0.00478

System: chlorobenzene + sulfur; phases: Liquid, Crystal
Fixed: Pressure, kPa = 101
Property: Mole fraction of sulfur (Liquid); method: cloud point
Temperature, K	Mole fraction of sulfur	uncertainty
297.15	0.06446	0.0011
303.15	0.07139	0.00123
311.15	0.08916	0.00128
323.15	0.11141	0.00119
333.15	0.12471	0.00122
341.15	0.14276	0.0013
351.15	0.16209	0.00127

System: cyclohexane + sulfur; phases: Liquid, Crystal
Fixed: Pressure, kPa = 101
Property: Mole fraction of sulfur (Liquid); method: cloud point
Temperature, K	Mole fraction of sulfur	uncertainty
293.15	0.03106	0.00127
303.15	0.05067	0.00115
313.15	0.05972	0.00108
323.15	0.07035	0.00118
333.15	0.09063	0.00129
343.15	0.11098	0.00133
353.15	0.13387	0.00136

System: toluene + sulfur + 1-butyl-3-methylimidazolium tetrafluoroborate; phases: Liquid, Crystal
Fixed: Pressure, kPa = 101
Fixed: Solvent: Mole fraction of toluene = 0.4
Property: Mole fraction of sulfur (Liquid); method: cloud point
Temperature, K	Mole fraction of sulfur	uncertainty
303.15	0.00254	0.001
313.15	0.00339	0.001
323.15	0.00493	0.001
333.15	0.00703	0.001
343.15	0.00926	0.00101
353.15	0.01325	0.00101

System: toluene + sulfur + 1-hexyl-3-methylimidazolium tetrafluoroborate; phases: Liquid, Crystal
Fixed: Pressure, kPa = 101
Fixed: Solvent: Mole fraction of toluene = 0.4
Property: Mole fraction of sulfur (Liquid); method: cloud point
Temperature, K	Mole fraction of sulfur	uncertainty
303.15	0.00354	0.001
313.15	0.00442	0.001
323.15	0.00632	0.001
333.15	0.00859	0.001
343.15	0.01048	0.001
353.15	0.01227	0.001

System: toluene + sulfur + 1-butyl-3-methylimidazolium hexafluorophosphate; phases: Liquid, Crystal
Fixed: Pressure, kPa = 101
Fixed: Solvent: Mole fraction of toluene = 0.4
Property: Mole fraction of sulfur (Liquid); method: cloud point
Temperature, K	Mole fraction of sulfur	uncertainty
303.15	0.00226	0.001
313.15	0.00323	0.001
323.15	0.00468	0.001
333.15	0.00596	0.001
343.15	0.00692	0.001
353.15	0.00756	0.001

System: toluene + sulfur + 1-hexyl-3-methylimidazolium hexafluorophosphate; phases: Liquid, Crystal
Fixed: Pressure, kPa = 101
Fixed: Solvent: Mole fraction of toluene = 0.4
Property: Mole fraction of sulfur (Liquid); method: cloud point
Temperature, K	Mole fraction of sulfur	uncertainty
303.15	0.00384	0.001
313.15	0.00453	0.001
323.15	0.00627	0.001
333.15	0.00799	0.00101
343.15	0.01211	0.00102
353.15	0.0189	0.00104

System: toluene + sulfur + 1-hexyl-3-methylimidazolium hexafluorophosphate; phases: Liquid, Crystal
Fixed: Pressure, kPa = 101
Property: Mole fraction of sulfur (Liquid); method: cloud point
Solvent: Mole fraction of 1-hexyl-3-methylimidazolium hexafluorophosphate	Temperature, K	Mole fraction of sulfur	uncertainty
0.35	303.15	0.01088	0.00101
0.35	313.15	0.01512	0.00102
0.35	323.15	0.02028	0.00104
0.35	333.15	0.02855	0.00105
0.35	343.15	0.03685	0.0011
0.35	353.15	0.05133	0.00116
0.4	303.15	0.0084	0.00101
0.4	313.15	0.0117	0.00101
0.4	323.15	0.01498	0.00102
0.4	333.15	0.02148	0.00103
0.4	343.15	0.02823	0.00109
0.4	353.15	0.0431	0.00115
0.5	303.15	0.00472	0.001
0.5	313.15	0.00691	0.001
0.5	323.15	0.00893	0.001
0.5	333.15	0.01172	0.00101
0.5	343.15	0.01633	0.00102
0.5	353.15	0.02233	0.00111
0.6	303.15	0.00384	0.001
0.6	313.15	0.00453	0.001
0.6	323.15	0.00627	0.001
0.6	333.15	0.00799	0.00101
0.6	343.15	0.01211	0.00102
0.6	353.15	0.0189	0.00104
