Measured thermophysical data. Vapour liquid equilibrium data for the hydrogen sulphide + n-heptane system at temperatures from 293.25 to 373.22K and pressures up to about 6.9MPa
Source: Fluid Phase Equilib., 2006, 10.1016/j.fluid.2006.09.021
Compound 1: heptane, C7H16, InChI=1S/C7H16/c1-3-5-7-6-4-2/h3-7H2,1-2H3
Compound 2: hydrogen sulfide, H2S, InChI=1S/H2S/h1H2

System: hydrogen sulfide; phases: Liquid, Gas
Property: Vapor or sublimation pressure, kPa (Liquid); method: Closed cell (Static) method
Temperature, K	Vapor or sublimation pressure, kPa	uncertainty
223.19	167.4	1.3
228.2	209.1	1.3
233.11	257.4	1.3
238.04	313.9	1.3
243.04	380.1	1.4
248.01	456.7	1.5
252.97	544.2	1.5
258.01	644.5	1.6
263	757.7	1.8
268.02	885.7	1.9
273.17	1032.3	2.1
278.24	1194.1	2.3
283.26	1371.1	2.5
288.31	1566.6	2.8
293.1	1767.9	3.3
293.3	1779.5	3.3
298.41	2022.2	3.5
303.08	2259.6	3.9
313.11	2847.2	4.8
323.18	3540.4	5.9
333.17	4339.5	7.2
343.16	5261.2	8.7
353.17	6319.2	10.4
363.16	7533	12.3
373.15	8932.1	14.5

System: heptane + hydrogen sulfide; phases: Liquid, Gas
Property: Vapor or sublimation pressure, kPa (Liquid); method: Closed cell (Static) method
Mole fraction of hydrogen sulfide	Temperature, K	Vapor or sublimation pressure, kPa	uncertainty
0.0521	373.22	449.5	22.6
0.0808	353.15	506.6	27.5
0.1138	333.28	500.6	26.3
0.1252	373.22	975.9	52.5
0.1457	313.25	474.7	26.8
0.1638	293.25	397.9	21.8
0.1688	353.15	975.9	56.3
0.2076	333.28	855.8	52.7
0.2305	373.22	1695.4	98.5
0.237	313.25	750.9	43.4
0.2548	353.15	1472.1	87.8
0.266	293.25	624.1	33.3
0.3488	353.15	2008.1	119.4
0.3524	293.25	789.6	40.2
0.3525	313.25	1103.5	65.3
0.3579	333.28	1520.6	93
0.4082	373.22	2983.5	183.8
0.467	293.25	1005.7	50.5
0.4839	313.25	1512.8	85
0.5178	333.28	2204.4	138.9
0.5304	353.15	3042.1	184.6
0.5906	293.25	1218.3	56.7
0.6117	373.22	4550.8	301.8
0.6262	333.28	2715.7	163.8
0.6395	313.25	1943.3	104.2
0.6777	353.15	3914.9	256.3
0.7164	293.25	1403.6	59.2
0.7549	333.28	3241.6	188.9
0.7552	373.22	5846.8	440.8
0.7571	313.25	2252.7	111.6
0.8073	353.15	4788.1	326.7
0.8443	373.22	6828.3	558.4
0.8661	333.28	3700.6	293.5
0.8767	293.25	1611.9	68.6
0.8777	313.25	2527.3	159.9

System: heptane + hydrogen sulfide; phases: Gas, Liquid
Property: Mole fraction of hydrogen sulfide (Gas); method: Chromatography
Mole fraction of hydrogen sulfide	Temperature, K	Mole fraction of hydrogen sulfide	uncertainty
0.0521	373.22	0.7583	0.0458
0.0808	353.15	0.8761	0.0527
0.1138	333.28	0.9481	0.0519
0.1252	373.22	0.8809	0.0533
0.1457	313.25	0.9763	0.0237
0.1638	293.25	0.9897	0.0103
0.1688	353.15	0.9342	0.0562
0.2076	333.28	0.9701	0.0299
0.2305	373.22	0.9279	0.0558
0.237	313.25	0.988	0.012
0.2548	353.15	0.9548	0.0452
0.266	293.25	0.992	0.008
0.3488	353.15	0.9639	0.0361
0.3524	293.25	0.9935	0.0065
0.3525	313.25	0.9915	0.0085
0.3579	333.28	0.9819	0.0181
0.4082	373.22	0.9605	0.0395
0.467	293.25	0.9954	0.0046
0.4839	313.25	0.9952	0.0048
0.5178	333.28	0.9879	0.0121
0.5304	353.15	0.9804	0.0196
0.5906	293.25	0.9963	0.0037
0.6117	373.22	0.9762	0.0238
0.6262	333.28	0.9911	0.0089
0.6395	313.25	0.9968	0.0032
0.6777	353.15	0.9837	0.0163
0.7164	293.25	0.9968	0.0032
0.7549	333.28	0.9944	0.0056
0.7552	373.22	0.9777	0.0223
0.7571	313.25	0.9976	0.0024
0.8073	353.15	0.9878	0.0122
0.8443	373.22	0.983	0.017
0.8661	333.28	0.996	0.004
0.8767	293.25	0.9989	0.0011
0.8777	313.25	0.998	0.002
