Measured thermophysical data. High pressure vapor-liquid equilibria for binary carbon dioxide and protic ionic liquid based on ethanolamines + butanoic acid
Source: Fluid Phase Equilib., 2018, 10.1016/j.fluid.2017.12.018
Compound 1: 2-hydroxy ethylammonium butanoate, C6H15NO3, InChI=1S/C4H8O2.C2H7NO/c1-2-3-4(5)6;3-1-2-4/h2-3H2,1H3,(H,5,6);4H,1-3H2, purity 99.13%
Compound 2: N-methyl-2-hydroxyethylammonium butanoate, C7H17NO3, InChI=1S/C4H8O2.C3H9NO/c1-2-3-4(5)6;1-4-2-3-5/h2-3H2,1H3,(H,5,6);4-5H,2-3H2,1H3, purity 97.61%
Compound 3: N-ethyl-2-hydroxyethylammonium butanoate, C8H19NO3, InChI=1S/C4H11NO.C4H8O2/c1-2-5-3-4-6;1-2-3-4(5)6/h5-6H,2-4H2,1H3;2-3H2,1H3,(H,5,6), purity 99.19%
Compound 4: carbon dioxide, CO2, InChI=1S/CO2/c2-1-3, purity 99.99%

System: carbon dioxide + 2-hydroxy ethylammonium butanoate; phases: Liquid, Gas
Property: Vapor or sublimation pressure, kPa (Liquid); method: Closed cell (Static) method
Temperature, K	Mole fraction of carbon dioxide	Vapor or sublimation pressure, kPa	uncertainty
313	0.099	183	47
313	0.196	1254	134
313	0.294	4253	160
313	0.393	7452	294
313	0.445	15410	800
323	0.099	203	66
323	0.196	1794	123
323	0.294	5243	183
323	0.393	9171	441
323	0.445	20537	978
333	0.099	249	89
333	0.196	2403	133
333	0.294	6214	219
333	0.393	11767	496
333	0.445	24862	1104
343	0.099	375	103
343	0.196	2792	170
343	0.294	7310	263
343	0.393	13974	577
343	0.445	29285	1262
353	0.099	400	119
353	0.196	3255	204
353	0.294	8323	358
353	0.393	16956	462

System: carbon dioxide + N-methyl-2-hydroxyethylammonium butanoate; phases: Liquid, Gas
Property: Vapor or sublimation pressure, kPa (Liquid); method: Closed cell (Static) method
Temperature, K	Mole fraction of carbon dioxide	Vapor or sublimation pressure, kPa	uncertainty
313	0.104	161	24
313	0.196	705	68
313	0.296	2459	105
313	0.394	4873	152
313	0.494	7894	258
323	0.104	176	36
323	0.196	1013	105
323	0.296	3167	126
323	0.394	6016	183
323	0.494	10136	299
333	0.104	270	51
333	0.196	1328	93
333	0.296	3778	132
333	0.394	7076	225
333	0.494	12736	362
343	0.104	373	60
343	0.196	1604	93
343	0.296	4379	149
343	0.394	8347	267
343	0.494	15635	432
353	0.104	433	64
353	0.196	1875	126
353	0.296	4973	198
353	0.394	9737	401
353	0.494	18908	498

System: carbon dioxide + N-ethyl-2-hydroxyethylammonium butanoate; phases: Liquid, Gas
Property: Vapor or sublimation pressure, kPa (Liquid); method: Closed cell (Static) method
Temperature, K	Mole fraction of carbon dioxide	Vapor or sublimation pressure, kPa	uncertainty
313	0.105	772	42
313	0.219	1888	57
313	0.325	3446	87
313	0.434	5849	151
313	0.536	9163	321
323	0.105	861	53
323	0.219	2301	73
323	0.325	4145	120
323	0.434	7004	205
323	0.536	12049	368
333	0.105	973	64
333	0.219	2643	82
333	0.325	4915	134
333	0.434	8147	246
333	0.536	14792	396
343	0.105	1077	70
343	0.219	3061	117
343	0.325	5845	179
343	0.434	9749	394
343	0.536	17600	441
