Measured thermophysical data. Liquid-liquid equilibria of aqueous two-phase systems of the ionic liquid brominated N-ethyl pyridine and sodium dihydrogen phosphate, sodium sulfate,  ammonium citrate, and potassium tartrate at different temperatures:  Experimental determination and correlation
Source: Fluid Phase Equilib., 2013, 10.1016/j.fluid.2012.12.019
Compound 1: 1-ethylpyridinium bromide, C7H10BrN, InChI=1S/C7H10N.BrH/c1-2-8-6-4-3-5-7-8;/h3-7H,2H2,1H3;1H/q+1;/p-1, purity 99%
Compound 2: sodium dihydrogen phosphate, H2NaO4P, InChI=1S/Na.H3O4P/c;1-5(2,3)4/h;(H3,1,2,3,4)/q+1;/p-1, purity 99%
Compound 3: water, H2O, InChI=1S/H2O/h1H2, purity 99%
Compound 4: sodium sulfate, Na2O4S, InChI=1S/2Na.H2O4S/c;;1-5(2,3)4/h;;(H2,1,2,3,4)/q2*+1;/p-2, purity 99%
Compound 5: ammonium 2-hydroxypropane-1,2,3-tricarboxylate, C6H17N3O7, InChI=1S/C6H8O7.3H3N/c7-3(8)1-6(13,5(11)12)2-4(9)10;;;/h13H,1-2H2,(H,7,8)(H,9,10)(H,11,12);3*1H3, purity 99%
Compound 6: dipotassium meso-tartrate, C4H4K2O6, InChI=1S/C4H6O6.2K/c5-1(3(7)8)2(6)4(9)10;;/h1-2,5-6H,(H,7,8)(H,9,10);;/q;2*+1/p-2/t1-,2+;;, purity 99%

System: 1-ethylpyridinium bromide + sodium dihydrogen phosphate + water; phases: Liquid mixture 1, Liquid mixture 2
Fixed: Pressure, kPa = 101
Property: Mass fraction of 1-ethylpyridinium bromide (Liquid mixture 1); method: Titration method
Temperature, K	Mass fraction of sodium dihydrogen phosphate	Mass fraction of 1-ethylpyridinium bromide	uncertainty
298.15	0.0235	0.6024	0.0147
298.15	0.0247	0.5983	0.0151
298.15	0.0274	0.5868	0.0149
298.15	0.0292	0.5804	0.015
298.15	0.0305	0.5764	0.0147
298.15	0.0321	0.5708	0.0149
298.15	0.0336	0.5661	0.0149
298.15	0.0347	0.5619	0.0149
298.15	0.0362	0.558	0.015
298.15	0.0372	0.5549	0.0149
298.15	0.0383	0.5518	0.0151
298.15	0.0392	0.5501	0.015
298.15	0.0412	0.5432	0.0152
298.15	0.0428	0.5394	0.0153
298.15	0.0438	0.5368	0.0151
298.15	0.045	0.534	0.0152
298.15	0.046	0.5316	0.0152
298.15	0.0472	0.5288	0.0153
298.15	0.0482	0.5265	0.0155
298.15	0.0497	0.5229	0.0155
298.15	0.051	0.5195	0.0155
298.15	0.0523	0.517	0.0156
298.15	0.0536	0.5144	0.0156
298.15	0.0545	0.5121	0.0157
298.15	0.0558	0.5098	0.0157
298.15	0.0571	0.5071	0.0158
298.15	0.0586	0.5041	0.0159
298.15	0.06	0.5013	0.0159
298.15	0.0617	0.4978	0.0159
298.15	0.0631	0.4958	0.0158
298.15	0.0648	0.4926	0.0157
298.15	0.0665	0.4894	0.0156
298.15	0.0681	0.4867	0.0154
298.15	0.0697	0.4842	0.0154
298.15	0.0713	0.4819	0.0153
298.15	0.0736	0.4773	0.0152
298.15	0.0756	0.4738	0.0151
298.15	0.0778	0.4699	0.0149
298.15	0.0797	0.4671	0.0148
298.15	0.0817	0.4644	0.0147
298.15	0.084	0.4604	0.0146
298.15	0.0861	0.4574	0.0145
298.15	0.0885	0.454	0.0144
298.15	0.0909	0.4502	0.0143
298.15	0.0937	0.4458	0.0141
298.15	0.0965	0.4417	0.014
298.15	0.0989	0.4386	0.0138
298.15	0.1012	0.4361	0.0139
298.15	0.1039	0.4302	0.0138
298.15	0.1062	0.4274	0.0135
298.15	0.1085	0.4241	0.0136
298.15	0.1119	0.4179	0.0132
298.15	0.1139	0.4158	0.0132
298.15	0.1166	0.4129	0.013
298.15	0.1185	0.4111	0.0129
298.15	0.1199	0.4094	0.0128
298.15	0.1221	0.4077	0.0128
298.15	0.1229	0.4072	0.0128
298.15	0.1243	0.4055	0.0127
298.15	0.1267	0.4028	0.0127
298.15	0.1295	0.3999	0.0126
298.15	0.1314	0.3978	0.0125
298.15	0.1337	0.3955	0.0125
298.15	0.1362	0.3922	0.0124
298.15	0.1381	0.3899	0.0123
298.15	0.1399	0.3881	0.0122
298.15	0.1417	0.386	0.0121
298.15	0.1451	0.3827	0.012
298.15	0.1472	0.3803	0.012
298.15	0.1489	0.3799	0.012
298.15	0.1527	0.3747	0.0119
298.15	0.1564	0.3708	0.0117
298.15	0.1582	0.3691	0.0116
298.15	0.1601	0.3673	0.0115
298.15	0.162	0.3655	0.0115
298.15	0.1641	0.3637	0.0114
298.15	0.1665	0.361	0.0114
298.15	0.1685	0.3591	0.0113
298.15	0.1706	0.3572	0.0112
298.15	0.1732	0.3545	0.0111
298.15	0.1754	0.3528	0.0111
298.15	0.1778	0.3507	0.0109
298.15	0.1807	0.3496	0.011
298.15	0.1854	0.3436	0.0109
298.15	0.188	0.3412	0.0107
298.15	0.1907	0.3387	0.0107
298.15	0.1934	0.3359	0.0106
298.15	0.1969	0.3323	0.0105
298.15	0.1997	0.3297	0.0104
298.15	0.2033	0.3261	0.0103
298.15	0.2065	0.3233	0.0102
298.15	0.2096	0.3202	0.0101
298.15	0.2131	0.3172	0.01
298.15	0.2165	0.3138	0.0099
298.15	0.2199	0.3105	0.0098
298.15	0.2235	0.3072	0.0097
298.15	0.228	0.3027	0.0096
298.15	0.2317	0.2991	0.0094
298.15	0.2359	0.2955	0.0093
298.15	0.2383	0.2939	0.0093
298.15	0.2425	0.2899	0.0092
298.15	0.2535	0.2787	0.0089
298.15	0.2578	0.2748	0.0088
298.15	0.2648	0.2671	0.0085
298.15	0.269	0.2637	0.0084
298.15	0.2773	0.2547	0.0082
298.15	0.2839	0.2479	0.0079
298.15	0.2911	0.2407	0.0077
298.15	0.2986	0.2332	0.0075
298.15	0.3066	0.2253	0.0073
298.15	0.3148	0.2168	0.007
298.15	0.3222	0.21	0.0068
298.15	0.3296	0.2029	0.0066
298.15	0.3378	0.1952	0.0064
298.15	0.3508	0.1819	0.006
298.15	0.3602	0.1733	0.0056
298.15	0.3727	0.1649	0.0053
308.15	0.0284	0.6017	0.0136
308.15	0.0294	0.5985	0.0134
308.15	0.0304	0.5952	0.0135
308.15	0.0315	0.5911	0.0141
308.15	0.0325	0.5878	0.0143
308.15	0.0334	0.5847	0.0145
308.15	0.0346	0.581	0.014
308.15	0.0357	0.5776	0.0143
308.15	0.0365	0.5753	0.0145
308.15	0.0375	0.5722	0.0144
308.15	0.0389	0.5681	0.0144
308.15	0.0399	0.5653	0.0144
308.15	0.0415	0.5611	0.0145
308.15	0.0427	0.5576	0.0147
308.15	0.0435	0.5561	0.0146
308.15	0.0455	0.5506	0.0147
308.15	0.0472	0.5465	0.0149
308.15	0.0485	0.5434	0.0149
308.15	0.0505	0.5388	0.015
308.15	0.0518	0.5356	0.0151
308.15	0.0531	0.5327	0.015
308.15	0.0546	0.5294	0.0151
308.15	0.056	0.5262	0.0152
308.15	0.0573	0.5237	0.0153
308.15	0.0589	0.5203	0.0154
308.15	0.0604	0.5173	0.0155
308.15	0.0622	0.5136	0.0156
308.15	0.0636	0.511	0.0156
308.15	0.0652	0.5078	0.0157
308.15	0.067	0.5045	0.0158
308.15	0.0689	0.5011	0.0159
308.15	0.0704	0.4985	0.0158
308.15	0.0722	0.4953	0.0157
308.15	0.0733	0.4934	0.0157
308.15	0.0741	0.4921	0.0156
308.15	0.0752	0.4902	0.0157
308.15	0.0763	0.488	0.0154
308.15	0.0775	0.4861	0.0155
308.15	0.0797	0.4823	0.0154
308.15	0.082	0.4785	0.0151
308.15	0.0853	0.4737	0.015
308.15	0.0879	0.4692	0.0149
308.15	0.0905	0.4653	0.0147
308.15	0.0917	0.4636	0.0145
308.15	0.0931	0.4616	0.0146
308.15	0.0947	0.4626	0.0145
308.15	0.0971	0.4557	0.0143
308.15	0.0988	0.4561	0.0146
308.15	0.1011	0.4529	0.0144
308.15	0.1031	0.4469	0.0144
308.15	0.1049	0.4441	0.0142
308.15	0.1066	0.4416	0.0138
308.15	0.1086	0.4386	0.0139
308.15	0.1106	0.4399	0.0139
308.15	0.1138	0.432	0.0135
308.15	0.116	0.4328	0.0135
308.15	0.1193	0.4284	0.0135
308.15	0.1212	0.4263	0.0135
308.15	0.1243	0.4223	0.0134
308.15	0.1269	0.4188	0.0132
308.15	0.1287	0.4171	0.0132
308.15	0.1321	0.4124	0.0131
308.15	0.1344	0.4099	0.0129
308.15	0.1361	0.4086	0.0129
308.15	0.1406	0.4025	0.0127
308.15	0.1431	0.4012	0.0126
308.15	0.149	0.393	0.0124
308.15	0.1508	0.3916	0.0124
308.15	0.1543	0.3875	0.0122
308.15	0.1578	0.3837	0.0121
308.15	0.1649	0.3756	0.0119
308.15	0.168	0.3725	0.0118
308.15	0.1706	0.37	0.0116
308.15	0.1742	0.3661	0.0115
308.15	0.1776	0.3626	0.0114
308.15	0.1811	0.3589	0.0113
308.15	0.1843	0.356	0.0112
308.15	0.1885	0.3514	0.0111
308.15	0.1925	0.3473	0.011
308.15	0.1974	0.3423	0.0108
308.15	0.2004	0.3397	0.0107
308.15	0.2042	0.3361	0.0106
308.15	0.2092	0.3308	0.0104
308.15	0.2126	0.3279	0.0103
308.15	0.2162	0.3251	0.0102
308.15	0.221	0.3205	0.01
308.15	0.2233	0.3195	0.0104
308.15	0.2339	0.3065	0.0098
308.15	0.2392	0.3014	0.0095
308.15	0.2446	0.2961	0.0094
308.15	0.2524	0.2881	0.0092
308.15	0.2598	0.2805	0.0089
308.15	0.2662	0.2742	0.0087
308.15	0.2743	0.2661	0.0085
308.15	0.2812	0.2598	0.0083
308.15	0.2888	0.2522	0.0081
308.15	0.2981	0.2429	0.0078
308.15	0.3062	0.2348	0.0075
308.15	0.3141	0.2279	0.0073
308.15	0.3273	0.2143	0.0069
308.15	0.3368	0.2073	0.0066
318.15	0.0178	0.6625	0.0142
318.15	0.0236	0.6335	0.0148
318.15	0.0262	0.6227	0.014
318.15	0.0276	0.6175	0.0142
318.15	0.0295	0.6106	0.0141
318.15	0.0308	0.6054	0.0141
318.15	0.032	0.6018	0.0141
318.15	0.0328	0.5993	0.0141
318.15	0.0342	0.5946	0.0141
318.15	0.0366	0.5868	0.0142
318.15	0.0389	0.5799	0.0142
318.15	0.0412	0.5735	0.0144
318.15	0.0425	0.5697	0.0144
318.15	0.0438	0.5662	0.0145
318.15	0.045	0.5632	0.0145
318.15	0.0464	0.5596	0.0145
318.15	0.0479	0.5558	0.0147
318.15	0.0491	0.5531	0.0148
318.15	0.0507	0.5489	0.0148
318.15	0.0522	0.5451	0.0149
318.15	0.0537	0.5417	0.0149
318.15	0.055	0.5392	0.0149
318.15	0.0573	0.5342	0.0151
318.15	0.059	0.5304	0.0152
318.15	0.0607	0.5266	0.0152
318.15	0.0627	0.5222	0.0154
318.15	0.0651	0.5181	0.0154
318.15	0.0673	0.514	0.0156
318.15	0.0692	0.5101	0.0156
318.15	0.0704	0.508	0.0157
318.15	0.0731	0.5034	0.0159
318.15	0.0755	0.4986	0.0159
318.15	0.0776	0.4953	0.0158
318.15	0.0806	0.4899	0.0156
318.15	0.083	0.4861	0.0154
318.15	0.0843	0.484	0.0153
318.15	0.087	0.4796	0.0152
318.15	0.0884	0.4771	0.0151
318.15	0.0899	0.4741	0.015
318.15	0.0925	0.4708	0.0149
318.15	0.0941	0.4678	0.0148
318.15	0.0973	0.463	0.0147
318.15	0.0992	0.4601	0.0146
318.15	0.1037	0.4541	0.0144
318.15	0.1064	0.449	0.0143
318.15	0.1098	0.4446	0.0139
318.15	0.1117	0.4423	0.0138
318.15	0.117	0.4407	0.0137
318.15	0.1202	0.4361	0.0138
318.15	0.1228	0.4332	0.0136
318.15	0.1256	0.4299	0.0135
318.15	0.1289	0.4262	0.0135
318.15	0.1335	0.4198	0.0133
318.15	0.1365	0.4164	0.0131
318.15	0.1399	0.4125	0.013
318.15	0.1427	0.4096	0.0129
318.15	0.1476	0.4035	0.0128
318.15	0.1513	0.3994	0.0126
318.15	0.155	0.3959	0.0125
318.15	0.16	0.3898	0.0123
318.15	0.1637	0.386	0.0122
318.15	0.1696	0.379	0.012
318.15	0.1729	0.376	0.0118
318.15	0.1777	0.3707	0.0117
318.15	0.1815	0.367	0.0116
318.15	0.1887	0.3584	0.0113
318.15	0.1924	0.3556	0.0111
318.15	0.1978	0.3504	0.011
318.15	0.2017	0.3473	0.0109
318.15	0.2062	0.3432	0.0108
318.15	0.2133	0.3355	0.0106
318.15	0.2194	0.3295	0.0104
318.15	0.2264	0.3222	0.0102
318.15	0.2321	0.3176	0.01
318.15	0.2378	0.3126	0.0099
318.15	0.2477	0.302	0.0096
318.15	0.2545	0.296	0.0094
318.15	0.261	0.2898	0.0092
318.15	0.2697	0.2814	0.0089
318.15	0.2822	0.2686	0.0086
318.15	0.2973	0.2528	0.0081
318.15	0.3082	0.2426	0.0077
318.15	0.3178	0.2339	0.0075
328.15	0.0229	0.6479	0.0136
328.15	0.0239	0.6439	0.0129
328.15	0.0254	0.6378	0.0136
328.15	0.0262	0.6363	0.0136
328.15	0.0283	0.627	0.014
328.15	0.029	0.6245	0.0141
328.15	0.0297	0.6221	0.0141
328.15	0.0311	0.6169	0.0137
328.15	0.0319	0.6141	0.0139
328.15	0.0326	0.6115	0.014
328.15	0.0336	0.6086	0.0137
328.15	0.0347	0.6043	0.0137
328.15	0.0356	0.602	0.0138
328.15	0.0361	0.6008	0.0138
328.15	0.0366	0.5994	0.0139
328.15	0.0374	0.5966	0.0138
328.15	0.0381	0.5946	0.0139
328.15	0.039	0.5918	0.0139
328.15	0.0397	0.5898	0.0139
328.15	0.0406	0.5869	0.0141
328.15	0.0419	0.5839	0.014
328.15	0.0429	0.5806	0.0139
328.15	0.0434	0.5797	0.014
328.15	0.0442	0.5777	0.0141
328.15	0.0449	0.5758	0.0141
328.15	0.0456	0.5742	0.0141
328.15	0.0462	0.5726	0.0141
328.15	0.0468	0.571	0.0142
328.15	0.0476	0.5691	0.0141
328.15	0.0484	0.5673	0.0141
328.15	0.0493	0.5647	0.0143
328.15	0.0506	0.5629	0.0144
328.15	0.0508	0.5609	0.0144
328.15	0.0517	0.559	0.0144
328.15	0.0524	0.5575	0.0144
328.15	0.0532	0.5557	0.0144
328.15	0.0537	0.5549	0.0145
328.15	0.0546	0.5529	0.0145
328.15	0.0554	0.5508	0.0146
328.15	0.0562	0.5491	0.0147
328.15	0.0574	0.5465	0.0148
328.15	0.0582	0.5445	0.0148
328.15	0.0592	0.5423	0.0148
328.15	0.0602	0.5401	0.0149
328.15	0.0611	0.5381	0.0149
328.15	0.062	0.5367	0.015
328.15	0.063	0.5343	0.015
328.15	0.0637	0.533	0.015
328.15	0.0647	0.5307	0.0151
328.15	0.0656	0.5291	0.0151
328.15	0.0667	0.5269	0.0152
328.15	0.0677	0.5252	0.0152
328.15	0.069	0.5225	0.0152
328.15	0.0699	0.5211	0.0153
328.15	0.0708	0.5199	0.0154
328.15	0.0722	0.5168	0.0154
328.15	0.0736	0.5138	0.0156
328.15	0.0755	0.5108	0.0156
328.15	0.0767	0.5084	0.0156
328.15	0.078	0.5063	0.0157
328.15	0.0793	0.5041	0.0157
328.15	0.0804	0.5022	0.0158
328.15	0.0817	0.5004	0.0158
328.15	0.0832	0.4976	0.0158
328.15	0.0849	0.4952	0.0157
328.15	0.0856	0.4938	0.0157
328.15	0.0873	0.4907	0.0156
328.15	0.0892	0.4867	0.0155
328.15	0.0897	0.4873	0.0154
328.15	0.0913	0.4842	0.0153
328.15	0.0936	0.4806	0.0152
328.15	0.095	0.4785	0.0152
328.15	0.0955	0.4774	0.0151
328.15	0.0968	0.4754	0.0151
328.15	0.0984	0.4726	0.015
328.15	0.0992	0.4718	0.015
328.15	0.1001	0.4699	0.0149
328.15	0.1019	0.4672	0.0148
328.15	0.1034	0.4648	0.0147
328.15	0.1035	0.4652	0.0147
328.15	0.1047	0.4631	0.0146
328.15	0.1053	0.4631	0.0146
328.15	0.1062	0.4612	0.0146
328.15	0.1091	0.4574	0.0144
328.15	0.1113	0.4546	0.0143
328.15	0.1136	0.452	0.0142
328.15	0.116	0.449	0.0142
328.15	0.1225	0.4399	0.0139
328.15	0.1303	0.4294	0.0136
328.15	0.1344	0.4239	0.0134
328.15	0.1367	0.4216	0.0132
328.15	0.1399	0.4183	0.0132
328.15	0.1448	0.4114	0.013
328.15	0.1482	0.4076	0.0129
328.15	0.1525	0.4022	0.0127
328.15	0.1558	0.3985	0.0126
328.15	0.1605	0.3928	0.0124
328.15	0.1635	0.3896	0.0122
328.15	0.1667	0.3865	0.0122
328.15	0.1716	0.3808	0.012
328.15	0.1747	0.3782	0.0119
328.15	0.178	0.3751	0.0117
328.15	0.1816	0.3726	0.0117
328.15	0.1873	0.3661	0.0115
328.15	0.1912	0.3623	0.0114
328.15	0.1977	0.3548	0.0112
328.15	0.2022	0.3506	0.011
328.15	0.2098	0.3459	0.0108
328.15	0.2142	0.3423	0.0107
328.15	0.2191	0.3378	0.0106
328.15	0.2243	0.3327	0.0105
328.15	0.2298	0.3273	0.0103
328.15	0.2355	0.3221	0.0102
328.15	0.2427	0.3149	0.0099
328.15	0.2493	0.3089	0.0097
328.15	0.2557	0.3029	0.0096
328.15	0.2647	0.2935	0.0093
328.15	0.2716	0.2872	0.0091
328.15	0.2795	0.2799	0.0089
328.15	0.2878	0.2722	0.0086
328.15	0.2953	0.2655	0.0084
328.15	0.3017	0.2598	0.0082

System: 1-ethylpyridinium bromide + sodium dihydrogen phosphate + water; phases: Liquid mixture 1, Liquid mixture 2
Fixed: Temperature, K = 298.15
Fixed: Pressure, kPa = 101
Property: Mass fraction of sodium dihydrogen phosphate (Liquid mixture 1); method: Titration method
Property: Mass fraction of sodium dihydrogen phosphate (Liquid mixture 2); method: Titration method
Property: Mass fraction of 1-ethylpyridinium bromide (Liquid mixture 2); method: Titration method
Mass fraction of 1-ethylpyridinium bromide	Mass fraction of sodium dihydrogen phosphate	uncertainty	Mass fraction of sodium dihydrogen phosphate	uncertainty	Mass fraction of 1-ethylpyridinium bromide	uncertainty
0.5644	0.0199	0.0021	0.0838	0.0033	0.3688	
0.5325	0.0263	0.0022	0.0705	0.003	0.397	
0.5687	0.0191	0.0021	0.0872	0.0033	0.3622	

System: 1-ethylpyridinium bromide + water + sodium sulfate; phases: Liquid mixture 1, Liquid mixture 2
Fixed: Temperature, K = 298.15
Fixed: Pressure, kPa = 101
Property: Mass fraction of 1-ethylpyridinium bromide (Liquid mixture 1); method: Titration method
Mass fraction of sodium sulfate	Mass fraction of 1-ethylpyridinium bromide	uncertainty
0.0528	0.4425	0.015
0.0599	0.4213	0.0143
0.0622	0.4153	0.0137
0.0649	0.4097	0.0135
0.0669	0.4064	0.0134
0.0681	0.402	0.0134
0.0698	0.3975	0.0134
0.0714	0.3937	0.0129
0.073	0.3905	0.0126
0.0746	0.3881	0.0126
0.0759	0.3865	0.0125
0.0785	0.3808	0.0125
0.0801	0.3773	0.0125
0.0818	0.374	0.01237
0.0835	0.3699	0.0124
0.0853	0.3661	0.0123
0.0862	0.3631	0.012
0.0862	0.3641	0.012
0.088	0.3595	0.0118
0.0882	0.3605	0.0119
0.0895	0.3577	0.0116
0.0906	0.3556	0.0118
0.0917	0.3537	0.0116
0.0928	0.351	0.011
0.0939	0.3494	0.0114
0.0951	0.3474	0.0113
0.0951	0.3458	0.0113
0.0975	0.3429	0.0113
0.0988	0.3406	0.0112
0.1	0.3383	0.0113
0.1014	0.3359	0.011
0.1026	0.3322	0.0109
0.1027	0.3333	0.0109
0.1042	0.3307	0.0109
0.1056	0.3282	0.0108
0.107	0.3254	0.0108
0.1092	0.3211	0.0105
0.1103	0.3204	0.0105
0.1119	0.3175	0.0104
0.1153	0.3112	0.0103
0.1169	0.3082	0.0102

System: 1-ethylpyridinium bromide + water + sodium sulfate; phases: Liquid mixture 2, Liquid mixture 1
Fixed: Pressure, kPa = 101
Property: Mass fraction of sodium sulfate (Liquid mixture 2); method: Titration method
Property: Mass fraction of sodium sulfate (Liquid mixture 1); method: Titration method
Property: Mass fraction of 1-ethylpyridinium bromide (Liquid mixture 1); method: Titration method
Temperature, K	Mass fraction of 1-ethylpyridinium bromide	Mass fraction of sodium sulfate	uncertainty	Mass fraction of sodium sulfate	uncertainty	Mass fraction of 1-ethylpyridinium bromide	uncertainty
298.15	0.3552	0.1715	0.0057	0.0439	0.0025	0.5373	
298.15	0.2407	0.2911	0.0093	0.0112	0.0021	0.6497	
298.15	0.3159	0.2107	0.0069	0.0266	0.0022	0.585	
308.15	0.3789	0.1609	0.0053	0.0508	0.0026	0.5387	
308.15	0.2918	0.2476	0.0079	0.0245	0.0022	0.6115	
308.15	0.3388	0.1994	0.0065	0.0367	0.0024	0.5735	
318.15	0.2695	0.2846	0.0091	0.0224	0.0022	0.637	
318.15	0.3754	0.171	0.0057	0.0609	0.0028	0.5283	
318.15	0.3406	0.2055	0.0067	0.0455	0.0025	0.5641	
328.15	0.3383	0.2157	0.007	0.0474	0.0025	0.5698	
328.15	0.297	0.261	0.0084	0.0281	0.0023	0.6269	
328.15	0.3717	0.1818	0.006	0.0643	0.0028	0.5321	

System: 1-ethylpyridinium bromide + ammonium 2-hydroxypropane-1,2,3-tricarboxylate + water; phases: Liquid mixture 1, Liquid mixture 2
Fixed: Temperature, K = 298.15
Fixed: Pressure, kPa = 101
Property: Mass fraction of 1-ethylpyridinium bromide (Liquid mixture 1); method: Titration method
Mass fraction of ammonium 2-hydroxypropane-1,2,3-tricarboxylate	Mass fraction of 1-ethylpyridinium bromide	uncertainty
0.0036	0.7938	0.0064
0.008	0.7627	0.0074
0.0124	0.7443	0.0079
0.0202	0.7161	0.0088
0.0238	0.7004	0.0093
0.0309	0.681	0.0099
0.0376	0.6617	0.0105
0.0443	0.6474	0.0109
0.0471	0.6342	0.0113
0.0502	0.6254	0.0116
0.0563	0.6126	0.012
0.0675	0.5969	0.0125
0.0745	0.5835	0.0129
0.0818	0.5688	0.0134
0.0851	0.5631	0.0135
0.0875	0.5588	0.0137
0.088	0.5576	0.0137
0.09	0.5544	0.0138
0.0939	0.5474	0.014
0.0978	0.5405	0.0142
0.1084	0.5214	0.0148
0.1097	0.5195	0.0149
0.1141	0.5151	0.015
0.1169	0.5086	0.0152
0.1187	0.5057	0.0153
0.1199	0.504	0.0154
0.1216	0.5018	0.0154
0.1233	0.4993	0.0155
0.125	0.497	0.0154
0.127	0.4937	0.0153
0.1278	0.4935	0.0153
0.1282	0.4925	0.0153
0.1297	0.4906	0.0152
0.1316	0.4879	0.0151
0.1349	0.4832	0.015
0.1366	0.4812	0.0149
0.139	0.4773	0.0148
0.1414	0.4747	0.0147
0.144	0.4706	0.0146
0.1471	0.4655	0.0144
0.1496	0.462	0.0143
0.1516	0.4595	0.0142
0.1538	0.4567	0.0142
0.156	0.4538	0.0141
0.1582	0.4511	0.014
0.161	0.4472	0.0139
0.1634	0.4443	0.0138
0.1658	0.4412	0.0137
0.1684	0.438	0.0136
0.1709	0.4349	0.0135
0.1735	0.4316	0.0134
0.1762	0.4283	0.0133
0.1791	0.4248	0.0132
0.1819	0.4212	0.0131
0.1857	0.4161	0.0129
0.1895	0.4108	0.0127
0.1941	0.404	0.0125
0.1974	0.3998	0.0124
0.2009	0.3953	0.0122
0.2037	0.3924	0.0122
0.2077	0.3875	0.012
0.2116	0.3826	0.0119
0.2156	0.3775	0.0117
0.2189	0.3741	0.0116
0.2233	0.3685	0.0114
0.2278	0.3629	0.0112
0.231	0.3589	0.0111
0.2363	0.3528	0.0109
0.2404	0.3486	0.0108
0.2455	0.3423	0.0106
0.2509	0.3357	0.0104
0.2554	0.3309	0.0103
0.2613	0.3237	0.01
0.2661	0.3182	0.0099
0.2724	0.3108	0.0096
0.2805	0.3004	0.0093
0.2889	0.2894	0.009
0.2949	0.2829	0.0088
0.3015	0.2763	0.0086
0.3074	0.2692	0.0083
0.3125	0.265	0.0082
0.3192	0.2575	0.008
0.3265	0.2497	0.0077
0.332	0.2447	0.0076
0.3398	0.2366	0.0073
0.3455	0.2315	0.0072
0.3515	0.2262	0.007
0.3596	0.2174	0.0067
0.3678	0.2086	0.0065
0.3742	0.203	0.0063

System: 1-ethylpyridinium bromide + ammonium 2-hydroxypropane-1,2,3-tricarboxylate + water; phases: Liquid mixture 2, Liquid mixture 1
Fixed: Temperature, K = 298.15
Fixed: Pressure, kPa = 101
Property: Mass fraction of ammonium 2-hydroxypropane-1,2,3-tricarboxylate (Liquid mixture 2); method: Titration method
Property: Mass fraction of ammonium 2-hydroxypropane-1,2,3-tricarboxylate (Liquid mixture 1); method: Titration method
Property: Mass fraction of 1-ethylpyridinium bromide (Liquid mixture 1); method: Titration method
Mass fraction of 1-ethylpyridinium bromide	Mass fraction of ammonium 2-hydroxypropane-1,2,3-tricarboxylate	uncertainty	Mass fraction of ammonium 2-hydroxypropane-1,2,3-tricarboxylate	uncertainty	Mass fraction of 1-ethylpyridinium bromide	uncertainty
0.1103	0.4588	0.0144	0.0638	0.0029	0.5947	
0.247	0.3277	0.0103	0.0601	0.0028	0.6022	
0.1843	0.3831	0.012	0.0548	0.0027	0.6132	

System: 1-ethylpyridinium bromide + dipotassium meso-tartrate + water; phases: Liquid mixture 1, Liquid mixture 2
Fixed: Temperature, K = 298.15
Fixed: Pressure, kPa = 101
Property: Mass fraction of 1-ethylpyridinium bromide (Liquid mixture 1); method: Titration method
Mass fraction of dipotassium meso-tartrate	Mass fraction of 1-ethylpyridinium bromide	uncertainty
0.0254	0.655	0.0679
0.0425	0.5956	0.0495
0.0454	0.5879	0.0576
0.0473	0.583	0.0563
0.0512	0.5732	0.0569
0.0542	0.5644	0.0562
0.0567	0.5607	0.0559
0.0602	0.5549	0.0537
0.0639	0.5444	0.0449
0.0667	0.5387	0.0444
0.0712	0.5291	0.042
0.0743	0.5232	0.0404
0.0768	0.5171	0.0407
0.08	0.5123	0.0406
0.0831	0.5066	0.0405
0.089	0.4962	0.0386
0.0907	0.495	0.0386
0.0924	0.4919	0.0375
0.0957	0.4863	0.037
0.0971	0.4843	0.0361
0.0988	0.4812	0.0359
0.1007	0.4779	0.0356
0.1043	0.4723	0.0352
0.1063	0.4687	0.0349
0.1108	0.4607	0.0345
0.1127	0.4581	0.0344
0.1155	0.4552	0.0341
0.1171	0.451	0.0334
0.1192	0.4479	0.033
0.1235	0.4418	0.0325
0.1257	0.4385	0.0324
0.126	0.4379	0.0324
0.1271	0.4367	0.0316
0.1306	0.4317	0.032
0.133	0.4284	0.031
0.1341	0.427	0.031
0.135	0.4262	0.031
0.1356	0.4248	0.0314
0.1389	0.4208	0.0305
0.1402	0.4192	0.0298
0.1415	0.4173	0.0298
0.1464	0.4105	0.0292
0.1484	0.4085	0.0293
0.1527	0.4012	0.0286
0.1592	0.3929	0.0275
0.1648	0.3868	0.0276
0.1686	0.3818	0.0273
0.1737	0.3762	0.026
0.1778	0.3712	0.0258
0.1818	0.3679	0.0254
0.185	0.3632	0.0252
0.1872	0.3604	0.0252
0.1914	0.3555	0.0251
0.1953	0.3516	0.0254
0.1973	0.3495	0.0254
0.2045	0.3414	0.0258
0.2086	0.3374	0.0251
0.2115	0.3335	0.0249
0.2176	0.3258	0.0246
0.2236	0.3187	0.0245
0.226	0.316	0.0243
0.2314	0.3101	0.0244
0.234	0.3072	0.0238
0.2363	0.304	0.024
0.2388	0.3029	0.0234
0.2425	0.2987	0.0232
0.2455	0.2956	0.0225
0.2486	0.2923	0.0225
0.2519	0.2888	0.0225
0.2567	0.2842	0.0219
0.2607	0.2796	0.0225
0.2638	0.2768	0.022
0.2671	0.274	0.0219
0.2709	0.2697	0.0218
0.2753	0.2647	0.0219
0.2789	0.2613	0.0224
0.2825	0.2576	0.0222
0.2893	0.2513	0.0222
0.293	0.2477	0.0219
0.298	0.242	0.0216
0.3084	0.2303	0.0214
0.3127	0.2265	0.0216
0.3224	0.2169	0.0212
0.3269	0.2128	0.0211
0.3324	0.2072	0.02
0.3381	0.2014	0.0201
0.3436	0.1963	0.0195
0.3486	0.1913	0.0196
0.3521	0.1892	0.0193
0.3585	0.1828	0.0184
0.3637	0.1787	0.0186
0.3697	0.1729	0.0182
0.3754	0.1681	0.0188
0.381	0.1638	0.0176
0.3884	0.1565	0.0186

System: 1-ethylpyridinium bromide + dipotassium meso-tartrate + water; phases: Liquid mixture 2, Liquid mixture 1
Fixed: Temperature, K = 298.15
Fixed: Pressure, kPa = 101
Property: Mass fraction of dipotassium meso-tartrate (Liquid mixture 2); method: Titration method
Property: Mass fraction of dipotassium meso-tartrate (Liquid mixture 1); method: Titration method
Property: Mass fraction of 1-ethylpyridinium bromide (Liquid mixture 1); method: Titration method
Mass fraction of 1-ethylpyridinium bromide	Mass fraction of dipotassium meso-tartrate	uncertainty	Mass fraction of dipotassium meso-tartrate	uncertainty	Mass fraction of 1-ethylpyridinium bromide	uncertainty
0.0808	0.4869	0.0154	0.0753	0.0031	0.521	
0.1149	0.438	0.0138	0.1023	0.0038	0.4736	
0.1628	0.3803	0.012	0.1512	0.0049	0.4045	
