Measured thermophysical data. Liquid-liquid equilibrium and critical states for the quaternary system propionic acid-n-butanol-n-butyl propionate-water at 303.15 K
Source: Fluid Phase Equilib., 2018, 10.1016/j.fluid.2017.12.023
Compound 1: butan-1-ol, C4H10O, InChI=1S/C4H10O/c1-2-3-4-5/h5H,2-4H2,1H3
Compound 2: water, H2O, InChI=1S/H2O/h1H2
Compound 3: butyl propanoate, C7H14O2, InChI=1S/C7H14O2/c1-3-5-6-9-7(8)4-2/h3-6H2,1-2H3
Compound 4: propanoic acid, C3H6O2, InChI=1S/C3H6O2/c1-2-3(4)5/h2H2,1H3,(H,4,5)

System: butan-1-ol + water; phases: Liquid mixture 1, Liquid mixture 2
Property: Mole fraction of butan-1-ol (Liquid mixture 1); method: Chromatography
Temperature, K	Pressure, kPa	Mole fraction of butan-1-ol	uncertainty
303.15	101	0.488	0.011

System: butan-1-ol + water; phases: Liquid mixture 2, Liquid mixture 1
Property: Mole fraction of butan-1-ol (Liquid mixture 2); method: Chromatography
Temperature, K	Pressure, kPa	Mole fraction of butan-1-ol	uncertainty
303.15	101	0.019	0.01

System: butyl propanoate + water; phases: Liquid mixture 1, Liquid mixture 2
Property: Mole fraction of butyl propanoate (Liquid mixture 1); method: Chromatography
Temperature, K	Pressure, kPa	Mole fraction of butyl propanoate	uncertainty
303.15	101	0.946	0.01

System: butyl propanoate + water; phases: Liquid mixture 2, Liquid mixture 1
Property: Mole fraction of butyl propanoate (Liquid mixture 2); method: Chromatography
Temperature, K	Pressure, kPa	Mole fraction of butyl propanoate	uncertainty
303.15	101	0.004	0.004

System: butan-1-ol + butyl propanoate + water; phases: Liquid mixture 1, Liquid mixture 2
Fixed: Temperature, K = 303.15
Fixed: Pressure, kPa = 101
Property: Mole fraction of butan-1-ol (Liquid mixture 1); method: Chromatography
Property: Mole fraction of butyl propanoate (Liquid mixture 2); method: Chromatography
Property: Mole fraction of butan-1-ol (Liquid mixture 2); method: Chromatography
Mole fraction of butyl propanoate	Mole fraction of butan-1-ol	uncertainty	Mole fraction of butyl propanoate	uncertainty	Mole fraction of butan-1-ol	uncertainty
0.761	0.107	0.012	0.004	0.004	0.003	
0.594	0.202	0.012	0.003	0.003	0.007	
0.151	0.427	0.011	0.002	0.002	0.016	
0.303	0.356	0.011	0.002	0.002	0.013	
0.485	0.259	0.011	0.003	0.003	0.009	

System: propanoic acid + butan-1-ol + water; phases: Liquid mixture 1, Liquid mixture 2
Fixed: Temperature, K = 303.15
Fixed: Pressure, kPa = 101
Property: Mole fraction of propanoic acid (Liquid mixture 1); method: Chromatography
Property: Mole fraction of butan-1-ol (Liquid mixture 2); method: Chromatography
Property: Mole fraction of propanoic acid (Liquid mixture 2); method: Chromatography
Mole fraction of butan-1-ol	Mole fraction of propanoic acid	uncertainty	Mole fraction of butan-1-ol	uncertainty	Mole fraction of propanoic acid	uncertainty
0.406	0.053	0.011	0.021	0.01	0.003	
0.363	0.073	0.011	0.025	0.01	0.006	
0.3	0.098	0.011	0.031	0.01	0.013	
0.328	0.086	0.011	0.027	0.01	0.01	

System: propanoic acid + butyl propanoate + water; phases: Liquid mixture 1, Liquid mixture 2
Fixed: Temperature, K = 303.15
Fixed: Pressure, kPa = 101
Property: Mole fraction of propanoic acid (Liquid mixture 1); method: Chromatography
Property: Mole fraction of butyl propanoate (Liquid mixture 2); method: Chromatography
Property: Mole fraction of propanoic acid (Liquid mixture 2); method: Chromatography
Mole fraction of butyl propanoate	Mole fraction of propanoic acid	uncertainty	Mole fraction of butyl propanoate	uncertainty	Mole fraction of propanoic acid	uncertainty
0.841	0.075	0.011	0.007	0.007	0.02	
0.753	0.121	0.011	0.008	0.008	0.027	
0.68	0.154	0.011	0.008	0.008	0.043	
0.552	0.204	0.011	0.013	0.01	0.077	
0.613	0.186	0.011	0.011	0.01	0.058	
