Measured thermophysical data. Determination and correlation of solubility of 2,2',4,4',6,6 '-hexanitro-1,1'-biphenyl and 2,2',2" ,4,4',4" ,6,6',6" -Nonanitro-1,1 ':3',1"-terphenyl in six pure solvents
Source: Fluid Phase Equilib., 2018, 10.1016/j.fluid.2018.03.021
Compound 1: 2,2',4,4',6,6'-hexanitrobiphenyl, C12H4N6O12, InChI=1S/C12H4N6O12/c19-13(20)5-1-7(15(23)24)11(8(2-5)16(25)26)12-9(17(27)28)3-6(14(21)22)4-10(12)18(29)30/h1-4H
Compound 2: 2,2',2'',4,4',4'',6,6',6''-nonanitro-m-terphenyl, C18H5N9O18, InChI=1S/C18H5N9O18/c28-19(29)6-1-8(21(32)33)14(9(2-6)22(34)35)16-12(25(40)41)5-13(26(42)43)17(18(16)27(44)45)15-10(23(36)37)3-7(20(30)31)4-11(15)24(38)39/h1-5H
Compound 3: benzene, C6H6, InChI=1S/C6H6/c1-2-4-6-5-3-1/h1-6H, purity 99.5%
Compound 4: toluene, C7H8, InChI=1S/C7H8/c1-7-5-3-2-4-6-7/h2-6H,1H3, purity 99.5%
Compound 5: 1,4-dimethylbenzene, C8H10, InChI=1S/C8H10/c1-7-3-5-8(2)6-4-7/h3-6H,1-2H3, purity 99.5%
Compound 6: anisole, C7H8O, InChI=1S/C7H8O/c1-8-7-5-3-2-4-6-7/h2-6H,1H3, purity 99.5%
Compound 7: chlorobenzene, C6H5Cl, InChI=1S/C6H5Cl/c7-6-4-2-1-3-5-6/h1-5H, purity 99.5%
Compound 8: 1-chloro-2,3-epoxypropane, C3H5ClO, InChI=1S/C3H5ClO/c4-1-3-2-5-3/h3H,1-2H2, purity 99.5%

System: 2,2',4,4',6,6'-hexanitrobiphenyl; phases: Crystal, Liquid, Air at 1 atmosphere
Property: Normal melting temperature, K (Crystal); method: DTA
Normal melting temperature, K	uncertainty
514.75	1.06

System: 2,2',4,4',6,6'-hexanitrobiphenyl + benzene; phases: Liquid, Crystal
Fixed: Pressure, kPa = 101
Property: Mole fraction of 2,2',4,4',6,6'-hexanitrobiphenyl (Liquid); method: gravimetric
Temperature, K	Mole fraction of 2,2',4,4',6,6'-hexanitrobiphenyl	uncertainty
313.15	0.00096	0.00096
318.15	0.00107	0.00107
323.15	0.00127	0.00127
328.15	0.00143	0.00143
333.15	0.00171	0.00171
338.15	0.00197	0.00197
343.15	0.00228	0.00228
348.15	0.00254	0.00254
353.15	0.00293	0.00293

System: 2,2',4,4',6,6'-hexanitrobiphenyl + toluene; phases: Liquid, Crystal
Fixed: Pressure, kPa = 101
Property: Mole fraction of 2,2',4,4',6,6'-hexanitrobiphenyl (Liquid); method: gravimetric
Temperature, K	Mole fraction of 2,2',4,4',6,6'-hexanitrobiphenyl	uncertainty
313.15	0.0021	0.0021
318.15	0.00226	0.00226
323.15	0.00258	0.00258
328.15	0.00283	0.00283
333.15	0.00326	0.00326
338.15	0.0038	0.0038
343.15	0.00429	0.00429
348.15	0.00494	0.00494
353.15	0.00568	0.00568

System: 2,2',4,4',6,6'-hexanitrobiphenyl + 1,4-dimethylbenzene; phases: Liquid, Crystal
Fixed: Pressure, kPa = 101
Property: Mole fraction of 2,2',4,4',6,6'-hexanitrobiphenyl (Liquid); method: gravimetric
Temperature, K	Mole fraction of 2,2',4,4',6,6'-hexanitrobiphenyl	uncertainty
313.15	0.00246	0.00246
318.15	0.00266	0.00266
323.15	0.00304	0.00304
328.15	0.00338	0.00338
333.15	0.00377	0.00377
338.15	0.00429	0.00429
343.15	0.00503	0.00503
348.15	0.00569	0.00569
353.15	0.00637	0.00637

System: 2,2',4,4',6,6'-hexanitrobiphenyl + anisole; phases: Liquid, Crystal
Fixed: Pressure, kPa = 101
Property: Mole fraction of 2,2',4,4',6,6'-hexanitrobiphenyl (Liquid); method: gravimetric
Temperature, K	Mole fraction of 2,2',4,4',6,6'-hexanitrobiphenyl	uncertainty
313.15	0.00394	0.00394
318.15	0.00492	0.00492
323.15	0.00584	0.00584
328.15	0.007	0.007
333.15	0.00806	0.008
338.15	0.00963	0.008
343.15	0.01127	0.008
348.15	0.0129	0.008
353.15	0.01535	0.008

System: 2,2',4,4',6,6'-hexanitrobiphenyl + 1-chloro-2,3-epoxypropane; phases: Liquid, Crystal
Fixed: Pressure, kPa = 101
Property: Mole fraction of 2,2',4,4',6,6'-hexanitrobiphenyl (Liquid); method: gravimetric
Temperature, K	Mole fraction of 2,2',4,4',6,6'-hexanitrobiphenyl	uncertainty
313.15	0.03654	0.008
318.15	0.03969	0.008
323.15	0.04281	0.008
328.15	0.04621	0.008
333.15	0.04939	0.008
338.15	0.05358	0.008
343.15	0.05828	0.008
348.15	0.06331	0.008
353.15	0.07146	0.008

System: 2,2',2'',4,4',4'',6,6',6''-nonanitro-m-terphenyl + benzene; phases: Liquid, Crystal
Fixed: Pressure, kPa = 101
Property: Mole fraction of 2,2',2'',4,4',4'',6,6',6''-nonanitro-m-terphenyl (Liquid); method: gravimetric
Temperature, K	Mole fraction of 2,2',2'',4,4',4'',6,6',6''-nonanitro-m-terphenyl	uncertainty
313.15	0.00087	0.00087
318.15	0.00105	0.00105
323.15	0.00113	0.00113
328.15	0.00132	0.00132
333.15	0.00156	0.00156
338.15	0.00175	0.00175
343.15	0.00204	0.00204
348.15	0.00232	0.00232
353.15	0.00272	0.00272

System: 2,2',2'',4,4',4'',6,6',6''-nonanitro-m-terphenyl + toluene; phases: Liquid, Crystal
Fixed: Pressure, kPa = 101
Property: Mole fraction of 2,2',2'',4,4',4'',6,6',6''-nonanitro-m-terphenyl (Liquid); method: gravimetric
Temperature, K	Mole fraction of 2,2',2'',4,4',4'',6,6',6''-nonanitro-m-terphenyl	uncertainty
313.15	0.00107	0.00107
318.15	0.00126	0.00126
323.15	0.00143	0.00143
328.15	0.00168	0.00168
333.15	0.00195	0.00195
338.15	0.00213	0.00213
343.15	0.00243	0.00243
348.15	0.00268	0.00268
353.15	0.00314	0.00314

System: 2,2',2'',4,4',4'',6,6',6''-nonanitro-m-terphenyl + 1,4-dimethylbenzene; phases: Liquid, Crystal
Fixed: Pressure, kPa = 101
Property: Mole fraction of 2,2',2'',4,4',4'',6,6',6''-nonanitro-m-terphenyl (Liquid); method: gravimetric
Temperature, K	Mole fraction of 2,2',2'',4,4',4'',6,6',6''-nonanitro-m-terphenyl	uncertainty
313.15	0.00121	0.00121
318.15	0.00146	0.00146
323.15	0.00175	0.00175
328.15	0.00195	0.00195
333.15	0.00224	0.00224
338.15	0.00253	0.00253
343.15	0.00292	0.00292
348.15	0.00322	0.00322
353.15	0.00358	0.00358

System: 2,2',2'',4,4',4'',6,6',6''-nonanitro-m-terphenyl + anisole; phases: Liquid, Crystal
Fixed: Pressure, kPa = 101
Property: Mole fraction of 2,2',2'',4,4',4'',6,6',6''-nonanitro-m-terphenyl (Liquid); method: gravimetric
Temperature, K	Mole fraction of 2,2',2'',4,4',4'',6,6',6''-nonanitro-m-terphenyl	uncertainty
313.15	0.00185	0.00185
318.15	0.00202	0.00202
323.15	0.00237	0.00237
328.15	0.00278	0.00278
333.15	0.00306	0.00306
338.15	0.00359	0.00359
343.15	0.00399	0.00399
348.15	0.00467	0.00467
353.15	0.00508	0.00508

System: 2,2',2'',4,4',4'',6,6',6''-nonanitro-m-terphenyl + chlorobenzene; phases: Liquid, Crystal
Fixed: Pressure, kPa = 101
Property: Mole fraction of 2,2',2'',4,4',4'',6,6',6''-nonanitro-m-terphenyl (Liquid); method: gravimetric
Temperature, K	Mole fraction of 2,2',2'',4,4',4'',6,6',6''-nonanitro-m-terphenyl	uncertainty
313.15	0.000216	0.000216
318.15	0.00025	0.00025
323.15	0.00031	0.00031
328.15	0.00039	0.00039
333.15	0.00048	0.00048
338.15	0.00059	0.00059
343.15	0.00075	0.00075
348.15	0.0009	0.0009
353.15	0.00101	0.00101

System: 2,2',2'',4,4',4'',6,6',6''-nonanitro-m-terphenyl + 1-chloro-2,3-epoxypropane; phases: Liquid, Crystal
Fixed: Pressure, kPa = 101
Property: Mole fraction of 2,2',2'',4,4',4'',6,6',6''-nonanitro-m-terphenyl (Liquid); method: gravimetric
Temperature, K	Mole fraction of 2,2',2'',4,4',4'',6,6',6''-nonanitro-m-terphenyl	uncertainty
313.15	0.0159	0.008
318.15	0.01744	0.008
323.15	0.01983	0.008
328.15	0.02195	0.008
333.15	0.02414	0.008
338.15	0.02703	0.008
343.15	0.02911	0.008
348.15	0.03241	0.008
353.15	0.03423	0.008

System: 2,2',4,4',6,6'-hexanitrobiphenyl + chlorobenzene; phases: Liquid, Crystal
Fixed: Pressure, kPa = 101
Property: Mole fraction of 2,2',4,4',6,6'-hexanitrobiphenyl (Liquid); method: gravimetric
Temperature, K	Mole fraction of 2,2',4,4',6,6'-hexanitrobiphenyl	uncertainty
313.15	0.00128	0.00128
318.15	0.00151	0.00151
323.15	0.00177	0.00177
328.15	0.00203	0.00203
333.15	0.00236	0.00236
338.15	0.00287	0.00287
343.15	0.00335	0.00335
348.15	0.00386	0.00386
353.15	0.00452	0.00452
