Measured thermophysical data. Henry s law constants of 1-butene, 2-methylpropene, trans-2-butene, and 1,3-butadiene in methanol at 374 490K
Source: Fluid Phase Equilib., 2006, 10.1016/j.fluid.2006.06.024
Compound 1: 1-butene, C4H8, InChI=1S/C4H8/c1-3-4-2/h3H,1,4H2,2H3, purity 99.5%
Compound 2: 2-methylpropene, C4H8, InChI=1S/C4H8/c1-4(2)3/h1H2,2-3H3, purity 99.5%
Compound 3: (E)-2-butene, C4H8, InChI=1S/C4H8/c1-3-4-2/h3-4H,1-2H3/b4-3+, purity 99.8%
Compound 4: 1,3-butadiene, C4H6, InChI=1S/C4H6/c1-3-4-2/h3-4H,1-2H2, purity 99%
Compound 5: methanol, CH4O, InChI=1S/CH4O/c1-2/h2H,1H3, purity 99.9%

System: methanol + 1-butene; phases: Gas, Liquid
Fixed: Mole fraction of 1-butene = 0
Property: Activity coefficient of 1-butene (Gas); method: Chromatography
Temperature, K	Activity coefficient of 1-butene	uncertainty
374	7	0.3
394.8	6.1	0.3
412.5	5.6	0.3

System: methanol + 1-butene; phases: Liquid, Gas
Fixed: Mole fraction of 1-butene = 0
Property: Henry's Law constant (mole fraction scale), kPa of 1-butene (Liquid); method: Chromatography
Temperature, K	Henry's Law constant (mole fraction scale), kPa of 1-butene	uncertainty
374	10000	1201
394.8	11900	1429
412.5	13800	1657
431.8	15200	1825
454.1	14700	1765
472.4	14200	1705
493.2	14500	1741
513.38	9700	1165

System: methanol + 2-methylpropene; phases: Gas, Liquid
Fixed: Mole fraction of 2-methylpropene = 0
Property: Activity coefficient of 2-methylpropene (Gas); method: Chromatography
Temperature, K	Activity coefficient of 2-methylpropene	uncertainty
374	6.5	0.3
393.3	6	0.3
412.5	5.4	0.3

System: methanol + 2-methylpropene; phases: Liquid, Gas
Fixed: Mole fraction of 2-methylpropene = 0
Property: Henry's Law constant (mole fraction scale), kPa of 2-methylpropene (Liquid); method: Chromatography
Temperature, K	Henry's Law constant (mole fraction scale), kPa of 2-methylpropene	uncertainty
374	9400	1129
393.3	11600	1393
412.5	13500	1621
431.6	14300	1717
451	15300	1837
470.1	14600	1753
489.5	16000	1921
513.38	10600	1273

System: methanol + (E)-2-butene; phases: Gas, Liquid
Fixed: Mole fraction of (E)-2-butene = 0
Property: Activity coefficient of (E)-2-butene (Gas); method: Chromatography
Temperature, K	Activity coefficient of (E)-2-butene	uncertainty
375.2	7.3	0.3
394.8	6.6	0.3
412.6	6	0.3

System: methanol + (E)-2-butene; phases: Liquid, Gas
Fixed: Mole fraction of (E)-2-butene = 0
Property: Henry's Law constant (mole fraction scale), kPa of (E)-2-butene (Liquid); method: Chromatography
Temperature, K	Henry's Law constant (mole fraction scale), kPa of (E)-2-butene	uncertainty
375.2	9000	1080
394.8	11000	1321
412.6	12700	1525
431.8	14400	1729
454.1	14100	1693
472.5	13600	1633
493.2	14000	1681
513.38	9400	1129

System: methanol + 1,3-butadiene; phases: Gas, Liquid
Fixed: Mole fraction of 1,3-butadiene = 0
Property: Activity coefficient of 1,3-butadiene (Gas); method: Chromatography
Temperature, K	Activity coefficient of 1,3-butadiene	uncertainty
374	5	0.2
393.3	4.7	0.2
412.5	4.2	0.2

System: methanol + 1,3-butadiene; phases: Liquid, Gas
Fixed: Mole fraction of 1,3-butadiene = 0
Property: Henry's Law constant (mole fraction scale), kPa of 1,3-butadiene (Liquid); method: Chromatography
Temperature, K	Henry's Law constant (mole fraction scale), kPa of 1,3-butadiene	uncertainty
374	7000	840
393.3	8900	1068
412.5	10500	1261
431.6	11200	1345
451	11700	1405
470.1	12100	1453
489.5	12000	1441
513.38	8700	1044
