Measured thermophysical data. Experimental measurements and thermodynamic modeling of Coumarin-7 solid solubility in supercritical carbon dioxide: Production of nanoparticles via RESS method
Source: Fluid Phase Equilib., 2019, 10.1016/j.fluid.2018.11.006
Compound 1: 3-(2-benzimidazolyl)-7-(diethylamino)coumarin, C20H19N3O2, InChI=1S/C20H19N3O2/c1-3-23(4-2)14-10-9-13-11-15(20(24)25-18(13)12-14)19-21-16-7-5-6-8-17(16)22-19/h5-12H,3-4H2,1-2H3,(H,21,22), purity 98%
Compound 2: methanol, CH4O, InChI=1S/CH4O/c1-2/h2H,1H3, purity 99.9%
Compound 3: carbon dioxide, CO2, InChI=1S/CO2/c2-1-3, purity 99.99%

System: 3-(2-benzimidazolyl)-7-(diethylamino)coumarin; phases: Crystal, Liquid, Air at 1 atmosphere
Property: Normal melting temperature, K (Crystal); method: DTA
Normal melting temperature, K	uncertainty
509.55	0.5

System: 3-(2-benzimidazolyl)-7-(diethylamino)coumarin + carbon dioxide; phases: Fluid (supercritical or subcritical phases), Crystal
Property: Mole fraction of 3-(2-benzimidazolyl)-7-(diethylamino)coumarin (Fluid (supercritical or subcritical phases)); method: UV-vis spectroscopy
Temperature, K	Pressure, kPa	Mole fraction of 3-(2-benzimidazolyl)-7-(diethylamino)coumarin	uncertainty
308	9000	4.98e-06	3.8e-07
308	15000	6.05e-06	6e-07
308	21000	6.74e-06	5.4e-07
308	27000	7.33e-06	3.2e-07
308	33000	7.54e-06	5.4e-07
318	9000	4.77e-06	3.8e-07
318	15000	6.36e-06	5e-07
318	21000	7.28e-06	5.8e-07
318	27000	7.84e-06	3.8e-07
318	33000	8.23e-06	6.6e-07
328	9000	4.4e-06	2.5e-07
328	15000	6.24e-06	6.2e-07
328	21000	7.89e-06	3.8e-07
328	27000	8.59e-06	6.4e-07
328	33000	9.24e-06	5.6e-07
338	9000	4.15e-06	2.3e-07
338	15000	6.48e-06	6.4e-07
338	21000	8.44e-06	7.2e-07
338	27000	9.09e-06	5.4e-07
338	33000	1.009e-05	8.2e-07

System: 3-(2-benzimidazolyl)-7-(diethylamino)coumarin + carbon dioxide + methanol; phases: Fluid (supercritical or subcritical phases), Crystal
Fixed: Solvent: Amount ratio of component to other component of binary solvent of methanol = 0.04
Property: Mole fraction of 3-(2-benzimidazolyl)-7-(diethylamino)coumarin (Fluid (supercritical or subcritical phases)); method: UV-vis spectroscopy
Temperature, K	Pressure, kPa	Mole fraction of 3-(2-benzimidazolyl)-7-(diethylamino)coumarin	uncertainty
308	9000	1.556e-05	1.18e-06
308	15000	2.254e-05	2.05e-06
308	21000	2.629e-05	2.51e-06
308	27000	3.72e-05	2.24e-06
308	33000	4.995e-05	3.02e-06
318	9000	1.443e-05	1.13e-06
318	15000	2.147e-05	7.3e-07
318	21000	3.021e-05	2.08e-06
318	27000	4.665e-05	3.69e-06
318	33000	6.07e-05	4.38e-06
328	9000	1.232e-05	6.7e-07
328	15000	1.638e-05	1.36e-06
328	21000	4.773e-05	2.34e-06
328	27000	6.851e-05	2.84e-06
328	33000	0.00010487	6.97e-06
338	9000	1.089e-05	4.9e-07
338	15000	1.296e-05	8.3e-07
338	21000	5.043e-05	4.05e-06
338	27000	8.976e-05	6.48e-06
338	33000	0.00012007	8.67e-06
