Measured thermophysical data. Dielectric properties and hydrogen bonding interaction behaviour in binary mixtures of glycerol with amides and amines
Source: Fluid Phase Equilib., 2008, 10.1016/j.fluid.2008.01.024
Compound 1: glycerol, C3H8O3, InChI=1S/C3H8O3/c4-1-3(6)2-5/h3-6H,1-2H2
Compound 2: formamide, CH3NO, InChI=1S/CH3NO/c2-1-3/h1H,(H2,2,3)
Compound 3: dimethylformamide, C3H7NO, InChI=1S/C3H7NO/c1-4(2)3-5/h3H,1-2H3
Compound 4: N,N-dimethylethanamide, C4H9NO, InChI=1S/C4H9NO/c1-4(6)5(2)3/h1-3H3
Compound 5: 2-aminoethan-1-ol, C2H7NO, InChI=1S/C2H7NO/c3-1-2-4/h4H,1-3H2
Compound 6: 2-(N,N-dimethylamino)ethanol, C4H11NO, InChI=1S/C4H11NO/c1-5(2)3-4-6/h6H,3-4H2,1-2H3

System: glycerol; phases: Liquid
Property: Relative permittivity at zero frequency (Liquid); method: OTHER::sMethod:capacitive measurement method
Pressure, kPa	Temperature, K	Relative permittivity at zero frequency	uncertainty
101	303.15	41.17	0.25

System: formamide; phases: Liquid
Property: Relative permittivity at zero frequency (Liquid); method: OTHER::sMethod:capacitive measurement method
Pressure, kPa	Temperature, K	Relative permittivity at zero frequency	uncertainty
101	303.15	106.14	0.64

System: dimethylformamide; phases: Liquid
Property: Relative permittivity at zero frequency (Liquid); method: OTHER::sMethod:capacitive measurement method
Pressure, kPa	Temperature, K	Relative permittivity at zero frequency	uncertainty
101	303.15	36.55	0.22

System: N,N-dimethylethanamide; phases: Liquid
Property: Relative permittivity at zero frequency (Liquid); method: OTHER::sMethod:capacitive measurement method
Pressure, kPa	Temperature, K	Relative permittivity at zero frequency	uncertainty
101	303.15	37.72	0.23

System: 2-aminoethan-1-ol; phases: Liquid
Property: Relative permittivity at zero frequency (Liquid); method: OTHER::sMethod:capacitive measurement method
Pressure, kPa	Temperature, K	Relative permittivity at zero frequency	uncertainty
101	303.15	31.46	0.19

System: 2-(N,N-dimethylamino)ethanol; phases: Liquid
Property: Relative permittivity at zero frequency (Liquid); method: OTHER::sMethod:capacitive measurement method
Pressure, kPa	Temperature, K	Relative permittivity at zero frequency	uncertainty
101	303.15	17.18	0.1

System: glycerol + formamide; phases: Liquid
Fixed: Pressure, kPa = 101
Fixed: Temperature, K = 303.15
Property: Relative permittivity at zero frequency (Liquid); method: capacitive measurement method
Mole fraction of glycerol	Relative permittivity at zero frequency	uncertainty
0	106.14	0.64
0.037	103.13	0.62
0.077	100.3	0.6
0.12	96.91	0.58
0.165	93.46	0.56
0.214	89.87	0.54
0.266	85.74	0.51
0.322	81.37	0.49
0.383	76.3	0.46
0.449	71.94	0.43
0.521	66.48	0.4
0.599	61.52	0.37
0.685	56.42	0.34
0.779	50.76	0.3
0.884	45.45	0.27
1	41.17	0.25

System: glycerol + dimethylformamide; phases: Liquid
Fixed: Pressure, kPa = 101
Fixed: Temperature, K = 303.15
Property: Relative permittivity at zero frequency (Liquid); method: capacitive measurement method
Mole fraction of glycerol	Relative permittivity at zero frequency	uncertainty
0	36.55	0.22
0.07	38.37	0.23
0.14	39.32	0.24
0.209	40.55	0.24
0.278	41.59	0.25
0.346	42.42	0.25
0.414	43.11	0.26
0.481	43.36	0.26
0.547	43.48	0.26
0.613	43.54	0.26
0.679	43.47	0.26
0.744	43.32	0.26
0.809	42.85	0.26
0.873	41.78	0.25
0.937	41.62	0.25
1	41.17	0.25

System: glycerol + N,N-dimethylethanamide; phases: Liquid
Fixed: Pressure, kPa = 101
Fixed: Temperature, K = 303.15
Property: Relative permittivity at zero frequency (Liquid); method: capacitive measurement method
Mole fraction of glycerol	Relative permittivity at zero frequency	uncertainty
0	37.72	0.23
0.083	38.22	0.23
0.164	39.07	0.23
0.241	39.8	0.24
0.316	40.44	0.24
0.389	41.04	0.25
0.459	41.4	0.25
0.527	41.83	0.25
0.592	42.07	0.25
0.656	42.33	0.25
0.718	42.35	0.25
0.778	41.84	0.25
0.836	41.96	0.25
0.892	41.88	0.25
0.947	41.72	0.25
1	41.17	0.25

System: glycerol + 2-aminoethan-1-ol; phases: Liquid
Fixed: Pressure, kPa = 101
Fixed: Temperature, K = 303.15
Property: Relative permittivity at zero frequency (Liquid); method: capacitive measurement method
Mole fraction of glycerol	Relative permittivity at zero frequency	uncertainty
0	31.46	0.19
0.056	31.31	0.19
0.113	32.24	0.19
0.171	33.08	0.2
0.231	33.81	0.2
0.292	34.7	0.21
0.355	35.5	0.21
0.419	36.26	0.22
0.485	37.11	0.22
0.553	37.51	0.23
0.623	37.97	0.23
0.694	38.52	0.23
0.767	39.14	0.23
0.843	39.66	0.24
0.92	40.31	0.24
1	41.17	0.25

System: glycerol + 2-(N,N-dimethylamino)ethanol; phases: Liquid
Fixed: Pressure, kPa = 101
Fixed: Temperature, K = 303.15
Property: Relative permittivity at zero frequency (Liquid); method: capacitive measurement method
Mole fraction of glycerol	Relative permittivity at zero frequency	uncertainty
0	17.18	0.1
0.09	18.66	0.11
0.175	20.4	0.12
0.257	22.09	0.13
0.334	23.83	0.14
0.409	25.5	0.15
0.48	27.25	0.16
0.547	28.98	0.17
0.612	30.54	0.18
0.675	32.59	0.2
0.734	33.74	0.2
0.792	35.03	0.21
0.847	37.13	0.22
0.9	38.63	0.23
0.951	39.96	0.24
1	41.17	0.25
