Measured thermophysical data. Prediction of CO2 and H2S solubility and enthalpy of absorption in reacting N-methyldiethanolamine /water systems with ePC-SAFT
Source: Fluid Phase Equilib., 2018, 10.1016/j.fluid.2017.12.033
Compound 1: carbon dioxide, CO2, InChI=1S/CO2/c2-1-3, purity 99%
Compound 2: N-methyldiethanolamine, C5H13NO2, InChI=1S/C5H13NO2/c1-6(2-4-7)3-5-8/h7-8H,2-5H2,1H3, purity 99%
Compound 3: hydrogen chloride, ClH, InChI=1S/ClH/h1H, purity 95%
Compound 4: water, H2O, InChI=1S/H2O/h1H2, purity 99.8%

System: water + N-methyldiethanolamine + hydrogen chloride; phases: Liquid
Fixed: Temperature, K = 273
Fixed: Pressure, kPa = 101
Property: Osmotic coefficient (Liquid); method: freezing point depression
Molality, mol/kg of N-methyldiethanolamine	Molality, mol/kg of hydrogen chloride	Osmotic coefficient	uncertainty
0.411	0.411	0.835	0.012
0.546	0.546	0.845	0.011
0.676	0.676	0.838	0.012
0.784	0.784	0.839	0.012
0.957	0.957	0.854	0.011
1.023	1.023	0.86	0.011
1.093	1.093	0.861	0.011

System: water + N-methyldiethanolamine + hydrogen chloride; phases: Liquid
Fixed: Temperature, K = 313
Fixed: Pressure, kPa = 101
Property: Osmotic coefficient (Liquid); method: vapor-pressure osmometry data
Molality, mol/kg of N-methyldiethanolamine	Molality, mol/kg of hydrogen chloride	Osmotic coefficient	uncertainty
0.403	0.403	0.869	0.011
0.677	0.677	0.861	0.011
1.141	1.141	0.874	0.011

System: water + N-methyldiethanolamine + carbon dioxide; phases: Liquid, Gas
Fixed: Temperature, K = 303
Fixed: Solvent: Mass fraction of N-methyldiethanolamine = 0.6
Property: Mole fraction of carbon dioxide (Liquid); method: Phase equilibration
Pressure, kPa	Mole fraction of carbon dioxide	uncertainty
920	0.9374	0.0076
1420	0.9973	0.0045
2450	1.0448	0.0035
