Measured thermophysical data. Thermodynamic and aggregation properties of sodium n-hexylsulfonate in aqueous solution
Source: Fluid Phase Equilib., 2014, 10.1016/j.fluid.2013.11.015
Compound 1: sodium n-hexylsulfonate, C6H13NaO3S, InChI=1S/C6H14O3S.Na/c1-2-3-4-5-6-10(7,8)9;/h2-6H2,1H3,(H,7,8,9);/q;+1/p-1, purity 99%
Compound 2: water, H2O, InChI=1S/H2O/h1H2

System: sodium n-hexylsulfonate + water; phases: Liquid
Fixed: Pressure, kPa = 101
Property: (Relative) activity of water (Liquid); method: isopiestic method
Temperature, K	Molality, mol/kg of sodium n-hexylsulfonate	(Relative) activity of water	uncertainty
298.15	0.2861	0.99	0.0387
298.15	0.3217	0.9889	0.0387
298.15	0.3797	0.9867	0.0387
298.15	0.4364	0.9853	0.0387
298.15	0.4438	0.985	0.0387
298.15	0.4557	0.9844	0.0387
298.15	0.4721	0.984	0.0387
298.15	0.4872	0.9838	0.0387
298.15	0.4961	0.9829	0.0387
298.15	0.5165	0.9825	0.0387
298.15	0.5287	0.982	0.0387
298.15	0.5642	0.9812	0.0387
298.15	0.5936	0.9807	0.0387
298.15	0.6074	0.9801	0.0387
298.15	0.614	0.98	0.0387
298.15	0.6173	0.9794	0.0387
298.15	0.6393	0.9792	0.0387
298.15	0.6627	0.9789	0.0387
298.15	0.658	0.9783	0.0387
298.15	0.7094	0.9778	0.0387
298.15	0.7687	0.9773	0.0387
298.15	0.8178	0.9754	0.0387
298.15	0.9932	0.9748	0.0387
298.15	1.0045	0.9745	0.0387
298.15	1.0882	0.9743	0.0387
298.15	1.2853	0.972	0.0387
298.15	1.3449	0.9719	0.0387
298.15	1.3658	0.9717	0.0387
298.15	1.4672	0.9709	0.0387
298.15	1.771	0.9688	0.0387
298.15	1.9008	0.9676	0.0387
298.15	1.9661	0.9673	0.0387
298.15	2.0898	0.966	0.0387
298.15	2.1261	0.9654	0.0387
298.15	2.3075	0.9638	0.0387
298.15	2.6909	0.9592	0.0387
298.15	2.709	0.9581	0.0387
298.15	3.1083	0.9522	0.0387
308.15	0.4847	0.9841	0.0387
308.15	0.5031	0.9835	0.0387
308.15	0.5675	0.9818	0.0387
308.15	0.5936	0.9812	0.0387
308.15	0.6674	0.9792	0.0387
308.15	0.6836	0.979	0.0387
308.15	0.7528	0.9778	0.0387
308.15	0.7981	0.9772	0.0387
308.15	0.8735	0.9762	0.0387
308.15	0.9032	0.9759	0.0387
308.15	0.9597	0.9757	0.0387
308.15	0.9686	0.9752	0.0387
308.15	1.0369	0.9747	0.0387
308.15	1.0636	0.9746	0.0387
308.15	1.0674	0.9742	0.0387
308.15	1.1309	0.9741	0.0387
308.15	1.19	0.9735	0.0387
308.15	1.214	0.9732	0.0387
308.15	1.2649	0.9727	0.0387
308.15	1.3199	0.9721	0.0387
308.15	1.3291	0.9721	0.0387
308.15	1.3616	0.9717	0.0387
308.15	1.4149	0.9709	0.0387
308.15	1.4285	0.9714	0.0387
308.15	1.4776	0.971	0.0387
308.15	1.4828	0.9705	0.0387
308.15	1.6131	0.9697	0.0387
308.15	1.7512	0.9688	0.0387
308.15	1.9511	0.966	0.0387
308.15	2.2846	0.9623	0.0387
308.15	2.9898	0.9529	0.0387
308.15	3.808	0.9397	0.0387
308.15	3.9382	0.9354	0.0387
308.15	4.3312	0.9275	0.0387
318.15	0.3974	0.987	0.0387
318.15	0.4457	0.9855	0.0387
318.15	0.4601	0.9846	0.0387
318.15	0.5448	0.9828	0.0387
318.15	0.5499	0.9824	0.0387
318.15	0.589	0.9815	0.0387
318.15	0.6187	0.981	0.0387
318.15	0.6339	0.9807	0.0387
318.15	0.6359	0.9804	0.0387
318.15	0.6399	0.98	0.0387
318.15	0.7074	0.9792	0.0387
318.15	0.7122	0.979	0.0387
318.15	0.7479	0.9779	0.0387
318.15	0.808	0.9777	0.0387
318.15	0.8228	0.9775	0.0387
318.15	0.888	0.9763	0.0387
318.15	0.9061	0.9761	0.0387
318.15	0.9545	0.9755	0.0387
318.15	1.0759	0.9745	0.0387
318.15	1.2837	0.9726	0.0387
318.15	1.4846	0.9703	0.0387
318.15	1.5003	0.97	0.0387
318.15	1.5951	0.9695	0.0387
318.15	1.7129	0.9675	0.0387
318.15	1.857	0.9664	0.0387
318.15	1.9087	0.9656	0.0387
318.15	1.981	0.9647	0.0387
318.15	2.1125	0.9632	0.0387
318.15	2.3481	0.9605	0.0387
318.15	2.4522	0.9589	0.0387
318.15	2.703	0.9561	0.0387
318.15	2.8545	0.9545	0.0387
318.15	2.9012	0.9526	0.0387
318.15	3.0697	0.9502	0.0387
318.15	3.0224	0.9495	0.0387
318.15	3.131	0.9465	0.0387
318.15	3.305	0.9442	0.0387
318.15	3.5243	0.9377	0.0387
318.15	3.8679	0.9318	0.0387

System: sodium n-hexylsulfonate + water; phases: Liquid
Fixed: Pressure, kPa = 101
Property: Mass density, kg/m3 (Liquid); method: Vibrating tube method
Temperature, K	Molality, mol/kg of sodium n-hexylsulfonate	Mass density, kg/m3	uncertainty
298.15	0.02667	998.494	0.12
298.15	0.03202	998.788	0.12
298.15	0.04556	999.525	0.119
298.15	0.05359	999.957	0.119
298.15	0.08092	1001.431	0.119
298.15	0.16438	1005.81	0.119
298.15	0.27909	1011.665	0.12
298.15	0.39859	1017.543	0.121
298.15	0.46241	1020.692	0.121
298.15	0.52594	1023.592	0.121
298.15	0.59132	1026.518	0.121
298.15	0.65978	1029.273	0.121
298.15	0.74928	1033.076	0.122
298.15	0.87038	1037.833	0.123
298.15	1.08965	1045.507	0.125
298.15	1.33443	1053.595	0.128
298.15	1.77539	1066.854	0.135
303.15	0.02667	997.074	0.127
303.15	0.03202	997.366	0.12
303.15	0.04556	998.089	0.119
303.15	0.05359	998.514	0.12
303.15	0.08092	999.966	0.119
303.15	0.16438	1004.27	0.119
303.15	0.27909	1010.024	0.119
303.15	0.39859	1015.797	0.12
303.15	0.46241	1018.884	0.12
303.15	0.52594	1021.722	0.12
303.15	0.59132	1024.586	0.12
303.15	0.65978	1027.281	0.121
303.15	0.74928	1031.011	0.122
303.15	0.87038	1035.695	0.122
303.15	1.08965	1043.262	0.125
303.15	1.33443	1051.238	0.127
303.15	1.77539	1064.32	0.134
308.15	0.02667	995.436	0.126
308.15	0.03202	995.724	0.12
308.15	0.04556	996.437	0.119
308.15	0.05359	996.855	0.119
308.15	0.08092	998.286	0.119
308.15	0.16438	1002.525	0.118
308.15	0.27909	1008.188	0.119
308.15	0.39859	1013.861	0.12
308.15	0.46241	1016.892	0.12
308.15	0.52594	1019.678	0.12
308.15	0.59132	1022.485	0.12
308.15	0.65978	1025.127	0.12
308.15	0.74928	1028.797	0.121
308.15	0.87038	1033.413	0.122
308.15	1.08965	1040.886	0.124
308.15	1.33443	1048.766	0.127
308.15	1.77539	1061.684	0.133
313.15	0.02667	993.602	0.125
313.15	0.03202	993.886	0.12
313.15	0.04556	994.589	0.119
313.15	0.05359	995	0.119
313.15	0.08092	996.41	0.118
313.15	0.16438	1000.591	0.118
313.15	0.27909	1006.167	0.118
313.15	0.39859	1011.752	0.119
313.15	0.46241	1014.73	0.119
313.15	0.52594	1017.465	0.119
313.15	0.59132	1020.223	0.119
313.15	0.65978	1022.82	0.12
313.15	0.74928	1026.435	0.121
313.15	0.87038	1030.997	0.121
313.15	1.08965	1038.384	0.123
313.15	1.33443	1046.175	0.126
313.15	1.77539	1058.946	0.133
318.15	0.02667	991.581	0.119
318.15	0.03202	991.86	0.119
318.15	0.04556	992.555	0.119
318.15	0.05359	992.963	0.119
318.15	0.08092	994.356	0.118
318.15	0.16438	998.481	0.118
318.15	0.27909	1003.977	0.118
318.15	0.39859	1009.477	0.119
318.15	0.46241	1012.408	0.119
318.15	0.52594	1015.1	0.119
318.15	0.59132	1017.814	0.119
318.15	0.65978	1020.375	0.119
318.15	0.74928	1023.942	0.12
318.15	0.87038	1028.451	0.121
318.15	1.08965	1035.762	0.123
318.15	1.33443	1043.474	0.126
318.15	1.77539	1056.111	0.132

System: sodium n-hexylsulfonate + water; phases: Liquid
Fixed: Pressure, kPa = 101
Property: Speed of sound, m/s (Liquid); method: Sing-around technique in a fixed-path interferometer
Temperature, K	Molality, mol/kg of sodium n-hexylsulfonate	Speed of sound, m/s	uncertainty
298.15	0.02667	1501.14	0.77
298.15	0.03202	1501.97	0.77
298.15	0.04556	1504.01	0.77
298.15	0.05359	1505.18	0.77
298.15	0.08092	1509.23	0.77
298.15	0.16438	1520.83	0.78
298.15	0.27909	1536.12	0.79
298.15	0.39859	1550.74	0.8
298.15	0.46241	1558.06	0.81
298.15	0.52594	1564.28	0.81
298.15	0.59132	1569.63	0.81
298.15	0.65978	1573.31	0.82
298.15	0.74928	1576	0.82
298.15	0.87038	1577.16	0.83
298.15	1.08965	1577.88	0.84
298.15	1.33443	1578.43	0.85
298.15	1.77539	1579.16	0.86
303.15	0.02667	1513.06	0.77
303.15	0.03202	1513.82	0.77
303.15	0.04556	1515.73	0.77
303.15	0.05359	1516.82	0.77
303.15	0.08092	1520.57	0.77
303.15	0.16438	1531.4	0.78
303.15	0.27909	1545.45	0.79
303.15	0.39859	1558.8	0.8
303.15	0.46241	1565.41	0.81
303.15	0.52594	1570.89	0.81
303.15	0.59132	1575.47	0.82
303.15	0.65978	1578.49	0.82
303.15	0.74928	1580.57	0.82
303.15	0.87038	1581.3	0.83
303.15	1.08965	1581.33	0.84
303.15	1.33443	1580.98	0.85
303.15	1.77539	1579.91	0.87
308.15	0.02667	1523.38	0.77
308.15	0.03202	1524.1	0.77
308.15	0.04556	1525.85	0.77
308.15	0.05359	1526.88	0.78
308.15	0.08092	1530.36	0.78
308.15	0.16438	1540.35	0.79
308.15	0.27909	1553.25	0.79
308.15	0.39859	1565.44	0.8
308.15	0.46241	1571.35	0.81
308.15	0.52594	1576.19	0.81
308.15	0.59132	1580.11	0.82
308.15	0.65978	1582.6	0.82
308.15	0.74928	1584.18	0.82
308.15	0.87038	1584.53	0.83
308.15	1.08965	1583.86	0.84
308.15	1.33443	1582.61	0.85
308.15	1.77539	1579.8	0.87
313.15	0.02667	1532.18	0.78
313.15	0.03202	1532.84	0.78
313.15	0.04556	1534.48	0.78
313.15	0.05359	1535.42	0.78
313.15	0.08092	1538.63	0.78
313.15	0.16438	1547.84	0.79
313.15	0.27909	1559.68	0.8
313.15	0.39859	1570.73	0.81
313.15	0.46241	1576.02	0.81
313.15	0.52594	1580.26	0.81
313.15	0.59132	1583.63	0.82
313.15	0.65978	1585.68	0.82
313.15	0.74928	1586.89	0.83
313.15	0.87038	1586.85	0.83
313.15	1.08965	1585.49	0.84
313.15	1.33443	1583.35	0.85
313.15	1.77539	1578.89	0.86
318.15	0.02667	1539.49	0.78
318.15	0.03202	1540.11	0.78
318.15	0.04556	1541.61	0.78
318.15	0.05359	1542.49	0.78
318.15	0.08092	1545.47	0.78
318.15	0.16438	1553.93	0.79
318.15	0.27909	1564.77	0.8
318.15	0.39859	1574.77	0.81
318.15	0.46241	1579.46	0.81
318.15	0.52594	1583.19	0.82
318.15	0.59132	1586.06	0.82
318.15	0.65978	1587.77	0.82
318.15	0.74928	1588.65	0.83
318.15	0.87038	1588.24	0.83
318.15	1.08965	1586.23	0.84
318.15	1.33443	1583.25	0.85
318.15	1.77539	1577.22	0.86
