Measured thermophysical data. Solubility of mixed solids in supercritical carbon dioxide
Source: Fluid Phase Equilib., 2007, 10.1016/j.fluid.2006.11.002
Compound 1: 1,2-benzenedicarboxylic acid, C8H6O4, InChI=1S/C8H6O4/c9-7(10)5-3-1-2-4-6(5)8(11)12/h1-4H,(H,9,10)(H,11,12)
Compound 2: 4-aminobenzoic acid, C7H7NO2, InChI=1S/C7H7NO2/c8-6-3-1-5(2-4-6)7(9)10/h1-4H,8H2,(H,9,10)
Compound 3: carbon dioxide, CO2, InChI=1S/CO2/c2-1-3

System: 1,2-benzenedicarboxylic acid + carbon dioxide; phases: Fluid (supercritical or subcritical phases), Crystal
Property: Mole fraction of 1,2-benzenedicarboxylic acid (Fluid (supercritical or subcritical phases)); method: uv spectrophotometer
Temperature, K	Pressure, kPa	Mole fraction of 1,2-benzenedicarboxylic acid	uncertainty
308.15	8000	1.14e-06	2.4e-07
308.15	11000	3.23e-06	6.5e-07
308.15	13000	3.32e-06	6.6e-07
308.15	17000	3.63e-06	7.3e-07
308.15	21000	3.74e-06	7.6e-07
318.15	8000	1.05e-06	2.2e-07
318.15	11000	2.94e-06	5.9e-07
318.15	13000	3.53e-06	7.1e-07
318.15	17000	4.46e-06	8.9e-07
318.15	21000	4.75e-06	9.5e-07
328.15	8000	1.01e-06	2e-07
328.15	11000	1.87e-06	3.8e-07
328.15	13000	3.67e-06	7.4e-07
328.15	17000	4.56e-06	9.1e-07
328.15	21000	5.13e-06	1.03e-06

System: carbon dioxide + 4-aminobenzoic acid; phases: Fluid (supercritical or subcritical phases), Crystal
Property: Mole fraction of 4-aminobenzoic acid (Fluid (supercritical or subcritical phases)); method: uv spectrophotometer
Temperature, K	Pressure, kPa	Mole fraction of 4-aminobenzoic acid	uncertainty
308.15	8000	1.47e-06	3.1e-07
308.15	11000	3.87e-06	7.8e-07
308.15	13000	3.98e-06	8e-07
308.15	17000	4.26e-06	8.5e-07
308.15	21000	4.29e-06	8.6e-07
318.15	8000	1.37e-06	2.8e-07
318.15	11000	3.34e-06	6.7e-07
318.15	13000	4e-06	8e-07
318.15	17000	4.61e-06	9.2e-07
318.15	21000	5.2e-06	1.04e-06
328.15	8000	1.31e-06	2.6e-07
328.15	11000	2.41e-06	4.9e-07
328.15	13000	4.05e-06	8.1e-07
328.15	17000	4.96e-06	9.9e-07
328.15	21000	5.66e-06	1.13e-06

System: 1,2-benzenedicarboxylic acid + carbon dioxide + 4-aminobenzoic acid; phases: Fluid (supercritical or subcritical phases), Crystal, Crystal
Property: Mole fraction of 1,2-benzenedicarboxylic acid (Fluid (supercritical or subcritical phases)); method: uv spectrophotometer
Temperature, K	Pressure, kPa	Mole fraction of 1,2-benzenedicarboxylic acid	uncertainty
308.15	8000	1.86e-06	3.8e-07
308.15	11000	3.79e-06	7.6e-07
308.15	13000	3.89e-06	7.8e-07
308.15	17000	4e-06	8e-07
308.15	21000	4.06e-06	8.2e-07
318.15	8000	1.71e-06	3.5e-07
318.15	11000	3.48e-06	7e-07
318.15	13000	3.97e-06	7.9e-07
318.15	17000	4.76e-06	9.5e-07
318.15	21000	5.16e-06	1.03e-06
328.15	8000	1.63e-06	3.3e-07
328.15	11000	2.71e-06	5.5e-07
328.15	13000	4.42e-06	8.8e-07
328.15	17000	4.98e-06	1e-06
328.15	21000	5.39e-06	1.08e-06

System: 1,2-benzenedicarboxylic acid + carbon dioxide + 4-aminobenzoic acid; phases: Fluid (supercritical or subcritical phases), Crystal, Crystal
Property: Mole fraction of 4-aminobenzoic acid (Fluid (supercritical or subcritical phases)); method: uv spectrophotometer
Temperature, K	Pressure, kPa	Mole fraction of 4-aminobenzoic acid	uncertainty
308.15	8000	2.11e-06	4.3e-07
308.15	11000	4.17e-06	8.4e-07
308.15	13000	4.23e-06	8.5e-07
308.15	17000	4.31e-06	8.7e-07
308.15	21000	4.36e-06	8.8e-07
318.15	8000	1.96e-06	4e-07
318.15	11000	3.85e-06	7.7e-07
318.15	13000	4.55e-06	9.1e-07
318.15	17000	5.17e-06	1.04e-06
318.15	21000	5.56e-06	1.11e-06
328.15	8000	1.9e-06	3.8e-07
328.15	11000	3.07e-06	6.2e-07
328.15	13000	4.89e-06	9.8e-07
328.15	17000	5.46e-06	1.09e-06
328.15	21000	5.87e-06	1.17e-06
