Measured thermophysical data. Viscosity measurements of compressed liquid dipropyl and dibutyl adipates
Source: Fluid Phase Equilib., 2015, 10.1016/j.fluid.2015.03.016
Compound 1: dipropyl hexanedioate, C12H22O4, InChI=1S/C12H22O4/c1-3-9-15-11(13)7-5-6-8-12(14)16-10-4-2/h3-10H2,1-2H3, purity 99%
Compound 2: dibutyl hexanedioate, C14H26O4, InChI=1S/C14H26O4/c1-3-5-11-17-13(15)9-7-8-10-14(16)18-12-6-4-2/h3-12H2,1-2H3, purity 99%

System: dipropyl hexanedioate; phases: Liquid
Property: Viscosity, Pa*s (Liquid); method: Vibrating wire viscometry
Temperature, K	Pressure, kPa	Viscosity, Pa*s	uncertainty
303.14	1140	0.003609	6e-05
303.14	1110	0.003606	6e-05
303.14	1110	0.003607	6e-05
303.15	2810	0.003653	6.1e-05
303.15	2820	0.003657	6.1e-05
303.15	2810	0.003654	6.1e-05
303.14	5220	0.003781	6.3e-05
303.14	5220	0.003776	6.3e-05
303.14	5210	0.00378	6.3e-05
303.15	10310	0.003975	6.6e-05
303.15	10320	0.003972	6.6e-05
303.15	10310	0.003975	6.6e-05
303.15	15310	0.004218	7e-05
303.15	15260	0.004213	7e-05
303.15	15230	0.004218	7e-05
303.14	18290	0.00433	7.2e-05
303.14	18290	0.004331	7.2e-05
303.14	18280	0.004327	7.2e-05
313.16	1200	0.002882	4.8e-05
313.16	1220	0.002882	4.8e-05
313.16	1210	0.002879	4.8e-05
313.15	2710	0.002934	4.9e-05
313.16	2700	0.002933	4.9e-05
313.15	2710	0.002931	4.9e-05
313.16	5190	0.003016	5e-05
313.16	5180	0.00301	5e-05
313.16	5180	0.00301	5e-05
313.16	10490	0.003177	5.3e-05
313.16	10480	0.003176	5.3e-05
313.16	10460	0.003178	5.3e-05
313.15	15330	0.003354	5.6e-05
313.15	15330	0.003356	5.6e-05
313.15	15330	0.003358	5.6e-05
313.16	18290	0.003445	5.8e-05
313.15	18290	0.003441	5.7e-05
313.15	18290	0.003443	5.7e-05
323.15	1180	0.00236	3.9e-05
323.15	1170	0.002356	3.9e-05
323.15	1160	0.002359	3.9e-05
323.16	2720	0.002412	4e-05
323.16	2710	0.002409	4e-05
323.16	2710	0.002408	4e-05
323.16	5270	0.002462	4.1e-05
323.16	5270	0.002462	4.1e-05
323.16	5260	0.002464	4.1e-05
323.17	10210	0.002598	4.3e-05
323.17	10220	0.002597	4.3e-05
323.17	10220	0.002597	4.3e-05
323.16	15200	0.002731	4.6e-05
323.16	15200	0.002731	4.6e-05
323.15	15180	0.002729	4.6e-05
323.17	18270	0.002812	4.7e-05
323.17	18240	0.002814	4.7e-05
323.17	18260	0.002816	4.7e-05
333.16	1090	0.001975	3.3e-05
333.16	1120	0.001979	3.3e-05
333.16	1100	0.001979	3.3e-05
333.14	2620	0.002009	3.4e-05
333.14	2610	0.002006	3.4e-05
333.15	2620	0.002009	3.4e-05
333.15	5130	0.002052	3.4e-05
333.15	5110	0.00205	3.4e-05
333.15	5110	0.002052	3.4e-05
333.16	10190	0.002165	3.6e-05
333.16	10180	0.002163	3.6e-05
333.16	10160	0.002167	3.6e-05
333.16	15220	0.002273	3.8e-05
333.15	15220	0.002273	3.8e-05
333.15	15200	0.002274	3.8e-05
333.15	18300	0.002343	3.9e-05
333.15	18290	0.002338	3.9e-05
333.15	18260	0.002339	3.9e-05

System: dipropyl hexanedioate; phases: Liquid
Fixed: Pressure, kPa = 101.325
Property: Viscosity, Pa*s (Liquid); method: Capillary tube (Ostwald; Ubbelohde) method
Temperature, K	Viscosity, Pa*s	uncertainty
313.18	0.002888	8.9e-05
323.1	0.002352	7.3e-05
333.22	0.00197	6.1e-05

System: dibutyl hexanedioate; phases: Liquid
Property: Viscosity, Pa*s (Liquid); method: Vibrating wire viscometry
Temperature, K	Pressure, kPa	Viscosity, Pa*s	uncertainty
303.15	1220	0.004205	7e-05
303.14	1250	0.004201	7e-05
303.15	1280	0.004208	7e-05
303.15	1300	0.004211	7e-05
303.14	1280	0.00421	7e-05
303.15	1290	0.00421	7e-05
303.14	2750	0.004305	7.2e-05
303.15	2770	0.004312	7.2e-05
303.14	2770	0.004312	7.2e-05
303.14	2760	0.004313	7.2e-05
303.15	5420	0.004415	7.3e-05
303.14	5400	0.004417	7.3e-05
303.14	5420	0.004417	7.3e-05
303.15	5420	0.004419	7.3e-05
303.14	5420	0.004419	7.3e-05
303.14	5420	0.004413	7.3e-05
303.15	7680	0.004531	7.5e-05
303.14	7660	0.004532	7.5e-05
303.15	7660	0.004531	7.5e-05
303.15	7680	0.004533	7.5e-05
303.15	7660	0.004537	7.5e-05
303.15	7680	0.004537	7.5e-05
303.14	7570	0.004513	7.5e-05
303.14	7530	0.004511	7.5e-05
303.15	7730	0.004518	7.5e-05
303.14	10500	0.00468	7.8e-05
303.14	10520	0.004686	7.8e-05
303.14	10570	0.004683	7.8e-05
303.15	10560	0.004689	7.8e-05
303.15	15390	0.004955	8.2e-05
303.15	15380	0.004954	8.2e-05
303.15	15390	0.004963	8.2e-05
303.15	15390	0.004951	8.2e-05
303.14	20260	0.005251	8.7e-05
303.14	20300	0.00525	8.7e-05
303.14	20320	0.005249	8.7e-05
303.15	30380	0.005827	9.6e-05
303.15	30330	0.005817	9.7e-05
303.15	30290	0.005827	9.7e-05
303.15	30250	0.005828	9.7e-05
303.15	30180	0.005821	9.6e-05
303.15	30100	0.005839	9.7e-05
303.15	40150	0.006446	0.000106
303.15	40100	0.006443	0.000107
303.15	40060	0.006443	0.000107
303.15	39970	0.006452	0.000106
303.15	49880	0.007058	0.000117
303.15	49830	0.00707	0.000117
303.15	49810	0.007073	0.000117
303.15	49790	0.007073	0.000117
303.14	65590	0.008312	0.000138
303.15	65490	0.008277	0.000137
303.15	65340	0.008283	0.000137
313.14	1160	0.003369	5.6e-05
313.14	1110	0.003371	5.6e-05
313.14	1090	0.003364	5.6e-05
313.14	1070	0.003362	5.6e-05
313.14	2610	0.003416	5.7e-05
313.14	2590	0.003412	5.7e-05
313.14	2580	0.003416	5.7e-05
313.14	2590	0.003412	5.7e-05
313.14	2590	0.003414	5.7e-05
313.14	2600	0.003415	5.7e-05
313.15	5350	0.003534	7.1e-05
313.15	5340	0.003529	7.1e-05
313.15	5310	0.003531	7.7e-05
313.15	5320	0.003531	7.5e-05
313.15	5380	0.003532	6.6e-05
313.15	5370	0.003531	6.7e-05
313.15	5050	0.003522	6.5e-05
313.14	5050	0.003518	6.7e-05
313.15	5050	0.003516	6.7e-05
313.14	5060	0.003518	6.7e-05
313.15	7570	0.00359	6e-05
313.14	7630	0.003595	6e-05
313.15	7610	0.003598	6e-05
313.15	7580	0.003595	6e-05
313.15	10500	0.003714	6.2e-05
313.14	10470	0.003713	6.2e-05
313.15	10470	0.003712	6.2e-05
313.15	10450	0.003717	6.2e-05
313.14	15210	0.003888	6.5e-05
313.15	15160	0.003887	6.5e-05
313.15	15180	0.003891	6.5e-05
313.15	15160	0.003889	6.5e-05
313.14	15150	0.00389	6.5e-05
313.14	15150	0.003889	6.5e-05
313.14	20440	0.004123	6.9e-05
313.14	20300	0.004123	6.9e-05
313.14	20430	0.00412	6.9e-05
313.15	20420	0.004122	6.9e-05
313.14	30180	0.004556	7.6e-05
313.14	30160	0.004553	7.6e-05
313.15	30200	0.004555	7.6e-05
313.14	30190	0.004556	7.6e-05
313.14	30180	0.004554	7.6e-05
313.15	30150	0.00456	7.6e-05
313.14	40330	0.005028	8.4e-05
313.14	40290	0.00503	8.4e-05
313.14	40270	0.005022	8.3e-05
313.14	40210	0.005026	8.4e-05
313.14	50610	0.005595	9.3e-05
313.14	50580	0.005596	9.3e-05
313.14	50590	0.005598	9.3e-05
313.14	50640	0.005591	9.3e-05
313.14	50610	0.005596	9.3e-05
313.14	50610	0.005591	9.3e-05
313.14	65110	0.006365	0.000106
313.14	65090	0.006358	0.000106
323.14	1140	0.002727	4.5e-05
323.15	1130	0.002728	4.5e-05
323.15	1130	0.002722	4.5e-05
323.14	1140	0.002723	4.5e-05
323.15	2650	0.002776	4.6e-05
323.15	2650	0.002775	4.6e-05
323.15	2640	0.002778	4.6e-05
323.15	2630	0.002775	4.6e-05
323.15	5100	0.002863	4.8e-05
323.15	5070	0.00286	4.8e-05
323.14	5040	0.002856	4.8e-05
323.15	5040	0.002856	4.8e-05
323.15	5170	0.002846	4.8e-05
323.15	5180	0.002841	4.8e-05
323.16	5190	0.002849	4.8e-05
323.15	5190	0.002843	4.8e-05
323.15	7760	0.002926	4.9e-05
323.15	7760	0.002931	4.9e-05
323.15	7740	0.002926	4.9e-05
323.15	7750	0.002924	4.9e-05
323.15	7740	0.002931	4.9e-05
323.14	10170	0.003018	5e-05
323.15	10140	0.00302	5e-05
323.15	10150	0.00302	5e-05
323.15	10130	0.003018	5e-05
323.15	10150	0.003016	5e-05
323.15	15230	0.003175	5.3e-05
323.15	15220	0.003172	5.3e-05
323.15	15230	0.003171	5.3e-05
323.15	15220	0.003173	5.3e-05
323.15	15220	0.003174	5.3e-05
323.15	20270	0.003334	5.6e-05
323.15	20250	0.00333	5.6e-05
323.15	20230	0.003327	5.5e-05
323.15	20230	0.003335	5.6e-05
323.15	20200	0.003331	5.6e-05
323.14	30230	0.003694	6.1e-05
323.14	30230	0.003693	6.1e-05
323.14	30230	0.003693	6.1e-05
323.15	30220	0.003689	6.1e-05
323.15	30190	0.003693	6.1e-05
323.14	40050	0.004079	6.8e-05
323.15	40130	0.004073	6.8e-05
323.15	40140	0.004077	6.8e-05
323.14	39990	0.00408	6.8e-05
323.15	50050	0.00445	7.4e-05
323.15	50060	0.004457	7.4e-05
323.15	50030	0.004456	7.4e-05
323.16	65310	0.005119	9.5e-05
323.16	65230	0.005125	8.5e-05
323.16	65190	0.005123	8.5e-05
323.16	65110	0.005126	9.5e-05
333.15	1000	0.00227	3.8e-05
333.15	1170	0.002269	4.1e-05
333.15	1020	0.00227	3.8e-05
333.15	1200	0.002268	4.7e-05
333.15	2530	0.002296	3.9e-05
333.16	2490	0.002298	3.9e-05
333.16	2580	0.002299	3.9e-05
333.15	5100	0.002361	4e-05
333.15	5090	0.002366	4e-05
333.15	5100	0.002362	4e-05
333.15	5030	0.002367	5.3e-05
333.15	5050	0.002362	4.6e-05
333.15	5070	0.002365	4e-05
333.15	5220	0.002366	4.3e-05
333.16	5220	0.002361	4.4e-05
333.15	5210	0.002361	4.4e-05
333.15	5210	0.002365	4.3e-05
333.16	7780	0.002422	4.1e-05
333.15	7800	0.002421	4.1e-05
333.15	7790	0.00242	4.1e-05
333.15	7790	0.002421	4.1e-05
333.15	10160	0.002493	4.2e-05
333.15	10100	0.002493	4.2e-05
333.15	10120	0.002495	4.2e-05
333.15	10130	0.002495	4.2e-05
333.15	15260	0.002625	4.8e-05
333.15	15240	0.002619	4.9e-05
333.15	15150	0.00262	5.3e-05
333.15	14860	0.002621	5.3e-05
333.15	20250	0.002763	4.6e-05
333.15	20290	0.00276	4.6e-05
333.15	20260	0.00276	4.6e-05
333.15	20270	0.002761	4.6e-05
333.15	30130	0.00305	6.4e-05
333.15	30230	0.003047	5.6e-05
333.15	29840	0.00305	5.8e-05
333.15	29880	0.003043	6.3e-05
333.15	30150	0.003042	6.1e-05
333.15	40080	0.003335	5.5e-05
333.15	40070	0.00333	5.5e-05
333.15	39970	0.003331	5.5e-05
333.15	40020	0.003332	5.5e-05
333.15	50000	0.003638	6e-05
333.15	50000	0.003636	6e-05
333.15	50000	0.003632	6e-05
333.15	49990	0.003644	6.1e-05
333.15	61660	0.004057	6.9e-05
333.15	61480	0.004064	7e-05
333.15	61600	0.004055	6.7e-05
333.15	61450	0.004065	7e-05
343.15	1260	0.001918	3.5e-05
343.15	1100	0.001917	4e-05
343.15	1100	0.001916	4e-05
343.15	1170	0.001915	3.2e-05
343.15	1240	0.001914	3.2e-05
343.15	1260	0.001915	3.6e-05
343.15	2580	0.001946	3.3e-05
343.15	2500	0.001945	3.3e-05
343.15	2500	0.001947	3.3e-05
343.15	2530	0.00195	3.3e-05
343.15	2520	0.001948	3.3e-05
343.15	2480	0.001949	3.3e-05
343.15	4960	0.001993	3.4e-05
343.15	4970	0.001994	3.4e-05
343.15	4980	0.001992	3.4e-05
343.15	4990	0.001989	3.4e-05
343.15	7500	0.002054	3.5e-05
343.15	7520	0.002056	3.5e-05
343.15	7510	0.002057	3.5e-05
343.15	7510	0.002059	3.5e-05
343.15	10030	0.002118	3.6e-05
343.15	10090	0.002117	3.6e-05
343.15	10040	0.002117	3.6e-05
343.15	10040	0.002119	3.6e-05
343.15	15260	0.002221	3.7e-05
343.15	15240	0.002222	3.7e-05
343.15	15220	0.002224	3.7e-05
343.15	20270	0.002331	4.2e-05
343.15	20210	0.002335	5.7e-05
343.15	20280	0.002335	4.2e-05
343.15	20240	0.002332	4.7e-05
343.14	20120	0.002335	3.9e-05
343.14	20120	0.002332	3.9e-05
343.15	20040	0.002334	4.8e-05
343.15	20160	0.002337	3.9e-05
343.15	30130	0.002561	4.3e-05
343.15	30090	0.002562	4.3e-05
343.15	30150	0.002561	4.3e-05
343.15	30160	0.002566	4.3e-05
343.15	30150	0.002564	4.3e-05
343.15	30140	0.002566	4.3e-05
343.15	39830	0.002806	4.7e-05
343.14	39830	0.002803	4.7e-05
343.14	39860	0.002807	4.7e-05
343.14	39870	0.002804	4.7e-05
343.14	39840	0.002809	4.7e-05
343.14	39880	0.00281	4.7e-05
343.15	50080	0.00308	5.1e-05
343.15	50080	0.003083	5.1e-05
343.15	65620	0.00349	5.8e-05
343.15	65610	0.003482	5.8e-05
343.14	65480	0.003489	5.8e-05
343.14	65500	0.003484	5.8e-05
358.16	1080	0.001521	2.6e-05
358.16	1090	0.001524	2.6e-05
358.16	1090	0.001523	2.6e-05
358.16	1090	0.001524	2.6e-05
358.16	1090	0.001521	2.6e-05
358.15	2510	0.001559	2.6e-05
358.16	2540	0.001558	2.6e-05
358.16	2540	0.001558	2.6e-05
358.16	2510	0.001559	2.6e-05
358.15	2520	0.001559	2.6e-05
358.15	2520	0.00156	2.6e-05
358.15	5240	0.001601	3.6e-05
358.16	5240	0.001599	3.7e-05
358.16	5180	0.0016	2.7e-05
358.16	5200	0.001597	2.7e-05
358.15	5050	0.001594	3.7e-05
358.15	5050	0.001593	3.7e-05
358.15	5060	0.001594	3.8e-05
358.15	5060	0.001595	3.8e-05
358.16	7560	0.001645	2.8e-05
358.16	7560	0.001644	2.8e-05
358.16	7560	0.001645	2.8e-05
358.16	7560	0.001644	2.8e-05
358.16	7560	0.001643	2.8e-05
358.15	9930	0.001688	2.9e-05
358.15	10010	0.00169	2.9e-05
358.15	15060	0.001769	3e-05
358.15	15060	0.001766	3e-05
358.15	15060	0.001764	3e-05
358.15	15130	0.001765	3e-05
358.15	15100	0.001768	3e-05
358.15	20130	0.001863	3.1e-05
358.16	20130	0.001868	3.1e-05
358.16	20120	0.001868	3.1e-05
358.16	20120	0.001866	3.1e-05
358.16	20160	0.001863	3.1e-05
358.15	30290	0.002042	3.4e-05
358.15	30320	0.002046	3.4e-05
358.15	30290	0.002044	3.4e-05
358.15	30310	0.002043	3.4e-05
358.15	30300	0.002041	3.4e-05
358.15	30280	0.002045	3.4e-05
358.16	40080	0.002223	3.7e-05
358.15	39990	0.002219	3.7e-05
358.15	40010	0.002219	3.7e-05
358.15	40060	0.002219	3.7e-05
358.15	40040	0.002222	3.7e-05
358.15	39960	0.002223	3.7e-05
358.16	50160	0.002426	4.1e-05
358.16	50170	0.002424	4e-05
358.16	50170	0.002427	4.1e-05
358.16	50160	0.002429	4.1e-05
358.16	50170	0.002427	4.1e-05
358.16	65550	0.002761	4.6e-05
358.16	65550	0.002761	4.6e-05
358.16	65550	0.002757	4.6e-05
358.16	65550	0.002758	4.6e-05
373.15	1160	0.001254	2.1e-05
373.15	1120	0.001255	2.1e-05
373.15	1060	0.001253	2.1e-05
373.15	1060	0.001253	2.1e-05
373.14	2490	0.001265	2.2e-05
373.15	2600	0.001264	2.2e-05
373.15	2590	0.001264	2.2e-05
373.15	5080	0.001302	2.2e-05
373.15	5080	0.001301	2.2e-05
373.15	5080	0.001303	2.2e-05
373.15	5080	0.001303	2.2e-05
373.15	7610	0.001341	2.3e-05
373.15	7600	0.001342	2.3e-05
373.15	7600	0.001342	2.3e-05
373.15	7600	0.001341	2.3e-05
373.15	10130	0.001374	2.3e-05
373.14	10000	0.001376	2.4e-05
373.15	10130	0.001374	2.3e-05
373.14	10000	0.001374	2.3e-05
373.15	10090	0.001375	2.4e-05
373.14	15050	0.001443	2.5e-05
373.14	15040	0.001442	2.5e-05
373.15	15070	0.001443	2.5e-05
373.15	15060	0.001441	2.5e-05
373.15	20220	0.001518	2.6e-05
373.15	20230	0.001518	2.6e-05
373.15	20250	0.001516	2.6e-05
373.15	20220	0.001518	2.6e-05
373.15	29920	0.001669	2.8e-05
373.15	30000	0.001667	2.8e-05
373.14	29940	0.001668	2.8e-05
373.15	29980	0.001667	2.8e-05
373.15	50030	0.001975	3.3e-05
373.15	50030	0.001977	3.3e-05
373.15	50030	0.001976	3.3e-05
373.15	50030	0.001975	3.3e-05
373.15	50030	0.001974	3.3e-05
373.15	65350	0.002231	3.7e-05
373.15	65350	0.002231	3.7e-05
373.15	65350	0.002229	3.7e-05

System: dibutyl hexanedioate; phases: Liquid
Fixed: Pressure, kPa = 101.325
Property: Viscosity, Pa*s (Liquid); method: Capillary tube (Ostwald; Ubbelohde) method
Temperature, K	Viscosity, Pa*s	uncertainty
323.11	0.002704	8.4e-05
333.03	0.00225	7e-05
