Measured thermophysical data. Vapor pressures, standard molar enthalpies, entropies Gibbs energies of  sublimation and heat capacities of 2,5- and 3,5-dibromobenzoic acids
Source: Fluid Phase Equilib., 2013, 10.1016/j.fluid.2012.11.006
Compound 1: 2,5-dibromobenzoic acid, C7H4Br2O2, InChI=1S/C7H4Br2O2/c8-4-1-2-6(9)5(3-4)7(10)11/h1-3H,(H,10,11), purity 97%
Compound 2: 3,5-dibromobenzoic acid, C7H4Br2O2, InChI=1S/C7H4Br2O2/c8-5-1-4(7(10)11)2-6(9)3-5/h1-3H,(H,10,11), purity 96%

System: 2,5-dibromobenzoic acid; phases: Crystal, Liquid, Air at 1 atmosphere
Property: Normal melting temperature, K (Crystal); method: DTA
Normal melting temperature, K	uncertainty
428	0.5

System: 2,5-dibromobenzoic acid; phases: Crystal, Liquid, Air at 1 atmosphere
Property: Molar enthalpy of transition or fusion, kJ/mol (Crystal); method: DSC
Molar enthalpy of transition or fusion, kJ/mol	uncertainty
36.7	3.7

System: 2,5-dibromobenzoic acid; phases: Crystal, Gas
Property: Molar enthalpy of transition or fusion, kJ/mol (Crystal); method: Torsion-effucion
Temperature, K	Molar enthalpy of transition or fusion, kJ/mol	uncertainty
298.15	133.6	2

System: 2,5-dibromobenzoic acid; phases: Liquid, Gas
Property: Molar enthalpy of transition or fusion, kJ/mol (Liquid); method: DSC
Temperature, K	Molar enthalpy of transition or fusion, kJ/mol	uncertainty
428	92.7	2.9

System: 2,5-dibromobenzoic acid; phases: Crystal, Gas
Property: Vapor or sublimation pressure, kPa (Crystal); method: Torsion effusion method
Temperature, K	Vapor or sublimation pressure, kPa	uncertainty
346.8	4.7e-05	2.1e-05
348.6	5.7e-05	2.2e-05
350	7.6e-05	2.3e-05
350.2	7.6e-05	2.3e-05
352.2	9.5e-05	2.3e-05
353	0.000114	2.5e-05
353.5	0.000114	2.5e-05
353.6	0.000114	2.5e-05
354.3	0.000133	2.8e-05
354.8	0.000133	3.1e-05
356.1	0.000171	3.1e-05
356.2	0.000152	3e-05
356.8	0.000171	3e-05
357.3	0.000189	3.8e-05
357.8	0.000208	3.8e-05
358.3	0.000208	2.9e-05
359.2	0.000246	3.1e-05
359.6	0.000227	3.7e-05
360.2	0.000246	3.6e-05
360.4	0.000265	3.3e-05
361.5	0.000303	5e-05
361.7	0.000303	4.9e-05
362.4	0.00036	4.4e-05
362.5	0.000322	4.2e-05
363	0.000379	7e-05
363.8	0.000388	5.5e-05
364.6	0.000493	4.4e-05
364.7	0.000474	4.5e-05
365.6	0.000474	6.7e-05
366.2	0.000493	5.5e-05
367.3	0.000606	0.000102
367.6	0.000701	0.000102
367.7	0.000682	0.000103
369.1	0.000777	7e-05
369.7	0.000834	0.000103
370.5	0.000853	0.000109
370.7	0.000947	0.000108
371.2	0.001023	0.000111
372.3	0.001099	9.4e-05
373	0.001175	0.000127
373.5	0.001213	0.000145
373.7	0.00127	0.000144
375.4	0.001516	0.000214
376.8	0.001914	0.000294
376.9	0.001762	0.000178

System: 2,5-dibromobenzoic acid; phases: Liquid, Gas
Property: Vapor or sublimation pressure, kPa (Liquid); method: non-isothermal thermogravimetric
Temperature, K	Vapor or sublimation pressure, kPa	uncertainty
440.2	0.643	0.113
444.1	0.844	0.098
448.3	1.04	0.1
452	1.302	0.116
456.3	1.578	0.114
460.1	1.931	0.142
464.2	2.396	0.173
468.1	2.879	0.148
440.5	0.663	0.091
444.6	0.841	0.092
448.8	1.066	0.1
452.9	1.335	0.105
456.7	1.622	0.113
460.6	1.967	0.124
464.8	2.456	0.15
468.5	2.897	0.136
441.3	0.731	0.094
445.4	0.919	0.092
449.2	1.146	0.104
453.1	1.404	0.099
457.1	1.739	0.118
461.2	2.111	0.136
465.4	2.637	0.143
442.1	0.732	0.095
446.3	0.924	0.096
450.1	1.151	0.109
454.2	1.429	0.098
458.2	1.752	0.105
462.1	2.123	0.144
466.2	2.643	0.151

System: 2,5-dibromobenzoic acid; phases: Liquid, Gas
Property: Vapor or sublimation pressure, kPa (Liquid); method: isothermal thermogravimetric
Temperature, K	Vapor or sublimation pressure, kPa	uncertainty
444	0.821	0.092
448.1	1.01	0.091
452.1	1.259	0.11
456.2	1.573	0.113
460	1.91	0.14
464.3	2.319	0.153
467.1	2.776	0.18
443.1	0.819	0.06
447	1.031	0.087
451.2	1.291	0.106
455.1	1.608	0.114
459.3	1.974	0.105
463.1	2.39	0.14
467	2.886	0.186
444.1	0.835	0.09
448.3	1.044	0.089
452.3	1.306	0.105
456.1	1.617	0.124
460.3	1.994	0.138
464.1	2.401	0.168
468.2	2.931	0.153
444.8	0.822	0.082
448.7	1.012	0.089
452.9	1.282	0.104
456.8	1.602	0.11
461	1.945	0.128
464.8	2.362	0.145
468.7	2.855	0.078

System: 2,5-dibromobenzoic acid; phases: Crystal
Fixed: Pressure, kPa = 101.325
Property: Molar heat capacity at constant pressure, J/K/mol (Crystal); method: Flow calorimetry
Temperature, K	Molar heat capacity at constant pressure, J/K/mol	uncertainty
288.2	216	0.9
290.2	217.4	1
292.2	219.4	1
294.2	220.6	0.8
296.2	221.7	0.8
298.2	223.1	0.9
300.2	224.8	0.9
302.2	225.8	0.8
304.2	227.1	0.9
306.2	228.5	0.9
308.2	229.8	1
310.2	231.7	0.9
312.2	232.5	0.8
314.2	234	0.9
316.2	235.3	0.9
318.2	237	0.9
320.2	238.4	0.7
322.2	239.1	0.8
324.2	240.7	1
326.2	242.4	1
288.2	215.9	0.9
290.2	217.6	1
292.2	219.4	1
294.2	220.4	0.8
296.2	221.5	0.8
298.2	222.9	0.9
300.2	224.7	0.9
302.2	225.9	0.8
304.2	227	0.9
306.2	228.3	0.9
308.2	229.6	1
310.2	231.6	0.9
312.2	232.4	0.8
314.2	233.9	0.9
316.2	235.2	0.9
318.2	236.8	0.9
320.2	238.5	0.7
322.2	239	0.8
324.2	240.5	1
326.2	242.1	0.9
288.2	215.9	0.9
290.2	217.5	1
292.2	219.3	1
294.2	220.5	0.8
296.2	221.4	0.8
298.2	223	0.9
300.2	224.8	0.9
302.2	225.6	0.8
304.2	227.3	0.9
306.2	228.4	0.9
308.2	229.8	1
310.2	231.5	0.9
312.2	232.3	0.8
314.2	234.1	0.9
316.2	235.2	0.9
318.2	236.9	0.9
320.2	238.3	0.7
322.2	239	0.8
324.2	240.4	1
326.2	242.3	1

System: 2,5-dibromobenzoic acid; phases: Crystal, Gas
Property: Molar enthalpy of transition or fusion, kJ/mol (Crystal); method: DSC
Temperature, K	Molar enthalpy of transition or fusion, kJ/mol	uncertainty
428	128.5	4.7
298.15	132.4	6.5

System: 3,5-dibromobenzoic acid; phases: Crystal, Liquid, Air at 1 atmosphere
Property: Normal melting temperature, K (Crystal); method: DTA
Normal melting temperature, K	uncertainty
491.2	0.5

System: 3,5-dibromobenzoic acid; phases: Crystal, Liquid, Air at 1 atmosphere
Property: Molar enthalpy of transition or fusion, kJ/mol (Crystal); method: DSC
Molar enthalpy of transition or fusion, kJ/mol	uncertainty
84.5	2.2

System: 3,5-dibromobenzoic acid; phases: Crystal, Gas
Property: Molar enthalpy of transition or fusion, kJ/mol (Crystal); method: Torsion-effucion
Temperature, K	Molar enthalpy of transition or fusion, kJ/mol	uncertainty
298.15	120.3	2

System: 3,5-dibromobenzoic acid; phases: Crystal, Gas
Property: Vapor or sublimation pressure, kPa (Crystal); method: Torsion effusion method
Temperature, K	Vapor or sublimation pressure, kPa	uncertainty
355.2	1.9e-05	2e-05
358	2.8e-05	2e-05
359	2.8e-05	2e-05
360.5	3.8e-05	2e-05
362.5	4.7e-05	2e-05
362.5	4.7e-05	2e-05
363.8	4.7e-05	2e-05
365.2	5.7e-05	2e-05
365.6	5.7e-05	2e-05
366.8	7.6e-05	2.1e-05
366.4	6.6e-05	2e-05
369.2	9.5e-05	2.1e-05
371	0.000114	2.1e-05
371.2	0.000114	2.1e-05
371.3	0.000114	2.1e-05
372.5	0.000133	2.2e-05
373	0.000133	2.2e-05
373.7	0.000133	2.2e-05
374	0.000152	2.2e-05
375.6	0.000189	2.3e-05
376	0.000189	2.3e-05
377	0.000208	2.4e-05
377.9	0.000227	2.4e-05
378.2	0.000208	2.4e-05
380.2	0.000284	2.7e-05
380.4	0.000284	2.7e-05
381.3	0.000303	2.7e-05
381.5	0.000303	2.7e-05
383.2	0.000398	3.2e-05
383.7	0.000398	3.2e-05
384.1	0.000379	3.1e-05
384.3	0.000436	3.3e-05
386.3	0.000474	3.5e-05
386.6	0.000531	3.8e-05
386.9	0.000531	3.8e-05
387.7	0.000531	3.8e-05
389.8	0.000758	5.1e-05
390.1	0.00072	4.8e-05
390.8	0.000796	5.3e-05
391.1	0.000739	4.9e-05
393.1	0.000947	6.1e-05
393.7	0.000947	6.1e-05
394	0.001004	6.5e-05
395.6	0.001213	7.7e-05
395.9	0.001175	7.5e-05

System: 3,5-dibromobenzoic acid; phases: Liquid, Gas
Property: Vapor or sublimation pressure, kPa (Liquid); method: non-isothermal thermogravimetric
Temperature, K	Vapor or sublimation pressure, kPa	uncertainty
500.1	1.173	0.084
504	1.377	0.101
508.2	1.617	0.106
512.3	1.893	0.101
516.3	2.222	0.122
520.1	2.546	0.118
524.2	2.862	0.112
528.1	3.325	0.151
500.7	1.118	0.112
504.9	1.33	0.1
509	1.592	0.109
513.3	1.802	0.113
517.1	2.15	0.13
521	2.478	0.124
525.2	2.789	0.136
528.9	3.233	0.13
501.3	1.141	0.099
505.6	1.401	0.1
509.4	1.653	0.106
513.5	1.882	0.12
517.5	2.228	0.121
521.4	2.57	0.11
525.5	2.884	0.149
528.9	3.297	0.145
501.1	1.135	0.116
505.2	1.358	0.102
509	1.624	0.109
513.1	1.85	0.11
517.1	2.187	0.128
521.2	2.518	0.117
525.4	2.858	0.151
529.2	3.322	0.08

System: 3,5-dibromobenzoic acid; phases: Liquid, Gas
Property: Vapor or sublimation pressure, kPa (Liquid); method: isothermal thermogravimetric
Temperature, K	Vapor or sublimation pressure, kPa	uncertainty
502.2	1.21	0.082
506.3	1.426	0.091
510.3	1.637	0.096
514.4	1.98	0.1
518.2	2.223	0.115
522.5	2.612	0.116
526.3	3.009	0.079
501.1	1.191	0.062
505.4	1.401	0.089
509.2	1.652	0.083
513.1	1.909	0.105
517.1	2.176	0.089
521.2	2.586	0.113
525.4	2.995	0.145
500.1	1.128	0.081
504.6	1.376	0.081
508.8	1.646	0.082
512.9	1.908	0.105
516.7	2.189	0.089
520.6	2.505	0.11
525	2.943	0.124
501.6	1.21	0.081
505.1	1.405	0.082
508.9	1.615	0.082
513	1.9	0.1
517	2.217	0.091
520.9	2.553	0.111
525	2.941	0.124

System: 3,5-dibromobenzoic acid; phases: Liquid, Crystal
Property: Molar enthalpy of transition or fusion, kJ/mol (Liquid); method: DSC
Temperature, K	Molar enthalpy of transition or fusion, kJ/mol	uncertainty
491.2	29.4	3.6

System: 3,5-dibromobenzoic acid; phases: Crystal
Fixed: Pressure, kPa = 101.325
Property: Molar heat capacity at constant pressure, J/K/mol (Crystal); method: Flow calorimetry
Temperature, K	Molar heat capacity at constant pressure, J/K/mol	uncertainty
288.2	215.7	0.9
290.2	217.3	1
292.2	219.3	0.9
294.2	220.4	0.8
296.2	221.5	0.8
298.2	223	1
300.2	224.7	0.9
302.2	225.7	0.8
304.2	227	0.8
306.2	228.3	0.8
308.2	229.6	1
310.2	231.5	0.9
312.2	232.5	0.8
314.2	234.1	0.9
316.2	235.2	0.9
318.2	236.9	1
320.2	238.5	0.7
322.2	239	0.8
324.2	240.7	1
326.2	242.5	1
288.2	215.8	0.9
290.2	217.5	1
292.2	219.2	0.9
294.2	220.3	0.8
296.2	221.6	0.8
298.2	223.2	1
300.2	224.5	0.9
302.2	225.8	0.8
304.2	227.2	0.8
306.2	228.4	0.8
308.2	229.8	1
310.2	231.6	0.9
312.2	232.3	0.8
314.2	233.9	0.9
316.2	235.3	0.9
318.2	236.7	1
320.2	238.4	0.7
322.2	239.2	0.8
324.2	240.6	1
326.2	242.5	1
288.2	215.7	0.9
290.2	217.4	1
292.2	219.4	0.9
294.2	220.4	0.8
296.2	221.5	0.8
298.2	223.1	1
300.2	224.9	0.9
302.2	225.7	0.8
304.2	227.1	0.8
306.2	228.4	0.8
308.2	229.9	1
310.2	231.6	0.9
312.2	232.4	0.8
314.2	234	0.9
316.2	235.3	0.9
318.2	237	1
320.2	238.4	0.7
322.2	239.2	0.8
324.2	240.5	1
326.2	242.4	1

System: 3,5-dibromobenzoic acid; phases: Crystal, Gas
Property: Molar enthalpy of transition or fusion, kJ/mol (Crystal); method: DSC
Temperature, K	Molar enthalpy of transition or fusion, kJ/mol	uncertainty
491.2	84.5	2.8
491.2	114.6	4.6
298.15	120.4	6.5
