Measured thermophysical data. "Vapor-liquid" equilibrium measurements and modeling for the cyclohexane + cyclohexanol binary system
Source: Fluid Phase Equilib., 2010, 10.1016/j.fluid.2010.06.013
Compound 1: cyclohexane, C6H12, InChI=1S/C6H12/c1-2-4-6-5-3-1/h1-6H2, purity 99.8%
Compound 2: cyclohexanol, C6H12O, InChI=1S/C6H12O/c7-6-4-2-1-3-5-6/h6-7H,1-5H2, purity 99%

System: cyclohexanol + cyclohexane; phases: Liquid, Gas
Property: Vapor or sublimation pressure, kPa (Liquid); method: Closed cell (Static) method
Mole fraction of cyclohexane	Temperature, K	Vapor or sublimation pressure, kPa	uncertainty
0.057	463.62	308.9	3.4
0.074	483.68	479.8	4.4
0.121	463.62	395.4	5.5
0.146	483.68	593.7	7.3
0.153	443.6	297.1	4.9
0.191	463.62	480.2	7.4
0.209	443.6	348.9	6
0.22	483.68	702.8	9.9
0.266	463.62	562.8	9.2
0.276	443.6	405.5	7.1
0.3	483.68	811.3	12.4
0.314	423.56	296.6	5.5
0.348	443.6	457.3	7.8
0.351	463.62	648.7	11
0.364	423.56	323.2	5.9
0.386	483.68	922	14.8
0.424	423.56	351.1	6.3
0.431	443.6	512.8	8.6
0.442	463.62	734.1	12.2
0.479	483.68	1032.2	17.1
0.485	423.56	377.8	6.4
0.52	443.6	565.1	10
0.545	463.62	816.7	13
0.549	423.56	402	6.5
0.577	483.68	1143	19.2
0.619	443.6	619	10.6
0.622	423.56	427.8	6.9
0.661	463.62	901.8	14.5
0.683	483.68	1252.6	21.9
0.704	423.56	455	7.4
0.732	443.6	673.8	9.5
0.781	463.62	988.4	17.9
0.783	423.56	480.4	8.1
0.792	483.68	1367.1	25.5
0.832	443.6	724.7	14
0.858	423.56	504.8	9.3
0.896	483.68	1477.2	28.9
0.898	463.62	1078.1	27
0.924	443.6	772.9	21.4
0.928	423.56	530.1	10.5

System: cyclohexanol + cyclohexane; phases: Gas, Liquid
Property: Mole fraction of cyclohexane (Gas); method: Chromatography
Mole fraction of cyclohexane	Temperature, K	Mole fraction of cyclohexane	uncertainty
0.057	463.62	0.318	0.011
0.074	483.68	0.311	0.011
0.121	463.62	0.5	0.018
0.146	483.68	0.475	0.017
0.153	443.6	0.623	0.02
0.191	463.62	0.609	0.02
0.209	443.6	0.692	0.022
0.22	483.68	0.582	0.02
0.266	463.62	0.687	0.022
0.276	443.6	0.75	0.023
0.3	483.68	0.657	0.021
0.314	423.56	0.821	0.025
0.348	443.6	0.792	0.024
0.351	463.62	0.746	0.023
0.364	423.56	0.843	0.026
0.386	483.68	0.716	0.023
0.424	423.56	0.864	0.026
0.431	443.6	0.828	0.025
0.442	463.62	0.794	0.025
0.479	483.68	0.768	0.024
0.485	423.56	0.882	0.027
0.52	443.6	0.858	0.026
0.545	463.62	0.833	0.026
0.549	423.56	0.896	0.027
0.577	483.68	0.818	0.026
0.619	443.6	0.885	0.027
0.622	423.56	0.91	0.028
0.661	463.62	0.872	0.027
0.683	483.68	0.859	0.027
0.704	423.56	0.925	0.028
0.732	443.6	0.913	0.028
0.781	463.62	0.911	0.029
0.783	423.56	0.939	0.029
0.792	483.68	0.901	0.029
0.832	443.6	0.939	0.029
0.858	423.56	0.955	0.029
0.896	483.68	0.947	0.031
0.898	463.62	0.954	0.03
0.924	443.6	0.969	0.03
0.928	423.56	0.973	0.027
