Measured thermophysical data. Surface tensions of ionic liquids: Non-regular trend along the number of cyano groups
Source: Fluid Phase Equilib., 2016, 10.1016/j.fluid.2015.10.044
Compound 1: 1-butyl-3-methylimidazolium thiocyanate, C9H15N3S, InChI=1S/C8H15N2.CHNS/c1-3-4-5-10-7-6-9(2)8-10;2-1-3/h6-8H,3-5H2,1-2H3;3H/q+1;/p-1, purity 98%
Compound 2: 1-butyl-3-methylimidazolium dicyanamide, C10H15N5, InChI=1S/C8H15N2.C2N3/c1-3-4-5-10-7-6-9(2)8-10;3-1-5-2-4/h6-8H,3-5H2,1-2H3;/q+1;-1, purity 98%
Compound 3: 1-hexyl-3-methylimidazolium dicyanamide, C12H19N5, InChI=1S/C10H19N2.C2N3/c1-3-4-5-6-7-12-9-8-11(2)10-12;3-1-5-2-4/h8-10H,3-7H2,1-2H3;/q+1;-1, purity 98%
Compound 4: 1-ethyl-3-methyl-1H-imidazolium tricyanomethanide, C10H11N5, InChI=1S/C6H11N2.C4N3/c1-3-8-5-4-7(2)6-8;5-1-4(2-6)3-7/h4-6H,3H2,1-2H3;/q+1;-1, purity 98%
Compound 5: 1-butyl-3-methylimidazolium tricyanomethane, C12H15N5, InChI=1S/C8H15N2.C4N3/c1-3-4-5-10-7-6-9(2)8-10;5-1-4(2-6)3-7/h6-8H,3-5H2,1-2H3;/q+1;-1, purity 98%
Compound 6: 1-ethyl-3-methylimidazolium tetracyanoborate, C10H11BN6, InChI=1S/C6H11N2.C4BN4/c1-3-8-5-4-7(2)6-8;6-1-5(2-7,3-8)4-9/h4-6H,3H2,1-2H3;/q+1;-1, purity 98%
Compound 7: 1-hexyl-3-methylimidazolium tetracyanoborate, C14H19BN6, InChI=1S/C10H19N2.C4BN4/c1-3-4-5-6-7-12-9-8-11(2)10-12;6-1-5(2-7,3-8)4-9/h8-10H,3-7H2,1-2H3;/q+1;-1, purity 98%

System: 1-butyl-3-methylimidazolium thiocyanate; phases: Liquid, Air at 1 atmosphere
Property: Surface tension liquid-gas, N/m (Liquid); method: Pendant drop shape
Temperature, K	Surface tension liquid-gas, N/m	uncertainty
298.1	0.0446	0.0007
308.2	0.0435	0.0007
318.1	0.043	0.0006
328.3	0.0424	0.0006
338.5	0.0419	0.0006
342.9	0.0416	0.0006

System: 1-butyl-3-methylimidazolium dicyanamide; phases: Liquid, Air at 1 atmosphere
Property: Surface tension liquid-gas, N/m (Liquid); method: Pendant drop shape
Temperature, K	Surface tension liquid-gas, N/m	uncertainty
298.4	0.0506	0.0007
307.9	0.0503	0.0007
318.1	0.0497	0.0007
328.4	0.0486	0.0007
339	0.0481	0.0007
342.9	0.0475	0.0007

System: 1-hexyl-3-methylimidazolium dicyanamide; phases: Liquid, Air at 1 atmosphere
Property: Surface tension liquid-gas, N/m (Liquid); method: Pendant drop shape
Temperature, K	Surface tension liquid-gas, N/m	uncertainty
298	0.043	0.0006
307.9	0.0422	0.0006
318.4	0.0416	0.0006
328.2	0.041	0.0006
338.5	0.0405	0.0006
342.7	0.0402	0.0006

System: 1-ethyl-3-methyl-1H-imidazolium tricyanomethanide; phases: Liquid, Air at 1 atmosphere
Property: Surface tension liquid-gas, N/m (Liquid); method: Pendant drop shape
Temperature, K	Surface tension liquid-gas, N/m	uncertainty
298.3	0.0511	0.0007
308.1	0.0507	0.0007
317.9	0.0499	0.0007
328	0.0491	0.0007
338.9	0.0485	0.0007
343	0.0479	0.0007

System: 1-butyl-3-methylimidazolium tricyanomethane; phases: Liquid, Air at 1 atmosphere
Property: Surface tension liquid-gas, N/m (Liquid); method: Pendant drop shape
Temperature, K	Surface tension liquid-gas, N/m	uncertainty
298.3	0.0492	0.0007
308.3	0.0485	0.0007
318.3	0.0481	0.0007
329.1	0.0473	0.0007
338.9	0.0466	0.0007
343	0.0462	0.0007

System: 1-ethyl-3-methylimidazolium tetracyanoborate; phases: Liquid, Air at 1 atmosphere
Property: Surface tension liquid-gas, N/m (Liquid); method: Pendant drop shape
Temperature, K	Surface tension liquid-gas, N/m	uncertainty
298.1	0.0491	0.0007
307.8	0.0483	0.0007
318	0.0474	0.0007
328.7	0.0466	0.0007
338.8	0.0458	0.0007
343	0.0454	0.0007

System: 1-hexyl-3-methylimidazolium tetracyanoborate; phases: Liquid, Air at 1 atmosphere
Property: Surface tension liquid-gas, N/m (Liquid); method: Pendant drop shape
Temperature, K	Surface tension liquid-gas, N/m	uncertainty
298.6	0.0415	0.0006
308.4	0.0408	0.0006
318	0.04	0.0006
328	0.0392	0.0006
338.5	0.0384	0.0006
342.9	0.0382	0.0006
