Measured thermophysical data. Measurement and calculation of vapor liquid equilibria for methanol + glycerol and ethanol + glycerol systems at 493 573K
Source: Fluid Phase Equilib., 2009, 10.1016/j.fluid.2009.06.010
Compound 1: methanol, CH4O, InChI=1S/CH4O/c1-2/h2H,1H3, purity 99.8%
Compound 2: ethanol, C2H6O, InChI=1S/C2H6O/c1-2-3/h3H,2H2,1H3, purity 99.5%
Compound 3: glycerol, C3H8O3, InChI=1S/C3H8O3/c4-1-3(6)2-5/h3-6H,1-2H2, purity 99%

System: glycerol + methanol; phases: Gas, Liquid
Property: Mole fraction of methanol (Gas); method: Chromatography
Temperature, K	Pressure, kPa	Mole fraction of methanol	uncertainty
543	8610	0.99	0.001
543	9550	0.976	0.001
573	9000	0.986	0.001
573	9970	0.976	0.001
573	11010	0.963	0.001

System: glycerol + methanol; phases: Liquid, Gas
Property: Mole fraction of methanol (Liquid); method: Chromatography
Temperature, K	Pressure, kPa	Mole fraction of methanol	uncertainty
493	3030	0.478	0.018
493	3410	0.55	0.018
493	3860	0.645	0.017
493	4230	0.701	0.02
493	4670	0.85	0.02
493	5120	0.965	0.021
523	4640	0.484	0.018
523	5210	0.565	0.018
523	6080	0.689	0.017
523	6790	0.807	0.019
523	7160	0.868	0.019
543	5410	0.431	0.015
543	6180	0.509	0.016
543	6990	0.592	0.015
543	7910	0.697	0.015
543	8610	0.78	0.015
543	9550	0.887	0.016
573	6900	0.433	0.014
573	7860	0.502	0.014
573	9000	0.602	0.015
573	9970	0.671	0.015
573	11010	0.758	0.015

System: glycerol + ethanol; phases: Gas, Liquid
Property: Mole fraction of ethanol (Gas); method: Chromatography
Temperature, K	Pressure, kPa	Mole fraction of ethanol	uncertainty
543	6540	0.985	0.001
573	4730	0.9999	0.0001
573	5520	0.9999	0.0001
573	6520	0.983	0.001
573	7510	0.959	0.001
573	8780	0.931	0.001

System: glycerol + ethanol; phases: Liquid, Gas
Property: Mole fraction of ethanol (Liquid); method: Chromatography
Temperature, K	Pressure, kPa	Mole fraction of ethanol	uncertainty
493	2270	0.54	0.018
493	2660	0.663	0.017
493	2810	0.698	0.017
493	3010	0.766	0.023
493	3150	0.833	0.02
493	3390	0.889	0.018
523	2510	0.346	0.014
523	3260	0.455	0.015
523	3940	0.591	0.014
523	4600	0.741	0.016
523	5320	0.879	0.016
543	3120	0.316	0.012
543	3760	0.414	0.013
543	4430	0.495	0.013
543	5120	0.603	0.013
543	5810	0.7	0.013
543	6540	0.809	0.014
573	4730	0.364	0.011
573	5520	0.436	0.012
573	6520	0.531	0.013
573	7510	0.634	0.013
573	8780	0.773	0.013
