Measured thermophysical data. Study of the physicochemical properties of protein kinase CK2 inhibitors -TBBt, TBBi and 2-Me-TBBi
Source: Fluid Phase Equilib., 2019, 10.1016/j.fluid.2018.09.015
Compound 1: 4,5,6,7-tetrabromo-1H-benzotriazole [TBBt], C6HBr4N3, InChI=1S/C6HBr4N3/c7-1-2(8)4(10)6-5(3(1)9)11-13-12-6/h(H,11,12,13)
Compound 2: 4,5,6,7-tetrabromo-1H-benzimidazole, C7H2Br4N2, InChI=1S/C7H2Br4N2/c8-2-3(9)5(11)7-6(4(2)10)12-1-13-7/h1H,(H,12,13)
Compound 3: 4,5,6,7-tetrabromo-2-methyl-1H-benzimidazole, C8H4Br4N2, InChI=1S/C8H4Br4N2/c1-2-13-7-5(11)3(9)4(10)6(12)8(7)14-2/h1H3,(H,13,14)
Compound 4: water, H2O, InChI=1S/H2O/h1H2, purity 99.8%
Compound 5: ethanol, C2H6O, InChI=1S/C2H6O/c1-2-3/h3H,2H2,1H3, purity 99.8%
Compound 6: octan-1-ol, C8H18O, InChI=1S/C8H18O/c1-2-3-4-5-6-7-8-9/h9H,2-8H2,1H3, purity 99.8%

System: 4,5,6,7-tetrabromo-1H-benzotriazole [TBBt]; phases: Crystal 1, Liquid, Air at 1 atmosphere
Property: Molar enthalpy of transition or fusion, kJ/mol (Crystal 1); method: DSC
Molar enthalpy of transition or fusion, kJ/mol	uncertainty
29.55	0.66

System: 4,5,6,7-tetrabromo-1H-benzotriazole [TBBt]; phases: Crystal 2, Crystal 1, Air at 1 atmosphere
Property: Molar enthalpy of transition or fusion, kJ/mol (Crystal 2); method: DSC
Molar enthalpy of transition or fusion, kJ/mol	uncertainty
28.77	0.64

System: 4,5,6,7-tetrabromo-1H-benzotriazole [TBBt]; phases: Crystal, Liquid, Air at 1 atmosphere
Property: Normal melting temperature, K (Crystal); method: DTA
Normal melting temperature, K	uncertainty
535.91	0.41

System: 4,5,6,7-tetrabromo-1H-benzotriazole [TBBt]; phases: Crystal 1, Liquid
Property: Solid-liquid equilibrium temperature, K (Crystal 1); method: DTA
Pressure, kPa	Solid-liquid equilibrium temperature, K	uncertainty
101.3	535.91	0.32

System: 4,5,6,7-tetrabromo-1H-benzotriazole [TBBt]; phases: Crystal 2, Crystal 1
Property: Solid-liquid equilibrium temperature, K (Crystal 2); method: DTA
Pressure, kPa	Solid-liquid equilibrium temperature, K	uncertainty
101.3	391.48	0.27

System: 4,5,6,7-tetrabromo-1H-benzimidazole; phases: Crystal 1, Liquid, Air at 1 atmosphere
Property: Molar enthalpy of transition or fusion, kJ/mol (Crystal 1); method: DSC
Molar enthalpy of transition or fusion, kJ/mol	uncertainty
40.67	0.87

System: 4,5,6,7-tetrabromo-1H-benzimidazole; phases: Crystal 2, Crystal 1, Air at 1 atmosphere
Property: Molar enthalpy of transition or fusion, kJ/mol (Crystal 2); method: DSC
Molar enthalpy of transition or fusion, kJ/mol	uncertainty
15.88	0.42

System: 4,5,6,7-tetrabromo-1H-benzimidazole; phases: Crystal, Liquid, Air at 1 atmosphere
Property: Normal melting temperature, K (Crystal); method: DTA
Normal melting temperature, K	uncertainty
616.01	0.41

System: 4,5,6,7-tetrabromo-1H-benzimidazole; phases: Crystal 1, Liquid
Property: Solid-liquid equilibrium temperature, K (Crystal 1); method: DTA
Pressure, kPa	Solid-liquid equilibrium temperature, K	uncertainty
101.3	616.01	0.35

System: 4,5,6,7-tetrabromo-1H-benzimidazole; phases: Crystal 2, Crystal 1
Property: Solid-liquid equilibrium temperature, K (Crystal 2); method: DTA
Pressure, kPa	Solid-liquid equilibrium temperature, K	uncertainty
101.3	480.6	0.3

System: 4,5,6,7-tetrabromo-2-methyl-1H-benzimidazole; phases: Crystal 1, Liquid, Air at 1 atmosphere
Property: Molar enthalpy of transition or fusion, kJ/mol (Crystal 1); method: DSC
Molar enthalpy of transition or fusion, kJ/mol	uncertainty
27.98	0.63

System: 4,5,6,7-tetrabromo-2-methyl-1H-benzimidazole; phases: Crystal, Liquid, Air at 1 atmosphere
Property: Normal melting temperature, K (Crystal); method: DTA
Normal melting temperature, K	uncertainty
598.74	0.41

System: 4,5,6,7-tetrabromo-2-methyl-1H-benzimidazole; phases: Crystal 1, Liquid
Property: Solid-liquid equilibrium temperature, K (Crystal 1); method: DTA
Pressure, kPa	Solid-liquid equilibrium temperature, K	uncertainty
101.3	598.74	0.34

System: 4,5,6,7-tetrabromo-1H-benzotriazole [TBBt] + water; phases: Liquid, Crystal
Fixed: Pressure, kPa = 101.3
Property: Mole fraction of 4,5,6,7-tetrabromo-1H-benzotriazole [TBBt] (Liquid); method: UV-vis spectrometry
Temperature, K	Mole fraction of 4,5,6,7-tetrabromo-1H-benzotriazole [TBBt]	uncertainty
293.15	5.139e-07	5.139e-07
303.15	8.634e-07	8.634e-07
308.15	1.027e-06	1.027e-06
318.15	1.173e-06	1.173e-06
323.15	1.549e-06	1.549e-06
535.91	1	

System: 4,5,6,7-tetrabromo-1H-benzotriazole [TBBt] + ethanol; phases: Liquid, Crystal
Fixed: Pressure, kPa = 101.3
Property: Mole fraction of 4,5,6,7-tetrabromo-1H-benzotriazole [TBBt] (Liquid); method: Phase equilibration
Temperature, K	Mole fraction of 4,5,6,7-tetrabromo-1H-benzotriazole [TBBt]	uncertainty
296.67	0.00221	0.001
298.18	0.00223	0.001
299.76	0.00232	0.001
303.03	0.00234	0.001
306.8	0.00251	0.001
307.83	0.00258	0.001
310.62	0.00282	0.001
312.3	0.00294	0.001
314.02	0.00312	0.001
315.81	0.00337	0.001
319.35	0.00402	0.001
321.33	0.00436	0.001
326.45	0.00489	0.001
329.21	0.00538	0.001
330.61	0.00583	0.001
333.3	0.00632	0.001
334.33	0.00662	0.001
336.63	0.0073	0.001
339.59	0.00798	0.001
341.42	0.00862	0.001
343.83	0.00924	0.001
349.38	0.01111	0.001
535.91	1	

System: 4,5,6,7-tetrabromo-1H-benzotriazole [TBBt] + octan-1-ol; phases: Liquid, Crystal
Fixed: Pressure, kPa = 101.3
Property: Mole fraction of 4,5,6,7-tetrabromo-1H-benzotriazole [TBBt] (Liquid); method: Phase equilibration
Temperature, K	Mole fraction of 4,5,6,7-tetrabromo-1H-benzotriazole [TBBt]	uncertainty
299.6	0.00243	0.001
302.9	0.00252	0.001
305.65	0.0026	0.001
308.48	0.00274	0.001
311.02	0.00296	0.001
314.8	0.00325	0.001
316.8	0.00353	0.001
319.8	0.00382	0.001
322.06	0.00415	0.001
324.43	0.00464	0.001
326.97	0.00505	0.001
329.13	0.00549	0.001
332.84	0.00606	0.001
333.86	0.00656	0.001
336.45	0.00718	0.001
338.95	0.00771	0.001
342.95	0.0086	0.001
345.55	0.00957	0.001
350.7	0.01087	0.001
358.08	0.01461	0.00101
363.02	0.01693	0.00101
535.91	1	

System: 4,5,6,7-tetrabromo-1H-benzimidazole + water; phases: Liquid, Crystal
Fixed: Pressure, kPa = 101.3
Property: Mole fraction of 4,5,6,7-tetrabromo-1H-benzimidazole (Liquid); method: UV-vis spectrometry
Temperature, K	Mole fraction of 4,5,6,7-tetrabromo-1H-benzimidazole	uncertainty
293.15	6.418e-07	6.418e-07
298.15	1.105e-06	1.105e-06
303.15	1.556e-06	1.556e-06
308.15	2.101e-06	2.101e-06
313.15	2.703e-06	2.703e-06
323.15	2.95e-06	2.95e-06
616.01	1	

System: 4,5,6,7-tetrabromo-1H-benzimidazole + ethanol; phases: Liquid, Crystal
Fixed: Pressure, kPa = 101.3
Property: Mole fraction of 4,5,6,7-tetrabromo-1H-benzimidazole (Liquid); method: Phase equilibration
Temperature, K	Mole fraction of 4,5,6,7-tetrabromo-1H-benzimidazole	uncertainty
298.28	0.00018	0.00018
302.14	0.0002	0.0002
307.87	0.00025	0.00025
309.9	0.00027	0.00027
314.26	0.0003	0.0003
318.26	0.00033	0.00033
320.79	0.00035	0.00035
323.51	0.00037	0.00037
326.04	0.0004	0.0004
327.5	0.00044	0.00044
330.93	0.00046	0.00046
332.83	0.0005	0.0005
335.73	0.00054	0.00054
339.01	0.00058	0.00058
342	0.00064	0.00064
345	0.0007	0.0007
349.04	0.00078	0.00078
352.67	0.00088	0.00088
616.01	1	

System: 4,5,6,7-tetrabromo-1H-benzimidazole + octan-1-ol; phases: Liquid, Crystal
Fixed: Pressure, kPa = 101.3
Property: Mole fraction of 4,5,6,7-tetrabromo-1H-benzimidazole (Liquid); method: Phase equilibration
Temperature, K	Mole fraction of 4,5,6,7-tetrabromo-1H-benzimidazole	uncertainty
299.78	0.00167	0.001
305.27	0.00183	0.001
310.09	0.00196	0.001
314.65	0.00212	0.001
318.78	0.00224	0.001
322.27	0.00238	0.001
326.49	0.00253	0.001
330.78	0.00274	0.001
334.97	0.00294	0.001
338.06	0.00309	0.001
342.26	0.00331	0.001
345.53	0.00347	0.001
347.71	0.00359	0.001
356.48	0.00416	0.001
616.01	1	

System: 4,5,6,7-tetrabromo-2-methyl-1H-benzimidazole + water; phases: Liquid, Crystal
Fixed: Pressure, kPa = 101.3
Property: Mole fraction of 4,5,6,7-tetrabromo-2-methyl-1H-benzimidazole (Liquid); method: UV-vis spectrometry
Temperature, K	Mole fraction of 4,5,6,7-tetrabromo-2-methyl-1H-benzimidazole	uncertainty
298.15	6.264e-07	6.264e-07
303.15	8.649e-07	8.649e-07
313.15	1.062e-06	1.062e-06
598.74	1	

System: 4,5,6,7-tetrabromo-2-methyl-1H-benzimidazole + ethanol; phases: Liquid, Crystal
Fixed: Pressure, kPa = 101.3
Property: Mole fraction of 4,5,6,7-tetrabromo-2-methyl-1H-benzimidazole (Liquid); method: Phase equilibration
Temperature, K	Mole fraction of 4,5,6,7-tetrabromo-2-methyl-1H-benzimidazole	uncertainty
297.91	0.00086	0.00086
306.57	0.00098	0.00098
310.01	0.00102	0.001
318.7	0.00117	0.001
321.76	0.00124	0.001
325.73	0.0013	0.001
329.96	0.00139	0.001
345.63	0.00177	0.001
349.28	0.00194	0.001
598.74	1	

System: 4,5,6,7-tetrabromo-2-methyl-1H-benzimidazole + octan-1-ol; phases: Liquid, Crystal
Fixed: Pressure, kPa = 101.3
Property: Mole fraction of 4,5,6,7-tetrabromo-2-methyl-1H-benzimidazole (Liquid); method: Phase equilibration
Temperature, K	Mole fraction of 4,5,6,7-tetrabromo-2-methyl-1H-benzimidazole	uncertainty
296.07	0.0001	0.0001
307.27	0.00016	0.00016
316.14	0.0002	0.0002
323.37	0.00026	0.00026
327.73	0.00031	0.00031
331.71	0.00035	0.00035
335.9	0.00039	0.00039
340.6	0.00045	0.00045
342.45	0.00047	0.00047
346.77	0.00055	0.00055
359.97	0.00092	0.00092
598.74	1	
