Measured thermophysical data. Vapor-liquid equilibria at 333.15 K and excess molar volumes and deviations in molar refractivity at 298.15 K for mixtures of diisopropyl ether, ethanol and ionic  liquids
Source: Fluid Phase Equilib., 2011, 10.1016/j.fluid.2011.07.005
Compound 1: diisopropyl ether, C6H14O, InChI=1S/C6H14O/c1-5(2)7-6(3)4/h5-6H,1-4H3, purity 99.5%
Compound 2: trihexyl(tetradecyl)phosphonium chloride, C32H68ClP, InChI=1S/C32H68P.ClH/c1-5-9-13-17-18-19-20-21-22-23-24-28-32-33(29-25-14-10-6-2,30-26-15-11-7-3)31-27-16-12-8-4;/h5-32H2,1-4H3;1H/q+1;/p-1, purity 99%
Compound 3: trihexyltetradecylphosphonium bis(2,4,4-trimethylpentyl)phosphinate, C48H102O2P2, InChI=1S/C32H68P.C16H35O2P/c1-5-9-13-17-18-19-20-21-22-23-24-28-32-33(29-25-14-10-6-2,30-26-15-11-7-3)31-27-16-12-8-4;1-13(9-15(3,4)5)11-19(17,18)12-14(2)10-16(6,7)8/h5-32H2,1-4H3;13-14H,9-12H2,1-8H3,(H,17,18)/q+1;/p-1, purity 99%
Compound 4: ethanol, C2H6O, InChI=1S/C2H6O/c1-2-3/h3H,2H2,1H3, purity 99.5%

System: trihexyl(tetradecyl)phosphonium chloride; phases: Liquid
Property: Refractive index (Na D-line) (Liquid); method: Standard Abbe refractometry
Temperature, K	Pressure, kPa	Refractive index (Na D-line)	uncertainty
298.15	101.325	1.48175	0.00039

System: trihexyl(tetradecyl)phosphonium chloride; phases: Liquid
Property: Mass density, kg/m3 (Liquid); method: Vibrating tube method
Temperature, K	Pressure, kPa	Mass density, kg/m3	uncertainty
298.15	101.325	891.82	0.24

System: trihexyltetradecylphosphonium bis(2,4,4-trimethylpentyl)phosphinate; phases: Liquid
Property: Refractive index (Na D-line) (Liquid); method: Standard Abbe refractometry
Temperature, K	Pressure, kPa	Refractive index (Na D-line)	uncertainty
298.15	101.325	1.47125	0.00039

System: trihexyltetradecylphosphonium bis(2,4,4-trimethylpentyl)phosphinate; phases: Liquid
Property: Mass density, kg/m3 (Liquid); method: Vibrating tube method
Temperature, K	Pressure, kPa	Mass density, kg/m3	uncertainty
298.15	101.325	886.43	0.24

System: diisopropyl ether + trihexyl(tetradecyl)phosphonium chloride; phases: Liquid
Fixed: Temperature, K = 298.15
Fixed: Pressure, kPa = 101.3
Property: Refractive index (Na D-line) (Liquid); method: Standard Abbe refractometry
Mole fraction of diisopropyl ether	Refractive index (Na D-line)	uncertainty
0.0515	1.4808	0.0004
0.0994	1.4794	0.0004
0.2017	1.4763	0.0004
0.2989	1.4726	0.0004
0.4018	1.4678	0.0004
0.4997	1.4641	0.0004
0.5994	1.4553	0.0004
0.7017	1.4478	0.0004
0.8004	1.4384	0.0004
0.8993	1.4076	0.0004
0.9491	1.3881	0.0004

System: diisopropyl ether + trihexyl(tetradecyl)phosphonium chloride; phases: Liquid
Fixed: Temperature, K = 298.15
Fixed: Pressure, kPa = 101.3
Property: Mass density, kg/m3 (Liquid); method: Vibrating tube method
Mole fraction of diisopropyl ether	Mass density, kg/m3	uncertainty
0.0515	889.99	0.23
0.0994	888.06	0.22
0.2017	883.38	0.21
0.2989	878.11	0.2
0.4018	871.47	0.19
0.4997	863.46	0.19
0.5994	852.63	0.18
0.7017	836.78	0.18
0.8004	814.03	0.18
0.8993	778.62	0.19
0.9491	752.99	0.21

System: diisopropyl ether + trihexyl(tetradecyl)phosphonium chloride; phases: Liquid
Fixed: Temperature, K = 298.15
Fixed: Pressure, kPa = 101.3
Property: Excess molar volume, m3/mol (Liquid); method: Calculated with densities of this investigation
Mole fraction of diisopropyl ether	Excess molar volume, m3/mol	uncertainty
0.0515	-2.698e-07	8.4e-09
0.0994	-4.723e-07	9.4e-09
0.2017	-9.052e-07	1.28e-08
0.2989	-1.3368e-06	1.67e-08
0.4018	-1.8747e-06	2.18e-08
0.4997	-2.3364e-06	2.63e-08
0.5994	-2.6587e-06	2.95e-08
0.7017	-2.6481e-06	2.94e-08
0.8004	-2.2121e-06	2.51e-08
0.8993	-1.3043e-06	1.65e-08
0.9491	-6.705e-07	1.11e-08

System: ethanol + trihexyl(tetradecyl)phosphonium chloride; phases: Liquid
Fixed: Temperature, K = 298.15
Fixed: Pressure, kPa = 101.3
Property: Refractive index (Na D-line) (Liquid); method: Standard Abbe refractometry
Mole fraction of ethanol	Refractive index (Na D-line)	uncertainty
0.0616	1.4814	0.0004
0.1053	1.4807	0.0004
0.2113	1.4789	0.0004
0.3038	1.4764	0.0004
0.4034	1.4742	0.0004
0.499	1.4709	0.0004
0.6004	1.466	0.0004
0.7038	1.4585	0.0004
0.7993	1.4473	0.0004
0.8999	1.425	0.0004
0.9497	1.4058	0.0004
0.9808	1.3801	0.0004

System: ethanol + trihexyl(tetradecyl)phosphonium chloride; phases: Liquid
Fixed: Temperature, K = 298.15
Fixed: Pressure, kPa = 101.3
Property: Mass density, kg/m3 (Liquid); method: Vibrating tube method
Mole fraction of ethanol	Mass density, kg/m3	uncertainty
0.0616	891.17	0.23
0.1053	890.69	0.22
0.2113	889.27	0.21
0.3038	887.74	0.2
0.4034	885.65	0.19
0.499	882.9	0.18
0.6004	878.9	0.18
0.7038	872.77	0.17
0.7993	863.65	0.17
0.8999	845.08	0.17
0.9497	826.4	0.19
0.9808	805.94	0.21

System: ethanol + trihexyl(tetradecyl)phosphonium chloride; phases: Liquid
Fixed: Temperature, K = 298.15
Fixed: Pressure, kPa = 101.3
Property: Excess molar volume, m3/mol (Liquid); method: Calculated with densities of this investigation
Mole fraction of ethanol	Excess molar volume, m3/mol	uncertainty
0.0616	-3.55e-08	7.8e-09
0.1053	-6.96e-08	7.9e-09
0.2113	-1.23e-07	8e-09
0.3038	-1.927e-07	8.2e-09
0.4034	-2.61e-07	8.4e-09
0.499	-2.919e-07	8.4e-09
0.6004	-3.171e-07	8.5e-09
0.7038	-3.718e-07	8.7e-09
0.7993	-4.453e-07	9.2e-09
0.8999	-5.203e-07	9.7e-09
0.9497	-4.467e-07	9.2e-09
0.9808	-2.85e-07	8.5e-09

System: ethanol + diisopropyl ether + trihexyl(tetradecyl)phosphonium chloride; phases: Gas, Liquid
Fixed: Temperature, K = 333.15
Property: Mole fraction of ethanol (Gas); method: Chromatography
Property: Mole fraction of trihexyl(tetradecyl)phosphonium chloride (Liquid); method: Chromatography
Property: Mole fraction of diisopropyl ether (Liquid); method: Chromatography
Pressure, kPa	Mole fraction of diisopropyl ether	Mole fraction of ethanol	uncertainty	Mole fraction of trihexyl(tetradecyl)phosphonium chloride	uncertainty	Mole fraction of diisopropyl ether	uncertainty
43.94	0.0424	0.9576	0.0005	0.0502	0.0004	0.009308	
50.21	0.1897	0.8103	0.0021	0.0501	0.0004	0.054524	
54.54	0.2907	0.7093	0.0031	0.0502	0.0004	0.099254	
57.76	0.369	0.631	0.0039	0.0504	0.0004	0.144814	
60.28	0.4308	0.5692	0.0044	0.0501	0.0004	0.190265	
62.2	0.4787	0.5213	0.0049	0.0504	0.0004	0.234646	
63.87	0.5011	0.4989	0.005	0.0501	0.0004	0.280031	
65.28	0.5382	0.4618	0.0046	0.0497	0.0004	0.325763	
66.37	0.5753	0.4247	0.0042	0.0504	0.0004	0.370059	
67.37	0.6085	0.3915	0.0038	0.0502	0.0004	0.413923	
68.26	0.6194	0.3806	0.0037	0.0504	0.0004	0.460556	
69.03	0.6481	0.3519	0.0034	0.0503	0.0004	0.503911	
69.77	0.6826	0.3174	0.0031	0.05	0.0004	0.55119	
70.39	0.7105	0.2895	0.0028	0.0496	0.0004	0.59495	
70.89	0.739	0.261	0.0025	0.0501	0.0004	0.640138	
71.39	0.7793	0.2207	0.0021	0.05	0.0004	0.686565	
71.76	0.8039	0.1961	0.0018	0.0504	0.0004	0.730622	
72.13	0.8557	0.1443	0.0014	0.0504	0.0004	0.774209	
72.49	0.9005	0.0995	0.0009	0.0499	0.0004	0.821171	
72.77	0.9411	0.0589	0.0006	0.0498	0.0004	0.866012	
72.97	0.977	0.023	0.0003	0.0503	0.0004	0.910952	
38.12	0.0525	0.9475	0.0006	0.0999	0.0008	0.010261	
43.47	0.2068	0.7932	0.0023	0.0999	0.0008	0.051216	
47.68	0.3186	0.6814	0.0034	0.1005	0.0008	0.093638	
51.05	0.378	0.622	0.004	0.1003	0.0008	0.135495	
53.94	0.4191	0.5809	0.0043	0.0998	0.0008	0.17932	
56.05	0.4847	0.5153	0.0049	0.1003	0.0008	0.219977	
57.96	0.5355	0.4645	0.0046	0.0996	0.0008	0.261116	
59.57	0.5653	0.4347	0.0043	0.1	0.0008	0.30447	
60.87	0.6168	0.3832	0.0037	0.1002	0.0008	0.344803	
62.09	0.6493	0.3507	0.0034	0.1001	0.0008	0.388217	
63.14	0.6851	0.3149	0.003	0.1	0.0008	0.4302	
64.03	0.7148	0.2852	0.0027	0.0998	0.0008	0.470535	
64.82	0.7518	0.2482	0.0024	0.1003	0.0008	0.514898	
65.5	0.782	0.218	0.0021	0.1003	0.0008	0.554845	
66.21	0.8105	0.1895	0.0018	0.0994	0.0008	0.597188	
66.73	0.8388	0.1612	0.0015	0.1003	0.0008	0.641756	
67.24	0.8614	0.1386	0.0013	0.0997	0.0008	0.680267	
67.65	0.8997	0.1003	0.0009	0.1003	0.0008	0.723269	
68.04	0.9283	0.0717	0.0007	0.1003	0.0008	0.765105	
68.38	0.9456	0.0544	0.0005	0.1003	0.0008	0.807571	
68.72	0.9724	0.0276	0.0003	0.1002	0.0008	0.850041	

System: ethanol + diisopropyl ether + trihexyltetradecylphosphonium bis(2,4,4-trimethylpentyl)phosphinate; phases: Gas, Liquid
Fixed: Temperature, K = 333.15
Property: Mole fraction of ethanol (Gas); method: Chromatography
Property: Mole fraction of trihexyltetradecylphosphonium bis(2,4,4-trimethylpentyl)phosphinate (Liquid); method: Chromatography
Property: Mole fraction of diisopropyl ether (Liquid); method: Chromatography
Pressure, kPa	Mole fraction of diisopropyl ether	Mole fraction of ethanol	uncertainty	Mole fraction of trihexyltetradecylphosphonium bis(2,4,4-trimethylpentyl)phosphinate	uncertainty	Mole fraction of diisopropyl ether	uncertainty
45.04	0.0377	0.9623	0.0005	0.0501	0.0004	0.009689	
49.38	0.1488	0.8512	0.0017	0.0503	0.0004	0.048055	
52.37	0.2365	0.7635	0.0026	0.0499	0.0004	0.086839	
54.43	0.292	0.708	0.0032	0.0502	0.0004	0.123854	
56.19	0.3387	0.6613	0.0036	0.0503	0.0004	0.162874	
57.63	0.3831	0.6169	0.004	0.0499	0.0004	0.199996	
58.86	0.4171	0.5829	0.0043	0.0498	0.0004	0.237455	
59.94	0.4668	0.5332	0.0047	0.0502	0.0004	0.275442	
61	0.4974	0.5026	0.005	0.0497	0.0004	0.313884	
61.95	0.527	0.473	0.0047	0.0501	0.0004	0.352603	
62.81	0.5473	0.4527	0.0045	0.0503	0.0004	0.389947	
63.68	0.5808	0.4192	0.0041	0.05	0.0004	0.428545	
64.47	0.6019	0.3981	0.0039	0.0502	0.0004	0.465592	
65.25	0.625	0.375	0.0037	0.0503	0.0004	0.503721	
66.04	0.6549	0.3451	0.0033	0.0499	0.0004	0.541557	
66.78	0.6915	0.3085	0.003	0.0502	0.0004	0.579473	
67.55	0.7161	0.2839	0.0027	0.0501	0.0004	0.618765	
68.29	0.7491	0.2509	0.0024	0.0499	0.0004	0.656899	
68.95	0.7789	0.2211	0.0021	0.0498	0.0004	0.691366	
69.71	0.8193	0.1807	0.0017	0.0501	0.0004	0.732563	
70.42	0.8646	0.1354	0.0013	0.0501	0.0004	0.770179	
71.21	0.8861	0.1139	0.0011	0.05	0.0004	0.812345	
72.18	0.9356	0.0644	0.0006	0.0501	0.0004	0.864789	
73.03	0.9761	0.0239	0.0003	0.0499	0.0004	0.910576	
73.61	0.9967	0.0033	0.0002	0.0499	0.0004	0.941644	
42.29	0.0898	0.9102	0.001	0.0996	0.0008	0.02206	
45.01	0.1592	0.8408	0.0018	0.1002	0.0008	0.048319	
48.14	0.2388	0.7612	0.0026	0.1003	0.0008	0.085382	
52.78	0.3743	0.6257	0.0039	0.0998	0.0008	0.161586	
54.53	0.4345	0.5655	0.0045	0.0998	0.0008	0.200114	
56.05	0.4904	0.5096	0.005	0.1001	0.0008	0.239283	
57.25	0.5111	0.4889	0.0049	0.1004	0.0008	0.274918	
58.52	0.5528	0.4472	0.0044	0.1	0.0008	0.31473	
59.57	0.5944	0.4056	0.004	0.1	0.0008	0.35163	
60.62	0.6357	0.3643	0.0035	0.1	0.0008	0.39159	
61.49	0.6752	0.3248	0.0031	0.1004	0.0008	0.4274	
62.36	0.7085	0.2915	0.0028	0.0998	0.0008	0.464053	
63.19	0.7413	0.2587	0.0025	0.1004	0.0008	0.503866	
63.99	0.759	0.241	0.0023	0.0997	0.0008	0.536399	
64.82	0.7955	0.2045	0.0019	0.0996	0.0008	0.578507	
65.57	0.8201	0.1799	0.0017	0.1004	0.0008	0.617306	
66.31	0.8512	0.1488	0.0014	0.1001	0.0008	0.654857	
67.03	0.8844	0.1156	0.0011	0.1003	0.0008	0.695468	
67.82	0.9149	0.0851	0.0008	0.0996	0.0008	0.733736	
68.42	0.9307	0.0693	0.0006	0.1003	0.0008	0.768254	
69.15	0.9541	0.0459	0.0004	0.1001	0.0008	0.80676	
70.04	0.9835	0.0165	0.0003	0.1004	0.0008	0.857049	
70.56	0.9952	0.0048	0.0002	0.0999	0.0008	0.884978	
