Measured thermophysical data. Thermodynamic study of alkane-alpha,omega-diamines - Evidence of odd-even pattern of sublimation properties
Source: Fluid Phase Equilib., 2014, 10.1016/j.fluid.2014.03.013
Compound 1: 1,3-propanediamine, C3H10N2, InChI=1S/C3H10N2/c4-2-1-3-5/h1-5H2, purity 99.9%
Compound 2: 1,4-butanediamine, C4H12N2, InChI=1S/C4H12N2/c5-3-1-2-4-6/h1-6H2, purity 99.9%
Compound 3: 1,5-diaminopentane, C5H14N2, InChI=1S/C5H14N2/c6-4-2-1-3-5-7/h1-7H2, purity 99.74%
Compound 4: 1,6-hexanediamine, C6H16N2, InChI=1S/C6H16N2/c7-5-3-1-2-4-6-8/h1-8H2, purity 99.7%
Compound 5: 1,7-diaminoheptane, C7H18N2, InChI=1S/C7H18N2/c8-6-4-2-1-3-5-7-9/h1-9H2, purity 99.64%
Compound 6: 1,8-diaminooctane, C8H20N2, InChI=1S/C8H20N2/c9-7-5-3-1-2-4-6-8-10/h1-10H2, purity 99.45%

System: 1,3-propanediamine; phases: Crystal 2, Gas
Property: Vapor or sublimation pressure, kPa (Crystal 2); method: Closed cell (Static) method
Temperature, K	Vapor or sublimation pressure, kPa	uncertainty
233.15	0.00041	8e-05
233.15	0.00041	8e-05
238.12	0.00095	9e-05
238.12	0.00095	9e-05
238.12	0.00095	9e-05
243.15	0.00211	0.00012
243.15	0.00211	0.00012
243.15	0.00211	0.00012
255.66	0.01476	0.00054
255.66	0.01473	0.00054
255.66	0.01469	0.00054

System: 1,3-propanediamine; phases: Crystal 1, Gas
Property: Vapor or sublimation pressure, kPa (Crystal 1); method: Closed cell (Static) method
Temperature, K	Vapor or sublimation pressure, kPa	uncertainty
233.15	0.00079	9e-05
248.17	0.00622	0.00026
253.16	0.01145	0.00046
255.66	0.01527	0.00055
258.16	0.02052	0.00063

System: 1,3-propanediamine; phases: Liquid, Gas
Property: Vapor or sublimation pressure, kPa (Liquid); method: Closed cell (Static) method
Temperature, K	Vapor or sublimation pressure, kPa	uncertainty
243.17	0.00448	0.0002
243.17	0.00449	0.0002
243.17	0.00447	0.0002
248.17	0.00782	0.00032
248.17	0.00781	0.00032
248.17	0.00781	0.00032
253.16	0.01319	0.00052
253.16	0.01318	0.00052
253.16	0.01319	0.00052
258.16	0.02184	0.00065
258.16	0.02184	0.00065
258.16	0.02185	0.00065
261.16	0.02913	0.00077
261.16	0.02914	0.00077
261.16	0.02914	0.00077
263.15	0.03517	0.00086
263.15	0.0352	0.00086
263.15	0.03521	0.00086
265.65	0.04422	0.001
265.65	0.04423	0.001
265.65	0.04421	0.001
268.15	0.05544	0.00118
268.15	0.05544	0.00118
268.15	0.05546	0.00118
270.65	0.06897	0.00139
270.65	0.06898	0.00139
270.65	0.06897	0.00139
273.15	0.08546	0.00165
273.15	0.08557	0.00166
273.15	0.08558	0.00166
273.15	0.08562	0.00166
275.65	0.10522	0.00197
275.65	0.10521	0.00197
275.65	0.10521	0.00197
278.15	0.12928	0.00234
278.15	0.12929	0.00234
278.15	0.12931	0.00234
278.83	0.13651	0.00212
278.83	0.13651	0.00212
278.83	0.13652	0.00212
280.65	0.1576	0.00229
280.65	0.15762	0.00229
280.65	0.15761	0.00229
283.15	0.19186	0.00256
283.15	0.1919	0.00256
283.15	0.19187	0.00256
285.65	0.23172	0.00289
285.65	0.23178	0.00289
285.65	0.23182	0.00289
288.15	0.27964	0.00328
288.15	0.27965	0.00328
288.15	0.27964	0.00328
290.65	0.33548	0.00374
290.65	0.33513	0.00373
290.65	0.33556	0.00374
293.15	0.40095	0.00427
293.15	0.40111	0.00427
293.15	0.40132	0.00427
295.65	0.47791	0.00489
295.65	0.47769	0.00489
295.65	0.47764	0.00489
298.15	0.56589	0.0056
298.15	0.56508	0.00559
298.15	0.56561	0.0056
300.66	0.66632	0.00637
300.66	0.66602	0.00637
300.66	0.66732	0.00639

System: 1,4-butanediamine; phases: Crystal, Gas
Property: Vapor or sublimation pressure, kPa (Crystal); method: Closed cell (Static) method
Temperature, K	Vapor or sublimation pressure, kPa	uncertainty
255.65	0.0005	9e-05
255.65	0.0005	9e-05
255.65	0.0005	9e-05
258.15	0.00077	9e-05
258.15	0.00077	9e-05
258.15	0.00077	9e-05
260.65	0.00115	0.0001
260.65	0.00116	0.0001
260.65	0.00114	0.0001
263.15	0.00168	0.00011
263.15	0.00169	0.00011
263.15	0.00169	0.00011
265.65	0.00238	0.00013
265.65	0.00237	0.00013
265.65	0.00235	0.00013
268.15	0.00348	0.00017
268.15	0.00349	0.00017
268.15	0.00349	0.00017
270.65	0.0048	0.00021
270.65	0.00478	0.00021
270.65	0.00477	0.00021
273.15	0.00685	0.00029
273.15	0.00684	0.00029
273.15	0.00683	0.00029
275.65	0.00972	0.0004
275.65	0.00975	0.0004
275.65	0.00976	0.0004
278.15	0.01378	0.00053
278.15	0.01379	0.00053
278.15	0.01363	0.00053
280.65	0.019	0.00061
280.65	0.01901	0.00061
280.65	0.01902	0.00061
283.15	0.02624	0.00073
283.15	0.02631	0.00074
283.15	0.02623	0.00073
288.15	0.05024	0.00111
288.15	0.05021	0.00111
288.15	0.05011	0.00111
290.65	0.06909	0.00142
290.65	0.06907	0.00142
293.15	0.09444	0.00183
293.15	0.09443	0.00183
293.15	0.09431	0.00183
295.65	0.12789	0.00237
295.65	0.12783	0.00237
295.65	0.12786	0.00237
298.15	0.17279	0.00246
298.15	0.17281	0.00246
298.15	0.17287	0.00246

System: 1,4-butanediamine; phases: Liquid, Gas
Property: Vapor or sublimation pressure, kPa (Liquid); method: Closed cell (Static) method
Temperature, K	Vapor or sublimation pressure, kPa	uncertainty
283.15	0.05811	0.00123
283.15	0.0581	0.00123
283.15	0.05811	0.00123
288.15	0.08786	0.00169
288.15	0.08786	0.00169
288.15	0.08787	0.00169
293.15	0.13069	0.00206
293.15	0.13057	0.00206
293.15	0.13053	0.00206
298.15	0.19067	0.00254
298.15	0.1908	0.00254
298.16	0.19077	0.00254
300.65	0.22921	0.00286
300.65	0.22901	0.00286
300.65	0.22929	0.00286
303.13	0.27399	0.00324
303.13	0.27411	0.00325
303.14	0.27423	0.00325
308.15	0.38733	0.00412
308.16	0.38786	0.00413
308.16	0.38785	0.00413
310.17	0.44495	0.0046
310.17	0.44398	0.00459

System: 1,5-diaminopentane; phases: Crystal, Gas
Property: Vapor or sublimation pressure, kPa (Crystal); method: Closed cell (Static) method
Temperature, K	Vapor or sublimation pressure, kPa	uncertainty
273.68	0.0039	0.00018
273.68	0.00389	0.00018
273.68	0.00388	0.00018
275.99	0.00553	0.00024
275.99	0.00552	0.00024
275.99	0.00548	0.00024
278.48	0.0079	0.00033
278.48	0.00793	0.00033
278.48	0.00784	0.00032
280.99	0.0112	0.00045
280.99	0.01121	0.00045
280.99	0.01123	0.00045
282.49	0.01383	0.00053
282.49	0.01377	0.00053
282.49	0.01369	0.00053
283.49	0.016	0.00056
283.49	0.01602	0.00056
283.49	0.01596	0.00056
284.49	0.01807	0.0006
284.49	0.01813	0.0006
284.49	0.01814	0.0006
285.49	0.02075	0.00064
285.49	0.02072	0.00064
285.49	0.02068	0.00064
286.49	0.0236	0.00068
286.49	0.0236	0.00068
286.49	0.0236	0.00068

System: 1,5-diaminopentane; phases: Liquid, Gas
Property: Vapor or sublimation pressure, kPa (Liquid); method: Closed cell (Static) method
Temperature, K	Vapor or sublimation pressure, kPa	uncertainty
287.49	0.02865	0.00076
287.49	0.02866	0.00076
287.49	0.02867	0.00076
290.99	0.03891	0.00092
290.99	0.03891	0.00092
290.99	0.03891	0.00092
293.49	0.04811	0.00106
293.49	0.04811	0.00106
293.49	0.04809	0.00106
295.99	0.05894	0.00123
295.99	0.05889	0.00123
295.99	0.05888	0.00123
298.49	0.0716	0.00143
298.49	0.0716	0.00143
298.49	0.07163	0.00143
300.99	0.08749	0.00168
300.99	0.08747	0.00168
300.99	0.08743	0.00168
303.5	0.10559	0.00197
303.5	0.10557	0.00197
303.5	0.10557	0.00197
306	0.1278	0.00232
306	0.1278	0.00232
306	0.1278	0.00232
311.01	0.18383	0.00247
311.01	0.18382	0.00247
311.01	0.1839	0.00248

System: 1,6-hexanediamine; phases: Crystal, Gas
Property: Vapor or sublimation pressure, kPa (Crystal); method: Closed cell (Static) method
Temperature, K	Vapor or sublimation pressure, kPa	uncertainty
278.49	0.00052	0.0001
278.49	0.00055	0.0001
278.49	0.00054	0.0001
283.49	0.00122	0.00011
283.49	0.00122	0.00011
283.49	0.00122	0.00011
288.49	0.00261	0.00014
288.49	0.00261	0.00014
288.49	0.00261	0.00014
290.99	0.0037	0.00018
290.99	0.0037	0.00018
290.99	0.00376	0.00018
293.49	0.00546	0.00024
293.49	0.00547	0.00024
293.49	0.00548	0.00024
295.99	0.00785	0.00033
295.99	0.00785	0.00033
295.99	0.00787	0.00033
298.49	0.01119	0.00045
298.49	0.01118	0.00045
298.49	0.01118	0.00045
300.99	0.01585	0.00056
300.99	0.01582	0.00056
300.99	0.01577	0.00056
303.5	0.02242	0.00067
303.5	0.02238	0.00067
303.5	0.02236	0.00067
306	0.03139	0.00081
306	0.03139	0.00081
308.5	0.04372	0.00102
308.5	0.0437	0.00102
308.5	0.04369	0.00102
313.51	0.08338	0.00163
313.51	0.08334	0.00163

System: 1,7-diaminoheptane; phases: Crystal, Gas
Property: Vapor or sublimation pressure, kPa (Crystal); method: Closed cell (Static) method
Temperature, K	Vapor or sublimation pressure, kPa	uncertainty
273.48	0.00022	9e-05
273.48	0.00022	9e-05
273.48	0.00022	9e-05
278.48	0.00043	0.0001
278.48	0.00043	0.0001
278.48	0.00043	0.0001
283.49	0.00087	0.0001
283.49	0.00087	0.0001
283.49	0.00086	0.0001
288.49	0.00179	0.00012
288.49	0.00179	0.00012
288.49	0.00178	0.00012
290.99	0.00261	0.00014
290.99	0.00262	0.00014
290.99	0.00261	0.00014
293.49	0.00381	0.00018
293.49	0.00382	0.00018
293.49	0.00382	0.00018
293.49	0.00381	0.00018
295.99	0.00549	0.00024
295.99	0.00548	0.00024
295.99	0.00548	0.00024
298.49	0.00785	0.00033
298.49	0.00786	0.00033
298.49	0.00787	0.00033

System: 1,7-diaminoheptane; phases: Liquid, Gas
Property: Vapor or sublimation pressure, kPa (Liquid); method: Closed cell (Static) method
Temperature, K	Vapor or sublimation pressure, kPa	uncertainty
300.99	0.01125	0.00045
300.99	0.01126	0.00045
300.99	0.01125	0.00045
303.49	0.01395	0.00053
303.49	0.01396	0.00053
303.49	0.01398	0.00053
306	0.01741	0.00058
306	0.0174	0.00058
306	0.0174	0.00058
308.5	0.02153	0.00065
308.5	0.02153	0.00065
308.5	0.02153	0.00065
309.5	0.02317	0.00067
309.5	0.02319	0.00067
309.5	0.02317	0.00067
310.5	0.02527	0.00071
310.5	0.02513	0.0007
310.5	0.02525	0.0007
311.5	0.02686	0.00073
311.5	0.02681	0.00073
313.51	0.03172	0.00081
313.51	0.03179	0.00081
313.51	0.0317	0.00081

System: 1,8-diaminooctane; phases: Crystal, Gas
Property: Vapor or sublimation pressure, kPa (Crystal); method: Closed cell (Static) method
Temperature, K	Vapor or sublimation pressure, kPa	uncertainty
288.49	0.00015	0.0001
288.49	0.00015	0.0001
288.49	0.00015	0.0001
290.99	0.00022	0.0001
290.99	0.00022	0.0001
290.99	0.00022	0.0001
293.49	0.00032	0.0001
293.49	0.00032	0.0001
293.49	0.00032	0.0001
295.99	0.00046	0.0001
295.99	0.00046	0.0001
295.99	0.00046	0.0001
298.49	0.00068	0.0001
298.49	0.00068	0.0001
298.49	0.00068	0.0001
300.99	0.00096	0.00011
300.99	0.00096	0.00011
300.99	0.00096	0.00011
303.49	0.0014	0.00012
303.49	0.00141	0.00012
303.49	0.0014	0.00012
306	0.00203	0.00013
306	0.00203	0.00013
306	0.00204	0.00013
308.5	0.00298	0.00016
308.5	0.00298	0.00016
308.5	0.00298	0.00016
311.01	0.00434	0.0002
311.01	0.00432	0.0002
311.01	0.00429	0.0002
313.51	0.00627	0.00027
313.51	0.0062	0.00027
313.51	0.00625	0.00027
