Measured thermophysical data. Apparent molal volumes of the solutions of CaCl2 and Ca(NO3)2 in ethanol at 298.15: experimental data and correlation by local composition models
Source: Fluid Phase Equilib., 2005, 10.1016/j.fluid.2005.01.004
Compound 1: ethanol, C2H6O, InChI=1S/C2H6O/c1-2-3/h3H,2H2,1H3
Compound 2: calcium chloride, CaCl2, InChI=1S/Ca.2ClH/h;2*1H/q+2;;/p-2
Compound 3: calcium nitrate, CaN2O6, InChI=1S/Ca.2NO3/c;2*2-1(3)4/q+2;2*-1

System: ethanol + calcium chloride; phases: Liquid
Fixed: Temperature, K = 298.15
Fixed: Pressure, kPa = 101.325
Property: Mass density, kg/m3 (Liquid); method: VIBTUB:UFactor:4
Molality, mol/kg of calcium chloride	Mass density, kg/m3	uncertainty
0.0015	785.21	0.61
0.0057	785.56	0.61
0.0085	785.79	0.61
0.014	786.25	0.6
0.0192	786.7	0.6
0.0255	787.22	0.6
0.0318	787.72	0.6
0.0403	788.41	0.6
0.0515	789.27	0.6
0.0704	790.79	0.6
0.0924	792.55	0.59
0.1175	794.55	0.59
0.1511	797.21	0.58
0.1903	800.3	0.58
0.2972	808.68	0.56
0.3998	816.65	0.54
0.5108	825.21	0.53
0.7156	840.83	0.5
0.9253	856.62	0.47
1.2085	877.64	0.43
1.5733	904.23	0.38
1.8119	921.34	0.35
2.1347	944.12	0.31
2.4106	963.29	0.28
2.736	985.53	0.25
2.9458	999.64	0.23
3.3716	1027.77	0.27

System: ethanol + calcium nitrate; phases: Liquid
Fixed: Temperature, K = 298.15
Fixed: Pressure, kPa = 101.325
Property: Mass density, kg/m3 (Liquid); method: VIBTUB:UFactor:4
Molality, mol/kg of calcium nitrate	Mass density, kg/m3	uncertainty
0.0013	785.23	0.61
0.0061	785.77	0.61
0.0072	785.88	0.61
0.013	786.52	0.61
0.0185	787.13	0.61
0.0251	787.84	0.61
0.0319	788.57	0.6
0.042	789.66	0.6
0.0508	790.61	0.6
0.0711	792.72	0.59
0.0902	794.68	0.59
0.1162	797.43	0.59
0.1519	801.12	0.58
0.1913	805.14	0.57
0.2857	814.63	0.55
0.3897	824.87	0.53
0.5005	835.55	0.51
0.6849	852.86	0.48
0.8937	871.84	0.44
1.1129	891.06	0.41
1.4777	921.51	0.35
1.8524	950.85	0.3
2.2013	976.44	0.26
2.5684	1001.6	0.2
2.8351	1018.78	0.26
2.9598	1026.49	0.28
3.2501	1043.71	0.31
