Measured thermophysical data. Thermodynamics of fenofibrate and solubility in pure organic solvents
Source: Fluid Phase Equilib., 2014, 10.1016/j.fluid.2014.01.029
Compound 1: fenofibrate, C20H21ClO4, InChI=1S/C20H21ClO4/c1-13(2)24-19(23)20(3,4)25-17-11-7-15(8-12-17)18(22)14-5-9-16(21)10-6-14/h5-13H,1-4H3, purity 99.7%
Compound 2: methanol, CH4O, InChI=1S/CH4O/c1-2/h2H,1H3, purity 99.7%
Compound 3: ethanol, C2H6O, InChI=1S/C2H6O/c1-2-3/h3H,2H2,1H3, purity 99.7%
Compound 4: propan-1-ol, C3H8O, InChI=1S/C3H8O/c1-2-3-4/h4H,2-3H2,1H3, purity 99.7%
Compound 5: propan-2-ol, C3H8O, InChI=1S/C3H8O/c1-3(2)4/h3-4H,1-2H3, purity 99.7%
Compound 6: ethyl acetate, C4H8O2, InChI=1S/C4H8O2/c1-3-6-4(2)5/h3H2,1-2H3, purity 99.7%
Compound 7: acetonitrile, C2H3N, InChI=1S/C2H3N/c1-2-3/h1H3, purity 99.7%
Compound 8: acetone, C3H6O, InChI=1S/C3H6O/c1-3(2)4/h1-2H3, purity 99.7%

System: fenofibrate; phases: Crystal, Liquid, Air at 1 atmosphere
Property: Normal melting temperature, K (Crystal); method: DTA
Normal melting temperature, K	uncertainty
352.05	0.39

System: fenofibrate; phases: Crystal, Liquid, Air at 1 atmosphere
Property: Molar enthalpy of transition or fusion, kJ/mol (Crystal); method: DSC
Molar enthalpy of transition or fusion, kJ/mol	uncertainty
33.53	0.77

System: fenofibrate; phases: Crystal
Fixed: Pressure, kPa = 101.325
Property: Molar heat capacity at constant pressure, J/K/mol (Crystal); method: Small sample (50 mg) DSC
Temperature, K	Molar heat capacity at constant pressure, J/K/mol	uncertainty
260	396	15
265	403	15
270	411	14
275	417	13
280	422	12
285	428	12
290	433	11
294.9	439	10
299.9	444	9
304.9	450	8
309.9	456	9
314.9	463	8
320	472	8
325	480	8
330	489	8
335	498	8

System: fenofibrate; phases: Liquid
Fixed: Pressure, kPa = 101.325
Property: Molar heat capacity at constant pressure, J/K/mol (Liquid); method: Small sample (50 mg) DSC
Temperature, K	Molar heat capacity at constant pressure, J/K/mol	uncertainty
355	641	11
360	645	11
364.9	648	11
370	652	11
375	655	11
380	659	11
385.1	661	11
390	664	11
395	667	11

System: fenofibrate; phases: Liquid
Fixed: Pressure, kPa = 101.325
Property: Molar heat capacity at constant pressure, J/K/mol (Liquid); method: Small sample (50 mg) DSC
Temperature, K	Molar heat capacity at constant pressure, J/K/mol	uncertainty
305.1	602	12
310	604	11
315	608	11
320	612	12
325	616	11
330	620	11
335	625	11
340	629	11
345.1	634	11
350	637	11

System: methanol + fenofibrate; phases: Liquid, Crystal
Fixed: Pressure, kPa = 101
Property: Mass ratio of solute to solvent of fenofibrate (Liquid); method: evaporation followed by mass calculation
Temperature, K	Mass ratio of solute to solvent of fenofibrate	uncertainty
288.15	0.0511	0.0012
293.15	0.0588	0.0005
303.15	0.1107	0.00074
313.15	0.2508	0.0019
318.15	0.448	0.019

System: ethanol + fenofibrate; phases: Liquid, Crystal
Fixed: Pressure, kPa = 101
Property: Mass ratio of solute to solvent of fenofibrate (Liquid); method: evaporation followed by mass calculation
Temperature, K	Mass ratio of solute to solvent of fenofibrate	uncertainty
288.15	0.0465	0.0006
293.15	0.05529	0.00033
303.15	0.10733	0.00073
313.15	0.242	0.004
318.15	0.4208	0.0033

System: propan-1-ol + fenofibrate; phases: Liquid, Crystal
Fixed: Pressure, kPa = 101
Property: Mass ratio of solute to solvent of fenofibrate (Liquid); method: evaporation followed by mass calculation
Temperature, K	Mass ratio of solute to solvent of fenofibrate	uncertainty
288.15	0.04789	0.00021
293.15	0.0569	0.0008
303.15	0.11483	0.00082
313.15	0.272	0.004
318.15	0.475	0.012

System: propan-2-ol + fenofibrate; phases: Liquid, Crystal
Fixed: Pressure, kPa = 101
Property: Mass ratio of solute to solvent of fenofibrate (Liquid); method: evaporation followed by mass calculation
Temperature, K	Mass ratio of solute to solvent of fenofibrate	uncertainty
278.15	0.0144	0.0003
283.15	0.0195	0.0007
288.15	0.026	0.005
293.15	0.03739	0.00022
298.15	0.0539	0.0005
303.15	0.0794	0.0016

System: ethyl acetate + fenofibrate; phases: Liquid, Crystal
Fixed: Pressure, kPa = 101
Property: Mass ratio of solute to solvent of fenofibrate (Liquid); method: evaporation followed by mass calculation
Temperature, K	Mass ratio of solute to solvent of fenofibrate	uncertainty
288.15	0.5596	0.0028
293.15	0.69	0.024
303.15	1.087	0.005
313.15	1.7257	0.0064
318.15	2.129	0.074

System: acetonitrile + fenofibrate; phases: Liquid, Crystal
Fixed: Pressure, kPa = 101
Property: Mass ratio of solute to solvent of fenofibrate (Liquid); method: evaporation followed by mass calculation
Temperature, K	Mass ratio of solute to solvent of fenofibrate	uncertainty
288.15	0.3092	0.00132
293.15	0.3865	0.0033
303.15	0.928	0.01
313.15	2.375	0.038
318.15	3.3851	0.0165

System: acetone + fenofibrate; phases: Liquid, Crystal
Fixed: Pressure, kPa = 101
Property: Mass ratio of solute to solvent of fenofibrate (Liquid); method: evaporation followed by mass calculation
Temperature, K	Mass ratio of solute to solvent of fenofibrate	uncertainty
278.15	0.4178	0.0023
283.15	0.526	0.009
288.15	0.689	0.036
293.15	0.8773	0.0042
298.15	1.158	0.076
