Measured thermophysical data. Extraction of phenolic compounds from aqueous solution using choline bis(trifluoromethylsulfonyl)imide
Source: Fluid Phase Equilib., 2017, 10.1016/j.fluid.2017.04.022
Compound 1: phenol, C6H6O, InChI=1S/C6H6O/c7-6-4-2-1-3-5-6/h1-5,7H, purity 99.5%
Compound 2: 2-methoxyphenol, C7H8O2, InChI=1S/C7H8O2/c1-9-7-5-3-2-4-6(7)8/h2-5,8H,1H3, purity 99%
Compound 3: 1,3-dimethoxy-2-hydroxybenzene, C8H10O3, InChI=1S/C8H10O3/c1-10-6-4-3-5-7(11-2)8(6)9/h3-5,9H,1-2H3, purity 99%
Compound 4: 1,2-benzenediol, C6H6O2, InChI=1S/C6H6O2/c7-5-3-1-2-4-6(5)8/h1-4,7-8H, purity 99%
Compound 5: choline bis(trifluoromethylsulfonyl)imide, C7H14F6N2O5S2, InChI=1S/C5H14NO.C2F6NO4S2/c1-6(2,3)4-5-7;3-1(4,5)14(10,11)9-15(12,13)2(6,7)8/h7H,4-5H2,1-3H3;/q+1;-1, purity 99%
Compound 6: water, H2O, InChI=1S/H2O/h1H2, purity 99.8%

System: phenol + water + choline bis(trifluoromethylsulfonyl)imide; phases: Liquid, Crystal
Fixed: Temperature, K = 298.15
Fixed: Pressure, kPa = 101
Property: Mole fraction of choline bis(trifluoromethylsulfonyl)imide (Liquid); method: Chromatography
Mole fraction of phenol	Mole fraction of choline bis(trifluoromethylsulfonyl)imide	uncertainty
0.774	0.226	0.01
0.776	0.194	0.01
0.771	0.17	0.01
0.762	0.14	0.01
0.764	0.096	0.01
0.763	0.06	0.01
0.779	0.024	0.01
0.786	0.007	0.007
0.803	0	

System: 2-methoxyphenol + water + choline bis(trifluoromethylsulfonyl)imide; phases: Liquid mixture 2, Liquid mixture 1
Fixed: Temperature, K = 298.15
Fixed: Pressure, kPa = 101
Property: Mole fraction of choline bis(trifluoromethylsulfonyl)imide (Liquid mixture 2); method: Chromatography
Property: Mole fraction of choline bis(trifluoromethylsulfonyl)imide (Liquid mixture 1); method: Chromatography
Property: Mole fraction of 2-methoxyphenol (Liquid mixture 1); method: Chromatography
Mole fraction of 2-methoxyphenol	Mole fraction of choline bis(trifluoromethylsulfonyl)imide	uncertainty	Mole fraction of choline bis(trifluoromethylsulfonyl)imide	uncertainty	Mole fraction of 2-methoxyphenol	uncertainty
0	0.29	0.01	0.006	0.006	0	
0.083	0.292	0.011	0.006	0.006	0.0005	
0.295	0.201	0.011	0.0045	0.0045	0.0025	
0.383	0.173	0.011	0.004	0.004	0.0034	
0.522	0.103	0.011	0.002	0.002	0.006	
0.592	0.07	0.01	0.002	0.002	0.007	
0.655	0.02	0.01	0.001	0.001	0.011	
0.752	0		0		0.003	

System: 1,3-dimethoxy-2-hydroxybenzene + water + choline bis(trifluoromethylsulfonyl)imide; phases: Liquid mixture 2, Liquid mixture 1
Fixed: Temperature, K = 298.15
Fixed: Pressure, kPa = 101
Property: Mole fraction of choline bis(trifluoromethylsulfonyl)imide (Liquid mixture 2); method: Chromatography
Property: Mole fraction of 1,3-dimethoxy-2-hydroxybenzene (Liquid mixture 1); method: Chromatography
Property: Mole fraction of choline bis(trifluoromethylsulfonyl)imide (Liquid mixture 1); method: Chromatography
Mole fraction of 1,3-dimethoxy-2-hydroxybenzene	Mole fraction of choline bis(trifluoromethylsulfonyl)imide	uncertainty	Mole fraction of 1,3-dimethoxy-2-hydroxybenzene	uncertainty	Mole fraction of choline bis(trifluoromethylsulfonyl)imide	uncertainty
0	0.29	0.01	0		0.006	
0.109	0.278	0.011	0.0005	0.0005	0.006	
0.191	0.236	0.012	0.001	0.001	0.005	
0.294	0.151	0.013	0.002	0.002	0.004	
0.32	0.121	0.014	0.003	0.003	0.004	
0.337	0.109	0.023	0.003	0.003	0.003	
0.368	0.027	0.027	0.004	0.004	0.001	
1	0		0.003	0.003	0	

System: 1,3-dimethoxy-2-hydroxybenzene + water + choline bis(trifluoromethylsulfonyl)imide; phases: Liquid, Crystal
Fixed: Temperature, K = 298.15
Fixed: Pressure, kPa = 101
Property: Mole fraction of choline bis(trifluoromethylsulfonyl)imide (Liquid); method: Chromatography
Mole fraction of 1,3-dimethoxy-2-hydroxybenzene	Mole fraction of choline bis(trifluoromethylsulfonyl)imide	uncertainty
0.705	0.295	0.02
0.668	0.231	0.015
0.605	0.175	0.022
0.592	0.149	0.015
0.552	0.115	0.012
0.467	0.071	0.011
0.41	0.052	0.011

System: 1,2-benzenediol + water + choline bis(trifluoromethylsulfonyl)imide; phases: Liquid mixture 2, Liquid mixture 1
Fixed: Temperature, K = 298.15
Fixed: Pressure, kPa = 101
Property: Mole fraction of 1,2-benzenediol (Liquid mixture 2); method: Chromatography
Property: Mole fraction of choline bis(trifluoromethylsulfonyl)imide (Liquid mixture 1); method: Chromatography
Property: Mole fraction of 1,2-benzenediol (Liquid mixture 1); method: Chromatography
Mole fraction of choline bis(trifluoromethylsulfonyl)imide	Mole fraction of 1,2-benzenediol	uncertainty	Mole fraction of choline bis(trifluoromethylsulfonyl)imide	uncertainty	Mole fraction of 1,2-benzenediol	uncertainty
0.29	0		0.006	0.006	0	
0.248	0.048	0.015	0.006	0.006	0.004	
0.236	0.06	0.02	0.007	0.007	0.006	
0.226	0.073	0.014	0.008	0.008	0.008	
0.21	0.087	0.012	0.009	0.009	0.01	
0.178	0.108	0.011	0.011	0.01	0.017	
0.122	0.127	0.01	0.015	0.01	0.03	
0.071	0.087	0.013	0.024	0.01	0.042	

System: 1,2-benzenediol + water + choline bis(trifluoromethylsulfonyl)imide; phases: Liquid, Crystal
Fixed: Temperature, K = 298.15
Fixed: Pressure, kPa = 101
Property: Mole fraction of choline bis(trifluoromethylsulfonyl)imide (Liquid); method: Chromatography
Mole fraction of 1,2-benzenediol	Mole fraction of choline bis(trifluoromethylsulfonyl)imide	uncertainty
0.123	0	
0.157	0.01	0.01
0.216	0.057	0.015
0.227	0.069	0.013
0.246	0.082	0.017
0.265	0.121	0.024
0.299	0.197	0.034
0.319	0.303	0.06
0.325	0.364	0.06
0.348	0.487	0.026
0.41	0.59	0.019

System: water + choline bis(trifluoromethylsulfonyl)imide; phases: Liquid mixture 2, Liquid mixture 1
Property: Mole fraction of choline bis(trifluoromethylsulfonyl)imide (Liquid mixture 2); method: Chromatography
Temperature, K	Pressure, kPa	Mole fraction of choline bis(trifluoromethylsulfonyl)imide	uncertainty
298.15	101	0.29	

System: water + choline bis(trifluoromethylsulfonyl)imide; phases: Liquid mixture 1, Liquid mixture 2
Property: Mole fraction of choline bis(trifluoromethylsulfonyl)imide (Liquid mixture 1); method: Chromatography
Temperature, K	Pressure, kPa	Mole fraction of choline bis(trifluoromethylsulfonyl)imide	uncertainty
298.15	101	0.006	0.006

System: phenol + water; phases: Liquid mixture 2, Liquid mixture 1
Property: Mole fraction of phenol (Liquid mixture 2); method: Chromatography
Temperature, K	Pressure, kPa	Mole fraction of phenol	uncertainty
298.15	101	0.328	0.01

System: phenol + water; phases: Liquid mixture 1, Liquid mixture 2
Fixed: Temperature, K = 298.15
Fixed: Pressure, kPa = 101
Property: Mole fraction of phenol (Liquid mixture 1); method: Chromatography
Mole fraction of phenol	uncertainty
0.016	
0.017	

System: phenol + water; phases: Liquid, Crystal
Property: Mole fraction of phenol (Liquid); method: Chromatography
Temperature, K	Pressure, kPa	Mole fraction of phenol	uncertainty
298.15	101	0.803	

System: phenol + choline bis(trifluoromethylsulfonyl)imide; phases: Liquid, Crystal
Property: Mole fraction of choline bis(trifluoromethylsulfonyl)imide (Liquid); method: Chromatography
Temperature, K	Pressure, kPa	Mole fraction of choline bis(trifluoromethylsulfonyl)imide	uncertainty
298.15	101	0.226	0.01

System: 2-methoxyphenol + water; phases: Liquid mixture 2, Liquid mixture 1
Property: Mole fraction of 2-methoxyphenol (Liquid mixture 2); method: Chromatography
Temperature, K	Pressure, kPa	Mole fraction of 2-methoxyphenol	uncertainty
298.15	101	0.752	

System: 2-methoxyphenol + water; phases: Liquid mixture 1, Liquid mixture 2
Property: Mole fraction of 2-methoxyphenol (Liquid mixture 1); method: Chromatography
Temperature, K	Pressure, kPa	Mole fraction of 2-methoxyphenol	uncertainty
298.15	101	0.003	

System: 1,3-dimethoxy-2-hydroxybenzene + water; phases: Liquid mixture 1, Liquid mixture 2
Property: Mole fraction of 1,3-dimethoxy-2-hydroxybenzene (Liquid mixture 1); method: Chromatography
Temperature, K	Pressure, kPa	Mole fraction of 1,3-dimethoxy-2-hydroxybenzene	uncertainty
298.15	101	0.003	0.003

System: 1,3-dimethoxy-2-hydroxybenzene + choline bis(trifluoromethylsulfonyl)imide; phases: Liquid, Crystal
Property: Mole fraction of choline bis(trifluoromethylsulfonyl)imide (Liquid); method: Chromatography
Temperature, K	Pressure, kPa	Mole fraction of choline bis(trifluoromethylsulfonyl)imide	uncertainty
298.15	101	0.295	0.02

System: 1,2-benzenediol + water; phases: Liquid, Crystal
Property: Mole fraction of 1,2-benzenediol (Liquid); method: Chromatography
Temperature, K	Pressure, kPa	Mole fraction of 1,2-benzenediol	uncertainty
298.15	101	0.123	

System: 1,2-benzenediol + choline bis(trifluoromethylsulfonyl)imide; phases: Liquid, Crystal
Property: Mole fraction of choline bis(trifluoromethylsulfonyl)imide (Liquid); method: Chromatography
Temperature, K	Pressure, kPa	Mole fraction of choline bis(trifluoromethylsulfonyl)imide	uncertainty
298.15	101	0.59	0.019
