Measured thermophysical data. Surface tension and 0.1 MPa densities of imidazolium-, pyridinium-, pyrrolidinium-, and piperidinium-based  tris(pentafluoroethyl)trifluorophosphate ionic liquids
Source: Fluid Phase Equilib., 2012, 10.1016/j.fluid.2012.07.013
Compound 1: 1-(2-methoxyethyl)-1-methylpyrrolidinium tris(pentafluoroethyl)trifluorophosphate, C14H18F18NOP, InChI=1S/C8H18NO.C6F18P/c1-9(7-8-10-2)5-3-4-6-9;7-1(8,9)4(16,17)25(22,23,24,5(18,19)2(10,11)12)6(20,21)3(13,14)15/h3-8H2,1-2H3;/q+1;-1, purity 99%
Compound 2: 1-(2-methoxyethyl)-1-methylpiperidinium trifluorotris(perfluoroethyl)phosphate, C15H20F18NOP, InChI=1S/C9H20NO.C6F18P/c1-10(8-9-11-2)6-4-3-5-7-10;7-1(8,9)4(16,17)25(22,23,24,5(18,19)2(10,11)12)6(20,21)3(13,14)15/h3-9H2,1-2H3;/q+1;-1, purity 99%
Compound 3: 1-(3-hydroxypropyl)pyridinium trifluorotris(perfluoroethyl)phosphate(V), C14H12F18NOP, InChI=1S/C8H12NO.C6F18P/c10-8-4-7-9-5-2-1-3-6-9;7-1(8,9)4(16,17)25(22,23,24,5(18,19)2(10,11)12)6(20,21)3(13,14)15/h1-3,5-6,10H,4,7-8H2;/q+1;-1, purity 99%
Compound 4: 3-(2-hydroxyethyl)-1-methyl-1H-imidazolium trifluorotris(perfluoroethyl)phosphate(V), C12H11F18N2OP, InChI=1S/C6F18P.C6H11N2O/c7-1(8,9)4(16,17)25(22,23,24,5(18,19)2(10,11)12)6(20,21)3(13,14)15;1-7-2-3-8(6-7)4-5-9/h;2-3,6,9H,4-5H2,1H3/q-1;+1, purity 99%
Compound 5: 1-ethyl-3-methylimidazolium bis((trifluoromethyl)sulfonyl)imide, C8H11F6N3O4S2, InChI=1S/C6H11N2.C2F6NO4S2/c1-3-8-5-4-7(2)6-8;3-1(4,5)14(10,11)9-15(12,13)2(6,7)8/h4-6H,3H2,1-2H3;/q+1;-1

System: 1-(2-methoxyethyl)-1-methylpyrrolidinium tris(pentafluoroethyl)trifluorophosphate; phases: Liquid, Gas
Property: Surface tension liquid-gas, N/m (Liquid); method: Wilhelmy Plate Method
Temperature, K	Surface tension liquid-gas, N/m	uncertainty
263.25	0.03589	0.00023
268.34	0.03564	0.00023
272.89	0.03542	0.00023
278.12	0.03523	0.00023
283.39	0.03505	0.00022
287.24	0.03489	0.00022
293.08	0.03465	0.00022
298.13	0.03442	0.00022
302.96	0.03417	0.00022
308.07	0.03393	0.00022
312.86	0.03366	0.00022
318.34	0.03345	0.00022
323.28	0.03319	0.00022
327.28	0.03296	0.00022
332.89	0.03275	0.00022
337.88	0.03247	0.00021
342.97	0.03221	0.00021
348.13	0.03194	0.00021
352.71	0.03168	0.00021
358.11	0.03149	0.00021
362.16	0.0313	0.00021

System: 1-(2-methoxyethyl)-1-methylpyrrolidinium tris(pentafluoroethyl)trifluorophosphate; phases: Liquid, Gas
Property: Mass density, kg/m3 (Liquid); method: Buoyancy - hydrostatic balance with magnetic suspension - one sinker
Temperature, K	Mass density, kg/m3	uncertainty
263.51	1671.44	0.79
268.38	1665.34	0.79
273.15	1659.68	0.79
278.04	1653.96	0.78
283.44	1647.33	0.78
287.28	1642.52	0.78
293.12	1636.22	0.77
298.18	1630.72	0.77
303.02	1624.59	0.77
308.13	1619.09	0.76
312.97	1613.93	0.76
318.39	1608.2	0.76
323.36	1603.16	0.75
327.48	1598.89	0.75
333.07	1592.61	0.75
338.03	1587.17	0.74
343.39	1581.6	0.74
348.35	1576.39	0.74
353.04	1571.09	0.73
358.27	1565.89	0.73
362.68	1561.05	0.73

System: 1-(2-methoxyethyl)-1-methylpiperidinium trifluorotris(perfluoroethyl)phosphate; phases: Liquid, Gas
Property: Surface tension liquid-gas, N/m (Liquid); method: Wilhelmy Plate Method
Temperature, K	Surface tension liquid-gas, N/m	uncertainty
263.08	0.03589	0.00023
268.27	0.03569	0.00023
273.29	0.03551	0.00023
277.73	0.03537	0.00023
282.83	0.03516	0.00022
287.56	0.03503	0.00022
293.22	0.0348	0.00022
298.13	0.03463	0.00022
302.93	0.03437	0.00022
307.96	0.0341	0.00022
312.99	0.03385	0.00022
318.18	0.0336	0.00022
323.07	0.03341	0.00022
328.06	0.03314	0.00022
333.19	0.03282	0.00022
337.93	0.0326	0.00021
343.12	0.03234	0.00021
348.24	0.03212	0.00021
353.03	0.03185	0.00021
358.83	0.03166	0.00021
362.56	0.03147	0.00021

System: 1-(2-methoxyethyl)-1-methylpiperidinium trifluorotris(perfluoroethyl)phosphate; phases: Liquid, Gas
Property: Mass density, kg/m3 (Liquid); method: Buoyancy - hydrostatic balance with magnetic suspension - one sinker
Temperature, K	Mass density, kg/m3	uncertainty
263.68	1646.85	0.78
268.3	1641.51	0.77
273.3	1637.04	0.77
277.83	1630.76	0.77
282.95	1624.65	0.77
287.69	1619.24	0.76
293.29	1612.88	0.76
298.16	1607.91	0.76
303.04	1601.92	0.75
308.01	1596.66	0.75
313.14	1591.15	0.75
318.27	1585.61	0.74
323.32	1580.48	0.74
328.02	1576.55	0.74
333.68	1570.53	0.73
338.44	1565.44	0.73
343.45	1559.94	0.73
348.2	1555.42	0.72
354.04	1550.21	0.72
358.95	1544.64	0.72
363.09	1540.39	0.72

System: 1-(3-hydroxypropyl)pyridinium trifluorotris(perfluoroethyl)phosphate(V); phases: Liquid, Gas
Property: Surface tension liquid-gas, N/m (Liquid); method: Wilhelmy Plate Method
Temperature, K	Surface tension liquid-gas, N/m	uncertainty
263.73	0.04171	0.00025
268.14	0.04144	0.00025
272.95	0.04112	0.00025
277.78	0.04089	0.00025
282.67	0.04056	0.00025
287.56	0.04037	0.00025
293.18	0.0402	0.00025
298.23	0.03998	0.00024
303.08	0.03975	0.00024
308.07	0.03941	0.00024
312.95	0.03909	0.00024
318.26	0.03868	0.00024
323.22	0.03846	0.00024
327.25	0.03819	0.00024
333.18	0.03756	0.00023
338.12	0.03728	0.00023
342.94	0.03695	0.00023
348.54	0.03667	0.00023
352.09	0.03639	0.00023
359.98	0.03581	0.00023
362.69	0.03566	0.00023

System: 1-(3-hydroxypropyl)pyridinium trifluorotris(perfluoroethyl)phosphate(V); phases: Liquid, Gas
Property: Mass density, kg/m3 (Liquid); method: Buoyancy - hydrostatic balance with magnetic suspension - one sinker
Temperature, K	Mass density, kg/m3	uncertainty
263.92	1781.31	0.87
268.17	1772.34	0.86
273.05	1767.12	0.85
277.88	1760.75	0.85
282.74	1756.46	0.85
287.61	1748.75	0.84
293.21	1743.02	0.84
298.32	1737.21	0.83
303.17	1731.76	0.83
308.28	1724.68	0.83
313.12	1719.1	0.82
318.44	1712.72	0.82
323.27	1707.81	0.82
327.58	1702.97	0.81
333.45	1696.75	0.81
338.09	1691.08	0.81
343	1686.55	0.8
348.47	1680.68	0.8
352.08	1676.41	0.8
359.87	1669.54	0.79
362.7	1665.09	0.79

System: 3-(2-hydroxyethyl)-1-methyl-1H-imidazolium trifluorotris(perfluoroethyl)phosphate(V); phases: Liquid, Gas
Property: Surface tension liquid-gas, N/m (Liquid); method: Wilhelmy Plate Method
Temperature, K	Surface tension liquid-gas, N/m	uncertainty
264.2	0.0405	0.00025
267.46	0.04032	0.00025
272.51	0.04003	0.00024
278.08	0.03978	0.00024
283.18	0.03955	0.00024
288.8	0.03937	0.00024
293.32	0.03902	0.00024
298.24	0.0387	0.00024
303.31	0.03863	0.00024
308.28	0.03836	0.00024
313.19	0.03808	0.00024
318.37	0.03776	0.00024
322.69	0.03748	0.00023
327.36	0.037	0.00023
333.13	0.03681	0.00023
338.38	0.03642	0.00023
342.29	0.03634	0.00023
348	0.03578	0.00023
352.31	0.03555	0.00023
358.66	0.03509	0.00022
363.2	0.03493	0.00022

System: 3-(2-hydroxyethyl)-1-methyl-1H-imidazolium trifluorotris(perfluoroethyl)phosphate(V); phases: Liquid, Gas
Property: Mass density, kg/m3 (Liquid); method: Buoyancy - hydrostatic balance with magnetic suspension - one sinker
Temperature, K	Mass density, kg/m3	uncertainty
264.46	1809.25	0.88
267.64	1804.32	0.88
272.73	1797.2	0.87
278.26	1790.02	0.87
283.31	1782.98	0.86
288.89	1776.75	0.86
293.35	1771.41	0.86
298.33	1765.61	0.85
303.38	1759.72	0.85
308.34	1753.61	0.85
313.28	1746.63	0.84
318.42	1740.53	0.84
322.77	1735.33	0.83
327.39	1730.17	0.83
333.16	1723.36	0.83
338.38	1718.15	0.82
342.28	1713.11	0.82
347.96	1706.91	0.82
352.25	1701.77	0.81
358.73	1694.77	0.81
363.2	1690.51	0.8

System: 1-ethyl-3-methylimidazolium bis((trifluoromethyl)sulfonyl)imide; phases: Liquid, Gas
Property: Surface tension liquid-gas, N/m (Liquid); method: Wilhelmy Plate Method
Temperature, K	Surface tension liquid-gas, N/m	uncertainty
263.61	0.03798	0.00096
268.11	0.0378	0.00096
272.89	0.03757	0.00095
277.94	0.03733	0.00094
283.04	0.03709	0.00094
287.99	0.03685	0.00093
293.34	0.03663	0.00093
298.06	0.03645	0.00092
302.9	0.03619	0.00092
308.3	0.03597	0.00091
313.89	0.0357	0.0009
318.33	0.0355	0.0009
322.22	0.0353	0.00089
328.16	0.03498	0.00089
334.44	0.03474	0.00088
338.32	0.03459	0.00088
342.97	0.03437	0.00087
348.17	0.03404	0.00086
352.87	0.03378	0.00086
357.52	0.03355	0.00085
363.58	0.03322	0.00084
