Measured thermophysical data. Phase equilibria of (water + [EMIM] bromide) and (water + [EMIM] tosylate)
Source: Fluid Phase Equilib., 2019, 10.1016/j.fluid.2018.11.001
Compound 1: 1-ethyl-3-methylimidazolium bromide, C6H11BrN2, InChI=1S/C6H11N2.BrH/c1-3-8-5-4-7(2)6-8;/h4-6H,3H2,1-2H3;1H/q+1;/p-1, purity 99%
Compound 2: 1-ethyl-3-methylimidazolium 4-methylbenzenesulfonate, C13H18N2O3S, InChI=1S/C7H8O3S.C6H11N2/c1-6-2-4-7(5-3-6)11(8,9)10;1-3-8-5-4-7(2)6-8/h2-5H,1H3,(H,8,9,10);4-6H,3H2,1-2H3/q;+1/p-1, purity 99%
Compound 3: water, H2O, InChI=1S/H2O/h1H2, purity 99.9%

System: 1-ethyl-3-methylimidazolium bromide; phases: Crystal, Liquid, Air at 1 atmosphere
Property: Normal melting temperature, K (Crystal); method: VISOBS
Normal melting temperature, K	uncertainty
350.2	0.7

System: 1-ethyl-3-methylimidazolium 4-methylbenzenesulfonate; phases: Crystal, Liquid, Air at 1 atmosphere
Property: Normal melting temperature, K (Crystal); method: VISOBS
Normal melting temperature, K	uncertainty
327.4	0.7

System: 1-ethyl-3-methylimidazolium bromide + water; phases: Liquid, Crystal
Fixed: Pressure, kPa = 101
Property: Solid-liquid equilibrium temperature, K (Liquid); method: VISOBS
Mole fraction of water	Solid-liquid equilibrium temperature, K	uncertainty
1	273.1	0.3
0.9863	271	0.3
0.9783	269.8	0.3
0.9567	266.5	0.3
0.9372	263	0.3
0.919	259.1	0.3
0.8977	253.6	0.3
0.8812	248.6	0.3
0.8665	243.6	0.3

System: 1-ethyl-3-methylimidazolium bromide + water; phases: Liquid, Crystal
Fixed: Pressure, kPa = 101
Property: Solid-liquid equilibrium temperature, K (Liquid); method: VISOBS
Mole fraction of water	Solid-liquid equilibrium temperature, K	uncertainty
0.6231	250.2	0.3
0.5678	264.9	0.3
0.5061	282.7	0.3
0.4514	296.7	0.3
0.398	307.2	0.3
0.2968	323.9	0.3
0.2515	329.1	0.3
0.1366	340.8	0.3
0	350.1	0.3

System: 1-ethyl-3-methylimidazolium bromide + water; phases: Liquid
Fixed: Pressure, kPa = 101
Property: (Relative) activity of water (Liquid); method: Chilled-mirror Dew Point Technique
Mole fraction of water	Temperature, K	(Relative) activity of water	uncertainty
0.8977	288.17	0.8277	0.0387
0.8977	293.18	0.8275	0.0387
0.8977	298.17	0.8272	0.0387
0.8977	303.13	0.8275	0.0387
0.8977	308.12	0.8271	0.0387
0.8977	313.09	0.8258	0.0387
0.8977	318.1	0.8257	0.0387
0.8502	288.17	0.7126	0.0387
0.8502	293.17	0.7137	0.0387
0.8502	298.18	0.7141	0.0387
0.8502	303.13	0.7148	0.0387
0.8502	308.11	0.7146	0.0387
0.8502	313.08	0.7149	0.0387
0.8502	318.09	0.7153	0.0387
0.8014	288.17	0.5851	0.0387
0.8014	293.18	0.587	0.0387
0.8014	298.17	0.589	0.0387
0.8014	303.13	0.5907	0.0387
0.8014	308.11	0.5921	0.0387
0.8014	313.09	0.5935	0.0387
0.8014	318.1	0.5951	0.0387
0.7533	288.15	0.4715	0.0387
0.7533	293.16	0.4741	0.0387
0.7533	298.16	0.4762	0.0387
0.7533	303.11	0.4788	0.0387
0.7533	308.1	0.4815	0.0387
0.7533	313.07	0.4836	0.0387
0.7533	318.07	0.4859	0.0387
0.7068	288.16	0.3762	0.0387
0.7068	293.16	0.3788	0.0387
0.7068	298.17	0.3814	0.0387
0.7068	303.12	0.3841	0.0387
0.7068	308.11	0.3872	0.0387
0.7068	313.08	0.3895	0.0387
0.7068	318.09	0.3926	0.0387
0.6563	288.13	0.287	0.0387
0.6563	293.14	0.2893	0.0387
0.6563	298.14	0.2917	0.0387
0.6563	303.09	0.2941	0.0387
0.6563	308.08	0.2971	0.0387
0.6563	313.05	0.2993	0.0387
0.6563	318.06	0.3028	0.0387
0.6117	288.14	0.2271	0.0387
0.6117	293.14	0.2292	0.0387
0.6117	298.14	0.2314	0.0387
0.6117	303.1	0.2332	0.0387
0.6117	308.08	0.2361	0.0387
0.6117	313.05	0.2377	0.0387
0.6117	318.06	0.2414	0.0387
0.5626	288.12	0.1697	0.0387
0.5626	293.13	0.1717	0.0387
0.5626	298.12	0.1738	0.0387
0.5626	303.08	0.175	0.0387
0.5626	308.06	0.1776	0.0387
0.5626	313.03	0.1788	0.0387
0.5626	318.03	0.1824	0.0387
0.5158	288.12	0.1277	0.0387
0.5158	293.13	0.1293	0.0387
0.5158	298.12	0.131	0.0387
0.5158	303.08	0.1317	0.0387
0.5158	308.06	0.1337	0.0387
0.5158	313.03	0.1345	0.0387
0.5158	318.02	0.1381	0.0387
0.4691	288.11	0.0969	0.0387
0.4691	293.12	0.0983	0.0387
0.4691	298.12	0.0998	0.0387
0.4691	303.06	0.1	0.0387
0.4691	308.05	0.1017	0.0387
0.4691	313.03	0.1021	0.0387
0.4691	318.02	0.1056	0.0387

System: 1-ethyl-3-methylimidazolium 4-methylbenzenesulfonate + water; phases: Liquid
Fixed: Pressure, kPa = 101
Property: (Relative) activity of water (Liquid); method: Chilled-mirror Dew Point Technique
Mole fraction of water	Temperature, K	(Relative) activity of water	uncertainty
0.952	288.19	0.9474	0.0387
0.952	293.19	0.9454	0.0387
0.952	298.17	0.9459	0.0387
0.952	303.15	0.9467	0.0387
0.952	308.13	0.9478	0.0387
0.952	313.11	0.9472	0.0387
0.952	318.11	0.9472	0.0387
0.8491	288.18	0.7306	0.0387
0.8491	293.19	0.7327	0.0387
0.8491	298.19	0.7358	0.0387
0.8491	303.15	0.7385	0.0387
0.8491	308.14	0.7404	0.0387
0.8491	313.11	0.7422	0.0387
0.8491	318.11	0.7438	0.0387
0.7989	288.17	0.6089	0.0387
0.7989	293.18	0.6129	0.0387
0.7989	298.19	0.6165	0.0387
0.7989	303.14	0.6205	0.0387
0.7989	308.13	0.6236	0.0387
0.7989	313.1	0.6263	0.0387
0.7989	318.11	0.629	0.0387
0.7532	288.17	0.5103	0.0387
0.7532	293.18	0.515	0.0387
0.7532	298.18	0.5189	0.0387
0.7532	303.14	0.5231	0.0387
0.7532	308.12	0.527	0.0387
0.7532	313.1	0.5302	0.0387
0.7532	318.11	0.5338	0.0387
0.7044	288.16	0.4198	0.0387
0.7044	293.17	0.4248	0.0387
0.7044	298.19	0.4286	0.0387
0.7044	303.14	0.4327	0.0387
0.7044	308.12	0.4369	0.0387
0.7044	313.1	0.4403	0.0387
0.7044	318.1	0.444	0.0387
0.6541	288.16	0.3421	0.0387
0.6541	293.17	0.3468	0.0387
0.6541	298.16	0.3501	0.0387
0.6541	303.12	0.3538	0.0387
0.6541	308.11	0.3578	0.0387
0.6541	313.08	0.3609	0.0387
0.6541	318.08	0.3649	0.0387
0.6031	288.15	0.2778	0.0387
0.6031	293.15	0.2821	0.0387
0.6031	298.16	0.285	0.0387
0.6031	303.12	0.288	0.0387
0.6031	308.1	0.2916	0.0387
0.6031	313.08	0.2942	0.0387
0.6031	318.08	0.2982	0.0387
0.5546	288.14	0.2263	0.0387
0.5546	293.14	0.2305	0.0387
0.5546	298.14	0.2331	0.0387
0.5546	303.11	0.2355	0.0387
0.5546	308.08	0.2386	0.0387
0.5546	313.06	0.2407	0.0387
0.5546	318.06	0.2446	0.0387
0.4998	288.13	0.1798	0.0387
0.4998	293.14	0.1824	0.0387
0.4998	298.12	0.1846	0.0387
0.4998	303.09	0.1862	0.0387
0.4998	308.07	0.189	0.0387
0.4998	313.05	0.1906	0.0387
0.4998	318.05	0.1944	0.0387
