Measured thermophysical data. Determination and modeling for solid-liquid phase equilibrium of ternary caprolactam + cyclohexanone oxime + methyl tert-butyl ether system
Source: Fluid Phase Equilib., 2016, 10.1016/j.fluid.2016.03.002
Compound 1: cyclohexanone oxime, C6H11NO, InChI=1S/C6H11NO/c8-7-6-4-2-1-3-5-6/h8H,1-5H2, purity 97.5%
Compound 2: 1-aza-2-cycloheptanone, C6H11NO, InChI=1S/C6H11NO/c8-6-4-2-1-3-5-7-6/h1-5H2,(H,7,8), purity 98%
Compound 3: 2-methoxy-2-methylpropane, C5H12O, InChI=1S/C5H12O/c1-5(2,3)6-4/h1-4H3, purity 99.5%

System: cyclohexanone oxime + 1-aza-2-cycloheptanone + 2-methoxy-2-methylpropane; phases: Liquid, Crystal
Fixed: Pressure, kPa = 101.2
Property: Mass fraction of 1-aza-2-cycloheptanone (Liquid); method: Chromatography
Temperature, K	Mass fraction of cyclohexanone oxime	Mass fraction of 1-aza-2-cycloheptanone	uncertainty
278.15	0.2162	0.0181	0.0013
278.15	0.2104	0.035	0.001
278.15	0.206	0.0485	0.0016
278.15	0.2018	0.0662	0.0018
293.15	0.2583	0.0178	0.0011
293.15	0.2509	0.0356	0.0014
293.15	0.2472	0.0529	0.0018
293.15	0.2413	0.0765	0.0019
293.15	0.2372	0.0974	0.0021
308.15	0.3082	0.0277	0.0011
308.15	0.2958	0.0581	0.0015
308.15	0.2873	0.0982	0.0019
308.15	0.2806	0.1259	0.0023
308.15	0.2778	0.1513	0.0038
278.15	0.1979	0.0704	0.0004
293.15	0.2337	0.1082	0.0007
308.15	0.2735	0.1671	0.0006

System: cyclohexanone oxime + 1-aza-2-cycloheptanone + 2-methoxy-2-methylpropane; phases: Liquid, Crystal
Fixed: Pressure, kPa = 101.2
Property: Mass fraction of 1-aza-2-cycloheptanone (Liquid); method: Chromatography
Temperature, K	Mass fraction of cyclohexanone oxime	Mass fraction of 1-aza-2-cycloheptanone	uncertainty
278.15	0.1783	0.0736	0.0004
278.15	0.1378	0.0758	0.0004
278.15	0.1044	0.0797	0.0005
278.15	0.0767	0.0819	0.0005
278.15	0.0465	0.0858	0.0005
278.15	0.0281	0.0883	0.0005
293.15	0.1905	0.1126	0.0005
293.15	0.1552	0.1158	0.0005
293.15	0.1137	0.1192	0.0005
293.15	0.0838	0.1233	0.0005
293.15	0.0457	0.1275	0.0005
293.15	0.0181	0.1297	0.0005
308.15	0.2501	0.1708	0.0006
308.15	0.1906	0.1813	0.0006
308.15	0.1548	0.1894	0.0006
308.15	0.1089	0.1986	0.0006
308.15	0.0714	0.2045	0.0006
308.15	0.0342	0.2078	0.0006
278.15	0.1979	0.0704	0.0004
293.15	0.2337	0.1082	0.0007
308.15	0.2735	0.1671	0.0006
