Measured thermophysical data. Vapour-liquid equilibrium for tripropylene glycol + aromatic hydrocarbons binary systems: Experimental data and regression
Source: Fluid Phase Equilib., 2016, 10.1016/j.fluid.2016.05.032
Compound 1: toluene, C7H8, InChI=1S/C7H8/c1-7-5-3-2-4-6-7/h2-6H,1H3, purity 99.3%
Compound 2: ethylbenzene, C8H10, InChI=1S/C8H10/c1-2-8-6-4-3-5-7-8/h3-7H,2H2,1H3, purity 99%
Compound 3: 1,2-dimethylbenzene, C8H10, InChI=1S/C8H10/c1-7-5-3-4-6-8(7)2/h3-6H,1-2H3, purity 98%
Compound 4: 1,3-dimethylbenzene, C8H10, InChI=1S/C8H10/c1-7-4-3-5-8(2)6-7/h3-6H,1-2H3, purity 99%
Compound 5: 1,4-dimethylbenzene, C8H10, InChI=1S/C8H10/c1-7-3-5-8(2)6-4-7/h3-6H,1-2H3, purity 99%
Compound 6: 2-[2-(2-hydroxypropoxy)propoxy]-1-propanol, C9H20O4, InChI=1S/C9H20O4/c1-7(11)5-12-9(3)6-13-8(2)4-10/h7-11H,4-6H2,1-3H3, purity 99.93%

System: toluene; phases: Liquid, Gas
Property: Vapor or sublimation pressure, kPa (Liquid); method: Closed cell (Static) method
Temperature, K	Vapor or sublimation pressure, kPa	uncertainty
315.15	8.622	0.044
320.15	10.769	0.052
325.15	13.343	0.059
330.15	16.404	0.071
335.15	20.022	0.08

System: ethylbenzene; phases: Liquid, Gas
Property: Vapor or sublimation pressure, kPa (Liquid); method: Closed cell (Static) method
Temperature, K	Vapor or sublimation pressure, kPa	uncertainty
320.15	4.076	0.038
326.15	5.41	0.047
332.15	7.093	0.052
338.15	9.194	0.058
344.15	11.79	0.071

System: 1,2-dimethylbenzene; phases: Liquid, Gas
Property: Vapor or sublimation pressure, kPa (Liquid); method: Closed cell (Static) method
Temperature, K	Vapor or sublimation pressure, kPa	uncertainty
345.15	9.182	0.061
350.15	11.267	0.074
355.15	13.731	0.081
360.15	16.623	0.095
365.15	19.999	0.113

System: 1,3-dimethylbenzene; phases: Liquid, Gas
Property: Vapor or sublimation pressure, kPa (Liquid); method: Closed cell (Static) method
Temperature, K	Vapor or sublimation pressure, kPa	uncertainty
345.15	11.001	0.058
350.15	13.443	0.07
355.15	16.317	0.083
360.15	19.679	0.098
365.15	23.591	0.102

System: 1,4-dimethylbenzene; phases: Liquid, Gas
Property: Vapor or sublimation pressure, kPa (Liquid); method: Closed cell (Static) method
Temperature, K	Vapor or sublimation pressure, kPa	uncertainty
345.15	11.39	0.061
350.15	13.9	0.071
355.15	16.85	0.085
360.15	20.298	0.095
365.15	24.304	0.104

System: 2-[2-(2-hydroxypropoxy)propoxy]-1-propanol; phases: Liquid, Gas
Property: Vapor or sublimation pressure, kPa (Liquid); method: Closed cell (Static) method
Temperature, K	Vapor or sublimation pressure, kPa	uncertainty
350.15	0.039	0.006
357.15	0.063	0.016
364.15	0.098	0.009
371.15	0.15	0.018
378.15	0.224	0.009

System: toluene + 2-[2-(2-hydroxypropoxy)propoxy]-1-propanol; phases: Gas, Liquid
Property: Vapor or sublimation pressure, kPa (Gas); method: Closed cell (Static) method
Temperature, K	Mole fraction of toluene	Vapor or sublimation pressure, kPa	uncertainty
350.15	0	0.039	0.006
357.15	0	0.063	0.016
364.15	0	0.098	0.009
371.15	0	0.15	0.018
378.15	0	0.224	0.009
383.15	0.1018	15.369	0.082
388.15	0.1018	17.727	0.088
393.15	0.1018	20.221	0.081
398.15	0.1018	22.79	0.089
305.15	0.3008	2.871	0.03
313.15	0.3008	3.976	0.032
321.15	0.3008	5.548	0.035
329.15	0.3008	7.52	0.045
337.15	0.3008	9.827	0.056
315.15	0.4998	6.11	0.042
321.15	0.4998	7.88	0.045
327.15	0.4998	9.929	0.057
333.15	0.4998	12.486	0.06
339.15	0.4998	15.55	0.066
315.15	0.7005	7.11	0.042
320.15	0.7005	8.733	0.048
325.15	0.7005	10.683	0.057
330.15	0.7005	12.994	0.068
335.15	0.7005	15.714	0.08
321.15	0.901	10.111	0.049
325.15	0.901	12.109	0.056
330.15	0.901	14.903	0.065
335.15	0.901	18.013	0.076
340.15	0.901	21.799	0.086
315.15	1	8.622	0.044
320.15	1	10.769	0.052
325.15	1	13.343	0.059
330.15	1	16.404	0.071
335.15	1	20.022	0.08

System: ethylbenzene + 2-[2-(2-hydroxypropoxy)propoxy]-1-propanol; phases: Gas, Liquid
Property: Vapor or sublimation pressure, kPa (Gas); method: Closed cell (Static) method
Temperature, K	Mole fraction of ethylbenzene	Vapor or sublimation pressure, kPa	uncertainty
350.15	0	0.039	0.006
357.15	0	0.063	0.014
364.15	0	0.098	0.009
371.15	0	0.15	0.016
378.15	0	0.224	0.009
380.15	0.0991	7.569	0.048
388.15	0.0991	9.405	0.049
396.15	0.0991	11.42	0.053
404.15	0.0991	13.961	0.063
412.15	0.0991	18.025	0.091
345.15	0.3009	6.438	0.048
352.15	0.3009	8.274	0.045
359.15	0.3009	10.437	0.05
366.15	0.3009	13.059	0.06
373.15	0.3009	16.173	0.07
335.15	0.4997	6.307	0.048
341.15	0.4997	8.044	0.045
347.15	0.4997	9.945	0.051
353.15	0.4997	12.289	0.06
359.15	0.4997	15.108	0.069
330.15	0.7009	5.602	0.042
336.15	0.7009	7.323	0.052
342.15	0.7009	9.372	0.051
348.15	0.7009	11.945	0.057
354.15	0.7009	14.764	0.071
325.15	0.9028	4.979	0.037
331.15	0.9028	6.383	0.05
337.15	0.9028	8.323	0.056
343.15	0.9028	10.563	0.057
349.15	0.9028	13.438	0.072
320.15	1	4.076	0.038
326.15	1	5.41	0.047
332.15	1	7.093	0.052
338.15	1	9.194	0.058
344.15	1	11.79	0.071

System: 1,2-dimethylbenzene + 2-[2-(2-hydroxypropoxy)propoxy]-1-propanol; phases: Gas, Liquid
Property: Vapor or sublimation pressure, kPa (Gas); method: Closed cell (Static) method
Temperature, K	Mole fraction of 1,2-dimethylbenzene	Vapor or sublimation pressure, kPa	uncertainty
350.15	0	0.039	0.006
357.15	0	0.063	0.01
364.15	0	0.098	0.009
371.15	0	0.15	0.011
378.15	0	0.224	0.009
384.15	0.1003	7.651	0.046
392.15	0.1003	9.47	0.051
400.15	0.1003	11.437	0.054
408.15	0.1003	14.526	0.071
416.15	0.1003	17.861	0.082
360.15	0.2995	9.383	0.049
366.15	0.2995	10.992	0.058
372.15	0.2995	13.431	0.063
378.15	0.2995	15.594	0.071
384.15	0.2995	19.592	0.085
341.15	0.5211	6.404	0.04
348.15	0.5211	8.306	0.048
355.15	0.5211	10.716	0.059
362.15	0.5211	13.78	0.07
369.15	0.5211	17.697	0.085
346.15	0.7007	8.263	0.051
352.15	0.7007	10.396	0.059
358.15	0.7007	13.055	0.076
364.15	0.7007	16.195	0.083
370.15	0.7007	19.861	0.096
345.15	0.9008	8.518	0.054
350.15	0.9008	10.456	0.066
355.15	0.9008	12.68	0.078
360.15	0.9008	15.294	0.087
365.15	0.9008	18.373	0.099
345.15	1	9.182	0.061
350.15	1	11.267	0.074
355.15	1	13.731	0.081
360.15	1	16.623	0.095
365.15	1	19.999	0.113

System: 1,3-dimethylbenzene + 2-[2-(2-hydroxypropoxy)propoxy]-1-propanol; phases: Gas, Liquid
Property: Vapor or sublimation pressure, kPa (Gas); method: Closed cell (Static) method
Temperature, K	Mole fraction of 1,3-dimethylbenzene	Vapor or sublimation pressure, kPa	uncertainty
350.15	0	0.039	0.006
357.15	0	0.063	0.01
364.15	0	0.098	0.009
371.15	0	0.15	0.011
378.15	0	0.224	0.009
375.15	0.1	6.235	0.049
383.15	0.1	7.842	0.048
391.15	0.1	9.615	0.056
399.15	0.1	11.553	0.062
407.15	0.1	14.813	0.078
350.15	0.2997	6.851	0.043
357.15	0.2997	8.958	0.05
364.15	0.2997	11.165	0.059
371.15	0.2997	14.007	0.068
378.15	0.2997	17.417	0.074
345.15	0.5001	8.192	0.053
351.15	0.5001	10.109	0.059
357.15	0.5001	12.568	0.067
363.15	0.5001	15.452	0.081
369.15	0.5001	18.976	0.078
345.15	0.6998	9.502	0.053
350.15	0.6998	11.453	0.062
355.15	0.6998	13.731	0.063
360.15	0.6998	16.501	0.082
365.15	0.6998	19.648	0.085
342.15	0.9003	9.282	0.057
347.15	0.9003	11.368	0.059
352.15	0.9003	13.581	0.07
357.15	0.9003	16.45	0.081
362.15	0.9003	19.786	0.093
345.15	1	11.001	0.058
350.15	1	13.443	0.07
355.15	1	16.317	0.083
360.15	1	19.679	0.098
365.15	1	23.591	0.102

System: 1,4-dimethylbenzene + 2-[2-(2-hydroxypropoxy)propoxy]-1-propanol; phases: Gas, Liquid
Property: Vapor or sublimation pressure, kPa (Gas); method: Closed cell (Static) method
Temperature, K	Mole fraction of 1,4-dimethylbenzene	Vapor or sublimation pressure, kPa	uncertainty
350.15	0	0.039	0.006
357.15	0	0.063	0.01
364.15	0	0.098	0.009
371.15	0	0.15	0.011
378.15	0	0.224	0.008
368.15	0.1006	5.242	0.037
376.15	0.1006	6.864	0.044
384.15	0.1006	8.323	0.049
393.15	0.1006	10.24	0.054
402.15	0.1006	13.24	0.059
351.15	0.3009	7.882	0.049
357.15	0.3009	9.525	0.05
363.15	0.3009	11.282	0.055
370.15	0.3009	14.002	0.066
377.15	0.3009	17.232	0.076
345.15	0.5008	8.666	0.048
350.15	0.5008	10.387	0.052
355.15	0.5008	12.193	0.059
360.15	0.5008	14.492	0.064
365.15	0.5008	17.221	0.073
345.15	0.7004	9.956	0.052
350.15	0.7004	12.083	0.062
355.15	0.7004	14.878	0.068
360.15	0.7004	17.547	0.075
365.15	0.7004	20.687	0.086
344.15	0.9	10.396	0.057
349.15	0.9	12.92	0.067
354.15	0.9	15.339	0.072
359.15	0.9	18.178	0.08
364.15	0.9	21.874	0.096
345.15	1	11.39	0.061
350.15	1	13.9	0.071
355.15	1	16.85	0.085
360.15	1	20.298	0.095
365.15	1	24.304	0.104
