Measured thermophysical data. Isobaric vapor liquid equilibria for binary systems of butyl chlorides with heptane, toluene and cyclohexane at 101.3, 80.0 and 53.3 kPa
Source: Fluid Phase Equilib., 2006, 10.1016/j.fluid.2006.02.009
Compound 1: 1-chlorobutane, C4H9Cl, InChI=1S/C4H9Cl/c1-2-3-4-5/h2-4H2,1H3
Compound 2: 2-chlorobutane, C4H9Cl, InChI=1S/C4H9Cl/c1-3-4(2)5/h4H,3H2,1-2H3
Compound 3: toluene, C7H8, InChI=1S/C7H8/c1-7-5-3-2-4-6-7/h2-6H,1H3
Compound 4: cyclohexane, C6H12, InChI=1S/C6H12/c1-2-4-6-5-3-1/h1-6H2
Compound 5: heptane, C7H16, InChI=1S/C7H16/c1-3-5-7-6-4-2/h3-7H2,1-2H3

System: 1-chlorobutane; phases: Liquid, Gas
Property: Vapor or sublimation pressure, kPa (Liquid); method: EBULLIO:UFactor:24
Temperature, K	Vapor or sublimation pressure, kPa	uncertainty
325	40.87	0.34
327.14	44.16	0.35
328.66	46.87	0.36
329.6	48.37	0.36
329.78	48.83	0.36
331.28	51.33	0.37
332.28	53.3	0.37
332.68	54.07	0.38
335.44	59.61	0.39
338.11	65.42	0.4
341.04	72.23	0.42
344.14	80	0.44
346.84	87.52	0.46
348.63	92.35	0.47
351.53	101.3	0.49
351.61	101.4	0.49

System: 2-chlorobutane; phases: Liquid, Gas
Property: Vapor or sublimation pressure, kPa (Liquid); method: EBULLIO:UFactor:24
Temperature, K	Vapor or sublimation pressure, kPa	uncertainty
319.8	48.34	0.36
320.75	50.22	0.37
322.42	53.3	0.37
325.25	59.07	0.39
326.25	61.3	0.39
328.15	65.21	0.4
331.9	74.49	0.43
333.25	78.06	0.44
334.01	80	0.44
335.2	83.29	0.45
337.34	89.61	0.47
338.75	93.45	0.48
339.65	96.38	0.49
341.23	101.3	0.5
341.75	102.78	0.5

System: toluene; phases: Liquid, Gas
Property: Vapor or sublimation pressure, kPa (Liquid); method: EBULLIO:UFactor:48
Temperature, K	Vapor or sublimation pressure, kPa	uncertainty
345.25	29.21	0.62
348.15	32.41	0.64
352.05	37.22	0.66
352.25	37.61	0.66
356.65	43.67	0.69
357.9	45.96	0.7
361.3	51.35	0.73
362.64	53.3	0.74
363.75	55.59	0.75
368.25	63.48	0.79
371.4	70.12	0.82
375.66	80	0.87
376.65	82.48	0.88
383.25	99.89	0.96
383.76	101.3	0.97
383.77	101.33	0.97
384.1	102	0.97

System: cyclohexane; phases: Liquid, Gas
Property: Vapor or sublimation pressure, kPa (Liquid); method: EBULLIO:UFactor:24
Temperature, K	Vapor or sublimation pressure, kPa	uncertainty
324.72	38.19	0.34
324.73	38.28	0.34
332.08	50	0.36
333.96	53.3	0.37
337.59	60.49	0.39
341.96	69.95	0.42
343.68	74.01	0.43
346.13	80	0.44
346.58	81.2	0.45
351.72	95.17	0.48
353.73	101.3	0.5
354.11	102.34	0.5

System: heptane; phases: Liquid, Gas
Property: Vapor or sublimation pressure, kPa (Liquid); method: EBULLIO:UFactor:24
Temperature, K	Vapor or sublimation pressure, kPa	uncertainty
331.82	26.49	0.3
334.81	29.69	0.31
336.95	32.24	0.32
339.7	35.66	0.33
344.76	42.88	0.34
347.85	47.8	0.36
349.53	50.62	0.36
351.14	53.3	0.37
353.9	58.57	0.38
356.61	63.98	0.4
358.49	67.99	0.41
362.03	75.87	0.43
363.44	79.55	0.43
363.67	80	0.44
364.36	81.76	0.44
366.23	86.56	0.45
371.47	101.3	0.49
371.66	101.46	0.49

System: 1-chlorobutane + heptane; phases: Liquid, Gas
Property: Boiling temperature at pressure P, K (Liquid); method: EBULLIO:UFactor:4
Mole fraction of 1-chlorobutane	Pressure, kPa	Boiling temperature at pressure P, K	uncertainty
0	101.3	371.47	0.63
0.0526	101.3	369.33	0.77
0.0941	101.3	367.9	0.69
0.1641	101.3	365.58	0.67
0.2155	101.3	364.1	0.68
0.269	101.3	362.38	0.69
0.321	101.3	361.1	0.65
0.3557	101.3	360.41	0.64
0.4243	101.3	359.16	0.65
0.5205	101.3	357.24	0.64
0.584	101.3	356.4	0.62
0.6368	101.3	355.52	0.63
0.6906	101.3	354.84	0.62
0.7167	101.3	354.4	0.61
0.7437	101.3	353.89	0.59
0.8023	101.3	353.41	0.6
0.8437	101.3	352.96	0.6
0.8795	101.3	352.64	0.61
0.9118	101.3	352.26	0.62
1	101.3	351.53	0.6
0	80	363.67	0.59
0.0476	80	361.41	0.69
0.0989	80	360.34	0.62
0.1709	80	358.19	0.67
0.2094	80	356.68	0.74
0.2328	80	355.78	0.63
0.309	80	354.01	0.63
0.3517	80	353	0.6
0.4213	80	351.51	0.61
0.5252	80	349.72	0.59
0.5854	80	348.87	0.58
0.633	80	348.17	0.59
0.6809	80	347.44	0.6
0.7155	80	347.2	0.58
0.7392	80	346.92	0.56
0.8015	80	346.09	0.58
0.8432	80	345.73	0.58
0.8672	80	345.33	0.58
0.9114	80	344.82	0.57
1	80	344.14	0.57
0	53.3	351.14	0.46
0.0932	53.3	348.3	0.55
0.1704	53.3	345.77	0.57
0.2107	53.3	344.3	0.55
0.251	53.3	343.17	0.5
0.299	53.3	342.27	0.48
0.3442	53.3	341.34	0.5
0.4067	53.3	339.66	0.47
0.5259	53.3	337.97	0.46
0.5789	53.3	337.22	0.46
0.6328	53.3	336.27	0.47
0.6838	53.3	335.51	0.45
0.7145	53.3	335.23	0.45
0.8011	53.3	334.43	0.44
0.843	53.3	334.04	0.45
0.8793	53.3	333.59	0.45
0.9115	53.3	333.14	0.44
1	53.3	332.28	0.44

System: 1-chlorobutane + heptane; phases: Gas, Liquid
Property: Mole fraction of 1-chlorobutane (Gas); method: Index of refraction calibration data
Mole fraction of 1-chlorobutane	Pressure, kPa	Mole fraction of 1-chlorobutane	uncertainty
0	101.3	0	
0.0526	101.3	0.129	0.0236
0.0941	101.3	0.2001	0.0188
0.1641	101.3	0.3073	0.0178
0.2155	101.3	0.3779	0.0171
0.269	101.3	0.452	0.0155
0.321	101.3	0.501	0.0145
0.3557	101.3	0.5402	0.0137
0.4243	101.3	0.5954	0.0135
0.5205	101.3	0.6827	0.0132
0.584	101.3	0.7241	0.0121
0.6368	101.3	0.7569	0.0123
0.6906	101.3	0.7955	0.0122
0.7167	101.3	0.8095	0.0121
0.7437	101.3	0.8296	0.0122
0.8023	101.3	0.8676	0.012
0.8437	101.3	0.8946	0.012
0.8795	101.3	0.9179	0.012
0.9118	101.3	0.9394	0.0121
1	101.3	1	
0	80	0	
0.0476	80	0.1214	0.0227
0.0989	80	0.2022	0.0176
0.1709	80	0.3006	0.0183
0.2094	80	0.3725	0.0194
0.2328	80	0.3995	0.0155
0.309	80	0.4891	0.0152
0.3517	80	0.5331	0.0139
0.4213	80	0.595	0.0134
0.5252	80	0.6807	0.0129
0.5854	80	0.7204	0.0124
0.633	80	0.7552	0.0126
0.6809	80	0.7896	0.0121
0.7155	80	0.809	0.012
0.7392	80	0.8276	0.0121
0.8015	80	0.8654	0.0119
0.8432	80	0.8929	0.0117
0.8672	80	0.9027	0.0122
0.9114	80	0.938	0.0124
1	80	1	
0	53.3	0	
0.0932	53.3	0.1815	0.0208
0.1704	53.3	0.3108	0.0195
0.2107	53.3	0.378	0.0169
0.251	53.3	0.42	0.0134
0.299	53.3	0.455	0.0153
0.3442	53.3	0.5259	0.0163
0.4067	53.3	0.5924	0.0132
0.5259	53.3	0.6765	0.0126
0.5789	53.3	0.7164	0.0125
0.6328	53.3	0.7524	0.0122
0.6838	53.3	0.7862	0.0121
0.7145	53.3	0.8045	0.0123
0.8011	53.3	0.8652	0.0122
0.843	53.3	0.8915	0.012
0.8793	53.3	0.9158	0.0122
0.9115	53.3	0.9383	0.0122
1	53.3	1	

System: 1-chlorobutane + cyclohexane; phases: Liquid, Gas
Property: Boiling temperature at pressure P, K (Liquid); method: EBULLIO:UFactor:4
Mole fraction of 1-chlorobutane	Pressure, kPa	Boiling temperature at pressure P, K	uncertainty
0	101.3	353.73	0.62
0.0496	101.3	353.14	0.63
0.1005	101.3	352.54	0.63
0.1553	101.3	351.92	0.63
0.2152	101.3	351.47	0.62
0.2796	101.3	351.01	0.62
0.3448	101.3	350.63	0.62
0.4529	101.3	350.24	0.61
0.4705	101.3	350.19	0.61
0.5832	101.3	350.14	0.61
0.5887	101.3	350.14	0.61
0.6302	101.3	350.16	0.61
0.6967	101.3	350.22	0.61
0.7747	101.3	350.42	0.61
0.8344	101.3	350.62	0.62
0.896	101.3	350.95	0.61
0.9524	101.3	351.26	0.61
1	101.3	351.53	0.6
0	80	346.13	0.58
0.0534	80	345.52	0.59
0.1017	80	344.96	0.59
0.1532	80	344.41	0.59
0.2118	80	343.9	0.58
0.2842	80	343.43	0.58
0.3446	80	343.14	0.57
0.4704	80	342.77	0.57
0.5183	80	342.76	0.58
0.6213	80	342.69	0.57
0.7109	80	342.82	0.57
0.7703	80	342.98	0.57
0.83	80	343.04	0.57
0.8946	80	343.54	0.57
0.9526	80	343.85	0.57
1	80	344.14	0.57
0	53.3	333.96	0.45
0.049	53.3	333.4	0.46
0.102	53.3	332.82	0.46
0.1516	53.3	332.34	0.45
0.2096	53.3	331.99	0.44
0.2903	53.3	331.5	0.44
0.3461	53.3	331.25	0.44
0.4663	53.3	330.87	0.44
0.5218	53.3	330.74	0.44
0.5772	53.3	330.82	0.44
0.6404	53.3	330.79	0.44
0.701	53.3	330.97	0.44
0.766	53.3	331.16	0.44
0.8369	53.3	331.35	0.43
0.8964	53.3	331.73	0.44
0.9513	53.3	332	0.44
1	53.3	332.28	0.44

System: 1-chlorobutane + cyclohexane; phases: Gas, Liquid
Property: Mole fraction of 1-chlorobutane (Gas); method: Index of refraction calibration data
Mole fraction of 1-chlorobutane	Pressure, kPa	Mole fraction of 1-chlorobutane	uncertainty
0	101.3	0	
0.0496	101.3	0.0717	0.0173
0.1005	101.3	0.1413	0.0158
0.1553	101.3	0.2012	0.0144
0.2152	101.3	0.2596	0.0143
0.2796	101.3	0.3277	0.0141
0.3448	101.3	0.3862	0.0132
0.4529	101.3	0.4725	0.0146
0.4705	101.3	0.4904	0.0147
0.5832	101.3	0.5892	0.0134
0.5887	101.3	0.585	0.0133
0.6302	101.3	0.6197	0.0139
0.6967	101.3	0.6819	0.014
0.7747	101.3	0.7534	0.0134
0.8344	101.3	0.7988	0.0145
0.896	101.3	0.8777	0.0156
0.9524	101.3	0.9395	0.0154
1	101.3	1	
0	80	0	
0.0534	80	0.0684	0.0169
0.1017	80	0.1385	0.0164
0.1532	80	0.1987	0.0143
0.2118	80	0.2517	0.0139
0.2842	80	0.3255	0.0141
0.3446	80	0.3816	0.0134
0.4704	80	0.4885	0.0136
0.5183	80	0.5317	0.0137
0.6213	80	0.6172	0.013
0.7109	80	0.6798	0.0132
0.7703	80	0.7382	0.0147
0.83	80	0.8041	0.0153
0.8946	80	0.8796	0.015
0.9526	80	0.9399	0.0152
1	80	1	
0	53.3	0	
0.049	53.3	0.0714	0.0169
0.102	53.3	0.1385	0.0156
0.1516	53.3	0.194	0.0149
0.2096	53.3	0.2568	0.0137
0.2903	53.3	0.3232	0.0135
0.3461	53.3	0.3794	0.0134
0.4663	53.3	0.4787	0.0134
0.5218	53.3	0.5241	0.0137
0.5772	53.3	0.5756	0.0129
0.6404	53.3	0.6121	0.0133
0.701	53.3	0.6763	0.0147
0.766	53.3	0.7416	0.0142
0.8369	53.3	0.8092	0.0145
0.8964	53.3	0.8765	0.0152
0.9513	53.3	0.9392	0.0156
1	53.3	1	

System: 1-chlorobutane + toluene; phases: Liquid, Gas
Property: Boiling temperature at pressure P, K (Liquid); method: EBULLIO:UFactor:4
Mole fraction of 1-chlorobutane	Pressure, kPa	Boiling temperature at pressure P, K	uncertainty
0	101.3	383.76	0.66
0.148	101.3	377.39	0.82
0.1725	101.3	376.38	0.81
0.2528	101.3	373.13	0.8
0.2771	101.3	371.92	0.81
0.328	101.3	369.81	0.78
0.3495	101.3	368.94	0.74
0.4074	101.3	367.04	0.73
0.4353	101.3	365.93	0.71
0.4868	101.3	364.5	0.68
0.5211	101.3	363.3	0.71
0.534	101.3	362.91	0.7
0.5716	101.3	361.7	0.67
0.6059	101.3	360.74	0.67
0.6402	101.3	359.81	0.63
0.7228	101.3	357.84	0.64
0.7657	101.3	356.79	0.65
0.8076	101.3	355.77	0.64
0.8451	101.3	354.99	0.65
0.8848	101.3	353.99	0.64
1	101.3	351.53	0.6
0	80	375.66	0.62
0.1339	80	369.51	0.7
0.1564	80	368.34	0.76
0.1993	80	366.46	0.72
0.2637	80	364.23	0.71
0.3184	80	362.1	0.73
0.3506	80	360.98	0.67
0.4031	80	359.26	0.7
0.4332	80	358.32	0.64
0.4868	80	356.92	0.67
0.5179	80	355.78	0.64
0.5726	80	354.35	0.65
0.6069	80	353.24	0.64
0.6369	80	352.79	0.6
0.7249	80	350.43	0.64
0.7625	80	349.48	0.61
0.8097	80	348.41	0.63
0.8419	80	347.55	0.61
0.8859	80	346.69	0.6
1	80	344.14	0.57
0	53.3	362.64	0.48
0.1285	53.3	356.6	0.66
0.1618	53.3	355.31	0.62
0.1972	53.3	353.85	0.6
0.2401	53.3	352.32	0.58
0.3173	53.3	349.64	0.58
0.3506	53.3	348.42	0.56
0.4031	53.3	346.9	0.54
0.4332	53.3	345.97	0.54
0.4868	53.3	344.4	0.55
0.5104	53.3	343.66	0.51
0.5716	53.3	342.27	0.54
0.6069	53.3	340.88	0.51
0.6359	53.3	340.64	0.51
0.7249	53.3	338.36	0.5
0.7693	53.3	337.53	0.5
0.8108	53.3	336.39	0.5
0.8419	53.3	335.74	0.49
0.8848	53.3	334.77	0.49
1	53.3	332.28	0.44

System: 1-chlorobutane + toluene; phases: Gas, Liquid
Property: Mole fraction of 1-chlorobutane (Gas); method: Index of refraction calibration data
Mole fraction of 1-chlorobutane	Pressure, kPa	Mole fraction of 1-chlorobutane	uncertainty
0	101.3	0	
0.148	101.3	0.3079	0.0198
0.1725	101.3	0.3498	0.0181
0.2528	101.3	0.4668	0.0183
0.2771	101.3	0.5098	0.0173
0.328	101.3	0.5728	0.0159
0.3495	101.3	0.5962	0.0149
0.4074	101.3	0.6584	0.0152
0.4353	101.3	0.6928	0.0135
0.4868	101.3	0.7292	0.0125
0.5211	101.3	0.7538	0.0125
0.534	101.3	0.7632	0.0137
0.5716	101.3	0.7989	0.013
0.6059	101.3	0.8215	0.0114
0.6402	101.3	0.8338	0.0116
0.7228	101.3	0.8848	0.0117
0.7657	101.3	0.9062	0.0112
0.8076	101.3	0.9256	0.0111
0.8451	101.3	0.9438	0.011
0.8848	101.3	0.9599	0.0106
1	101.3	1	
0	80	0	
0.1339	80	0.2873	0.0292
0.1564	80	0.3474	0.0208
0.1993	80	0.4085	0.0168
0.2637	80	0.4889	0.0161
0.3184	80	0.5559	0.0163
0.3506	80	0.5962	0.0158
0.4031	80	0.6584	0.0154
0.4332	80	0.6896	0.013
0.4868	80	0.726	0.0129
0.5179	80	0.7561	0.0132
0.5726	80	0.7989	0.0126
0.6069	80	0.8215	0.0114
0.6369	80	0.8315	0.0115
0.7249	80	0.8826	0.0117
0.7625	80	0.9052	0.0114
0.8097	80	0.9277	0.0112
0.8419	80	0.9449	0.0109
0.8859	80	0.9599	0.0106
1	80	1	
0	53.3	0	
0.1285	53.3	0.2862	0.0239
0.1618	53.3	0.3474	0.021
0.1972	53.3	0.4128	0.0184
0.2401	53.3	0.4686	0.0161
0.3173	53.3	0.5629	0.0162
0.3506	53.3	0.6069	0.0152
0.4031	53.3	0.6595	0.0142
0.4332	53.3	0.6863	0.0131
0.4868	53.3	0.7273	0.0135
0.5104	53.3	0.7549	0.0124
0.5716	53.3	0.7893	0.0125
0.6069	53.3	0.8258	0.0122
0.6359	53.3	0.8312	0.0114
0.7249	53.3	0.8848	0.0115
0.7693	53.3	0.9041	0.0112
0.8108	53.3	0.9277	0.0113
0.8419	53.3	0.9416	0.011
0.8848	53.3	0.9609	0.0107
1	53.3	1	

System: 2-chlorobutane + heptane; phases: Liquid, Gas
Property: Boiling temperature at pressure P, K (Liquid); method: EBULLIO:UFactor:4
Mole fraction of 2-chlorobutane	Pressure, kPa	Boiling temperature at pressure P, K	uncertainty
0	101.3	371.47	0.63
0.0865	101.3	366.11	0.87
0.1148	101.3	364.74	0.81
0.1493	101.3	363.13	0.8
0.1783	101.3	361.65	0.8
0.2175	101.3	359.77	0.75
0.2634	101.3	358.02	0.71
0.3132	101.3	356.42	0.68
0.3647	101.3	354.78	0.68
0.4437	101.3	351.92	0.7
0.5122	101.3	350.11	0.68
0.5792	101.3	348.41	0.65
0.6429	101.3	347.21	0.61
0.7056	101.3	345.95	0.61
0.7544	101.3	345	0.6
0.8197	101.3	343.97	0.61
0.8871	101.3	343.05	0.59
0.9269	101.3	342.22	0.6
0.9737	101.3	341.51	0.59
1	101.3	341.23	0.59
0	80	363.67	0.59
0.0857	80	358.54	0.89
0.114	80	356.67	0.79
0.142	80	355.56	0.72
0.1699	80	354.39	0.76
0.2134	80	352.41	0.72
0.2575	80	350.68	0.67
0.3046	80	349.27	0.65
0.3571	80	347.74	0.67
0.4421	80	344.54	0.67
0.5059	80	342.62	0.62
0.5727	80	341.2	0.59
0.6384	80	340.14	0.58
0.7031	80	338.88	0.59
0.7533	80	338.01	0.57
0.8206	80	336.73	0.57
0.8866	80	335.93	0.57
0.9267	80	335.24	0.57
0.9729	80	334.55	0.58
1	80	334.01	0.55
0	53.3	351.14	0.46
0.1088	53.3	344.54	0.71
0.1375	53.3	343.69	0.73
0.1701	53.3	341.1	0.64
0.2124	53.3	340.27	0.53
0.2541	53.3	338.79	0.57
0.2999	53.3	337.08	0.56
0.3512	53.3	335.49	0.57
0.4306	53.3	332.79	0.52
0.5	53.3	331.26	0.48
0.5699	53.3	329.61	0.47
0.639	53.3	328.4	0.47
0.7011	53.3	327.32	0.46
0.7504	53.3	326.5	0.46
0.8185	53.3	325.23	0.45
0.8855	53.3	324.36	0.45
0.9257	53.3	323.76	0.45
0.9735	53.3	323.04	0.46
1	53.3	322.42	0.43

System: 2-chlorobutane + heptane; phases: Gas, Liquid
Property: Mole fraction of 2-chlorobutane (Gas); method: Index of refraction calibration data
Mole fraction of 2-chlorobutane	Pressure, kPa	Mole fraction of 2-chlorobutane	uncertainty
0	101.3	0	
0.0865	101.3	0.2334	0.0274
0.1148	101.3	0.287	0.021
0.1493	101.3	0.3492	0.0205
0.1783	101.3	0.4002	0.0195
0.2175	101.3	0.463	0.0171
0.2634	101.3	0.5176	0.015
0.3132	101.3	0.5667	0.0141
0.3647	101.3	0.6139	0.015
0.4437	101.3	0.7069	0.014
0.5122	101.3	0.7529	0.0122
0.5792	101.3	0.7969	0.0118
0.6429	101.3	0.8306	0.0114
0.7056	101.3	0.8609	0.0113
0.7544	101.3	0.8862	0.0112
0.8197	101.3	0.9157	0.011
0.8871	101.3	0.9462	0.0111
0.9269	101.3	0.9669	0.011
0.9737	101.3	0.9868	0.011
1	101.3	1	
0	80	0	
0.0857	80	0.2262	0.0276
0.114	80	0.2836	0.0227
0.142	80	0.341	0.022
0.1699	80	0.3931	0.0178
0.2134	80	0.4468	0.0166
0.2575	80	0.5068	0.017
0.3046	80	0.5703	0.0146
0.3571	80	0.6097	0.0144
0.4421	80	0.7056	0.0142
0.5059	80	0.7536	0.0121
0.5727	80	0.7906	0.0116
0.6384	80	0.8255	0.0115
0.7031	80	0.8616	0.0113
0.7533	80	0.883	0.0111
0.8206	80	0.9163	0.0111
0.8866	80	0.946	0.0111
0.9267	80	0.966	0.0111
0.9729	80	0.9872	0.011
1	80	1	
0	53.3	0	
0.1088	53.3	0.2842	0.0267
0.1375	53.3	0.3333	0.0193
0.1701	53.3	0.3851	0.0205
0.2124	53.3	0.466	0.0177
0.2541	53.3	0.506	0.0153
0.2999	53.3	0.5643	0.015
0.3512	53.3	0.6113	0.0149
0.4306	53.3	0.7036	0.0138
0.5	53.3	0.7468	0.012
0.5699	53.3	0.7898	0.0116
0.639	53.3	0.8234	0.0113
0.7011	53.3	0.8556	0.0113
0.7504	53.3	0.8796	0.0112
0.8185	53.3	0.9118	0.0112
0.8855	53.3	0.9456	0.0112
0.9257	53.3	0.9646	0.011
0.9735	53.3	0.9854	0.0111
1	53.3	1	

System: 2-chlorobutane + cyclohexane; phases: Liquid, Gas
Property: Boiling temperature at pressure P, K (Liquid); method: EBULLIO:UFactor:4
Mole fraction of 2-chlorobutane	Pressure, kPa	Boiling temperature at pressure P, K	uncertainty
0	101.3	353.73	0.62
0.0516	101.3	351.98	0.69
0.1386	101.3	349.41	0.64
0.2054	101.3	348.36	0.61
0.2553	101.3	347.4	0.61
0.3064	101.3	346.75	0.6
0.368	101.3	345.8	0.61
0.4218	101.3	345.08	0.61
0.4701	101.3	344.68	0.6
0.5119	101.3	344.13	0.59
0.5709	101.3	343.63	0.59
0.6116	101.3	343.27	0.6
0.6592	101.3	342.85	0.6
0.7342	101.3	342.4	0.59
0.7662	101.3	342.14	0.59
0.8071	101.3	341.88	0.59
0.8385	101.3	341.81	0.59
0.8834	101.3	341.61	0.59
0.9263	101.3	341.39	0.59
1	101.3	341.23	0.59
0	80	346.13	0.58
0.0514	80	344.53	0.62
0.1345	80	342.63	0.61
0.2051	80	341.06	0.6
0.2536	80	340.27	0.58
0.3085	80	339.5	0.58
0.3654	80	338.6	0.59
0.4199	80	337.78	0.57
0.4726	80	337.39	0.56
0.5258	80	336.88	0.56
0.5685	80	336.53	0.57
0.6099	80	336.04	0.56
0.658	80	335.65	0.55
0.7334	80	335.21	0.56
0.766	80	334.93	0.55
0.8065	80	334.73	0.56
0.8344	80	334.6	0.55
0.8838	80	334.37	0.55
1	80	334.01	0.55
0	53.3	333.96	0.45
0.052	53.3	332.52	0.51
0.1386	53.3	330.46	0.49
0.2008	53.3	329.43	0.46
0.2501	53.3	328.59	0.46
0.3053	53.3	327.72	0.46
0.3684	53.3	326.74	0.45
0.418	53.3	326.32	0.44
0.4634	53.3	325.82	0.44
0.5228	53.3	325.38	0.44
0.571	53.3	324.81	0.44
0.6116	53.3	324.58	0.43
0.6578	53.3	324.14	0.43
0.7323	53.3	323.78	0.43
0.7662	53.3	323.43	0.43
0.8367	53.3	323.13	0.43
0.8838	53.3	322.91	0.43
1	53.3	322.42	0.43

System: 2-chlorobutane + cyclohexane; phases: Gas, Liquid
Property: Mole fraction of 2-chlorobutane (Gas); method: Index of refraction calibration data
Mole fraction of 2-chlorobutane	Pressure, kPa	Mole fraction of 2-chlorobutane	uncertainty
0	101.3	0	
0.0516	101.3	0.1049	0.0196
0.1386	101.3	0.2363	0.0174
0.2054	101.3	0.3229	0.0158
0.2553	101.3	0.3779	0.0147
0.3064	101.3	0.4299	0.0141
0.368	101.3	0.4862	0.0139
0.4218	101.3	0.5335	0.0138
0.4701	101.3	0.5757	0.0135
0.5119	101.3	0.6094	0.0131
0.5709	101.3	0.6534	0.0129
0.6116	101.3	0.6845	0.013
0.6592	101.3	0.7212	0.0128
0.7342	101.3	0.7771	0.0127
0.7662	101.3	0.8012	0.013
0.8071	101.3	0.8357	0.0129
0.8385	101.3	0.8587	0.0128
0.8834	101.3	0.8954	0.0131
0.9263	101.3	0.9326	0.0135
1	101.3	1	
0	80	0	
0.0514	80	0.101	0.0199
0.1345	80	0.2339	0.0175
0.2051	80	0.3197	0.0155
0.2536	80	0.3738	0.0145
0.3085	80	0.4262	0.0141
0.3654	80	0.4811	0.0143
0.4199	80	0.5333	0.0137
0.4726	80	0.5732	0.013
0.5258	80	0.614	0.0132
0.5685	80	0.6491	0.0132
0.6099	80	0.6809	0.0131
0.658	80	0.7193	0.0132
0.7334	80	0.7809	0.0128
0.766	80	0.8011	0.0125
0.8065	80	0.8325	0.0132
0.8344	80	0.8581	0.013
0.8838	80	0.8953	0.0133
1	80	1	
0	53.3	0	
0.052	53.3	0.0989	0.0197
0.1386	53.3	0.2374	0.0177
0.2008	53.3	0.3149	0.0157
0.2501	53.3	0.3705	0.0145
0.3053	53.3	0.4234	0.0141
0.3684	53.3	0.4845	0.014
0.418	53.3	0.5274	0.0137
0.4634	53.3	0.5674	0.0133
0.5228	53.3	0.6127	0.013
0.571	53.3	0.6494	0.0135
0.6116	53.3	0.6879	0.013
0.6578	53.3	0.7162	0.0127
0.7323	53.3	0.7742	0.0128
0.7662	53.3	0.7989	0.0131
0.8367	53.3	0.8584	0.013
0.8838	53.3	0.8946	0.0134
1	53.3	1	

System: 2-chlorobutane + toluene; phases: Liquid, Gas
Property: Boiling temperature at pressure P, K (Liquid); method: EBULLIO:UFactor:4
Mole fraction of 2-chlorobutane	Pressure, kPa	Boiling temperature at pressure P, K	uncertainty
0	101.3	383.76	0.66
0.0331	101.3	381.04	0.94
0.1232	101.3	375.65	0.94
0.1661	101.3	372.75	0.97
0.2017	101.3	370.25	0.95
0.2355	101.3	368.15	0.9
0.3237	101.3	363.25	0.84
0.3663	101.3	361.4	0.81
0.4158	101.3	359.05	0.83
0.4483	101.3	357.8	0.82
0.5059	101.3	355.25	0.77
0.5532	101.3	353.65	0.73
0.619	101.3	351.49	0.73
0.6667	101.3	349.95	0.73
0.7296	101.3	347.95	0.7
0.7706	101.3	347.05	0.68
0.7963	101.3	346.3	0.69
0.8224	101.3	345.34	0.68
0.8684	101.3	344.45	0.66
0.9293	101.3	342.8	0.65
1	101.3	341.23	0.59
0	80	375.66	0.62
0.0351	80	372.78	0.94
0.0794	80	369.94	0.93
0.1347	80	366.16	0.89
0.193	80	362.51	0.92
0.2142	80	361.37	0.8
0.2554	80	358.61	0.83
0.2856	80	357.21	0.94
0.2956	80	356.41	0.89
0.3258	80	355.26	0.77
0.3761	80	352.64	0.76
0.4516	80	348.99	0.75
0.5149	80	346.94	0.67
0.5904	80	344.46	0.7
0.6497	80	342.37	0.66
0.7413	80	339.92	0.63
0.8389	80	337.41	0.61
0.9384	80	335.26	0.6
1	80	334.01	0.55
0	53.3	362.64	0.48
0.0461	53.3	359.52	0.82
0.0592	53.3	358.58	0.86
0.1538	53.3	352.9	0.76
0.1759	53.3	351.54	0.93
0.1829	53.3	350.97	0.91
0.1961	53.3	349.47	1.23
0.2574	53.3	346.15	0.72
0.3046	53.3	343.46	0.71
0.31	53.3	343.45	0.71
0.3399	53.3	341.66	0.67
0.4575	53.3	336.35	0.52
0.4756	53.3	335.91	0.54
0.5139	53.3	334.81	0.56
0.5773	53.3	332.64	0.54
0.6588	53.3	330.3	0.52
0.7402	53.3	328.11	0.5
0.8389	53.3	325.82	0.48
0.9465	53.3	323.46	0.48
1	53.3	322.42	0.43

System: 2-chlorobutane + toluene; phases: Gas, Liquid
Property: Mole fraction of 2-chlorobutane (Gas); method: Index of refraction calibration data
Mole fraction of 2-chlorobutane	Pressure, kPa	Mole fraction of 2-chlorobutane	uncertainty
0	101.3	0	
0.0331	101.3	0.117	0.0275
0.1232	101.3	0.3239	0.0248
0.1661	101.3	0.4179	0.0224
0.2017	101.3	0.4797	0.0198
0.2355	101.3	0.5354	0.0174
0.3237	101.3	0.6521	0.0158
0.3663	101.3	0.6895	0.0135
0.4158	101.3	0.7322	0.0129
0.4483	101.3	0.7532	0.0129
0.5059	101.3	0.8017	0.0127
0.5532	101.3	0.8314	0.0117
0.619	101.3	0.8667	0.0114
0.6667	101.3	0.8903	0.0109
0.7296	101.3	0.9123	0.0107
0.7706	101.3	0.9296	0.0108
0.7963	101.3	0.9384	0.0108
0.8224	101.3	0.9503	0.0104
0.8684	101.3	0.9596	0.0107
0.9293	101.3	0.989	0.0105
1	101.3	1	
0	80	0	
0.0351	80	0.1276	0.0316
0.0794	80	0.2393	0.026
0.1347	80	0.3704	0.0236
0.193	80	0.4816	0.0212
0.2142	80	0.5167	0.02
0.2554	80	0.5868	0.018
0.2856	80	0.6195	0.0152
0.2956	80	0.6376	0.0138
0.3258	80	0.6567	0.0145
0.3761	80	0.718	0.0143
0.4516	80	0.7832	0.0125
0.5149	80	0.8184	0.0117
0.5904	80	0.863	0.0113
0.6497	80	0.8856	0.0108
0.7413	80	0.9194	0.0108
0.8389	80	0.9596	0.0106
0.9384	80	0.9897	0.0103
1	80	1	
0	53.3	0	
0.0461	53.3	0.1472	0.033
0.0592	53.3	0.185	0.0305
0.1538	53.3	0.4021	0.021
0.1759	53.3	0.4428	0.0257
0.1829	53.3	0.4591	0.0251
0.1961	53.3	0.5021	0.0342
0.2574	53.3	0.5927	0.0174
0.3046	53.3	0.6537	0.0162
0.31	53.3	0.6615	0.0162
0.3399	53.3	0.695	0.0138
0.4575	53.3	0.7983	0.0117
0.4756	53.3	0.8088	0.0113
0.5139	53.3	0.8267	0.0113
0.5773	53.3	0.8589	0.0112
0.6588	53.3	0.8952	0.0109
0.7402	53.3	0.9284	0.0105
0.8389	53.3	0.9505	0.0105
0.9465	53.3	0.9897	0.0103
1	53.3	1	
