Measured thermophysical data. Liquid-liquid equilibrium data for ternary systems of water + acetic acid + acetate esters at 293.2 K and 303.2 K and ~ 95 kPa
Source: Fluid Phase Equilib., 2018, 10.1016/j.fluid.2018.02.003
Compound 1: water, H2O, InChI=1S/H2O/h1H2, purity 99.8%
Compound 2: acetic acid, C2H4O2, InChI=1S/C2H4O2/c1-2(3)4/h1H3,(H,3,4), purity 99.7%
Compound 3: ethyl acetate, C4H8O2, InChI=1S/C4H8O2/c1-3-6-4(2)5/h3H2,1-2H3, purity 99.5%
Compound 4: butyl ethanoate, C6H12O2, InChI=1S/C6H12O2/c1-3-4-5-8-6(2)7/h3-5H2,1-2H3, purity 99.5%
Compound 5: 2-methylpropyl ethanoate, C6H12O2, InChI=1S/C6H12O2/c1-5(2)4-8-6(3)7/h5H,4H2,1-3H3, purity 98%
Compound 6: 3-methylbutyl ethanoate, C7H14O2, InChI=1S/C7H14O2/c1-6(2)4-5-9-7(3)8/h6H,4-5H2,1-3H3, purity 99%
Compound 7: heptyl ethanoate, C9H18O2, InChI=1S/C9H18O2/c1-3-4-5-6-7-8-11-9(2)10/h3-8H2,1-2H3, purity 98%

System: water; phases: Liquid
Fixed: Pressure, kPa = 95
Property: Refractive index (Na D-line) (Liquid); method: Standard Abbe refractometry
Temperature, K	Refractive index (Na D-line)	uncertainty
293.2	1.333	0.001
313.2	1.3306	0.001

System: water; phases: Liquid
Fixed: Pressure, kPa = 95
Property: Mass density, kg/m3 (Liquid); method: Vibrating tube method
Temperature, K	Mass density, kg/m3	uncertainty
293.2	998.397	0.903
313.2	992.201	0.903
293.2	998.361	7.742

System: acetic acid; phases: Liquid
Fixed: Pressure, kPa = 95
Property: Mass density, kg/m3 (Liquid); method: Vibrating tube method
Temperature, K	Mass density, kg/m3	uncertainty
293.2	1049.799	0.928
313.2	1028.134	0.927

System: acetic acid; phases: Liquid
Fixed: Pressure, kPa = 95
Property: Refractive index (Na D-line) (Liquid); method: Standard Abbe refractometry
Temperature, K	Refractive index (Na D-line)	uncertainty
293.2	1.3724	0.001
313.2	1.3644	0.001

System: ethyl acetate; phases: Liquid
Fixed: Pressure, kPa = 95
Property: Mass density, kg/m3 (Liquid); method: Vibrating tube method
Temperature, K	Mass density, kg/m3	uncertainty
293.2	900.569	0.938
313.2	876.101	0.939

System: ethyl acetate; phases: Liquid
Fixed: Pressure, kPa = 95
Property: Refractive index (Na D-line) (Liquid); method: Standard Abbe refractometry
Temperature, K	Refractive index (Na D-line)	uncertainty
293.2	1.3724	0.0011
313.2	1.3619	0.0011

System: butyl ethanoate; phases: Liquid
Fixed: Pressure, kPa = 95
Property: Mass density, kg/m3 (Liquid); method: Vibrating tube method
Temperature, K	Mass density, kg/m3	uncertainty
293.2	881.38	0.931
313.2	860.059	0.932

System: butyl ethanoate; phases: Liquid
Fixed: Pressure, kPa = 95
Property: Refractive index (Na D-line) (Liquid); method: Standard Abbe refractometry
Temperature, K	Refractive index (Na D-line)	uncertainty
293.2	1.3943	0.0011
313.2	1.3845	0.0011

System: 2-methylpropyl ethanoate; phases: Liquid
Fixed: Pressure, kPa = 95
Property: Mass density, kg/m3 (Liquid); method: Vibrating tube method
Temperature, K	Mass density, kg/m3	uncertainty
293.2	871.303	1.122
313.2	849.391	1.111

System: 2-methylpropyl ethanoate; phases: Liquid
Fixed: Pressure, kPa = 95
Property: Refractive index (Na D-line) (Liquid); method: Standard Abbe refractometry
Temperature, K	Refractive index (Na D-line)	uncertainty
293.2	1.3901	0.0011
313.2	1.3802	0.0011

System: 3-methylbutyl ethanoate; phases: Liquid
Fixed: Pressure, kPa = 95
Property: Mass density, kg/m3 (Liquid); method: Vibrating tube method
Temperature, K	Mass density, kg/m3	uncertainty
293.2	872.492	0.945
313.2	852.645	0.946

System: 3-methylbutyl ethanoate; phases: Liquid
Fixed: Pressure, kPa = 95
Property: Refractive index (Na D-line) (Liquid); method: Standard Abbe refractometry
Temperature, K	Refractive index (Na D-line)	uncertainty
293.2	1.4006	0.0011
313.2	1.3912	0.0011

System: heptyl ethanoate; phases: Liquid
Fixed: Pressure, kPa = 95
Property: Mass density, kg/m3 (Liquid); method: Vibrating tube method
Temperature, K	Mass density, kg/m3	uncertainty
293.2	870.582	1.115
313.2	852.589	1.105

System: heptyl ethanoate; phases: Liquid
Fixed: Pressure, kPa = 95
Property: Refractive index (Na D-line) (Liquid); method: Standard Abbe refractometry
Temperature, K	Refractive index (Na D-line)	uncertainty
293.2	1.4146	0.0011
313.2	1.4054	0.0011

System: water + acetic acid + ethyl acetate; phases: Liquid
Fixed: Pressure, kPa = 95
Property: Mass density, kg/m3 (Liquid); method: Vibrating tube method
Temperature, K	Mole fraction of water	Mole fraction of ethyl acetate	Mass density, kg/m3	uncertainty
293.2	0.1267	0.8733	905.4	10.764
293.2	0.3005	0.612	927.226	10.764
293.2	0.4178	0.4479	946.068	10.764
293.2	0.5246	0.328	962.385	10.764
293.2	0.6013	0.2523	974.039	10.764
293.2	0.6307	0.2276	978.341	10.764
293.2	0.636	0.2215	979.285	10.764
293.2	0.7231	0.1525	991.268	10.764
293.2	0.7465	0.1342	994.951	10.764
293.2	0.7672	0.1197	998.014	10.764
293.2	0.8201	0.0819	1006.744	10.765
293.2	0.8667	0.0536	1012.818	10.765
293.2	0.9091	0.0344	1013.628	10.765
293.2	0.9286	0.0283	1011.736	10.765
293.2	0.9479	0.0243	1007.658	10.765
293.2	0.9639	0.0211	1003.991	10.765
293.2	0.9828	0.0172	998.227	10.764
313.2	0.183	0.817	882.844	10.763
313.2	0.3295	0.5826	905.931	10.764
313.2	0.4489	0.4251	925.4	10.764
313.2	0.5465	0.3138	941.744	10.764
313.2	0.635	0.2294	954.991	10.764
313.2	0.7142	0.1636	964.554	10.764
313.2	0.7706	0.1203	981.824	10.764
313.2	0.8151	0.0872	986.692	10.764
313.2	0.8703	0.0527	998.031	10.764
313.2	0.9107	0.0338	1001.131	10.765
313.2	0.9476	0.0234	998.323	10.764
313.2	0.9837	0.0163	990.48	10.764

System: water + acetic acid + ethyl acetate; phases: Liquid mixture 1, Liquid mixture 2
Fixed: Pressure, kPa = 95
Property: Mole fraction of water (Liquid mixture 1); method: Titration method
Temperature, K	Mole fraction of ethyl acetate	Mole fraction of water	uncertainty
293.2	0.8733	0.1267	0.0043
293.2	0.612	0.3005	0.0094
293.2	0.4479	0.4178	0.013
293.2	0.328	0.5246	0.0148
293.2	0.2523	0.6013	0.0125
293.2	0.2276	0.6307	0.0116
293.2	0.2215	0.636	0.0114
293.2	0.1525	0.7231	0.0089
293.2	0.1342	0.7465	0.0083
293.2	0.1197	0.7672	0.0077
293.2	0.0819	0.8201	0.0063
293.2	0.0536	0.8667	0.0057
293.2	0.0344	0.9091	0.0058
293.2	0.0283	0.9286	0.0081
293.2	0.0243	0.9479	0.0101
293.2	0.0211	0.9639	0.0101
293.2	0.0172	0.9828	0.0099
313.2	0.817	0.183	0.0058
313.2	0.5826	0.3295	0.0103
313.2	0.4251	0.4489	0.014
313.2	0.3138	0.5465	0.0142
313.2	0.2294	0.635	0.0115
313.2	0.1636	0.7142	0.0092
313.2	0.1203	0.7706	0.0076
313.2	0.0872	0.8151	0.0064
313.2	0.0527	0.8703	0.0055
313.2	0.0338	0.9107	0.0061
313.2	0.0234	0.9476	0.0086
313.2	0.0163	0.9837	0.0104

System: water + acetic acid + ethyl acetate; phases: Liquid
Fixed: Pressure, kPa = 95
Property: Refractive index (Na D-line) (Liquid); method: Standard Abbe refractometry
Temperature, K	Mole fraction of water	Mole fraction of ethyl acetate	Refractive index (Na D-line)	uncertainty
293.2	0.1267	0.8733	1.3725	0.0022
293.2	0.3005	0.612	1.3733	0.0022
293.2	0.4178	0.4479	1.3735	0.0022
293.2	0.5246	0.328	1.3726	0.0022
293.2	0.6013	0.2523	1.3713	0.0022
293.2	0.6307	0.2276	1.3706	0.0022
293.2	0.636	0.2215	1.3703	0.0022
293.2	0.7231	0.1525	1.3667	0.0022
293.2	0.7465	0.1342	1.3664	0.0028
293.2	0.7672	0.1197	1.365	0.0022
293.2	0.8201	0.0819	1.3618	0.0024
293.2	0.8667	0.0536	1.3571	0.0023
293.2	0.9091	0.0344	1.3523	0.0023
293.2	0.9286	0.0283	1.3494	0.0023
293.2	0.9479	0.0243	1.3461	0.0023
293.2	0.9639	0.0211	1.3431	0.0147
293.2	0.9828	0.0172	1.3387	0.0023
313.2	0.183	0.817	1.3623	0.0022
313.2	0.3295	0.5826	1.3637	0.0022
313.2	0.4489	0.4251	1.3644	0.0022
313.2	0.5465	0.3138	1.3635	0.0022
313.2	0.635	0.2294	1.3623	0.0023
313.2	0.7142	0.1636	1.3593	0.0022
313.2	0.7706	0.1203	1.3575	0.0022
313.2	0.8151	0.0872	1.3556	0.0024
313.2	0.8703	0.0527	1.3511	0.0024
313.2	0.9107	0.0338	1.3454	0.0023
313.2	0.9476	0.0234	1.34	0.0023
313.2	0.9837	0.0163	1.334	0.0023

System: water + acetic acid + ethyl acetate; phases: Liquid mixture 2, Liquid mixture 1
Fixed: Pressure, kPa = 95
Property: Mole fraction of acetic acid (Liquid mixture 2); method: Density calibration data
Property: Mole fraction of acetic acid (Liquid mixture 1); method: Density calibration data
Property: Mole fraction of water (Liquid mixture 1); method: Density calibration data
Temperature, K	Mole fraction of water	Mole fraction of acetic acid	uncertainty	Mole fraction of acetic acid	uncertainty	Mole fraction of water	uncertainty
293.2	0.9631	0.0192	0.016	0.0495	0.0147	0.2103	
293.2	0.9542	0.0248	0.0157	0.0779	0.0142	0.2653	
293.2	0.9433	0.0315	0.0158	0.1064	0.0132	0.3336	
293.2	0.9216	0.0444	0.0152	0.1304	0.0123	0.414	
293.2	0.8831	0.0653	0.0151	0.1471	0.012	0.5332	
293.2	0.8693	0.0722	0.015	0.1477	0.0118	0.5639	
313.2	0.9709	0.014	0.014	0.0389	0.0149	0.2409	
313.2	0.9543	0.0247	0.0158	0.0741	0.0142	0.3068	
313.2	0.9311	0.0388	0.0156	0.1068	0.0131	0.3868	
313.2	0.9096	0.0512	0.0152	0.1298	0.0123	0.4726	
313.2	0.887	0.0632	0.0147	0.1391	0.0119	0.5424	
313.2	0.8634	0.0749	0.0146	0.1402	0.0118	0.6114	

System: water + acetic acid + ethyl acetate; phases: Liquid
Fixed: Pressure, kPa = 95
Property: Mass density, kg/m3 (Liquid); method: Vibrating tube method
Temperature, K	Mole fraction of water	Mole fraction of acetic acid	Mass density, kg/m3	uncertainty
293.2	0.2103	0.0495	916.042	2.791
293.2	0.2653	0.0779	923.405	2.832
293.2	0.3336	0.1064	933.164	2.82
293.2	0.414	0.1304	944.95	3.037
293.2	0.5332	0.1471	963.307	2.944
293.2	0.5639	0.1477	968.047	2.948
293.2	0.9631	0.0192	1003.709	9.048
293.2	0.9542	0.0248	1006.805	6.621
293.2	0.9433	0.0315	1010.09	9.049
293.2	0.9216	0.0444	1012.674	5.615
293.2	0.8831	0.0653	1013.666	4.734
293.2	0.8693	0.0722	1012.835	4.364
313.2	0.2409	0.0389	891.909	3.085
313.2	0.3068	0.0741	901.727	3.26
313.2	0.3868	0.1068	914.144	3.255
313.2	0.4726	0.1298	928.17	3.453
313.2	0.5424	0.1391	940.202	3.439
313.2	0.6114	0.1402	952.564	3.349
313.2	0.9709	0.014	994.187	5.998
313.2	0.9543	0.0247	997.238	5.492
313.2	0.9311	0.0388	999.364	4.981
313.2	0.9096	0.0512	1000.39	5.579
313.2	0.887	0.0632	999.67	4.457
313.2	0.8634	0.0749	997.201	3.557

System: water + acetic acid + ethyl acetate; phases: Liquid
Fixed: Pressure, kPa = 95
Property: Refractive index (Na D-line) (Liquid); method: Standard Abbe refractometry
Temperature, K	Mole fraction of water	Mole fraction of acetic acid	Refractive index (Na D-line)	uncertainty
293.2	0.2103	0.0495	1.373	0.0027
293.2	0.2653	0.0779	1.3732	0.0027
293.2	0.3336	0.1064	1.3735	0.0028
293.2	0.414	0.1304	1.3735	0.0027
293.2	0.5332	0.1471	1.3727	0.0027
293.2	0.5639	0.1477	1.3722	0.003
293.2	0.9631	0.0192	1.3429	0.0044
293.2	0.9542	0.0248	1.3449	0.0039
293.2	0.9433	0.0315	1.3472	0.0044
293.2	0.9216	0.0444	1.3507	0.0037
293.2	0.8831	0.0653	1.3559	0.0035
293.2	0.8693	0.0722	1.3574	0.0035
313.2	0.2409	0.0389	1.3629	0.0028
313.2	0.3068	0.0741	1.3635	0.0027
313.2	0.3868	0.1068	1.364	0.0028
313.2	0.4726	0.1298	1.3642	0.0027
313.2	0.5424	0.1391	1.364	0.0027
313.2	0.6114	0.1402	1.3633	0.003
313.2	0.9709	0.014	1.3363	0.0037
313.2	0.9543	0.0247	1.3393	0.0036
313.2	0.9311	0.0388	1.343	0.0036
313.2	0.9096	0.0512	1.3462	0.0037
313.2	0.887	0.0632	1.3491	0.0035
313.2	0.8634	0.0749	1.3516	0.0033

System: water + acetic acid + butyl ethanoate; phases: Liquid mixture 1, Liquid mixture 2
Fixed: Pressure, kPa = 95
Property: Mole fraction of water (Liquid mixture 1); method: Titration method
Temperature, K	Mole fraction of butyl ethanoate	Mole fraction of water	uncertainty
293.2	0.9296	0.0704	0.004
293.2	0.6905	0.1756	0.0061
293.2	0.5335	0.2579	0.0082
293.2	0.3526	0.3721	0.0117
293.2	0.2468	0.4636	0.0147
293.2	0.1848	0.5307	0.015
293.2	0.1424	0.5857	0.0136
293.2	0.0791	0.6776	0.0111
293.2	0.0502	0.7252	0.0106
293.2	0.0222	0.7888	0.0111
293.2	0.0107	0.8385	0.019
293.2	0.0049	0.8906	0.0433
293.2	0.0048	0.936	0.0459
293.2	0.0015	0.9673	0.0146
293.2	0.0012	0.9988	0.0012
313.2	0.9145	0.0855	0.0043
313.2	0.6346	0.2227	0.0072
313.2	0.4658	0.3082	0.0097
313.2	0.3449	0.3917	0.0124
313.2	0.2453	0.4776	0.0151
313.2	0.1729	0.5571	0.0143
313.2	0.1095	0.642	0.012
313.2	0.0548	0.7261	0.0102
313.2	0.0219	0.7979	0.0103
313.2	0.012	0.8364	0.0176
313.2	0.006	0.8829	0.0344
313.2	0.0034	0.9192	0.0311
313.2	0.0024	0.9417	0.0394
313.2	0.0016	0.9678	0.0311
313.2	0.0012	0.9988	0.0012

System: water + acetic acid + butyl ethanoate; phases: Liquid
Fixed: Pressure, kPa = 95
Property: Mass density, kg/m3 (Liquid); method: Vibrating tube method
Temperature, K	Mole fraction of water	Mole fraction of butyl ethanoate	Mass density, kg/m3	uncertainty
293.2	0.0704	0.9296	882.76	5.741
293.2	0.1756	0.6905	900.332	5.782
293.2	0.2579	0.5335	915.524	5.775
293.2	0.3721	0.3526	940.057	5.753
293.2	0.4636	0.2468	959.781	5.745
293.2	0.5307	0.1848	974.031	5.746
293.2	0.5857	0.1424	985.602	5.758
293.2	0.6776	0.0791	1007.941	5.969
293.2	0.7252	0.0502	1020.682	5.751
293.2	0.7888	0.0222	1034.909	5.788
293.2	0.8385	0.0107	1037.792	5.724
293.2	0.8906	0.0049	1032.799	7.531
293.2	0.936	0.0048	1020.951	5.875
293.2	0.9673	0.0015	1011.642	6.227
293.2	0.9988	0.0012	998.132	5.729
313.2	0.0855	0.9145	862.224	5.736
313.2	0.2227	0.6346	882.496	6.103
313.2	0.3082	0.4658	902.04	5.72
313.2	0.3917	0.3449	917.886	5.905
313.2	0.4776	0.2453	938.395	5.732
313.2	0.5571	0.1729	954.613	5.761
313.2	0.642	0.1095	972.431	9.402
313.2	0.7261	0.0548	1004.372	5.866
313.2	0.7979	0.0219	1018.167	5.775
313.2	0.8364	0.012	1021.961	5.879
313.2	0.8829	0.006	1020.388	8.275
313.2	0.9192	0.0034	1015.299	9.422
313.2	0.9417	0.0024	1010.408	5.936
313.2	0.9678	0.0016	1003.113	9.161
313.2	0.9988	0.0012	992.026	5.722

System: water + acetic acid + butyl ethanoate; phases: Liquid
Fixed: Pressure, kPa = 95
Property: Refractive index (Na D-line) (Liquid); method: Standard Abbe refractometry
Temperature, K	Mole fraction of water	Mole fraction of butyl ethanoate	Refractive index (Na D-line)	uncertainty
293.2	0.0704	0.9296	1.3939	0.0128
293.2	0.1756	0.6905	1.3922	0.0128
293.2	0.2579	0.5335	1.3905	0.0128
293.2	0.3721	0.3526	1.3875	0.0128
293.2	0.4636	0.2468	1.3847	0.0128
293.2	0.5307	0.1848	1.3825	0.0128
293.2	0.5857	0.1424	1.3801	0.0128
293.2	0.6776	0.0791	1.3751	0.0128
293.2	0.7252	0.0502	1.3716	0.0128
293.2	0.7888	0.0222	1.3661	0.0128
293.2	0.8385	0.0107	1.3611	0.0128
293.2	0.8906	0.0049	1.3542	0.0128
293.2	0.936	0.0048	1.3468	0.0128
293.2	0.9673	0.0015	1.341	0.0128
293.2	0.9988	0.0012	1.3337	0.0128
313.2	0.0855	0.9145	1.3843	0.0128
313.2	0.2227	0.6346	1.3824	0.0128
313.2	0.3082	0.4658	1.3803	0.0128
313.2	0.3917	0.3449	1.3786	0.0128
313.2	0.4776	0.2453	1.3762	0.0128
313.2	0.5571	0.1729	1.3769	0.0132
313.2	0.642	0.1095	1.3676	0.0132
313.2	0.7261	0.0548	1.3653	0.0128
313.2	0.7979	0.0219	1.3592	0.0128
313.2	0.8364	0.012	1.3553	0.0128
313.2	0.8829	0.006	1.3499	0.0128
313.2	0.9192	0.0034	1.3452	0.0131
313.2	0.9417	0.0024	1.3417	0.0128
313.2	0.9678	0.0016	1.3372	0.0133
313.2	0.9988	0.0012	1.3307	0.0128

System: water + acetic acid + butyl ethanoate; phases: Liquid mixture 2, Liquid mixture 1
Fixed: Pressure, kPa = 95
Property: Mole fraction of acetic acid (Liquid mixture 2); method: Density calibration data
Property: Mole fraction of acetic acid (Liquid mixture 1); method: Density calibration data
Property: Mole fraction of water (Liquid mixture 1); method: Density calibration data
Temperature, K	Mole fraction of water	Mole fraction of acetic acid	uncertainty	Mole fraction of acetic acid	uncertainty	Mole fraction of water	uncertainty
293.2	0.967	0.0327	0.0085	0.068	0.0096	0.1189	
293.2	0.938	0.0604	0.0084	0.1259	0.0093	0.1686	
293.2	0.9086	0.0873	0.0083	0.1846	0.0089	0.2301	
293.2	0.8787	0.1134	0.0083	0.2266	0.0084	0.2866	
293.2	0.848	0.1385	0.0082	0.2648	0.0083	0.3601	
293.2	0.8066	0.17	0.0088	0.2879	0.0095	0.4475	
313.2	0.9684	0.0312	0.0085	0.0695	0.0092	0.1414	
313.2	0.9362	0.0625	0.0085	0.126	0.009	0.1935	
313.2	0.9065	0.0897	0.0083	0.1769	0.0085	0.2503	
313.2	0.8769	0.1153	0.0082	0.2198	0.0082	0.3119	
313.2	0.8424	0.1431	0.0083	0.2553	0.0084	0.3861	

System: water + acetic acid + butyl ethanoate; phases: Liquid
Fixed: Pressure, kPa = 95
Property: Mass density, kg/m3 (Liquid); method: Vibrating tube method
Temperature, K	Mole fraction of water	Mole fraction of acetic acid	Mass density, kg/m3	uncertainty
293.2	0.1189	0.068	890.768	1.317
293.2	0.1686	0.1259	899.53	1.493
293.2	0.2301	0.1846	910.833	1.575
293.2	0.2866	0.2266	921.883	1.575
293.2	0.3601	0.2648	936.765	1.654
293.2	0.4475	0.2879	955.524	1.654
293.2	0.967	0.0327	1010.719	3.109
293.2	0.938	0.0604	1020.131	3.109
293.2	0.9086	0.0873	1028.427	3.303
293.2	0.8787	0.1134	1033.817	2.811
293.2	0.848	0.1385	1037.365	2.568
293.2	0.8066	0.17	1036.027	2.128
313.2	0.1414	0.0695	870.595	1.412
313.2	0.1935	0.126	879.87	1.599
313.2	0.2503	0.1769	890.018	1.606
313.2	0.3119	0.2198	902.003	1.602
313.2	0.3861	0.2553	917.061	1.602
313.2	0.9684	0.0312	1002.259	2.787
313.2	0.9362	0.0625	1010.186	2.644
313.2	0.9065	0.0897	1015.976	2.763
313.2	0.8769	0.1153	1020.245	2.763
313.2	0.8424	0.1431	1021.524	2.584

System: water + acetic acid + butyl ethanoate; phases: Liquid
Fixed: Pressure, kPa = 95
Property: Refractive index (Na D-line) (Liquid); method: Standard Abbe refractometry
Temperature, K	Mole fraction of water	Mole fraction of acetic acid	Refractive index (Na D-line)	uncertainty
293.2	0.1189	0.068	1.3932	0.0009
293.2	0.1686	0.1259	1.3922	0.0009
293.2	0.2301	0.1846	1.3909	0.0009
293.2	0.2866	0.2266	1.3897	0.0009
293.2	0.3601	0.2648	1.3879	0.0009
293.2	0.4475	0.2879	1.3854	0.0009
293.2	0.967	0.0327	1.3406	0.0012
293.2	0.938	0.0604	1.3458	0.0012
293.2	0.9086	0.0873	1.3508	0.0012
293.2	0.8787	0.1134	1.3554	0.0011
293.2	0.848	0.1385	1.3598	0.0011
293.2	0.8066	0.17	1.3648	0.0011
313.2	0.1414	0.0695	1.3836	0.0009
313.2	0.1935	0.126	1.3828	0.0009
313.2	0.2503	0.1769	1.3817	0.0009
313.2	0.3119	0.2198	1.3806	0.0009
313.2	0.3861	0.2553	1.379	0.0009
313.2	0.9684	0.0312	1.3366	0.0011
313.2	0.9362	0.0625	1.3416	0.0011
313.2	0.9065	0.0897	1.346	0.0011
313.2	0.8769	0.1153	1.3502	0.0011
313.2	0.8424	0.1431	1.3547	0.0011

System: water + acetic acid + 2-methylpropyl ethanoate; phases: Liquid mixture 1, Liquid mixture 2
Fixed: Pressure, kPa = 95
Property: Mole fraction of water (Liquid mixture 1); method: Titration method
Temperature, K	Mole fraction of 2-methylpropyl ethanoate	Mole fraction of water	uncertainty
293.2	0.9354	0.0646	0.0039
293.2	0.6936	0.1574	0.0057
293.2	0.5365	0.2463	0.008
293.2	0.3523	0.3682	0.0117
293.2	0.2463	0.4599	0.0146
293.2	0.1844	0.5281	0.0152
293.2	0.1104	0.6291	0.0125
293.2	0.0657	0.6968	0.011
293.2	0.0317	0.7624	0.0106
293.2	0.0163	0.8101	0.0133
293.2	0.0109	0.8364	0.0231
293.2	0.0057	0.88	0.0389
293.2	0.0032	0.9108	0.0312
293.2	0.0018	0.9414	0.0286
293.2	0.0015	0.9674	0.0314
293.2	0.0011	0.9989	0.0011
313.2	0.9084	0.0916	0.0044
313.2	0.668	0.1935	0.0065
313.2	0.4988	0.285	0.0091
313.2	0.3399	0.3911	0.0124
313.2	0.2423	0.4771	0.0151
313.2	0.1718	0.5557	0.0144
313.2	0.1079	0.6413	0.0121
313.2	0.0716	0.6955	0.0108
313.2	0.0514	0.7297	0.0108
313.2	0.025	0.7885	0.0113
313.2	0.0121	0.8376	0.0163
313.2	0.0079	0.8692	0.0294
313.2	0.0044	0.9034	0.0335
313.2	0.0028	0.9406	0.0394
313.2	0.0017	0.97	0.0278
313.2	0.0011	0.9989	0.0011

System: water + acetic acid + 2-methylpropyl ethanoate; phases: Liquid
Fixed: Pressure, kPa = 95
Property: Mass density, kg/m3 (Liquid); method: Vibrating tube method
Temperature, K	Mole fraction of water	Mole fraction of 2-methylpropyl ethanoate	Mass density, kg/m3	uncertainty
293.2	0.0646	0.9354	872.567	1.941
293.2	0.1574	0.6936	891.781	1.896
293.2	0.2463	0.5365	907.445	1.88
293.2	0.3682	0.3523	933.158	1.871
293.2	0.4599	0.2463	953.692	1.87
293.2	0.5281	0.1844	968.757	1.871
293.2	0.6291	0.1104	992.372	1.873
293.2	0.6968	0.0657	1010.967	1.875
293.2	0.7624	0.0317	1029.085	1.878
293.2	0.8101	0.0163	1036.416	1.879
293.2	0.8364	0.0109	1037.642	1.879
293.2	0.88	0.0057	1034.237	1.879
293.2	0.9108	0.0032	1029.107	1.874
293.2	0.9414	0.0018	1020.883	1.853
293.2	0.9674	0.0015	1011.58	1.85
293.2	0.9989	0.0011	998.084	1.821
313.2	0.0916	0.9084	851.614	1.927
313.2	0.1935	0.668	871.467	1.888
313.2	0.285	0.4988	889.3	1.874
313.2	0.3911	0.3399	913.161	1.868
313.2	0.4771	0.2423	932.621	1.867
313.2	0.5557	0.1718	948.419	1.868
313.2	0.6413	0.1079	976.79	1.871
313.2	0.6955	0.0716	997.945	1.873
313.2	0.7297	0.0514	1005.499	1.875
313.2	0.7885	0.025	1016.393	1.876
313.2	0.8376	0.0121	1021.436	1.877
313.2	0.8692	0.0079	1020.982	1.877
313.2	0.9034	0.0044	1017.741	1.876
313.2	0.9406	0.0028	1010.32	1.865
313.2	0.97	0.0017	1002.281	1.85
313.2	0.9989	0.0011	992.075	1.821

System: water + acetic acid + 2-methylpropyl ethanoate; phases: Liquid
Fixed: Pressure, kPa = 95
Property: Refractive index (Na D-line) (Liquid); method: Standard Abbe refractometry
Temperature, K	Mole fraction of water	Mole fraction of 2-methylpropyl ethanoate	Refractive index (Na D-line)	uncertainty
293.2	0.0646	0.9354	1.3898	0.0015
293.2	0.1574	0.6936	1.3886	0.0015
293.2	0.2463	0.5365	1.3874	0.0015
293.2	0.3682	0.3523	1.3851	0.0014
293.2	0.4599	0.2463	1.3829	0.0014
293.2	0.5281	0.1844	1.3809	0.0014
293.2	0.6291	0.1104	1.3775	0.0023
293.2	0.6968	0.0657	1.3731	0.0017
293.2	0.7624	0.0317	1.3679	0.0015
293.2	0.8101	0.0163	1.3636	0.0015
293.2	0.8364	0.0109	1.3607	0.0016
293.2	0.88	0.0057	1.3553	0.0023
293.2	0.9108	0.0032	1.3509	0.0032
293.2	0.9414	0.0018	1.3456	0.002
293.2	0.9674	0.0015	1.3405	0.0337
293.2	0.9989	0.0011	1.3335	0.0015
313.2	0.0916	0.9084	1.3801	0.0015
313.2	0.1935	0.668	1.3789	0.0015
313.2	0.285	0.4988	1.3778	0.0015
313.2	0.3911	0.3399	1.3762	0.0015
313.2	0.4771	0.2423	1.374	0.0015
313.2	0.5557	0.1718	1.3709	0.0017
313.2	0.6413	0.1079	1.3654	0.0026
313.2	0.6955	0.0716	1.3642	0.0017
313.2	0.7297	0.0514	1.3636	0.0017
313.2	0.7885	0.025	1.3597	0.0015
313.2	0.8376	0.0121	1.355	0.0015
313.2	0.8692	0.0079	1.3515	0.0028
313.2	0.9034	0.0044	1.347	0.0018
313.2	0.9406	0.0028	1.3415	0.0113
313.2	0.97	0.0017	1.3365	0.0035
313.2	0.9989	0.0011	1.3307	0.0014

System: water + acetic acid + 2-methylpropyl ethanoate; phases: Liquid mixture 2, Liquid mixture 1
Fixed: Pressure, kPa = 95
Property: Mole fraction of acetic acid (Liquid mixture 2); method: Density calibration data
Property: Mole fraction of acetic acid (Liquid mixture 1); method: Density calibration data
Property: Mole fraction of water (Liquid mixture 1); method: Density calibration data
Temperature, K	Mole fraction of water	Mole fraction of acetic acid	uncertainty	Mole fraction of acetic acid	uncertainty	Mole fraction of water	uncertainty
293.2	0.935	0.064	0.0118	0.1312	0.0128	0.157	
293.2	0.9085	0.0875	0.0117	0.1799	0.0123	0.2055	
293.2	0.8799	0.1119	0.0116	0.228	0.0114	0.2659	
293.2	0.8507	0.1358	0.0113	0.2661	0.0105	0.3328	
293.2	0.8075	0.1686	0.0114	0.2947	0.0106	0.4287	
313.2	0.9346	0.0636	0.0118	0.1255	0.0126	0.1869	
313.2	0.9066	0.0885	0.0117	0.1713	0.0121	0.2337	
313.2	0.8752	0.115	0.0115	0.2152	0.0113	0.2898	
313.2	0.8413	0.142	0.0113	0.25	0.0105	0.3504	
313.2	0.8013	0.1714	0.0113	0.2757	0.0105	0.4248	

System: water + acetic acid + 2-methylpropyl ethanoate; phases: Liquid
Fixed: Pressure, kPa = 95
Property: Mass density, kg/m3 (Liquid); method: Vibrating tube method
Temperature, K	Mole fraction of water	Mole fraction of acetic acid	Mass density, kg/m3	uncertainty
293.2	0.157	0.1312	890.242	2.132
293.2	0.2055	0.1799	899.389	2.266
293.2	0.2659	0.228	911.333	2.254
293.2	0.3328	0.2661	925.035	2.163
293.2	0.4287	0.2947	945.262	2.156
293.2	0.935	0.064	1020.431	4.725
293.2	0.9085	0.0875	1027.229	4.726
293.2	0.8799	0.1119	1033.17	4.439
293.2	0.8507	0.1358	1036.554	3.775
293.2	0.8075	0.1686	1035.556	3.156
313.2	0.1869	0.1255	869.722	2.325
313.2	0.2337	0.1713	879.337	2.448
313.2	0.2898	0.2152	891.614	2.433
313.2	0.3504	0.25	905.373	2.608
313.2	0.4248	0.2757	923.278	2.477
313.2	0.9346	0.0636	1010.082	4.409
313.2	0.9066	0.0885	1015.571	4.41
313.2	0.8752	0.115	1019.77	4.047
313.2	0.8413	0.142	1021.154	3.823
313.2	0.8013	0.1714	1018.428	3.074

System: water + acetic acid + 2-methylpropyl ethanoate; phases: Liquid
Fixed: Pressure, kPa = 95
Property: Refractive index (Na D-line) (Liquid); method: Standard Abbe refractometry
Temperature, K	Mole fraction of water	Mole fraction of acetic acid	Refractive index (Na D-line)	uncertainty
293.2	0.157	0.1312	1.3886	0.0014
293.2	0.2055	0.1799	1.3879	0.0013
293.2	0.2659	0.228	1.387	0.0013
293.2	0.3328	0.2661	1.3858	0.0013
293.2	0.4287	0.2947	1.3835	0.0013
293.2	0.935	0.064	1.3459	0.0017
293.2	0.9085	0.0875	1.3503	0.0017
293.2	0.8799	0.1119	1.3548	0.0017
293.2	0.8507	0.1358	1.359	0.0016
293.2	0.8075	0.1686	1.3643	0.0016
313.2	0.1869	0.1255	1.3792	0.0013
313.2	0.2337	0.1713	1.3785	0.0013
313.2	0.2898	0.2152	1.3777	0.0013
313.2	0.3504	0.25	1.3767	0.0013
313.2	0.4248	0.2757	1.3753	0.0013
313.2	0.9346	0.0636	1.3416	0.0016
313.2	0.9066	0.0885	1.3456	0.0016
313.2	0.8752	0.115	1.3498	0.0016
313.2	0.8413	0.142	1.3539	0.0015
313.2	0.8013	0.1714	1.3581	0.0015

System: water + acetic acid + 3-methylbutyl ethanoate; phases: Liquid mixture 1, Liquid mixture 2
Fixed: Pressure, kPa = 95
Property: Mole fraction of water (Liquid mixture 1); method: Titration method
Temperature, K	Mole fraction of 3-methylbutyl ethanoate	Mole fraction of water	uncertainty
293.2	0.9502	0.0498	0.004
293.2	0.6921	0.1381	0.0056
293.2	0.483	0.248	0.0083
293.2	0.3857	0.3055	0.0102
293.2	0.3116	0.3623	0.0121
293.2	0.2563	0.409	0.0137
293.2	0.1915	0.47	0.0158
293.2	0.1513	0.5196	0.0168
293.2	0.1105	0.5774	0.0155
293.2	0.0656	0.6426	0.0157
293.2	0.0164	0.7574	0.0321
293.2	0.0089	0.7977	0.0539
293.2	0.0046	0.8438	0.0341
293.2	0.0023	0.8888	0.0321
293.2	0.0016	0.9205	0.0272
293.2	0.0006	0.9577	0.0121
293.2	0.0005	0.9995	0.0005
313.2	0.91	0.09	0.0046
313.2	0.6539	0.1817	0.0065
313.2	0.5115	0.2558	0.0086
313.2	0.3514	0.3484	0.0116
313.2	0.1832	0.4979	0.0168
313.2	0.1429	0.5443	0.0162
313.2	0.0537	0.6717	0.0142
313.2	0.0169	0.7661	0.0285
313.2	0.0093	0.8022	0.0525
313.2	0.0048	0.8446	0.0316
313.2	0.0017	0.9027	0.0229
313.2	0.0011	0.9319	0.0178
313.2	0.0012	0.9636	0.0242
313.2	0.0006	0.9994	0.0006

System: water + acetic acid + 3-methylbutyl ethanoate; phases: Liquid
Fixed: Pressure, kPa = 95
Property: Mass density, kg/m3 (Liquid); method: Vibrating tube method
Temperature, K	Mole fraction of water	Mole fraction of 3-methylbutyl ethanoate	Mass density, kg/m3	uncertainty
293.2	0.0498	0.9502	873.507	7.765
293.2	0.1381	0.6921	891.71	7.765
293.2	0.248	0.483	912.158	7.766
293.2	0.3055	0.3857	925.652	7.766
293.2	0.3623	0.3116	937.585	7.767
293.2	0.409	0.2563	951.949	7.767
293.2	0.47	0.1915	965.379	7.768
293.2	0.5196	0.1513	980.629	7.769
293.2	0.5774	0.1105	992.748	7.77
293.2	0.6426	0.0656	1011.921	7.771
293.2	0.7574	0.0164	1041.7	7.773
293.2	0.7977	0.0089	1044.59	7.773
293.2	0.8438	0.0046	1042.428	7.764
293.2	0.8888	0.0023	1034.089	7.753
293.2	0.9205	0.0016	1027.238	7.751
293.2	0.9577	0.0006	1016.059	7.749
293.2	0.9995	0.0005	997.832	7.742
313.2	0.09	0.91	856.076	7.764
313.2	0.1817	0.6539	873.128	7.764
313.2	0.2558	0.5115	886.38	7.764
313.2	0.3484	0.3514	909.265	7.765
313.2	0.4979	0.1832	945.04	7.767
313.2	0.5443	0.1429	956.008	7.768
313.2	0.6717	0.0537	998.414	7.77
313.2	0.7661	0.0169	1024.202	7.772
313.2	0.8022	0.0093	1027.439	7.772
313.2	0.8446	0.0048	1026.959	7.765
313.2	0.9027	0.0017	1019.936	7.751
313.2	0.9319	0.0011	1014.055	7.75
313.2	0.9636	0.0012	1004.841	7.749
313.2	0.9994	0.0006	992.175	7.742

System: water + acetic acid + 3-methylbutyl ethanoate; phases: Liquid
Fixed: Pressure, kPa = 95
Property: Refractive index (Na D-line) (Liquid); method: Standard Abbe refractometry
Temperature, K	Mole fraction of water	Mole fraction of 3-methylbutyl ethanoate	Refractive index (Na D-line)	uncertainty
293.2	0.0498	0.9502	1.4004	0.0144
293.2	0.1381	0.6921	1.3977	0.0144
293.2	0.248	0.483	1.3948	0.0144
293.2	0.3055	0.3857	1.3927	0.0144
293.2	0.3623	0.3116	1.3905	0.0144
293.2	0.409	0.2563	1.3888	0.0192
293.2	0.47	0.1915	1.373	0.0162
293.2	0.5196	0.1513	1.3746	0.0144
293.2	0.5774	0.1105	1.3772	0.0144
293.2	0.6426	0.0656	1.3773	0.0145
293.2	0.7574	0.0164	1.3687	0.0144
293.2	0.7977	0.0089	1.3643	0.0144
293.2	0.8438	0.0046	1.3594	0.0149
293.2	0.8888	0.0023	1.353	0.0145
293.2	0.9205	0.0016	1.3492	0.0254
293.2	0.9577	0.0006	1.3424	0.0144
293.2	0.9995	0.0005	1.3332	0.0144
313.2	0.09	0.91	1.3909	0.0144
313.2	0.1817	0.6539	1.3883	0.0144
313.2	0.2558	0.5115	1.3867	0.0144
313.2	0.3484	0.3514	1.3834	0.0144
313.2	0.4979	0.1832	1.3706	0.0144
313.2	0.5443	0.1429	1.374	0.0144
313.2	0.6717	0.0537	1.3676	0.0144
313.2	0.7661	0.0169	1.3613	0.0144
313.2	0.8022	0.0093	1.3581	0.0144
313.2	0.8446	0.0048	1.354	0.0145
313.2	0.9027	0.0017	1.3472	0.0144
313.2	0.9319	0.0011	1.3431	0.0144
313.2	0.9636	0.0012	1.3375	0.0144
313.2	0.9994	0.0006	1.3306	0.0144

System: water + acetic acid + 3-methylbutyl ethanoate; phases: Liquid mixture 2, Liquid mixture 1
Fixed: Pressure, kPa = 95
Property: Mole fraction of acetic acid (Liquid mixture 2); method: Density calibration data
Property: Mole fraction of acetic acid (Liquid mixture 1); method: Density calibration data
Property: Mole fraction of water (Liquid mixture 1); method: Density calibration data
Temperature, K	Mole fraction of water	Mole fraction of acetic acid	uncertainty	Mole fraction of acetic acid	uncertainty	Mole fraction of water	uncertainty
293.2	0.9118	0.0872	0.0086	0.1137	0.008	0.1116	
293.2	0.8825	0.1139	0.0087	0.1796	0.0097	0.1614	
293.2	0.8561	0.1374	0.0088	0.2261	0.0097	0.2039	
293.2	0.8329	0.1574	0.0089	0.2711	0.01	0.2552	
293.2	0.8122	0.1747	0.009	0.3025	0.0103	0.3029	
313.2	0.927	0.0728	0.0085	0.122	0.0094	0.1607	
313.2	0.8966	0.1013	0.0086	0.1677	0.0096	0.1958	
313.2	0.8668	0.1285	0.0088	0.2071	0.0096	0.2309	
313.2	0.8319	0.1589	0.0089	0.2528	0.0098	0.2807	
313.2	0.8024	0.1833	0.0091	0.2849	0.0101	0.3268	

System: water + acetic acid + 3-methylbutyl ethanoate; phases: Liquid
Fixed: Pressure, kPa = 95
Property: Mass density, kg/m3 (Liquid); method: Vibrating tube method
Temperature, K	Mole fraction of water	Mole fraction of acetic acid	Mass density, kg/m3	uncertainty
293.2	0.1116	0.1137	885.374	7.754
293.2	0.1614	0.1796	895.644	7.763
293.2	0.2039	0.2261	904.995	7.762
293.2	0.2552	0.2711	916.33	7.762
293.2	0.3029	0.3025	927.122	7.769
293.2	0.9118	0.0872	1023.803	8.628
293.2	0.8825	0.1139	1031.625	8.579
293.2	0.8561	0.1374	1038.05	8.499
293.2	0.8329	0.1574	1042.855	8.235
293.2	0.8122	0.1747	1044.344	8.235
313.2	0.1607	0.122	868.293	7.761
313.2	0.1958	0.1677	876.733	7.772
313.2	0.2309	0.2071	885.049	7.771
313.2	0.2807	0.2528	897.252	7.773
313.2	0.3268	0.2849	909.336	7.772
313.2	0.927	0.0728	1012.848	8.55
313.2	0.8966	0.1013	1019.703	8.31
313.2	0.8668	0.1285	1023.951	8.311
313.2	0.8319	0.1589	1027.298	8.046
313.2	0.8024	0.1833	1026.986	8.107

System: water + acetic acid + 3-methylbutyl ethanoate; phases: Liquid
Fixed: Pressure, kPa = 95
Property: Refractive index (Na D-line) (Liquid); method: Standard Abbe refractometry
Temperature, K	Mole fraction of water	Mole fraction of acetic acid	Refractive index (Na D-line)	uncertainty
293.2	0.1116	0.1137	1.3983	0.0006
293.2	0.1614	0.1796	1.3972	0.0006
293.2	0.2039	0.2261	1.3958	0.0006
293.2	0.2552	0.2711	1.3942	0.0006
293.2	0.3029	0.3025	1.3926	0.0005
293.2	0.9118	0.0872	1.3468	0.001
293.2	0.8825	0.1139	1.3514	0.0011
293.2	0.8561	0.1374	1.3559	0.0012
293.2	0.8329	0.1574	1.3602	0.0012
293.2	0.8122	0.1747	1.3636	0.0012
313.2	0.1607	0.122	1.3891	0.0006
313.2	0.1958	0.1677	1.388	0.0006
313.2	0.2309	0.2071	1.3868	0.0006
313.2	0.2807	0.2528	1.3851	0.0006
313.2	0.3268	0.2849	1.3836	0.0006
313.2	0.927	0.0728	1.3425	0.0009
313.2	0.8966	0.1013	1.347	0.0009
313.2	0.8668	0.1285	1.351	0.0009
313.2	0.8319	0.1589	1.3554	0.0008
313.2	0.8024	0.1833	1.3586	0.0008

System: water + acetic acid + heptyl ethanoate; phases: Liquid mixture 1, Liquid mixture 2
Fixed: Pressure, kPa = 95
Property: Mole fraction of water (Liquid mixture 1); method: Titration method
Temperature, K	Mole fraction of heptyl ethanoate	Mole fraction of water	uncertainty
293.2	0.9668	0.0332	0.0068
293.2	0.6875	0.1223	0.0076
293.2	0.5334	0.175	0.0087
293.2	0.4354	0.2159	0.0102
293.2	0.3514	0.2681	0.012
293.2	0.2676	0.3217	0.0137
293.2	0.195	0.3815	0.016
293.2	0.1576	0.4194	0.0182
293.2	0.1287	0.4523	0.0194
293.2	0.1139	0.469	0.0217
293.2	0.0787	0.5198	0.0226
293.2	0.0498	0.5617	0.0254
293.2	0.0226	0.6219	0.0352
293.2	0.0143	0.6454	0.0475
293.2	0.0079	0.6827	0.0343
293.2	0.0044	0.7228	0.0262
293.2	0.0021	0.7694	0.023
293.2	0.0013	0.8096	0.0182
293.2	0.001	0.853	0.0171
293.2	0.0005	0.8914	0.011
293.2	0.0002	0.934	0.0073
293.2	0.0002	0.9693	0.0074
293.2	0	1	
313.2	0.9709	0.0291	0.0073
313.2	0.5135	0.2078	0.0094
313.2	0.3346	0.2919	0.0118
313.2	0.2481	0.3508	0.0148
313.2	0.1512	0.4375	0.0177
313.2	0.1134	0.4836	0.0214
313.2	0.0774	0.5333	0.022
313.2	0.0456	0.5791	0.0234
313.2	0.0274	0.6167	0.0316
313.2	0.0152	0.6552	0.0749
313.2	0.0058	0.7197	0.0293
313.2	0.0027	0.7713	0.0265
313.2	0.0014	0.8048	0.0171
313.2	0.0007	0.8471	0.0117
313.2	0.0004	0.8935	0.0091
313.2	0.0002	0.941	0.0071
313.2	0.0003	0.97	0.0087
313.2	0.0001	0.9999	0.0001

System: water + acetic acid + heptyl ethanoate; phases: Liquid
Fixed: Pressure, kPa = 95
Property: Mass density, kg/m3 (Liquid); method: Vibrating tube method
Temperature, K	Mole fraction of water	Mole fraction of heptyl ethanoate	Mass density, kg/m3	uncertainty
293.2	0.0332	0.9668	871.044	7.847
293.2	0.1223	0.6875	886.59	7.836
293.2	0.175	0.5334	900.617	7.835
293.2	0.2159	0.4354	912.386	7.835
293.2	0.2681	0.3514	923.077	7.836
293.2	0.3217	0.2676	938.995	7.839
293.2	0.3815	0.195	956.545	7.842
293.2	0.4194	0.1576	969.044	7.845
293.2	0.4523	0.1287	978.849	7.847
293.2	0.469	0.1139	984.91	7.848
293.2	0.5198	0.0787	1002.147	7.852
293.2	0.5617	0.0498	1020.085	7.856
293.2	0.6219	0.0226	1041.506	7.861
293.2	0.6454	0.0143	1048.728	7.863
293.2	0.6827	0.0079	1054.016	7.809
293.2	0.7228	0.0044	1055.668	7.779
293.2	0.7694	0.0021	1054.381	7.768
293.2	0.8096	0.0013	1050.778	7.766
293.2	0.853	0.001	1044.393	7.765
293.2	0.8914	0.0005	1036.6	7.764
293.2	0.934	0.0002	1024.756	7.763
293.2	0.9693	0.0002	1011.806	7.763
293.2	1	0	998.361	7.742
313.2	0.0291	0.9709	853.344	7.843
313.2	0.2078	0.5135	882.47	7.83
313.2	0.2919	0.3346	906.33	7.833
313.2	0.3508	0.2481	922.392	7.835
313.2	0.4375	0.1512	945.75	7.84
313.2	0.4836	0.1134	956.84	7.842
313.2	0.5333	0.0774	990.261	7.849
313.2	0.5791	0.0456	1008.155	7.853
313.2	0.6167	0.0274	1018.947	7.856
313.2	0.6552	0.0152	1029.319	7.858
313.2	0.7197	0.0058	1036.807	7.787
313.2	0.7713	0.0027	1037.009	7.769
313.2	0.8048	0.0014	1035.235	7.765
313.2	0.8471	0.0007	1031.053	7.764
313.2	0.8935	0.0004	1023.529	7.763
313.2	0.941	0.0002	1012.434	7.763
313.2	0.97	0.0003	1003.418	7.762
313.2	0.9999	0.0001	992.341	7.742

System: water + acetic acid + heptyl ethanoate; phases: Liquid
Fixed: Pressure, kPa = 95
Property: Refractive index (Na D-line) (Liquid); method: Standard Abbe refractometry
Temperature, K	Mole fraction of water	Mole fraction of heptyl ethanoate	Refractive index (Na D-line)	uncertainty
293.2	0.0332	0.9668	1.4143	0.0144
293.2	0.1223	0.6875	1.4105	0.0146
293.2	0.175	0.5334	1.4071	0.0144
293.2	0.2159	0.4354	1.4045	0.0144
293.2	0.2681	0.3514	1.4015	0.0144
293.2	0.3217	0.2676	1.3986	0.0144
293.2	0.3815	0.195	1.3949	0.0144
293.2	0.4194	0.1576	1.3927	0.0144
293.2	0.4523	0.1287	1.3906	0.0144
293.2	0.469	0.1139	1.3892	0.0144
293.2	0.5198	0.0787	1.3862	0.0182
293.2	0.5617	0.0498	1.3816	0.0144
293.2	0.6219	0.0226	1.3768	0.0144
293.2	0.6454	0.0143	1.3745	0.0144
293.2	0.6827	0.0079	1.3719	0.0144
293.2	0.7228	0.0044	1.3694	0.0144
293.2	0.7694	0.0021	1.3658	0.0144
293.2	0.8096	0.0013	1.3624	0.0145
293.2	0.853	0.001	1.3582	0.0157
293.2	0.8914	0.0005	1.353	0.0145
293.2	0.934	0.0002	1.3466	0.0145
293.2	0.9693	0.0002	1.3399	0.0145
293.2	1	0	1.333	0.0144
313.2	0.0291	0.9709	1.4056	0.0144
313.2	0.2078	0.5135	1.3984	0.0144
313.2	0.2919	0.3346	1.3928	0.0144
313.2	0.3508	0.2481	1.3892	0.0144
313.2	0.4375	0.1512	1.3832	0.0152
313.2	0.4836	0.1134	1.3752	0.0221
313.2	0.5333	0.0774	1.373	0.024
313.2	0.5791	0.0456	1.3731	0.0149
313.2	0.6167	0.0274	1.3708	0.0144
313.2	0.6552	0.0152	1.3683	0.0144
313.2	0.7197	0.0058	1.3634	0.0144
313.2	0.7713	0.0027	1.3598	0.0145
313.2	0.8048	0.0014	1.3571	0.0144
313.2	0.8471	0.0007	1.3534	0.0144
313.2	0.8935	0.0004	1.3483	0.0144
313.2	0.941	0.0002	1.3416	0.0145
313.2	0.97	0.0003	1.3365	0.0145
313.2	0.9999	0.0001	1.3305	0.0144

System: water + acetic acid + heptyl ethanoate; phases: Liquid mixture 2, Liquid mixture 1
Fixed: Pressure, kPa = 95
Property: Mole fraction of acetic acid (Liquid mixture 2); method: Density calibration data
Property: Mole fraction of acetic acid (Liquid mixture 1); method: Density calibration data
Property: Mole fraction of water (Liquid mixture 1); method: Density calibration data
Temperature, K	Mole fraction of water	Mole fraction of acetic acid	uncertainty	Mole fraction of acetic acid	uncertainty	Mole fraction of water	uncertainty
293.2	0.9427	0.057	0.0119	0.104	0.0193	0.0746	
293.2	0.8803	0.1178	0.0122	0.1632	0.0184	0.1042	
293.2	0.825	0.1725	0.0125	0.2227	0.0171	0.1381	
293.2	0.7895	0.2072	0.0126	0.2725	0.0157	0.1709	
293.2	0.7565	0.2386	0.0127	0.3178	0.0144	0.2063	
293.2	0.7206	0.2715	0.0129	0.3681	0.0143	0.2566	
313.2	0.9375	0.061	0.0121	0.1325	0.0167	0.0986	
313.2	0.877	0.1218	0.0124	0.1754	0.0164	0.1246	
313.2	0.8351	0.1644	0.0126	0.2142	0.0155	0.1503	
313.2	0.7976	0.2017	0.0126	0.2548	0.0147	0.1803	
313.2	0.7527	0.2447	0.0127	0.2965	0.0139	0.2158	
313.2	0.7181	0.2758	0.0128	0.336	0.0138	0.2563	

System: water + acetic acid + heptyl ethanoate; phases: Liquid
Fixed: Pressure, kPa = 95
Property: Mass density, kg/m3 (Liquid); method: Vibrating tube method
Temperature, K	Mole fraction of water	Mole fraction of acetic acid	Mass density, kg/m3	uncertainty
293.2	0.0746	0.104	877.256	2.198
293.2	0.1042	0.1632	884.254	2.366
293.2	0.1381	0.2227	892.146	2.647
293.2	0.1709	0.2725	900.332	2.787
293.2	0.2063	0.3178	909.181	2.784
293.2	0.2566	0.3681	922.21	2.779
293.2	0.9427	0.057	1019.593	4.163
293.2	0.8803	0.1178	1034.003	3.819
293.2	0.825	0.1725	1044.416	4.131
293.2	0.7895	0.2072	1050.921	4.07
293.2	0.7565	0.2386	1054.445	4.468
293.2	0.7206	0.2715	1055.237	3.933
313.2	0.0986	0.1325	859.977	2.438
313.2	0.1246	0.1754	867.44	2.553
313.2	0.1503	0.2142	873.506	2.729
313.2	0.1803	0.2548	882.69	2.801
313.2	0.2158	0.2965	891.854	2.813
313.2	0.2563	0.336	903.802	2.813
313.2	0.9375	0.061	1010.482	4.134
313.2	0.877	0.1218	1022.518	3.932
313.2	0.8351	0.1644	1029.835	3.928
313.2	0.7976	0.2017	1034.817	4.18
313.2	0.7527	0.2447	1037.135	3.493
313.2	0.7181	0.2758	1035.802	3.778

System: water + acetic acid + heptyl ethanoate; phases: Liquid
Fixed: Pressure, kPa = 95
Property: Refractive index (Na D-line) (Liquid); method: Standard Abbe refractometry
Temperature, K	Mole fraction of water	Mole fraction of acetic acid	Refractive index (Na D-line)	uncertainty
293.2	0.0746	0.104	1.4128	0.0011
293.2	0.1042	0.1632	1.4111	0.0011
293.2	0.1381	0.2227	1.4091	0.0011
293.2	0.1709	0.2725	1.4072	0.0011
293.2	0.2063	0.3178	1.4051	0.0011
293.2	0.2566	0.3681	1.4021	0.0011
293.2	0.9427	0.057	1.3439	0.0012
293.2	0.8803	0.1178	1.3516	0.0011
293.2	0.825	0.1725	1.3582	0.0011
293.2	0.7895	0.2072	1.3624	0.0011
293.2	0.7565	0.2386	1.3661	0.0011
293.2	0.7206	0.2715	1.3699	0.0011
313.2	0.0986	0.1325	1.4039	0.0011
313.2	0.1246	0.1754	1.4022	0.0011
313.2	0.1503	0.2142	1.4004	0.0011
313.2	0.1803	0.2548	1.3985	0.001
313.2	0.2158	0.2965	1.3961	0.001
313.2	0.2563	0.336	1.3935	0.001
313.2	0.9375	0.061	1.3406	0.0011
313.2	0.877	0.1218	1.3477	0.0011
313.2	0.8351	0.1644	1.3525	0.0011
313.2	0.7976	0.2017	1.3566	0.0011
313.2	0.7527	0.2447	1.3611	0.001
313.2	0.7181	0.2758	1.3642	0.001

System: water + ethyl acetate; phases: Liquid
Fixed: Pressure, kPa = 95
Property: Mass density, kg/m3 (Liquid); method: Vibrating tube method
Temperature, K	Mole fraction of water	Mass density, kg/m3	uncertainty
293.2	0.1267	905.4	10.764
293.2	0.9828	998.227	10.761
313.2	0.183	882.844	10.766
313.2	0.9837	990.48	10.762

System: water + ethyl acetate; phases: Liquid mixture 1, Liquid mixture 2
Fixed: Pressure, kPa = 95
Property: Mole fraction of water (Liquid mixture 1); method: Titration method
Temperature, K	Mole fraction of water	uncertainty
293.2	0.1267	0.0027
293.2	0.9828	0.0082
313.2	0.183	0.0033
313.2	0.9837	0.0088

System: water + ethyl acetate; phases: Liquid
Fixed: Pressure, kPa = 95
Property: Refractive index (Na D-line) (Liquid); method: Standard Abbe refractometry
Temperature, K	Mole fraction of water	Refractive index (Na D-line)	uncertainty
293.2	0.1267	1.3725	0.0022
293.2	0.9828	1.3387	0.0022
313.2	0.183	1.3623	0.0022
313.2	0.9837	1.334	0.0022

System: water + butyl ethanoate; phases: Liquid mixture 1, Liquid mixture 2
Fixed: Pressure, kPa = 95
Property: Mole fraction of water (Liquid mixture 1); method: Titration method
Temperature, K	Mole fraction of water	uncertainty
293.2	0.0704	0.004
293.2	0.9988	0.0012
313.2	0.0855	0.0043
313.2	0.9988	0.0012

System: water + butyl ethanoate; phases: Liquid
Fixed: Pressure, kPa = 95
Property: Mass density, kg/m3 (Liquid); method: Vibrating tube method
Temperature, K	Mole fraction of water	Mass density, kg/m3	uncertainty
293.2	0.0704	882.76	5.741
293.2	0.9988	998.132	5.729
313.2	0.0855	862.224	5.736
313.2	0.9988	992.026	5.722

System: water + butyl ethanoate; phases: Liquid
Fixed: Pressure, kPa = 95
Property: Refractive index (Na D-line) (Liquid); method: Standard Abbe refractometry
Temperature, K	Mole fraction of water	Refractive index (Na D-line)	uncertainty
293.2	0.0704	1.3939	0.0128
293.2	0.9988	1.3337	0.0128
313.2	0.0855	1.3843	0.0128
313.2	0.9988	1.3307	0.0128

System: water + 2-methylpropyl ethanoate; phases: Liquid mixture 1, Liquid mixture 2
Fixed: Pressure, kPa = 95
Property: Mole fraction of water (Liquid mixture 1); method: Titration method
Temperature, K	Mole fraction of water	uncertainty
293.2	0.0646	0.0039
293.2	0.9989	0.0011
313.2	0.0916	0.0044
313.2	0.9989	0.0011

System: water + 2-methylpropyl ethanoate; phases: Liquid
Fixed: Pressure, kPa = 95
Property: Mass density, kg/m3 (Liquid); method: Vibrating tube method
Temperature, K	Mole fraction of water	Mass density, kg/m3	uncertainty
293.2	0.0646	872.567	1.941
293.2	0.9989	998.084	1.821
313.2	0.0916	851.614	1.927
313.2	0.9989	992.075	1.821

System: water + 2-methylpropyl ethanoate; phases: Liquid
Fixed: Pressure, kPa = 95
Property: Refractive index (Na D-line) (Liquid); method: Standard Abbe refractometry
Temperature, K	Mole fraction of water	Refractive index (Na D-line)	uncertainty
293.2	0.0646	1.3898	0.0015
293.2	0.9989	1.3335	0.0015
313.2	0.0916	1.3801	0.0015
313.2	0.9989	1.3307	0.0014

System: water + 3-methylbutyl ethanoate; phases: Liquid mixture 1, Liquid mixture 2
Fixed: Pressure, kPa = 95
Property: Mole fraction of water (Liquid mixture 1); method: Titration method
Temperature, K	Mole fraction of water	uncertainty
293.2	0.0498	0.004
293.2	0.9995	0.0005
313.2	0.09	0.0046
313.2	0.9994	0.0006

System: water + 3-methylbutyl ethanoate; phases: Liquid
Fixed: Pressure, kPa = 95
Property: Mass density, kg/m3 (Liquid); method: Vibrating tube method
Temperature, K	Mole fraction of water	Mass density, kg/m3	uncertainty
293.2	0.0498	873.507	7.765
293.2	0.9995	997.832	7.742
313.2	0.09	856.076	7.764
313.2	0.9994	992.175	7.742

System: water + 3-methylbutyl ethanoate; phases: Liquid
Fixed: Pressure, kPa = 95
Property: Refractive index (Na D-line) (Liquid); method: Standard Abbe refractometry
Temperature, K	Mole fraction of water	Refractive index (Na D-line)	uncertainty
293.2	0.0498	1.4004	0.0144
293.2	0.9995	1.3332	0.0144
313.2	0.09	1.3909	0.0144
313.2	0.9994	1.3306	0.0144

System: water + heptyl ethanoate; phases: Liquid mixture 1, Liquid mixture 2
Fixed: Pressure, kPa = 95
Property: Mole fraction of water (Liquid mixture 1); method: Titration method
Temperature, K	Mole fraction of water	uncertainty
293.2	0.0332	0.0056
313.2	0.0291	0.0056
313.2	0.9999	0.0001

System: water + heptyl ethanoate; phases: Liquid
Fixed: Pressure, kPa = 95
Property: Mass density, kg/m3 (Liquid); method: Vibrating tube method
Temperature, K	Mole fraction of water	Mass density, kg/m3	uncertainty
293.2	0.0332	871.044	7.847
313.2	0.0291	853.344	7.843
313.2	0.9999	992.341	7.742

System: water + heptyl ethanoate; phases: Liquid
Fixed: Pressure, kPa = 95
Property: Refractive index (Na D-line) (Liquid); method: Standard Abbe refractometry
Temperature, K	Mole fraction of water	Refractive index (Na D-line)	uncertainty
293.2	0.0332	1.4143	0.0144
313.2	0.0291	1.4056	0.0144
313.2	0.9999	1.3305	0.0144
