Measured thermophysical data. Isobaric vapor liquid equilibrium for ternary mixtures of ethanol and methylcyclohexane with 3-methylpentane and tert-butyl alcohol at 101.3 kPa
Source: Fluid Phase Equilib., 2007, 10.1016/j.fluid.2007.06.008
Compound 1: 3-methylpentane, C6H14, InChI=1S/C6H14/c1-4-6(3)5-2/h6H,4-5H2,1-3H3, purity 99%
Compound 2: methylcyclohexane, C7H14, InChI=1S/C7H14/c1-7-5-3-2-4-6-7/h7H,2-6H2,1H3, purity 99%
Compound 3: 2-methylpropan-2-ol, C4H10O, InChI=1S/C4H10O/c1-4(2,3)5/h5H,1-3H3, purity 99.5%
Compound 4: ethanol, C2H6O, InChI=1S/C2H6O/c1-2-3/h3H,2H2,1H3

System: 3-methylpentane; phases: Liquid, Gas
Property: Normal boiling temperature, K (Liquid); method: Ebulliometric method (Recirculating still)
Normal boiling temperature, K	uncertainty
336.3	0.1

System: 3-methylpentane; phases: Liquid
Property: Refractive index (Na D-line) (Liquid); method: Standard Abbe refractometry
Temperature, K	Pressure, kPa	Refractive index (Na D-line)	uncertainty
298.15	101.325	1.3744	0.0005

System: 3-methylpentane; phases: Liquid
Property: Mass density, kg/m3 (Liquid); method: VIBTUB:UFactor:6
Temperature, K	Pressure, kPa	Mass density, kg/m3	uncertainty
298.15	101.325	659.62	1.4

System: methylcyclohexane; phases: Liquid, Gas
Property: Normal boiling temperature, K (Liquid); method: Ebulliometric method (Recirculating still)
Normal boiling temperature, K	uncertainty
373.96	0.1

System: methylcyclohexane; phases: Liquid
Property: Refractive index (Na D-line) (Liquid); method: Standard Abbe refractometry
Temperature, K	Pressure, kPa	Refractive index (Na D-line)	uncertainty
298.15	101.325	1.4208	0.0005

System: methylcyclohexane; phases: Liquid
Property: Mass density, kg/m3 (Liquid); method: VIBTUB:UFactor:6
Temperature, K	Pressure, kPa	Mass density, kg/m3	uncertainty
298.15	101.325	764.92	1.12

System: 2-methylpropan-2-ol; phases: Liquid, Gas
Property: Normal boiling temperature, K (Liquid); method: Ebulliometric method (Recirculating still)
Normal boiling temperature, K	uncertainty
355.33	0.1

System: 2-methylpropan-2-ol; phases: Liquid
Property: Refractive index (Na D-line) (Liquid); method: Standard Abbe refractometry
Temperature, K	Pressure, kPa	Refractive index (Na D-line)	uncertainty
298.15	101.325	1.3851	0.0005

System: 2-methylpropan-2-ol; phases: Liquid
Property: Mass density, kg/m3 (Liquid); method: VIBTUB:UFactor:4
Temperature, K	Pressure, kPa	Mass density, kg/m3	uncertainty
303.15	101.325	775.4	0.66

System: ethanol; phases: Liquid, Gas
Property: Normal boiling temperature, K (Liquid); method: Ebulliometric method (Recirculating still)
Normal boiling temperature, K	uncertainty
351.41	0.1

System: ethanol; phases: Liquid
Property: Refractive index (Na D-line) (Liquid); method: Standard Abbe refractometry
Temperature, K	Pressure, kPa	Refractive index (Na D-line)	uncertainty
298.15	101.325	1.3598	0.0007

System: ethanol; phases: Liquid
Property: Mass density, kg/m3 (Liquid); method: VIBTUB:UFactor:4
Temperature, K	Pressure, kPa	Mass density, kg/m3	uncertainty
298.15	101.325	785.04	0.5

System: ethanol + 3-methylpentane + methylcyclohexane; phases: Liquid, Gas
Fixed: Pressure, kPa = 101.3
Property: Mole fraction of ethanol (Liquid); method: Chromatography
Property: Mole fraction of ethanol (Gas); method: Chromatography
Property: Mole fraction of 3-methylpentane (Gas); method: Chromatography
Temperature, K	Mole fraction of 3-methylpentane	Mole fraction of ethanol	uncertainty	Mole fraction of ethanol	uncertainty	Mole fraction of 3-methylpentane	uncertainty
350.95	0.028	0.067	0.002	0.5	0.006	0.042	
344.89	0.049	0.243	0.003	0.581	0.005	0.076	
343.45	0.043	0.519	0.004	0.477	0.005	0.157	
342.78	0.042	0.652	0.003	0.594	0.005	0.124	
342.32	0.042	0.884	0.002	0.636	0.004	0.23	
339.48	0.074	0.818	0.003	0.543	0.005	0.309	
340.18	0.081	0.706	0.003	0.537	0.005	0.253	
340.92	0.087	0.603	0.004	0.539	0.005	0.218	
341.37	0.1	0.503	0.004	0.539	0.005	0.199	
342.16	0.092	0.4	0.004	0.546	0.005	0.173	
343.05	0.086	0.301	0.003	0.55	0.005	0.141	
343.78	0.093	0.201	0.003	0.536	0.005	0.144	
345.76	0.094	0.116	0.002	0.518	0.005	0.134	
343.33	0.182	0.104	0.002	0.455	0.005	0.252	
341.3	0.188	0.206	0.003	0.479	0.005	0.261	
339.94	0.194	0.309	0.003	0.492	0.005	0.279	
339.03	0.183	0.423	0.004	0.491	0.005	0.302	
337.71	0.194	0.501	0.004	0.464	0.005	0.359	
335.09	0.2	0.649	0.003	0.436	0.005	0.456	
333.55	0.174	0.769	0.003	0.409	0.004	0.534	
332.21	0.297	0.6	0.004	0.368	0.004	0.568	
334.27	0.297	0.497	0.004	0.398	0.004	0.493	
335.69	0.303	0.396	0.004	0.408	0.004	0.454	
337	0.306	0.29	0.003	0.42	0.005	0.415	
338.67	0.292	0.191	0.002	0.427	0.005	0.374	
343.6	0.294	0.05	0.002	0.359	0.004	0.381	
338.5	0.393	0.091	0.002	0.366	0.004	0.456	
336.03	0.399	0.201	0.003	0.383	0.004	0.473	
334.84	0.389	0.296	0.003	0.384	0.004	0.492	
332.9	0.402	0.401	0.004	0.363	0.004	0.552	
329.68	0.429	0.519	0.004	0.324	0.004	0.652	
330.47	0.494	0.405	0.004	0.327	0.004	0.633	
332.39	0.494	0.296	0.003	0.344	0.004	0.577	
334.36	0.5	0.171	0.002	0.351	0.004	0.534	
340.09	0.494	0.029	0.002	0.263	0.003	0.564	
333.8	0.618	0.092	0.002	0.302	0.003	0.607	
331.46	0.61	0.205	0.003	0.318	0.004	0.62	
328.93	0.609	0.345	0.003	0.303	0.003	0.681	
329.73	0.706	0.197	0.003	0.294	0.003	0.676	
334.88	0.711	0.031	0.002	0.228	0.003	0.69	
330.25	0.797	0.098	0.002	0.263	0.003	0.707	
330.2	0.895	0.053	0.002	0.221	0.003	0.765	

System: ethanol + 2-methylpropan-2-ol + methylcyclohexane; phases: Liquid, Gas
Fixed: Pressure, kPa = 101.3
Property: Mole fraction of 2-methylpropan-2-ol (Liquid); method: Chromatography
Property: Mole fraction of 2-methylpropan-2-ol (Gas); method: Chromatography
Property: Mole fraction of ethanol (Gas); method: Chromatography
Temperature, K	Mole fraction of ethanol	Mole fraction of 2-methylpropan-2-ol	uncertainty	Mole fraction of 2-methylpropan-2-ol	uncertainty	Mole fraction of ethanol	uncertainty
355.9	0.033	0.044	0.002	0.153	0.002	0.292	
353.37	0.047	0.243	0.003	0.394	0.004	0.144	
352.35	0.049	0.48	0.004	0.514	0.005	0.094	
352.24	0.048	0.655	0.003	0.634	0.004	0.065	
354.15	0.053	0.893	0.002	0.86	0.003	0.058	
353.15	0.101	0.802	0.003	0.74	0.003	0.111	
352.16	0.101	0.701	0.003	0.637	0.004	0.119	
351.72	0.1	0.597	0.004	0.56	0.005	0.13	
351.56	0.098	0.494	0.004	0.497	0.005	0.147	
351.57	0.097	0.389	0.004	0.433	0.005	0.175	
351.67	0.094	0.288	0.003	0.365	0.004	0.213	
351.7	0.089	0.19	0.002	0.32	0.004	0.261	
351.9	0.078	0.091	0.002	0.183	0.003	0.344	
348.85	0.176	0.098	0.002	0.125	0.002	0.452	
349.61	0.184	0.201	0.003	0.223	0.003	0.368	
350.05	0.189	0.306	0.003	0.305	0.003	0.309	
350.36	0.192	0.406	0.004	0.376	0.004	0.269	
350.79	0.193	0.511	0.004	0.451	0.005	0.236	
351.96	0.197	0.658	0.003	0.575	0.005	0.213	
353.54	0.197	0.753	0.003	0.698	0.004	0.208	
351.95	0.294	0.605	0.004	0.521	0.005	0.307	
350.55	0.293	0.506	0.004	0.418	0.004	0.318	
349.7	0.291	0.402	0.004	0.333	0.004	0.342	
349.03	0.29	0.299	0.003	0.254	0.003	0.385	
348.32	0.304	0.196	0.003	0.177	0.003	0.438	
346.75	0.285	0.045	0.002	0.044	0.002	0.559	
346.77	0.39	0.101	0.002	0.078	0.002	0.543	
347.78	0.394	0.215	0.003	0.164	0.003	0.478	
348.69	0.397	0.321	0.003	0.244	0.003	0.438	
349.81	0.399	0.421	0.004	0.328	0.004	0.412	
352.44	0.394	0.553	0.004	0.48	0.005	0.406	
350.5	0.486	0.412	0.004	0.324	0.004	0.483	
348.64	0.499	0.304	0.003	0.219	0.003	0.499	
347.44	0.493	0.202	0.003	0.14	0.002	0.527	
345.93	0.494	0.053	0.002	0.035	0.002	0.598	
346.32	0.595	0.102	0.002	0.064	0.002	0.602	
347.67	0.591	0.208	0.003	0.137	0.002	0.571	
350.78	0.591	0.346	0.003	0.271	0.003	0.584	
348.71	0.697	0.203	0.003	0.138	0.002	0.653	
345.94	0.699	0.058	0.002	0.032	0.002	0.65	
347.67	0.797	0.101	0.002	0.063	0.002	0.711	
348.6	0.897	0.051	0.002	0.033	0.002	0.814	
