Measured thermophysical data. Solubilities of phosphoric acid, P,P0-1,4-phenylene P,P,P0,P0-tetraphenyl ester in the organic solvents
Source: Fluid Phase Equilib., 2015, 10.1016/j.fluid.2014.12.034
Compound 1: methanol, CH4O, InChI=1S/CH4O/c1-2/h2H,1H3, purity 99.5%
Compound 2: ethanol, C2H6O, InChI=1S/C2H6O/c1-2-3/h3H,2H2,1H3, purity 99.7%
Compound 3: acetone, C3H6O, InChI=1S/C3H6O/c1-3(2)4/h1-2H3, purity 99.5%
Compound 4: acetonitrile, C2H3N, InChI=1S/C2H3N/c1-2-3/h1H3, purity 99%
Compound 5: toluene, C7H8, InChI=1S/C7H8/c1-7-5-3-2-4-6-7/h2-6H,1H3, purity 99.5%
Compound 6: diethyl ether, C4H10O, InChI=1S/C4H10O/c1-3-5-4-2/h3-4H2,1-2H3, purity 99%
Compound 7: ethyl acetate, C4H8O2, InChI=1S/C4H8O2/c1-3-6-4(2)5/h3H2,1-2H3, purity 99.5%
Compound 8: propan-2-ol, C3H8O, InChI=1S/C3H8O/c1-3(2)4/h3-4H,1-2H3, purity 99.5%
Compound 9: propan-1-ol, C3H8O, InChI=1S/C3H8O/c1-2-3-4/h4H,2-3H2,1H3, purity 99.5%
Compound 10: 1,4-phenylene bis(diphenylphosphate), C30H24O8P2, InChI=1S/C30H24O8P2/c31-39(33-25-13-5-1-6-14-25,34-26-15-7-2-8-16-26)37-29-21-23-30(24-22-29)38-40(32,35-27-17-9-3-10-18-27)36-28-19-11-4-12-20-28/h1-24H
Compound 11: methyl ethanoate, C3H6O2, InChI=1S/C3H6O2/c1-3(4)5-2/h1-2H3, purity 99%

System: ethyl acetate + 1,4-phenylene bis(diphenylphosphate); phases: Liquid, Crystal
Fixed: Pressure, kPa = 100
Property: Mole fraction of 1,4-phenylene bis(diphenylphosphate) (Liquid); method: Gravimetric
Temperature, K	Mole fraction of 1,4-phenylene bis(diphenylphosphate)	uncertainty
293.25	0.00423	3e-05
298.15	0.00605	3e-05
303.35	0.00865	4e-05
308.25	0.01226	5e-05
313.25	0.01687	6e-05
318.15	0.02257	8e-05
323.25	0.03079	0.00011
328.15	0.04189	0.00014
333.25	0.05529	0.00017

System: acetonitrile + 1,4-phenylene bis(diphenylphosphate); phases: Liquid, Crystal
Fixed: Pressure, kPa = 100
Property: Mole fraction of 1,4-phenylene bis(diphenylphosphate) (Liquid); method: Gravimetric
Temperature, K	Mole fraction of 1,4-phenylene bis(diphenylphosphate)	uncertainty
293.25	0.00142	2e-05
298.15	0.00218	2e-05
303.25	0.0034	3e-05
308.25	0.00546	3e-05
313.25	0.00807	4e-05
318.15	0.01165	5e-05
323.25	0.01733	7e-05
328.15	0.02462	9e-05
333.25	0.03567	0.00012

System: propan-2-ol + 1,4-phenylene bis(diphenylphosphate); phases: Liquid, Crystal
Fixed: Pressure, kPa = 100
Property: Mole fraction of 1,4-phenylene bis(diphenylphosphate) (Liquid); method: Gravimetric
Temperature, K	Mole fraction of 1,4-phenylene bis(diphenylphosphate)	uncertainty
293.15	0.00013	2e-05
298.23	0.00024	2e-05
303.25	0.00041	2e-05
308.15	0.00071	2e-05
313.35	0.00125	2e-05
318.15	0.00211	2e-05
323.17	0.00346	3e-05
328.15	0.00544	3e-05
333.25	0.00933	4e-05

System: ethanol + 1,4-phenylene bis(diphenylphosphate); phases: Liquid, Crystal
Fixed: Pressure, kPa = 100
Property: Mole fraction of 1,4-phenylene bis(diphenylphosphate) (Liquid); method: Gravimetric
Temperature, K	Mole fraction of 1,4-phenylene bis(diphenylphosphate)	uncertainty
293.25	0.00037	2e-05
298.15	0.00062	2e-05
303.35	0.00097	2e-05
308.25	0.00156	2e-05
313.25	0.00238	2e-05
318.25	0.00356	2e-05
323.25	0.00528	3e-05
328.15	0.00807	4e-05
333.25	0.01149	4e-05

System: propan-1-ol + 1,4-phenylene bis(diphenylphosphate); phases: Liquid, Crystal
Fixed: Pressure, kPa = 100
Property: Mole fraction of 1,4-phenylene bis(diphenylphosphate) (Liquid); method: Gravimetric
Temperature, K	Mole fraction of 1,4-phenylene bis(diphenylphosphate)	uncertainty
293.15	0.00025	2e-05
298.17	0.00046	2e-05
303.25	0.00078	2e-05
308.15	0.00127	2e-05
313.24	0.00215	2e-05
318.18	0.0035	3e-05
323.25	0.00558	3e-05
328.15	0.00884	4e-05
333.24	0.0136	5e-05

System: acetone + 1,4-phenylene bis(diphenylphosphate); phases: Liquid, Crystal
Fixed: Pressure, kPa = 100
Property: Mole fraction of 1,4-phenylene bis(diphenylphosphate) (Liquid); method: Gravimetric
Temperature, K	Mole fraction of 1,4-phenylene bis(diphenylphosphate)	uncertainty
293.25	0.0058	3e-05
298.15	0.00849	4e-05
303.45	0.01208	5e-05
308.15	0.01709	6e-05
313.25	0.02372	8e-05
318.15	0.03321	0.00011
323.45	0.04423	0.00013

System: methanol + 1,4-phenylene bis(diphenylphosphate); phases: Liquid, Crystal
Fixed: Pressure, kPa = 100
Property: Mole fraction of 1,4-phenylene bis(diphenylphosphate) (Liquid); method: Gravimetric
Temperature, K	Mole fraction of 1,4-phenylene bis(diphenylphosphate)	uncertainty
293.25	0.00022	2e-05
298.15	0.0004	2e-05
303.25	0.00069	2e-05
308.15	0.00118	2e-05
313.25	0.00205	2e-05
318.15	0.0034	3e-05
323.45	0.00597	3e-05

System: diethyl ether + 1,4-phenylene bis(diphenylphosphate); phases: Liquid, Crystal
Fixed: Pressure, kPa = 100
Property: Mole fraction of 1,4-phenylene bis(diphenylphosphate) (Liquid); method: Gravimetric
Temperature, K	Mole fraction of 1,4-phenylene bis(diphenylphosphate)	uncertainty
288.25	0.00064	2e-05
293.25	0.00081	2e-05
298.15	0.00101	2e-05
303.25	0.00127	2e-05

System: methyl ethanoate + 1,4-phenylene bis(diphenylphosphate); phases: Liquid, Crystal
Fixed: Pressure, kPa = 100
Property: Mole fraction of 1,4-phenylene bis(diphenylphosphate) (Liquid); method: Gravimetric
Temperature, K	Mole fraction of 1,4-phenylene bis(diphenylphosphate)	uncertainty
293.25	0.00522	3e-05
298.25	0.00729	3e-05
303.25	0.0106	4e-05
308.15	0.01438	5e-05
313.15	0.02031	7e-05
318.15	0.02749	9e-05
323.45	0.03686	0.00011

System: toluene + 1,4-phenylene bis(diphenylphosphate); phases: Liquid, Crystal
Fixed: Pressure, kPa = 100
Property: Mole fraction of 1,4-phenylene bis(diphenylphosphate) (Liquid); method: Gravimetric
Temperature, K	Mole fraction of 1,4-phenylene bis(diphenylphosphate)	uncertainty
293.15	0.00378	3e-05
298.25	0.00543	3e-05
303.35	0.00795	4e-05
308.15	0.01139	4e-05
313.25	0.01536	6e-05
318.18	0.0219	8e-05
323.25	0.03032	0.0001
328.16	0.04022	0.00014
333.25	0.05555	0.00018

System: methanol + acetone + 1,4-phenylene bis(diphenylphosphate); phases: Liquid, Crystal
Fixed: Pressure, kPa = 100
Property: Mole fraction of 1,4-phenylene bis(diphenylphosphate) (Liquid); method: Gravimetric
Solvent: Mole fraction of acetone	Temperature, K	Mole fraction of 1,4-phenylene bis(diphenylphosphate)	uncertainty
0.0578	293.15	0.00041	2e-05
0.0578	298.15	0.00064	2e-05
0.0578	303.15	0.00104	2e-05
0.0578	308.15	0.00163	2e-05
0.0578	313.15	0.00252	2e-05
0.0578	318.15	0.00392	3e-05
0.0578	323.15	0.00617	3e-05
0.1212	293.15	0.00078	2e-05
0.1212	298.15	0.00122	2e-05
0.1212	303.15	0.00195	2e-05
0.1212	308.15	0.00296	2e-05
0.1212	313.15	0.00459	3e-05
0.1212	318.15	0.00691	3e-05
0.1212	323.15	0.00981	4e-05
0.1912	293.15	0.00109	2e-05
0.1912	298.15	0.00167	2e-05
0.1912	303.15	0.00259	2e-05
0.1912	308.15	0.00396	3e-05
0.1912	313.15	0.00607	3e-05
0.1912	318.15	0.00885	4e-05
0.1912	323.15	0.0131	5e-05
0.2689	293.15	0.00137	2e-05
0.2689	298.15	0.00211	2e-05
0.2689	303.15	0.00334	3e-05
0.2689	308.15	0.00526	3e-05
0.2689	313.15	0.0079	4e-05
0.2689	318.15	0.01247	5e-05
0.2689	323.15	0.01808	7e-05
0.3555	293.15	0.00193	2e-05
0.3555	298.15	0.00301	2e-05
0.3555	303.15	0.00485	3e-05
0.3555	308.15	0.00736	4e-05
0.3555	313.15	0.01197	6e-05
0.3555	318.15	0.01852	7e-05
0.3555	323.15	0.02684	9e-05
0.4528	293.15	0.0029	3e-05
0.4528	298.15	0.00466	3e-05
0.4528	303.15	0.00709	4e-05
0.4528	308.15	0.01121	5e-05
0.4528	313.15	0.01744	7e-05
0.4528	318.15	0.02571	0.0001
0.4528	323.15	0.03615	0.00011
0.5628	293.15	0.00427	3e-05
0.5628	298.15	0.00631	3e-05
0.5628	303.15	0.0094	4e-05
0.5628	308.15	0.01381	6e-05
0.5628	313.15	0.02012	8e-05
0.5628	318.15	0.02907	0.00011
0.5628	323.15	0.04047	0.00013
0.6881	293.15	0.00601	3e-05
0.6881	298.15	0.00857	4e-05
0.6881	303.15	0.01263	5e-05
0.6881	308.15	0.0173	6e-05
0.6881	313.15	0.02463	9e-05
0.6881	318.15	0.03426	0.00012
0.6881	323.15	0.04756	0.00016
0.8324	293.15	0.00757	4e-05
0.8324	298.15	0.01067	4e-05
0.8324	303.15	0.01513	6e-05
0.8324	308.15	0.02145	8e-05
0.8324	313.15	0.03057	0.00011
0.8324	318.15	0.04272	0.00015
0.8324	323.15	0.05778	0.00018
