Measured thermophysical data. Impact of fluorine on the phase behavior of bis-p-tolyl propane in supercritical CO2, 1,1-difluoroethane, and 1,1,1,2-tetrafluoroethane
Source: Fluid Phase Equilib., 2008, 10.1016/j.fluid.2008.02.016
Compound 1: carbon dioxide, CO2, InChI=1S/CO2/c2-1-3
Compound 2: 2,2-bis(p-tolyl)propane, C17H20, InChI=1S/C17H20/c1-13-5-9-15(10-6-13)17(3,4)16-11-7-14(2)8-12-16/h5-12H,1-4H3
Compound 3: 2,2-bis(p-tolyl)hexafluoropropane, C17H14F6, InChI=1S/C17H14F6/c1-11-3-7-13(8-4-11)15(16(18,19)20,17(21,22)23)14-9-5-12(2)6-10-14/h3-10H,1-2H3
Compound 4: 1,1-difluoroethane, C2H4F2, InChI=1S/C2H4F2/c1-2(3)4/h2H,1H3
Compound 5: 1,1,1,2-tetrafluoroethane, C2H2F4, InChI=1S/C2H2F4/c3-1-2(4,5)6/h1H2

System: 2,2-bis(p-tolyl)propane; phases: Crystal, Liquid, Air at 1 atmosphere
Property: Normal melting temperature, K (Crystal); method: DTA
Normal melting temperature, K	uncertainty
351.75	0.5

System: 2,2-bis(p-tolyl)propane; phases: Crystal, Liquid, Air at 1 atmosphere
Property: Molar enthalpy of transition or fusion, kJ/mol (Crystal); method: DSC
Molar enthalpy of transition or fusion, kJ/mol	uncertainty
21.2	0.6

System: 2,2-bis(p-tolyl)hexafluoropropane; phases: Crystal, Liquid, Air at 1 atmosphere
Property: Normal melting temperature, K (Crystal); method: DTA
Normal melting temperature, K	uncertainty
357.25	0.5

System: 2,2-bis(p-tolyl)hexafluoropropane; phases: Crystal, Liquid, Air at 1 atmosphere
Property: Molar enthalpy of transition or fusion, kJ/mol (Crystal); method: DSC
Molar enthalpy of transition or fusion, kJ/mol	uncertainty
22.3	0.7

System: carbon dioxide + 2,2-bis(p-tolyl)propane; phases: Fluid (supercritical or subcritical phases), Crystal
Property: Solid-liquid equilibrium temperature, K (Fluid (supercritical or subcritical phases)); method: VISOBS
Mole fraction of 2,2-bis(p-tolyl)propane	Pressure, kPa	Solid-liquid equilibrium temperature, K	uncertainty
0.01	24050	304.25	0.6
0.01	18270	306.35	0.6
0.01	14720	311.75	0.6
0.027	27730	318.75	0.6
0.027	40190	317.85	0.6
0.027	71160	320.95	0.6
0.039	34480	320.25	0.6
0.039	48240	321.25	0.6
0.039	69090	324.05	0.6

System: carbon dioxide + 2,2-bis(p-tolyl)propane; phases: Gas, Liquid
Property: Vapor or sublimation pressure, kPa (Gas); method: CCELL:UFactor:8
Mole fraction of 2,2-bis(p-tolyl)propane	Temperature, K	Vapor or sublimation pressure, kPa	uncertainty
0.01	320.85	14410	380
0.01	332.25	16960	440
0.01	350.65	20850	520
0.01	372.75	22900	570
0.027	317.95	24290	610
0.027	318.65	24150	610
0.027	321.95	24220	600
0.027	322.45	24020	600
0.027	329.85	25120	630
0.027	344.35	26010	650
0.027	358.75	28010	700
0.027	373.65	29590	740
0.039	318.45	32410	880
0.039	320.35	31240	790
0.039	323.15	31100	770
0.039	332.95	30280	750
0.039	351.95	31040	770
0.039	372.75	32760	810

System: carbon dioxide + 2,2-bis(p-tolyl)propane; phases: Liquid, Gas, Crystal
Property: Vapor or sublimation pressure, kPa (Liquid); method: CCELL:UFactor:8
Temperature, K	Vapor or sublimation pressure, kPa	uncertainty
295.35	5810	170
297.95	6210	180
301.45	6700	190
304.25	7180	200
305.65	7380	200
314.95	11590	400

System: carbon dioxide + 2,2-bis(p-tolyl)hexafluoropropane; phases: Gas, Liquid
Property: Vapor or sublimation pressure, kPa (Gas); method: CCELL:UFactor:8
Mole fraction of 2,2-bis(p-tolyl)hexafluoropropane	Temperature, K	Vapor or sublimation pressure, kPa	uncertainty
0.009	319.65	10800	310
0.009	324.55	12000	330
0.009	334.05	14000	540
0.009	358.65	18200	460
0.009	365.45	19900	540
0.009	382.35	21300	530
0.015	307.15	9600	310
0.015	319.35	12600	320
0.015	328.25	14700	390
0.015	335.05	16100	630
0.015	348.55	18700	730
0.015	362.35	21000	540
0.022	306.55	9400	300
0.022	310.55	10700	320
0.022	317.35	12700	490
0.022	324.85	14800	390
0.022	333.75	16900	470
0.022	346.55	19300	750
0.022	369.75	23000	900
0.027	318.75	13700	530
0.027	329.05	16200	430
0.027	336.25	17900	500
0.027	347.95	20300	790
0.027	368.15	25100	980

System: carbon dioxide + 2,2-bis(p-tolyl)hexafluoropropane; phases: Liquid, Gas
Property: Vapor or sublimation pressure, kPa (Liquid); method: CCELL:UFactor:8
Mole fraction of 2,2-bis(p-tolyl)hexafluoropropane	Temperature, K	Vapor or sublimation pressure, kPa	uncertainty
0.009	296.65	6450	170
0.009	302.35	7100	190
0.015	293.85	6000	180
0.022	299.95	7300	280
0.027	298.95	7450	290
0.027	307.15	10200	350
0.038	297.15	7100	220
0.038	306.15	9100	280
0.038	316.15	12200	350
0.038	328.15	15600	420
0.038	340.15	18300	470
0.038	354.15	21000	530
0.038	370.15	23600	590
0.06	308.15	5620	280
0.06	316.45	8930	300
0.06	327.85	12100	340
0.06	340.15	15070	400
0.06	353.95	17760	450
0.06	371.75	19900	500

System: carbon dioxide + 2,2-bis(p-tolyl)hexafluoropropane; phases: Liquid mixture 1, Liquid mixture 2, Gas
Property: Vapor or sublimation pressure, kPa (Liquid mixture 1); method: Closed cell (Static) method
Temperature, K	Vapor or sublimation pressure, kPa	uncertainty
298.45	5920	90
300.45	6190	100
303.15	6610	110
305.55	7020	120
307.55	7430	120
309.55	7780	120
310.25	7910	120

System: 1,1,1,2-tetrafluoroethane + 2,2-bis(p-tolyl)propane; phases: Crystal, Liquid mixture 1, Liquid mixture 2, Gas
Property: Quadruple (quintuple) point temperature, K (Crystal); method: Closed cell
Quadruple (quintuple) point temperature, K	uncertainty
330.25	0.6

System: 1,1,1,2-tetrafluoroethane + 2,2-bis(p-tolyl)propane; phases: Crystal, Liquid mixture 1, Liquid mixture 2, Gas
Property: Vapor or sublimation pressure, kPa (Crystal); method: Closed cell
Vapor or sublimation pressure, kPa	uncertainty
1410	60

System: 1,1,1,2-tetrafluoroethane + 2,2-bis(p-tolyl)propane; phases: Gas, Liquid
Property: Vapor or sublimation pressure, kPa (Gas); method: CCELL:UFactor:8
Mole fraction of 2,2-bis(p-tolyl)propane	Temperature, K	Vapor or sublimation pressure, kPa	uncertainty
0.023	382.65	4460	120
0.023	387.65	4930	140
0.023	404.15	6540	170
0.023	429.05	8470	210
0.023	448.65	9520	240
0.038	372.45	3870	120
0.038	382.65	4930	220
0.038	383.45	5180	170
0.038	384.55	5280	140
0.038	405.05	7650	200
0.038	426.85	9550	240
0.038	448.05	10900	270
0.073	336.35	6630	170
0.073	341.15	6190	160
0.073	369.85	6560	170
0.073	394.85	8690	220
0.073	422.35	10790	270
0.073	447.65	12190	310

System: 1,1,1,2-tetrafluoroethane + 2,2-bis(p-tolyl)propane; phases: Liquid, Gas
Property: Vapor or sublimation pressure, kPa (Liquid); method: CCELL:UFactor:8
Mole fraction of 2,2-bis(p-tolyl)propane	Temperature, K	Vapor or sublimation pressure, kPa	uncertainty
0.023	342.35	1930	70
0.023	353.05	2490	80
0.023	368.65	3490	100
0.023	372.55	3610	100
0.023	377.75	4120	120
0.038	341.35	1980	70
0.038	361.95	3010	90

System: 1,1,1,2-tetrafluoroethane + 2,2-bis(p-tolyl)propane; phases: Liquid, Gas, Crystal
Property: Vapor or sublimation pressure, kPa (Liquid); method: CCELL:UFactor:8
Temperature, K	Vapor or sublimation pressure, kPa	uncertainty
315.95	1000	50
324.65	1220	60
326.55	1190	60
316.15	980	50
326.35	1320	60
329.15	1400	70

System: 1,1,1,2-tetrafluoroethane + 2,2-bis(p-tolyl)propane; phases: Liquid mixture 1, Liquid mixture 2, Gas
Property: Vapor or sublimation pressure, kPa (Liquid mixture 1); method: CCELL:UFactor:8
Temperature, K	Vapor or sublimation pressure, kPa	uncertainty
368.65	3200	130
377.75	3980	110
382.65	4390	170
344.85	2050	70
361.95	2940	80
372.45	3620	100
382.65	4370	110
383.45	4390	170
336.35	1720	60
341.15	1870	60
369.85	3390	110

System: 1,1,1,2-tetrafluoroethane + 2,2-bis(p-tolyl)hexafluoropropane; phases: Gas, Liquid
Property: Vapor or sublimation pressure, kPa (Gas); method: CCELL:UFactor:8
Mole fraction of 2,2-bis(p-tolyl)hexafluoropropane	Temperature, K	Vapor or sublimation pressure, kPa	uncertainty
0.016	402.05	5590	140
0.016	425.05	6660	170
0.016	446.45	7140	180
0.047	425.45	7490	190
0.047	447.65	8710	220

System: 1,1,1,2-tetrafluoroethane + 2,2-bis(p-tolyl)hexafluoropropane; phases: Liquid, Gas
Property: Vapor or sublimation pressure, kPa (Liquid); method: CCELL:UFactor:8
Mole fraction of 2,2-bis(p-tolyl)hexafluoropropane	Temperature, K	Vapor or sublimation pressure, kPa	uncertainty
0.016	295.15	580	40
0.016	324.15	1190	50
0.016	353.75	2490	80
0.016	380.25	4220	110
0.047	306.05	740	50
0.047	329.95	1360	50
0.047	351.95	2320	70
0.047	362.35	2870	80
0.047	374.85	3670	100
0.047	383.65	4290	120
0.047	404.35	6010	160

System: 1,1-difluoroethane + 2,2-bis(p-tolyl)propane; phases: Gas, Liquid
Property: Vapor or sublimation pressure, kPa (Gas); method: CCELL:UFactor:8
Mole fraction of 2,2-bis(p-tolyl)propane	Temperature, K	Vapor or sublimation pressure, kPa	uncertainty
0.015	423.05	6890	180
0.015	448.55	8180	210
0.028	423.75	7280	190
0.028	447.45	9040	230
0.049	427.15	7730	200
0.049	447.45	9380	240

System: 1,1-difluoroethane + 2,2-bis(p-tolyl)propane; phases: Liquid, Gas
Property: Vapor or sublimation pressure, kPa (Liquid); method: CCELL:UFactor:8
Mole fraction of 2,2-bis(p-tolyl)propane	Temperature, K	Vapor or sublimation pressure, kPa	uncertainty
0.015	295.25	470	40
0.015	326.05	1150	50
0.015	355.45	2340	70
0.015	378.05	3640	100
0.015	400.35	5250	140
0.028	309.95	770	50
0.028	325.95	1220	50
0.028	350.35	2120	70
0.028	370.15	3180	90
0.028	382.85	4000	110
0.028	389.75	4420	120
0.028	399.75	5250	140
0.049	316.35	850	50
0.049	345.35	1770	60
0.049	370.25	2980	90
0.049	382.65	3800	110
0.049	404.25	5490	150

System: 1,1-difluoroethane + 2,2-bis(p-tolyl)propane; phases: Liquid, Gas, Crystal
Property: Vapor or sublimation pressure, kPa (Liquid); method: CCELL:UFactor:8
Temperature, K	Vapor or sublimation pressure, kPa	uncertainty
295.65	530	80
294.75	430	80
303.35	500	40

System: 1,1-difluoroethane + 2,2-bis(p-tolyl)hexafluoropropane; phases: Gas, Liquid
Property: Vapor or sublimation pressure, kPa (Gas); method: CCELL:UFactor:8
Mole fraction of 2,2-bis(p-tolyl)hexafluoropropane	Temperature, K	Vapor or sublimation pressure, kPa	uncertainty
0.0104	402.15	5320	140
0.0104	425.25	6340	160
0.0104	447.85	6770	170
0.033	428.05	7040	180
0.033	446.75	7750	200

System: 1,1-difluoroethane + 2,2-bis(p-tolyl)hexafluoropropane; phases: Liquid, Gas
Property: Vapor or sublimation pressure, kPa (Liquid); method: CCELL:UFactor:8
Mole fraction of 2,2-bis(p-tolyl)hexafluoropropane	Temperature, K	Vapor or sublimation pressure, kPa	uncertainty
0.0104	294.85	500	40
0.0104	323.95	1090	50
0.0104	354.65	2290	70
0.0104	380.75	3870	100
0.033	294.85	500	40
0.033	323.25	1010	50
0.033	354.95	2220	70
0.033	374.75	3320	90
0.033	388.05	4150	110
0.033	409.45	5840	150
