Measured thermophysical data. Solubilities of crotonic acid in different organic solvents at severaltemperatures from (278.15 to 333.15) K
Source: Fluid Phase Equilib., 2013, 10.1016/j.fluid.2013.06.038
Compound 1: 2-butenoic acid, C4H6O2, InChI=1S/C4H6O2/c1-2-3-4(5)6/h2-3H,1H3,(H,5,6)
Compound 2: methanol, CH4O, InChI=1S/CH4O/c1-2/h2H,1H3, purity 99.5%
Compound 3: ethanol, C2H6O, InChI=1S/C2H6O/c1-2-3/h3H,2H2,1H3, purity 99.7%
Compound 4: propan-2-ol, C3H8O, InChI=1S/C3H8O/c1-3(2)4/h3-4H,1-2H3, purity 99.5%
Compound 5: butan-1-ol, C4H10O, InChI=1S/C4H10O/c1-2-3-4-5/h5H,2-4H2,1H3, purity 99%
Compound 6: acetonitrile, C2H3N, InChI=1S/C2H3N/c1-2-3/h1H3, purity 99%
Compound 7: ethyl acetate, C4H8O2, InChI=1S/C4H8O2/c1-3-6-4(2)5/h3H2,1-2H3, purity 99.5%
Compound 8: dimethylformamide, C3H7NO, InChI=1S/C3H7NO/c1-4(2)3-5/h3H,1-2H3, purity 99.5%
Compound 9: acetic acid, C2H4O2, InChI=1S/C2H4O2/c1-2(3)4/h1H3,(H,3,4), purity 99.5%

System: 2-butenoic acid; phases: Crystal, Liquid, Air at 1 atmosphere
Property: Normal melting temperature, K (Crystal); method: VISOBS
Normal melting temperature, K	uncertainty
344.8	1.1

System: methanol + 2-butenoic acid; phases: Liquid, Crystal
Fixed: Pressure, kPa = 101
Property: Mole fraction of 2-butenoic acid (Liquid); method: mass after drying
Temperature, K	Mole fraction of 2-butenoic acid	uncertainty
278.15	0.1633	0.0016
283.15	0.1928	0.0009
288.15	0.2221	0.0009
293.15	0.2619	0.0012
298.15	0.2973	0.001
303.15	0.3323	0.0012
308.15	0.3801	0.0018
313.15	0.4372	0.0019
318.15	0.4942	0.0018
323.15	0.5591	0.0019
328.15	0.6312	0.0021
333.15	0.707	0.0022

System: ethanol + 2-butenoic acid; phases: Liquid, Crystal
Fixed: Pressure, kPa = 101
Property: Mole fraction of 2-butenoic acid (Liquid); method: mass after drying
Temperature, K	Mole fraction of 2-butenoic acid	uncertainty
278.15	0.2229	0.0011
283.15	0.2525	0.001
288.15	0.288	0.0009
293.15	0.319	0.0018
298.15	0.37	0.0012
303.15	0.4034	0.0012
308.15	0.4482	0.0016
313.15	0.5047	0.0016
318.15	0.5554	0.0019
323.15	0.6252	0.002
328.15	0.6897	0.0021
333.15	0.7556	0.003

System: propan-2-ol + 2-butenoic acid; phases: Liquid, Crystal
Fixed: Pressure, kPa = 101
Property: Mole fraction of 2-butenoic acid (Liquid); method: mass after drying
Temperature, K	Mole fraction of 2-butenoic acid	uncertainty
278.15	0.2458	0.0031
283.15	0.2812	0.0024
288.15	0.3104	0.001
293.15	0.3509	0.0013
298.15	0.3948	0.0019
303.15	0.439	0.0024
308.15	0.4848	0.0032
313.15	0.5414	0.0025
318.15	0.5895	0.0028
323.15	0.6649	0.0025
328.15	0.7206	0.0035
333.15	0.7723	0.0044

System: butan-1-ol + 2-butenoic acid; phases: Liquid, Crystal
Fixed: Pressure, kPa = 101
Property: Mole fraction of 2-butenoic acid (Liquid); method: mass after drying
Temperature, K	Mole fraction of 2-butenoic acid	uncertainty
278.15	0.2058	0.0027
283.15	0.2342	0.0018
288.15	0.2684	0.0013
293.15	0.3031	0.001
298.15	0.346	0.0011
303.15	0.3773	0.0027
308.15	0.4279	0.0024
313.15	0.4672	0.0037
318.15	0.5268	0.0026
323.15	0.587	0.0019
328.15	0.6545	0.0027
333.15	0.7314	0.0023

System: acetonitrile + 2-butenoic acid; phases: Liquid, Crystal
Fixed: Pressure, kPa = 101
Property: Mole fraction of 2-butenoic acid (Liquid); method: mass after drying
Temperature, K	Mole fraction of 2-butenoic acid	uncertainty
278.15	0.0859	0.004
283.15	0.1091	0.004
288.15	0.136	0.0033
293.15	0.1681	0.002
298.15	0.2141	0.0014
303.15	0.2597	0.0015
308.15	0.3164	0.0031
313.15	0.3797	0.0049
318.15	0.457	0.0054
323.15	0.56	0.0028
328.15	0.664	0.0038
333.15	0.7722	0.0055

System: ethyl acetate + 2-butenoic acid; phases: Liquid, Crystal
Fixed: Pressure, kPa = 101
Property: Mole fraction of 2-butenoic acid (Liquid); method: mass after drying
Temperature, K	Mole fraction of 2-butenoic acid	uncertainty
288.15	0.3206	0.0018
293.15	0.3618	0.0014
298.15	0.4056	0.0014
303.15	0.4595	0.002
308.15	0.5018	0.0016
313.15	0.5599	0.0023
318.15	0.6072	0.0018
323.15	0.6773	0.0024
328.15	0.7198	0.0026
333.15	0.7852	0.0035

System: dimethylformamide + 2-butenoic acid; phases: Liquid, Crystal
Fixed: Pressure, kPa = 101
Property: Mole fraction of 2-butenoic acid (Liquid); method: mass after drying
Temperature, K	Mole fraction of 2-butenoic acid	uncertainty
278.15	0.4381	0.002
283.15	0.4711	0.0013
288.15	0.5	0.0015
293.15	0.5486	0.0015
298.15	0.5776	0.0016
303.15	0.6088	0.0022
308.15	0.6529	0.0017
313.15	0.6811	0.0023
318.15	0.7188	0.002
323.15	0.7584	0.0019
328.15	0.7952	0.0021
333.15	0.8463	0.0045

System: acetic acid + 2-butenoic acid; phases: Liquid, Crystal
Fixed: Pressure, kPa = 101
Property: Mole fraction of 2-butenoic acid (Liquid); method: mass after drying
Temperature, K	Mole fraction of 2-butenoic acid	uncertainty
278.15	0.2064	0.0052
283.15	0.2321	0.0029
288.15	0.2723	0.0017
293.15	0.3086	0.0016
298.15	0.3582	0.0027
303.15	0.4169	0.0032
308.15	0.4815	0.0029
313.15	0.537	0.0038
318.15	0.5994	0.0036
323.15	0.6846	0.0024
328.15	0.7433	0.003
333.15	0.8337	0.0086
