Measured thermophysical data. Measurement of infinite dilution activity coefficients of n-alkanes in 4-methyl-n-butylpyridinium tetrafluoroborate using gas liquid chromatography
Source: Fluid Phase Equilib., 2007, 10.1016/j.fluid.2006.10.016
Compound 1: octane, C8H18, InChI=1S/C8H18/c1-3-5-7-8-6-4-2/h3-8H2,1-2H3, purity 98%
Compound 2: nonane, C9H20, InChI=1S/C9H20/c1-3-5-7-9-8-6-4-2/h3-9H2,1-2H3, purity 98%
Compound 3: decane, C10H22, InChI=1S/C10H22/c1-3-5-7-9-10-8-6-4-2/h3-10H2,1-2H3, purity 98%
Compound 4: 1-butyl-4-methylpyridinium tetrafluoroborate, C10H16BF4N, InChI=1S/C10H16N.BF4/c1-3-4-7-11-8-5-10(2)6-9-11;2-1(3,4)5/h5-6,8-9H,3-4,7H2,1-2H3;/q+1;-1

System: octane + 1-butyl-4-methylpyridinium tetrafluoroborate; phases: Liquid, Gas
Fixed: Mole fraction of octane = 0
Property: Activity coefficient of octane (Liquid); method: CHROM:UFactor:4
Temperature, K	Activity coefficient of octane	uncertainty
297	182.2	34.4
307	170	32.1
316	158.1	29.8
325	141.6	26.7
335	123.6	23.2
344	119.1	22.4

System: nonane + 1-butyl-4-methylpyridinium tetrafluoroborate; phases: Liquid, Gas
Fixed: Mole fraction of nonane = 0
Property: Activity coefficient of nonane (Liquid); method: CHROM:UFactor:4
Temperature, K	Activity coefficient of nonane	uncertainty
297	308.8	58.6
307	275.2	52.2
316	241.2	45.7
325	229.2	43.4
335	200.9	38
344	200.9	38

System: decane + 1-butyl-4-methylpyridinium tetrafluoroborate; phases: Liquid, Gas
Fixed: Mole fraction of decane = 0
Property: Activity coefficient of decane (Liquid); method: CHROM:UFactor:4
Temperature, K	Activity coefficient of decane	uncertainty
297	491	93.6
307	429.7	81.8
316	388.7	73.9
325	358.9	68.2
335	319.7	60.7
344	282.9	53.6
