Measured thermophysical data. Isothermal vapour liquid equilibrium with chemical reaction in the quaternary water + methanol + acetic acid + methyl acetate system, and in five binary subsystems
Source: Fluid Phase Equilib., 2006, 10.1016/j.fluid.2006.06.005
Compound 1: water, H2O, InChI=1S/H2O/h1H2
Compound 2: methanol, CH4O, InChI=1S/CH4O/c1-2/h2H,1H3
Compound 3: acetic acid, C2H4O2, InChI=1S/C2H4O2/c1-2(3)4/h1H3,(H,3,4)
Compound 4: methyl ethanoate, C3H6O2, InChI=1S/C3H6O2/c1-3(4)5-2/h1-2H3

System: water; phases: Liquid, Gas
Property: Vapor or sublimation pressure, kPa (Liquid); method: EBULLIO:UFactor:2
Temperature, K	Vapor or sublimation pressure, kPa	uncertainty
323.15	12.35	0.17

System: methanol; phases: Liquid, Gas
Property: Vapor or sublimation pressure, kPa (Liquid); method: EBULLIO:UFactor:2
Temperature, K	Vapor or sublimation pressure, kPa	uncertainty
323.15	55.61	0.52

System: acetic acid; phases: Liquid, Gas
Property: Vapor or sublimation pressure, kPa (Liquid); method: EBULLIO:UFactor:4
Temperature, K	Vapor or sublimation pressure, kPa	uncertainty
323.15	7.72	0.28

System: methyl ethanoate; phases: Liquid, Gas
Property: Vapor or sublimation pressure, kPa (Liquid); method: EBULLIO:UFactor:2
Temperature, K	Vapor or sublimation pressure, kPa	uncertainty
323.15	79.21	0.71

System: methanol + water; phases: Gas, Liquid
Fixed: Temperature, K = 323.15
Property: Vapor or sublimation pressure, kPa (Gas); method: EBULLIO:UFactor:2
Mole fraction of water	Vapor or sublimation pressure, kPa	uncertainty
0	55.61	0.52
0.0215	54.78	0.54
0.066	53.13	0.52
0.1326	50.58	0.5
0.2516	46.48	0.47
0.3592	43.04	0.44
0.4436	40.26	0.42
0.5518	36.61	0.39
0.6726	32.64	0.37
0.7411	29.36	0.37
0.8212	24.91	0.36
0.8877	20.96	0.35
0.9379	17.44	0.38
1	12.35	0.17

System: methanol + water; phases: Gas, Liquid
Fixed: Temperature, K = 323.15
Property: Mole fraction of water (Gas); method: CHROM:UFactor:4
Mole fraction of water	Mole fraction of water	uncertainty
0.0215	0.0078	0.0062
0.066	0.0236	0.0062
0.1326	0.0483	0.0064
0.2516	0.0948	0.007
0.3592	0.1353	0.0077
0.4436	0.1691	0.0085
0.5518	0.2198	0.0098
0.6726	0.2848	0.0117
0.7411	0.346	0.0139
0.8212	0.446	0.0175
0.8877	0.554	0.0187
0.9379	0.7039	0.0167

System: methanol + methyl ethanoate; phases: Gas, Liquid
Fixed: Temperature, K = 323.15
Property: Vapor or sublimation pressure, kPa (Gas); method: EBULLIO:UFactor:2
Mole fraction of methanol	Vapor or sublimation pressure, kPa	uncertainty
0	79.21	0.71
0.0436	80.99	0.74
0.1744	85.82	0.77
0.1773	85.94	0.77
0.273	88.46	0.79
0.3212	88.99	0.79
0.372	88.82	0.79
0.4199	87.77	0.79
0.4641	86.16	0.78
0.5103	83.81	0.78
0.6318	76.24	0.73
0.7061	71.37	0.69
0.7886	66.36	0.64
1	55.61	0.52

System: methanol + methyl ethanoate; phases: Liquid, Gas
Fixed: Temperature, K = 323.15
Property: Mole fraction of methanol (Liquid); method: CHROM:UFactor:4
Mole fraction of methanol	Mole fraction of methanol	uncertainty
0.0436	0.0251	0.0068
0.1744	0.1238	0.0079
0.1773	0.1259	0.0079
0.273	0.2376	0.0103
0.3212	0.3117	0.0126
0.372	0.4014	0.0149
0.4199	0.4963	0.0172
0.4641	0.5791	0.0153
0.5103	0.6671	0.0125
0.6318	0.8213	0.009
0.7061	0.8777	0.0074
0.7886	0.928	0.0068

System: methyl ethanoate + water; phases: Gas, Liquid
Fixed: Temperature, K = 323.15
Property: Vapor or sublimation pressure, kPa (Gas); method: EBULLIO:UFactor:2
Mole fraction of methyl ethanoate	Vapor or sublimation pressure, kPa	uncertainty
0	12.35	0.17
0.0066	12.41	0.18
0.0212	12.49	0.19
0.0361	12.86	0.2
0.8583	79.26	0.74
0.8787	80.39	0.73
0.9053	80.75	0.72
1	79.21	0.71

System: methyl ethanoate + water; phases: Liquid, Gas
Fixed: Temperature, K = 323.15
Property: Mole fraction of methyl ethanoate (Liquid); method: CHROM:UFactor:4
Mole fraction of methyl ethanoate	Mole fraction of methyl ethanoate	uncertainty
0.0066	0.0001	0.0001
0.0212	0.0002	0.0002
0.0361	0.0004	0.0004
0.8583	0.7393	0.0231
0.8787	0.8466	0.0154
0.9053	0.9012	0.0105

System: acetic acid + methyl ethanoate; phases: Gas, Liquid
Fixed: Temperature, K = 323.15
Property: Vapor or sublimation pressure, kPa (Gas); method: EBULLIO:UFactor:4
Mole fraction of methyl ethanoate	Vapor or sublimation pressure, kPa	uncertainty
0	7.72	0.28
0.0302	8.06	0.28
0.0644	8.47	0.29
0.1033	9.06	0.3
0.1447	9.58	0.31
0.1713	9.91	0.32
0.2181	10.92	0.33
0.222	10.8	0.33
0.2987	12.12	0.35
0.3816	13.88	0.38
0.4787	16.56	0.43
0.5803	19.47	0.48
0.6786	24.34	0.58
0.7613	30.07	0.7
0.8352	36.62	0.84
0.9038	44.91	1.05
0.9456	53.89	1.39
0.9718	61.53	1.72
0.9852	67.03	2.79
1	79.21	1.39

System: acetic acid + methyl ethanoate; phases: Liquid, Gas
Fixed: Temperature, K = 323.15
Property: Mole fraction of methyl ethanoate (Liquid); method: CHROM:UFactor:4
Mole fraction of methyl ethanoate	Mole fraction of methyl ethanoate	uncertainty
0.0302	0.0048	0.0048
0.0644	0.0102	0.006
0.1033	0.0109	0.0061
0.1447	0.0251	0.0061
0.1713	0.0298	0.0061
0.2181	0.0433	0.0062
0.222	0.043	0.0062
0.2987	0.0557	0.0063
0.3816	0.0804	0.0065
0.4787	0.1147	0.007
0.5803	0.1533	0.0077
0.6786	0.2155	0.0091
0.7613	0.2893	0.0109
0.8352	0.3692	0.0133
0.9038	0.4881	0.0174
0.9456	0.614	0.0188
0.9718	0.7305	0.0224
0.9852	0.818	0.0273

System: acetic acid + water; phases: Gas, Liquid
Fixed: Temperature, K = 323.15
Property: Vapor or sublimation pressure, kPa (Gas); method: EBULLIO:UFactor:2
Mole fraction of water	Vapor or sublimation pressure, kPa	uncertainty
0	7.72	0.14
0.019	7.8	0.14
0.073	8.2	0.14
0.1638	8.85	0.15
0.1717	8.91	0.15
0.272	9.44	0.15
0.3722	9.92	0.16
0.4754	10.33	0.16
0.5744	10.69	0.16
0.6626	11.01	0.16
0.7565	11.31	0.17
0.8285	11.58	0.17
1	12.35	0.17

System: acetic acid + water; phases: Liquid, Gas
Fixed: Temperature, K = 323.15
Property: Mole fraction of water (Liquid); method: CHROM:UFactor:4
Mole fraction of water	Mole fraction of water	uncertainty
0.019	0.0093	0.0063
0.073	0.0351	0.0066
0.1638	0.0992	0.0069
0.1717	0.1033	0.007
0.272	0.1845	0.0087
0.3722	0.278	0.0107
0.4754	0.3859	0.0131
0.5744	0.4815	0.0155
0.6626	0.5781	0.014
0.7565	0.6673	0.0121
0.8285	0.7683	0.0105
