Measured thermophysical data. Solubility and pseudopolymorphic transitions in mixed solvent: Meropenem in methanol-water solution
Source: Fluid Phase Equilib., 2013, 10.1016/j.fluid.2013.03.028
Compound 1: meropenem trihydrate, C17H31N3O8S, InChI=1S/C17H25N3O5S.3H2O/c1-7-12-11(8(2)21)16(23)20(12)13(17(24)25)14(7)26-9-5-10(18-6-9)15(22)19(3)4;;;/h7-12,18,21H,5-6H2,1-4H3,(H,24,25);3*1H2/t7-,8-,9+,10+,11-,12-;;;/m1.../s1, purity 99.3%
Compound 2: meropenem dimethylate, C19H33N3O7S, InChI=1S/C17H25N3O5S.2CH4O/c1-7-12-11(8(2)21)16(23)20(12)13(17(24)25)14(7)26-9-5-10(18-6-9)15(22)19(3)4;2*1-2/h7-12,18,21H,5-6H2,1-4H3,(H,24,25);2*2H,1H3/t7-,8-,9+,10+,11-,12-;;/m1../s1, purity 99.5%
Compound 3: methanol, CH4O, InChI=1S/CH4O/c1-2/h2H,1H3, purity 99.9%
Compound 4: water, H2O, InChI=1S/H2O/h1H2, purity 99.9%

System: methanol + water + meropenem trihydrate; phases: Liquid, Crystal
Fixed: Pressure, kPa = 100
Property: Mole fraction of meropenem trihydrate (Liquid); method: Chromatography
Temperature, K	Solvent: Mole fraction of water	Mole fraction of meropenem trihydrate	uncertainty
273.15	0.195	0.0004065	0.0001049
273.15	0.196	0.0003983	0.0001083
273.15	0.198	0.000359	0.0001049
273.15	0.2	0.0003154	0.0001083
273.15	0.22	0.0002317	0.0001002
273.15	0.24	0.000192	0.0001001
273.15	0.26	0.0001676	0.0001
273.15	0.28	0.0001542	0.0001
273.15	0.29	0.0001556	0.0001
273.15	0.301	0.000167	0.0001
273.15	0.399	0.0002036	0.0001
273.15	0.5	0.0002069	0.0001
273.15	0.599	0.0002401	0.0001
273.15	0.7	0.0002783	0.0001
273.15	0.802	0.0002968	0.0001
273.15	0.9	0.0003828	0.0001
273.15	1	0.0005633	0.0001
278.15	0.199	0.0004081	0.0001005
278.15	0.2	0.0003999	0.0001004
278.15	0.22	0.0002937	0.0001004
278.15	0.24	0.0002249	0.0001001
278.15	0.26	0.0002094	0.0001
278.15	0.27	0.0001966	0.0001001
278.15	0.28	0.0002002	0.0001
278.15	0.28	0.0001941	0.0001
278.15	0.29	0.0001911	0.0001
278.15	0.301	0.0002037	0.0001
278.15	0.399	0.0002234	0.0001
278.15	0.5	0.0002347	0.0001
278.15	0.599	0.0002741	0.0001
278.15	0.7	0.0002991	0.0001
278.15	0.802	0.0003337	0.0001
278.15	0.9	0.0004449	0.0001001
278.15	1	0.0006814	0.0001
283.15	0.203	0.0004178	0.0001051
283.15	0.204	0.0004171	0.0001008
283.15	0.205	0.0003946	0.000101
283.15	0.206	0.0003727	0.0001021
283.15	0.21	0.0003566	0.0001009
283.15	0.215	0.0003463	0.0001
283.15	0.26	0.0003124	0.0001
283.15	0.28	0.0002837	0.0001001
283.15	0.29	0.0002615	0.0001
283.15	0.32	0.000263	0.0001
283.15	0.34	0.0002699	0.0001
283.15	0.36	0.0002697	0.0001
283.15	0.399	0.0002756	0.0001
283.15	0.5	0.0002924	0.0001
283.15	0.599	0.0003338	0.0001
283.15	0.7	0.0003935	0.0001
283.15	0.802	0.0004685	0.0001
283.15	0.9	0.0005741	0.0001001
283.15	1	0.0008195	0.0001
288.15	0	9.2e-06	9.2e-06
288.15	0.05	1.3e-05	1.3e-05
288.15	0.1	2.33e-05	2.33e-05
288.15	0.12	2.44e-05	2.44e-05
288.15	0.14	2.53e-05	2.53e-05
288.15	0.16	2.75e-05	2.75e-05
288.15	0.18	4.9e-05	4.9e-05
288.15	0.195	7.02e-05	7.02e-05
288.15	0.2	7.85e-05	7.85e-05
288.15	0.203	0.0002	0.0001465
288.15	0.204	0.000429	0.0001484
288.15	0.207	0.0004492	0.0001
288.15	0.21	0.0004325	0.0001001
288.15	0.22	0.0004222	0.0001
288.15	0.24	0.0004008	0.0001
288.15	0.26	0.0003685	0.0001001
288.15	0.28	0.0003344	0.0001001
288.15	0.291	0.0003164	0.0001
288.15	0.3	0.0003189	0.0001
288.15	0.32	0.0003291	0.0001
288.15	0.34	0.0003245	0.0001
288.15	0.36	0.0003186	0.0001
288.15	0.399	0.0003384	0.0001
288.15	0.5	0.0003406	0.0001
288.15	0.599	0.0003711	0.0001
288.15	0.7	0.0004243	0.0001
288.15	0.802	0.0005064	0.0001
288.15	0.9	0.0006131	0.0001001
288.15	1	0.0008619	0.0001

System: meropenem dimethylate + methanol + water; phases: Liquid, Crystal
Fixed: Pressure, kPa = 100
Property: Mole fraction of water (Liquid); method: Chromatography
Temperature, K	Solvent: Mole fraction of water	Mole fraction of water	uncertainty
273.15	0	9.2e-06	9.2e-06
273.15	0.05	9.4e-06	9.4e-06
273.15	0.1	2.15e-05	2.15e-05
273.15	0.12	2.19e-05	2.19e-05
273.15	0.14	2.19e-05	2.19e-05
273.15	0.16	2.33e-05	2.33e-05
273.15	0.18	2.28e-05	2.28e-05
273.15	0.19	0.0002121	0.0002121
273.15	0.192	0.0002078	0.0002078
273.15	0.194	0.0002828	0.0002828
278.15	0	8e-06	8e-06
278.15	0.05	9.5e-06	9.5e-06
278.15	0.12	1.66e-05	1.66e-05
278.15	0.14	2.2e-05	2.2e-05
278.15	0.16	2.14e-05	2.14e-05
278.15	0.185	2.21e-05	2.21e-05
278.15	0.19	2.37e-05	2.37e-05
278.15	0.195	0.0002476	0.0002476
278.15	0.197	0.0003355	0.0003355
278.15	0.198	0.0003467	0.0003467
283.15	0	9.1e-06	9.1e-06
283.15	0.05	1.13e-05	1.13e-05
283.15	0.1	2.04e-05	2.04e-05
283.15	0.12	3.6e-05	3.6e-05
283.15	0.14	4.44e-05	4.44e-05
283.15	0.16	4.44e-05	4.44e-05
283.15	0.18	4.4e-05	4.4e-05
283.15	0.19	4.69e-05	4.69e-05
283.15	0.195	4.97e-05	4.97e-05
283.15	0.2	5.12e-05	5.12e-05
283.15	0.201	0.0004103	0.0004103
283.15	0.202	0.0004106	0.0004106
288.15	0	9.2e-06	9.2e-06
288.15	0.05	1.3e-05	1.3e-05
288.15	0.1	2.33e-05	2.33e-05
288.15	0.12	2.44e-05	2.44e-05
288.15	0.14	2.53e-05	2.53e-05
288.15	0.16	2.75e-05	2.75e-05
288.15	0.18	4.9e-05	4.9e-05
288.15	0.195	7.02e-05	7.02e-05
288.15	0.2	7.85e-05	7.85e-05
288.15	0.203	0.0002	0.0002
288.15	0.204	0.000429	0.000429
