Measured thermophysical data. Compressed liquid densities of binary mixtures of n-decane + n-dodecane at temperatures from 283 K to 363 K and pressures up to 100 MPa
Source: Fluid Phase Equilib., 2018, 10.1016/j.fluid.2017.12.010
Compound 1: decane, C10H22, InChI=1S/C10H22/c1-3-5-7-9-10-8-6-4-2/h3-10H2,1-2H3, purity 99%
Compound 2: dodecane, C12H26, InChI=1S/C12H26/c1-3-5-7-9-11-12-10-8-6-4-2/h3-12H2,1-2H3, purity 99%

System: decane; phases: Liquid
Property: Mass density, kg/m3 (Liquid); method: Vibrating tube method
Temperature, K	Pressure, kPa	Mass density, kg/m3	uncertainty
283.58	100	738	3
283.57	1000	739	3
283.56	3000	740	3
283.55	5000	742	3
283.57	10000	745	3
283.56	20000	752	3
283.56	30000	758	3
283.56	40000	763	3
283.56	50000	769	3
283.56	60000	774	3
283.56	70000	779	3
283.56	80000	783	3
283.56	90000	788	3
293.48	100	731	3
293.48	1000	731	3
293.49	5000	734	3
293.49	10000	738	3
293.49	20000	745	3
293.5	30000	751	3
293.5	40000	757	3
293.5	50000	763	3
293.51	60000	768	3
293.51	70000	773	3
293.51	80000	778	3
293.51	90000	783	3
293.5	100000	787	3
303.42	100	723	3
303.42	1000	724	3
303.43	5000	727	3
303.42	10000	731	3
303.43	20000	738	3
303.42	30000	745	3
303.42	40000	751	3
303.43	50000	757	3
303.43	60000	762	3
303.42	70000	768	3
303.42	80010	773	3
303.42	90000	777	3
303.43	100000	782	3
313.35	100	716	3
313.35	1000	717	3
313.35	5000	721	3
313.37	10000	725	3
313.36	20000	732	3
313.37	30000	739	3
313.35	40000	746	3
313.36	50000	752	3
313.37	60000	757	3
313.36	70000	763	3
313.36	80000	768	3
313.36	90000	773	3
313.36	100000	777	3
323.24	100	708	3
323.24	1000	709	3
323.25	5000	712	3
323.25	10000	717	3
323.25	20000	725	3
323.25	30000	732	3
323.25	40000	739	3
323.25	50000	745	3
323.25	60000	751	3
323.25	70000	757	3
323.25	80000	762	3
323.25	90000	767	3
323.24	100000	771	3
333.13	100	700	3
333.13	1000	701	3
333.12	5000	705	3
333.12	10000	710	3
333.12	20000	718	3
333.13	30000	726	3
333.14	40000	733	3
333.14	50000	740	3
333.14	60000	746	3
333.14	70000	751	3
333.13	80000	757	3
333.13	90000	762	3
333.13	100000	767	3
343.01	100	693	3
343.01	1000	694	3
343.02	5000	698	3
343.01	10000	703	3
343.01	20000	712	3
343.01	30000	720	3
343.01	40000	727	3
343.01	50000	734	3
343.01	60000	740	3
343.02	70000	746	3
343.02	80000	752	3
343.02	90000	757	3
343.02	100000	762	3
352.87	100	686	3
352.87	1000	687	3
352.87	5000	691	3
352.88	10000	696	3
352.88	20000	706	3
352.88	30000	714	3
352.88	40000	722	3
352.88	50000	729	3
352.88	60000	735	3
352.89	70000	741	3
352.89	80000	747	3
352.89	90000	753	3
352.89	100000	758	3
362.69	100	677	3
362.69	1000	678	3
362.7	5000	683	3
362.7	10000	689	3
362.71	20000	699	3
362.71	30000	708	3
362.71	40000	716	3
362.71	50000	723	3
362.71	60000	730	3
362.72	70000	736	3
362.72	80000	742	3
362.72	90000	747	3
362.72	100000	753	3

System: dodecane; phases: Liquid
Property: Mass density, kg/m3 (Liquid); method: Vibrating tube method
Temperature, K	Pressure, kPa	Mass density, kg/m3	uncertainty
283.29	100	756	3
283.29	1000	757	3
283.29	3000	758	3
283.3	5000	760	3
283.3	10000	763	3
283.31	20000	769	3
283.3	30000	775	3
283.3	40000	780	3
283.3	50000	785	3
283.3	60000	790	3
283.31	70000	795	3
283.32	80000	799	3
283.32	90000	803	3
293.17	100	749	3
293.18	1000	750	3
293.19	5000	753	3
293.19	10000	756	3
293.19	20000	763	3
293.19	30000	769	3
293.19	40000	774	3
293.19	50000	780	3
293.2	60000	785	3
293.19	70000	789	3
293.19	80000	794	3
293.19	90000	798	3
293.19	100000	802	3
303.05	100	742	3
303.05	1000	743	3
303.05	5000	746	3
303.06	10000	749	3
303.05	20000	756	3
303.04	30000	762	3
303.06	40000	768	3
303.05	50000	774	3
303.05	60000	779	3
303.05	70000	784	3
303.05	80000	789	3
303.05	90000	793	3
303.04	100000	797	3
312.89	100	736	3
312.89	1000	737	3
312.9	5000	740	3
312.9	10000	744	3
312.9	20000	751	3
312.9	30000	757	3
312.9	40000	763	3
312.9	50000	769	3
312.9	60000	774	3
312.9	70000	780	3
312.9	80000	784	3
312.9	90000	789	3
312.9	100000	793	3
322.83	100	727	3
322.83	1000	728	3
322.83	5000	732	3
322.83	10000	736	3
322.83	20000	743	3
322.83	30000	750	3
322.83	40000	756	3
322.83	50000	762	3
322.83	60000	768	3
322.83	70000	773	3
322.83	80000	778	3
322.83	90000	783	3
322.83	100000	787	3
332.74	100	720	3
332.74	1000	721	3
332.74	5000	725	3
332.74	10000	729	3
332.74	20000	737	3
332.74	30000	744	3
332.74	40000	750	3
332.74	50000	757	3
332.74	60000	762	3
332.74	70000	768	3
332.74	80000	773	3
332.74	90000	778	3
332.75	100000	782	3
342.67	100	713	3
342.67	1000	714	3
342.67	5000	718	3
342.67	10000	722	3
342.67	20000	731	3
342.67	30000	738	3
342.67	40000	745	3
342.67	50000	751	3
342.67	60000	757	3
342.67	69990	763	3
342.67	80000	768	3
342.67	90000	773	3
342.67	100000	778	3
352.58	100	707	3
352.58	1000	708	3
352.58	5000	712	3
352.58	10000	716	3
352.58	20000	725	3
352.58	30000	733	3
352.58	40000	740	3
352.58	50000	747	3
352.58	60000	753	3
352.58	70000	759	3
352.58	80000	764	3
352.58	90000	769	3
352.58	100000	774	3
362.49	100	699	3
362.49	1000	700	3
362.48	5000	704	3
362.48	10000	709	3
362.48	20000	718	3
362.48	30000	726	3
362.49	40000	734	3
362.48	50000	741	3
362.49	60000	747	3
362.49	70000	753	3
362.48	80000	759	3
362.48	90000	764	3
362.49	100000	769	3

System: decane + dodecane; phases: Liquid
Property: Mass density, kg/m3 (Liquid); method: Vibrating tube method
Temperature, K	Pressure, kPa	Mole fraction of decane	Mass density, kg/m3	uncertainty
283.29	100	0	756	3
283.29	1000	0	757	3
283.29	3000	0	758	3
283.3	5000	0	760	3
283.3	10000	0	763	3
283.31	20000	0	769	3
283.3	30000	0	775	3
283.3	40000	0	780	3
283.3	50000	0	785	3
283.3	60000	0	790	3
283.31	70000	0	795	3
283.32	80000	0	799	3
283.32	90000	0	803	3
293.17	100	0	749	3
293.18	1000	0	750	3
293.19	5000	0	753	3
293.19	10000	0	756	3
293.19	20000	0	763	3
293.19	30000	0	769	3
293.19	40000	0	774	3
293.19	50000	0	780	3
293.2	60000	0	785	3
293.19	70000	0	789	3
293.19	80000	0	794	3
293.19	90000	0	798	3
293.19	100000	0	802	3
303.05	100	0	742	3
303.05	1000	0	743	3
303.05	5000	0	746	3
303.06	10000	0	749	3
303.05	20000	0	756	3
303.04	30000	0	762	3
303.06	40000	0	768	3
303.05	50000	0	774	3
303.05	60000	0	779	3
303.05	70000	0	784	3
303.05	80000	0	789	3
303.05	90000	0	793	3
303.04	100000	0	797	3
312.89	100	0	736	3
312.89	1000	0	737	3
312.9	5000	0	740	3
312.9	10000	0	744	3
312.9	20000	0	751	3
312.9	30000	0	757	3
312.9	40000	0	763	3
312.9	50000	0	769	3
312.9	60000	0	774	3
312.9	70000	0	780	3
312.9	80000	0	784	3
312.9	90000	0	789	3
312.9	100000	0	793	3
322.83	100	0	727	3
322.83	1000	0	728	3
322.83	5000	0	732	3
322.83	10000	0	736	3
322.83	20000	0	743	3
322.83	30000	0	750	3
322.83	40000	0	756	3
322.83	50000	0	762	3
322.83	60000	0	768	3
322.83	70000	0	773	3
322.83	80000	0	778	3
322.83	90000	0	783	3
322.83	100000	0	787	3
332.74	100	0	720	3
332.74	1000	0	721	3
332.74	5000	0	725	3
332.74	10000	0	729	3
332.74	20000	0	737	3
332.74	30000	0	744	3
332.74	40000	0	750	3
332.74	50000	0	757	3
332.74	60000	0	762	3
332.74	70000	0	768	3
332.74	80000	0	773	3
332.74	90000	0	778	3
332.75	100000	0	782	3
342.67	100	0	713	3
342.67	1000	0	714	3
342.67	5000	0	718	3
342.67	10000	0	722	3
342.67	20000	0	731	3
342.67	30000	0	738	3
342.67	40000	0	745	3
342.67	50000	0	751	3
342.67	60000	0	757	3
342.67	69990	0	763	3
342.67	80000	0	768	3
342.67	90000	0	773	3
342.67	100000	0	778	3
352.58	100	0	707	3
352.58	1000	0	708	3
352.58	5000	0	712	3
352.58	10000	0	716	3
352.58	20000	0	725	3
352.58	30000	0	733	3
352.58	40000	0	740	3
352.58	50000	0	747	3
352.58	60000	0	753	3
352.58	70000	0	759	3
352.58	80000	0	764	3
352.58	90000	0	769	3
352.58	100000	0	774	3
362.49	100	0	699	3
362.49	1000	0	700	3
362.48	5000	0	704	3
362.48	10000	0	709	3
362.48	20000	0	718	3
362.48	30000	0	726	3
362.49	40000	0	734	3
362.48	50000	0	741	3
362.49	60000	0	747	3
362.49	70000	0	753	3
362.48	80000	0	759	3
362.48	90000	0	764	3
362.49	100000	0	769	3
283.58	100	1	738	3
283.57	1000	1	739	3
283.56	3000	1	740	3
283.55	5000	1	742	3
283.57	10000	1	745	3
283.56	20000	1	752	3
283.56	30000	1	758	3
283.56	40000	1	763	3
283.56	50000	1	769	3
283.56	60000	1	774	3
283.56	70000	1	779	3
283.56	80000	1	783	3
283.56	90000	1	788	3
293.48	100	1	731	3
293.48	1000	1	731	3
293.49	5000	1	734	3
293.49	10000	1	738	3
293.49	20000	1	745	3
293.5	30000	1	751	3
293.5	40000	1	757	3
293.5	50000	1	763	3
293.51	60000	1	768	3
293.51	70000	1	773	3
293.51	80000	1	778	3
293.51	90000	1	783	3
293.5	100000	1	787	3
303.42	100	1	723	3
303.42	1000	1	724	3
303.43	5000	1	727	3
303.42	10000	1	731	3
303.43	20000	1	738	3
303.42	30000	1	745	3
303.42	40000	1	751	3
303.43	50000	1	757	3
303.43	60000	1	762	3
303.42	70000	1	768	3
303.42	80010	1	773	3
303.42	90000	1	777	3
303.43	100000	1	782	3
313.35	100	1	716	3
313.35	1000	1	717	3
313.35	5000	1	721	3
313.37	10000	1	725	3
313.36	20000	1	732	3
313.37	30000	1	739	3
313.35	40000	1	746	3
313.36	50000	1	752	3
313.37	60000	1	757	3
313.36	70000	1	763	3
313.36	80000	1	768	3
313.36	90000	1	773	3
313.36	100000	1	777	3
323.24	100	1	708	3
323.24	1000	1	709	3
323.25	5000	1	712	3
323.25	10000	1	717	3
323.25	20000	1	725	3
323.25	30000	1	732	3
323.25	40000	1	739	3
323.25	50000	1	745	3
323.25	60000	1	751	3
323.25	70000	1	757	3
323.25	80000	1	762	3
323.25	90000	1	767	3
323.24	100000	1	771	3
333.13	100	1	700	3
333.13	1000	1	701	3
333.12	5000	1	705	3
333.12	10000	1	710	3
333.12	20000	1	718	3
333.13	30000	1	726	3
333.14	40000	1	733	3
333.14	50000	1	740	3
333.14	60000	1	746	3
333.14	70000	1	751	3
333.13	80000	1	757	3
333.13	90000	1	762	3
333.13	100000	1	767	3
343.01	100	1	693	3
343.01	1000	1	694	3
343.02	5000	1	698	3
343.01	10000	1	703	3
343.01	20000	1	712	3
343.01	30000	1	720	3
343.01	40000	1	727	3
343.01	50000	1	734	3
343.01	60000	1	740	3
343.02	70000	1	746	3
343.02	80000	1	752	3
343.02	90000	1	757	3
343.02	100000	1	762	3
352.87	100	1	686	3
352.87	1000	1	687	3
352.87	5000	1	691	3
352.88	10000	1	696	3
352.88	20000	1	706	3
352.88	30000	1	714	3
352.88	40000	1	722	3
352.88	50000	1	729	3
352.88	60000	1	735	3
352.89	70000	1	741	3
352.89	80000	1	747	3
352.89	90000	1	753	3
352.89	100000	1	758	3
362.69	100	1	677	3
362.69	1000	1	678	3
362.7	5000	1	683	3
362.7	10000	1	689	3
362.71	20000	1	699	3
362.71	30000	1	708	3
362.71	40000	1	716	3
362.71	50000	1	723	3
362.71	60000	1	730	3
362.72	70000	1	736	3
362.72	80000	1	742	3
362.72	90000	1	747	3
362.72	100000	1	753	3
283.52	100	0.2297	752	3
283.52	1000	0.2297	753	3
283.52	5000	0.2297	755	3
283.52	10000	0.2297	759	3
283.52	20000	0.2297	765	3
283.52	30000	0.2297	771	3
283.52	40000	0.2297	776	3
283.53	60000	0.2297	786	3
283.53	80000	0.2297	796	3
283.54	100000	0.2297	804	3
293.45	100	0.2297	745	3
293.45	1000	0.2297	746	3
293.45	5000	0.2297	749	3
293.45	10000	0.2297	752	3
293.44	20000	0.2297	759	3
293.43	30000	0.2297	765	3
293.43	40000	0.2297	771	3
293.43	60000	0.2297	781	3
293.44	80000	0.2297	790	3
293.44	100000	0.2297	799	3
303.35	100	0.2297	738	3
303.31	1000	0.2297	739	3
303.32	5000	0.2297	742	3
303.32	10000	0.2297	745	3
303.33	20000	0.2297	752	3
303.33	30000	0.2297	759	3
303.34	40000	0.2297	765	3
303.35	60000	0.2297	775	3
303.35	80000	0.2297	785	3
303.35	100000	0.2297	794	3
313.23	100	0.2297	732	3
313.24	1000	0.2297	732	3
313.24	5000	0.2297	736	3
313.24	10000	0.2297	740	3
313.24	20000	0.2297	747	3
313.24	30000	0.2297	753	3
313.24	40000	0.2297	760	3
313.24	60000	0.2297	771	3
313.25	80000	0.2297	781	3
313.25	100000	0.2297	790	3
323.08	100	0.2297	723	3
323.08	1000	0.2297	724	3
323.08	5000	0.2297	727	3
323.08	10000	0.2297	731	3
323.08	20000	0.2297	739	3
323.08	30000	0.2297	746	3
323.08	40000	0.2297	752	3
323.09	60000	0.2297	764	3
323.09	80000	0.2297	774	3
323.09	100010	0.2297	784	3
333	100	0.2297	716	3
333	1000	0.2297	717	3
333	5000	0.2297	720	3
333.01	10000	0.2297	725	3
333.01	20000	0.2297	733	3
333.02	30000	0.2297	740	3
333.02	40000	0.2297	747	3
333.02	60000	0.2297	758	3
333.03	80000	0.2297	769	3
333.03	100000	0.2297	779	3
342.92	100	0.2297	709	3
342.92	1000	0.2297	710	3
342.92	5000	0.2297	714	3
342.92	10000	0.2297	718	3
342.92	20000	0.2297	727	3
342.93	30000	0.2297	734	3
342.93	40000	0.2297	741	3
342.93	60000	0.2297	753	3
342.94	80000	0.2297	765	3
342.94	100000	0.2297	774	3
352.73	100	0.2297	702	3
352.74	1000	0.2297	703	3
352.74	5000	0.2297	707	3
352.75	10000	0.2297	712	3
352.75	20000	0.2297	721	3
352.75	30000	0.2297	729	3
352.75	40000	0.2297	736	3
352.76	60000	0.2297	749	3
352.76	80000	0.2297	760	3
352.76	100000	0.2297	770	3
362.57	100	0.2297	695	3
362.57	1000	0.2297	696	3
362.58	5000	0.2297	700	3
362.58	10000	0.2297	705	3
362.58	20000	0.2297	714	3
362.58	30000	0.2297	722	3
362.59	40000	0.2297	730	3
362.59	60000	0.2297	743	3
362.59	80000	0.2297	755	3
362.59	100000	0.2297	765	3
283.46	100	0.4436	748	3
283.47	1000	0.4436	749	3
283.47	5000	0.4436	752	3
283.48	10000	0.4436	755	3
283.48	20000	0.4436	762	3
283.49	30000	0.4436	767	3
283.48	40000	0.4436	773	3
283.49	60000	0.4436	783	3
283.49	80000	0.4436	792	3
283.49	100000	0.4436	801	3
293.44	100	0.4436	741	3
293.44	1000	0.4436	742	3
293.44	5000	0.4436	745	3
293.43	10000	0.4436	749	3
293.43	20000	0.4436	755	3
293.43	30000	0.4436	761	3
293.43	40000	0.4436	767	3
293.43	60000	0.4436	778	3
293.43	80000	0.4436	787	3
293.43	100000	0.4436	796	3
303.39	100	0.4436	734	3
303.39	1000	0.4436	735	3
303.39	5000	0.4436	738	3
303.39	10000	0.4436	742	3
303.41	20000	0.4436	749	3
303.42	30000	0.4436	755	3
303.41	40000	0.4436	761	3
303.42	60000	0.4436	772	3
303.41	80000	0.4436	782	3
303.41	99990	0.4436	791	3
313.31	100	0.4436	728	3
313.31	1000	0.4436	729	3
313.32	5000	0.4436	732	3
313.31	10000	0.4436	736	3
313.31	20000	0.4436	743	3
313.3	30000	0.4436	750	3
313.3	40000	0.4436	756	3
313.31	60000	0.4436	767	3
313.31	80000	0.4436	778	3
313.3	100000	0.4436	787	3
323.09	100	0.4436	719	3
323.1	1000	0.4436	720	3
323.1	5000	0.4436	724	3
323.11	10000	0.4436	728	3
323.11	20000	0.4436	735	3
323.11	30000	0.4436	742	3
323.12	40000	0.4436	749	3
323.12	60000	0.4436	761	3
323.12	80000	0.4436	771	3
323.13	100000	0.4436	781	3
332.97	100	0.4436	712	3
332.98	1000	0.4436	713	3
332.99	5000	0.4436	717	3
332.99	10000	0.4436	721	3
332.99	20000	0.4436	729	3
333	30000	0.4436	736	3
333	40000	0.4436	743	3
333.01	60000	0.4436	755	3
333.01	80000	0.4436	766	3
333.01	100000	0.4436	776	3
342.92	100	0.4436	705	3
342.92	1000	0.4436	706	3
342.92	5000	0.4436	710	3
342.92	10000	0.4436	714	3
342.93	20000	0.4436	723	3
342.93	30000	0.4436	731	3
342.93	40000	0.4436	738	3
342.93	60000	0.4436	750	3
342.93	80000	0.4436	761	3
342.93	100000	0.4436	771	3
352.81	100	0.4436	698	3
352.8	1000	0.4436	699	3
352.79	5000	0.4436	703	3
352.8	10000	0.4436	708	3
352.8	20000	0.4436	717	3
352.81	30000	0.4436	725	3
352.81	40000	0.4436	733	3
352.81	60000	0.4436	746	3
352.82	80000	0.4436	757	3
352.81	99990	0.4436	767	3
362.61	100	0.4436	690	3
362.61	1000	0.4436	691	3
362.62	5000	0.4436	696	3
362.62	10000	0.4436	701	3
362.62	20000	0.4436	710	3
362.62	30000	0.4436	719	3
362.62	40000	0.4436	726	3
362.62	60000	0.4436	740	3
362.62	80000	0.4436	752	3
362.63	100000	0.4436	762	3
283.61	100	0.6433	745	3
283.61	1000	0.6433	745	3
283.62	5000	0.6433	748	3
283.62	10000	0.6433	752	3
283.62	20000	0.6433	758	3
283.62	30000	0.6433	764	3
283.62	40000	0.6433	770	3
283.62	60000	0.6433	780	3
283.62	80000	0.6433	789	3
283.62	100000	0.6433	798	3
293.52	100	0.6433	738	3
293.52	1000	0.6433	738	3
293.52	5000	0.6433	741	3
293.52	10000	0.6433	745	3
293.52	20000	0.6433	752	3
293.52	30000	0.6433	758	3
293.52	40000	0.6433	764	3
293.52	60000	0.6433	774	3
293.52	80000	0.6433	784	3
293.51	100000	0.6433	793	3
303.43	100	0.6433	730	3
303.43	1000	0.6433	731	3
303.44	5000	0.6433	734	3
303.44	10000	0.6433	738	3
303.43	20000	0.6433	745	3
303.43	30000	0.6433	752	3
303.43	40000	0.6433	758	3
303.43	60000	0.6433	769	3
303.43	80000	0.6433	779	3
303.43	100000	0.6433	788	3
313.36	100	0.6433	724	3
313.36	1000	0.6433	725	3
313.37	5000	0.6433	728	3
313.36	10000	0.6433	732	3
313.36	20000	0.6433	740	3
313.37	30000	0.6433	746	3
313.37	40000	0.6433	753	3
313.38	60000	0.6433	764	3
313.38	80000	0.6433	774	3
313.38	100000	0.6433	784	3
323.21	100	0.6433	715	3
323.21	1000	0.6433	716	3
323.21	5000	0.6433	720	3
323.21	10000	0.6433	724	3
323.21	20000	0.6433	732	3
323.22	30000	0.6433	739	3
323.22	40000	0.6433	746	3
323.22	60000	0.6433	757	3
323.22	80000	0.6433	768	3
323.22	100000	0.6433	777	3
333.09	100	0.6433	708	3
333.09	1000	0.6433	709	3
333.09	5000	0.6433	713	3
333.09	10000	0.6433	717	3
333.1	20000	0.6433	725	3
333.09	30000	0.6433	733	3
333.1	40000	0.6433	740	3
333.1	60000	0.6433	752	3
333.1	80000	0.6433	763	3
333.1	100000	0.6433	772	3
342.93	100	0.6433	701	3
342.93	1000	0.6433	702	3
342.94	5000	0.6433	706	3
342.94	10000	0.6433	710	3
342.94	20000	0.6433	719	3
342.94	30000	0.6433	727	3
342.94	40000	0.6433	734	3
342.94	60000	0.6433	747	3
342.94	80000	0.6433	758	3
342.94	100000	0.6433	768	3
352.78	100	0.6433	694	3
352.78	1000	0.6433	695	3
352.78	5000	0.6433	699	3
352.78	10000	0.6433	704	3
352.78	20000	0.6433	713	3
352.78	30000	0.6433	721	3
352.78	40000	0.6433	729	3
352.79	60000	0.6433	742	3
352.79	79990	0.6433	754	3
352.79	100000	0.6433	764	3
362.62	100	0.6433	686	3
362.62	1000	0.6433	687	3
362.62	5000	0.6433	691	3
362.62	10000	0.6433	697	3
362.63	20000	0.6433	706	3
362.63	30000	0.6433	715	3
362.63	40000	0.6433	722	3
362.63	60000	0.6433	736	3
362.63	80000	0.6433	748	3
362.63	99990	0.6433	758	3
283.58	100	0.7841	742	3
283.57	1000	0.7841	743	3
283.59	5000	0.7841	745	3
283.6	10000	0.7841	749	3
283.61	20000	0.7841	755	3
283.61	30000	0.7841	761	3
283.61	40000	0.7841	767	3
283.61	60000	0.7841	777	3
283.61	80000	0.7841	787	3
283.61	100000	0.7841	795	3
293.54	100	0.7841	735	3
293.54	1000	0.7841	735	3
293.54	5000	0.7841	738	3
293.54	10000	0.7841	742	3
293.54	20000	0.7841	749	3
293.54	30000	0.7841	755	3
293.54	40000	0.7841	761	3
293.53	60000	0.7841	772	3
293.53	80000	0.7841	781	3
293.53	100000	0.7841	790	3
303.45	100	0.7841	727	3
303.46	1000	0.7841	728	3
303.47	5000	0.7841	731	3
303.45	10000	0.7841	735	3
303.45	20000	0.7841	742	3
303.45	30000	0.7841	749	3
303.45	40000	0.7841	755	3
303.45	60000	0.7841	766	3
303.45	80000	0.7841	776	3
303.45	100000	0.7841	785	3
313.37	100	0.7841	721	3
313.37	1000	0.7841	722	3
313.37	5000	0.7841	725	3
313.37	10000	0.7841	729	3
313.38	20000	0.7841	737	3
313.38	30000	0.7841	744	3
313.37	40000	0.7841	750	3
313.37	60000	0.7841	762	3
313.37	80000	0.7841	772	3
313.38	100000	0.7841	781	3
323.24	100	0.7841	712	3
323.24	1000	0.7841	713	3
323.23	5000	0.7841	717	3
323.24	10000	0.7841	721	3
323.24	20000	0.7841	729	3
323.24	30000	0.7841	736	3
323.24	40000	0.7841	743	3
323.24	60000	0.7841	755	3
323.24	80000	0.7841	765	3
323.24	99990	0.7841	775	3
333.06	100	0.7841	705	3
333.07	1000	0.7841	706	3
333.08	5000	0.7841	710	3
333.08	10000	0.7841	714	3
333.08	20000	0.7841	723	3
333.08	30000	0.7841	730	3
333.07	40000	0.7841	737	3
333.08	60000	0.7841	749	3
333.08	80000	0.7841	760	3
333.08	100000	0.7841	770	3
342.95	100	0.7841	698	3
342.95	1000	0.7841	699	3
342.96	5000	0.7841	703	3
342.97	10000	0.7841	708	3
342.97	20000	0.7841	717	3
342.98	30000	0.7841	724	3
342.98	40000	0.7841	732	3
342.99	60000	0.7841	744	3
343	80000	0.7841	756	3
343	99990	0.7841	766	3
352.82	100	0.7841	691	3
352.81	1000	0.7841	692	3
352.83	5000	0.7841	696	3
352.84	10000	0.7841	701	3
352.84	20000	0.7841	711	3
352.85	30000	0.7841	719	3
352.85	40000	0.7841	726	3
352.85	60000	0.7841	740	3
352.85	80000	0.7841	751	3
352.85	100000	0.7841	762	3
362.64	100	0.7841	682	3
362.64	1000	0.7841	683	3
362.65	5000	0.7841	688	3
362.65	10000	0.7841	693	3
362.66	20000	0.7841	703	3
362.66	30000	0.7841	712	3
362.66	40000	0.7841	719	3
362.66	60000	0.7841	733	3
362.66	80000	0.7841	745	3
362.66	100010	0.7841	756	3
