Measured thermophysical data. Vapor liquid equilibria and densities of CO2 with four unsaturated fatty acid esters at elevated pressures
Source: Fluid Phase Equilib., 2005, 10.1016/j.fluid.2005.04.008
Compound 1: carbon dioxide, CO2, InChI=1S/CO2/c2-1-3
Compound 2: methyl cis-9-octadecenoate, C19H36O2, InChI=1S/C19H36O2/c1-3-4-5-6-7-8-9-10-11-12-13-14-15-16-17-18-19(20)21-2/h10-11H,3-9,12-18H2,1-2H3/b11-10-
Compound 3: methyl (Z,Z)-9,12-octadecadienate, C19H34O2, InChI=1S/C19H34O2/c1-3-4-5-6-7-8-9-10-11-12-13-14-15-16-17-18-19(20)21-2/h7-8,10-11H,3-6,9,12-18H2,1-2H3/b8-7-,11-10-
Compound 4: eicosapentaenoic acid, ethyl ester, C22H34O2, InChI=1S/C22H34O2/c1-3-5-6-7-8-9-10-11-12-13-14-15-16-17-18-19-20-21-22(23)24-4-2/h12-21H,3-11H2,1-2H3
Compound 5: docosahexaenoic acid, ethyl ester, C24H36O2, InChI=1S/C24H36O2/c1-3-5-6-7-8-9-10-11-12-13-14-15-16-17-18-19-20-21-22-23-24(25)26-4-2/h12-23H,3-11H2,1-2H3

System: methyl cis-9-octadecenoate + carbon dioxide; phases: Liquid, Gas
Property: Vapor or sublimation pressure, kPa (Liquid); method: CCELL:UFactor:16
Mole fraction of carbon dioxide	Temperature, K	Vapor or sublimation pressure, kPa	uncertainty
0.4876	313	2860	240
0.5963	313	4240	280
0.6086	333	5620	320
0.6969	333	7000	370
0.7077	313	5620	320
0.7916	333	8380	430
0.7931	313	7000	370
0.8255	333	9750	480
0.833	313	7690	400
0.8509	333	11130	550
0.8595	313	8380	430
0.8736	313	9060	460
0.8813	333	12510	620
0.8891	313	9750	480
0.8901	333	13890	690
0.9072	333	14580	720
0.9111	313	10440	520
0.9167	333	15270	760
0.9213	333	15960	790
0.9231	313	11130	550
0.9282	333	16650	830
0.9312	313	11820	590
0.9341	333	17340	860
0.9387	313	12510	620
0.943	333	18030	890

System: methyl cis-9-octadecenoate + carbon dioxide; phases: Liquid, Gas
Property: Mass density, kg/m3 (Liquid); method: VIBTUB:UFactor:16
Temperature, K	Mole fraction of carbon dioxide	Mass density, kg/m3	uncertainty
313	0.4876	868.6	1.7
313	0.5963	874.2	1.7
313	0.7077	878.5	1.6
313	0.7931	884.3	1.6
313	0.833	885.5	1.6
313	0.8595	887.5	1.5
313	0.8736	887.5	1.5
313	0.8891	886.9	1.5
313	0.9111	886.4	1.6
313	0.9231	885.1	1.6
313	0.9312	882.7	1.6
313	0.9387	881.2	1.6
333	0.6086	857.1	1.8
333	0.6969	859.9	1.8
333	0.7916	862.3	1.7
333	0.8255	864.4	1.7
333	0.8509	865.8	1.7
333	0.8813	867.4	1.7
333	0.8901	864.5	1.7
333	0.9072	864.9	1.7
333	0.9167	863.2	1.7
333	0.9213	863.1	1.8
333	0.9282	859.2	1.8
333	0.9341	858.9	1.9
333	0.943	851.6	2.1

System: methyl cis-9-octadecenoate + carbon dioxide; phases: Gas, Liquid
Property: Mass density, kg/m3 (Gas); method: VIBTUB:UFactor:128
Temperature, K	Mole fraction of carbon dioxide	Mass density, kg/m3	uncertainty
313	0.4876	56.1	8.7
313	0.5963	90.2	10.9
313	0.7077	133.1	13.7
313	0.7931	194	17.6
313	0.833	240.5	20.6
313	0.8595	315.4	26.4
313	0.8736	497.5	39.8
313	0.8891	651.5	28.4
313	0.9111	712.4	23.8
313	0.9231	749.2	21.6
313	0.9312	783	19.7
313	0.9387	809.2	17.9
333	0.6086	113.4	12.4
333	0.6969	153.2	14.9
333	0.7916	203.2	18.2
333	0.8255	268.9	22.6
333	0.8509	360.5	28.6
333	0.8813	471.7	35.9
333	0.8901	575.5	33
333	0.9072	615.5	30
333	0.9167	654.3	27.9
333	0.9213	682.3	26.4
333	0.9282	715.1	24.2
333	0.9341	742.7	22
333	0.943	764.2	20.5

System: methyl cis-9-octadecenoate + carbon dioxide; phases: Gas, Liquid
Property: Mole fraction of carbon dioxide (Gas); method: Density measurement and mass balance
Mole fraction of carbon dioxide	Temperature, K	Mole fraction of carbon dioxide	uncertainty
0.4876	313	0.9999	0.0001
0.5963	313	0.9999	0.0001
0.6086	333	0.9999	0.0001
0.6969	333	0.9999	0.0001
0.7077	313	0.9999	0.0001
0.7916	333	0.9999	0.0001
0.7931	313	0.9999	0.0001
0.8255	333	0.9999	0.0001
0.833	313	0.9999	0.0001
0.8509	333	0.9999	0.0001
0.8595	313	0.9999	0.0001
0.8736	313	0.9999	0.0001
0.8813	333	0.9999	0.0001
0.8891	313	0.9996	0.0004
0.8901	333	0.9969	0.0013
0.9072	333	0.9939	0.0013
0.9111	313	0.9951	0.0013
0.9167	333	0.9918	0.0013
0.9213	333	0.9902	0.0014
0.9231	313	0.9923	0.0014
0.9282	333	0.9875	0.0014
0.9312	313	0.987	0.0015
0.9341	333	0.9844	0.0014
0.9387	313	0.9823	0.0015
0.943	333	0.9812	0.0014

System: methyl (Z,Z)-9,12-octadecadienate + carbon dioxide; phases: Liquid, Gas
Property: Vapor or sublimation pressure, kPa (Liquid); method: CCELL:UFactor:16
Mole fraction of carbon dioxide	Temperature, K	Vapor or sublimation pressure, kPa	uncertainty
0.5217	313	2860	240
0.6128	333	5620	320
0.6288	313	4240	280
0.7016	333	7000	370
0.7185	313	5620	320
0.758	313	6310	350
0.791	333	8380	430
0.8057	313	7000	370
0.8255	333	9750	480
0.8337	313	7690	400
0.852	333	11130	550
0.8624	313	8380	430
0.8742	333	12510	620
0.8862	313	9060	460
0.8981	333	13200	650
0.8984	313	9750	480
0.9048	333	13890	690
0.9102	333	14580	720
0.9156	333	15270	760
0.9193	333	15960	790
0.9209	313	10440	520
0.9264	333	16650	830
0.9289	313	11130	550
0.934	333	17340	860
0.9388	313	11820	590
0.9509	333	18030	890

System: methyl (Z,Z)-9,12-octadecadienate + carbon dioxide; phases: Gas, Liquid
Property: Mass density, kg/m3 (Gas); method: VIBTUB:UFactor:128
Temperature, K	Mole fraction of carbon dioxide	Mass density, kg/m3	uncertainty
313	0.5217	55.9	8.7
313	0.6288	90	10.9
313	0.7185	132.8	13.6
313	0.758	159.7	15.4
313	0.8057	193.4	17.5
313	0.8337	238.9	20.6
313	0.8624	314.6	26
313	0.8862	488.3	38.3
313	0.8984	653.5	28.4
313	0.9209	715.8	23.7
313	0.9289	758.4	21.3
313	0.9388	790.3	19
333	0.6128	112.7	12.4
333	0.7016	152.8	14.9
333	0.791	202.7	18.1
333	0.8255	268.7	22.6
333	0.852	358.6	28.6
333	0.8742	470.9	35.6
333	0.8981	526.1	35.7
333	0.9048	573.4	33.8
333	0.9102	614.5	31.4
333	0.9156	654.6	28.9
333	0.9193	682	26.5
333	0.9264	715.2	24.1
333	0.934	747.4	21.5
333	0.9509	774.6	19.7

System: methyl (Z,Z)-9,12-octadecadienate + carbon dioxide; phases: Liquid, Gas
Property: Mass density, kg/m3 (Liquid); method: VIBTUB:UFactor:16
Temperature, K	Mole fraction of carbon dioxide	Mass density, kg/m3	uncertainty
313	0.5217	879.7	1.6
313	0.6288	881.5	1.6
313	0.7185	884.5	1.6
313	0.758	888.1	1.6
313	0.8057	890.6	1.5
313	0.8337	892.9	1.5
313	0.8624	895.4	1.5
313	0.8862	896.8	1.5
313	0.8984	895.2	1.5
313	0.9209	892.9	1.5
313	0.9289	890.5	1.6
313	0.9388	885.7	1.7
333	0.6128	868.3	1.7
333	0.7016	870.8	1.7
333	0.791	872.8	1.7
333	0.8255	874.1	1.7
333	0.852	875	1.7
333	0.8742	874.1	1.7
333	0.8981	873.4	1.7
333	0.9048	872.7	1.7
333	0.9102	871.7	1.7
333	0.9156	870.5	1.7
333	0.9193	870	1.8
333	0.9264	864.7	1.9
333	0.934	860.3	2.3
333	0.9509	838.1	2.6

System: methyl (Z,Z)-9,12-octadecadienate + carbon dioxide; phases: Gas, Liquid
Property: Mole fraction of carbon dioxide (Gas); method: Density measurement and mass balance
Mole fraction of carbon dioxide	Temperature, K	Mole fraction of carbon dioxide	uncertainty
0.5217	313	0.9999	0.0001
0.6128	333	0.9999	0.0001
0.6288	313	0.9999	0.0001
0.7016	333	0.9999	0.0001
0.7185	313	0.9999	0.0001
0.758	313	0.9999	0.0001
0.791	333	0.9999	0.0001
0.8057	313	0.9999	0.0001
0.8255	333	0.9999	0.0001
0.8337	313	0.9999	0.0001
0.852	333	0.9999	0.0001
0.8624	313	0.9999	0.0001
0.8742	333	0.9999	0.0001
0.8862	313	0.9999	0.0001
0.8981	333	0.9959	0.0013
0.8984	313	0.9979	0.0013
0.9048	333	0.9954	0.0013
0.9102	333	0.9944	0.0013
0.9156	333	0.9946	0.0014
0.9193	333	0.991	0.0015
0.9209	313	0.993	0.0013
0.9264	333	0.9882	0.0014
0.9289	313	0.9892	0.0014
0.934	333	0.9846	0.0014
0.9388	313	0.9851	0.0014
0.9509	333	0.9806	0.0013

System: carbon dioxide + eicosapentaenoic acid, ethyl ester; phases: Liquid, Gas
Property: Vapor or sublimation pressure, kPa (Liquid); method: CCELL:UFactor:16
Mole fraction of carbon dioxide	Temperature, K	Vapor or sublimation pressure, kPa	uncertainty
0.2842	333	2860	240
0.5005	333	4240	280
0.5962	313	4240	280
0.5996	333	5620	320
0.6826	333	7000	380
0.6865	313	5620	320
0.7423	333	8380	430
0.7582	313	7000	380
0.7876	333	9750	480
0.8186	333	11130	550
0.8265	313	8380	430
0.8338	333	12510	620
0.8496	313	9750	480
0.8541	333	13890	690
0.8708	313	10440	520
0.8766	333	15270	760
0.8826	313	11130	550
0.8921	313	11820	590
0.8927	333	16650	830
0.9008	313	12510	620
0.9043	333	18030	890
0.9091	313	13200	650
0.916	333	19410	960
0.9184	313	13890	690
0.9264	313	14580	720
0.9324	333	20790	1030
0.9402	313	15270	760

System: carbon dioxide + eicosapentaenoic acid, ethyl ester; phases: Liquid, Gas
Property: Mass density, kg/m3 (Liquid); method: VIBTUB:UFactor:16
Temperature, K	Mole fraction of carbon dioxide	Mass density, kg/m3	uncertainty
313	0.5962	907.6	1.6
313	0.6865	911.9	1.5
313	0.7582	915.2	1.4
313	0.8265	916.8	1.3
313	0.8496	916.3	1.3
313	0.8708	916	1.3
313	0.8826	916.1	1.3
313	0.8921	916	1.3
313	0.9008	915.5	1.3
313	0.9091	915.2	1.3
313	0.9184	913.7	1.4
313	0.9264	912.3	1.4
313	0.9402	906.6	1.5
333	0.2842	886.2	2
333	0.5005	888.6	1.8
333	0.5996	890.9	1.7
333	0.6826	892.9	1.6
333	0.7423	894.3	1.6
333	0.7876	895.3	1.5
333	0.8186	895.6	1.5
333	0.8338	895.5	1.5
333	0.8541	895.1	1.5
333	0.8766	894.8	1.5
333	0.8927	894.1	1.5
333	0.9043	892.8	1.5
333	0.916	890.3	1.6
333	0.9324	879.8	1.8

System: carbon dioxide + eicosapentaenoic acid, ethyl ester; phases: Gas, Liquid
Property: Mass density, kg/m3 (Gas); method: VIBTUB:UFactor:128
Temperature, K	Mole fraction of carbon dioxide	Mass density, kg/m3	uncertainty
313	0.5962	90.3	10.9
313	0.6865	133.4	13.7
313	0.7582	194.8	17.7
313	0.8265	316	25.9
313	0.8496	629.1	30.9
313	0.8708	689.2	25.3
313	0.8826	727.2	22.9
313	0.8921	755.8	21.1
313	0.9008	778.3	19.6
313	0.9091	798.6	18.2
313	0.9184	817.4	17
313	0.9264	833	16
313	0.9402	854	14.6
333	0.2842	50	8.3
333	0.5005	83.5	10.5
333	0.5996	112.4	12.3
333	0.6826	152.8	14.9
333	0.7423	202.3	18.1
333	0.7876	268.2	22.4
333	0.8186	357.5	28.5
333	0.8338	466.5	35.8
333	0.8541	563.2	33.5
333	0.8766	638.8	28.6
333	0.8927	694	25.1
333	0.9043	733.1	22.6
333	0.916	769.5	20.1
333	0.9324	801.9	18

System: carbon dioxide + eicosapentaenoic acid, ethyl ester; phases: Gas, Liquid
Property: Mole fraction of carbon dioxide (Gas); method: Density measurement and mass balance
Mole fraction of carbon dioxide	Temperature, K	Mole fraction of carbon dioxide	uncertainty
0.2842	333	0.9999	0.0001
0.5005	333	0.9999	0.0001
0.5962	313	0.9999	0.0001
0.5996	333	0.9999	0.0001
0.6826	333	0.9999	0.0001
0.6865	313	0.9999	0.0001
0.7423	333	0.9999	0.0001
0.7582	313	0.9999	0.0001
0.7876	333	0.9999	0.0001
0.8186	333	0.9999	0.0001
0.8265	313	0.9999	0.0001
0.8338	333	0.9999	0.0001
0.8496	313	0.9999	0.0001
0.8541	333	0.9989	0.0011
0.8708	313	0.9998	0.0002
0.8766	333	0.9942	0.0013
0.8826	313	0.9993	0.0007
0.8921	313	0.9973	0.0013
0.8927	333	0.991	0.0013
0.9008	313	0.9951	0.0014
0.9043	333	0.9881	0.0014
0.9091	313	0.9923	0.0014
0.916	333	0.9843	0.0014
0.9184	313	0.9889	0.0014
0.9264	313	0.9852	0.0014
0.9324	333	0.9793	0.0014
0.9402	313	0.979	0.0014

System: carbon dioxide + docosahexaenoic acid, ethyl ester; phases: Liquid, Gas
Property: Vapor or sublimation pressure, kPa (Liquid); method: CCELL:UFactor:16
Mole fraction of carbon dioxide	Temperature, K	Vapor or sublimation pressure, kPa	uncertainty
0.5325	313	4240	280
0.5583	333	5620	330
0.6793	333	7000	380
0.6836	313	5620	330
0.7551	333	8380	430
0.7773	313	7000	380
0.7811	333	9750	490
0.8154	333	11130	550
0.8278	333	12510	620
0.8411	333	13890	690
0.849	313	8380	430
0.8612	333	15270	760
0.8784	333	16650	830
0.8795	313	9750	490
0.8918	333	18030	890
0.8972	313	11130	550
0.9022	333	19410	960
0.9114	333	20790	1030
0.9121	313	12510	620
0.9221	333	22160	1100
0.9222	313	13890	690
0.9266	313	14580	720
0.9335	313	15960	790
0.9366	313	16650	830
0.9392	313	17340	860
0.9419	333	23540	1170
0.9443	313	18030	890

System: carbon dioxide + docosahexaenoic acid, ethyl ester; phases: Liquid, Gas
Property: Mass density, kg/m3 (Liquid); method: VIBTUB:UFactor:16
Temperature, K	Mole fraction of carbon dioxide	Mass density, kg/m3	uncertainty
313	0.5325	912.2	2.6
313	0.6836	915.9	2
313	0.7773	919.1	1.7
313	0.849	920.8	1.5
313	0.8795	921.3	1.4
313	0.8972	922.1	1.4
313	0.9121	923	1.3
313	0.9222	923.7	1.3
313	0.9266	923.8	1.3
313	0.9335	924	1.3
313	0.9366	923.9	1.3
313	0.9392	924.1	1.3
313	0.9443	921.9	1.4
333	0.5583	894.9	2.5
333	0.6793	896.5	2.1
333	0.7551	898.4	1.8
333	0.7811	899.5	1.8
333	0.8154	900	1.7
333	0.8278	900.5	1.6
333	0.8411	900.7	1.6
333	0.8612	900.8	1.6
333	0.8784	901	1.5
333	0.8918	901.4	1.5
333	0.9022	901.3	1.5
333	0.9114	900.5	1.5
333	0.9221	899	1.6
333	0.9419	887.6	1.7

System: carbon dioxide + docosahexaenoic acid, ethyl ester; phases: Gas, Liquid
Property: Mass density, kg/m3 (Gas); method: VIBTUB:UFactor:128
Temperature, K	Mole fraction of carbon dioxide	Mass density, kg/m3	uncertainty
313	0.5325	89.8	10.9
313	0.6836	132.6	13.6
313	0.7773	193.4	17.6
313	0.849	315.7	25.8
313	0.8795	621.8	31.4
313	0.8972	714.5	24.1
313	0.9121	763	20.8
313	0.9222	796.4	18.8
313	0.9266	810.8	17.9
313	0.9335	835.9	16.5
313	0.9366	847.3	15.9
313	0.9392	858.3	14.9
313	0.9443	870.4	14
333	0.5583	113.2	12.4
333	0.6793	152.9	14.9
333	0.7551	202.7	18.2
333	0.7811	268.3	22.6
333	0.8154	358.4	28.5
333	0.8278	464.1	36.3
333	0.8411	557.9	34
333	0.8612	625.5	29.4
333	0.8784	674.6	26.3
333	0.8918	718.8	23.6
333	0.9022	752.2	21.4
333	0.9114	777.7	19.7
333	0.9221	803.6	17.9
333	0.9419	828.2	16.3

System: carbon dioxide + docosahexaenoic acid, ethyl ester; phases: Gas, Liquid
Property: Mole fraction of carbon dioxide (Gas); method: Density measurement and mass balance
Mole fraction of carbon dioxide	Temperature, K	Mole fraction of carbon dioxide	uncertainty
0.5325	313	0.9999	0.0001
0.5583	333	0.9999	0.0001
0.6793	333	0.9999	0.0001
0.6836	313	0.9999	0.0001
0.7551	333	0.9999	0.0001
0.7773	313	0.9999	0.0001
0.7811	333	0.9999	0.0001
0.8154	333	0.9999	0.0001
0.8278	333	0.9999	0.0001
0.8411	333	0.9999	0.0001
0.849	313	0.9999	0.0001
0.8612	333	0.9998	0.0002
0.8784	333	0.9983	0.0013
0.8795	313	0.9999	0.0001
0.8918	333	0.9953	0.0013
0.8972	313	0.9989	0.0011
0.9022	333	0.9923	0.0014
0.9114	333	0.9895	0.0014
0.9121	313	0.9967	0.0013
0.9221	333	0.9861	0.0013
0.9222	313	0.9943	0.0013
0.9266	313	0.993	0.0014
0.9335	313	0.9901	0.0014
0.9366	313	0.9885	0.0015
0.9392	313	0.9865	0.0015
0.9419	333	0.9822	0.0013
0.9443	313	0.9836	0.0015
