Measured thermophysical data. Liquid-liquid measurement and correlation for separation of azeotrope (dimethyl carbonate and ethanol) with different imidazolium-based ionic liquids
Source: Fluid Phase Equilib., 2019, 10.1016/j.fluid.2018.12.034
Compound 1: ethanol, C2H6O, InChI=1S/C2H6O/c1-2-3/h3H,2H2,1H3, purity 99.7%
Compound 2: dimethyl carbonate, C3H6O3, InChI=1S/C3H6O3/c1-5-3(4)6-2/h1-2H3, purity 99%
Compound 3: 1-ethyl-3-methylimidazolium hydrogen sulfate, C6H12N2O4S, InChI=1S/C6H11N2.H2O4S/c1-3-8-5-4-7(2)6-8;1-5(2,3)4/h4-6H,3H2,1-2H3;(H2,1,2,3,4)/q+1;/p-1, purity 99%
Compound 4: 1-propyl-3-methylimidazolium hydrogen sulfate, C7H14N2O4S, InChI=1S/C7H13N2.H2O4S/c1-3-4-9-6-5-8(2)7-9;1-5(2,3)4/h5-7H,3-4H2,1-2H3;(H2,1,2,3,4)/q+1;/p-1, purity 99%
Compound 5: 1-butyl-3-methylimidazolium hydrogen sulfate, C8H16N2O4S, InChI=1S/C8H15N2.H2O4S/c1-3-4-5-10-7-6-9(2)8-10;1-5(2,3)4/h6-8H,3-5H2,1-2H3;(H2,1,2,3,4)/q+1;/p-1, purity 99%
Compound 6: 1-ethyl-3-methylimidazolium nitrate, C6H11N3O3, InChI=1S/C6H11N2.NO3/c1-3-8-5-4-7(2)6-8;2-1(3)4/h4-6H,3H2,1-2H3;/q+1;-1, purity 99%

System: dimethyl carbonate + ethanol + 1-ethyl-3-methylimidazolium hydrogen sulfate; phases: Liquid mixture 2, Liquid mixture 1
Fixed: Temperature, K = 298.15
Fixed: Pressure, kPa = 101.3
Property: Mole fraction of dimethyl carbonate (Liquid mixture 2); method: Chromatography
Property: Mole fraction of ethanol (Liquid mixture 1); method: Chromatography
Property: Mole fraction of dimethyl carbonate (Liquid mixture 1); method: Chromatography
Mole fraction of ethanol	Mole fraction of dimethyl carbonate	uncertainty	Mole fraction of ethanol	uncertainty	Mole fraction of dimethyl carbonate	uncertainty
0.4223	0.4356	0.0273	0.3227	0.0203	0.6556	
0.4413	0.3724	0.0591	0.3017	0.0225	0.6883	
0.4276	0.3401	0.0189	0.242	0.0235	0.751	
0.3906	0.3228	0.0385	0.1956	0.0233	0.8002	
0.3547	0.2965	0.0198	0.1737	0.0236	0.8239	
0.3043	0.272	0.0184	0.1424	0.0238	0.8559	
0.2314	0.2477	0.0185	0.0866	0.0238	0.9127	
0.1807	0.22	0.0178	0.0672	0.0242	0.9326	
0	0.1772	0.017	0		0.9986	

System: dimethyl carbonate + ethanol + 1-propyl-3-methylimidazolium hydrogen sulfate; phases: Liquid mixture 2, Liquid mixture 1
Fixed: Temperature, K = 298.15
Fixed: Pressure, kPa = 101.3
Property: Mole fraction of dimethyl carbonate (Liquid mixture 2); method: Chromatography
Property: Mole fraction of ethanol (Liquid mixture 1); method: Chromatography
Property: Mole fraction of dimethyl carbonate (Liquid mixture 1); method: Chromatography
Mole fraction of ethanol	Mole fraction of dimethyl carbonate	uncertainty	Mole fraction of ethanol	uncertainty	Mole fraction of dimethyl carbonate	uncertainty
0.4082	0.4566	0.0379	0.2582	0.0224	0.7274	
0.4017	0.43	0.0312	0.2258	0.0225	0.7656	
0.4016	0.3929	0.0179	0.1984	0.0233	0.7969	
0.3718	0.3843	0.0175	0.157	0.0236	0.8397	
0.3295	0.3796	0.0179	0.1366	0.0235	0.8612	
0.2902	0.36	0.0186	0.1179	0.0239	0.8809	
0.2469	0.3449	0.0177	0.0708	0.0239	0.9283	
0.1786	0.3318	0.0177	0.049	0.024	0.9505	
0	0.2818	0.0171	0		0.9994	

System: dimethyl carbonate + ethanol + 1-butyl-3-methylimidazolium hydrogen sulfate; phases: Liquid mixture 2, Liquid mixture 1
Fixed: Temperature, K = 298.15
Fixed: Pressure, kPa = 101.3
Property: Mole fraction of dimethyl carbonate (Liquid mixture 2); method: Chromatography
Property: Mole fraction of ethanol (Liquid mixture 1); method: Chromatography
Property: Mole fraction of dimethyl carbonate (Liquid mixture 1); method: Chromatography
Mole fraction of ethanol	Mole fraction of dimethyl carbonate	uncertainty	Mole fraction of ethanol	uncertainty	Mole fraction of dimethyl carbonate	uncertainty
0.3531	0.5385	0.0481	0.2336	0.0224	0.7507	
0.3606	0.4998	0.0245	0.1961	0.0227	0.7947	
0.35	0.4758	0.0193	0.1852	0.0227	0.8099	
0.3246	0.4632	0.0176	0.1432	0.0237	0.8531	
0.2799	0.4616	0.0181	0.1134	0.0236	0.8843	
0.2504	0.438	0.0185	0.0874	0.0237	0.9112	
0.195	0.4264	0.0179	0.0652	0.0238	0.934	
0.1322	0.4053	0.0182	0.0392	0.0241	0.9605	
0	0.3586	0.0172	0		0.9992	

System: dimethyl carbonate + ethanol + 1-ethyl-3-methylimidazolium nitrate; phases: Liquid mixture 2, Liquid mixture 1
Fixed: Temperature, K = 298.15
Fixed: Pressure, kPa = 101.3
Property: Mole fraction of ethanol (Liquid mixture 2); method: Chromatography
Property: Mole fraction of ethanol (Liquid mixture 1); method: Chromatography
Property: Mole fraction of dimethyl carbonate (Liquid mixture 1); method: Chromatography
Mole fraction of dimethyl carbonate	Mole fraction of ethanol	uncertainty	Mole fraction of ethanol	uncertainty	Mole fraction of dimethyl carbonate	uncertainty
0.6381	0.1869	0.0172	0.0706	0.0183	0.9115	
0.6159	0.1843	0.0182	0.0631	0.0199	0.9304	
0.6025	0.1759	0.0181	0.0585	0.0203	0.9355	
0.5841	0.167	0.0235	0.0554	0.0206	0.9411	
0.5682	0.1496	0.0234	0.0473	0.0227	0.9499	
0.5552	0.1322	0.0256	0.0413	0.0226	0.9563	
0.5351	0.1122	0.0331	0.0347	0.0234	0.9635	
0.5257	0.0826	0.0326	0.0248	0.0237	0.9739	
0.5037	0.0481	0.0316	0.0141	0.0141	0.9849	
0.5002	0		0		0.9989	

System: dimethyl carbonate + 1-ethyl-3-methylimidazolium hydrogen sulfate; phases: Liquid mixture 2, Liquid mixture 1
Property: Mole fraction of dimethyl carbonate (Liquid mixture 2); method: Chromatography
Temperature, K	Pressure, kPa	Mole fraction of dimethyl carbonate	uncertainty
298.15	101.3	0.1772	0.017

System: dimethyl carbonate + 1-ethyl-3-methylimidazolium hydrogen sulfate; phases: Liquid mixture 1, Liquid mixture 2
Property: Mole fraction of dimethyl carbonate (Liquid mixture 1); method: Chromatography
Temperature, K	Pressure, kPa	Mole fraction of dimethyl carbonate	uncertainty
298.15	101.3	0.9986	0.0014

System: dimethyl carbonate + 1-propyl-3-methylimidazolium hydrogen sulfate; phases: Liquid mixture 2, Liquid mixture 1
Property: Mole fraction of dimethyl carbonate (Liquid mixture 2); method: Chromatography
Temperature, K	Pressure, kPa	Mole fraction of dimethyl carbonate	uncertainty
298.15	101.3	0.2818	0.0171

System: dimethyl carbonate + 1-propyl-3-methylimidazolium hydrogen sulfate; phases: Liquid mixture 1, Liquid mixture 2
Property: Mole fraction of dimethyl carbonate (Liquid mixture 1); method: Chromatography
Temperature, K	Pressure, kPa	Mole fraction of dimethyl carbonate	uncertainty
298.15	101.3	0.9994	0.0006

System: dimethyl carbonate + 1-butyl-3-methylimidazolium hydrogen sulfate; phases: Liquid mixture 2, Liquid mixture 1
Property: Mole fraction of dimethyl carbonate (Liquid mixture 2); method: Chromatography
Temperature, K	Pressure, kPa	Mole fraction of dimethyl carbonate	uncertainty
298.15	101.3	0.3586	0.0172

System: dimethyl carbonate + 1-butyl-3-methylimidazolium hydrogen sulfate; phases: Liquid mixture 1, Liquid mixture 2
Property: Mole fraction of dimethyl carbonate (Liquid mixture 1); method: Chromatography
Temperature, K	Pressure, kPa	Mole fraction of dimethyl carbonate	uncertainty
298.15	101.3	0.9992	0.0008

System: dimethyl carbonate + 1-ethyl-3-methylimidazolium nitrate; phases: Liquid mixture 2, Liquid mixture 1
Property: Mole fraction of dimethyl carbonate (Liquid mixture 2); method: Chromatography
Temperature, K	Pressure, kPa	Mole fraction of dimethyl carbonate	uncertainty
298.15	101.3	0.5002	0.0174

System: dimethyl carbonate + 1-ethyl-3-methylimidazolium nitrate; phases: Liquid mixture 1, Liquid mixture 2
Property: Mole fraction of dimethyl carbonate (Liquid mixture 1); method: Chromatography
Temperature, K	Pressure, kPa	Mole fraction of dimethyl carbonate	uncertainty
298.15	101.3	0.9989	0.0011
