Measured thermophysical data. Experimental measurements of saturated vapor pressure and isothermal vapor-liquid equilibria for 1,1,1,2-Tetrafluoroethane (HFC-134a) + 3,3,3-trifluoropropene (HFO-1243zf) binary system
Source: Fluid Phase Equilib., 2019, 10.1016/j.fluid.2019.06.020
Compound 1: 1,1,1-trifluoro-2-propene, C3H3F3, InChI=1S/C3H3F3/c1-2-3(4,5)6/h2H,1H2, purity 99.8%
Compound 2: 1,1,1,2-tetrafluoroethane, C2H2F4, InChI=1S/C2H2F4/c3-1-2(4,5)6/h1H2, purity 99.7%
Compound 3: difluoromethane, CH2F2, InChI=1S/CH2F2/c2-1-3/h1H2, purity 99.8%

System: 1,1,1-trifluoro-2-propene; phases: Liquid, Gas
Property: Vapor or sublimation pressure, kPa (Liquid); method: Closed cell (Static) method
Temperature, K	Vapor or sublimation pressure, kPa	uncertainty
273.17	268.8	5
278.17	318.4	5
283.16	373.6	5.1
288.16	437.6	5.1
293.15	510	5.1
298.15	590.1	5.1
303.15	678.2	5.1
308.15	776.7	5.2
313.15	883.6	5.2
318.15	1001.8	5.3
323.14	1130.4	5.4
328.14	1274.9	5.5
333.14	1431.6	5.6
338.14	1600.5	5.7
343.14	1785.7	5.8
348.13	1986.4	6
353.13	2203.1	6.2

System: 1,1,1,2-tetrafluoroethane; phases: Liquid, Gas
Property: Vapor or sublimation pressure, kPa (Liquid); method: Closed cell (Static) method
Temperature, K	Vapor or sublimation pressure, kPa	uncertainty
273.17	294.3	5
278.17	351.2	5.1
283.16	415.4	5.1
288.16	488.2	5.1
293.15	570.6	5.1
298.15	664.8	5.2
303.15	769.2	5.2
308.15	886	5.3
313.15	1017.7	5.3
318.15	1158.1	5.4
323.15	1317.4	5.5
328.15	1489.6	5.6
333.15	1679.7	5.8
338.14	1889.1	6
343.14	2118.1	6.2
348.13	2361.2	6.4
353.13	2634.6	6.7

System: difluoromethane + 1,1,1,2-tetrafluoroethane; phases: Liquid, Gas
Property: Vapor or sublimation pressure, kPa (Liquid); method: Closed cell (Static) method
Mole fraction of difluoromethane	Temperature, K	Vapor or sublimation pressure, kPa	uncertainty
0	293.15	571.5	5.3
0.432	293.15	944.7	10.4
0.562	293.15	1053.4	11
0.761	293.15	1246	11.5
1	293.15	1474.1	6.8
0	303.15	770.1	5.6
0.402	303.15	1240.8	13.2
0.536	303.15	1376.6	13.3
0.734	303.15	1626.2	13.7
1	303.15	1928.3	7.7
0	313.15	1017.5	5.9
0.371	313.15	1559.7	16.2
0.491	313.15	1732.7	16.7
0.715	313.15	2077.2	16.6
1	313.15	2479	9
0	323.14	1317.2	6.4
0.351	323.14	1914.8	19.1
0.461	323.14	2132.2	20.8
0.689	323.14	2563.1	20.8
1	323.14	3141.5	10.6

System: difluoromethane + 1,1,1,2-tetrafluoroethane; phases: Gas, Liquid
Property: Mole fraction of difluoromethane (Gas); method: Chromatography
Mole fraction of difluoromethane	Temperature, K	Mole fraction of difluoromethane	uncertainty
0	293.15	0	
0.432	293.15	0.615	0.017
0.562	293.15	0.728	0.012
0.761	293.15	0.844	0.012
1	293.15	1	
0	303.15	0	
0.402	303.15	0.573	0.017
0.536	303.15	0.672	0.013
0.734	303.15	0.825	0.012
1	303.15	1	
0	313.15	0	
0.371	313.15	0.515	0.017
0.491	313.15	0.628	0.013
0.715	313.15	0.806	0.012
1	313.15	1	
0	323.14	0	
0.351	323.14	0.467	0.017
0.461	323.14	0.587	0.014
0.689	323.14	0.792	0.013
1	323.14	1	

System: 1,1,1,2-tetrafluoroethane + 1,1,1-trifluoro-2-propene; phases: Liquid, Gas
Property: Vapor or sublimation pressure, kPa (Liquid); method: Closed cell (Static) method
Mole fraction of 1,1,1,2-tetrafluoroethane	Temperature, K	Vapor or sublimation pressure, kPa	uncertainty
0	293.15	510.5	5.3
0.167	293.15	531	5.4
0.242	293.15	539.8	5.4
0.349	293.15	551.2	5.4
0.513	293.15	563.2	5.4
0.589	293.15	570.8	5.4
0.699	293.15	578.7	5.4
0.793	293.15	579.9	5.3
0.833	293.15	581.4	5.3
0.932	293.15	576	5.4
1	293.15	571.5	5.3
0	303.15	679.1	5.4
0.168	303.15	706.6	5.8
0.243	303.15	718.9	5.6
0.349	303.15	734.7	5.6
0.515	303.15	752.6	5.7
0.591	303.15	764.5	5.6
0.701	303.15	776.3	5.6
0.794	303.15	778.4	5.6
0.835	303.15	779.3	5.6
0.928	303.15	775.2	5.6
1	303.15	770.1	5.6
0	313.15	884.3	5.7
0.167	313.15	922.6	6.2
0.24	313.15	935.8	6
0.349	313.15	957.7	6.1
0.516	313.15	990.9	6.2
0.591	313.15	1001.9	6
0.7	313.15	1017.5	6
0.792	313.15	1024.6	6.1
0.834	313.15	1028.7	5.9
0.928	313.15	1026.1	5.9
1	313.15	1017.5	5.9
0	323.14	1129.5	6
0.166	323.14	1182.5	6.9
0.235	323.14	1200.9	6.7
0.352	323.14	1230.8	6.7
0.51	323.14	1266.5	6.7
0.591	323.14	1288.8	6.8
0.7	323.14	1314.1	6.7
0.793	323.14	1327.3	6.5
0.834	323.14	1330.7	6.4
0.928	323.14	1328.2	6.5
1	323.14	1317.2	6.4

System: 1,1,1,2-tetrafluoroethane + 1,1,1-trifluoro-2-propene; phases: Gas, Liquid
Property: Mole fraction of 1,1,1,2-tetrafluoroethane (Gas); method: Chromatography
Mole fraction of 1,1,1,2-tetrafluoroethane	Temperature, K	Mole fraction of 1,1,1,2-tetrafluoroethane	uncertainty
0	293.15	0	
0.167	293.15	0.189	0.015
0.242	293.15	0.267	0.015
0.349	293.15	0.378	0.015
0.513	293.15	0.541	0.014
0.589	293.15	0.605	0.014
0.699	293.15	0.711	0.014
0.793	293.15	0.797	0.014
0.833	293.15	0.83	0.014
0.932	293.15	0.931	0.014
1	293.15	1	
0	303.15	0	
0.168	303.15	0.187	0.015
0.243	303.15	0.268	0.015
0.349	303.15	0.378	0.014
0.515	303.15	0.539	0.014
0.591	303.15	0.603	0.014
0.701	303.15	0.708	0.014
0.794	303.15	0.799	0.014
0.835	303.15	0.833	0.014
0.928	303.15	0.927	0.014
1	303.15	1	
0	313.15	0	
0.167	313.15	0.187	0.015
0.24	313.15	0.268	0.015
0.349	313.15	0.377	0.014
0.516	313.15	0.538	0.014
0.591	313.15	0.606	0.014
0.7	313.15	0.705	0.014
0.792	313.15	0.807	0.014
0.834	313.15	0.832	0.014
0.928	313.15	0.925	0.014
1	313.15	1	
0	323.14	0	
0.166	323.14	0.185	0.015
0.235	323.14	0.269	0.014
0.352	323.14	0.376	0.014
0.51	323.14	0.536	0.014
0.591	323.14	0.604	0.014
0.7	323.14	0.707	0.014
0.793	323.14	0.794	0.014
0.834	323.14	0.833	0.014
0.928	323.14	0.926	0.014
1	323.14	1	
