Measured thermophysical data. Study of thermodynamic properties of L-serine in aqueous 1-carboxymethyl-3-methylimidazolium chloride solutions at 298.15 K
Source: Fluid Phase Equilib., 2014, 10.1016/j.fluid.2013.11.017
Compound 1: L-serine, C3H7NO3, InChI=1S/C3H7NO3/c4-2(1-5)3(6)7/h2,5H,1,4H2,(H,6,7)/t2-/m0/s1, purity 99%
Compound 2: 1-carboxymethyl-3-methylimidazolium chloride, C6H9ClN2O2, InChI=1S/C6H8N2O2.ClH/c1-7-2-3-8(5-7)4-6(9)10;/h2-3,5H,4H2,1H3;1H
Compound 3: water, H2O, InChI=1S/H2O/h1H2
Compound 4: sodium chloride, ClNa, InChI=1S/ClH.Na/h1H;/q;+1/p-1, purity 99.5%

System: L-serine + water; phases: Liquid
Fixed: Pressure, kPa = 101
Fixed: Temperature, K = 298.15
Property: (Relative) activity of water (Liquid); method: isopiestic method
Molality, mol/kg of L-serine	(Relative) activity of water	uncertainty
0.2595	0.9953	0.0004
0.6833	0.9882	0.0004
0.7901	0.9864	0.0004
0.8983	0.9849	0.0004
0.9146	0.9847	0.0004
1.1473	0.9814	0.0004
1.3042	0.979	0.0004
1.5431	0.9759	0.0004
1.5909	0.9751	0.0004
1.761	0.9725	0.0004
1.7908	0.972	0.0004
2.8638	0.957	0.0004
3.4645	0.9478	0.0004
1.124	0.9812	0.0004
1.3369	0.978	0.0004
1.4925	0.9756	0.0004
1.8366	0.9699	0.0004
2.0011	0.9687	0.0004
2.1976	0.9648	0.0004
2.4834	0.9618	0.0004

System: L-serine + water; phases: Liquid, Crystal
Property: Mass ratio of solute to solvent of L-serine (Liquid); method: gravimetric method
Temperature, K	Pressure, kPa	Mass ratio of solute to solvent of L-serine	uncertainty
298.15	101	0.4298	0.0014

System: water + 1-carboxymethyl-3-methylimidazolium chloride; phases: Liquid
Fixed: Pressure, kPa = 101
Fixed: Temperature, K = 298.15
Property: (Relative) activity of water (Liquid); method: isopiestic method
Molality, mol/kg of 1-carboxymethyl-3-methylimidazolium chloride	(Relative) activity of water	uncertainty
0.5407	0.9812	0.0004
0.6393	0.978	0.0004
1.1518	0.9618	0.0004
1.4678	0.9524	0.0004
1.5686	0.9497	0.0004
1.6164	0.9483	0.0004
1.7799	0.9436	0.0004
1.8154	0.9423	0.0004
1.9401	0.9389	0.0004
2.0497	0.9356	0.0004
2.2015	0.9316	0.0004
2.2327	0.9308	0.0004
2.3607	0.9276	0.0004
2.9836	0.9098	0.0004
3.0344	0.9087	0.0004
0.7245	0.9756	0.0004
0.8997	0.9699	0.0004
0.9626	0.9687	0.0004
1.0642	0.9648	0.0004

System: L-serine + water + 1-carboxymethyl-3-methylimidazolium chloride; phases: Liquid
Fixed: Pressure, kPa = 101
Fixed: Temperature, K = 298.15
Property: (Relative) activity of water (Liquid); method: isopiestic method
Molality, mol/kg of 1-carboxymethyl-3-methylimidazolium chloride	Molality, mol/kg of L-serine	(Relative) activity of water	uncertainty
0.5407	0	0.9812	0.0004
0.4549	0.1778	0.9812	0.0004
0.3184	0.4417	0.9812	0.0004
0	1.124	0.9812	0.0004
0.6393	0	0.978	0.0004
0.5405	0.2116	0.978	0.0004
0.3808	0.5289	0.978	0.0004
0	1.3369	0.978	0.0004
0.7245	0	0.9756	0.0004
0.6136	0.2395	0.9756	0.0004
0.4213	0.5847	0.9756	0.0004
0	1.4925	0.9756	0.0004
0.8997	0	0.9699	0.0004
0.7449	0.2908	0.9699	0.0004
0.5196	0.721	0.9699	0.0004
0	1.8366	0.9699	0.0004
0.9626	0	0.9687	0.0004
0.9423	0.0839	0.9687	0.0004
0.8136	0.3331	0.9687	0.0004
0	2.0011	0.9687	0.0004
1.0642	0	0.9648	0.0004
1.0305	0.1159	0.9648	0.0004
0.8866	0.385	0.9648	0.0004
0	2.1976	0.9648	0.0004
1.1518	0	0.9618	0.0004
1.0012	0.3261	0.9618	0.0004
0.6688	0.9833	0.9618	0.0004
0	2.4834	0.9618	0.0004

System: L-serine + water + 1-carboxymethyl-3-methylimidazolium chloride; phases: Liquid, Crystal
Fixed: Pressure, kPa = 101
Fixed: Temperature, K = 298.15
Property: Mass ratio of solute to solvent of L-serine (Liquid); method: gravimetric method
Molality, mol/kg of 1-carboxymethyl-3-methylimidazolium chloride	Mass ratio of solute to solvent of L-serine	uncertainty
0	0.4298	0.0014
0.087	0.4483	0.0014
0.186	0.4583	0.0014
0.298	0.4712	0.0014
0.447	0.4909	0.0015
0.648	0.5116	0.0015

System: L-serine + sodium chloride + water; phases: Liquid
Fixed: Temperature, K = 298.15
Fixed: Pressure, kPa = 101
Property: (Relative) activity of water (Liquid); method: isopiestic method
Molality, mol/kg of L-serine	Molality, mol/kg of sodium chloride	(Relative) activity of water	uncertainty
0.2595	0.1406	0.9953	0.0008
0.6833	0.3568	0.9882	0.0008
0.7901	0.4115	0.9864	0.0008
0.8983	0.4562	0.9849	0.0008
0.9146	0.4638	0.9847	0.0008
1.1473	0.5639	0.9814	0.0008
1.3042	0.6336	0.979	0.0008
1.5431	0.7283	0.9759	0.0008
1.5909	0.7503	0.9751	0.0008
1.761	0.8271	0.9725	0.0008
1.7908	0.8428	0.972	0.0008
2.8638	1.2796	0.957	0.0008
3.4645	1.5396	0.9478	0.0008

System: sodium chloride + water + 1-carboxymethyl-3-methylimidazolium chloride; phases: Liquid
Fixed: Temperature, K = 298.15
Fixed: Pressure, kPa = 101
Property: (Relative) activity of water (Liquid); method: isopiestic
Molality, mol/kg of 1-carboxymethyl-3-methylimidazolium chloride	Molality, mol/kg of sodium chloride	(Relative) activity of water	uncertainty
0.5407	0.5679	0.9812	0.0008
0.6393	0.6659	0.978	0.0008
1.1518	1.1423	0.9618	0.0008
1.4678	1.4108	0.9524	0.0008
1.5686	1.487	0.9497	0.0008
1.6164	1.5266	0.9483	0.0008
1.7799	1.6574	0.9436	0.0008
1.8154	1.6916	0.9423	0.0008
1.9401	1.785	0.9389	0.0008
2.0497	1.8764	0.9356	0.0008
2.2015	1.984	0.9316	0.0008
2.2327	2.0069	0.9308	0.0008
2.3607	2.0916	0.9276	0.0008
2.9836	2.5589	0.9098	0.0008
3.0344	2.5856	0.9087	0.0008
