Measured thermophysical data. Limiting activity coefficients of 1-chlorobutane in water and in aqueous solutions of substances involved in synthesis of ionic liquids
Source: Fluid Phase Equilib., 2010, 10.1016/j.fluid.2010.09.026
Compound 1: 1-chlorobutane, C4H9Cl, InChI=1S/C4H9Cl/c1-2-3-4-5/h2-4H2,1H3, purity 99%
Compound 2: water, H2O, InChI=1S/H2O/h1H2
Compound 3: 1-butyl-3-methylimidazolium chloride, C8H15ClN2, InChI=1S/C8H15N2.ClH/c1-3-4-5-10-7-6-9(2)8-10;/h6-8H,3-5H2,1-2H3;1H/q+1;/p-1, purity 99%
Compound 4: sodium chloride, ClNa, InChI=1S/ClH.Na/h1H;/q;+1/p-1, purity 99.9%
Compound 5: 1-methylimidazole, C4H6N2, InChI=1S/C4H6N2/c1-6-3-2-5-4-6/h2-4H,1H3, purity 99%

System: 1-chlorobutane + water; phases: Liquid
Fixed: Temperature, K = 293.15
Fixed: Pressure, kPa = 101.3
Fixed: Molality, mol/kg of 1-chlorobutane = 0
Property: Activity coefficient of 1-chlorobutane (Liquid); method: Exponential Saturator
Activity coefficient of 1-chlorobutane	uncertainty
7490	899
7420	890

System: 1-chlorobutane + water; phases: Liquid
Fixed: Pressure, kPa = 101.3
Fixed: Molality, mol/kg of 1-chlorobutane = 0
Property: Activity coefficient of 1-chlorobutane (Liquid); method: Inert Gas Stripping
Temperature, K	Activity coefficient of 1-chlorobutane	uncertainty
273.35	6390	767
278.15	6720	806
283.15	7150	858
293.15	7640	917
298.15	7800	936
303.15	7970	956
308.15	7890	947

System: 1-chlorobutane + 1-methylimidazole + water; phases: Liquid
Fixed: Pressure, kPa = 101.3
Fixed: Mole fraction of 1-chlorobutane = 0
Property: Activity coefficient of 1-chlorobutane (Liquid); method: Inert Gas Stripping
Temperature, K	Solvent: Molality, mol/kg of 1-methylimidazole	Activity coefficient of 1-chlorobutane	uncertainty
273.35	0.134	6200	744
273.35	0.31	5830	700
273.35	0.563	5470	657
283.15	0.134	6700	804
283.15	0.31	6260	751
283.15	0.563	5910	709
293.15	0.134	6990	840
293.15	0.31	6300	756
293.15	0.563	6020	722

System: 1-chlorobutane + water + 1-butyl-3-methylimidazolium chloride; phases: Liquid
Fixed: Pressure, kPa = 101.3
Fixed: Mole fraction of 1-chlorobutane = 0
Property: Activity coefficient of 1-chlorobutane (Liquid); method: Inert Gas Stripping
Temperature, K	Solvent: Molality, mol/kg of 1-butyl-3-methylimidazolium chloride	Activity coefficient of 1-chlorobutane	uncertainty
273.35	0.276	6140	737
273.35	0.456	5820	698
283.15	0.276	6640	797
283.15	0.456	6170	740
293.15	0.276	6690	803
293.15	0.456	6170	740

System: 1-chlorobutane + sodium chloride + water; phases: Liquid
Fixed: Pressure, kPa = 101.3
Fixed: Mole fraction of 1-chlorobutane = 0
Property: Activity coefficient of 1-chlorobutane (Liquid); method: Inert Gas Stripping
Temperature, K	Solvent: Molality, mol/kg of sodium chloride	Activity coefficient of 1-chlorobutane	uncertainty
273.35	0.252	7500	900
273.35	0.462	8420	1010
293.15	0.252	8480	1018
293.15	0.462	9650	1158
