Measured thermophysical data. Volumetric properties under pressure for the binary system ethanol + toluene
Source: Fluid Phase Equilib., 2005, 10.1016/j.fluid.2005.05.023
Compound 1: ethanol, C2H6O, InChI=1S/C2H6O/c1-2-3/h3H,2H2,1H3
Compound 2: toluene, C7H8, InChI=1S/C7H8/c1-7-5-3-2-4-6-7/h2-6H,1H3

System: ethanol; phases: Liquid
Property: Mass density, kg/m3 (Liquid); method: Vibrating tube method
Temperature, K	Pressure, kPa	Mass density, kg/m3	uncertainty
283.15	100	798	0.2
283.15	5000	802	0.3
283.15	10000	805.9	0.3
283.15	15000	809.5	0.3
283.15	20000	813	0.3
283.15	25000	816.4	0.3
283.15	30000	819.7	0.4
283.15	35000	822.8	0.4
283.15	40000	825.9	0.4
283.15	45000	828.8	0.4
293.15	100	789.5	0.2
293.15	5000	793.7	0.3
293.15	10000	797.8	0.3
293.15	15000	801.6	0.3
293.15	20000	805.3	0.3
293.15	25000	808.9	0.3
293.15	30000	812.3	0.4
293.15	35000	815.6	0.4
293.15	40000	818.7	0.4
293.15	45000	821.8	0.4
303.15	100	780.9	0.2
303.15	5000	785.3	0.3
303.15	10000	789.6	0.3
303.15	15000	793.7	0.3
303.15	20000	797.5	0.3
303.15	25000	801.3	0.3
303.15	30000	804.8	0.4
303.15	35000	808.2	0.4
303.15	40000	811.5	0.4
303.15	45000	814.7	0.4
313.15	100	772.1	0.2
313.15	5000	776.8	0.3
313.15	10000	781.3	0.3
313.15	15000	785.6	0.3
313.15	20000	789.6	0.3
313.15	25000	793.5	0.4
313.15	30000	797.2	0.4
313.15	35000	800.8	0.4
313.15	40000	804.2	0.4
313.15	45000	807.6	0.5
323.15	100	763.3	0.2
323.15	5000	768.3	0.3
323.15	10000	773	0.3
323.15	15000	777.6	0.3
323.15	20000	781.8	0.3
323.15	25000	785.9	0.4
323.15	30000	789.7	0.4
323.15	35000	793.5	0.4
323.15	40000	797.1	0.4
323.15	45000	800.5	0.5
333.15	100	754	0.2
333.15	5000	759.3	0.3
333.15	10000	764.3	0.3
333.15	15000	769.1	0.3
333.15	20000	773.6	0.3
333.15	25000	777.8	0.4
333.15	30000	781.9	0.4
333.15	35000	785.8	0.4
333.15	40000	789.5	0.5
333.15	45000	793.1	0.5
343.15	100	744.5	0.2
343.15	5000	750.1	0.3
343.15	10000	755.5	0.3
343.15	15000	760.5	0.3
343.15	20000	765.3	0.4
343.15	25000	769.8	0.4
343.15	30000	774	0.4
343.15	35000	778.1	0.4
343.15	40000	782	0.5
343.15	45000	785.7	0.5
353.15	5000	740.6	0.3
353.15	10000	746.4	0.3
353.15	15000	751.7	0.3
353.15	20000	756.7	0.4
353.15	25000	761.5	0.4
353.15	30000	766	0.4
353.15	35000	770.2	0.4
353.15	40000	774.3	0.5
353.15	45000	778.2	0.5

System: toluene; phases: Liquid
Property: Mass density, kg/m3 (Liquid); method: Vibrating tube method
Temperature, K	Pressure, kPa	Mass density, kg/m3	uncertainty
283.15	100	876.1	0.2
283.15	5000	879.5	0.2
283.15	10000	882.9	0.3
283.15	15000	886.1	0.3
283.15	20000	889.3	0.3
283.15	25000	892.4	0.3
283.15	30000	895.3	0.3
283.15	35000	898.2	0.3
283.15	40000	901	0.3
283.15	45000	903.7	0.3
293.15	100	866.8	0.2
293.15	5000	870.5	0.2
293.15	10000	874.1	0.3
293.15	15000	877.5	0.3
293.15	20000	880.8	0.3
293.15	25000	884	0.3
293.15	30000	887.1	0.3
293.15	35000	890.1	0.3
293.15	40000	893	0.3
293.15	45000	895.9	0.3
303.15	100	857.5	0.2
303.15	5000	861.4	0.2
303.15	10000	865.2	0.3
303.15	15000	868.8	0.3
303.15	20000	872.3	0.3
303.15	25000	875.7	0.3
303.15	30000	879	0.3
303.15	35000	882.1	0.3
303.15	40000	885.2	0.3
303.15	45000	888.1	0.3
313.15	100	848.1	0.2
313.15	5000	852.2	0.3
313.15	10000	856.2	0.3
313.15	15000	860	0.3
313.15	20000	863.7	0.3
313.15	25000	867.3	0.3
313.15	30000	870.7	0.3
313.15	35000	874	0.3
313.15	40000	877.2	0.3
313.15	45000	880.3	0.3
323.15	100	838.6	0.2
323.15	5000	843	0.3
323.15	10000	847.2	0.3
323.15	15000	851.3	0.3
323.15	20000	855.2	0.3
323.15	25000	858.9	0.3
323.15	30000	862.5	0.3
323.15	35000	866	0.3
323.15	40000	869.4	0.3
323.15	45000	872.6	0.4
333.15	100	828.8	0.2
333.15	5000	833.5	0.3
333.15	10000	838	0.3
333.15	15000	842.3	0.3
333.15	20000	846.4	0.3
333.15	25000	850.4	0.3
333.15	30000	854.2	0.3
333.15	35000	857.9	0.3
333.15	40000	861.4	0.4
333.15	45000	864.8	0.4
343.15	100	819.2	0.2
343.15	5000	824.1	0.3
343.15	10000	829	0.3
343.15	15000	833.5	0.3
343.15	20000	837.9	0.3
343.15	25000	842.1	0.3
343.15	30000	846	0.3
343.15	35000	849.9	0.4
343.15	40000	853.5	0.4
343.15	45000	857	0.4
353.15	100	809.4	0.2
353.15	5000	814.7	0.3
353.15	10000	819.9	0.3
353.15	15000	824.7	0.3
353.15	20000	829.3	0.3
353.15	25000	833.7	0.3
353.15	30000	837.9	0.3
353.15	35000	841.9	0.4
353.15	40000	845.7	0.4
353.15	45000	849.4	0.4

System: ethanol + toluene; phases: Liquid
Property: Mass density, kg/m3 (Liquid); method: Vibrating tube method
Temperature, K	Mole fraction of ethanol	Pressure, kPa	Mass density, kg/m3	uncertainty
283.15	0	100	876.1	0.2
283.15	0	5000	879.5	0.2
283.15	0	10000	882.9	0.3
283.15	0	15000	886.1	0.3
283.15	0	20000	889.3	0.3
283.15	0	25000	892.4	0.3
283.15	0	30000	895.3	0.3
283.15	0	35000	898.2	0.3
283.15	0	40000	901	0.3
283.15	0	45000	903.7	0.3
283.15	0.125	100	870.4	0.3
283.15	0.125	5000	873.9	0.3
283.15	0.125	10000	877.4	0.3
283.15	0.125	15000	880.7	0.3
283.15	0.125	20000	883.8	0.3
283.15	0.125	25000	886.9	0.3
283.15	0.125	30000	889.9	0.3
283.15	0.125	35000	892.8	0.3
283.15	0.125	40000	895.6	0.3
283.15	0.125	45000	898.4	0.3
283.15	0.25	100	864.3	0.3
283.15	0.25	5000	867.9	0.3
283.15	0.25	10000	871.3	0.3
283.15	0.25	15000	874.6	0.3
283.15	0.25	20000	877.9	0.3
283.15	0.25	25000	881	0.3
283.15	0.25	30000	884	0.3
283.15	0.25	35000	886.9	0.3
283.15	0.25	40000	889.7	0.3
283.15	0.25	45000	892.5	0.3
283.15	0.375	100	857.5	0.3
283.15	0.375	5000	861.1	0.3
283.15	0.375	10000	864.6	0.3
283.15	0.375	15000	867.9	0.3
283.15	0.375	20000	871.2	0.3
283.15	0.375	25000	874.3	0.3
283.15	0.375	30000	877.3	0.3
283.15	0.375	35000	880.3	0.3
283.15	0.375	40000	883.1	0.3
283.15	0.375	45000	885.9	0.4
283.15	0.5	100	849.5	0.3
283.15	0.5	5000	853.2	0.3
283.15	0.5	10000	856.7	0.3
283.15	0.5	15000	860.1	0.3
283.15	0.5	20000	863.4	0.3
283.15	0.5	25000	866.5	0.3
283.15	0.5	30000	869.6	0.3
283.15	0.5	35000	872.5	0.3
283.15	0.5	40000	875.4	0.4
283.15	0.5	45000	878.2	0.4
283.15	0.625	100	840.2	0.3
283.15	0.625	5000	843.9	0.3
283.15	0.625	10000	847.5	0.3
283.15	0.625	15000	850.9	0.3
283.15	0.625	20000	854.2	0.3
283.15	0.625	25000	857.4	0.3
283.15	0.625	30000	860.5	0.4
283.15	0.625	35000	863.5	0.4
283.15	0.625	40000	866.4	0.4
283.15	0.625	45000	869.2	0.4
283.15	0.75	100	829.2	0.3
283.15	0.75	5000	832.9	0.3
283.15	0.75	10000	836.5	0.3
283.15	0.75	15000	840	0.3
283.15	0.75	20000	843.4	0.3
283.15	0.75	25000	846.6	0.4
283.15	0.75	30000	849.7	0.4
283.15	0.75	35000	852.8	0.4
283.15	0.75	40000	855.7	0.4
283.15	0.75	45000	858.6	0.4
283.15	0.875	100	815.4	0.3
283.15	0.875	5000	819.2	0.4
283.15	0.875	10000	823	0.4
283.15	0.875	15000	826.5	0.4
283.15	0.875	20000	829.9	0.4
283.15	0.875	25000	833.2	0.4
283.15	0.875	30000	836.4	0.4
283.15	0.875	35000	839.5	0.4
283.15	0.875	40000	842.5	0.4
283.15	0.875	45000	845.4	0.5
283.15	1	100	798	0.2
283.15	1	5000	802	0.3
283.15	1	10000	805.9	0.3
283.15	1	15000	809.5	0.3
283.15	1	20000	813	0.3
283.15	1	25000	816.4	0.3
283.15	1	30000	819.7	0.4
283.15	1	35000	822.8	0.4
283.15	1	40000	825.9	0.4
283.15	1	45000	828.8	0.4
293.15	0	100	866.8	0.2
293.15	0	5000	870.5	0.2
293.15	0	10000	874.1	0.3
293.15	0	15000	877.5	0.3
293.15	0	20000	880.8	0.3
293.15	0	25000	884	0.3
293.15	0	30000	887.1	0.3
293.15	0	35000	890.1	0.3
293.15	0	40000	893	0.3
293.15	0	45000	895.9	0.3
293.15	0.125	100	861	0.3
293.15	0.125	5000	864.7	0.3
293.15	0.125	10000	868.3	0.3
293.15	0.125	15000	871.8	0.3
293.15	0.125	20000	875.1	0.3
293.15	0.125	25000	878.4	0.3
293.15	0.125	30000	881.5	0.3
293.15	0.125	35000	884.6	0.3
293.15	0.125	40000	887.5	0.3
293.15	0.125	45000	890.4	0.3
293.15	0.25	100	854.9	0.3
293.15	0.25	5000	858.6	0.3
293.15	0.25	10000	862.3	0.3
293.15	0.25	15000	865.8	0.3
293.15	0.25	20000	869.2	0.3
293.15	0.25	25000	872.5	0.3
293.15	0.25	30000	875.6	0.3
293.15	0.25	35000	878.7	0.3
293.15	0.25	40000	881.7	0.3
293.15	0.25	45000	884.5	0.4
293.15	0.375	100	848.1	0.3
293.15	0.375	5000	851.8	0.3
293.15	0.375	10000	855.5	0.3
293.15	0.375	15000	859.1	0.3
293.15	0.375	20000	862.5	0.3
293.15	0.375	25000	865.8	0.3
293.15	0.375	30000	869	0.3
293.15	0.375	35000	872.1	0.3
293.15	0.375	40000	875.1	0.4
293.15	0.375	45000	878	0.4
293.15	0.5	100	840.3	0.3
293.15	0.5	5000	844	0.3
293.15	0.5	10000	847.8	0.3
293.15	0.5	15000	851.4	0.3
293.15	0.5	20000	854.8	0.3
293.15	0.5	25000	858.1	0.3
293.15	0.5	30000	861.4	0.3
293.15	0.5	35000	864.5	0.4
293.15	0.5	40000	867.5	0.4
293.15	0.5	45000	870.4	0.4
293.15	0.625	100	831.1	0.3
293.15	0.625	5000	834.9	0.3
293.15	0.625	10000	838.7	0.3
293.15	0.625	15000	842.3	0.3
293.15	0.625	20000	845.8	0.3
293.15	0.625	25000	849.2	0.3
293.15	0.625	30000	852.4	0.4
293.15	0.625	35000	855.5	0.4
293.15	0.625	40000	858.6	0.4
293.15	0.625	45000	861.5	0.4
293.15	0.75	100	820.2	0.3
293.15	0.75	5000	824.1	0.3
293.15	0.75	10000	827.9	0.3
293.15	0.75	15000	831.6	0.3
293.15	0.75	20000	835.1	0.4
293.15	0.75	25000	838.5	0.4
293.15	0.75	30000	841.8	0.4
293.15	0.75	35000	845	0.4
293.15	0.75	40000	848	0.4
293.15	0.75	45000	851	0.4
293.15	0.875	100	806.6	0.3
293.15	0.875	5000	810.6	0.3
293.15	0.875	10000	814.5	0.4
293.15	0.875	15000	818.3	0.4
293.15	0.875	20000	821.9	0.4
293.15	0.875	25000	825.4	0.4
293.15	0.875	30000	828.7	0.4
293.15	0.875	35000	831.9	0.4
293.15	0.875	40000	835	0.5
293.15	0.875	45000	838	0.5
293.15	1	100	789.5	0.2
293.15	1	5000	793.7	0.3
293.15	1	10000	797.8	0.3
293.15	1	15000	801.6	0.3
293.15	1	20000	805.3	0.3
293.15	1	25000	808.9	0.3
293.15	1	30000	812.3	0.4
293.15	1	35000	815.6	0.4
293.15	1	40000	818.7	0.4
293.15	1	45000	821.8	0.4
303.15	0	100	857.5	0.2
303.15	0	5000	861.4	0.2
303.15	0	10000	865.2	0.3
303.15	0	15000	868.8	0.3
303.15	0	20000	872.3	0.3
303.15	0	25000	875.7	0.3
303.15	0	30000	879	0.3
303.15	0	35000	882.1	0.3
303.15	0	40000	885.2	0.3
303.15	0	45000	888.1	0.3
303.15	0.125	100	851.4	0.3
303.15	0.125	5000	855.4	0.3
303.15	0.125	10000	859.2	0.3
303.15	0.125	15000	862.9	0.3
303.15	0.125	20000	866.4	0.3
303.15	0.125	25000	869.9	0.3
303.15	0.125	30000	873.2	0.3
303.15	0.125	35000	876.4	0.3
303.15	0.125	40000	879.4	0.3
303.15	0.125	45000	882.5	0.4
303.15	0.25	100	845.3	0.3
303.15	0.25	5000	849.3	0.3
303.15	0.25	10000	853.2	0.3
303.15	0.25	15000	856.9	0.3
303.15	0.25	20000	860.5	0.3
303.15	0.25	25000	863.9	0.3
303.15	0.25	30000	867.3	0.3
303.15	0.25	35000	870.4	0.3
303.15	0.25	40000	873.6	0.4
303.15	0.25	45000	876.6	0.4
303.15	0.375	100	838.5	0.3
303.15	0.375	5000	842.6	0.3
303.15	0.375	10000	846.5	0.3
303.15	0.375	15000	850.3	0.3
303.15	0.375	20000	853.9	0.3
303.15	0.375	25000	857.3	0.3
303.15	0.375	30000	860.7	0.3
303.15	0.375	35000	863.9	0.3
303.15	0.375	40000	867.1	0.4
303.15	0.375	45000	870.1	0.4
303.15	0.5	100	830.8	0.3
303.15	0.5	5000	834.8	0.3
303.15	0.5	10000	838.8	0.3
303.15	0.5	15000	842.6	0.3
303.15	0.5	20000	846.2	0.3
303.15	0.5	25000	849.7	0.3
303.15	0.5	30000	853.1	0.3
303.15	0.5	35000	856.4	0.4
303.15	0.5	40000	859.5	0.4
303.15	0.5	45000	862.6	0.4
303.15	0.625	100	821.7	0.3
303.15	0.625	5000	825.8	0.3
303.15	0.625	10000	829.8	0.3
303.15	0.625	15000	833.7	0.3
303.15	0.625	20000	837.3	0.3
303.15	0.625	25000	840.9	0.3
303.15	0.625	30000	844.3	0.4
303.15	0.625	35000	847.6	0.4
303.15	0.625	40000	850.7	0.4
303.15	0.625	45000	853.8	0.4
303.15	0.75	100	810.9	0.3
303.15	0.75	5000	815.1	0.3
303.15	0.75	10000	819.2	0.3
303.15	0.75	15000	823.1	0.3
303.15	0.75	20000	826.8	0.4
303.15	0.75	25000	830.4	0.4
303.15	0.75	30000	833.8	0.4
303.15	0.75	35000	837.1	0.4
303.15	0.75	40000	840.3	0.4
303.15	0.75	45000	843.4	0.4
303.15	0.875	100	797.6	0.3
303.15	0.875	5000	801.9	0.3
303.15	0.875	10000	806.1	0.4
303.15	0.875	15000	810	0.4
303.15	0.875	20000	813.8	0.4
303.15	0.875	25000	817.4	0.4
303.15	0.875	30000	820.9	0.4
303.15	0.875	35000	824.3	0.4
303.15	0.875	40000	827.5	0.5
303.15	0.875	45000	830.6	0.5
303.15	1	100	780.9	0.2
303.15	1	5000	785.3	0.3
303.15	1	10000	789.6	0.3
303.15	1	15000	793.7	0.3
303.15	1	20000	797.5	0.3
303.15	1	25000	801.3	0.3
303.15	1	30000	804.8	0.4
303.15	1	35000	808.2	0.4
303.15	1	40000	811.5	0.4
303.15	1	45000	814.7	0.4
313.15	0	100	848.1	0.2
313.15	0	5000	852.2	0.3
313.15	0	10000	856.2	0.3
313.15	0	15000	860	0.3
313.15	0	20000	863.7	0.3
313.15	0	25000	867.3	0.3
313.15	0	30000	870.7	0.3
313.15	0	35000	874	0.3
313.15	0	40000	877.2	0.3
313.15	0	45000	880.3	0.3
313.15	0.125	100	841.8	0.3
313.15	0.125	5000	845.9	0.3
313.15	0.125	10000	850	0.3
313.15	0.125	15000	853.9	0.3
313.15	0.125	20000	857.7	0.3
313.15	0.125	25000	861.3	0.3
313.15	0.125	30000	864.7	0.3
313.15	0.125	35000	868.1	0.3
313.15	0.125	40000	871.3	0.4
313.15	0.125	45000	874.5	0.4
313.15	0.25	100	835.6	0.3
313.15	0.25	5000	839.8	0.3
313.15	0.25	10000	844	0.3
313.15	0.25	15000	847.9	0.3
313.15	0.25	20000	851.7	0.3
313.15	0.25	25000	855.3	0.3
313.15	0.25	30000	858.8	0.3
313.15	0.25	35000	862.2	0.3
313.15	0.25	40000	865.4	0.4
313.15	0.25	45000	868.6	0.4
313.15	0.375	100	828.9	0.3
313.15	0.375	5000	833.2	0.3
313.15	0.375	10000	837.3	0.3
313.15	0.375	15000	841.3	0.3
313.15	0.375	20000	845.1	0.3
313.15	0.375	25000	848.8	0.3
313.15	0.375	30000	852.3	0.3
313.15	0.375	35000	855.7	0.4
313.15	0.375	40000	859	0.4
313.15	0.375	45000	862.2	0.4
313.15	0.5	100	821.2	0.3
313.15	0.5	5000	825.5	0.3
313.15	0.5	10000	829.7	0.3
313.15	0.5	15000	833.7	0.3
313.15	0.5	20000	837.5	0.3
313.15	0.5	25000	841.2	0.3
313.15	0.5	30000	844.8	0.4
313.15	0.5	35000	848.2	0.4
313.15	0.5	40000	851.5	0.4
313.15	0.5	45000	854.7	0.4
313.15	0.625	100	812.2	0.3
313.15	0.625	5000	816.5	0.3
313.15	0.625	10000	820.8	0.3
313.15	0.625	15000	824.8	0.3
313.15	0.625	20000	828.7	0.3
313.15	0.625	25000	832.5	0.4
313.15	0.625	30000	836	0.4
313.15	0.625	35000	839.4	0.4
313.15	0.625	40000	842.8	0.4
313.15	0.625	45000	846	0.4
313.15	0.75	100	801.6	0.3
313.15	0.75	5000	806	0.3
313.15	0.75	10000	810.3	0.3
313.15	0.75	15000	814.4	0.3
313.15	0.75	20000	818.3	0.4
313.15	0.75	25000	822.1	0.4
313.15	0.75	30000	825.7	0.4
313.15	0.75	35000	829.2	0.4
313.15	0.75	40000	832.5	0.4
313.15	0.75	45000	835.8	0.4
313.15	0.875	100	788.6	0.3
313.15	0.875	5000	793.1	0.3
313.15	0.875	10000	797.5	0.4
313.15	0.875	15000	801.6	0.4
313.15	0.875	20000	805.6	0.4
313.15	0.875	25000	809.4	0.4
313.15	0.875	30000	813.1	0.4
313.15	0.875	35000	816.6	0.4
313.15	0.875	40000	819.9	0.5
313.15	0.875	45000	823.2	0.5
313.15	1	100	772.1	0.2
313.15	1	5000	776.8	0.3
313.15	1	10000	781.3	0.3
313.15	1	15000	785.6	0.3
313.15	1	20000	789.6	0.3
313.15	1	25000	793.5	0.4
313.15	1	30000	797.2	0.4
313.15	1	35000	800.8	0.4
313.15	1	40000	804.2	0.4
313.15	1	45000	807.6	0.5
323.15	0	100	838.6	0.2
323.15	0	5000	843	0.3
323.15	0	10000	847.2	0.3
323.15	0	15000	851.3	0.3
323.15	0	20000	855.2	0.3
323.15	0	25000	858.9	0.3
323.15	0	30000	862.5	0.3
323.15	0	35000	866	0.3
323.15	0	40000	869.4	0.3
323.15	0	45000	872.6	0.4
323.15	0.125	100	832.1	0.3
323.15	0.125	5000	836.5	0.3
323.15	0.125	10000	840.8	0.3
323.15	0.125	15000	845	0.3
323.15	0.125	20000	848.9	0.3
323.15	0.125	25000	852.7	0.3
323.15	0.125	30000	856.3	0.3
323.15	0.125	35000	859.9	0.4
323.15	0.125	40000	863.3	0.4
323.15	0.125	45000	866.5	0.4
323.15	0.25	100	825.8	0.3
323.15	0.25	5000	830.3	0.3
323.15	0.25	10000	834.7	0.3
323.15	0.25	15000	838.9	0.3
323.15	0.25	20000	842.9	0.3
323.15	0.25	25000	846.7	0.3
323.15	0.25	30000	850.4	0.3
323.15	0.25	35000	853.9	0.4
323.15	0.25	40000	857.3	0.4
323.15	0.25	45000	860.6	0.4
323.15	0.375	100	819.1	0.3
323.15	0.375	5000	823.6	0.3
323.15	0.375	10000	828	0.3
323.15	0.375	15000	832.3	0.3
323.15	0.375	20000	836.3	0.3
323.15	0.375	25000	840.2	0.3
323.15	0.375	30000	843.8	0.4
323.15	0.375	35000	847.4	0.4
323.15	0.375	40000	850.9	0.4
323.15	0.375	45000	854.2	0.4
323.15	0.5	100	811.3	0.3
323.15	0.5	5000	815.9	0.3
323.15	0.5	10000	820.4	0.3
323.15	0.5	15000	824.7	0.3
323.15	0.5	20000	828.8	0.3
323.15	0.5	25000	832.6	0.3
323.15	0.5	30000	836.4	0.4
323.15	0.5	35000	840	0.4
323.15	0.5	40000	843.4	0.4
323.15	0.5	45000	846.7	0.4
323.15	0.625	100	802.5	0.3
323.15	0.625	5000	807.1	0.3
323.15	0.625	10000	811.6	0.3
323.15	0.625	15000	815.9	0.3
323.15	0.625	20000	820	0.3
323.15	0.625	25000	824	0.4
323.15	0.625	30000	827.7	0.4
323.15	0.625	35000	831.3	0.4
323.15	0.625	40000	834.8	0.4
323.15	0.625	45000	838.1	0.4
323.15	0.75	100	792.1	0.3
323.15	0.75	5000	796.8	0.3
323.15	0.75	10000	801.3	0.3
323.15	0.75	15000	805.7	0.3
323.15	0.75	20000	809.8	0.4
323.15	0.75	25000	813.8	0.4
323.15	0.75	30000	817.5	0.4
323.15	0.75	35000	821.2	0.4
323.15	0.75	40000	824.7	0.4
323.15	0.75	45000	828.1	0.5
323.15	0.875	100	779.3	0.3
323.15	0.875	5000	784.1	0.3
323.15	0.875	10000	788.7	0.4
323.15	0.875	15000	793.1	0.4
323.15	0.875	20000	797.3	0.4
323.15	0.875	25000	801.3	0.4
323.15	0.875	30000	805.1	0.4
323.15	0.875	35000	808.8	0.5
323.15	0.875	40000	812.3	0.5
323.15	0.875	45000	815.7	0.5
323.15	1	100	763.3	0.2
323.15	1	5000	768.3	0.3
323.15	1	10000	773	0.3
323.15	1	15000	777.6	0.3
323.15	1	20000	781.8	0.3
323.15	1	25000	785.9	0.4
323.15	1	30000	789.7	0.4
323.15	1	35000	793.5	0.4
323.15	1	40000	797.1	0.4
323.15	1	45000	800.5	0.5
333.15	0	100	828.8	0.2
333.15	0	5000	833.5	0.3
333.15	0	10000	838	0.3
333.15	0	15000	842.3	0.3
333.15	0	20000	846.4	0.3
333.15	0	25000	850.4	0.3
333.15	0	30000	854.2	0.3
333.15	0	35000	857.9	0.3
333.15	0	40000	861.4	0.4
333.15	0	45000	864.8	0.4
333.15	0.125	100	822	0.3
333.15	0.125	5000	826.7	0.3
333.15	0.125	10000	831.4	0.3
333.15	0.125	15000	835.8	0.3
333.15	0.125	20000	839.9	0.3
333.15	0.125	25000	843.9	0.3
333.15	0.125	30000	847.8	0.3
333.15	0.125	35000	851.5	0.4
333.15	0.125	40000	855.1	0.4
333.15	0.125	45000	858.5	0.4
333.15	0.25	100	815.6	0.3
333.15	0.25	5000	820.4	0.3
333.15	0.25	10000	825.1	0.3
333.15	0.25	15000	829.5	0.3
333.15	0.25	20000	833.7	0.3
333.15	0.25	25000	837.8	0.3
333.15	0.25	30000	841.7	0.4
333.15	0.25	35000	845.4	0.4
333.15	0.25	40000	849	0.4
333.15	0.25	45000	852.5	0.4
333.15	0.375	100	808.8	0.3
333.15	0.375	5000	813.6	0.3
333.15	0.375	10000	818.4	0.3
333.15	0.375	15000	822.9	0.3
333.15	0.375	20000	827.1	0.3
333.15	0.375	25000	831.2	0.3
333.15	0.375	30000	835.1	0.4
333.15	0.375	35000	838.9	0.4
333.15	0.375	40000	842.5	0.4
333.15	0.375	45000	846	0.4
333.15	0.5	100	801.2	0.3
333.15	0.5	5000	806.1	0.3
333.15	0.5	10000	810.8	0.3
333.15	0.5	15000	815.4	0.3
333.15	0.5	20000	819.7	0.3
333.15	0.5	25000	823.8	0.4
333.15	0.5	30000	827.7	0.4
333.15	0.5	35000	831.5	0.4
333.15	0.5	40000	835.1	0.4
333.15	0.5	45000	838.6	0.4
333.15	0.625	100	792.3	0.3
333.15	0.625	5000	797.2	0.3
333.15	0.625	10000	802.1	0.3
333.15	0.625	15000	806.7	0.3
333.15	0.625	20000	811	0.4
333.15	0.625	25000	815.2	0.4
333.15	0.625	30000	819.1	0.4
333.15	0.625	35000	822.9	0.4
333.15	0.625	40000	826.6	0.4
333.15	0.625	45000	830.1	0.4
333.15	0.75	100	782	0.3
333.15	0.75	5000	787	0.3
333.15	0.75	10000	791.9	0.3
333.15	0.75	15000	796.5	0.4
333.15	0.75	20000	800.9	0.4
333.15	0.75	25000	805.1	0.4
333.15	0.75	30000	809.1	0.4
333.15	0.75	35000	812.9	0.4
333.15	0.75	40000	816.6	0.5
333.15	0.75	45000	820.1	0.5
333.15	0.875	100	769.5	0.3
333.15	0.875	5000	774.6	0.3
333.15	0.875	10000	779.5	0.4
333.15	0.875	15000	784.2	0.4
333.15	0.875	20000	788.7	0.4
333.15	0.875	25000	792.9	0.4
333.15	0.875	30000	796.9	0.4
333.15	0.875	35000	800.7	0.5
333.15	0.875	40000	804.4	0.5
333.15	0.875	45000	808	0.5
333.15	1	100	754	0.2
333.15	1	5000	759.3	0.3
333.15	1	10000	764.3	0.3
333.15	1	15000	769.1	0.3
333.15	1	20000	773.6	0.3
333.15	1	25000	777.8	0.4
333.15	1	30000	781.9	0.4
333.15	1	35000	785.8	0.4
333.15	1	40000	789.5	0.5
333.15	1	45000	793.1	0.5
343.15	0	100	819.2	0.2
343.15	0	5000	824.1	0.3
343.15	0	10000	829	0.3
343.15	0	15000	833.5	0.3
343.15	0	20000	837.9	0.3
343.15	0	25000	842.1	0.3
343.15	0	30000	846	0.3
343.15	0	35000	849.9	0.4
343.15	0	40000	853.5	0.4
343.15	0	45000	857	0.4
343.15	0.125	100	811.9	0.3
343.15	0.125	5000	817	0.3
343.15	0.125	10000	821.9	0.3
343.15	0.125	15000	826.6	0.3
343.15	0.125	20000	831.1	0.3
343.15	0.125	25000	835.3	0.3
343.15	0.125	30000	839.3	0.4
343.15	0.125	35000	843.2	0.4
343.15	0.125	40000	846.9	0.4
343.15	0.125	45000	850.5	0.4
343.15	0.25	100	805.3	0.3
343.15	0.25	5000	810.5	0.3
343.15	0.25	10000	815.5	0.3
343.15	0.25	15000	820.3	0.3
343.15	0.25	20000	824.8	0.3
343.15	0.25	25000	829	0.3
343.15	0.25	30000	833.1	0.4
343.15	0.25	35000	837	0.4
343.15	0.25	40000	840.8	0.4
343.15	0.25	45000	844.4	0.4
343.15	0.375	100	798.5	0.3
343.15	0.375	5000	803.7	0.3
343.15	0.375	10000	808.8	0.3
343.15	0.375	15000	813.6	0.3
343.15	0.375	20000	818.1	0.3
343.15	0.375	25000	822.4	0.4
343.15	0.375	30000	826.5	0.4
343.15	0.375	35000	830.5	0.4
343.15	0.375	40000	834.2	0.4
343.15	0.375	45000	837.9	0.4
343.15	0.5	100	790.7	0.3
343.15	0.5	5000	796	0.3
343.15	0.5	10000	801.1	0.3
343.15	0.5	15000	806	0.3
343.15	0.5	20000	810.6	0.3
343.15	0.5	25000	814.9	0.4
343.15	0.5	30000	819	0.4
343.15	0.5	35000	823	0.4
343.15	0.5	40000	826.8	0.4
343.15	0.5	45000	830.5	0.4
343.15	0.625	100	781.9	0.3
343.15	0.625	5000	787.3	0.3
343.15	0.625	10000	792.5	0.3
343.15	0.625	15000	797.4	0.3
343.15	0.625	20000	802	0.4
343.15	0.625	25000	806.3	0.4
343.15	0.625	30000	810.5	0.4
343.15	0.625	35000	814.5	0.4
343.15	0.625	40000	818.3	0.4
343.15	0.625	45000	822	0.5
343.15	0.75	100	771.8	0.3
343.15	0.75	5000	777.2	0.3
343.15	0.75	10000	782.5	0.3
343.15	0.75	15000	787.4	0.4
343.15	0.75	20000	792	0.4
343.15	0.75	25000	796.4	0.4
343.15	0.75	30000	800.6	0.4
343.15	0.75	35000	804.6	0.4
343.15	0.75	40000	808.5	0.5
343.15	0.75	45000	812.2	0.5
343.15	0.875	100	759.6	0.3
343.15	0.875	5000	765	0.3
343.15	0.875	10000	770.3	0.4
343.15	0.875	15000	775.3	0.4
343.15	0.875	20000	780	0.4
343.15	0.875	25000	784.4	0.4
343.15	0.875	30000	788.6	0.4
343.15	0.875	35000	792.7	0.5
343.15	0.875	40000	796.5	0.5
343.15	0.875	45000	800.2	0.5
343.15	1	100	744.5	0.2
343.15	1	5000	750.1	0.3
343.15	1	10000	755.5	0.3
343.15	1	15000	760.5	0.3
343.15	1	20000	765.3	0.4
343.15	1	25000	769.8	0.4
343.15	1	30000	774	0.4
343.15	1	35000	778.1	0.4
343.15	1	40000	782	0.5
343.15	1	45000	785.7	0.5
353.15	0	100	809.4	0.2
353.15	0	5000	814.7	0.3
353.15	0	10000	819.9	0.3
353.15	0	15000	824.7	0.3
353.15	0	20000	829.3	0.3
353.15	0	25000	833.7	0.3
353.15	0	30000	837.9	0.3
353.15	0	35000	841.9	0.4
353.15	0	40000	845.7	0.4
353.15	0	45000	849.4	0.4
353.15	0.125	100	801.7	0.3
353.15	0.125	5000	807.2	0.3
353.15	0.125	10000	812.5	0.3
353.15	0.125	15000	817.4	0.3
353.15	0.125	20000	822.2	0.3
353.15	0.125	25000	826.7	0.3
353.15	0.125	30000	830.9	0.4
353.15	0.125	35000	835	0.4
353.15	0.125	40000	838.9	0.4
353.15	0.125	45000	842.7	0.4
353.15	0.25	5000	800.4	0.3
353.15	0.25	10000	805.8	0.3
353.15	0.25	15000	810.9	0.3
353.15	0.25	20000	815.6	0.3
353.15	0.25	25000	820.2	0.4
353.15	0.25	30000	824.5	0.4
353.15	0.25	35000	828.6	0.4
353.15	0.25	40000	832.6	0.4
353.15	0.25	45000	836.4	0.4
353.15	0.375	5000	793.4	0.3
353.15	0.375	10000	798.9	0.3
353.15	0.375	15000	804	0.3
353.15	0.375	20000	808.8	0.3
353.15	0.375	25000	813.4	0.4
353.15	0.375	30000	817.8	0.4
353.15	0.375	35000	821.9	0.4
353.15	0.375	40000	825.9	0.4
353.15	0.375	45000	829.7	0.4
353.15	0.5	5000	785.7	0.3
353.15	0.5	10000	791.3	0.3
353.15	0.5	15000	796.4	0.3
353.15	0.5	20000	801.3	0.3
353.15	0.5	25000	805.9	0.4
353.15	0.5	30000	810.3	0.4
353.15	0.5	35000	814.5	0.4
353.15	0.5	40000	818.5	0.4
353.15	0.5	45000	822.3	0.5
353.15	0.625	5000	777	0.3
353.15	0.625	10000	782.6	0.3
353.15	0.625	15000	787.9	0.3
353.15	0.625	20000	792.8	0.4
353.15	0.625	25000	797.4	0.4
353.15	0.625	30000	801.8	0.4
353.15	0.625	35000	806	0.4
353.15	0.625	40000	810	0.4
353.15	0.625	45000	813.9	0.5
353.15	0.75	5000	767.1	0.3
353.15	0.75	10000	772.7	0.3
353.15	0.75	15000	778	0.4
353.15	0.75	20000	782.9	0.4
353.15	0.75	25000	787.6	0.4
353.15	0.75	30000	792	0.4
353.15	0.75	35000	796.3	0.4
353.15	0.75	40000	800.3	0.5
353.15	0.75	45000	804.2	0.5
353.15	0.875	5000	755.1	0.3
353.15	0.875	10000	760.8	0.4
353.15	0.875	15000	766.1	0.4
353.15	0.875	20000	771.1	0.4
353.15	0.875	25000	775.8	0.4
353.15	0.875	30000	780.3	0.5
353.15	0.875	35000	784.5	0.5
353.15	0.875	40000	788.6	0.5
353.15	0.875	45000	792.4	0.5
353.15	1	5000	740.6	0.3
353.15	1	10000	746.4	0.3
353.15	1	15000	751.7	0.3
353.15	1	20000	756.7	0.4
353.15	1	25000	761.5	0.4
353.15	1	30000	766	0.4
353.15	1	35000	770.2	0.4
353.15	1	40000	774.3	0.5
353.15	1	45000	778.2	0.5
