Measured thermophysical data. Liquid-liquid equilibria for ternary systems acetic acid + n-butylacetate + hydrocarbons at 293.15 K
Source: Fluid Phase Equilib., 2013, 10.1016/j.fluid.2013.07.032
Compound 1: acetic acid, C2H4O2, InChI=1S/C2H4O2/c1-2(3)4/h1H3,(H,3,4), purity 99%
Compound 2: butyl ethanoate, C6H12O2, InChI=1S/C6H12O2/c1-3-4-5-8-6(2)7/h3-5H2,1-2H3, purity 99%
Compound 3: octane, C8H18, InChI=1S/C8H18/c1-3-5-7-8-6-4-2/h3-8H2,1-2H3, purity 99%
Compound 4: decane, C10H22, InChI=1S/C10H22/c1-3-5-7-9-10-8-6-4-2/h3-10H2,1-2H3, purity 99%
Compound 5: dodecane, C12H26, InChI=1S/C12H26/c1-3-5-7-9-11-12-10-8-6-4-2/h3-12H2,1-2H3, purity 99%
Compound 6: hexadecane, C16H34, InChI=1S/C16H34/c1-3-5-7-9-11-13-15-16-14-12-10-8-6-4-2/h3-16H2,1-2H3, purity 99%

System: acetic acid + octane + butyl ethanoate; phases: Liquid mixture 2, Liquid mixture 1
Property: Mass fraction of butyl ethanoate (Liquid mixture 2); method: Chromatography
Property: Mass fraction of butyl ethanoate (Liquid mixture 1); method: Chromatography
Property: Mass fraction of acetic acid (Liquid mixture 1); method: Chromatography
Temperature, K	Pressure, kPa	Mass fraction of acetic acid	Mass fraction of butyl ethanoate	uncertainty	Mass fraction of butyl ethanoate	uncertainty	Mass fraction of acetic acid	uncertainty
293.15	101	0.266	0		0		0.747	

System: acetic acid + butyl ethanoate + decane; phases: Liquid mixture 1, Liquid mixture 2
Fixed: Temperature, K = 293.15
Fixed: Pressure, kPa = 101
Property: Mass fraction of butyl ethanoate (Liquid mixture 1); method: Chromatography
Property: Mass fraction of butyl ethanoate (Liquid mixture 2); method: Chromatography
Property: Mass fraction of acetic acid (Liquid mixture 2); method: Chromatography
Mass fraction of acetic acid	Mass fraction of butyl ethanoate	uncertainty	Mass fraction of butyl ethanoate	uncertainty	Mass fraction of acetic acid	uncertainty
0.655	0.081	0.002	0.064	0.002	0.359	
0.846	0		0		0.217	
0.811	0.03	0.002	0.017	0.002	0.252	
0.748	0.058	0.002	0.038	0.002	0.288	
0.713	0.069	0.002	0.047	0.002	0.316	

System: acetic acid + dodecane + butyl ethanoate; phases: Liquid mixture 1, Liquid mixture 2
Fixed: Temperature, K = 293.15
Fixed: Pressure, kPa = 101
Property: Mass fraction of butyl ethanoate (Liquid mixture 1); method: Chromatography
Property: Mass fraction of butyl ethanoate (Liquid mixture 2); method: Chromatography
Property: Mass fraction of acetic acid (Liquid mixture 2); method: Chromatography
Mass fraction of acetic acid	Mass fraction of butyl ethanoate	uncertainty	Mass fraction of butyl ethanoate	uncertainty	Mass fraction of acetic acid	uncertainty
0.881	0		0		0.153	
0.855	0.044	0.003	0.02	0.003	0.175	
0.806	0.079	0.003	0.039	0.003	0.192	
0.761	0.105	0.002	0.061	0.003	0.219	
0.699	0.131	0.002	0.091	0.002	0.258	
0.594	0.155	0.002	0.12	0.002	0.333	

System: acetic acid + butyl ethanoate + hexadecane; phases: Liquid mixture 2, Liquid mixture 1
Fixed: Temperature, K = 293.15
Fixed: Pressure, kPa = 101
Property: Mass fraction of butyl ethanoate (Liquid mixture 2); method: Chromatography
Property: Mass fraction of butyl ethanoate (Liquid mixture 1); method: Chromatography
Property: Mass fraction of acetic acid (Liquid mixture 1); method: Chromatography
Mass fraction of acetic acid	Mass fraction of butyl ethanoate	uncertainty	Mass fraction of butyl ethanoate	uncertainty	Mass fraction of acetic acid	uncertainty
0.098	0		0		0.948	
0.11	0.03	0.005	0.083	0.003	0.872	
0.128	0.065	0.004	0.167	0.003	0.765	
0.129	0.1	0.004	0.219	0.003	0.705	
0.187	0.167	0.003	0.272	0.003	0.583	
0.222	0.208	0.003	0.29	0.003	0.521	
0.292	0.239	0.003	0.289	0.003	0.433	
