Measured thermophysical data. Liquid-liquid-liquid equilibria for water + [P6 6 6 14][DCA] + dodecane ternary system
Source: Fluid Phase Equilib., 2015, 10.1016/j.fluid.2015.07.022
Compound 1: water, H2O, InChI=1S/H2O/h1H2, purity 99.8%
Compound 2: dodecane, C12H26, InChI=1S/C12H26/c1-3-5-7-9-11-12-10-8-6-4-2/h3-12H2,1-2H3, purity 99.9%
Compound 3: tetradecyl(trihexyl)phosphonium dicyanamide, C34H68N3P, InChI=1S/C32H68P.C2N3/c1-5-9-13-17-18-19-20-21-22-23-24-28-32-33(29-25-14-10-6-2,30-26-15-11-7-3)31-27-16-12-8-4;3-1-5-2-4/h5-32H2,1-4H3;/q+1;-1, purity 98%

System: water; phases: Liquid
Property: Mass density, kg/m3 (Liquid); method: Vibrating tube method
Temperature, K	Pressure, kPa	Mass density, kg/m3	uncertainty
298.15	100	997.04	0.07

System: water; phases: Liquid
Property: Viscosity, Pa*s (Liquid); method: Capillary tube (Ostwald; Ubbelohde) method
Temperature, K	Pressure, kPa	Viscosity, Pa*s	uncertainty
298.15	100	0.000899	1e-05

System: water; phases: Liquid, Air at 1 atmosphere
Property: Surface tension liquid-gas, N/m (Liquid); method: Kruss K11 tensiometer and Wilhelmy plate
Temperature, K	Surface tension liquid-gas, N/m	uncertainty
298.15	0.072	0.0002

System: dodecane; phases: Liquid
Property: Mass density, kg/m3 (Liquid); method: Vibrating tube method
Temperature, K	Pressure, kPa	Mass density, kg/m3	uncertainty
298.15	100	745.23	0.14

System: dodecane; phases: Liquid
Property: Viscosity, Pa*s (Liquid); method: Capillary tube (Ostwald; Ubbelohde) method
Temperature, K	Pressure, kPa	Viscosity, Pa*s	uncertainty
298.15	100	0.001359	1.5e-05

System: dodecane; phases: Liquid, Air at 1 atmosphere
Property: Surface tension liquid-gas, N/m (Liquid); method: Kruss K11 tensiometer with Wilhelmy plate
Temperature, K	Surface tension liquid-gas, N/m	uncertainty
298.15	0.0249	0.0002

System: tetradecyl(trihexyl)phosphonium dicyanamide; phases: Liquid
Property: Mass density, kg/m3 (Liquid); method: Vibrating tube method
Temperature, K	Pressure, kPa	Mass density, kg/m3	uncertainty
298.15	100	897.36	0.72

System: tetradecyl(trihexyl)phosphonium dicyanamide; phases: Liquid
Property: Viscosity, Pa*s (Liquid); method: Capillary tube (Ostwald; Ubbelohde) method
Temperature, K	Pressure, kPa	Viscosity, Pa*s	uncertainty
298.15	100	0.4378	0.0169

System: tetradecyl(trihexyl)phosphonium dicyanamide; phases: Liquid, Air at 1 atmosphere
Property: Surface tension liquid-gas, N/m (Liquid); method: Kruss K11 tensiometer with Wilhelmy plate
Temperature, K	Surface tension liquid-gas, N/m	uncertainty
298.15	0.0331	0.0004

System: dodecane + water + tetradecyl(trihexyl)phosphonium dicyanamide; phases: Liquid mixture 3, Liquid mixture 2, Liquid mixture 1
Fixed: Temperature, K = 298.15
Fixed: Pressure, kPa = 100
Property: Mass fraction of water (Liquid mixture 3); method: Chromatography
Mass fraction of water	uncertainty
0	
0	
0	

System: dodecane + water + tetradecyl(trihexyl)phosphonium dicyanamide; phases: Liquid mixture 2, Liquid mixture 3, Liquid mixture 1
Fixed: Pressure, kPa = 100
Property: Mass fraction of dodecane (Liquid mixture 2); method: Chromatography
Property: Mass fraction of water (Liquid mixture 2); method: Chromatography
Property: Mass fraction of water (Liquid mixture 1); method: Chromatography
Property: Mass fraction of dodecane (Liquid mixture 1); method: Chromatography
Property: Mass fraction of water (Liquid mixture 3); method: Chromatography
Property: Mass fraction of dodecane (Liquid mixture 3); method: Chromatography
Temperature, K	Mass fraction of dodecane	uncertainty	Mass fraction of water	uncertainty	Mass fraction of water	uncertainty	Mass fraction of dodecane	uncertainty	Mass fraction of water	uncertainty	Mass fraction of dodecane	uncertainty
298.15	0		0.029	0.002	1		0		0		1	
298.15	0.053	0.006	0.029	0.002	1		0		0		1	
298.15	0.094	0.006	0.028	0.002	1		0		0		1	
298.15	0.135	0.006	0.026	0.002	1		0					
298.15	0.195	0.006	0		1		0					
298.15	0.183	0.006	0.012	0.002								
298.15	0.178	0.006	0.023	0.002								
348.15	0		0.04	0.002	1		0		0		1	
348.15	0.045	0.006	0.028	0.002	1		0		0		1	
348.15	0.09	0.006	0.025	0.002	1		0		0		1	
348.15	0.119	0.006	0.023	0.002	1		0					
348.15	0.172	0.006	0.024	0.002	1		0					
348.15	0.253	0.006	0		1		0					
348.15	0.237	0.006	0.008	0.002								
348.15	0.224	0.006	0.014	0.002								
348.15	0.201	0.006	0.031	0.002								

System: water + tetradecyl(trihexyl)phosphonium dicyanamide; phases: Liquid mixture 1, Liquid mixture 2
Property: Mass fraction of water (Liquid mixture 1); method: Chromatography
Temperature, K	Pressure, kPa	Mass fraction of water	uncertainty
298.15	101	0.029	0.001

System: water + tetradecyl(trihexyl)phosphonium dicyanamide; phases: Liquid mixture 1, Liquid mixture 2
Property: Mass density, kg/m3 (Liquid mixture 1); method: Vibrating tube method
Temperature, K	Pressure, kPa	Mass density, kg/m3	uncertainty
298.15	101	898.6	0.27

System: water + tetradecyl(trihexyl)phosphonium dicyanamide; phases: Liquid mixture 1, Liquid mixture 2
Property: Viscosity, Pa*s (Liquid mixture 1); method: Capillary tube (Ostwald; Ubbelohde) method
Temperature, K	Pressure, kPa	Viscosity, Pa*s	uncertainty
298.15	101	0.1901	0.0046
