Measured thermophysical data. Vapour pressures and enthalpies of vaporization of aliphatic esters
Source: Fluid Phase Equilib., 2012, 10.1016/j.fluid.2012.08.003
Compound 1: pentyl methanoate, C6H12O2, InChI=1S/C6H12O2/c1-2-3-4-5-8-6-7/h6H,2-5H2,1H3, purity 99%
Compound 2: hexyl methanoate, C7H14O2, InChI=1S/C7H14O2/c1-2-3-4-5-6-9-7-8/h7H,2-6H2,1H3, purity 99%
Compound 3: heptyl methanoate, C8H16O2, InChI=1S/C8H16O2/c1-2-3-4-5-6-7-10-8-9/h8H,2-7H2,1H3, purity 99%
Compound 4: octyl methanoate, C9H18O2, InChI=1S/C9H18O2/c1-2-3-4-5-6-7-8-11-9-10/h9H,2-8H2,1H3, purity 99%
Compound 5: pentyl ethanoate, C7H14O2, InChI=1S/C7H14O2/c1-3-4-5-6-9-7(2)8/h3-6H2,1-2H3, purity 99%
Compound 6: pentyl propanoate, C8H16O2, InChI=1S/C8H16O2/c1-3-5-6-7-10-8(9)4-2/h3-7H2,1-2H3, purity 99%
Compound 7: hexyl propanoate, C9H18O2, InChI=1S/C9H18O2/c1-3-5-6-7-8-11-9(10)4-2/h3-8H2,1-2H3, purity 99%
Compound 8: octyl propanoate, C11H22O2, InChI=1S/C11H22O2/c1-3-5-6-7-8-9-10-13-11(12)4-2/h3-10H2,1-2H3, purity 99%

System: pentyl methanoate; phases: Liquid, Gas
Property: Vapor or sublimation pressure, kPa (Liquid); method: Transpiration method
Temperature, K	Vapor or sublimation pressure, kPa	uncertainty
274.2	0.22833	0.01142
274.3	0.22928	0.01147
275.7	0.25183	0.0126
278.3	0.30065	0.01504
278.3	0.30459	0.01524
281	0.37005	0.01851
281	0.36918	0.01847
283.2	0.43489	0.02175
288.2	0.61005	0.03051
293.3	0.84525	0.04228
298.4	1.16057	0.05805
303.3	1.5713	0.07858
305.6	1.77913	0.08898
308	2.04514	0.10228
310.7	2.3739	0.11873
313.3	2.75652	0.13786

System: hexyl methanoate; phases: Liquid, Gas
Property: Vapor or sublimation pressure, kPa (Liquid); method: Transpiration method
Temperature, K	Vapor or sublimation pressure, kPa	uncertainty
275.4	0.07241	0.00362
278.5	0.09094	0.00455
283.3	0.13188	0.0066
288.2	0.1935	0.00968
293.3	0.26944	0.01352
293.4	0.27534	0.01382
298.4	0.40556	0.02029
298.4	0.40854	0.02044
303.2	0.55767	0.028
303.3	0.54482	0.02736
308.3	0.7473	0.03738
308.3	0.75879	0.03795
313.4	1.01615	0.05082
313.4	1.01345	0.05068

System: heptyl methanoate; phases: Liquid, Gas
Property: Vapor or sublimation pressure, kPa (Liquid); method: Transpiration method
Temperature, K	Vapor or sublimation pressure, kPa	uncertainty
276.1	0.0215	0.00108
277.6	0.02468	0.00123
278.6	0.02656	0.00133
280.4	0.03187	0.00159
283.3	0.04168	0.00209
288.3	0.06125	0.00306
293.2	0.0889	0.00445
293.2	0.08971	0.00449
293.3	0.08835	0.00442
298.3	0.13044	0.00652
298.3	0.13005	0.00651
303.3	0.18301	0.00915
308.2	0.257	0.01285
311	0.31765	0.01589
313.3	0.35493	0.01775
316.4	0.43585	0.0218

System: octyl methanoate; phases: Liquid, Gas
Property: Vapor or sublimation pressure, kPa (Liquid); method: Transpiration method
Temperature, K	Vapor or sublimation pressure, kPa	uncertainty
283.3	0.01298	0.00264
285.7	0.01585	0.00322
288.2	0.01973	0.00401
290.8	0.02392	0.00486
293.3	0.02964	0.00602
298.4	0.04462	0.00906
303.2	0.0622	0.01263
303.2	0.06388	0.01297
308.2	0.09465	0.01922
313.5	0.13677	0.02778
318.5	0.18943	0.03847
323.5	0.26558	0.05394
328.4	0.36646	0.07443
331.3	0.4318	0.0877
333.4	0.49429	0.10039
335.3	0.54878	0.11146
338.3	0.66355	0.13477

System: pentyl ethanoate; phases: Liquid, Gas
Property: Vapor or sublimation pressure, kPa (Liquid); method: Transpiration method
Temperature, K	Vapor or sublimation pressure, kPa	uncertainty
274.2	0.08539	0.00428
274.3	0.08709	0.00437
275.6	0.0953	0.00477
275.6	0.09555	0.00478
278.2	0.1145	0.00573
280.8	0.13963	0.00698
283.2	0.16833	0.00842
288.2	0.24129	0.01207
293.3	0.34303	0.01716
298.4	0.47545	0.02378
303.3	0.65798	0.03291
306.7	0.80704	0.04036
308.2	0.90352	0.04519
310.6	1.03112	0.05157
313.4	1.21913	0.06097

System: pentyl propanoate; phases: Liquid, Gas
Property: Vapor or sublimation pressure, kPa (Liquid); method: Transpiration method
Temperature, K	Vapor or sublimation pressure, kPa	uncertainty
274.1	0.02995	0.0015
275.5	0.03342	0.00167
278.3	0.04139	0.00207
280.9	0.05087	0.00255
283.4	0.06315	0.00316
288.3	0.09403	0.0047
293.3	0.13736	0.00687
298.4	0.19843	0.00993
303.3	0.27891	0.01395
308.2	0.39251	0.01963
313.4	0.53278	0.02665
318.5	0.7195	0.03598
320.7	0.84226	0.04212
323.4	0.95679	0.04785
325.6	1.09772	0.0549
328.4	1.2926	0.06465

System: hexyl propanoate; phases: Liquid, Gas
Property: Vapor or sublimation pressure, kPa (Liquid); method: Transpiration method
Temperature, K	Vapor or sublimation pressure, kPa	uncertainty
278.3	0.01764	0.00088
280.7	0.0221	0.00111
283.4	0.02827	0.00141
285.8	0.03417	0.00171
288.2	0.04354	0.00218
298.4	0.09932	0.00497
303.2	0.13694	0.00685
303.2	0.13627	0.00682
308.2	0.20242	0.01013
313.3	0.27931	0.01397
318.5	0.39935	0.01997
323.4	0.54222	0.02712
326.4	0.68037	0.03403
328.4	0.76457	0.03824
330.6	0.86019	0.04302
333.3	0.99614	0.04982

System: octyl propanoate; phases: Liquid, Gas
Property: Vapor or sublimation pressure, kPa (Liquid); method: Transpiration method
Temperature, K	Vapor or sublimation pressure, kPa	uncertainty
293.3	0.00465	0.00023
295.7	0.00575	0.00029
298.4	0.00732	0.00037
300.3	0.00883	0.00044
303.3	0.01129	0.00057
308.3	0.0173	0.00087
313.4	0.02656	0.00133
318.5	0.0387	0.00194
323.4	0.0541	0.00271
328.5	0.08043	0.00402
333.3	0.11249	0.00563
338.3	0.15503	0.00775
340.3	0.17597	0.0088
343	0.20978	0.01049
346.4	0.26806	0.01341
348.4	0.29519	0.01476
