Measured thermophysical data. Experimental measurements and correlations of vapor liquid equilibrium data  for the binary system of chloroform +N,N-dimethylformamide at 101.3 kPa
Source: Fluid Phase Equilib., 2009, 10.1016/j.fluid.2009.01.006
Compound 1: trichloromethane, CHCl3, InChI=1S/CHCl3/c2-1(3)4/h1H, purity 99%
Compound 2: dimethylformamide, C3H7NO, InChI=1S/C3H7NO/c1-4(2)3-5/h3H,1-2H3, purity 99.5%

System: trichloromethane + dimethylformamide; phases: Liquid, Gas
Fixed: Pressure, kPa = 101.3
Property: Boiling temperature at pressure P, K (Liquid); method: EBULLIO:UFactor:8
Mole fraction of trichloromethane	Boiling temperature at pressure P, K	uncertainty
0.0412	408.9	0.7
0.077	401.4	0.7
0.1109	393.9	0.7
0.1573	384.2	0.7
0.1968	376.4	0.7
0.2496	371.4	0.7
0.2504	372.1	0.7
0.3455	359.8	0.7
0.4027	356.9	0.7
0.417	354	0.7
0.5028	350.7	0.7
0.5357	348.4	0.7
0.782	337.8	0.7
0.9158	335.4	0.7

System: trichloromethane + dimethylformamide; phases: Gas, Liquid
Fixed: Pressure, kPa = 101.3
Property: Mole fraction of trichloromethane (Gas); method: CHROM:UFactor:8
Mole fraction of trichloromethane	Mole fraction of trichloromethane	uncertainty
0.0412	0.3551	0.027
0.077	0.5176	0.0364
0.1109	0.662	0.0255
0.1573	0.7703	0.0173
0.1968	0.8148	0.0139
0.2496	0.8882	0.0084
0.2504	0.8889	0.0083
0.3455	0.9071	0.007
0.4027	0.9471	0.004
0.417	0.9495	0.0038
0.5028	0.9542	0.0034
0.5357	0.9603	0.003
0.782	0.9841	0.0016
0.9158	0.9841	0.0016
