Measured thermophysical data. Vapor pressures of lithium bromide or lithium chloride and ethanol solutions
Source: Fluid Phase Equilib., 2006, 10.1016/j.fluid.2006.02.012
Compound 1: ethanol, C2H6O, InChI=1S/C2H6O/c1-2-3/h3H,2H2,1H3
Compound 2: lithium bromide, BrLi, InChI=1S/BrH.Li/h1H;/q;+1/p-1
Compound 3: lithium chloride, ClLi, InChI=1S/ClH.Li/h1H;/q;+1/p-1

System: ethanol + lithium bromide; phases: Liquid, Gas
Property: Vapor or sublimation pressure, kPa (Liquid); method: Closed cell (Static) method
Molality, mol/kg of lithium bromide	Temperature, K	Vapor or sublimation pressure, kPa	uncertainty
0.16974	295.15	7.784	0.043
0.16974	303.15	10.343	0.051
0.16974	308.15	13.604	0.065
0.16974	313.15	17.697	0.08
0.16974	318.15	22.799	0.098
0.16974	323.15	29.125	0.118
0.35659	295.15	7.685	0.043
0.35659	303.15	10.214	0.051
0.35659	308.15	13.436	0.064
0.35659	313.15	17.481	0.079
0.35659	318.15	22.523	0.097
0.35659	323.15	28.775	0.117
0.49543	295.15	7.609	0.043
0.49543	303.15	10.114	0.05
0.49543	308.15	13.306	0.064
0.49543	313.15	17.313	0.078
0.49543	318.15	22.31	0.096
0.49543	323.15	28.506	0.116
0.83622	295.15	7.394	0.042
0.83622	303.15	9.83	0.049
0.83622	308.15	12.933	0.062
0.83622	313.15	16.832	0.077
0.83622	318.15	21.693	0.094
0.83622	323.15	27.723	0.113
1.30763	295.15	7.018	0.041
1.30763	303.15	9.336	0.048
1.30763	308.15	12.29	0.06
1.30763	313.15	15.999	0.073
1.30763	318.15	20.628	0.09
1.30763	323.15	26.373	0.108
1.40716	295.15	6.93	0.041
1.40716	303.15	9.22	0.048
1.40716	308.15	12.138	0.06
1.40716	313.15	15.804	0.073
1.40716	318.15	20.377	0.089
1.40716	323.15	26.049	0.107
1.49104	295.15	6.846	0.041
1.49104	303.15	9.108	0.047
1.49104	308.15	11.992	0.059
1.49104	313.15	15.617	0.072
1.49104	318.15	20.139	0.088
1.49104	323.15	25.751	0.106
1.76563	295.15	6.548	0.04
1.76563	303.15	8.716	0.046
1.76563	308.15	11.48	0.057
1.76563	313.15	14.951	0.07
1.76563	318.15	19.285	0.085
1.76563	323.15	24.662	0.102
2.03369	295.15	6.204	0.039
2.03369	303.15	8.265	0.045
2.03369	308.15	10.892	0.055
2.03369	313.15	14.197	0.067
2.03369	318.15	18.319	0.082
2.03369	323.15	23.439	0.098
2.39616	295.15	5.664	0.038
2.39616	303.15	7.557	0.043
2.39616	308.15	9.974	0.052
2.39616	313.15	13.02	0.063
2.39616	318.15	16.823	0.076
2.39616	323.15	21.551	0.091
2.8135	295.15	4.98	0.036
2.8135	303.15	6.654	0.04
2.8135	308.15	8.794	0.048
2.8135	313.15	11.501	0.057
2.8135	318.15	14.881	0.069
2.8135	323.15	19.104	0.083

System: ethanol + lithium chloride; phases: Liquid, Gas
Property: Vapor or sublimation pressure, kPa (Liquid); method: Closed cell (Static) method
Molality, mol/kg of lithium chloride	Temperature, K	Vapor or sublimation pressure, kPa	uncertainty
0.17923	298.15	7.786	0.043
0.17923	303.15	10.345	0.049
0.17923	308.15	13.606	0.06
0.17923	313.15	17.699	0.073
0.17923	318.15	22.801	0.09
0.17923	323.15	29.127	0.109
0.43412	298.15	7.667	0.042
0.43412	303.15	10.188	0.049
0.43412	308.15	13.401	0.059
0.43412	313.15	17.433	0.072
0.43412	318.15	22.46	0.088
0.43412	323.15	28.693	0.108
0.65922	298.15	7.544	0.042
0.65922	303.15	10.025	0.048
0.65922	308.15	13.188	0.058
0.65922	313.15	17.16	0.071
0.65922	318.15	22.11	0.087
0.65922	323.15	28.248	0.107
1.17149	298.15	7.187	0.041
1.17149	303.15	9.554	0.047
1.17149	308.15	12.574	0.056
1.17149	313.15	16.363	0.069
1.17149	318.15	21.088	0.084
1.17149	323.15	26.945	0.102
1.36294	298.15	7.03	0.041
1.36294	303.15	9.348	0.047
1.36294	308.15	12.303	0.056
1.36294	313.15	16.011	0.068
1.36294	318.15	20.635	0.083
1.36294	323.15	26.372	0.101
1.41362	298.15	6.985	0.041
1.41362	303.15	9.288	0.046
1.41362	308.15	12.225	0.055
1.41362	313.15	15.911	0.067
1.41362	318.15	20.507	0.082
1.41362	323.15	26.206	0.1
1.80195	298.15	6.586	0.04
1.80195	303.15	8.763	0.045
1.80195	308.15	11.539	0.053
1.80195	313.15	15.033	0.064
1.80195	318.15	19.388	0.079
1.80195	323.15	24.791	0.095
2.35881	298.15	5.865	0.038
2.35881	303.15	7.813	0.042
2.35881	308.15	10.312	0.049
2.35881	313.15	13.455	0.059
2.35881	318.15	17.381	0.072
2.35881	323.15	22.254	0.087
2.78238	298.15	5.213	0.036
2.78238	303.15	6.957	0.04
2.78238	308.15	9.195	0.046
2.78238	313.15	12.027	0.055
2.78238	318.15	15.551	0.066
2.78238	323.15	19.954	0.08
3.29787	298.15	4.371	0.034
3.29787	303.15	5.856	0.037
3.29787	308.15	7.758	0.042
3.29787	313.15	10.158	0.049
3.29787	318.15	13.174	0.058
3.29787	323.15	16.979	0.07
3.75911	298.15	3.837	0.032
3.75911	303.15	5.147	0.036
3.75911	308.15	6.83	0.04
3.75911	313.15	8.954	0.045
3.75911	318.15	11.632	0.053
3.75911	323.15	15.02	0.064
