Measured thermophysical data. Isothermal vapor liquid equilibrium at 333.15K and excess molar volumes at 298.15K for the ternary system di-isopropyl ether + n-propyl alcohol + toluene and its binary subsystems
Source: Fluid Phase Equilib., 2008, 10.1016/j.fluid.2008.06.019
Compound 1: diisopropyl ether, C6H14O, InChI=1S/C6H14O/c1-5(2)7-6(3)4/h5-6H,1-4H3
Compound 2: propan-1-ol, C3H8O, InChI=1S/C3H8O/c1-2-3-4/h4H,2-3H2,1H3
Compound 3: toluene, C7H8, InChI=1S/C7H8/c1-7-5-3-2-4-6-7/h2-6H,1H3

System: diisopropyl ether; phases: Liquid
Property: Mass density, kg/m3 (Liquid); method: VIBTUB:UFactor:2
Temperature, K	Pressure, kPa	Mass density, kg/m3	uncertainty
298.15	101.325	719.17	0.33

System: propan-1-ol; phases: Liquid
Property: Mass density, kg/m3 (Liquid); method: VIBTUB:UFactor:2
Temperature, K	Pressure, kPa	Mass density, kg/m3	uncertainty
298.15	101.325	800.61	0.29

System: toluene; phases: Liquid
Property: Mass density, kg/m3 (Liquid); method: VIBTUB:UFactor:2
Temperature, K	Pressure, kPa	Mass density, kg/m3	uncertainty
298.15	101.325	862.23	0.27

System: propan-1-ol + diisopropyl ether; phases: Liquid
Fixed: Temperature, K = 298.15
Fixed: Pressure, kPa = 101
Property: Mass density, kg/m3 (Liquid); method: VIBTUB:UFactor:2
Mole fraction of diisopropyl ether	Mass density, kg/m3	uncertainty
0.0508	794.63	0.29
0.0999	789.64	0.3
0.2	779.84	0.3
0.2998	770.67	0.31
0.3993	762.07	0.31
0.4999	754.19	0.32
0.6006	746.71	0.32
0.7007	739.41	0.32
0.8001	732.66	0.32
0.9015	725.59	0.33
0.9514	722.22	0.33

System: propan-1-ol + diisopropyl ether; phases: Gas, Liquid
Fixed: Temperature, K = 333.15
Property: Mole fraction of diisopropyl ether (Gas); method: CHROM:UFactor:4
Mole fraction of diisopropyl ether	Mole fraction of diisopropyl ether	uncertainty
0.0252	0.2009	0.0096
0.0494	0.3211	0.0154
0.073	0.411	0.0197
0.0968	0.4693	0.0225
0.1454	0.5734	0.0205
0.2022	0.6453	0.017
0.2707	0.708	0.014
0.3365	0.7435	0.0123
0.4007	0.7706	0.011
0.4629	0.7923	0.01
0.5241	0.8087	0.0092
0.5834	0.8267	0.0083
0.642	0.837	0.0078
0.6967	0.8506	0.0072
0.7526	0.8669	0.0064
0.8062	0.8891	0.0053
0.8576	0.9126	0.0042
0.9003	0.9349	0.0031
0.9354	0.9539	0.0022
0.9504	0.9634	0.0018
0.9674	0.9741	0.0012
0.9832	0.9858	0.0007

System: diisopropyl ether + toluene; phases: Liquid
Fixed: Temperature, K = 298.15
Fixed: Pressure, kPa = 101
Property: Mass density, kg/m3 (Liquid); method: VIBTUB:UFactor:2
Mole fraction of diisopropyl ether	Mass density, kg/m3	uncertainty
0.05	853.94	0.27
0.0995	845.89	0.27
0.2004	829.97	0.28
0.2999	814.46	0.29
0.4001	799.53	0.3
0.5003	784.92	0.31
0.6001	770.99	0.31
0.7004	757.31	0.31
0.8003	744.27	0.32
0.9003	731.28	0.33
0.9498	725.19	0.33

System: diisopropyl ether + toluene; phases: Gas, Liquid
Fixed: Temperature, K = 333.15
Property: Mole fraction of diisopropyl ether (Gas); method: CHROM:UFactor:4
Mole fraction of diisopropyl ether	Mole fraction of diisopropyl ether	uncertainty
0.0192	0.1066	0.0051
0.0399	0.1958	0.0094
0.0597	0.2703	0.013
0.0793	0.3269	0.0157
0.1194	0.4249	0.0204
0.1692	0.5232	0.0229
0.2291	0.6117	0.0186
0.2888	0.6749	0.0156
0.3486	0.7221	0.0133
0.4084	0.7644	0.0113
0.4681	0.7993	0.0096
0.5287	0.8284	0.0082
0.5888	0.8549	0.007
0.6484	0.8764	0.0059
0.7085	0.896	0.005
0.7688	0.9176	0.004
0.8293	0.9314	0.0033
0.8789	0.9529	0.0023
0.9198	0.9691	0.0015
0.9393	0.9775	0.0011
0.9603	0.985	0.0007
0.9795	0.9926	0.0004

System: propan-1-ol + toluene; phases: Liquid
Fixed: Temperature, K = 298.15
Fixed: Pressure, kPa = 101
Property: Mass density, kg/m3 (Liquid); method: VIBTUB:UFactor:2
Mole fraction of propan-1-ol	Mass density, kg/m3	uncertainty
0.0491	859.7	0.27
0.0987	857.27	0.27
0.2003	852.39	0.27
0.2995	847.48	0.27
0.4006	842.21	0.28
0.5001	836.7	0.28
0.6001	830.71	0.28
0.7005	824.13	0.28
0.8001	817.01	0.29
0.9006	809.12	0.29
0.9497	805	0.29

System: propan-1-ol + toluene; phases: Gas, Liquid
Fixed: Temperature, K = 333.15
Property: Mole fraction of propan-1-ol (Gas); method: CHROM:UFactor:2
Mole fraction of propan-1-ol	Mole fraction of propan-1-ol	uncertainty
0.0147	0.0982	0.0024
0.0329	0.1723	0.0041
0.0497	0.2202	0.0053
0.0645	0.2539	0.0061
0.097	0.296	0.0071
0.1411	0.3374	0.0081
0.1919	0.3692	0.0089
0.2466	0.3948	0.0095
0.3006	0.4147	0.01
0.3569	0.4356	0.0105
0.4154	0.457	0.011
0.4751	0.4785	0.0115
0.5345	0.5021	0.012
0.5971	0.5285	0.0113
0.6613	0.564	0.0105
0.7277	0.602	0.0096
0.7957	0.6591	0.0082
0.8542	0.7169	0.0068
0.9025	0.7846	0.0052
0.9268	0.8273	0.0042
0.9497	0.8704	0.0031
0.9756	0.9323	0.0016

System: propan-1-ol + diisopropyl ether + toluene; phases: Liquid
Fixed: Temperature, K = 298.15
Fixed: Pressure, kPa = 101
Property: Mass density, kg/m3 (Liquid); method: VIBTUB:UFactor:2
Mole fraction of diisopropyl ether	Mole fraction of propan-1-ol	Mass density, kg/m3	uncertainty
0.0195	0.8002	813.63	0.29
0.0201	0.1801	850.21	0.27
0.0296	0.07	853.96	0.27
0.0297	0.9005	803.53	0.29
0.0301	0.6995	819.05	0.28
0.0304	0.2692	844.08	0.28
0.0395	0.6002	824.05	0.28
0.04	0.36	837.84	0.28
0.0506	0.4498	831.14	0.28
0.0603	0.5397	824.1	0.28
0.0698	0.9005	795.8	0.29
0.0705	0.0314	849.07	0.27
0.0895	0.2098	837.88	0.28
0.0897	0.7	808.22	0.29
0.0999	0.1007	841.17	0.28
0.1002	0.7999	798.74	0.29
0.1196	0.6005	809.97	0.29
0.1197	0.28	828.96	0.28
0.1497	0.5005	811.29	0.29
0.1498	0.35	820.22	0.29
0.15	0.7005	797.39	0.3
0.1502	0.1499	830.74	0.28
0.1795	0.801	783.91	0.3
0.1798	0.4195	811.32	0.29
0.1807	0.019	832.02	0.28
0.1996	0.1993	820.35	0.29
0.2001	0.5993	796.01	0.3
0.2096	0.6995	786.9	0.3
0.2101	0.0899	824.26	0.28
0.2498	0.5003	794.5	0.3
0.2499	0.2491	809.75	0.29
0.2695	0.0307	817.69	0.29
0.2699	0.7007	776.17	0.31
0.2795	0.1193	812.05	0.29
0.28	0.6001	782.33	0.31
0.2998	0.2997	799.19	0.3
0.3001	0.3995	792.98	0.3
0.3496	0.1501	799.92	0.3
0.3498	0.5005	778.14	0.31
0.3598	0.0402	803.63	0.3
0.36	0.6003	768.9	0.31
0.3996	0.06	796.84	0.3
0.3998	0.181	790.59	0.3
0.3998	0.3001	783.62	0.31
0.4198	0.3998	774.04	0.31
0.4496	0.5006	762.18	0.32
0.4996	0.3501	765.48	0.32
0.5001	0.2495	771.65	0.31
0.5002	0.1501	777.58	0.31
0.501	0.0488	782.79	0.31
0.5401	0.3999	755.68	0.32
0.5994	0.0405	769.24	0.31
0.5998	0.3601	750.07	0.32
0.6006	0.2797	755.39	0.32
0.6007	0.1189	764.95	0.31
0.6008	0.1992	760.4	0.32
0.7	0.0902	752.97	0.32
0.7002	0.1497	749.46	0.32
0.7005	0.0293	755.95	0.31
0.7007	0.209	745.88	0.32
0.701	0.2693	741.7	0.32
0.8004	0.0196	743.34	0.32
0.801	0.0991	739	0.32
0.8014	0.1792	734.14	0.32
0.8996	0.0305	730.17	0.33
0.8998	0.0694	728	0.33

System: propan-1-ol + diisopropyl ether + toluene; phases: Gas, Liquid
Fixed: Temperature, K = 333.15
Property: Mole fraction of propan-1-ol (Gas); method: CHROM:UFactor:4
Mole fraction of diisopropyl ether	Mole fraction of propan-1-ol	Mole fraction of propan-1-ol	uncertainty
0.0195	0.8003	0.6259	0.018
0.0197	0.1796	0.3475	0.0167
0.0295	0.6995	0.5526	0.0215
0.0296	0.9007	0.6992	0.0144
0.0298	0.0693	0.2307	0.0111
0.0301	0.2703	0.3841	0.0184
0.0396	0.359	0.4071	0.0195
0.0405	0.6003	0.489	0.0235
0.0494	0.4504	0.4232	0.0203
0.0596	0.5395	0.4403	0.0211
0.0696	0.0288	0.1143	0.0055
0.0699	0.9004	0.611	0.0187
0.0894	0.2096	0.3102	0.0149
0.0897	0.7003	0.4773	0.0229
0.0994	0.7988	0.5047	0.0238
0.0997	0.0987	0.2247	0.0108
0.1195	0.601	0.4181	0.0201
0.1197	0.2806	0.3206	0.0154
0.1496	0.6998	0.4197	0.0201
0.1506	0.15	0.2409	0.0116
0.1543	0.4974	0.3753	0.018
0.1796	0.4204	0.3267	0.0157
0.1799	0.7995	0.4189	0.0201
0.1801	0.0199	0.0604	0.0029
0.1991	0.2013	0.2474	0.0119
0.2001	0.5996	0.3536	0.017
0.2094	0.0889	0.1663	0.008
0.2097	0.6999	0.3735	0.0179
0.249	0.5003	0.3119	0.015
0.2498	0.25	0.2475	0.0119
0.2697	0.7002	0.3317	0.0159
0.27	0.0313	0.0706	0.0034
0.2797	0.5998	0.3214	0.0154
0.2804	0.1193	0.1717	0.0082
0.2999	0.3992	0.2712	0.013
0.3494	0.5002	0.2773	0.0133
0.3496	0.1501	0.1717	0.0082
0.3595	0.0403	0.0711	0.0034
0.3602	0.6007	0.2906	0.0139
0.3998	0.2998	0.2172	0.0104
0.3999	0.0597	0.0915	0.0044
0.4001	0.18	0.1754	0.0084
0.4195	0.4008	0.2359	0.0113
0.4494	0.5012	0.2449	0.0118
0.4999	0.2496	0.1834	0.0088
0.5001	0.0498	0.0692	0.0033
0.5002	0.3499	0.2116	0.0102
0.5003	0.1489	0.142	0.0068
0.54	0.4001	0.2139	0.0103
0.599	0.1211	0.1134	0.0054
0.5991	0.2801	0.179	0.0086
0.5993	0.3599	0.1985	0.0095
0.5998	0.1994	0.1505	0.0072
0.6007	0.039	0.0508	0.0024
0.6986	0.0315	0.0387	0.0019
0.6994	0.09	0.0845	0.0041
0.7001	0.21	0.1439	0.0069
0.7005	0.15	0.1181	0.0057
0.7006	0.2696	0.1673	0.008
0.8004	0.1793	0.1256	0.006
0.801	0.099	0.0839	0.004
0.8015	0.0183	0.0238	0.0011
0.8995	0.0711	0.061	0.0029
0.9009	0.0297	0.0312	0.0015

System: propan-1-ol + diisopropyl ether + toluene; phases: Gas, Liquid
Fixed: Temperature, K = 333.15
Property: Mole fraction of diisopropyl ether (Gas); method: CHROM:UFactor:4
Mole fraction of diisopropyl ether	Mole fraction of propan-1-ol	Mole fraction of diisopropyl ether	uncertainty
0.0195	0.8003	0.0833	0.004
0.0197	0.1796	0.0538	0.0026
0.0295	0.6995	0.1024	0.0049
0.0296	0.9007	0.1575	0.0076
0.0298	0.0693	0.0906	0.0043
0.0301	0.2703	0.0787	0.0038
0.0396	0.359	0.1027	0.0049
0.0405	0.6003	0.1288	0.0062
0.0494	0.4504	0.1371	0.0066
0.0596	0.5395	0.1741	0.0084
0.0696	0.0288	0.2173	0.0104
0.0699	0.9004	0.338	0.0162
0.0894	0.2096	0.2099	0.0101
0.0897	0.7003	0.2811	0.0135
0.0994	0.7988	0.3571	0.0171
0.0997	0.0987	0.2469	0.0119
0.1195	0.601	0.3177	0.0153
0.1197	0.2806	0.2682	0.0129
0.1496	0.6998	0.4234	0.0203
0.1506	0.15	0.3267	0.0157
0.1543	0.4974	0.3426	0.0164
0.1796	0.4204	0.3899	0.0187
0.1799	0.7995	0.5571	0.0213
0.1801	0.0199	0.4446	0.0213
0.1991	0.2013	0.3969	0.0191
0.2001	0.5996	0.4785	0.023
0.2094	0.0889	0.4344	0.0209
0.2097	0.6999	0.5409	0.022
0.249	0.5003	0.5095	0.0235
0.2498	0.25	0.4648	0.0223
0.2697	0.7002	0.6422	0.0172
0.27	0.0313	0.55	0.0216
0.2797	0.5998	0.5864	0.0199
0.2804	0.1193	0.514	0.0233
0.2999	0.3992	0.5424	0.022
0.3494	0.5002	0.6237	0.0181
0.3496	0.1501	0.578	0.0203
0.3595	0.0403	0.6246	0.018
0.3602	0.6007	0.6805	0.0153
0.3998	0.2998	0.6237	0.0181
0.3999	0.0597	0.6656	0.0161
0.4001	0.18	0.6174	0.0184
0.4195	0.4008	0.6617	0.0162
0.4494	0.5012	0.724	0.0133
0.4999	0.2496	0.6911	0.0148
0.5001	0.0498	0.7272	0.0131
0.5002	0.3499	0.7074	0.0141
0.5003	0.1489	0.6957	0.0146
0.54	0.4001	0.7521	0.0119
0.599	0.1211	0.7597	0.0115
0.5991	0.2801	0.7589	0.0116
0.5993	0.3599	0.7799	0.0106
0.5998	0.1994	0.7541	0.0118
0.6007	0.039	0.7937	0.0099
0.6986	0.0315	0.8447	0.0075
0.6994	0.09	0.822	0.0085
0.7001	0.21	0.8115	0.0091
0.7005	0.15	0.8105	0.0091
0.7006	0.2696	0.817	0.0088
0.8004	0.1793	0.864	0.0065
0.801	0.099	0.8682	0.0063
0.8015	0.0183	0.8958	0.005
0.8995	0.0711	0.9255	0.0036
0.9009	0.0297	0.9376	0.003
