Measured thermophysical data. Vapor - liquid equilibrium of the carbon dioxide/methane mixture at three isotherms
Source: Fluid Phase Equilib., 2018, 10.1016/j.fluid.2018.01.011
Compound 1: carbon dioxide, CO2, InChI=1S/CO2/c2-1-3, purity 99.9992%
Compound 2: methane, CH4, InChI=1S/CH4/h1H4, purity 99.9995%

System: carbon dioxide + methane; phases: Liquid, Gas
Property: Mole fraction of carbon dioxide (Liquid); method: Chromatography
Temperature, K	Pressure, kPa	Mole fraction of carbon dioxide	uncertainty
293.13	5727.3	0.99999	1e-05
293.13	6134.8	0.98472	0.00115
293.129	6645.9	0.96439	0.00117
293.13	6840.1	0.95611	0.0012
293.13	6975.6	0.95018	0.00121
293.129	7118.3	0.94364	0.00122
293.13	7350.8	0.9324	0.00127
293.13	7575.8	0.92024	0.00131
293.13	7796.2	0.90568	0.00134
293.13	7909.1	0.89394	0.0014
293.13	7913.5	0.89309	0.00142
293.128	7917.9	0.8922	0.00147
293.129	7921.9	0.89123	0.00164
293.13	7926.6	0.88982	0.00172
293.129	7930.8	0.88782	0.00192
298.141	6431.6	0.99999	1e-05
298.142	6641.1	0.992	0.00114
298.142	6975.5	0.97855	0.00116
298.142	7311.4	0.96361	0.00121
298.141	7507.9	0.95359	0.00123
298.142	7625	0.94622	0.00123
298.141	7659.9	0.94337	0.00126
298.141	7678.3	0.9415	0.00131
298.142	7688.6	0.94016	0.00123
298.142	7693.8	0.93924	0.00127
298.141	7697.8	0.93835	0.00128
303.144	7212.1	0.99999	1e-05
303.144	7262.5	0.99791	0.0012
303.145	7306.4	0.996	0.0012
303.144	7361.1	0.9935	0.0012
303.144	7415.6	0.99073	0.0012
303.145	7425.6	0.99009	0.00119
303.145	7428.9	0.98988	0.00119
303.145	7430.6	0.98975	0.00119
303.145	7431.8	0.98963	0.00119
303.145	7433.1	0.9895	0.00119
303.144	7434.1	0.98934	0.00119

System: carbon dioxide + methane; phases: Gas, Liquid
Property: Mole fraction of carbon dioxide (Gas); method: Chromatography
Temperature, K	Pressure, kPa	Mole fraction of carbon dioxide	uncertainty
293.13	5727.3	0.99999	1e-05
293.129	6134.6	0.9603	0.00165
293.13	6645.8	0.91971	0.00174
293.129	6840.1	0.90679	0.00177
293.13	6975.5	0.89863	0.00179
293.129	7118.3	0.8907	0.00183
293.13	7350.8	0.87979	0.00184
293.13	7575.8	0.87189	0.00187
293.13	7796.1	0.86866	0.00192
293.13	7909.1	0.87303	0.00234
293.13	7913.5	0.87361	0.00239
293.128	7917.9	0.87424	0.00251
293.13	7921.9	0.87499	0.00285
293.13	7926.6	0.87626	0.00297
293.13	7930.8	0.87817	0.00329
298.141	6431.6	0.99999	1e-05
298.142	6641	0.98297	0.00164
298.141	6975.4	0.95917	0.00164
298.142	7311.4	0.93993	0.00159
298.143	7507.8	0.9318	0.00161
298.142	7625	0.92917	0.00165
298.142	7659.9	0.92928	0.00163
298.142	7678.3	0.92979	0.00159
298.142	7688.6	0.93044	0.00184
298.142	7693.8	0.93103	0.00197
298.142	7697.7	0.93175	0.00198
303.144	7212.1	0.99999	1e-05
303.144	7262.5	0.99695	0.00148
303.144	7306.4	0.99438	0.00148
303.141	7360.7	0.99142	0.00148
303.144	7415.5	0.98896	0.00148
303.145	7425.3	0.98862	0.00149
303.145	7428.7	0.98855	0.00153
303.145	7430.4	0.98856	0.00152
303.145	7431.6	0.98854	0.00151
303.145	7432.8	0.98855	0.00151
303.144	7434.1	0.98861	0.00153
