Measured thermophysical data. Liquid phase equilibria of the system (water + phosphoric acid + 1-octanol) at T = (298.2, 308.2, and 318.2) K
Source: Fluid Phase Equilib., 2012, 10.1016/j.fluid.2011.12.016
Compound 1: water, H2O, InChI=1S/H2O/h1H2
Compound 2: phosphoric acid, H3O4P, InChI=1S/H3O4P/c1-5(2,3)4/h(H3,1,2,3,4), purity 85%
Compound 3: octan-1-ol, C8H18O, InChI=1S/C8H18O/c1-2-3-4-5-6-7-8-9/h9H,2-8H2,1H3, purity 99%

System: octan-1-ol + phosphoric acid + water; phases: Liquid mixture 1, Liquid mixture 2
Fixed: Pressure, kPa = 101.32
Property: Mass fraction of phosphoric acid (Liquid mixture 1); method: Titration method
Temperature, K	Mass fraction of water	Mass fraction of phosphoric acid	uncertainty
298.2	0.023	0	
298.2	0.032	0.021	0.021
298.2	0.033	0.063	0.027
298.2	0.04	0.232	0.027
298.2	0.042	0.124	0.032
298.2	0.044	0.187	0.019
298.2	0.047	0.301	0.033
298.2	0.056	0.395	0.026
298.2	0.065	0.505	0.023
298.2	0.08	0.608	0.016
298.2	0.105	0.718	0.011
298.2	0.135	0.799	0.007
298.2	0.165	0.823	0.006
298.2	0.187	0.805	0.006
298.2	0.226	0.77	0.007
298.2	0.259	0.736	0.008
298.2	0.306	0.69	0.01
298.2	0.365	0.631	0.012
298.2	0.45	0.546	0.014
298.2	0.581	0.415	0.013
298.2	0.644	0.354	0.011
298.2	0.718	0.279	0.009
298.2	0.828	0.169	0.006
298.2	1	0	
308.2	0.024	0	
308.2	0.038	0.038	0.038
308.2	0.04	0.059	0.026
308.2	0.041	0.095	0.016
308.2	0.044	0.123	0.045
308.2	0.047	0.191	0.035
308.2	0.052	0.243	0.021
308.2	0.062	0.348	0.022
308.2	0.073	0.426	0.022
308.2	0.086	0.532	0.019
308.2	0.102	0.619	0.016
308.2	0.121	0.706	0.012
308.2	0.148	0.786	0.008
308.2	0.173	0.816	0.006
308.2	0.198	0.795	0.007
308.2	0.231	0.765	0.008
308.2	0.3	0.696	0.01
308.2	0.349	0.646	0.011
308.2	0.456	0.54	0.014
308.2	0.585	0.411	0.013
308.2	0.63	0.368	0.012
308.2	0.71	0.287	0.009
308.2	0.819	0.178	0.006
308.2	0.999	0	
318.2	0.025	0	
318.2	0.028	0.052	0.024
318.2	0.032	0.086	0.017
318.2	0.034	0.169	0.02
318.2	0.05	0.283	0.016
318.2	0.063	0.365	0.017
318.2	0.076	0.456	0.02
318.2	0.089	0.548	0.017
318.2	0.107	0.61	0.014
318.2	0.127	0.697	0.012
318.2	0.142	0.74	0.009
318.2	0.16	0.778	0.007
318.2	0.188	0.802	0.006
318.2	0.215	0.779	0.007
318.2	0.25	0.746	0.008
318.2	0.28	0.716	0.009
318.2	0.325	0.671	0.01
318.2	0.356	0.64	0.011
318.2	0.459	0.537	0.014
318.2	0.591	0.405	0.013
318.2	0.642	0.356	0.011
318.2	0.72	0.277	0.009
318.2	0.843	0.154	0.005
318.2	0.999	0	

System: octan-1-ol + phosphoric acid + water; phases: Liquid mixture 1, Liquid mixture 2
Fixed: Pressure, kPa = 101.32
Property: Mass fraction of phosphoric acid (Liquid mixture 1); method: Titration method
Property: Mass fraction of water (Liquid mixture 2); method: Titration method
Property: Mass fraction of phosphoric acid (Liquid mixture 2); method: Titration method
Temperature, K	Mass fraction of water	Mass fraction of phosphoric acid	uncertainty	Mass fraction of water	uncertainty	Mass fraction of phosphoric acid	uncertainty
298.2	0.826	0.171	0.006	0.042	0.002	0.023	
298.2	0.805	0.192	0.006	0.043	0.002	0.041	
298.2	0.753	0.245	0.008	0.046	0.002	0.08	
298.2	0.724	0.273	0.009	0.047	0.002	0.101	
298.2	0.682	0.316	0.01	0.051	0.003	0.138	
298.2	0.657	0.341	0.011	0.053	0.003	0.174	
308.2	0.808	0.189	0.006	0.039	0.002	0.02	
308.2	0.779	0.218	0.007	0.04	0.002	0.037	
308.2	0.744	0.253	0.008	0.042	0.002	0.059	
308.2	0.709	0.289	0.009	0.042	0.002	0.094	
308.2	0.676	0.322	0.01	0.045	0.002	0.133	
308.2	0.645	0.353	0.011	0.046	0.002	0.16	
318.2	0.794	0.203	0.007	0.034	0.002	0.023	
318.2	0.747	0.25	0.008	0.033	0.002	0.061	
318.2	0.703	0.294	0.009	0.036	0.002	0.099	
318.2	0.672	0.326	0.01	0.036	0.002	0.146	
318.2	0.637	0.361	0.011	0.039	0.002	0.188	
318.2	0.608	0.39	0.012	0.041	0.002	0.223	
