Measured thermophysical data. Isothermal VLE measurements for the binary mixture of 2,3,3,3-tetrafluoroprop-1-ene (HFO-1234yf) + 1,1-difluoroethane (HFC-152a)
Source: Fluid Phase Equilib., 2014, 10.1016/j.fluid.2014.04.015
Compound 1: 2,3,3,3-tetrafluoro-1-propene, C3H2F4, InChI=1S/C3H2F4/c1-2(4)3(5,6)7/h1H2, purity 99.9%
Compound 2: 1,1-difluoroethane, C2H4F2, InChI=1S/C2H4F2/c1-2(3)4/h2H,1H3, purity 99.7%

System: 2,3,3,3-tetrafluoro-1-propene; phases: Liquid, Gas
Property: Vapor or sublimation pressure, kPa (Liquid); method: Closed cell (Static) method
Temperature, K	Vapor or sublimation pressure, kPa	uncertainty
283.15	436.5	7.1
293.15	591	7.2
303.15	780.5	7.4
313.15	1015.6	7.6
323.15	1300.7	7.9

System: 1,1-difluoroethane; phases: Liquid, Gas
Property: Vapor or sublimation pressure, kPa (Liquid); method: Closed cell (Static) method
Temperature, K	Vapor or sublimation pressure, kPa	uncertainty
283.15	374.8	7
293.15	515.2	7
303.15	692	7.1
313.15	911.1	7.1
323.15	1179.4	7.2

System: 1,1-difluoroethane + 2,3,3,3-tetrafluoro-1-propene; phases: Liquid, Gas
Property: Vapor or sublimation pressure, kPa (Liquid); method: Closed cell (Static) method
Mole fraction of 2,3,3,3-tetrafluoro-1-propene	Temperature, K	Vapor or sublimation pressure, kPa	uncertainty
0	283.15	374.8	7.1
0.0924	283.15	394.6	7.2
0.1813	283.15	407.2	7.2
0.2919	283.15	419.6	7.2
0.3823	283.15	427.2	7.1
0.5014	283.15	433.8	7.1
0.6212	283.15	439.2	7.1
0.707	283.15	441	7.1
0.8026	283.15	441.8	7.1
0.895	283.15	441.2	7.1
0.9292	283.15	440.3	7.1
1	283.15	436.5	7.1
0	293.15	515.2	7.2
0.0924	293.15	540.1	7.4
0.1813	293.15	555.3	7.3
0.2919	293.15	571.7	7.3
0.3823	293.15	581.8	7.2
0.5014	293.15	588.9	7.2
0.6212	293.15	595.1	7.2
0.707	293.15	598.4	7.2
0.8026	293.15	598.6	7.2
0.895	293.15	596	7.2
0.9292	293.15	594.7	7.3
1	293.15	591	7.2
0	303.15	692	7.3
0.0924	303.15	721.2	7.6
0.1813	303.15	741.5	7.5
0.2919	303.15	761.5	7.5
0.3823	303.15	773.9	7.4
0.5014	303.15	783.3	7.4
0.6212	303.15	790.4	7.4
0.707	303.15	791.4	7.4
0.8026	303.15	794.3	7.4
0.895	303.15	790	7.4
0.9292	303.15	788.4	7.5
1	303.15	780.5	7.4
0	313.15	911.1	7.5
0.0924	313.15	947.8	8
0.1813	313.15	973.2	7.8
0.2919	313.15	997.4	7.8
0.3823	313.15	1011.2	7.6
0.5014	313.15	1023.5	7.6
0.6212	313.15	1031.1	7.6
0.707	313.15	1033.4	7.6
0.8026	313.15	1032.1	7.6
0.895	313.15	1029.1	7.6
0.9292	313.15	1027.1	7.8
1	313.15	1015.6	7.6
0	323.15	1179.4	7.8
0.0924	323.15	1222	8.5
0.1813	323.15	1255	8.3
0.2919	323.15	1281.8	8.1
0.3823	323.15	1299.5	8.1
0.5014	323.15	1318	8
0.6212	323.15	1323.5	8
0.707	323.15	1324.8	8
0.8026	323.15	1322.4	8
0.895	323.15	1321.2	8
0.9292	323.15	1313.8	8.1
1	323.15	1300.7	7.9

System: 1,1-difluoroethane + 2,3,3,3-tetrafluoro-1-propene; phases: Gas, Liquid
Property: Mole fraction of 2,3,3,3-tetrafluoro-1-propene (Gas); method: Chromatography
Mole fraction of 2,3,3,3-tetrafluoro-1-propene	Temperature, K	Mole fraction of 2,3,3,3-tetrafluoro-1-propene	uncertainty
0	283.15	0	
0.0924	283.15	0.1212	0.0128
0.1813	283.15	0.2257	0.0121
0.2919	283.15	0.3421	0.0117
0.3823	283.15	0.426	0.0114
0.5014	283.15	0.5304	0.0115
0.6212	283.15	0.6403	0.0111
0.707	283.15	0.712	0.011
0.8026	283.15	0.8013	0.0112
0.895	283.15	0.8917	0.0112
0.9292	283.15	0.9255	0.0115
1	283.15	1	
0	293.15	0	
0.0924	293.15	0.1178	0.0127
0.1813	293.15	0.2215	0.0119
0.2919	293.15	0.3342	0.0117
0.3823	293.15	0.4224	0.0114
0.5014	293.15	0.5259	0.0115
0.6212	293.15	0.636	0.0112
0.707	293.15	0.7113	0.0111
0.8026	293.15	0.8013	0.0112
0.895	293.15	0.8925	0.0112
0.9292	293.15	0.9247	0.0115
1	293.15	1	
0	303.15	0	
0.0924	303.15	0.1156	0.0125
0.1813	303.15	0.2156	0.0118
0.2919	303.15	0.3295	0.0117
0.3823	303.15	0.4163	0.0114
0.5014	303.15	0.5213	0.0115
0.6212	303.15	0.6325	0.0113
0.707	303.15	0.7094	0.0111
0.8026	303.15	0.7983	0.0113
0.895	303.15	0.8923	0.0114
0.9292	303.15	0.9251	0.0115
1	303.15	1	
0	313.15	0	
0.0924	313.15	0.1107	0.0124
0.1813	313.15	0.2135	0.0118
0.2919	313.15	0.3232	0.0116
0.3823	313.15	0.4125	0.0115
0.5014	313.15	0.5192	0.0116
0.6212	313.15	0.6299	0.0112
0.707	313.15	0.7039	0.0113
0.8026	313.15	0.7998	0.0114
0.895	313.15	0.8919	0.0113
0.9292	313.15	0.926	0.0115
1	313.15	1	
0	323.15	0	
0.0924	323.15	0.1079	0.0123
0.1813	323.15	0.2113	0.0118
0.2919	323.15	0.3217	0.0116
0.3823	323.15	0.4092	0.0114
0.5014	323.15	0.5137	0.0116
0.6212	323.15	0.6284	0.0114
0.707	323.15	0.7052	0.0112
0.8026	323.15	0.7964	0.0114
0.895	323.15	0.8917	0.0115
0.9292	323.15	0.926	0.0115
1	323.15	1	

System: 1,1-difluoroethane + 2,3,3,3-tetrafluoro-1-propene; phases: Liquid, Gas
Property: Azeotropic composition: mole fraction of 2,3,3,3-tetrafluoro-1-propene (Liquid); method: By T or P extreme
Temperature, K	Azeotropic composition: mole fraction of 2,3,3,3-tetrafluoro-1-propene	uncertainty
283.15	0.7605	0.0085
293.15	0.7481	0.0085
303.15	0.7395	0.0085
313.15	0.7275	0.0086
323.15	0.7096	0.0086

System: 1,1-difluoroethane + 2,3,3,3-tetrafluoro-1-propene; phases: Liquid, Gas
Property: Azeotropic pressure, kPa (Liquid); method: By P(X) extreme
Temperature, K	Azeotropic pressure, kPa	uncertainty
283.15	441.1	7.3
293.15	598	7.5
303.15	793.2	7.8
313.15	1033.5	8.3
323.15	1326	9.1
