Measured thermophysical data. Solubility, liquid-liquid equilibrium and critical states for the system acetic acid + n-propanol + n-propyl acetate + water at 293.15 K and 303.15 K
Source: Fluid Phase Equilib., 2014, 10.1016/j.fluid.2014.04.034
Compound 1: acetic acid, C2H4O2, InChI=1S/C2H4O2/c1-2(3)4/h1H3,(H,3,4), purity 99%
Compound 2: propan-1-ol, C3H8O, InChI=1S/C3H8O/c1-2-3-4/h4H,2-3H2,1H3, purity 99%
Compound 3: propyl ethanoate, C5H10O2, InChI=1S/C5H10O2/c1-3-4-7-5(2)6/h3-4H2,1-2H3, purity 99%
Compound 4: water, H2O, InChI=1S/H2O/h1H2

System: propan-1-ol + propyl ethanoate + water; phases: Liquid mixture 1, Liquid mixture 2
Fixed: Pressure, kPa = 101
Property: Mole fraction of propyl ethanoate (Liquid mixture 1); method: Titration method
Temperature, K	Mole fraction of propan-1-ol	Mole fraction of propyl ethanoate	uncertainty
293.15	0	0.003	0.003
293.15	0.063	0.007	0.004
293.15	0.101	0.018	0.018
293.15	0.143	0.033	0.005
293.15	0.129	0.028	0.028
293.15	0.154	0.038	0.038
293.15	0.142	0.033	0.004
293.15	0.138	0.031	0.004
293.15	0.151	0.037	0.037
293.15	0.185	0.051	0.005
293.15	0.226	0.076	0.022
293.15	0.262	0.116	0.02
293.15	0.284	0.166	0.059
293.15	0.288	0.25	0.025
293.15	0.272	0.343	0.013
293.15	0.246	0.427	0.015
293.15	0.182	0.585	0.013
293.15	0.124	0.713	0.287
293.15	0	0.948	0.01
303.15	0	0.004	0.004
303.15	0.064	0.008	0.004
303.15	0.095	0.017	0.004
303.15	0.144	0.034	0.004
303.15	0.171	0.046	0.007
303.15	0.183	0.051	0.051
303.15	0.156	0.039	0.005
303.15	0.135	0.031	0.004
303.15	0.205	0.063	0.043
303.15	0.231	0.081	0.008
303.15	0.259	0.116	0.019
303.15	0.279	0.162	0.04
303.15	0.285	0.216	0.037
303.15	0.286	0.298	0.078
303.15	0.267	0.372	0.012
303.15	0.243	0.423	0.013
303.15	0.222	0.49	0.022
303.15	0.205	0.534	0.049
303.15	0.172	0.627	0.017
303.15	0	0.89	0.01

System: propan-1-ol + propyl ethanoate + water; phases: Liquid mixture 2, Liquid mixture 1
Fixed: Pressure, kPa = 101
Property: Mole fraction of propan-1-ol (Liquid mixture 2); method: Chromatography
Property: Mole fraction of propan-1-ol (Liquid mixture 1); method: Chromatography
Property: Mole fraction of propyl ethanoate (Liquid mixture 1); method: Chromatography
Temperature, K	Mole fraction of propyl ethanoate	Mole fraction of propan-1-ol	uncertainty	Mole fraction of propan-1-ol	uncertainty	Mole fraction of propyl ethanoate	uncertainty
293.15	0.801	0.062	0.012	0.008	0.008	0.009	
293.15	0.471	0.228	0.011	0.022	0.01	0.008	
293.15	0.322	0.277	0.01	0.015	0.01	0.001	
293.15	0.435	0.241	0.011	0.031	0.017	0.012	
293.15	0.595	0.173	0.011	0.012	0.01	0.006	
293.15	0.76	0.092	0.012	0.014	0.01	0.005	
293.15	0.172	0.282	0.01	0.026	0.016	0.003	
293.15	0.911	0		0		0.003	
303.15	0.003	0.026	0.016	0.278	0.014	0.291	
303.15	0.469	0.226	0.011	0.016	0.012	0.007	
303.15	0.422	0.247	0.011	0.022	0.014	0.01	
303.15	0.594	0.179	0.011	0.017	0.011	0.005	
303.15	0.741	0.097	0.012	0.01	0.01	0.011	
303.15	0.172	0.284	0.011	0.033	0.01	0.003	
303.15	0.9	0		0		0.006	
293.15	0.297	0.282	0.01	0.016	0.01	0.001	

System: acetic acid + propyl ethanoate + water; phases: Liquid mixture 1, Liquid mixture 2
Fixed: Pressure, kPa = 101
Property: Mole fraction of propyl ethanoate (Liquid mixture 1); method: Titration method
Temperature, K	Mole fraction of acetic acid	Mole fraction of propyl ethanoate	uncertainty
293.15	0	0.003	0.003
293.15	0.113	0.019	0.004
293.15	0.132	0.028	0.005
293.15	0.141	0.033	0.005
293.15	0.155	0.045	0.006
293.15	0.166	0.059	0.007
293.15	0.169	0.065	0.007
293.15	0.178	0.079	0.008
293.15	0.18	0.082	0.008
293.15	0.184	0.09	0.09
293.15	0.185	0.092	0.01
293.15	0.187	0.097	0.009
293.15	0.188	0.099	0.009
293.15	0.19	0.103	0.01
293.15	0.193	0.108	0.079
293.15	0.196	0.115	0.087
293.15	0.215	0.162	0.03
293.15	0.224	0.198	0.024
293.15	0.231	0.257	0.035
293.15	0.228	0.314	0.03
293.15	0.22	0.37	0.041
293.15	0.206	0.431	0.018
293.15	0.179	0.52	0.035
293.15	0	0.948	0.01
303.15	0	0.004	0.004
303.15	0.122	0.023	0.023
303.15	0.128	0.027	0.005
303.15	0.138	0.033	0.005
303.15	0.144	0.038	0.005
303.15	0.151	0.044	0.006
303.15	0.156	0.051	0.006
303.15	0.162	0.057	0.007
303.15	0.165	0.063	0.063
303.15	0.167	0.065	0.008
303.15	0.167	0.066	0.008
303.15	0.17	0.069	0.008
303.15	0.171	0.071	0.008
303.15	0.172	0.073	0.008
303.15	0.172	0.074	0.008
303.15	0.173	0.075	0.008
303.15	0.175	0.079	0.009
303.15	0.178	0.084	0.009
303.15	0.179	0.087	0.009
303.15	0.18	0.089	0.009
303.15	0.181	0.091	0.009
303.15	0.183	0.094	0.01
303.15	0.184	0.097	0.009
303.15	0.186	0.1	0.01
303.15	0.187	0.104	0.01
303.15	0.189	0.107	0.107
303.15	0.189	0.109	0.109
303.15	0.189	0.11	0.11
303.15	0.191	0.112	0.011
303.15	0.192	0.115	0.011
303.15	0.204	0.143	0.016
303.15	0.219	0.193	0.032
303.15	0.226	0.265	0.042
303.15	0.222	0.323	0.028
303.15	0.214	0.375	0.027
303.15	0.194	0.449	0.017
303.15	0.186	0.48	0.017
303.15	0.158	0.551	0.015
303.15	0.127	0.626	0.035
303.15	0	0.89	0.01

System: acetic acid + propyl ethanoate + water; phases: Liquid mixture 1, Liquid mixture 2
Fixed: Pressure, kPa = 101
Property: Mole fraction of propyl ethanoate (Liquid mixture 1); method: Chromatography
Property: Mole fraction of acetic acid (Liquid mixture 2); method: Chromatography
Property: Mole fraction of propyl ethanoate (Liquid mixture 2); method: Chromatography
Temperature, K	Mole fraction of acetic acid	Mole fraction of propyl ethanoate	uncertainty	Mole fraction of acetic acid	uncertainty	Mole fraction of propyl ethanoate	uncertainty
293.15	0.05	0.013	0.01	0.145	0.011	0.587	
303.15	0.109	0.016	0.01	0.221	0.01	0.327	
303.15	0.048	0.014	0.01	0.1	0.011	0.675	
303.15	0.017	0.003	0.003	0.04	0.011	0.792	
303.15	0.124	0.025	0.012	0.226	0.01	0.254	
303.15	0	0.006	0.006	0		0.9	
293.15	0.075	0.011	0.01	0.181	0.01	0.469	
293.15	0.115	0.014	0.01	0.214	0.01	0.344	
293.15	0.035	0.011	0.01	0.108	0.011	0.659	
293.15	0.016	0.016	0.01	0.038	0.011	0.82	
293.15	0.126	0.013	0.01	0.23	0.01	0.27	
293.15	0	0.003	0.003	0		0.911	
303.15	0.06	0.006	0.006	0.154	0.011	0.555	
303.15	0.082	0.016	0.01	0.191	0.011	0.45	
