Measured thermophysical data. Viscosity of ionic liquid mixtures of 1-alkyl-3-methylimidazolium hexafluorophosphate + CO2
Source: Fluid Phase Equilib., 2011, 10.1016/j.fluid.2011.05.013
Compound 1: 1-hexyl-3-methylimidazolium hexafluorophosphate, C10H19F6N2P, InChI=1S/C10H19N2.F6P/c1-3-4-5-6-7-12-9-8-11(2)10-12;1-7(2,3,4,5)6/h8-10H,3-7H2,1-2H3;/q+1;-1, purity 98%
Compound 2: 1-octyl-3-methylimidazolium hexafluorophosphate, C12H23F6N2P, InChI=1S/C12H23N2.F6P/c1-3-4-5-6-7-8-9-14-11-10-13(2)12-14;1-7(2,3,4,5)6/h10-12H,3-9H2,1-2H3;/q+1;-1, purity 98%
Compound 3: carbon dioxide, CO2, InChI=1S/CO2/c2-1-3

System: carbon dioxide + 1-hexyl-3-methylimidazolium hexafluorophosphate; phases: Liquid
Property: Viscosity, Pa*s (Liquid); method: Falling or rolling sphere viscometry
Temperature, K	Mole fraction of carbon dioxide	Pressure, kPa	Viscosity, Pa*s	uncertainty
293.15	0.105	10000	0.57	0.055
293.15	0.105	15000	0.611	0.06
293.15	0.105	20000	0.65	0.065
293.15	0.215	10000	0.246	0.02
293.15	0.215	15000	0.258	0.021
293.15	0.215	20000	0.277	0.023
293.15	0.292	10000	0.169	0.012
293.15	0.292	15000	0.192	0.014
293.15	0.292	20000	0.203	0.015
293.15	0.343	10000	0.134	0.009
293.15	0.343	15000	0.144	0.01
293.15	0.343	20000	0.147	0.01
293.15	0.434	10000	0.0756	0.0048
293.15	0.434	15000	0.0813	0.0052
293.15	0.434	20000	0.0852	0.0055
313.15	0.105	10000	0.17	0.013
313.15	0.105	15000	0.176	0.013
313.15	0.105	20000	0.182	0.015
313.15	0.215	10000	0.0818	0.0054
313.15	0.215	15000	0.0866	0.0056
313.15	0.215	20000	0.0912	0.0062
313.15	0.292	10000	0.0677	0.0042
313.15	0.292	15000	0.0731	0.0045
313.15	0.292	20000	0.0757	0.0048
313.15	0.343	10000	0.0521	0.0032
313.15	0.343	15000	0.0566	0.0035
313.15	0.343	20000	0.0601	0.0038
313.15	0.434	10000	0.0353	0.0022
313.15	0.434	15000	0.0358	0.0022
313.15	0.434	20000	0.0373	0.0023
333.15	0.105	10000	0.0634	0.0041
333.15	0.105	15000	0.0679	0.0043
333.15	0.105	20000	0.0711	0.0046
333.15	0.215	10000	0.0384	0.0024
333.15	0.215	15000	0.0408	0.0025
333.15	0.215	20000	0.0428	0.0027
333.15	0.292	10000	0.0321	0.002
333.15	0.292	15000	0.0324	0.002
333.15	0.292	20000	0.0356	0.0022
333.15	0.343	10000	0.0264	0.0016
333.15	0.343	15000	0.027	0.0017
333.15	0.343	20000	0.0279	0.0017
333.15	0.434	10000	0.0177	0.0011
333.15	0.434	15000	0.0183	0.0011
333.15	0.434	20000	0.0188	0.0012
353.15	0.105	10000	0.032	0.002
353.15	0.105	15000	0.0333	0.0021
353.15	0.105	20000	0.0345	0.0021
353.15	0.215	10000	0.0214	0.0013
353.15	0.215	15000	0.0219	0.0013
353.15	0.215	20000	0.0227	0.0014
353.15	0.292	10000	0.0173	0.0011
353.15	0.292	15000	0.0181	0.0011
353.15	0.292	20000	0.0182	0.0011
353.15	0.343	10000	0.0149	0.0009
353.15	0.343	15000	0.0154	0.0009
353.15	0.343	20000	0.0157	0.001
353.15	0.434	10000	0.0108	0.0007
353.15	0.434	15000	0.0111	0.0007
353.15	0.434	20000	0.0114	0.0007

System: carbon dioxide + 1-hexyl-3-methylimidazolium hexafluorophosphate; phases: Liquid
Property: Mass density, kg/m3 (Liquid); method: Constant-volume piezometry
Temperature, K	Mole fraction of carbon dioxide	Pressure, kPa	Mass density, kg/m3	uncertainty
293.15	0.105	10000	1307	5
293.15	0.105	15000	1308	5
293.15	0.105	20000	1312	5
293.15	0.215	10000	1309	5
293.15	0.215	15000	1311	5
293.15	0.215	20000	1314	5
293.15	0.292	10000	1308	5
293.15	0.292	15000	1310	5
293.15	0.292	20000	1312	5
293.15	0.343	10000	1304	5
293.15	0.343	15000	1307	5
293.15	0.343	20000	1309	5
293.15	0.434	10000	1292	5
293.15	0.434	15000	1295	5
293.15	0.434	20000	1299	5
313.15	0.105	10000	1289	5
313.15	0.105	15000	1292	5
313.15	0.105	20000	1295	5
313.15	0.215	10000	1290	5
313.15	0.215	15000	1294	5
313.15	0.215	20000	1298	5
313.15	0.292	10000	1287	5
313.15	0.292	15000	1292	5
313.15	0.292	20000	1296	5
313.15	0.343	10000	1282	5
313.15	0.343	15000	1289	5
313.15	0.343	20000	1293	5
313.15	0.434	10000	1268	5
313.15	0.434	15000	1277	5
313.15	0.434	20000	1281	5
333.15	0.105	10000	1272	5
333.15	0.105	15000	1276	5
333.15	0.105	20000	1280	5
333.15	0.215	10000	1272	5
333.15	0.215	15000	1278	5
333.15	0.215	20000	1281	5
333.15	0.292	10000	1267	5
333.15	0.292	15000	1275	5
333.15	0.292	20000	1279	5
333.15	0.343	10000	1260	5
333.15	0.343	15000	1270	5
333.15	0.343	20000	1274	5
333.15	0.434	10000	1236	5
333.15	0.434	15000	1254	5
333.15	0.434	20000	1260	5
353.15	0.105	10000	1256	5
353.15	0.105	15000	1260	5
353.15	0.105	20000	1265	5
353.15	0.215	10000	1255	5
353.15	0.215	15000	1261	5
353.15	0.215	20000	1265	5
353.15	0.292	10000	1247	5
353.15	0.292	15000	1256	5
353.15	0.292	20000	1261	5
353.15	0.343	10000	1236	5
353.15	0.343	15000	1249	5
353.15	0.343	20000	1255	5
353.15	0.434	10000	1200	5
353.15	0.434	15000	1226	5
353.15	0.434	20000	1238	5

System: carbon dioxide + 1-octyl-3-methylimidazolium hexafluorophosphate; phases: Liquid
Property: Viscosity, Pa*s (Liquid); method: Falling or rolling sphere viscometry
Temperature, K	Mole fraction of carbon dioxide	Pressure, kPa	Viscosity, Pa*s	uncertainty
293.15	0.101	10000	0.993	0.11
293.15	0.101	15000	1.042	0.116
293.15	0.101	20000	1.09	0.123
293.15	0.188	10000	0.629	0.063
293.15	0.188	15000	0.673	0.068
293.15	0.188	20000	0.716	0.073
293.15	0.263	10000	0.338	0.029
293.15	0.263	15000	0.362	0.031
293.15	0.263	20000	0.383	0.034
293.15	0.402	10000	0.18	0.013
293.15	0.402	15000	0.184	0.014
293.15	0.402	20000	0.194	0.015
313.15	0.101	10000	0.253	0.022
313.15	0.101	15000	0.265	0.022
313.15	0.101	20000	0.285	0.026
313.15	0.188	10000	0.161	0.012
313.15	0.188	15000	0.176	0.013
313.15	0.188	20000	0.186	0.014
313.15	0.263	10000	0.118	0.008
313.15	0.263	15000	0.125	0.008
313.15	0.263	20000	0.136	0.01
313.15	0.402	10000	0.0715	0.0045
313.15	0.402	15000	0.0802	0.005
313.15	0.402	20000	0.0829	0.0053
333.15	0.101	10000	0.0887	0.006
333.15	0.101	15000	0.0923	0.006
333.15	0.101	20000	0.0979	0.0068
333.15	0.188	10000	0.0666	0.0041
333.15	0.188	15000	0.0705	0.0044
333.15	0.188	20000	0.0746	0.0047
333.15	0.263	10000	0.0525	0.0032
333.15	0.263	15000	0.0549	0.0033
333.15	0.263	20000	0.0568	0.0035
333.15	0.402	10000	0.0373	0.0023
333.15	0.402	15000	0.0385	0.0023
333.15	0.402	20000	0.0415	0.0026
353.15	0.101	10000	0.0399	0.0025
353.15	0.101	15000	0.0418	0.0026
353.15	0.101	20000	0.0443	0.0027
353.15	0.188	10000	0.0318	0.002
353.15	0.188	15000	0.0325	0.002
353.15	0.188	20000	0.0339	0.0021
353.15	0.263	10000	0.0268	0.0016
353.15	0.263	15000	0.0276	0.0017
353.15	0.263	20000	0.0281	0.0017
353.15	0.402	10000	0.0226	0.0014
353.15	0.402	15000	0.0237	0.0014
353.15	0.402	20000	0.0242	0.0015

System: carbon dioxide + 1-octyl-3-methylimidazolium hexafluorophosphate; phases: Liquid
Property: Mass density, kg/m3 (Liquid); method: Constant-volume piezometry
Temperature, K	Mole fraction of carbon dioxide	Pressure, kPa	Mass density, kg/m3	uncertainty
293.15	0.101	10000	1252	5
293.15	0.101	15000	1255	5
293.15	0.101	20000	1258	5
293.15	0.188	10000	1254	5
293.15	0.188	15000	1257	5
293.15	0.188	20000	1260	5
293.15	0.263	10000	1254	5
293.15	0.263	15000	1257	5
293.15	0.263	20000	1260	5
293.15	0.402	10000	1250	5
293.15	0.402	15000	1253	5
293.15	0.402	20000	1256	5
313.15	0.101	10000	1236	5
313.15	0.101	15000	1239	5
313.15	0.101	20000	1242	5
313.15	0.188	10000	1238	5
313.15	0.188	15000	1241	5
313.15	0.188	20000	1244	5
313.15	0.263	10000	1237	5
313.15	0.263	15000	1241	5
313.15	0.263	20000	1244	5
313.15	0.402	10000	1231	5
313.15	0.402	15000	1235	5
313.15	0.402	20000	1238	5
333.15	0.101	10000	1221	5
333.15	0.101	15000	1225	5
333.15	0.101	20000	1227	5
333.15	0.188	10000	1222	5
333.15	0.188	15000	1226	5
333.15	0.188	20000	1228	5
333.15	0.263	10000	1220	5
333.15	0.263	15000	1224	5
333.15	0.263	20000	1227	5
333.15	0.402	10000	1211	5
333.15	0.402	15000	1217	5
333.15	0.402	20000	1220	5
353.15	0.101	10000	1193	5
353.15	0.101	15000	1209	5
353.15	0.101	20000	1212	5
353.15	0.188	10000	1182	5
353.15	0.188	15000	1210	5
353.15	0.188	20000	1214	5
353.15	0.263	10000	1169	5
353.15	0.263	15000	1208	5
353.15	0.263	20000	1212	5
353.15	0.402	10000	1139	5
353.15	0.402	15000	1198	5
353.15	0.402	20000	1203	5
