Measured thermophysical data. Phase behavior of the carbon dioxide p 1-dodecanol system at high pressures
Source: Fluid Phase Equilib., 2016, 10.1016/j.fluid.2016.06.014
Compound 1: dodecan-1-ol, C12H26O, InChI=1S/C12H26O/c1-2-3-4-5-6-7-8-9-10-11-12-13/h13H,2-12H2,1H3
Compound 2: carbon dioxide, CO2, InChI=1S/CO2/c2-1-3, purity 99.9%

System: dodecan-1-ol + carbon dioxide; phases: Liquid, Gas
Property: Vapor or sublimation pressure, kPa (Liquid); method: ISOPVT
Mole fraction of carbon dioxide	Temperature, K	Vapor or sublimation pressure, kPa	uncertainty
0.0924	293.15	820	90
0.185	293.15	1670	90
0.269	293.15	2280	100
0.3541	293.15	3290	120
0.4112	293.15	4020	110
0.4675	293.15	4530	110
0.5223	293.15	5250	130
0.5449	293.15	5530	100
0.5646	293.15	5670	80
0.9912	293.15	5670	40
0.1052	303.15	1070	120
0.1836	303.15	2040	120
0.2295	303.15	2540	110
0.2823	303.15	3060	130
0.3554	303.15	4050	130
0.4329	303.15	5030	140
0.4764	303.15	5710	160
0.5078	303.15	6220	140
0.517	303.15	6300	140
0.5831	303.15	7150	130
0.9947	303.15	7150	40
0.0922	313.15	1090	120
0.1835	313.15	2050	120
0.2489	313.15	3010	150
0.3169	313.15	4020	140
0.405	313.15	5110	150
0.4556	313.15	6020	190
0.4918	313.15	6790	220
0.4954	313.15	6820	210
0.098	333.15	1000	150
0.1503	333.15	2040	170
0.2173	333.15	3080	160
0.2858	333.15	4140	170
0.3304	333.15	5020	190
0.3811	333.15	5980	200
0.4237	333.15	7010	230
0.4496	333.15	7490	230
0.4791	333.15	8290	280
0.0712	353.15	1040	150
0.1375	353.15	2020	170
0.1902	353.15	3060	200
0.2414	353.15	4050	210
0.2817	353.15	4960	210
0.3384	353.15	6040	200
0.3793	353.15	6950	240
0.423	353.15	8060	350
0.4464	353.15	9360	560

System: dodecan-1-ol + carbon dioxide; phases: Gas, Liquid
Property: Mole fraction of carbon dioxide (Gas); method: ISOPVT
Mole fraction of carbon dioxide	Temperature, K	Mole fraction of carbon dioxide	uncertainty
0.0924	293.15	0.9932	0.0068
0.185	293.15	0.9949	0.0051
0.269	293.15	0.9955	0.0045
0.3541	293.15	0.9964	0.0036
0.4112	293.15	0.9965	0.0035
0.4675	293.15	0.9963	0.0037
0.5223	293.15	0.9962	0.0038
0.5449	293.15	0.9959	0.0041
0.5646	293.15	0.9956	0.0044
0.9912	293.15	0.9956	0.0044
0.1052	303.15	0.9948	0.0052
0.1836	303.15	0.9961	0.0039
0.2295	303.15	0.9964	0.0036
0.2823	303.15	0.9968	0.0032
0.3554	303.15	0.997	0.003
0.4329	303.15	0.9972	0.0028
0.4764	303.15	0.997	0.003
0.5078	303.15	0.9967	0.0033
0.517	303.15	0.9966	0.0034
0.5831	303.15	0.9961	0.0039
0.9947	303.15	0.9961	0.0039
0.0922	313.15	0.9951	0.0049
0.1835	313.15	0.9963	0.0037
0.2489	313.15	0.9969	0.0031
0.3169	313.15	0.9972	0.0028
0.405	313.15	0.9974	0.0026
0.4556	313.15	0.9975	0.0025
0.4918	313.15	0.9971	0.0029
0.4954	313.15	0.9971	0.0029
0.098	333.15	0.9955	0.0045
0.1503	333.15	0.9969	0.0031
0.2173	333.15	0.9972	0.0028
0.2858	333.15	0.9974	0.0026
0.3304	333.15	0.9978	0.0022
0.3811	333.15	0.9978	0.0022
0.4237	333.15	0.9978	0.0022
0.4496	333.15	0.9977	0.0023
0.4791	333.15	0.9976	0.0024
0.0712	353.15	0.996	0.004
0.1375	353.15	0.9975	0.0025
0.1902	353.15	0.9984	0.0016
0.2414	353.15	0.9985	0.0015
0.2817	353.15	0.9986	0.0014
0.3384	353.15	0.9986	0.0014
0.3793	353.15	0.9988	0.0012
0.423	353.15	0.9986	0.0014
0.4464	353.15	0.9985	0.0015

System: dodecan-1-ol + carbon dioxide; phases: Liquid mixture 1, Liquid mixture 2
Property: Mole fraction of carbon dioxide (Liquid mixture 1); method: expansion into traps
Temperature, K	Pressure, kPa	Mole fraction of carbon dioxide	uncertainty
293.15	5670	0.5646	0.0101
303.15	7150	0.5831	0.0225
287.95	4990	0.5249	0.0112
291.05	5380	0.5593	0.0102
293.15	5670	0.5646	0.0101
295.85	6040	0.5723	0.0108
298.15	6390	0.5751	0.0101
300.85	6780	0.5796	0.0098
303.15	7150	0.5831	0.0225
305.55	7550	0.5794	0.0098

System: dodecan-1-ol + carbon dioxide; phases: Liquid mixture 2, Liquid mixture 1
Property: Mole fraction of carbon dioxide (Liquid mixture 2); method: OTHER
Temperature, K	Pressure, kPa	Mole fraction of carbon dioxide	uncertainty
293.15	5670	0.9912	0.0088
303.15	7150	0.9947	0.0053
287.95	4990	0.9949	0.0051
291.05	5380	0.9927	0.0073
293.15	5670	0.9912	0.0088
295.85	6040	0.9922	0.0078
298.15	6390	0.9932	0.0068
300.85	6780	0.9934	0.0066
303.15	7150	0.9947	0.0053
305.55	7550	0.9953	0.0047

System: dodecan-1-ol + carbon dioxide; phases: Liquid mixture 2, Liquid mixture 1, Gas
Property: Mole fraction of carbon dioxide (Liquid mixture 2); method: OTHER
Temperature, K	Mole fraction of carbon dioxide	uncertainty
293.15	0.9956	0.0044
303.15	0.9961	0.0039

System: dodecan-1-ol + carbon dioxide; phases: Gas, Liquid mixture 1, Liquid mixture 2
Property: Vapor or sublimation pressure, kPa (Gas); method: OTHER
Temperature, K	Vapor or sublimation pressure, kPa	uncertainty
287.95	4990	387
291.05	5380	418
293.15	5670	440
295.85	6040	469
298.15	6390	496
300.85	6780	526
303.15	7150	555
305.55	7550	586

System: dodecan-1-ol + carbon dioxide; phases: Liquid mixture 1, Liquid mixture 2, Gas
Property: Mole fraction of carbon dioxide (Liquid mixture 1); method: OTHER
Temperature, K	Mole fraction of carbon dioxide	uncertainty
293.15	0.9912	0.002
303.15	0.9947	0.002

System: dodecan-1-ol + carbon dioxide; phases: Gas, Liquid mixture 2, Liquid mixture 1
Property: Mole fraction of carbon dioxide (Gas); method: OTHER
Temperature, K	Mole fraction of carbon dioxide	uncertainty
293.15	0.5646	0.0136
303.15	0.5831	0.0134

System: dodecan-1-ol + carbon dioxide; phases: Liquid mixture 1, Liquid mixture 2, Gas
Property: Vapor or sublimation pressure, kPa (Liquid mixture 1); method: ISOPVT
Temperature, K	Vapor or sublimation pressure, kPa	uncertainty
287.85	4980	30
288.55	5050	30
290.05	5250	30
291.45	5450	30
292.95	5650	30
294.45	5850	40
295.55	6020	40
297.25	6250	40
298.45	6440	40
300.85	6780	40
301.35	6870	40
302.75	7090	40
303.15	7150	40
304.25	7320	40
305.4	7510	40
305.5	7530	50
305.6	7550	40
305.8	7590	50
