Measured thermophysical data. Separation of methanol + dimethyl carbonate azeotropic mixture using ionic liquids as entrainers
Source: Fluid Phase Equilib., 2017, 10.1016/j.fluid.2016.11.026
Compound 1: methanol, CH4O, InChI=1S/CH4O/c1-2/h2H,1H3, purity 99.5%
Compound 2: dimethyl carbonate, C3H6O3, InChI=1S/C3H6O3/c1-5-3(4)6-2/h1-2H3, purity 99.5%
Compound 3: 1-ethyl-3-methylimidazolium bromide, C6H11BrN2, InChI=1S/C6H11N2.BrH/c1-3-8-5-4-7(2)6-8;/h4-6H,3H2,1-2H3;1H/q+1;/p-1, purity 99%
Compound 4: 1-butyl-3-methylimidazolium chloride, C8H15ClN2, InChI=1S/C8H15N2.ClH/c1-3-4-5-10-7-6-9(2)8-10;/h6-8H,3-5H2,1-2H3;1H/q+1;/p-1, purity 99%

System: methanol + dimethyl carbonate; phases: Liquid, Gas
Fixed: Pressure, kPa = 101.3
Property: Mole fraction of methanol (Liquid); method: Chromatography
Temperature, K	Mole fraction of methanol	uncertainty
354.45	0.06	0.002
351.95	0.085	0.003
348.2	0.134	0.004
343	0.251	0.006
340.85	0.337	0.008
339.2	0.443	0.01
338	0.57	0.011
337.15	0.719	0.012
337	0.772	0.01
336.85	0.845	0.014
336.85	0.868	0.009
336.95	0.912	0.007
337.1	0.946	0.003
337.25	0.967	0.033

System: methanol + dimethyl carbonate; phases: Gas, Liquid
Property: Mole fraction of methanol (Gas); method: Chromatography
Temperature, K	Mole fraction of methanol	Mole fraction of methanol	uncertainty
354.45	0.06	0.287	0.003
351.95	0.085	0.353	0.004
348.2	0.134	0.455	0.005
343	0.251	0.59	0.004
340.85	0.337	0.654	0.004
339.2	0.443	0.706	0.004
338	0.57	0.74	0.003
337.15	0.719	0.794	0.004
337	0.772	0.81	0.005
336.85	0.845	0.844	0.007
336.85	0.868	0.868	0.005
336.95	0.912	0.895	0.003
337.1	0.946	0.928	0.003
337.25	0.967	0.958	0.003

System: methanol + dimethyl carbonate + 1-ethyl-3-methylimidazolium bromide; phases: Liquid, Gas
Fixed: Pressure, kPa = 101.3
Property: Mole fraction of methanol (Liquid); method: Chromatography
Temperature, K	Mole fraction of 1-ethyl-3-methylimidazolium bromide	Mole fraction of methanol	uncertainty
357.85	0.11	0.073	0.003
354.1	0.11	0.153	0.003
351.65	0.11	0.208	0.003
347.25	0.1	0.325	0.003
345.15	0.1	0.396	0.004
343.8	0.1	0.45	0.004
342.15	0.1	0.532	0.004
341.35	0.11	0.583	0.006
340.55	0.1	0.639	0.016
339.95	0.11	0.731	0.038
339.85	0.11	0.773	0.038
340.1	0.1	0.855	0.04
353	0.21	0.078	0.004
352.45	0.2	0.112	0.003
350.35	0.2	0.181	0.004
347.85	0.21	0.269	0.003
345.95	0.21	0.352	0.006
344.45	0.2	0.44	0.059
343.2	0.2	0.526	0.117
342.7	0.2	0.586	0.013
342.6	0.2	0.67	0.013
343.15	0.2	0.722	0.117
344.1	0.21	0.757	0.007
351	0.25	0.054	0.005
350	0.25	0.076	0.005
348.6	0.25	0.142	0.005
347.35	0.25	0.205	0.006
346.15	0.25	0.282	0.091
345.45	0.25	0.329	0.078
344.75	0.25	0.382	0.088
344.15	0.25	0.441	0.011
343.85	0.25	0.491	0.01
343.75	0.25	0.545	0.023
343.95	0.25	0.605	0.015
344.35	0.25	0.638	0.012
345.5	0.24	0.719	0.004
346.65	0.25	0.73	0.008

System: methanol + dimethyl carbonate + 1-ethyl-3-methylimidazolium bromide; phases: Gas, Liquid
Property: Mole fraction of methanol (Gas); method: Chromatography
Temperature, K	Mole fraction of methanol	Mole fraction of 1-ethyl-3-methylimidazolium bromide	Mole fraction of methanol	uncertainty
357.85	0.073	0.11	0.112	0.004
354.1	0.153	0.11	0.233	0.012
351.65	0.208	0.11	0.304	0.006
347.25	0.325	0.1	0.435	0.005
345.15	0.396	0.1	0.499	0.006
343.8	0.45	0.1	0.534	0.006
342.15	0.532	0.1	0.601	0.005
341.35	0.583	0.11	0.651	0.005
340.55	0.639	0.1	0.699	0.004
339.95	0.731	0.11	0.78	0.004
339.85	0.773	0.11	0.818	0.004
340.1	0.855	0.1	0.911	0.003
353	0.078	0.21	0.057	0.003
352.45	0.112	0.2	0.09	0.003
350.35	0.181	0.2	0.153	0.004
347.85	0.269	0.21	0.253	0.004
345.95	0.352	0.21	0.342	0.005
344.45	0.44	0.2	0.432	0.005
343.2	0.526	0.2	0.531	0.006
342.7	0.586	0.2	0.605	0.006
342.6	0.67	0.2	0.727	0.005
343.15	0.722	0.2	0.824	0.005
344.1	0.757	0.21	0.895	0.004
351	0.054	0.25	0.026	0.004
350	0.076	0.25	0.041	0.003
348.6	0.142	0.25	0.085	0.005
347.35	0.205	0.25	0.144	0.006
346.15	0.282	0.25	0.237	0.021
345.45	0.329	0.25	0.282	0.004
344.75	0.382	0.25	0.345	0.005
344.15	0.441	0.25	0.418	0.005
343.85	0.491	0.25	0.483	0.006
343.75	0.545	0.25	0.558	0.006
343.95	0.605	0.25	0.653	0.005
344.35	0.638	0.25	0.709	0.006
345.5	0.719	0.24	0.876	0.004
346.65	0.73	0.25	0.935	0.004

System: methanol + dimethyl carbonate + 1-butyl-3-methylimidazolium chloride; phases: Liquid, Gas
Fixed: Pressure, kPa = 101.3
Property: Mole fraction of methanol (Liquid); method: Chromatography
Temperature, K	Mole fraction of 1-butyl-3-methylimidazolium chloride	Mole fraction of methanol	uncertainty
361.35	0.11	0.03	0.003
357	0.11	0.105	0.003
354.25	0.11	0.168	0.004
351.65	0.12	0.233	0.003
350	0.12	0.278	0.003
346.6	0.11	0.386	0.004
344.55	0.11	0.464	0.004
343.35	0.11	0.522	0.009
342.25	0.11	0.584	0.007
341.15	0.11	0.683	0.227
340.85	0.11	0.764	0.028
341.1	0.11	0.835	0.165
354.45	0.16	0.094	0.004
353.65	0.16	0.152	0.006
350.55	0.17	0.237	0.003
348.15	0.17	0.327	0.004
346.45	0.16	0.397	0.008
345.15	0.16	0.461	0.005
344.25	0.16	0.515	0.011
343.6	0.17	0.575	0.027
342.95	0.16	0.684	0.007
343.15	0.16	0.735	0.007
344.2	0.16	0.791	0.01
352.55	0.2	0.122	0.005
351.35	0.2	0.173	0.003
349.25	0.21	0.233	0.003
347.55	0.21	0.316	0.005
346.45	0.22	0.372	0.074
345.65	0.22	0.435	0.05
345.15	0.21	0.487	0.045
344.55	0.2	0.569	0.018
344.85	0.21	0.64	0.046
345.45	0.21	0.699	0.04
346.5	0.21	0.737	0.044

System: methanol + dimethyl carbonate + 1-butyl-3-methylimidazolium chloride; phases: Gas, Liquid
Property: Mole fraction of methanol (Gas); method: Chromatography
Temperature, K	Mole fraction of methanol	Mole fraction of 1-butyl-3-methylimidazolium chloride	Mole fraction of methanol	uncertainty
361.35	0.03	0.11	0.034	0.004
357	0.105	0.11	0.12	0.004
354.25	0.168	0.11	0.216	0.007
351.65	0.233	0.12	0.269	0.008
350	0.278	0.12	0.302	0.005
346.6	0.386	0.11	0.453	0.043
344.55	0.464	0.11	0.511	0.006
343.35	0.522	0.11	0.545	0.013
342.25	0.584	0.11	0.613	0.005
341.15	0.683	0.11	0.682	0.005
340.85	0.764	0.11	0.776	0.004
341.1	0.835	0.11	0.866	0.004
354.45	0.094	0.16	0.069	0.003
353.65	0.152	0.16	0.112	0.005
350.55	0.237	0.17	0.193	0.007
348.15	0.327	0.17	0.283	0.005
346.45	0.397	0.16	0.353	0.005
345.15	0.461	0.16	0.43	0.006
344.25	0.515	0.16	0.486	0.006
343.6	0.575	0.17	0.557	0.006
342.95	0.684	0.16	0.689	0.006
343.15	0.735	0.16	0.764	0.005
344.2	0.791	0.16	0.879	0.005
352.55	0.122	0.2	0.069	0.003
351.35	0.173	0.2	0.105	0.005
349.25	0.233	0.21	0.15	0.004
347.55	0.316	0.21	0.219	0.005
346.45	0.372	0.22	0.273	0.004
345.65	0.435	0.22	0.341	0.006
345.15	0.487	0.21	0.416	0.006
344.55	0.569	0.2	0.52	0.007
344.85	0.64	0.21	0.623	0.006
345.45	0.699	0.21	0.732	0.005
346.5	0.737	0.21	0.826	0.005
