Measured thermophysical data. Determination and correlation of solubility of linezolid form II in different pure and binary solvents
Source: Fluid Phase Equilib., 2017, 10.1016/j.fluid.2016.10.021
Compound 1: Linezolid, C16H20FN3O4, InChI=1S/C16H20FN3O4/c1-11(21)18-9-13-10-20(16(22)24-13)12-2-3-15(14(17)8-12)19-4-6-23-7-5-19/h2-3,8,13H,4-7,9-10H2,1H3,(H,18,21)/t13-/m0/s1
Compound 2: methanol, CH4O, InChI=1S/CH4O/c1-2/h2H,1H3, purity 99.5%
Compound 3: ethanol, C2H6O, InChI=1S/C2H6O/c1-2-3/h3H,2H2,1H3, purity 99.5%
Compound 4: propan-1-ol, C3H8O, InChI=1S/C3H8O/c1-2-3-4/h4H,2-3H2,1H3, purity 99.5%
Compound 5: propan-2-ol, C3H8O, InChI=1S/C3H8O/c1-3(2)4/h3-4H,1-2H3, purity 99.5%
Compound 6: water, H2O, InChI=1S/H2O/h1H2

System: water + Linezolid; phases: Liquid, Crystal
Fixed: Pressure, kPa = 100
Property: Mole fraction of Linezolid (Liquid); method: UV-vis spectroscopy
Temperature, K	Mole fraction of Linezolid	uncertainty
283.15	8.527e-05	3.42e-06
288.15	9.56e-05	3.83e-06
293.15	0.0001002	4e-06
298.15	0.0001147	4.6e-06
303.15	0.0001342	5.4e-06
308.15	0.0001538	6.2e-06
313.15	0.0001654	6.6e-06
318.15	0.0001955	7.8e-06

System: methanol + Linezolid; phases: Liquid, Crystal
Fixed: Pressure, kPa = 100
Property: Mole fraction of Linezolid (Liquid); method: UV-vis spectroscopy
Temperature, K	Mole fraction of Linezolid	uncertainty
283.15	0.001355	5.5e-05
288.15	0.001767	7.1e-05
293.15	0.002367	9.5e-05
298.15	0.003235	0.00013
303.15	0.003829	0.000154
308.15	0.005447	0.000219
313.15	0.007406	0.000298
318.15	0.009721	0.00039
313.15	0.006346	0.000255

System: ethanol + Linezolid; phases: Liquid, Crystal
Fixed: Pressure, kPa = 100
Property: Mole fraction of Linezolid (Liquid); method: UV-vis spectroscopy
Temperature, K	Mole fraction of Linezolid	uncertainty
283.15	0.0007391	2.97e-05
288.15	0.0009445	3.79e-05
293.15	0.001235	5e-05
298.15	0.001576	6.3e-05
303.15	0.002131	8.6e-05
308.15	0.002818	0.000113
313.15	0.00382	0.000153
318.15	0.004356	0.000175

System: propan-1-ol + Linezolid; phases: Liquid, Crystal
Fixed: Pressure, kPa = 100
Property: Mole fraction of Linezolid (Liquid); method: UV-vis spectroscopy
Temperature, K	Mole fraction of Linezolid	uncertainty
283.15	0.0006245	2.51e-05
288.15	0.0008031	3.23e-05
293.15	0.001159	4.7e-05
298.15	0.001412	5.7e-05
303.15	0.001753	7.1e-05
308.15	0.002575	0.000103
313.15	0.002964	0.000119
318.15	0.003879	0.000156

System: propan-2-ol + Linezolid; phases: Liquid, Crystal
Fixed: Pressure, kPa = 100
Property: Mole fraction of Linezolid (Liquid); method: UV-vis spectroscopy
Temperature, K	Mole fraction of Linezolid	uncertainty
283.15	0.0004052	1.63e-05
288.15	0.0005352	2.16e-05
293.15	0.0008491	3.42e-05
298.15	0.001181	4.8e-05
303.15	0.001644	6.6e-05
308.15	0.002041	8.2e-05
313.15	0.002499	0.0001
318.15	0.003347	0.000134

System: methanol + water + Linezolid; phases: Liquid, Crystal
Fixed: Pressure, kPa = 100
Property: Mole fraction of Linezolid (Liquid); method: UV-vis spectroscopy
Temperature, K	Solvent: Mole fraction of methanol	Mole fraction of Linezolid	uncertainty
283.15	0	8.527e-05	3.42e-06
283.15	0.1579	0.0001644	6.6e-06
283.15	0.2727	0.0003818	1.53e-05
283.15	0.4073	0.000985	4e-05
283.15	0.5675	0.001592	6.4e-05
283.15	0.7612	0.001741	7e-05
283.15	1	0.001355	5.5e-05
288.15	0	9.56e-05	3.83e-06
288.15	0.1579	0.0002997	1.2e-05
288.15	0.2727	0.0004769	1.93e-05
288.15	0.4073	0.001228	4.9e-05
288.15	0.5675	0.002026	8.2e-05
288.15	0.7612	0.002226	8.9e-05
288.15	1	0.001767	7.1e-05
293.15	0	0.0001002	4e-06
293.15	0.1579	0.0003306	1.33e-05
293.15	0.2727	0.0008126	3.27e-05
293.15	0.4073	0.001639	6.6e-05
293.15	0.5675	0.003066	0.000123
293.15	0.7612	0.002819	0.000113
293.15	1	0.002367	9.5e-05
298.15	0	0.0001147	4.6e-06
298.15	0.1579	0.0004181	1.68e-05
298.15	0.2727	0.001011	4.1e-05
298.15	0.4073	0.002264	9.1e-05
298.15	0.5675	0.003879	0.000156
298.15	0.7612	0.003661	0.000147
298.15	1	0.003235	0.00013
303.15	0	0.0001342	5.4e-06
303.15	0.1579	0.0005322	2.14e-05
303.15	0.2727	0.001322	5.3e-05
303.15	0.4073	0.002915	0.000117
303.15	0.5675	0.004923	0.000198
303.15	0.7612	0.004453	0.000179
303.15	1	0.003829	0.000154
308.15	0	0.0001538	6.2e-06
308.15	0.1579	0.0007426	2.99e-05
308.15	0.2727	0.001957	7.9e-05
308.15	0.4073	0.004072	0.000164
308.15	0.5675	0.006597	0.000265
308.15	0.7612	0.005871	0.000236
308.15	1	0.005447	0.000219
313.15	0	0.0001654	6.6e-06
313.15	0.1579	0.0009689	3.89e-05
313.15	0.2727	0.002259	9.1e-05
313.15	0.4073	0.005045	0.000203
313.15	0.5675	0.008251	0.000331
313.15	0.7612	0.008155	0.000327
313.15	1	0.006346	0.000255
318.15	0	0.0001955	7.8e-06
318.15	0.1579	0.001269	5.2e-05
318.15	0.2727	0.003201	0.000129
318.15	0.4073	0.006339	0.000254
318.15	0.5675	0.01049	0.00042
318.15	0.7612	0.008995	0.000361
318.15	1	0.009721	0.000391
