Measured thermophysical data. Determination and modeling of aqueous solubility of 4-position substituted  benzoic acid compounds in a high-temperature solution
Source: Fluid Phase Equilib., 2013, 10.1016/j.fluid.2012.11.023
Compound 1: benzoic acid, C7H6O2, InChI=1S/C7H6O2/c8-7(9)6-4-2-1-3-5-6/h1-5H,(H,8,9), purity 99%
Compound 2: water, H2O, InChI=1S/H2O/h1H2
Compound 3: 4-(1,1-dimethylethyl)benzoic acid, C11H14O2, InChI=1S/C11H14O2/c1-11(2,3)9-6-4-8(5-7-9)10(12)13/h4-7H,1-3H3,(H,12,13), purity 99%
Compound 4: 4-methylbenzoic acid, C8H8O2, InChI=1S/C8H8O2/c1-6-2-4-7(5-3-6)8(9)10/h2-5H,1H3,(H,9,10), purity 99%
Compound 5: 4-carboxybenzaldehyde, C8H6O3, InChI=1S/C8H6O3/c9-5-6-1-3-7(4-2-6)8(10)11/h1-5H,(H,10,11), purity 99%
Compound 6: 4-acetylbenzoic acid, C9H8O3, InChI=1S/C9H8O3/c1-6(10)7-2-4-8(5-3-7)9(11)12/h2-5H,1H3,(H,11,12), purity 99%
Compound 7: 1,4-benzenedicarboxylic acid, C8H6O4, InChI=1S/C8H6O4/c9-7(10)5-1-2-6(4-3-5)8(11)12/h1-4H,(H,9,10)(H,11,12), purity 99%

System: benzoic acid + water; phases: Liquid, Crystal
Fixed: Pressure, kPa = 101
Property: Mole fraction of benzoic acid (Liquid); method: Phase equilibration
Temperature, K	Mole fraction of benzoic acid	uncertainty
363.15	0.0063	0.00252
353.15	0.00419	0.00168
343.15	0.00268	0.00107
333.15	0.00181	0.00072
323.15	0.00143	0.00057
313.15	0.00089	0.00036
303.15	0.00062	0.00025

System: benzoic acid + water; phases: Liquid mixture 1, Liquid mixture 2
Fixed: Pressure, kPa = 101
Property: Mole fraction of benzoic acid (Liquid mixture 1); method: Phase equilibration
Temperature, K	Mole fraction of benzoic acid	uncertainty
423.15	0.0403	0.01614
413.15	0.0296	0.01186
403.15	0.02121	0.0085
393.15	0.0155	0.0062
383.15	0.01045	0.00418
373.15	0.00913	0.00365

System: 4-(1,1-dimethylethyl)benzoic acid + water; phases: Liquid, Crystal
Fixed: Pressure, kPa = 101
Property: Mole fraction of 4-(1,1-dimethylethyl)benzoic acid (Liquid); method: Phase equilibration
Temperature, K	Mole fraction of 4-(1,1-dimethylethyl)benzoic acid	uncertainty
423.15	0.04039	0.01616
413.15	0.02968	0.01187
403.15	0.0212	0.00848
393.15	0.0155	0.0062
383.15	0.01045	0.00418
373.15	0.00912	0.00365
363.15	0.00556	0.00222
353.15	0.00389	0.00156
343.15	0.0025	0.001
333.15	0.00163	0.00065
323.15	0.00153	0.00061
313.15	0.0008	0.00032
303.15	0.0005	0.0002

System: 4-methylbenzoic acid + water; phases: Liquid, Crystal
Fixed: Pressure, kPa = 101
Property: Mole fraction of 4-methylbenzoic acid (Liquid); method: Phase equilibration
Temperature, K	Mole fraction of 4-methylbenzoic acid	uncertainty
413.15	0.01123	0.00449
403.15	0.00714	0.00286
393.15	0.00455	0.00182
383.15	0.00277	0.00111
373.15	0.00183	0.00073
363.15	0.00071	0.00028
353.15	0.00051	0.0002
343.15	0.00036	0.00014
333.15	0.00019	8e-05
323.15	0.00014	6e-05
313.15	0.0001	4e-05
303.15	6e-05	2e-05
298.15	5e-05	2e-05
423.15	0.01348	0.00539

System: 4-methylbenzoic acid + water; phases: Liquid mixture 1, Liquid mixture 2
Fixed: Pressure, kPa = 101
Property: Mole fraction of 4-methylbenzoic acid (Liquid mixture 1); method: Phase equilibration
Temperature, K	Mole fraction of 4-methylbenzoic acid	uncertainty
443.15	0.04893	0.01957
433.15	0.03982	0.01593

System: 4-carboxybenzaldehyde + water; phases: Liquid, Crystal
Fixed: Pressure, kPa = 101
Property: Mole fraction of 4-carboxybenzaldehyde (Liquid); method: Phase equilibration
Temperature, K	Mole fraction of 4-carboxybenzaldehyde	uncertainty
473.15	0.00335	0.00134
463.15	0.00286	0.00114
453.15	0.00242	0.00097
443.15	0.00203	0.00081
433.15	0.00169	0.00068
423.15	0.00147	0.00059
413.15	0.0012	0.00048
403.15	0.00102	0.00041
393.15	0.00067	0.00027
383.15	0.00052	0.00021
373.15	0.00046	0.00018
363.15	0.00036	0.00014
353.15	0.00033	0.00013
343.15	0.00025	0.0001
333.15	0.00023	9e-05
323.15	0.00017	7e-05
313.15	0.00011	4e-05
303.15	8e-05	3e-05

System: 4-acetylbenzoic acid + water; phases: Liquid, Crystal
Fixed: Pressure, kPa = 101
Property: Mole fraction of 4-acetylbenzoic acid (Liquid); method: Phase equilibration
Temperature, K	Mole fraction of 4-acetylbenzoic acid	uncertainty
473.15	0.0104	0.00416
463.15	0.00831	0.00332
453.15	0.0063	0.00252
443.15	0.00459	0.00184
433.15	0.00405	0.00162
423.15	0.00308	0.00123
413.15	0.00238	0.00095
403.15	0.00178	0.00071
393.15	0.00136	0.00054
383.15	0.00104	0.00042
373.15	0.0008	0.00032
363.15	0.00061	0.00024
353.15	0.00046	0.00018
343.15	0.00035	0.00014
333.15	0.00027	0.00011
323.15	0.0002	8e-05
313.15	0.00016	6e-05
303.15	0.00012	5e-05

System: 1,4-benzenedicarboxylic acid + water; phases: Liquid, Crystal
Fixed: Pressure, kPa = 101
Property: Mole fraction of 1,4-benzenedicarboxylic acid (Liquid); method: Phase equilibration
Temperature, K	Mole fraction of 1,4-benzenedicarboxylic acid	uncertainty
473.15	1.63e-05	6.5e-06
463.15	1.28e-05	5.1e-06
453.15	9.4e-06	3.8e-06
443.15	7.9e-06	3.2e-06
433.15	6.9e-06	2.8e-06
423.15	3.9e-06	1.6e-06
413.15	3.2e-06	1.3e-06
403.15	2.6e-06	1e-06
393.15	1.9e-06	8e-07
383.15	1.3e-06	5e-07
373.15	8e-07	3e-07
363.15	7e-07	3e-07
353.15	6e-07	2e-07
343.15	5e-07	2e-07
333.15	4e-07	2e-07
323.15	3e-07	1e-07
313.15	2e-07	1e-07
303.15	2e-07	1e-07
