Measured thermophysical data. Contribution to the quaternary system H2O-Al3+, Ca2+//O2- , SO42- : Solid-liquid equilibria in the ternary systems Al2(SO4)3-CaSO4-H2O and Al2O3-SO3-H2O at 25C
Source: Fluid Phase Equilib., 2016, 10.1016/j.fluid.2015.10.038
Compound 1: water, H2O, InChI=1S/H2O/h1H2
Compound 2: aluminum sulfate, Al2O12S3, InChI=1S/2Al.3H2O4S/c;;3*1-5(2,3)4/h;;3*(H2,1,2,3,4)/q2*+3;;;/p-6, purity 99%
Compound 3: calcium sulfate, CaO4S, InChI=1S/Ca.H2O4S/c;1-5(2,3)4/h;(H2,1,2,3,4)/q+2;/p-2, purity 99%
Compound 4: sulfur trioxide, O3S, InChI=1S/O3S/c1-4(2)3, purity 96%

System: water + aluminum sulfate; phases: Liquid, Crystal of intercomponent compound 1
Property: Mole fraction of aluminum sulfate (Liquid); method: Titration method
Temperature, K	Pressure, kPa	Mole fraction of aluminum sulfate	uncertainty
298.15	101	0.2781	0.0008

System: water + calcium sulfate; phases: Liquid, Crystal of intercomponent compound 1
Property: Mole fraction of calcium sulfate (Liquid); method: Titration method
Temperature, K	Pressure, kPa	Mole fraction of calcium sulfate	uncertainty
298.15	101	0.00208	1e-05

System: water + calcium sulfate + aluminum sulfate; phases: Liquid, Crystal of intercomponent compound 1
Fixed: Temperature, K = 298.15
Fixed: Pressure, kPa = 101
Property: Mass fraction of aluminum sulfate (Liquid); method: Titration method
Mass fraction of calcium sulfate	Mass fraction of aluminum sulfate	uncertainty
0	0.278	0.0007
0.00023	0.2778	0.0007
0.0004	0.2771	0.0007

System: water + calcium sulfate + aluminum sulfate; phases: Liquid, Crystal of intercomponent compound 2
Property: Mass fraction of aluminum sulfate (Liquid); method: Titration method
Mass fraction of calcium sulfate	Temperature, K	Pressure, kPa	Mass fraction of aluminum sulfate	uncertainty
0.00051	298.15	101	0.2775	0.0007

System: water + calcium sulfate + aluminum sulfate; phases: Liquid, Crystal of intercomponent compound 3
Fixed: Temperature, K = 298.15
Fixed: Pressure, kPa = 101
Property: Mass fraction of aluminum sulfate (Liquid); method: Titration method
Mass fraction of calcium sulfate	Mass fraction of aluminum sulfate	uncertainty
0.00074	0.2497	0.0006
0.00088	0.2298	0.0005
0.00112	0.1994	0.0005
0.00144	0.1614	0.0004
0.00173	0.1013	0.0002
0.00171	0.1009	0.0002
0.00185	0.051	0.0001
0.00208	0	

System: sulfur trioxide + water + aluminum sulfate; phases: Liquid, Crystal of intercomponent compound 1
Fixed: Temperature, K = 298.15
Fixed: Pressure, kPa = 101
Property: Mass fraction of aluminum sulfate (Liquid); method: Titration method
Mass fraction of sulfur trioxide	Mass fraction of aluminum sulfate	uncertainty
0.339	0.015	0.002
0.257	0.041	0.002
