Measured thermophysical data. Thermodynamic study of heptane + amine mixtures. V. Excess and solvation Gibbs energies
Source: Fluid Phase Equilib., 2015, 10.1016/j.fluid.2014.12.017
Compound 1: heptane, C7H16, InChI=1S/C7H16/c1-3-5-7-6-4-2/h3-7H2,1-2H3
Compound 2: propan-1-amine, C3H9N, InChI=1S/C3H9N/c1-2-3-4/h2-4H2,1H3
Compound 3: 2-propanamine, C3H9N, InChI=1S/C3H9N/c1-3(2)4/h3H,4H2,1-2H3
Compound 4: 1-butanamine, C4H11N, InChI=1S/C4H11N/c1-2-3-4-5/h2-5H2,1H3
Compound 5: 2-butanamine, C4H11N, InChI=1S/C4H11N/c1-3-4(2)5/h4H,3,5H2,1-2H3
Compound 6: 1-pentanamine, C5H13N, InChI=1S/C5H13N/c1-2-3-4-5-6/h2-6H2,1H3
Compound 7: 1-hexanamine, C6H15N, InChI=1S/C6H15N/c1-2-3-4-5-6-7/h2-7H2,1H3
Compound 8: 1-heptanamine, C7H17N, InChI=1S/C7H17N/c1-2-3-4-5-6-7-8/h2-8H2,1H3
Compound 9: 1-octanamine, C8H19N, InChI=1S/C8H19N/c1-2-3-4-5-6-7-8-9/h2-9H2,1H3
Compound 10: diethylamine, C4H11N, InChI=1S/C4H11N/c1-3-5-4-2/h5H,3-4H2,1-2H3
Compound 11: dipropylamine, C6H15N, InChI=1S/C6H15N/c1-3-5-7-6-4-2/h7H,3-6H2,1-2H3
Compound 12: dibutylamine, C8H19N, InChI=1S/C8H19N/c1-3-5-7-9-8-6-4-2/h9H,3-8H2,1-2H3
Compound 13: piperidine, C5H11N, InChI=1S/C5H11N/c1-2-4-6-5-3-1/h6H,1-5H2
Compound 14: azacycloheptane, C6H13N, InChI=1S/C6H13N/c1-2-4-6-7-5-3-1/h7H,1-6H2
Compound 15: heptamethyleneimine, C7H15N, InChI=1S/C7H15N/c1-2-4-6-8-7-5-3-1/h8H,1-7H2
Compound 16: cyclopentanamine, C5H11N, InChI=1S/C5H11N/c6-5-3-1-2-4-5/h5H,1-4,6H2

System: propan-1-amine + heptane; phases: Gas, Liquid
Property: Mole fraction of heptane (Gas); method: Chromatography
Temperature, K	Mole fraction of heptane	Mole fraction of heptane	uncertainty
298.15	0.0574	0.0204	0.0105
298.15	0.1084	0.0364	0.0104
298.15	0.1936	0.0575	0.0103
298.15	0.3082	0.0832	0.0103
298.15	0.4073	0.1059	0.0104
298.15	0.4729	0.1274	0.0105
298.15	0.569	0.1503	0.0106
298.15	0.6777	0.1891	0.0115
298.15	0.8022	0.2622	0.0151
298.15	0.9213	0.433	0.0256
298.15	0.9611	0.5891	0.0498
298.15	0.9771	0.6956	0.069
303.15	0.0086	0.0033	0.0033
303.15	0.023	0.0085	0.0085
303.15	0.0502	0.0181	0.0105
303.15	0.0536	0.0195	0.0105
303.15	0.1003	0.0339	0.0104
303.15	0.2248	0.0664	0.0103
303.15	0.3355	0.0916	0.0103
303.15	0.4353	0.1149	0.0104
303.15	0.4953	0.132	0.0106
303.15	0.5799	0.1579	0.0109
303.15	0.7023	0.2071	0.012
303.15	0.8308	0.3004	0.0158
303.15	0.9056	0.4184	0.0227

System: 2-propanamine + heptane; phases: Gas, Liquid
Fixed: Temperature, K = 298.15
Property: Mole fraction of heptane (Gas); method: Chromatography
Mole fraction of heptane	Mole fraction of heptane	uncertainty
0.0302	0.0053	0.0053
0.0574	0.0097	0.0097
0.0837	0.0144	0.0101
0.1057	0.0175	0.0101
0.1872	0.0308	0.0101
0.3028	0.045	0.0101
0.4019	0.0592	0.0101
0.4943	0.0738	0.0102
0.5975	0.0952	0.0104
0.7029	0.1253	0.0107
0.7942	0.1614	0.0114
0.8529	0.1998	0.0142
0.9063	0.2684	0.0196
0.9209	0.3153	0.0288
0.9354	0.3439	0.0368
0.9597	0.445	0.0452

System: 1-butanamine + heptane; phases: Gas, Liquid
Fixed: Temperature, K = 298.15
Property: Mole fraction of heptane (Gas); method: Chromatography
Mole fraction of heptane	Mole fraction of heptane	uncertainty
0.0485	0.052	0.0133
0.114	0.1095	0.0128
0.1932	0.1669	0.0122
0.2861	0.2223	0.0122
0.3281	0.2449	0.0124
0.4217	0.2983	0.0133
0.4866	0.3346	0.0141
0.5185	0.3476	0.0146
0.5951	0.3933	0.0164
0.7035	0.4634	0.02
0.7996	0.5455	0.0232
0.8767	0.6509	0.0253
0.9448	0.7869	0.0279
0.9784	0.8916	0.0334

System: heptane + 2-butanamine; phases: Gas, Liquid
Fixed: Temperature, K = 298.15
Property: Mole fraction of heptane (Gas); method: Chromatography
Mole fraction of heptane	Mole fraction of heptane	uncertainty
0.0476	0.0252	0.0112
0.1107	0.0565	0.011
0.1984	0.0934	0.0108
0.3057	0.1341	0.0109
0.4063	0.1749	0.0111
0.499	0.2135	0.0117
0.5009	0.2163	0.0117
0.6055	0.2693	0.0127
0.7076	0.3304	0.0148
0.8063	0.4137	0.0199
0.9048	0.5615	0.0253

System: 1-pentanamine + heptane; phases: Gas, Liquid
Fixed: Temperature, K = 303.15
Property: Mole fraction of heptane (Gas); method: Chromatography
Mole fraction of heptane	Mole fraction of heptane	uncertainty
0.0425	0.1158	0.0231
0.0998	0.2349	0.0191
0.208	0.3807	0.0189
0.304	0.4761	0.0212
0.3968	0.5437	0.0216
0.5202	0.6225	0.0206
0.6701	0.7108	0.0188
0.7944	0.7887	0.017
0.8965	0.8635	0.0155
0.9463	0.9185	0.0158

System: 1-hexanamine + heptane; phases: Gas, Liquid
Fixed: Temperature, K = 303.15
Property: Mole fraction of heptane (Gas); method: Chromatography
Mole fraction of heptane	Mole fraction of heptane	uncertainty
0.0487	0.3258	0.0355
0.0942	0.4764	0.0281
0.205	0.6578	0.0226
0.3162	0.7483	0.0181
0.4104	0.7953	0.0161
0.5028	0.8369	0.0145
0.5113	0.8392	0.0144
0.6093	0.8745	0.0131
0.7047	0.9012	0.0122
0.8025	0.929	0.0115
0.9114	0.9636	0.0108

System: 1-heptanamine + heptane; phases: Gas, Liquid
Fixed: Temperature, K = 303.15
Property: Mole fraction of heptane (Gas); method: Chromatography
Mole fraction of heptane	Mole fraction of heptane	uncertainty
0.0367	0.4897	0.0406
0.1002	0.7133	0.0268
0.2041	0.8391	0.0164
0.2999	0.8869	0.0129
0.4059	0.919	0.0116
0.4961	0.9378	0.011
0.5044	0.9378	0.011
0.6013	0.9534	0.0106
0.6933	0.9646	0.0104
0.8036	0.9773	0.0102
0.8981	0.9876	0.0101
0.9571	0.9948	0.0052

System: 1-octanamine + heptane; phases: Gas, Liquid
Fixed: Temperature, K = 313.15
Property: Mole fraction of heptane (Gas); method: Chromatography
Mole fraction of heptane	Mole fraction of heptane	uncertainty
0.0372	0.6726	0.0307
0.0417	0.7125	0.0273
0.1214	0.8773	0.0177
0.2123	0.9266	0.0118
0.3046	0.9496	0.0107
0.4123	0.9646	0.0104
0.5124	0.9735	0.0102
0.5238	0.9748	0.0102
0.6692	0.9846	0.0101
0.8069	0.991	0.009
0.8111	0.9917	0.0083
0.9038	0.9954	0.0046
0.922	0.9963	0.0037
0.9627	0.9981	0.0019
0.9692	0.9984	0.0016

System: diethylamine + heptane; phases: Gas, Liquid
Fixed: Temperature, K = 298.15
Property: Mole fraction of heptane (Gas); method: Chromatography
Mole fraction of heptane	Mole fraction of heptane	uncertainty
0.025	0.0076	0.0076
0.075	0.0228	0.0104
0.1502	0.0449	0.0105
0.2334	0.0706	0.0105
0.3268	0.101	0.0106
0.4198	0.1328	0.0108
0.505	0.1671	0.0111
0.538	0.1817	0.0116
0.6491	0.2419	0.0131
0.772	0.3449	0.0178
0.8865	0.5196	0.0284
0.9469	0.6949	0.0391
0.9779	0.8439	0.05

System: heptane + dipropylamine; phases: Gas, Liquid
Fixed: Temperature, K = 298.15
Property: Mole fraction of heptane (Gas); method: Chromatography
Mole fraction of heptane	Mole fraction of heptane	uncertainty
0.0422	0.0935	0.0208
0.1277	0.2489	0.0194
0.2316	0.3954	0.0197
0.3432	0.5185	0.0235
0.3545	0.531	0.0234
0.4579	0.6242	0.0214
0.5646	0.709	0.0194
0.6682	0.7813	0.0172
0.7647	0.8461	0.0152
0.8135	0.8772	0.0141
0.8811	0.9202	0.013
0.9482	0.9638	0.0122
0.9719	0.9794	0.0121

System: dibutylamine + heptane; phases: Gas, Liquid
Fixed: Temperature, K = 298.15
Property: Mole fraction of heptane (Gas); method: Chromatography
Mole fraction of heptane	Mole fraction of heptane	uncertainty
0.0519	0.5661	0.0367
0.1125	0.7514	0.0244
0.2116	0.8611	0.0152
0.3195	0.9121	0.0121
0.4379	0.9436	0.0109
0.4988	0.9532	0.0106
0.5009	0.9546	0.0106
0.6053	0.9683	0.0103
0.6982	0.9771	0.0102
0.8032	0.9855	0.0101
0.9049	0.9938	0.0062
0.9426	0.9958	0.0042

System: piperidine + heptane; phases: Gas, Liquid
Fixed: Temperature, K = 303.15
Property: Mole fraction of heptane (Gas); method: Chromatography
Mole fraction of heptane	Mole fraction of heptane	uncertainty
0.0399	0.1194	0.0242
0.0785	0.2043	0.0218
0.1449	0.3217	0.02
0.177	0.3525	0.0173
0.2545	0.4379	0.02
0.2779	0.4504	0.0196
0.362	0.5226	0.022
0.3899	0.532	0.021
0.4002	0.5389	0.0217
0.5287	0.6154	0.0226
0.5457	0.6341	0.0224
0.6523	0.6882	0.0192
0.7081	0.7285	0.0185
0.77	0.7631	0.0178
0.8494	0.8263	0.0162
0.8905	0.8544	0.015

System: azacycloheptane + heptane; phases: Gas, Liquid
Fixed: Temperature, K = 303.15
Property: Mole fraction of heptane (Gas); method: Chromatography
Mole fraction of heptane	Mole fraction of heptane	uncertainty
0.0498	0.3699	0.0337
0.0992	0.521	0.0283
0.2073	0.6857	0.0216
0.3091	0.7578	0.0176
0.4101	0.8079	0.0157
0.4903	0.8439	0.0142
0.4983	0.8455	0.0142
0.5957	0.8768	0.013
0.6869	0.9029	0.0121
0.7997	0.9317	0.0113
0.9102	0.9631	0.0107

System: heptane + heptamethyleneimine; phases: Gas, Liquid
Fixed: Temperature, K = 303.15
Property: Mole fraction of heptane (Gas); method: Chromatography
Mole fraction of heptane	Mole fraction of heptane	uncertainty
0.0511	0.607	0.0288
0.1424	0.797	0.0205
0.2396	0.8653	0.0141
0.3196	0.8938	0.0124
0.4237	0.9195	0.0116
0.4839	0.9332	0.0111
0.5432	0.9399	0.0109
0.6048	0.9509	0.0106
0.7056	0.9631	0.0104
0.7882	0.9724	0.0102
0.8953	0.984	0.0101
0.8988	0.9842	0.0101

System: heptane + cyclopentanamine; phases: Gas, Liquid
Fixed: Temperature, K = 298.15
Property: Mole fraction of heptane (Gas); method: Chromatography
Mole fraction of heptane	Mole fraction of heptane	uncertainty
0.4996	0.6613	0.0194
0.6069	0.7082	0.0185
0.7065	0.7598	0.0172
0.8076	0.8112	0.0159
0.8942	0.8665	0.015
0.9445	0.9162	0.0151
