Measured thermophysical data. Solubility of non-aromatic hexafluorophosphate-based salts and ionic liquids in water determined by electrical conductivity
Source: Fluid Phase Equilib., 2013, 10.1016/j.fluid.2013.07.061
Compound 1: 1-butyl-3-methylimidazolium hexafluorophosphate, C8H15F6N2P, InChI=1S/C8H15N2.F6P/c1-3-4-5-10-7-6-9(2)8-10;1-7(2,3,4,5)6/h6-8H,3-5H2,1-2H3;/q+1;-1, purity 99%
Compound 2: 1-methyl-1-propylpyrrolidinium hexafluorophosphate, C8H18F6NP, InChI=1S/C8H18N.F6P/c1-3-6-9(2)7-4-5-8-9;1-7(2,3,4,5)6/h3-8H2,1-2H3;/q+1;-1, purity 99%
Compound 3: 1-methyl-1-propylpiperidinium hexafluorophosphate, C9H20F6NP, InChI=1S/C9H20N.F6P/c1-3-7-10(2)8-5-4-6-9-10;1-7(2,3,4,5)6/h3-9H2,1-2H3;/q+1;-1, purity 99%
Compound 4: tetrabutylammonium hexafluorophosphate, C16H36F6NP, InChI=1S/C16H36N.F6P/c1-5-9-13-17(14-10-6-2,15-11-7-3)16-12-8-4;1-7(2,3,4,5)6/h5-16H2,1-4H3;/q+1;-1, purity 98%
Compound 5: tetrabutylphosphonium hexafluorophosphate, C16H36F6P2, InChI=1S/C16H36P.F6P/c1-5-9-13-17(14-10-6-2,15-11-7-3)16-12-8-4;1-7(2,3,4,5)6/h5-16H2,1-4H3;/q+1;-1, purity 99%
Compound 6: water, H2O, InChI=1S/H2O/h1H2

System: 1-methyl-1-propylpyrrolidinium hexafluorophosphate; phases: Crystal 3, Crystal 2, Air at 1 atmosphere
Property: Triple point temperature, K (Crystal 3); method: DTA
Triple point temperature, K	uncertainty
348.58	1.33

System: 1-methyl-1-propylpyrrolidinium hexafluorophosphate; phases: Crystal 2, Crystal 1, Air at 1 atmosphere
Property: Triple point temperature, K (Crystal 2); method: DTA
Triple point temperature, K	uncertainty
360.88	1.72

System: 1-methyl-1-propylpyrrolidinium hexafluorophosphate; phases: Crystal 1, Liquid, Air at 1 atmosphere
Property: Normal melting temperature, K (Crystal 1); method: DTA
Normal melting temperature, K	uncertainty
383.6	1.4

System: 1-methyl-1-propylpyrrolidinium hexafluorophosphate; phases: Crystal 1, Liquid, Air at 1 atmosphere
Property: Molar enthalpy of transition or fusion, kJ/mol (Crystal 1); method: DSC
Molar enthalpy of transition or fusion, kJ/mol	uncertainty
3.66	0.32

System: 1-methyl-1-propylpyrrolidinium hexafluorophosphate; phases: Crystal 2, Crystal 1, Air at 1 atmosphere
Property: Molar enthalpy of transition or fusion, kJ/mol (Crystal 2); method: DSC
Molar enthalpy of transition or fusion, kJ/mol	uncertainty
2.3	0.2

System: 1-methyl-1-propylpyrrolidinium hexafluorophosphate; phases: Crystal 3, Crystal 2, Air at 1 atmosphere
Property: Molar enthalpy of transition or fusion, kJ/mol (Crystal 3); method: DSC
Molar enthalpy of transition or fusion, kJ/mol	uncertainty
2.76	0.21

System: 1-methyl-1-propylpiperidinium hexafluorophosphate; phases: Crystal 1, Liquid, Air at 1 atmosphere
Property: Normal melting temperature, K (Crystal 1); method: DTA
Normal melting temperature, K	uncertainty
368.2	0.4

System: 1-methyl-1-propylpiperidinium hexafluorophosphate; phases: Crystal 2, Crystal 1, Air at 1 atmosphere
Property: Triple point temperature, K (Crystal 2); method: DTA
Triple point temperature, K	uncertainty
350.96	0.39

System: 1-methyl-1-propylpiperidinium hexafluorophosphate; phases: Crystal 3, Crystal 2, Air at 1 atmosphere
Property: Triple point temperature, K (Crystal 3); method: DTA
Triple point temperature, K	uncertainty
310.6	0.73

System: 1-methyl-1-propylpiperidinium hexafluorophosphate; phases: Crystal 3, Crystal 2, Air at 1 atmosphere
Property: Molar enthalpy of transition or fusion, kJ/mol (Crystal 3); method: DSC
Molar enthalpy of transition or fusion, kJ/mol	uncertainty
7.89	0.42

System: 1-methyl-1-propylpiperidinium hexafluorophosphate; phases: Crystal 2, Crystal 1, Air at 1 atmosphere
Property: Molar enthalpy of transition or fusion, kJ/mol (Crystal 2); method: DSC
Molar enthalpy of transition or fusion, kJ/mol	uncertainty
2.78	0.14

System: 1-methyl-1-propylpiperidinium hexafluorophosphate; phases: Crystal 1, Liquid, Air at 1 atmosphere
Property: Molar enthalpy of transition or fusion, kJ/mol (Crystal 1); method: DSC
Molar enthalpy of transition or fusion, kJ/mol	uncertainty
5.15	0.19

System: tetrabutylammonium hexafluorophosphate; phases: Crystal 1, Liquid, Air at 1 atmosphere
Property: Normal melting temperature, K (Crystal 1); method: DTA
Normal melting temperature, K	uncertainty
524.3	0.9

System: tetrabutylammonium hexafluorophosphate; phases: Crystal 2, Crystal 1, Air at 1 atmosphere
Property: Triple point temperature, K (Crystal 2); method: DTA
Triple point temperature, K	uncertainty
360.7	0.7

System: tetrabutylammonium hexafluorophosphate; phases: Crystal 3, Crystal 2, Air at 1 atmosphere
Property: Triple point temperature, K (Crystal 3); method: DTA
Triple point temperature, K	uncertainty
303.95	0.39

System: tetrabutylammonium hexafluorophosphate; phases: Crystal 3, Crystal 2, Air at 1 atmosphere
Property: Molar enthalpy of transition or fusion, kJ/mol (Crystal 3); method: DSC
Molar enthalpy of transition or fusion, kJ/mol	uncertainty
2.1	0.22

System: tetrabutylammonium hexafluorophosphate; phases: Crystal 2, Crystal 1, Air at 1 atmosphere
Property: Molar enthalpy of transition or fusion, kJ/mol (Crystal 2); method: DSC
Molar enthalpy of transition or fusion, kJ/mol	uncertainty
2.06	2.32

System: tetrabutylammonium hexafluorophosphate; phases: Crystal 1, Liquid, Air at 1 atmosphere
Property: Molar enthalpy of transition or fusion, kJ/mol (Crystal 1); method: DSC
Molar enthalpy of transition or fusion, kJ/mol	uncertainty
16.41	0.64

System: tetrabutylphosphonium hexafluorophosphate; phases: Crystal 3, Crystal 2, Air at 1 atmosphere
Property: Triple point temperature, K (Crystal 3); method: DTA
Triple point temperature, K	uncertainty
265.37	0.39

System: tetrabutylphosphonium hexafluorophosphate; phases: Crystal 1, Liquid, Air at 1 atmosphere
Property: Normal melting temperature, K (Crystal 1); method: DTA
Normal melting temperature, K	uncertainty
498.6	0.4

System: tetrabutylphosphonium hexafluorophosphate; phases: Crystal 1, Liquid, Air at 1 atmosphere
Property: Molar enthalpy of transition or fusion, kJ/mol (Crystal 1); method: DSC
Molar enthalpy of transition or fusion, kJ/mol	uncertainty
14.67	0.37

System: tetrabutylphosphonium hexafluorophosphate; phases: Crystal 3, Crystal 2, Air at 1 atmosphere
Property: Molar enthalpy of transition or fusion, kJ/mol (Crystal 3); method: DSC
Molar enthalpy of transition or fusion, kJ/mol	uncertainty
1.81	0.14

System: water + 1-butyl-3-methylimidazolium hexafluorophosphate; phases: Liquid mixture 1, Liquid mixture 2
Fixed: Pressure, kPa = 101
Property: Mole fraction of 1-butyl-3-methylimidazolium hexafluorophosphate (Liquid mixture 1); method: Phase equilibration
Temperature, K	Mole fraction of 1-butyl-3-methylimidazolium hexafluorophosphate	uncertainty
288.15	0.00108	5e-05
293.15	0.00115	5e-05
298.15	0.00122	5e-05
303.15	0.00141	9e-05
308.15	0.00161	5e-05
313.15	0.00177	6e-05
318.15	0.00202	6e-05

System: water + 1-methyl-1-propylpyrrolidinium hexafluorophosphate; phases: Liquid mixture 1, Liquid mixture 2
Fixed: Pressure, kPa = 101
Property: Mole fraction of 1-methyl-1-propylpyrrolidinium hexafluorophosphate (Liquid mixture 1); method: Phase equilibration
Temperature, K	Mole fraction of 1-methyl-1-propylpyrrolidinium hexafluorophosphate	uncertainty
288.15	0.00128	5e-05
293.15	0.00136	5e-05
298.15	0.00157	0.00012
303.15	0.00182	6e-05
308.15	0.00219	9e-05
313.15	0.00281	7e-05
318.15	0.0031	0.0001

System: 1-methyl-1-propylpiperidinium hexafluorophosphate + water; phases: Liquid mixture 1, Liquid mixture 2
Fixed: Pressure, kPa = 101
Property: Mole fraction of 1-methyl-1-propylpiperidinium hexafluorophosphate (Liquid mixture 1); method: Phase equilibration
Temperature, K	Mole fraction of 1-methyl-1-propylpiperidinium hexafluorophosphate	uncertainty
288.15	0.000936	2.2e-05
293.15	0.000985	3.2e-05
298.15	0.00109	2.8e-05
303.15	0.001337	3.1e-05
308.15	0.001562	4.6e-05
313.15	0.001787	5e-05
318.15	0.002133	6.6e-05

System: tetrabutylammonium hexafluorophosphate + water; phases: Liquid mixture 1, Liquid mixture 2
Fixed: Pressure, kPa = 101
Property: Mole fraction of tetrabutylammonium hexafluorophosphate (Liquid mixture 1); method: Phase equilibration
Temperature, K	Mole fraction of tetrabutylammonium hexafluorophosphate	uncertainty
288.15	2.24e-05	5.2e-06
293.15	2.43e-05	1e-06
298.15	2.6e-05	4e-06
303.15	2.82e-05	4e-06
308.15	3.07e-05	2.1e-06
313.15	3.26e-05	4.8e-06
318.15	3.4e-05	3e-06

System: water + tetrabutylphosphonium hexafluorophosphate; phases: Liquid mixture 1, Liquid mixture 2
Fixed: Pressure, kPa = 101
Property: Mole fraction of tetrabutylphosphonium hexafluorophosphate (Liquid mixture 1); method: Phase equilibration
Temperature, K	Mole fraction of tetrabutylphosphonium hexafluorophosphate	uncertainty
288.15	1.71e-05	3.2e-06
293.15	1.8e-05	6e-07
298.15	1.85e-05	1.3e-06
303.15	1.94e-05	9e-07
308.15	2.11e-05	4.8e-06
313.15	2.24e-05	1.7e-06
318.15	2.38e-05	2.8e-06
