Measured thermophysical data. Solubility of hydrogen in toluene for the ternary system H2 +CO2 + toluene from 305 to 343K and 1.2 to 10.5MPa
Source: Fluid Phase Equilib., 2006, 10.1016/j.fluid.2006.01.013
Compound 1: toluene, C7H8, InChI=1S/C7H8/c1-7-5-3-2-4-6-7/h2-6H,1H3, purity 99.8%
Compound 2: carbon dioxide, CO2, InChI=1S/CO2/c2-1-3, purity 99.5%
Compound 3: hydrogen, H2, InChI=1S/H2/h1H, purity 99.98%

System: toluene + hydrogen; phases: Liquid, Gas
Property: Mole fraction of hydrogen (Liquid); method: Phase equilibration
Temperature, K	Pressure, kPa	Mole fraction of hydrogen	uncertainty
305	1483	0.005	0.001
305	2897	0.009	0.001
305	4138	0.013	0.001
305	5517	0.017	0.001
305	6897	0.02	0.001
323	1724	0.006	0.001
323	3103	0.011	0.001
323	4483	0.015	0.001
323	5724	0.018	0.001
323	7097	0.023	0.001
343	1724	0.006	0.001
343	2938	0.01	0.001
343	4138	0.014	0.001
343	4552	0.015	0.001
343	5517	0.019	0.001
343	7131	0.025	0.001

System: toluene + carbon dioxide + hydrogen; phases: Gas, Liquid
Property: Mole fraction of hydrogen (Gas); method: Chromatography
Property: Mole fraction of hydrogen (Liquid); method: Chromatography
Property: Mole fraction of carbon dioxide (Liquid); method: Chromatography
Temperature, K	Pressure, kPa	Mole fraction of carbon dioxide	Mole fraction of hydrogen	uncertainty	Mole fraction of hydrogen	uncertainty	Mole fraction of carbon dioxide	uncertainty
305	1379	0.36	0.638	0.019	0.003	0.001	0.049	
305	2069	0.356	0.646	0.02	0.005	0.001	0.072	
305	2966	0.352	0.644	0.02	0.007	0.001	0.099	
305	3572	0.351	0.649	0.02	0.009	0.001	0.117	
305	4207	0.352	0.649	0.02	0.011	0.001	0.135	
305	4897	0.354	0.65	0.02	0.013	0.001	0.154	
305	5517	0.347	0.65	0.02	0.014	0.001	0.171	
305	6207	0.347	0.65	0.02	0.016	0.001	0.188	
305	6897	0.341	0.65	0.02	0.018	0.001	0.204	
305	7586	0.348	0.65	0.02	0.02	0.001	0.22	
305	8414	0.348	0.651	0.02	0.022	0.001	0.238	
305	9241	0.344	0.656	0.02	0.025	0.001	0.255	
305	9910	0.344	0.654	0.02	0.026	0.001	0.267	
305	10241	0.341	0.659	0.02	0.027	0.001	0.273	
323	1379	0.358	0.637	0.019	0.003	0.001	0.04	
323	2759	0.354	0.64	0.019	0.007	0.001	0.075	
323	4338	0.354	0.642	0.02	0.012	0.001	0.113	
323	4945	0.348	0.647	0.02	0.014	0.001	0.126	
323	5655	0.342	0.648	0.02	0.016	0.001	0.141	
323	6207	0.348	0.648	0.02	0.018	0.001	0.152	
323	6897	0.348	0.648	0.02	0.02	0.001	0.166	
323	7586	0.348	0.648	0.02	0.022	0.001	0.179	
323	8090	0.344	0.648	0.02	0.024	0.001	0.188	
323	8966	0.348	0.648	0.02	0.026	0.001	0.204	
323	9455	0.344	0.653	0.02	0.028	0.001	0.212	
323	9897	0.342	0.655	0.02	0.029	0.001	0.219	
343	1228	0.356	0.633	0.019	0.003	0.001	0.052	
343	2069	0.353	0.639	0.019	0.006	0.001	0.065	
343	2807	0.347	0.642	0.02	0.008	0.001	0.076	
343	3241	0.347	0.645	0.02	0.01	0.001	0.083	
343	4090	0.347	0.645	0.02	0.012	0.001	0.095	
343	4517	0.347	0.645	0.02	0.014	0.001	0.102	
343	5517	0.347	0.645	0.02	0.017	0.001	0.117	
343	6207	0.347	0.645	0.02	0.02	0.001	0.127	
343	7483	0.343	0.646	0.02	0.024	0.001	0.146	
343	8855	0.342	0.653	0.02	0.029	0.001	0.167	
343	10352	0.34	0.655	0.02	0.034	0.001	0.189	
305	3448	0.199	0.799	0.024	0.01	0.001	0.065	
305	4828	0.199	0.799	0.024	0.014	0.001	0.088	
305	6207	0.199	0.8	0.024	0.018	0.001	0.108	
305	7586	0.199	0.8	0.024	0.022	0.001	0.127	
305	8966	0.199	0.8	0.024	0.026	0.001	0.144	
305	10345	0.198	0.8	0.024	0.03	0.001	0.16	
323	3448	0.199	0.797	0.024	0.009	0.001	0.051	
323	4828	0.199	0.797	0.024	0.016	0.001	0.071	
323	6207	0.199	0.798	0.024	0.02	0.001	0.088	
323	7586	0.199	0.798	0.024	0.025	0.001	0.103	
323	8966	0.199	0.799	0.024	0.029	0.001	0.118	
323	10345	0.199	0.799	0.024	0.034	0.001	0.131	
343	3448	0.197	0.792	0.024	0.013	0.001	0.043	
343	4828	0.197	0.795	0.024	0.018	0.001	0.058	
343	6207	0.197	0.796	0.024	0.023	0.001	0.072	
343	7586	0.196	0.795	0.024	0.028	0.001	0.086	
343	8966	0.199	0.796	0.024	0.033	0.001	0.098	
343	10345	0.199	0.796	0.024	0.038	0.001	0.11	
305	1655	0.047	0.95	0.029	0.006	0.001	0.01	
305	3021	0.047	0.951	0.029	0.01	0.001	0.014	
305	4690	0.047	0.952	0.029	0.016	0.001	0.02	
305	5724	0.046	0.952	0.029	0.019	0.001	0.023	
305	7586	0.046	0.953	0.029	0.025	0.001	0.029	
305	10207	0.046	0.954	0.029	0.033	0.001	0.038	
323	1655	0.047	0.945	0.028	0.007	0.001	0.008	
323	3021	0.047	0.948	0.028	0.012	0.001	0.011	
323	4690	0.047	0.95	0.029	0.018	0.001	0.016	
323	5724	0.047	0.951	0.029	0.021	0.001	0.019	
323	7586	0.046	0.951	0.029	0.028	0.001	0.024	
323	10207	0.046	0.952	0.029	0.037	0.001	0.031	
343	1655	0.047	0.936	0.028	0.007	0.001	0.006	
343	3021	0.047	0.942	0.028	0.013	0.001	0.009	
343	4690	0.047	0.946	0.028	0.02	0.001	0.013	
343	5724	0.047	0.947	0.028	0.024	0.001	0.016	
343	7586	0.046	0.948	0.028	0.032	0.001	0.02	
343	10207	0.046	0.95	0.029	0.042	0.001	0.026	
