Measured thermophysical data. Solubility of erythritol in methanol, ethanol and methanol + ethanol: Experimental measurement and thermodynamic modeling
Source: Fluid Phase Equilib., 2013, 10.1016/j.fluid.2013.09.027
Compound 1: meso-1,2,3,4-butanetetrol, C4H10O4, InChI=1S/C4H10O4/c5-1-3(7)4(8)2-6/h3-8H,1-2H2/t3-,4+, purity 99%
Compound 2: methanol, CH4O, InChI=1S/CH4O/c1-2/h2H,1H3, purity 98%
Compound 3: ethanol, C2H6O, InChI=1S/C2H6O/c1-2-3/h3H,2H2,1H3, purity 98%

System: ethanol + methanol + meso-1,2,3,4-butanetetrol; phases: Liquid, Crystal
Fixed: Pressure, kPa = 101
Property: Mole fraction of meso-1,2,3,4-butanetetrol (Liquid); method: Gravimetric Method
Temperature, K	Solvent: Mass fraction of methanol	Mole fraction of meso-1,2,3,4-butanetetrol	uncertainty
283.15	0.15	0.00178	1.3e-05
288.15	0.15	0.002357	1.3e-05
293.15	0.15	0.002843	1.4e-05
298.15	0.15	0.00352	1.9e-05
303.15	0.15	0.004445	2.4e-05
308.15	0.15	0.00552	3e-05
313.15	0.15	0.006906	3.6e-05
318.15	0.15	0.008478	4.3e-05
323.15	0.15	0.01037	5e-05
328.15	0.15	0.01277	7e-05
333.15	0.15	0.01565	7e-05
283.15	0.3	0.002111	1.6e-05
288.15	0.3	0.002838	1.5e-05
293.15	0.3	0.003369	1.7e-05
298.15	0.3	0.00425	2.3e-05
303.15	0.3	0.00523	2.7e-05
308.15	0.3	0.006458	3.4e-05
313.15	0.3	0.007967	4.2e-05
318.15	0.3	0.009892	5e-05
323.15	0.3	0.01203	6e-05
328.15	0.3	0.01469	7e-05
333.15	0.3	0.01805	8e-05
283.15	0.45	0.00236	1.4e-05
288.15	0.45	0.002968	1.6e-05
293.15	0.45	0.003721	2e-05
298.15	0.45	0.00463	2.5e-05
303.15	0.45	0.005777	3e-05
308.15	0.45	0.007138	3.7e-05
313.15	0.45	0.008788	4.6e-05
318.15	0.45	0.01086	6e-05
323.15	0.45	0.0132	7e-05
328.15	0.45	0.01616	8e-05
333.15	0.45	0.01973	9e-05
283.15	0.6	0.002548	1.6e-05
288.15	0.6	0.003222	1.8e-05
293.15	0.6	0.00405	2.1e-05
298.15	0.6	0.004986	2.6e-05
303.15	0.6	0.006195	3.3e-05
308.15	0.6	0.007664	3.9e-05
313.15	0.6	0.009406	4.7e-05
318.15	0.6	0.01148	6e-05
323.15	0.6	0.014	7e-05
328.15	0.6	0.01715	8e-05
333.15	0.6	0.02073	0.0001
283.15	0.75	0.002682	1.8e-05
288.15	0.75	0.003477	2e-05
293.15	0.75	0.004353	2.3e-05
298.15	0.75	0.005421	2.9e-05
303.15	0.75	0.006717	3.5e-05
308.15	0.75	0.008288	4.3e-05
313.15	0.75	0.01022	5e-05
318.15	0.75	0.01253	6e-05
323.15	0.75	0.01533	8e-05
328.15	0.75	0.01871	9e-05
333.15	0.75	0.02292	0.00011
283.15	0.9	0.002777	1.8e-05
288.15	0.9	0.003593	2.1e-05
293.15	0.9	0.004613	2.6e-05
298.15	0.9	0.005776	3.1e-05
303.15	0.9	0.007195	3.8e-05
308.15	0.9	0.008922	4.6e-05
313.15	0.9	0.01094	6e-05
318.15	0.9	0.01357	7e-05
323.15	0.9	0.01668	9e-05
328.15	0.9	0.02042	0.00011
333.15	0.9	0.0252	0.00012

System: ethanol + meso-1,2,3,4-butanetetrol; phases: Liquid, Crystal
Fixed: Pressure, kPa = 101
Property: Mole fraction of meso-1,2,3,4-butanetetrol (Liquid); method: Gravimetric Method
Temperature, K	Mole fraction of meso-1,2,3,4-butanetetrol	uncertainty
283.15	0.001664	8e-06
288.15	0.001996	9e-06
293.15	0.00237	1.2e-05
298.15	0.00293	1.3e-05
303.15	0.003378	1.5e-05
308.15	0.004007	1.8e-05
313.15	0.004748	2.2e-05
318.15	0.005624	2.6e-05
323.15	0.00671	3.1e-05
328.15	0.00792	3.6e-05
333.15	0.009404	4.1e-05

System: methanol + meso-1,2,3,4-butanetetrol; phases: Liquid, Crystal
Fixed: Pressure, kPa = 101
Property: Mole fraction of meso-1,2,3,4-butanetetrol (Liquid); method: Gravimetric Method
Temperature, K	Mole fraction of meso-1,2,3,4-butanetetrol	uncertainty
283.15	0.003847	2.2e-05
288.15	0.004787	2.4e-05
293.15	0.00572	3e-05
298.15	0.007293	3.9e-05
303.15	0.008939	4.5e-05
308.15	0.01092	5e-05
313.15	0.01329	7e-05
318.15	0.01614	8e-05
323.15	0.01958	0.0001
328.15	0.02373	0.00012
333.15	0.02877	0.00013
