Measured thermophysical data. Vapor liquid equilibria for nitrogen with 2-hexanol, 2-heptanol, or 2-octanol binary systems
Source: Fluid Phase Equilib., 2006, 10.1016/j.fluid.2006.08.005
Compound 1: nitrogen, N2, InChI=1S/N2/c1-2
Compound 2: 2-hexanol, C6H14O, InChI=1S/C6H14O/c1-3-4-5-6(2)7/h6-7H,3-5H2,1-2H3
Compound 3: 2-heptanol, C7H16O, InChI=1S/C7H16O/c1-3-4-5-6-7(2)8/h7-8H,3-6H2,1-2H3
Compound 4: 2-octanol, C8H18O, InChI=1S/C8H18O/c1-3-4-5-6-7-8(2)9/h8-9H,3-7H2,1-2H3

System: 2-hexanol + nitrogen; phases: Liquid, Gas
Property: Vapor or sublimation pressure, kPa (Liquid); method: Ebulliometric method (Recirculating still)
Mole fraction of nitrogen	Temperature, K	Vapor or sublimation pressure, kPa	uncertainty
0.012	333.15	2000	80
0.0137	363.15	2000	90
0.0153	393.15	2000	80
0.0182	333.15	3000	120
0.02	363.15	3000	120
0.0233	393.15	3000	130
0.0244	333.15	4000	170
0.0274	363.15	4000	160
0.0298	333.15	5000	230
0.0302	393.15	4000	170
0.0341	363.15	5000	220
0.035	333.15	6000	250
0.0376	393.15	5000	200
0.0399	363.15	6000	300
0.0409	333.15	7000	290
0.0446	363.15	7000	290
0.0454	393.15	6000	240
0.0464	333.15	8000	390
0.0503	333.15	9000	390
0.0522	363.15	8000	290
0.053	393.15	7000	310
0.0567	333.15	10000	360
0.0589	393.15	8000	330
0.0593	363.15	9000	380
0.0646	363.15	10000	490
0.0671	393.15	9000	360
0.0741	393.15	10000	430

System: 2-hexanol + nitrogen; phases: Gas, Liquid
Property: Mole fraction of 2-hexanol (Gas); method: Chromatography
Mole fraction of nitrogen	Temperature, K	Mole fraction of 2-hexanol	uncertainty
0.012	333.15	0.00234	0.0001
0.0137	363.15	0.00976	0.00079
0.0153	393.15	0.0332	0.0015
0.0182	333.15	0.00185	9e-05
0.02	363.15	0.00722	0.00035
0.0233	393.15	0.0238	0.0013
0.0244	333.15	0.00163	7e-05
0.0274	363.15	0.00607	0.00025
0.0298	333.15	0.00153	7e-05
0.0302	393.15	0.0196	0.001
0.0341	363.15	0.00536	0.00022
0.035	333.15	0.00145	6e-05
0.0376	393.15	0.0164	0.0008
0.0399	363.15	0.00479	0.00025
0.0409	333.15	0.0014	6e-05
0.0446	363.15	0.00458	0.00019
0.0454	393.15	0.0152	0.0007
0.0464	333.15	0.00132	6e-05
0.0503	333.15	0.0013	5e-05
0.0522	363.15	0.00432	0.0002
0.053	393.15	0.0141	0.0007
0.0567	333.15	0.00129	5e-05
0.0589	393.15	0.013	0.0006
0.0593	363.15	0.00411	0.00023
0.0646	363.15	0.004	0.00017
0.0671	393.15	0.0122	0.0005
0.0741	393.15	0.0121	0.0005

System: 2-heptanol + nitrogen; phases: Liquid, Gas
Property: Vapor or sublimation pressure, kPa (Liquid); method: Ebulliometric method (Recirculating still)
Mole fraction of nitrogen	Temperature, K	Vapor or sublimation pressure, kPa	uncertainty
0.0127	333.15	2000	80
0.0146	363.15	2000	90
0.0158	393.15	2000	80
0.0189	333.15	3000	130
0.0211	363.15	3000	130
0.024	393.15	3000	120
0.0241	333.15	4000	180
0.0274	363.15	4000	170
0.03	333.15	5000	200
0.0316	393.15	4000	180
0.0341	363.15	5000	210
0.0362	333.15	6000	270
0.0384	393.15	5000	190
0.0406	363.15	6000	260
0.0408	333.15	7000	300
0.0466	363.15	7000	250
0.0472	333.15	8000	300
0.0482	393.15	6000	250
0.0536	333.15	9000	330
0.0536	393.15	7000	290
0.0555	363.15	8000	320
0.0602	363.15	9000	370
0.0605	333.15	10000	360
0.0627	393.15	8000	290
0.0682	363.15	10000	350
0.071	393.15	9000	430
0.0755	393.15	10000	670

System: 2-heptanol + nitrogen; phases: Gas, Liquid
Property: Mole fraction of 2-heptanol (Gas); method: Chromatography
Mole fraction of nitrogen	Temperature, K	Mole fraction of 2-heptanol	uncertainty
0.0127	333.15	0.00117	5e-05
0.0146	363.15	0.00466	0.00038
0.0158	393.15	0.0158	0.0007
0.0189	333.15	0.00099	4e-05
0.0211	363.15	0.00353	0.00018
0.024	393.15	0.0115	0.0006
0.0241	333.15	0.00094	4e-05
0.0274	363.15	0.00291	0.00016
0.03	333.15	0.00092	4e-05
0.0316	393.15	0.00941	0.00048
0.0341	363.15	0.00262	0.00012
0.0362	333.15	0.00081	4e-05
0.0384	393.15	0.0082	0.00038
0.0406	363.15	0.00251	0.00013
0.0408	333.15	0.00081	3e-05
0.0466	363.15	0.00233	0.0001
0.0472	333.15	0.0008	3e-05
0.0482	393.15	0.00746	0.00034
0.0536	333.15	0.00079	3e-05
0.0536	393.15	0.00699	0.00031
0.0555	363.15	0.00227	0.0001
0.0602	363.15	0.00223	9e-05
0.0605	333.15	0.00079	3e-05
0.0627	393.15	0.00658	0.00028
0.0682	363.15	0.00212	9e-05
0.071	393.15	0.00636	0.00027
0.0755	393.15	0.00623	0.00027

System: 2-octanol + nitrogen; phases: Liquid, Gas
Property: Vapor or sublimation pressure, kPa (Liquid); method: Ebulliometric method (Recirculating still)
Mole fraction of nitrogen	Temperature, K	Vapor or sublimation pressure, kPa	uncertainty
0.0132	333.15	2000	80
0.0151	363.15	2000	80
0.0172	393.15	2000	80
0.0199	333.15	3000	120
0.0229	363.15	3000	120
0.0258	393.15	3000	120
0.0269	333.15	4000	150
0.0305	363.15	4000	170
0.0342	333.15	5000	210
0.0342	393.15	4000	160
0.0374	363.15	5000	210
0.04	333.15	6000	260
0.0427	393.15	5000	210
0.0447	363.15	6000	250
0.0467	333.15	7000	290
0.0503	393.15	6000	260
0.0518	363.15	7000	300
0.0531	333.15	8000	360
0.0582	393.15	7000	280
0.0585	333.15	9000	410
0.0587	363.15	8000	360
0.0645	333.15	10000	430
0.0651	363.15	9000	390
0.067	393.15	8000	330
0.0723	363.15	10000	410
0.0743	393.15	9000	390
0.0822	393.15	10000	420

System: 2-octanol + nitrogen; phases: Gas, Liquid
Property: Mole fraction of 2-octanol (Gas); method: Chromatography
Mole fraction of nitrogen	Temperature, K	Mole fraction of 2-octanol	uncertainty
0.0132	333.15	0.000325	1.5e-05
0.0151	363.15	0.00181	0.0002
0.0172	393.15	0.00895	0.00041
0.0199	333.15	0.000246	1.2e-05
0.0229	363.15	0.00126	7e-05
0.0258	393.15	0.00656	0.00035
0.0269	333.15	0.000221	1e-05
0.0305	363.15	0.00105	5e-05
0.0342	333.15	0.00021	9e-06
0.0342	393.15	0.00536	0.00027
0.0374	363.15	0.00096	5e-05
0.04	333.15	0.000205	9e-06
0.0427	393.15	0.00459	0.00022
0.0447	363.15	0.00091	4e-05
0.0467	333.15	0.0002	8e-06
0.0503	393.15	0.00421	0.0002
0.0518	363.15	0.00088	4e-05
0.0531	333.15	0.000194	8e-06
0.0582	393.15	0.00381	0.00018
0.0585	333.15	0.000192	8e-06
0.0587	363.15	0.00085	4e-05
0.0645	333.15	0.000186	8e-06
0.0651	363.15	0.00083	4e-05
0.067	393.15	0.00358	0.00016
0.0723	363.15	0.00082	3e-05
0.0743	393.15	0.00347	0.00015
0.0822	393.15	0.00342	0.00014
