Measured thermophysical data. Deuterium isotope effects in liquid liquid phase diagrams of aniline + cyclohexane mixtures
Source: Fluid Phase Equilib., 2005, 10.1016/j.fluid.2005.10.002
Compound 1: aniline, C6H7N, InChI=1S/C6H7N/c7-6-4-2-1-3-5-6/h1-5H,7H2
Compound 2: N,N-dideuteroaniline, C6H5D2N, InChI=1S/C6H7N/c7-6-4-2-1-3-5-6/h1-5H,7H2/i/hD2
Compound 3: aniline-2,3,4,5,6-d5, C6H2D5N, InChI=1S/C6H7N/c7-6-4-2-1-3-5-6/h1-5H,7H2/i1D,2D,3D,4D,5D
Compound 4: cyclohexane, C6H12, InChI=1S/C6H12/c1-2-4-6-5-3-1/h1-6H2
Compound 5: cyclohexane-d12, C6D12, InChI=1S/C6H12/c1-2-4-6-5-3-1/h1-6H2/i1D2,2D2,3D2,4D2,5D2,6D2

System: aniline + cyclohexane; phases: Liquid mixture 1, Liquid mixture 2
Fixed: Pressure, kPa = 101.3
Property: Liquid-liquid equilibrium temperature, K (Liquid mixture 1); method: VISOBS
Mole fraction of aniline	Liquid-liquid equilibrium temperature, K	uncertainty
0.125	288.09	0.16
0.144	291.18	0.16
0.165	293.46	0.16
0.184	295.42	0.16
0.205	296.98	0.16
0.227	298.39	0.16
0.245	299.43	0.16
0.264	300.22	0.16
0.284	301.01	0.16
0.304	301.63	0.16
0.326	302.29	0.16
0.345	302.7	0.16
0.366	302.89	0.16
0.386	302.98	0.16
0.405	303.09	0.16
0.427	303.15	0.16
0.447	303.15	0.16
0.452	303.14	0.16
0.466	303.15	0.16
0.483	303.14	0.16
0.486	303.14	0.16
0.508	303.14	0.16
0.525	303.11	0.16
0.543	303.06	0.16
0.562	302.97	0.16
0.585	302.78	0.16
0.605	302.51	0.16
0.619	302.26	0.16
0.639	301.94	0.16
0.658	301.5	0.16
0.676	300.77	0.16
0.699	299.59	0.16
0.721	298.46	0.16
0.734	296.83	0.16
0.754	295.06	0.16
0.777	292.66	0.16
0.792	288.76	0.16

System: cyclohexane + N,N-dideuteroaniline; phases: Liquid mixture 1, Liquid mixture 2
Fixed: Pressure, kPa = 101.3
Property: Liquid-liquid equilibrium temperature, K (Liquid mixture 1); method: VISOBS
Mole fraction of N,N-dideuteroaniline	Liquid-liquid equilibrium temperature, K	uncertainty
0.121	287.78	0.16
0.141	290.73	0.16
0.162	293.33	0.16
0.183	295.5	0.16
0.203	297.31	0.16
0.223	298.68	0.16
0.242	299.84	0.16
0.262	300.76	0.16
0.282	301.63	0.16
0.301	302.24	0.16
0.322	302.79	0.16
0.342	303.3	0.16
0.361	303.65	0.16
0.377	303.84	0.16
0.395	303.87	0.16
0.413	303.94	0.16
0.433	303.96	0.16
0.45	303.96	0.16
0.472	303.95	0.16
0.494	303.94	0.16
0.512	303.93	0.16
0.534	303.84	0.16
0.557	303.73	0.16
0.58	303.63	0.16
0.6	303.34	0.16
0.622	303.22	0.16
0.64	302.83	0.16
0.658	302.3	0.16
0.673	301.58	0.16
0.694	300.73	0.16
0.71	299.59	0.16
0.727	298.49	0.16
0.752	296.57	0.16
0.769	294.54	0.16
0.791	291.34	0.16
0.803	287.65	0.16

System: aniline + cyclohexane-d12; phases: Liquid mixture 1, Liquid mixture 2
Fixed: Pressure, kPa = 101.3
Property: Liquid-liquid equilibrium temperature, K (Liquid mixture 1); method: VISOBS
Mole fraction of aniline	Liquid-liquid equilibrium temperature, K	uncertainty
0.124	290.35	0.16
0.144	292.74	0.16
0.165	294.7	0.16
0.186	296.35	0.16
0.206	297.91	0.16
0.227	299.43	0.16
0.247	300.42	0.16
0.267	301.44	0.16
0.287	302.32	0.16
0.307	302.97	0.16
0.326	303.51	0.16
0.347	303.92	0.16
0.366	304.13	0.16
0.387	304.3	0.16
0.408	304.42	0.16
0.427	304.45	0.16
0.447	304.44	0.16
0.466	304.43	0.16
0.484	304.44	0.16
0.504	304.44	0.16
0.524	304.45	0.16
0.544	304.37	0.16
0.564	304.35	0.16
0.585	304.26	0.16
0.606	304.04	0.16
0.626	303.76	0.16
0.644	303.27	0.16
0.667	302.36	0.16
0.686	301.38	0.16
0.705	300.01	0.16
0.721	298.41	0.16
0.742	296.42	0.16
0.761	293.8	0.16
0.783	290.07	0.16
0.797	286.46	0.16

System: N,N-dideuteroaniline + cyclohexane-d12; phases: Liquid mixture 1, Liquid mixture 2
Fixed: Pressure, kPa = 101.3
Property: Liquid-liquid equilibrium temperature, K (Liquid mixture 1); method: VISOBS
Mole fraction of N,N-dideuteroaniline	Liquid-liquid equilibrium temperature, K	uncertainty
0.147	288.32	0.16
0.167	291.26	0.16
0.188	294.26	0.16
0.208	296.61	0.16
0.229	298.47	0.16
0.249	300.17	0.16
0.269	301.35	0.16
0.29	302.52	0.16
0.316	303.48	0.16
0.336	304.03	0.16
0.357	304.46	0.16
0.375	304.82	0.16
0.395	304.97	0.16
0.416	304.97	0.16
0.435	305.06	0.16
0.454	305.06	0.16
0.472	305.06	0.16
0.493	305.06	0.16
0.512	305	0.16
0.534	304.81	0.16
0.553	304.65	0.16
0.571	304.4	0.16
0.591	304.1	0.16
0.611	303.88	0.16
0.631	303.53	0.16
0.651	303	0.16
0.675	302.21	0.16
0.691	301.43	0.16
0.716	300.18	0.16
0.739	298.5	0.16
0.755	297.41	0.16
0.778	295.37	0.16
0.802	292.58	0.16
0.826	289.53	0.16

System: cyclohexane + aniline-2,3,4,5,6-d5; phases: Liquid mixture 1, Liquid mixture 2
Fixed: Pressure, kPa = 101.3
Property: Liquid-liquid equilibrium temperature, K (Liquid mixture 1); method: VISOBS
Mole fraction of aniline-2,3,4,5,6-d5	Liquid-liquid equilibrium temperature, K	uncertainty
0.129	289.98	0.16
0.158	294.63	0.16
0.182	297.3	0.16
0.22	300.2	0.16
0.278	302.58	0.16
0.327	303.64	0.16
0.374	304.16	0.16
0.409	304.34	0.16
0.458	304.4	0.16
0.486	304.36	0.16
0.532	304.35	0.16
0.574	304.12	0.16
0.61	303.7	0.16
0.655	302.85	0.16
0.696	301.52	0.16
0.722	300.22	0.16
0.771	296.99	0.16
0.804	293.73	0.16
0.813	292.68	0.16
0.83	289.93	0.16

System: cyclohexane-d12 + aniline-2,3,4,5,6-d5; phases: Liquid mixture 1, Liquid mixture 2
Fixed: Pressure, kPa = 101.3
Property: Liquid-liquid equilibrium temperature, K (Liquid mixture 1); method: VISOBS
Mole fraction of aniline-2,3,4,5,6-d5	Liquid-liquid equilibrium temperature, K	uncertainty
0.117	289.79	0.16
0.153	293.64	0.16
0.176	296.52	0.16
0.232	300.28	0.16
0.283	302.09	0.16
0.324	302.88	0.16
0.373	303.35	0.16
0.406	303.53	0.16
0.454	303.57	0.16
0.464	303.57	0.16
0.491	303.56	0.16
0.534	303.43	0.16
0.577	303.14	0.16
0.617	302.64	0.16
0.653	301.76	0.16
0.693	300.5	0.16
0.73	298.67	0.16
0.764	296.14	0.16
0.798	293.06	0.16
0.832	288.95	0.16
