Measured thermophysical data. Phase equilibria of mixtures of mutually immiscible ionic liquids
Source: Fluid Phase Equilib., 2007, 10.1016/j.fluid.2007.06.017
Compound 1: 1-ethylpyridinium bis[(trifluoromethyl)sulfonyl]imide, C9H10F6N2O4S2, InChI=1S/C7H10N.C2F6NO4S2/c1-2-8-6-4-3-5-7-8;3-1(4,5)14(10,11)9-15(12,13)2(6,7)8/h3-7H,2H2,1H3;/q+1;-1
Compound 2: 1-ethyl-3-methylimidazolium bis((trifluoromethyl)sulfonyl)imide, C8H11F6N3O4S2, InChI=1S/C6H11N2.C2F6NO4S2/c1-3-8-5-4-7(2)6-8;3-1(4,5)14(10,11)9-15(12,13)2(6,7)8/h4-6H,3H2,1-2H3;/q+1;-1
Compound 3: 1-butyl-3-methylimidazolium bis(trifluoromethylsulfonyl)imide, C10H15F6N3O4S2, InChI=1S/C8H15N2.C2F6NO4S2/c1-3-4-5-10-7-6-9(2)8-10;3-1(4,5)14(10,11)9-15(12,13)2(6,7)8/h6-8H,3-5H2,1-2H3;/q+1;-1
Compound 4: trihexyl(tetradecyl)phosphonium bis[(trifluoromethyl)sulfonyl]imide, C34H68F6NO4PS2, InChI=1S/C32H68P.C2F6NO4S2/c1-5-9-13-17-18-19-20-21-22-23-24-28-32-33(29-25-14-10-6-2,30-26-15-11-7-3)31-27-16-12-8-4;3-1(4,5)14(10,11)9-15(12,13)2(6,7)8/h5-32H2,1-4H3;/q+1;-1

System: trihexyl(tetradecyl)phosphonium bis[(trifluoromethyl)sulfonyl]imide; phases: Crystal, Liquid, Air at 1 atmosphere
Property: Normal melting temperature, K (Crystal); method: DTA
Normal melting temperature, K	uncertainty
306.15	1

System: trihexyl(tetradecyl)phosphonium bis[(trifluoromethyl)sulfonyl]imide + 1-ethylpyridinium bis[(trifluoromethyl)sulfonyl]imide; phases: Liquid mixture 1, Liquid mixture 2
Fixed: Pressure, kPa = 101.3
Property: Mole fraction of 1-ethylpyridinium bis[(trifluoromethyl)sulfonyl]imide (Liquid mixture 1); method: OTHER
Temperature, K	Mole fraction of 1-ethylpyridinium bis[(trifluoromethyl)sulfonyl]imide	uncertainty
298.15	0.274	0.021
318.15	0.298	0.021
338.15	0.324	0.021
358.15	0.391	0.022
378.15	0.474	0.022
388.15	0.568	0.022
398.15	0.624	0.022
408.15	0.713	0.021

System: trihexyl(tetradecyl)phosphonium bis[(trifluoromethyl)sulfonyl]imide + 1-ethylpyridinium bis[(trifluoromethyl)sulfonyl]imide; phases: Liquid mixture 2, Liquid mixture 1
Fixed: Pressure, kPa = 101.3
Property: Mole fraction of 1-ethylpyridinium bis[(trifluoromethyl)sulfonyl]imide (Liquid mixture 2); method: OTHER
Temperature, K	Mole fraction of 1-ethylpyridinium bis[(trifluoromethyl)sulfonyl]imide	uncertainty
298.15	0.993	0.007
318.15	0.987	0.013
338.15	0.983	0.017
358.15	0.977	0.02
378.15	0.958	0.02
388.15	0.928	0.02
398.15	0.919	0.02
408.15	0.857	0.02

System: 1-ethyl-3-methylimidazolium bis((trifluoromethyl)sulfonyl)imide + trihexyl(tetradecyl)phosphonium bis[(trifluoromethyl)sulfonyl]imide; phases: Liquid mixture 1, Liquid mixture 2
Fixed: Pressure, kPa = 101.3
Property: Mole fraction of 1-ethyl-3-methylimidazolium bis((trifluoromethyl)sulfonyl)imide (Liquid mixture 1); method: OTHER
Temperature, K	Mole fraction of 1-ethyl-3-methylimidazolium bis((trifluoromethyl)sulfonyl)imide	uncertainty
298.15	0.3	0.021
318.15	0.357	0.021
338.15	0.414	0.022
348.15	0.426	0.022
358.15	0.499	0.023
368.15	0.53	0.022
378.15	0.592	0.022
388.15	0.691	0.021

System: 1-ethyl-3-methylimidazolium bis((trifluoromethyl)sulfonyl)imide + trihexyl(tetradecyl)phosphonium bis[(trifluoromethyl)sulfonyl]imide; phases: Liquid mixture 2, Liquid mixture 1
Fixed: Pressure, kPa = 101.3
Property: Mole fraction of 1-ethyl-3-methylimidazolium bis((trifluoromethyl)sulfonyl)imide (Liquid mixture 2); method: OTHER
Temperature, K	Mole fraction of 1-ethyl-3-methylimidazolium bis((trifluoromethyl)sulfonyl)imide	uncertainty
298.15	0.98	0.02
318.15	0.932	0.02
338.15	0.92	0.02
348.15	0.892	0.02
358.15	0.857	0.02
368.15	0.825	0.02
378.15	0.82	0.02
388.15	0.784	0.021

System: 1-ethyl-3-methylimidazolium bis((trifluoromethyl)sulfonyl)imide + 1-butyl-3-methylimidazolium bis(trifluoromethylsulfonyl)imide + trihexyl(tetradecyl)phosphonium bis[(trifluoromethyl)sulfonyl]imide; phases: Liquid mixture 2, Liquid mixture 1
Fixed: Temperature, K = 298.15
Fixed: Pressure, kPa = 101.3
Property: Mole fraction of 1-ethyl-3-methylimidazolium bis((trifluoromethyl)sulfonyl)imide (Liquid mixture 2); method: OTHER
Property: Mole fraction of 1-ethyl-3-methylimidazolium bis((trifluoromethyl)sulfonyl)imide (Liquid mixture 1); method: OTHER
Property: Mole fraction of 1-butyl-3-methylimidazolium bis(trifluoromethylsulfonyl)imide (Liquid mixture 1); method: OTHER
Mole fraction of 1-butyl-3-methylimidazolium bis(trifluoromethylsulfonyl)imide	Mole fraction of 1-ethyl-3-methylimidazolium bis((trifluoromethyl)sulfonyl)imide	uncertainty	Mole fraction of 1-ethyl-3-methylimidazolium bis((trifluoromethyl)sulfonyl)imide	uncertainty	Mole fraction of 1-butyl-3-methylimidazolium bis(trifluoromethylsulfonyl)imide	uncertainty
0	0.98	0.02	0.3	0.021	0	
0.075	0.872	0.033	0.304	0.022	0.044	
0.211	0.701	0.033	0.274	0.022	0.12	
0.319	0.561	0.036	0.254	0.021	0.203	
0.402	0.43	0.042	0.232	0.021	0.292	
0.451	0.323	0.049	0.206	0.021	0.389	
