Measured thermophysical data. Activity coefficients at infinite dilution of alkanes and alkenes in 1-alkyl-3-methylimidazolium tetrafluoroborate
Source: Fluid Phase Equilib., 2009, 10.1016/j.fluid.2009.05.007
Compound 1: hexane, C6H14, InChI=1S/C6H14/c1-3-5-6-4-2/h3-6H2,1-2H3
Compound 2: heptane, C7H16, InChI=1S/C7H16/c1-3-5-7-6-4-2/h3-7H2,1-2H3
Compound 3: octane, C8H18, InChI=1S/C8H18/c1-3-5-7-8-6-4-2/h3-8H2,1-2H3
Compound 4: nonane, C9H20, InChI=1S/C9H20/c1-3-5-7-9-8-6-4-2/h3-9H2,1-2H3
Compound 5: decane, C10H22, InChI=1S/C10H22/c1-3-5-7-9-10-8-6-4-2/h3-10H2,1-2H3
Compound 6: hex-1-ene, C6H12, InChI=1S/C6H12/c1-3-5-6-4-2/h3H,1,4-6H2,2H3
Compound 7: 1-heptene, C7H14, InChI=1S/C7H14/c1-3-5-7-6-4-2/h3H,1,4-7H2,2H3
Compound 8: oct-1-ene, C8H16, InChI=1S/C8H16/c1-3-5-7-8-6-4-2/h3H,1,4-8H2,2H3
Compound 9: 1-decene, C10H20, InChI=1S/C10H20/c1-3-5-7-9-10-8-6-4-2/h3H,1,4-10H2,2H3
Compound 10: 1-butyl-3-methylimidazolium tetrafluoroborate, C8H15BF4N2, InChI=1S/C8H15N2.BF4/c1-3-4-5-10-7-6-9(2)8-10;2-1(3,4)5/h6-8H,3-5H2,1-2H3;/q+1;-1, purity 99%
Compound 11: 1-hexyl-3-methylimidazolium tetrafluoroborate, C10H19BF4N2, InChI=1S/C10H19N2.BF4/c1-3-4-5-6-7-12-9-8-11(2)10-12;2-1(3,4)5/h8-10H,3-7H2,1-2H3;/q+1;-1, purity 99%

System: hexane + 1-butyl-3-methylimidazolium tetrafluoroborate; phases: Liquid
Fixed: Pressure, kPa = 101
Fixed: Mole fraction of hexane = 0
Property: Activity coefficient of hexane (Liquid); method: dilutor technique
Temperature, K	Activity coefficient of hexane	uncertainty
323.15	66.72	3.34
328.18	63.26	3.16
333.2	60.96	3.05
343.26	54.93	2.75

System: heptane + 1-butyl-3-methylimidazolium tetrafluoroborate; phases: Liquid
Fixed: Pressure, kPa = 101
Fixed: Mole fraction of heptane = 0
Property: Activity coefficient of heptane (Liquid); method: dilutor technique
Temperature, K	Activity coefficient of heptane	uncertainty
323.16	95.79	4.79
328.16	88.98	4.45
333.14	83.76	4.19
338.14	80.13	4.01
343.22	75.34	3.77

System: octane + 1-butyl-3-methylimidazolium tetrafluoroborate; phases: Liquid
Fixed: Pressure, kPa = 101
Fixed: Mole fraction of octane = 0
Property: Activity coefficient of octane (Liquid); method: dilutor technique
Temperature, K	Activity coefficient of octane	uncertainty
323.16	170.2	8.5
328.16	159.7	8
333.14	154.6	7.7
338.14	146.4	7.3
343.22	142.9	7.1

System: nonane + 1-butyl-3-methylimidazolium tetrafluoroborate; phases: Liquid
Fixed: Pressure, kPa = 101
Fixed: Mole fraction of nonane = 0
Property: Activity coefficient of nonane (Liquid); method: dilutor technique
Temperature, K	Activity coefficient of nonane	uncertainty
323.12	333.9	16.7
343.21	269.9	13.5
353.16	224.8	11.2

System: decane + 1-butyl-3-methylimidazolium tetrafluoroborate; phases: Liquid
Fixed: Pressure, kPa = 101
Fixed: Mole fraction of decane = 0
Property: Activity coefficient of decane (Liquid); method: dilutor technique
Temperature, K	Activity coefficient of decane	uncertainty
323.12	620	31
343.21	443.3	22.2
353.16	382.6	19.1

System: hex-1-ene + 1-butyl-3-methylimidazolium tetrafluoroborate; phases: Liquid
Fixed: Pressure, kPa = 101
Fixed: Mole fraction of hex-1-ene = 0
Property: Activity coefficient of hex-1-ene (Liquid); method: dilutor technique
Temperature, K	Activity coefficient of hex-1-ene	uncertainty
323.16	30.14	1.51
333.15	27.8	1.39
343.22	25.7	1.29
353.14	23.88	1.19

System: 1-heptene + 1-butyl-3-methylimidazolium tetrafluoroborate; phases: Liquid
Fixed: Pressure, kPa = 101
Fixed: Mole fraction of 1-heptene = 0
Property: Activity coefficient of 1-heptene (Liquid); method: dilutor technique
Temperature, K	Activity coefficient of 1-heptene	uncertainty
323.16	52.03	2.6
333.24	50.31	2.52
343.15	46.59	2.33
353.23	43.2	2.16

System: oct-1-ene + 1-butyl-3-methylimidazolium tetrafluoroborate; phases: Liquid
Fixed: Pressure, kPa = 101
Fixed: Mole fraction of oct-1-ene = 0
Property: Activity coefficient of oct-1-ene (Liquid); method: dilutor technique
Temperature, K	Activity coefficient of oct-1-ene	uncertainty
323.16	88.59	4.43
333.24	84.75	4.24
343.15	78.78	3.94
353.23	74.2	3.71

System: 1-decene + 1-butyl-3-methylimidazolium tetrafluoroborate; phases: Liquid
Fixed: Pressure, kPa = 101
Fixed: Mole fraction of 1-decene = 0
Property: Activity coefficient of 1-decene (Liquid); method: dilutor technique
Temperature, K	Activity coefficient of 1-decene	uncertainty
323.16	223.6	11.2
333.17	206.6	10.3
343.17	189.5	9.5
353.16	179.9	9

System: heptane + 1-hexyl-3-methylimidazolium tetrafluoroborate; phases: Liquid
Fixed: Pressure, kPa = 101
Fixed: Mole fraction of heptane = 0
Property: Activity coefficient of heptane (Liquid); method: dilutor technique
Temperature, K	Activity coefficient of heptane	uncertainty
303.16	45.04	2.25
318.14	42.01	2.1
323.27	41.09	2.05
333.11	38.91	1.95
343.09	36.75	1.84

System: octane + 1-hexyl-3-methylimidazolium tetrafluoroborate; phases: Liquid
Fixed: Pressure, kPa = 101
Fixed: Mole fraction of octane = 0
Property: Activity coefficient of octane (Liquid); method: dilutor technique
Temperature, K	Activity coefficient of octane	uncertainty
303.16	69.6	3.48
318.14	62.27	3.11
323.27	59.45	2.97
333.11	56.01	2.8
343.09	52.53	2.63

System: nonane + 1-hexyl-3-methylimidazolium tetrafluoroborate; phases: Liquid
Fixed: Pressure, kPa = 101
Fixed: Mole fraction of nonane = 0
Property: Activity coefficient of nonane (Liquid); method: dilutor technique
Temperature, K	Activity coefficient of nonane	uncertainty
318.21	87.96	4.4
328.16	81.24	4.06
338.14	76.72	3.84
348.16	72.87	3.64

System: decane + 1-hexyl-3-methylimidazolium tetrafluoroborate; phases: Liquid
Fixed: Pressure, kPa = 101
Fixed: Mole fraction of decane = 0
Property: Activity coefficient of decane (Liquid); method: dilutor technique
Temperature, K	Activity coefficient of decane	uncertainty
318.21	128.8	6.4
328.16	115.3	5.8
338.14	109.8	5.5
348.16	103.5	5.2

System: hex-1-ene + 1-hexyl-3-methylimidazolium tetrafluoroborate; phases: Liquid
Fixed: Pressure, kPa = 101
Fixed: Mole fraction of hex-1-ene = 0
Property: Activity coefficient of hex-1-ene (Liquid); method: dilutor technique
Temperature, K	Activity coefficient of hex-1-ene	uncertainty
318.11	12.97	0.65
328.19	12.13	0.61
338.17	11.91	0.6
348.15	11.42	0.57

System: 1-heptene + 1-hexyl-3-methylimidazolium tetrafluoroborate; phases: Liquid
Fixed: Pressure, kPa = 101
Fixed: Mole fraction of 1-heptene = 0
Property: Activity coefficient of 1-heptene (Liquid); method: dilutor technique
Temperature, K	Activity coefficient of 1-heptene	uncertainty
318.11	19.64	0.98
328.19	19.3	0.97
338.14	18.75	0.94
348.11	18.01	0.9

System: oct-1-ene + 1-hexyl-3-methylimidazolium tetrafluoroborate; phases: Liquid
Fixed: Pressure, kPa = 101
Fixed: Mole fraction of oct-1-ene = 0
Property: Activity coefficient of oct-1-ene (Liquid); method: dilutor technique
Temperature, K	Activity coefficient of oct-1-ene	uncertainty
318.11	29.42	1.47
328.19	28.11	1.41
338.14	27.19	1.36
348.11	25.78	1.29

System: 1-decene + 1-hexyl-3-methylimidazolium tetrafluoroborate; phases: Liquid
Fixed: Pressure, kPa = 101
Fixed: Mole fraction of 1-decene = 0
Property: Activity coefficient of 1-decene (Liquid); method: dilutor technique
Temperature, K	Activity coefficient of 1-decene	uncertainty
318.2	54.64	2.73
328.16	48.72	2.44
338.17	46	2.3
