Measured thermophysical data. Gas solubilities of nitrogen or oxygen in benzene, divinylbenzene, styrene and of an equimolar (N2:O2) mixture in styrene at (293-313) K
Source: Fluid Phase Equilib., 2019, 10.1016/j.fluid.2019.03.016
Compound 1: nitrogen, N2, InChI=1S/N2/c1-2
Compound 2: oxygen, O2, InChI=1S/O2/c1-2
Compound 3: benzene, C6H6, InChI=1S/C6H6/c1-2-4-6-5-3-1/h1-6H, purity 99.5%
Compound 4: styrene, C8H8, InChI=1S/C8H8/c1-2-8-6-4-3-5-7-8/h2-7H,1H2, purity 99%

System: nitrogen + benzene; phases: Liquid, Gas
Property: Vapor or sublimation pressure, kPa (Liquid); method: Visual observation
Temperature, K	Mole fraction of nitrogen	Vapor or sublimation pressure, kPa	uncertainty
293.2	0.00859	2074	175
293.2	0.0106	2531	208
293.2	0.01189	2832	232
293.2	0.01307	3146	256
293.2	0.01435	3467	279
303.24	0.00859	1970	166
303.24	0.0106	2409	198
303.24	0.01189	2686	219
303.24	0.01307	2972	242
303.24	0.01435	3289	265
313.23	0.00859	1885	157
313.23	0.0106	2267	185
313.23	0.01189	2538	207
313.23	0.01307	2808	228
313.23	0.01435	3092	249

System: nitrogen + styrene; phases: Liquid, Gas
Property: Vapor or sublimation pressure, kPa (Liquid); method: Visual observation
Temperature, K	Mole fraction of nitrogen	Vapor or sublimation pressure, kPa	uncertainty
293.18	0.00726	1855	161
293.18	0.008772	2221	187
293.18	0.0112	2824	232
293.18	0.01293	3277	266
293.18	0.0153	3890	311
303.22	0.00726	1768	155
303.22	0.008772	2129	179
303.22	0.0112	2694	220
303.22	0.01293	3104	252
303.22	0.0153	3734	300
313.2	0.00726	1671	148
313.2	0.008772	2033	172
313.2	0.0112	2574	211
313.2	0.01293	2985	242
313.2	0.0153	3531	282

System: oxygen + benzene; phases: Liquid, Gas
Property: Vapor or sublimation pressure, kPa (Liquid); method: Visual observation
Temperature, K	Mole fraction of oxygen	Vapor or sublimation pressure, kPa	uncertainty
293.21	0.009652	1288	108
293.21	0.01252	1681	136
293.21	0.01447	1916	154
293.21	0.01936	2570	203
293.21	0.02398	3174	249
303.24	0.009652	1267	106
303.24	0.01252	1650	133
303.24	0.01447	1878	150
303.24	0.01936	2513	198
303.24	0.02398	3097	243
313.24	0.009652	1236	103
313.24	0.01252	1595	129
313.24	0.01447	1814	145
313.24	0.01936	2427	192
313.24	0.02398	3004	236

System: oxygen + styrene; phases: Liquid, Gas
Property: Vapor or sublimation pressure, kPa (Liquid); method: Visual observation
Temperature, K	Mole fraction of oxygen	Vapor or sublimation pressure, kPa	uncertainty
293.18	0.009915	1346	112
293.18	0.01467	1979	158
293.18	0.01965	2643	209
293.18	0.02366	3156	248
293.18	0.02637	3599	283
303.21	0.009915	1324	110
303.21	0.01467	1945	156
303.21	0.01965	2593	205
303.21	0.02366	3099	243
303.21	0.02637	3494	274
313.19	0.009915	1287	107
313.19	0.01467	1900	152
313.19	0.01965	2541	201
313.19	0.02366	3041	239
313.19	0.02637	3404	267

System: nitrogen + oxygen + styrene; phases: Liquid, Gas
Property: Vapor or sublimation pressure, kPa (Liquid); method: Visual observation
Temperature, K	Mole fraction of nitrogen	Mole fraction of oxygen	Vapor or sublimation pressure, kPa	uncertainty
293.22	0.0048105	0.0048105	1861	185
293.22	0.00563	0.00563	2176	204
293.22	0.006625	0.006625	2530	223
293.22	0.00784	0.00784	3027	265
293.22	0.009095	0.009095	3510	295
303.25	0.0048105	0.0048105	1802	177
303.25	0.00563	0.00563	2096	194
303.25	0.006625	0.006625	2446	216
303.25	0.00784	0.00784	2928	255
303.25	0.009095	0.009095	3371	281
313.25	0.0048105	0.0048105	1733	168
313.25	0.00563	0.00563	2009	186
313.25	0.006625	0.006625	2340	207
313.25	0.00784	0.00784	2806	246
313.25	0.009095	0.009095	3214	267
