Measured thermophysical data. Phase equilibria study of (ionic liquid + water) binary mixtures
Source: Fluid Phase Equilib., 2013, 10.1016/j.fluid.2013.06.012
Compound 1: 4-(2-methoxyethyl)-4-methylmorpholinium trifluorotris(perfluoroethyl)phosphate, C14H18F18NO2P, InChI=1S/C8H18NO2.C6F18P/c1-9(3-6-10-2)4-7-11-8-5-9;7-1(8,9)4(16,17)25(22,23,24,5(18,19)2(10,11)12)6(20,21)3(13,14)15/h3-8H2,1-2H3;/q+1;-1, purity 99.5%
Compound 2: 4-(2-methoxyethyl)-4-methylmorpholinium bis(trifluoromethylsulfonyl)amide, C10H18F6N2O6S2, InChI=1S/C8H18NO2.C2F6NO4S2/c1-9(3-6-10-2)4-7-11-8-5-9;3-1(4,5)14(10,11)9-15(12,13)2(6,7)8/h3-8H2,1-2H3;/q+1;-1, purity 99.5%
Compound 3: 1-(2-methoxyethyl)-1-methylpiperidinium trifluorotris(perfluoroethyl)phosphate, C15H20F18NOP, InChI=1S/C9H20NO.C6F18P/c1-10(8-9-11-2)6-4-3-5-7-10;7-1(8,9)4(16,17)25(22,23,24,5(18,19)2(10,11)12)6(20,21)3(13,14)15/h3-9H2,1-2H3;/q+1;-1, purity 99.5%
Compound 4: 1-(2-methoxyethyl)-1-methylpiperidinium bis(trifluoromethylsulfonyl)imide, C11H20F6N2O5S2, InChI=1S/C9H20NO.C2F6NO4S2/c1-10(8-9-11-2)6-4-3-5-7-10;3-1(4,5)14(10,11)9-15(12,13)2(6,7)8/h3-9H2,1-2H3;/q+1;-1, purity 99.5%
Compound 5: 1-(2-methoxyethyl)-1-methylpyrrolidinium bis((trifluoromethyl)sulfonyl)amide, C10H18F6N2O5S2, InChI=1S/C8H18NO.C2F6NO4S2/c1-9(7-8-10-2)5-3-4-6-9;3-1(4,5)14(10,11)9-15(12,13)2(6,7)8/h3-8H2,1-2H3;/q+1;-1, purity 99.5%
Compound 6: 1-(2-methoxyethyl)-1-methylpyrrolidinium tris(pentafluoroethyl)trifluorophosphate, C14H18F18NOP, InChI=1S/C8H18NO.C6F18P/c1-9(7-8-10-2)5-3-4-6-9;7-1(8,9)4(16,17)25(22,23,24,5(18,19)2(10,11)12)6(20,21)3(13,14)15/h3-8H2,1-2H3;/q+1;-1, purity 99.5%
Compound 7: 1-butyl-1-methylpiperidinium dicyanamide, C12H22N4, InChI=1S/C10H22N.C2N3/c1-3-4-8-11(2)9-6-5-7-10-11;3-1-5-2-4/h3-10H2,1-2H3;/q+1;-1, purity 97%
Compound 8: 1-butyl-1-methylpyrrolidinium dicyanamide, C11H20N4, InChI=1S/C9H20N.C2N3/c1-3-4-7-10(2)8-5-6-9-10;3-1-5-2-4/h3-9H2,1-2H3;/q+1;-1, purity 97%
Compound 9: 1-butyl-4-methylpyridinium dicyanamide, C12H16N4, InChI=1S/C10H16N.C2N3/c1-3-4-7-11-8-5-10(2)6-9-11;3-1-5-2-4/h5-6,8-9H,3-4,7H2,1-2H3;/q+1;-1, purity 97%
Compound 10: 1-butyl-4-methylpyridinium thiocyanate, C11H16N2S, InChI=1S/C10H16N.CHNS/c1-3-4-7-11-8-5-10(2)6-9-11;2-1-3/h5-6,8-9H,3-4,7H2,1-2H3;3H/q+1;/p-1, purity 98%
Compound 11: water, H2O, InChI=1S/H2O/h1H2

System: water + 4-(2-methoxyethyl)-4-methylmorpholinium trifluorotris(perfluoroethyl)phosphate; phases: Liquid mixture 1, Liquid mixture 2
Fixed: Pressure, kPa = 100
Property: Liquid-liquid equilibrium temperature, K (Liquid mixture 1); method: VISOBS
Mole fraction of 4-(2-methoxyethyl)-4-methylmorpholinium trifluorotris(perfluoroethyl)phosphate	Liquid-liquid equilibrium temperature, K	uncertainty
0.9135	290.1	0.2
0.887	299.7	0.2
0.8718	305.9	0.2
0.8333	317.1	0.2
0.8182	320.8	0.2
0.7891	327.8	0.2
0.7574	334.1	0.2
0.7193	342.4	0.2
0.6901	347.8	0.2
0.6681	351.7	0.2

System: water + 4-(2-methoxyethyl)-4-methylmorpholinium bis(trifluoromethylsulfonyl)amide; phases: Liquid mixture 1, Liquid mixture 2
Fixed: Pressure, kPa = 100
Property: Liquid-liquid equilibrium temperature, K (Liquid mixture 1); method: VISOBS
Mole fraction of 4-(2-methoxyethyl)-4-methylmorpholinium bis(trifluoromethylsulfonyl)amide	Liquid-liquid equilibrium temperature, K	uncertainty
0.7198	291	0.2
0.6883	297.5	0.2
0.6633	302.8	0.2
0.6334	307.9	0.2
0.5949	312.6	0.2
0.5705	316.4	0.2
0.5456	319.5	0.2
0.5234	321.7	0.2
0.505	323.9	0.2
0.4881	326	0.2
0.4539	329.8	0.2
0.3844	338.4	0.2
0.3314	344.1	0.2
0.2899	349.6	0.2
0.0018	341.84	0.16
0.0016	334.18	0.16
0.0013	327.56	0.16
0.0012	323.76	0.16

System: water + 1-(2-methoxyethyl)-1-methylpiperidinium trifluorotris(perfluoroethyl)phosphate; phases: Liquid mixture 1, Liquid mixture 2
Fixed: Pressure, kPa = 100
Property: Liquid-liquid equilibrium temperature, K (Liquid mixture 1); method: VISOBS
Mole fraction of 1-(2-methoxyethyl)-1-methylpiperidinium trifluorotris(perfluoroethyl)phosphate	Liquid-liquid equilibrium temperature, K	uncertainty
0.9116	313.1	0.2
0.883	321.4	0.2
0.9346	301.2	0.2
0.8669	325.9	0.2
0.7952	344.5	0.2
0.8376	334.3	0.2
0.7749	349.3	0.2

System: water + 1-(2-methoxyethyl)-1-methylpiperidinium bis(trifluoromethylsulfonyl)imide; phases: Liquid mixture 1, Liquid mixture 2
Fixed: Pressure, kPa = 100
Property: Liquid-liquid equilibrium temperature, K (Liquid mixture 1); method: VISOBS
Mole fraction of 1-(2-methoxyethyl)-1-methylpiperidinium bis(trifluoromethylsulfonyl)imide	Liquid-liquid equilibrium temperature, K	uncertainty
0.6932	313.2	0.2
0.6658	320.7	0.2
0.638	325.2	0.2
0.6177	328.9	0.2
0.5995	333.2	0.2
0.5791	337.2	0.2
0.5576	340	0.2
0.5268	347.3	0.2
0.4919	353.9	0.2
0.0007	340	0.2
0.0006	312.3	0.2

System: water + 1-(2-methoxyethyl)-1-methylpyrrolidinium tris(pentafluoroethyl)trifluorophosphate; phases: Liquid mixture 1, Liquid mixture 2
Fixed: Pressure, kPa = 100
Property: Liquid-liquid equilibrium temperature, K (Liquid mixture 1); method: VISOBS
Mole fraction of 1-(2-methoxyethyl)-1-methylpyrrolidinium tris(pentafluoroethyl)trifluorophosphate	Liquid-liquid equilibrium temperature, K	uncertainty
0.9284	307.4	0.2
0.8949	318.1	0.2
0.8516	330.2	0.2
0.8334	335.4	0.2
0.8009	345	0.2
0.7804	351.6	0.2

System: water + 1-(2-methoxyethyl)-1-methylpyrrolidinium bis((trifluoromethyl)sulfonyl)amide; phases: Liquid mixture 1, Liquid mixture 2
Fixed: Pressure, kPa = 100
Property: Liquid-liquid equilibrium temperature, K (Liquid mixture 1); method: VISOBS
Mole fraction of 1-(2-methoxyethyl)-1-methylpyrrolidinium bis((trifluoromethyl)sulfonyl)amide	Liquid-liquid equilibrium temperature, K	uncertainty
0.7565	291.8	0.2
0.7112	301.3	0.2
0.6631	308.9	0.2
0.6373	313.9	0.2
0.603	319.8	0.2
0.5816	322.7	0.2
0.5503	327.7	0.2
0.5288	331.4	0.2
0.4868	338	0.2
0.4814	338.9	0.2
0.4146	347.4	0.2
0.3701	352.7	0.2
0.3325	357.5	0.2
0.001	339.2	0.2
0.0009	328.5	0.2

System: water + 1-butyl-1-methylpiperidinium dicyanamide; phases: Liquid, Crystal
Fixed: Pressure, kPa = 100
Property: Solid-liquid equilibrium temperature, K (Liquid); method: VISOBS
Mole fraction of 1-butyl-1-methylpiperidinium dicyanamide	Solid-liquid equilibrium temperature, K	uncertainty
0.2754	237.64	0.16
0.2565	242.64	0.16
0.2138	251.19	0.16
0.1846	257.22	0.16
0.1558	261.53	0.16
0.1237	265.19	0.16
0.0965	267.78	0.16
0.0558	270.58	0.16
0.0257	272.22	0.16
0	273.15	0.16

System: water + 1-butyl-1-methylpyrrolidinium dicyanamide; phases: Liquid, Crystal
Fixed: Pressure, kPa = 100
Property: Solid-liquid equilibrium temperature, K (Liquid); method: VISOBS
Mole fraction of 1-butyl-1-methylpyrrolidinium dicyanamide	Solid-liquid equilibrium temperature, K	uncertainty
0.2465	236.26	0.17
0.217	245.98	0.16
0.1825	253.9	0.16
0.1587	258.13	0.16
0.1371	261.89	0.16
0.1111	265.3	0.16
0.0907	267.24	0.16
0.0719	268.93	0.16
0.0549	270.12	0.16
0.0351	271.44	0.16
0.0215	272.41	0.16
0.0111	272.93	0.16
0	273.15	0.16

System: water + 1-butyl-4-methylpyridinium dicyanamide; phases: Liquid, Crystal
Fixed: Pressure, kPa = 100
Property: Solid-liquid equilibrium temperature, K (Liquid); method: VISOBS
Mole fraction of 1-butyl-4-methylpyridinium dicyanamide	Solid-liquid equilibrium temperature, K	uncertainty
1	300.3	0.16
0.8517	298.83	0.16
0.7515	295.78	0.16
0.6667	291.22	0.16
0.6064	287.16	0.16
0.5463	282.5	0.16
0.4982	278.63	0.16
0.4621	275.05	0.16
0.43	271.58	0.16
0.4045	268.91	0.16
0.3568	262.22	0.16
0.3171	256.19	0.16
0.2758	249.09	0.16
0.2452	244.19	0.16
0.2216	249.33	0.16
0.2054	252.31	0.16
0.1831	256.22	0.16
0.1669	259.79	0.16
0.1426	263.28	0.16
0.1194	266.15	0.16
0.0976	268.26	0.16
0.0648	270.54	0.16
0.0483	271.41	0.16
0.0278	272.46	0.16
0	273.15	0.16

System: water + 1-butyl-4-methylpyridinium thiocyanate; phases: Liquid, Crystal
Fixed: Pressure, kPa = 100
Property: Solid-liquid equilibrium temperature, K (Liquid); method: VISOBS
Mole fraction of 1-butyl-4-methylpyridinium thiocyanate	Solid-liquid equilibrium temperature, K	uncertainty
0.359	238.03	0.16
0.3442	240.99	0.16
0.322	245.25	0.16
0.3087	247.52	0.16
0.2883	250.62	0.16
0.2704	253.28	0.16
0.2551	255.24	0.16
0.2392	257.22	0.16
0.223	259.48	0.16
0.206	261.26	0.16
0.1886	263.04	0.16
0.175	264.16	0.16
0.1615	265.28	0.16
0.1468	266.41	0.16
0.1325	267.39	0.16
0.1141	268.38	0.16
0.0958	269.4	0.16
0.0797	270.2	0.16
0.067	270.61	0.16
0.0559	271.1	0.16
0.0395	271.75	0.16
0.0273	272.15	0.16
0.0143	272.66	0.16
0.0085	272.92	0.16
0	273.15	0.16
