Measured thermophysical data. Determination of the solubility, dissolution enthalpy and entropy of 3-pentadecylphenyl acrylate in methanol-ethanol solutions
Source: Fluid Phase Equilib., 2012, 10.1016/j.fluid.2012.03.002
Compound 1: ethanol, C2H6O, InChI=1S/C2H6O/c1-2-3/h3H,2H2,1H3, purity 99.8%
Compound 2: methanol, CH4O, InChI=1S/CH4O/c1-2/h2H,1H3, purity 99.8%
Compound 3: 3-pentadecylphenyl acrylate, C24H38O2, InChI=1S/C24H38O2/c1-3-5-6-7-8-9-10-11-12-13-14-15-16-18-22-19-17-20-23(21-22)26-24(25)4-2/h4,17,19-21H,2-3,5-16,18H2,1H3, purity 99.1%

System: 3-pentadecylphenyl acrylate; phases: Crystal, Liquid, Air at 1 atmosphere
Property: Molar enthalpy of transition or fusion, kJ/mol (Crystal); method: DSC
Molar enthalpy of transition or fusion, kJ/mol	uncertainty
54.595	1.136

System: 3-pentadecylphenyl acrylate; phases: Crystal, Liquid, Air at 1 atmosphere
Property: Normal melting temperature, K (Crystal); method: DTA
Normal melting temperature, K	uncertainty
304.65	0.7

System: ethanol + methanol + 3-pentadecylphenyl acrylate; phases: Liquid, Crystal
Fixed: Pressure, kPa = 101
Property: Mole fraction of 3-pentadecylphenyl acrylate (Liquid); method: Visual Observation
Solvent: Mole fraction of methanol	Temperature, K	Mole fraction of 3-pentadecylphenyl acrylate	uncertainty
0	273.15	0.001101	2.1e-05
0	275.15	0.001308	2.4e-05
0	277.15	0.001554	2.8e-05
0	279.15	0.001834	3.3e-05
0	281.15	0.002136	3.9e-05
0	283.15	0.002524	4.6e-05
0	285.15	0.002997	5.5e-05
0.3	273.15	0.0008231	1.82e-05
0.3	275.15	0.0009948	2.07e-05
0.3	277.15	0.001142	2.3e-05
0.3	279.15	0.001379	2.8e-05
0.3	281.15	0.001663	3.3e-05
0.3	283.15	0.002001	4e-05
0.3	285.15	0.002413	4.8e-05
0.5	273.15	0.0004688	1.36e-05
0.5	275.15	0.0005731	1.5e-05
0.5	277.15	0.0006982	1.7e-05
0.5	279.15	0.000883	2e-05
0.5	281.15	0.001138	2.4e-05
0.5	283.15	0.001315	2.8e-05
0.5	285.15	0.001564	3.4e-05
0.7	273.15	0.0002901	1.17e-05
0.7	275.15	0.0003587	1.25e-05
0.7	277.15	0.0004317	1.35e-05
0.7	279.15	0.0005603	1.55e-05
0.7	281.15	0.0006904	1.77e-05
0.7	283.15	0.0008144	1.99e-05
0.7	285.15	0.0009957	2.34e-05
1	273.15	0.0002215	1.13e-05
1	275.15	0.0002734	1.19e-05
1	277.15	0.0003361	1.28e-05
1	279.15	0.0004136	1.4e-05
1	281.15	0.0005076	1.57e-05
1	283.15	0.0006248	1.79e-05
1	285.15	0.0007618	2.07e-05
