Measured thermophysical data. Liquid-liquid equilibria for multicomponent mixtures of 2,2-dimethyl-1,3-dioxolane with n-heptane, toluene, ethanol and water
Source: Fluid Phase Equilib., 2014, 10.1016/j.fluid.2014.08.002
Compound 1: 2,2-dimethyl-1,3-dioxolane, C5H10O2, InChI=1S/C5H10O2/c1-5(2)6-3-4-7-5/h3-4H2,1-2H3, purity 99%
Compound 2: heptane, C7H16, InChI=1S/C7H16/c1-3-5-7-6-4-2/h3-7H2,1-2H3, purity 99.8%
Compound 3: toluene, C7H8, InChI=1S/C7H8/c1-7-5-3-2-4-6-7/h2-6H,1H3, purity 99.8%
Compound 4: ethanol, C2H6O, InChI=1S/C2H6O/c1-2-3/h3H,2H2,1H3, purity 99.8%
Compound 5: water, H2O, InChI=1S/H2O/h1H2, purity 99.9%

System: 2,2-dimethyl-1,3-dioxolane; phases: Liquid
Property: Mass density, kg/m3 (Liquid); method: Vibrating tube method
Pressure, kPa	Temperature, K	Mass density, kg/m3	uncertainty
101.3	298.15	944.2	0.3

System: heptane; phases: Liquid
Property: Mass density, kg/m3 (Liquid); method: Vibrating tube method
Pressure, kPa	Temperature, K	Mass density, kg/m3	uncertainty
101.3	298.15	683.8	0.3

System: toluene; phases: Liquid
Property: Mass density, kg/m3 (Liquid); method: Vibrating tube method
Pressure, kPa	Temperature, K	Mass density, kg/m3	uncertainty
101.3	298.15	866.9	0.2

System: ethanol; phases: Liquid
Property: Mass density, kg/m3 (Liquid); method: Vibrating tube method
Pressure, kPa	Temperature, K	Mass density, kg/m3	uncertainty
101.3	298.15	789.5	0.2

System: water; phases: Liquid
Property: Mass density, kg/m3 (Liquid); method: Vibrating tube method
Pressure, kPa	Temperature, K	Mass density, kg/m3	uncertainty
101.3	298.15	998.2	0.2

System: ethanol + 2,2-dimethyl-1,3-dioxolane + water; phases: Liquid mixture 1, Liquid mixture 2
Fixed: Temperature, K = 293.15
Fixed: Pressure, kPa = 101.3
Property: Mole fraction of 2,2-dimethyl-1,3-dioxolane (Liquid mixture 1); method: Titration method
Mole fraction of ethanol	Mole fraction of 2,2-dimethyl-1,3-dioxolane	uncertainty
0	0.802	0.006
0.043	0.681	0.017
0.063	0.579	0.04
0.075	0.523	0.027
0.087	0.316	0.023
0.079	0.232	0.028
0.065	0.156	0.05
0.063	0.136	0.052
0.058	0.111	0.075
0.051	0.098	0.078
0.041	0.085	0.004
0.026	0.066	0.037
0	0.049	0.002

System: ethanol + 2,2-dimethyl-1,3-dioxolane + water; phases: Liquid mixture 2, Liquid mixture 1
Fixed: Temperature, K = 293.15
Fixed: Pressure, kPa = 101
Property: Mole fraction of ethanol (Liquid mixture 2); method: Chromatography
Property: Mole fraction of ethanol (Liquid mixture 1); method: Chromatography
Property: Mole fraction of 2,2-dimethyl-1,3-dioxolane (Liquid mixture 1); method: Chromatography
Mole fraction of 2,2-dimethyl-1,3-dioxolane	Mole fraction of ethanol	uncertainty	Mole fraction of ethanol	uncertainty	Mole fraction of 2,2-dimethyl-1,3-dioxolane	uncertainty
0.049	0		0		0.802	
0.055	0.009	0.003	0.014	0.002	0.775	
0.063	0.017	0.003	0.027	0.002	0.732	
0.066	0.021	0.004	0.033	0.002	0.718	
0.073	0.032	0.003	0.049	0.002	0.652	
0.091	0.045	0.002	0.069	0.002	0.544	
0.12	0.058	0.002	0.08	0.002	0.444	
0.14	0.063	0.002	0.084	0.002	0.416	

System: heptane + 2,2-dimethyl-1,3-dioxolane + water; phases: Liquid mixture 1, Liquid mixture 2
Fixed: Temperature, K = 293.15
Fixed: Pressure, kPa = 101.3
Property: Mole fraction of 2,2-dimethyl-1,3-dioxolane (Liquid mixture 1); method: Titration method
Mole fraction of heptane	Mole fraction of 2,2-dimethyl-1,3-dioxolane	uncertainty
0.089	0.804	0.008
0.086	0.797	0.007
0.077	0.818	0.006
0.043	0.816	0.006
0.021	0.811	0.04
0	0.802	0.006
0.004	0.001	0.001
0.003	0.019	0.019
0.002	0.03	0.03
0.001	0.03	0.01
0.004	0.044	0.01
0	0.049	0.002

System: heptane + 2,2-dimethyl-1,3-dioxolane + water; phases: Liquid mixture 1, Liquid mixture 2
Fixed: Temperature, K = 293.15
Fixed: Pressure, kPa = 101.3
Property: Mole fraction of 2,2-dimethyl-1,3-dioxolane (Liquid mixture 1); method: Chromatography
Mole fraction of heptane	Mole fraction of 2,2-dimethyl-1,3-dioxolane	uncertainty
0.738	0.243	0.003
0.494	0.478	0.004
0.362	0.599	0.004
0.273	0.676	0.004
0.161	0.767	0.003
0.13	0.786	0.003

System: heptane + 2,2-dimethyl-1,3-dioxolane + water; phases: Liquid mixture 1, Liquid mixture 2
Fixed: Temperature, K = 293.15
Fixed: Pressure, kPa = 101
Property: Mole fraction of heptane (Liquid mixture 1); method: Chromatography
Property: Mole fraction of heptane (Liquid mixture 2); method: Chromatography
Property: Mole fraction of 2,2-dimethyl-1,3-dioxolane (Liquid mixture 2); method: Chromatography
Mole fraction of 2,2-dimethyl-1,3-dioxolane	Mole fraction of heptane	uncertainty	Mole fraction of heptane	uncertainty	Mole fraction of 2,2-dimethyl-1,3-dioxolane	uncertainty
0.15	0.844	0.002	0.001	0.001	0.011	
0.406	0.574	0.004	0.001	0.001	0.025	
0.495	0.475	0.005	0.001	0.001	0.034	
0.622	0.338	0.004	0.002	0.002	0.037	
0.736	0.197	0.004	0.002	0.002	0.043	
0.802	0		0		0.049	

System: toluene + 2,2-dimethyl-1,3-dioxolane + water; phases: Liquid mixture 1, Liquid mixture 2
Fixed: Temperature, K = 293.15
Fixed: Pressure, kPa = 101.3
Property: Mole fraction of 2,2-dimethyl-1,3-dioxolane (Liquid mixture 1); method: Titration method
Mole fraction of toluene	Mole fraction of 2,2-dimethyl-1,3-dioxolane	uncertainty
0	0.802	0.006
0.002	0.014	0.002
0.002	0.022	0.002
0.005	0.029	0.002
0.003	0.041	0.002
0.002	0.044	0.002
0	0.049	0.002

System: toluene + 2,2-dimethyl-1,3-dioxolane + water; phases: Liquid mixture 1, Liquid mixture 2
Fixed: Temperature, K = 293.15
Fixed: Pressure, kPa = 101.3
Property: Mole fraction of 2,2-dimethyl-1,3-dioxolane (Liquid mixture 1); method: Chromatography
Mole fraction of toluene	Mole fraction of 2,2-dimethyl-1,3-dioxolane	uncertainty
0.892	0.1	0.003
0.685	0.297	0.004
0.516	0.456	0.004
0.391	0.562	0.004
0.096	0.788	0.003
0.05	0.809	0.003
0.022	0.822	0.003

System: toluene + 2,2-dimethyl-1,3-dioxolane + water; phases: Liquid mixture 2, Liquid mixture 1
Fixed: Temperature, K = 293.15
Fixed: Pressure, kPa = 101
Property: Mole fraction of toluene (Liquid mixture 2); method: Chromatography
Property: Mole fraction of toluene (Liquid mixture 1); method: Chromatography
Property: Mole fraction of 2,2-dimethyl-1,3-dioxolane (Liquid mixture 1); method: Chromatography
Mole fraction of 2,2-dimethyl-1,3-dioxolane	Mole fraction of toluene	uncertainty	Mole fraction of toluene	uncertainty	Mole fraction of 2,2-dimethyl-1,3-dioxolane	uncertainty
0.002	0		0.892	0.002	0.1	
0.008	0		0.685	0.004	0.297	
0.013	0		0.516	0.005	0.456	
0.019	0		0.391	0.004	0.562	
0.037	0		0.096	0.002	0.788	
0.049	0		0		0.802	
