Measured thermophysical data. Vapor liquid equilibria of binary tri-potassium citrate +water and ternary polypropylene oxide 400 + tri-potassium citrate +water systems from isopiestic measurements over a range of temperatures
Source: Fluid Phase Equilib., 2007, 10.1016/j.fluid.2007.03.027
Compound 1: potassium citrate, C6H5K3O7, InChI=1S/C6H8O7.3K/c7-3(8)1-6(13,5(11)12)2-4(9)10;;;/h13H,1-2H2,(H,7,8)(H,9,10)(H,11,12);;;/q;3*+1/p-3
Compound 2: water, H2O, InChI=1S/H2O/h1H2

System: potassium citrate + water; phases: Liquid, Gas
Property: (Relative) activity of water (Liquid); method: Isopiestic apparatus
Temperature, K	Molality, mol/kg of potassium citrate	(Relative) activity of water	uncertainty
293.15	0.1614	0.9921	0.006
293.15	0.1888	0.9908	0.006
293.15	0.2374	0.9889	0.006
293.15	0.3521	0.9833	0.006
293.15	0.357	0.9826	0.006
293.15	0.4266	0.979	0.006
293.15	0.4397	0.9785	0.006
293.15	0.4512	0.978	0.006
293.15	0.5179	0.9743	0.006
293.15	0.6173	0.9685	0.006
293.15	0.8472	0.9554	0.006
293.15	1.1894	0.934	0.006
293.15	1.3036	0.9248	0.006
293.15	2.0056	0.8718	0.006
293.15	2.1628	0.8542	0.006
293.15	3.4189	0.7031	0.006
298.15	0.1425	0.9918	0.006
298.15	0.1829	0.9904	0.006
298.15	0.2268	0.9888	0.006
298.15	0.2736	0.9863	0.006
298.15	0.2743	0.9862	0.006
298.15	0.3749	0.9819	0.006
298.15	0.4258	0.979	0.006
298.15	0.5648	0.9712	0.006
298.15	0.6112	0.9675	0.006
298.15	0.9002	0.9531	0.006
298.15	1.2963	0.9289	0.006
298.15	1.5411	0.9089	0.006
298.15	1.9824	0.8744	0.006
298.15	2.4966	0.8333	0.006
298.15	3.0733	0.7901	0.006
298.15	3.3549	0.7531	0.006
298.15	3.4112	0.7516	0.006
303.15	0.1802	0.9909	0.006
303.15	0.2075	0.9884	0.006
303.15	0.2212	0.9881	0.006
303.15	0.2456	0.9878	0.006
303.15	0.2852	0.9855	0.006
303.15	0.3295	0.9834	0.006
303.15	0.3479	0.9825	0.006
303.15	0.4298	0.9785	0.006
303.15	0.4516	0.9773	0.006
303.15	0.4713	0.9754	0.006
303.15	0.5441	0.9723	0.006
303.15	0.664	0.9667	0.006
303.15	0.753	0.9631	0.006
303.15	0.9274	0.9512	0.006
303.15	0.9453	0.9511	0.006
303.15	1.1751	0.9346	0.006
303.15	1.8489	0.8905	0.006
303.15	2.0056	0.8746	0.006
303.15	2.1247	0.8661	0.006
303.15	2.2706	0.8471	0.006
303.15	2.6963	0.8113	0.006
303.15	3.056	0.7816	0.006
308.15	0.1819	0.9908	0.006
308.15	0.2388	0.9873	0.006
308.15	0.3061	0.9845	0.006
308.15	0.3749	0.9798	0.006
308.15	0.3776	0.9807	0.006
308.15	0.6155	0.9687	0.006
308.15	0.6221	0.9685	0.006
308.15	0.6712	0.9644	0.006
308.15	0.7001	0.9645	0.006
308.15	0.8545	0.955	0.006
308.15	0.8673	0.9515	0.006
308.15	1.0093	0.9424	0.006
308.15	1.1496	0.9354	0.006
308.15	1.257	0.9289	0.006
308.15	1.3048	0.9259	0.006
308.15	1.4583	0.9115	0.006
308.15	1.5238	0.9059	0.006
308.15	1.824	0.8844	0.006
308.15	2.0624	0.8619	0.006
308.15	2.0946	0.8663	0.006
308.15	2.1893	0.8562	0.006
308.15	2.3799	0.8433	0.006
308.15	2.8556	0.802	0.006
308.15	2.8796	0.7948	0.006
313.15	0.1348	0.9927	0.006
313.15	0.1455	0.992	0.006
313.15	0.2058	0.9893	0.006
313.15	0.2177	0.9887	0.006
313.15	0.2367	0.9878	0.006
313.15	0.242	0.9872	0.006
313.15	0.2452	0.9876	0.006
313.15	0.325	0.9833	0.006
313.15	0.3616	0.9813	0.006
313.15	0.3996	0.9801	0.006
313.15	0.6748	0.9644	0.006
313.15	0.9561	0.9491	0.006
313.15	1.0167	0.9445	0.006
313.15	1.1888	0.9373	0.006
313.15	1.309	0.926	0.006
313.15	1.5218	0.9095	0.006
313.15	1.9904	0.8704	0.006
313.15	2.0072	0.8696	0.006
313.15	2.2502	0.8465	0.006
313.15	2.7024	0.8144	0.006
313.15	2.8351	0.8014	0.006
313.15	3.2232	0.7699	0.006
313.15	3.4579	0.7507	0.006
