Measured thermophysical data. Thermo-physical properties of ammonium-based ionic liquid + N-methyl-2-pyrrolidone mixtures at 298.15 K
Source: Fluid Phase Equilib., 2014, 10.1016/j.fluid.2014.09.031
Compound 1: N-methylpyrrolidone, C5H9NO, InChI=1S/C5H9NO/c1-6-4-2-3-5(6)7/h2-4H2,1H3, purity 99.5%
Compound 2: ethylammonium nitrate, C2H8N2O3, InChI=1S/C2H7N.NO3/c1-2-3;2-1(3)4/h2-3H2,1H3;/q;-1/p+1, purity 97%
Compound 3: propylammonium nitrate, C3H10N2O3, InChI=1S/C3H9N.NO3/c1-2-3-4;2-1(3)4/h2-4H2,1H3;/q;-1/p+1, purity 97%
Compound 4: n-butylammonium nitrate, C4H12N2O3, InChI=1S/C4H11N.NO3/c1-2-3-4-5;2-1(3)4/h2-5H2,1H3;/q;-1/p+1, purity 97%
Compound 5: 2-methoxyethylammonium nitrate, C3H10N2O4, InChI=1S/C3H9NO.HNO3/c1-5-3-2-4;2-1(3)4/h2-4H2,1H3;(H,2,3,4), purity 97%

System: N-methylpyrrolidone + ethylammonium nitrate; phases: Liquid
Fixed: Temperature, K = 298.15
Fixed: Pressure, kPa = 101
Property: Mass density, kg/m3 (Liquid); method: Vibrating tube method
Mole fraction of ethylammonium nitrate	Mass density, kg/m3	uncertainty
0	1028.25	0.13
0.049	1040.83	0.16
0.138	1059.94	0.22
0.166	1065.8	0.25
0.223	1076.59	0.32
0.242	1080.27	0.35
0.292	1089.23	0.43
0.347	1098.75	0.52
0.457	1116.43	0.75
0.413	1109.61	0.66
0.48	1119.62	0.81
0.54	1129.36	0.96
0.592	1137.95	1.11
0.63	1143.72	1.23
0.684	1153.22	1.41
0.763	1167.68	1.7
0.83	1179.62	1.98
0.981	1207.67	2.73
0.915	1195.54	2.38
1	1210.76	2.83

System: N-methylpyrrolidone + propylammonium nitrate; phases: Liquid
Fixed: Temperature, K = 298.15
Fixed: Pressure, kPa = 101
Property: Mass density, kg/m3 (Liquid); method: Vibrating tube method
Mole fraction of propylammonium nitrate	Mass density, kg/m3	uncertainty
0	1028.25	0.13
0.046	1038.38	0.15
0.202	1064.53	0.29
0.167	1059.42	0.24
0.263	1073.3	0.37
0.329	1081.53	0.47
0.406	1090.6	0.61
0.461	1096.52	0.73
0.551	1105.72	0.94
0.661	1116.42	1.25
0.628	1113.18	1.15
0.721	1122.67	1.44
0.582	1108.68	1.02
0.781	1128.74	1.64
0.862	1136.73	1.95
0.808	1130.96	1.74

System: N-methylpyrrolidone + n-butylammonium nitrate; phases: Liquid
Fixed: Temperature, K = 298.15
Fixed: Pressure, kPa = 101
Property: Mass density, kg/m3 (Liquid); method: Vibrating tube method
Mole fraction of n-butylammonium nitrate	Mass density, kg/m3	uncertainty
0	1028.25	0.13
0.048	1036.44	0.15
0.108	1044.94	0.19
0.163	1051.72	0.24
0.267	1062.31	0.36
0.365	1069.91	0.51
0.439	1074.93	0.65
0.538	1080.43	0.86
0.67	1088.06	1.2
0.843	1097.2	1.74
1	1105.49	2.34

System: N-methylpyrrolidone + 2-methoxyethylammonium nitrate; phases: Liquid
Fixed: Temperature, K = 298.15
Fixed: Pressure, kPa = 101
Property: Mass density, kg/m3 (Liquid); method: Vibrating tube method
Mole fraction of 2-methoxyethylammonium nitrate	Mass density, kg/m3	uncertainty
0	1028.25	0.13
0.053	1044.9	0.16
0.109	1061.24	0.2
0.173	1078.65	0.27
0.208	1087.71	0.31
0.367	1125.26	0.59
0.448	1142.99	0.78
0.564	1166.98	1.1
0.67	1188.5	1.46
0.694	1193.51	1.55
0.873	1228.36	2.34
0.963	1245.95	2.82
1	1253.24	3.04
