Measured thermophysical data. Isothermal vapor liquid equilibrium at 303.15K and excess molar volumes at 298.15 K for the ternary system of propyl vinyl ether + 1-propanol + 2,2,4-trimethyl-pentane and its binary sub-systems
Source: Fluid Phase Equilib., 2007, 10.1016/j.fluid.2007.07.002
Compound 1: propan-1-ol, C3H8O, InChI=1S/C3H8O/c1-2-3-4/h4H,2-3H2,1H3
Compound 2: propyl vinyl ether, C5H10O, InChI=1S/C5H10O/c1-3-5-6-4-2/h4H,2-3,5H2,1H3
Compound 3: 2,2,4-trimethylpentane, C8H18, InChI=1S/C8H18/c1-7(2)6-8(3,4)5/h7H,6H2,1-5H3

System: propan-1-ol + propyl vinyl ether; phases: Liquid
Fixed: Temperature, K = 298.15
Fixed: Pressure, kPa = 101
Property: Mass density, kg/m3 (Liquid); method: VIBTUB:UFactor:2
Mole fraction of propyl vinyl ether	Mass density, kg/m3	uncertainty
0.051	798.7	0.3
0.1008	796.3	0.3
0.2001	791.7	0.3
0.2995	787.3	0.3
0.4016	782.9	0.3
0.4983	779.1	0.3
0.5999	775.3	0.3
0.7013	771.8	0.3
0.7977	768.7	0.3
0.8977	765.7	0.3
0.9507	764.3	0.3

System: propan-1-ol + propyl vinyl ether; phases: Gas, Liquid
Fixed: Temperature, K = 303.15
Property: Mole fraction of propyl vinyl ether (Gas); method: CHROM:UFactor:8
Mole fraction of propyl vinyl ether	Mole fraction of propyl vinyl ether	uncertainty
0.02	0.3833	0.0285
0.0397	0.5389	0.0343
0.0598	0.6248	0.0279
0.0801	0.6854	0.0234
0.1195	0.7507	0.0185
0.1688	0.8005	0.0148
0.2294	0.8329	0.0124
0.2888	0.852	0.011
0.3493	0.8672	0.0099
0.4097	0.8784	0.009
0.4691	0.8849	0.0086
0.5293	0.8918	0.008
0.5889	0.8998	0.0075
0.6497	0.9088	0.0068
0.7088	0.9111	0.0066
0.7704	0.918	0.0061
0.8311	0.9303	0.0052
0.8807	0.9387	0.0046
0.9208	0.9484	0.0038
0.939	0.9543	0.0034
0.9604	0.9637	0.0027
0.9804	0.9761	0.0018

System: propan-1-ol + 2,2,4-trimethylpentane; phases: Liquid
Fixed: Temperature, K = 298.15
Fixed: Pressure, kPa = 101
Property: Mass density, kg/m3 (Liquid); method: VIBTUB:UFactor:2
Mole fraction of propan-1-ol	Mass density, kg/m3	uncertainty
0.0531	690.2	0.4
0.098	692.4	0.4
0.1986	698.3	0.3
0.2981	705.1	0.3
0.3987	713.1	0.3
0.4987	722.3	0.3
0.5987	732.9	0.3
0.6994	745.8	0.3
0.8007	761	0.3
0.9	779.2	0.3
0.9499	789.6	0.3

System: propan-1-ol + 2,2,4-trimethylpentane; phases: Gas, Liquid
Fixed: Temperature, K = 303.15
Property: Mole fraction of propan-1-ol (Gas); method: CHROM:UFactor:3
Mole fraction of propan-1-ol	Mole fraction of propan-1-ol	uncertainty
0.0223	0.1552	0.0043
0.0394	0.1771	0.0049
0.059	0.1943	0.0054
0.0794	0.2084	0.0058
0.1188	0.2292	0.0064
0.1702	0.2452	0.0068
0.2292	0.2558	0.0071
0.2896	0.2617	0.0073
0.3515	0.2723	0.0076
0.4095	0.2746	0.0077
0.4702	0.2845	0.0079
0.5297	0.2925	0.0082
0.5894	0.2967	0.0083
0.6497	0.3073	0.0086
0.7106	0.3226	0.009
0.7707	0.3444	0.0096
0.8298	0.3776	0.0105
0.8804	0.4284	0.012
0.92	0.5031	0.0139
0.9404	0.5579	0.0124
0.9604	0.6394	0.0101
0.9797	0.7595	0.0068

System: 2,2,4-trimethylpentane + propyl vinyl ether; phases: Liquid
Fixed: Temperature, K = 298.15
Fixed: Pressure, kPa = 101
Property: Mass density, kg/m3 (Liquid); method: VIBTUB:UFactor:2
Mole fraction of propyl vinyl ether	Mass density, kg/m3	uncertainty
0.0468	690	0.4
0.1011	692.6	0.4
0.1999	697.5	0.3
0.2997	703	0.3
0.399	709	0.3
0.5009	715.9	0.3
0.6008	723.4	0.3
0.7005	731.6	0.3
0.7997	740.8	0.3
0.8991	751.2	0.3
0.9507	757.1	0.3

System: 2,2,4-trimethylpentane + propyl vinyl ether; phases: Gas, Liquid
Fixed: Temperature, K = 303.15
Property: Mole fraction of propyl vinyl ether (Gas); method: CHROM:UFactor:4
Mole fraction of propyl vinyl ether	Mole fraction of propyl vinyl ether	uncertainty
0.0199	0.0852	0.0032
0.0393	0.1546	0.0058
0.0599	0.2191	0.0082
0.0804	0.2715	0.0101
0.1199	0.3636	0.0135
0.1691	0.4509	0.0168
0.2291	0.536	0.0173
0.2897	0.6061	0.0147
0.3489	0.658	0.0127
0.4085	0.7046	0.011
0.4687	0.7443	0.0095
0.5288	0.7865	0.0079
0.5886	0.8182	0.0068
0.6503	0.8493	0.0056
0.7093	0.8756	0.0046
0.7698	0.9024	0.0036
0.8293	0.9273	0.0027
0.8802	0.9484	0.0019
0.919	0.965	0.0013
0.9406	0.9741	0.001
0.9592	0.9822	0.0007
0.9798	0.9911	0.0004

System: propan-1-ol + 2,2,4-trimethylpentane + propyl vinyl ether; phases: Liquid
Fixed: Temperature, K = 298.15
Fixed: Pressure, kPa = 101
Property: Mass density, kg/m3 (Liquid); method: VIBTUB:UFactor:2
Mole fraction of propyl vinyl ether	Mole fraction of propan-1-ol	Mass density, kg/m3	uncertainty
0.0195	0.8008	764.34	0.37
0.0232	0.181	698.51	0.42
0.0274	0.0716	692.5	0.43
0.0294	0.6994	749.11	0.38
0.0296	0.9005	784.34	0.36
0.0303	0.2695	704.93	0.42
0.0385	0.6018	737.08	0.39
0.0408	0.3585	712.54	0.41
0.0516	0.4505	721.53	0.4
0.0591	0.5419	731.86	0.4
0.069	0.0288	692.24	0.43
0.0694	0.9013	791.47	0.35
0.0898	0.2079	704.24	0.42
0.0912	0.7003	756.75	0.38
0.0989	0.103	697.8	0.42
0.0994	0.8005	775.16	0.36
0.1196	0.5999	745.38	0.38
0.122	0.2776	711.49	0.41
0.1488	0.5011	735.76	0.39
0.1492	0.7015	764.72	0.37
0.1497	0.3506	719.83	0.4
0.1515	0.1472	703.58	0.42
0.18	0.419	729.23	0.4
0.1806	0.8001	788.54	0.35
0.1808	0.0194	697.32	0.42
0.1993	0.2002	710.15	0.41
0.2007	0.6004	754.95	0.38
0.211	0.0892	703.27	0.42
0.2115	0.698	772.92	0.36
0.2491	0.5002	746.07	0.38
0.2493	0.2501	718.19	0.41
0.2683	0.0336	703.07	0.42
0.2708	0.6988	782.31	0.36
0.2787	0.6003	765.09	0.37
0.281	0.1177	709.58	0.41
0.3008	0.3988	738.3	0.39
0.3014	0.2976	727.12	0.4
0.3486	0.1523	717.12	0.41
0.3491	0.5011	758.15	0.38
0.3593	0.042	709.2	0.41
0.36	0.6007	776.94	0.36
0.3998	0.2999	736.43	0.39
0.3999	0.0628	713.46	0.41
0.4014	0.1767	723.42	0.4
0.4195	0.4006	751.5	0.38
0.4501	0.5006	771.7	0.37
0.4996	0.0496	719.61	0.4
0.5004	0.1489	729.03	0.4
0.5014	0.2487	740.37	0.39
0.5019	0.3487	753.78	0.38
0.5388	0.4018	766.93	0.37
0.5991	0.0396	726.64	0.4
0.5995	0.3596	768.18	0.37
0.6002	0.1999	744.57	0.38
0.6009	0.2792	755.56	0.38
0.6019	0.1176	734.91	0.39
0.6972	0.033	734.58	0.39
0.6997	0.0908	741.4	0.39
0.7006	0.2707	766.98	0.37
0.701	0.1486	748.77	0.38
0.701	0.2089	757.25	0.38
0.7994	0.0211	743.13	0.39
0.7999	0.1807	765.48	0.37
0.8022	0.0989	753.47	0.38
0.8973	0.0326	755.31	0.38
0.898	0.0719	761.03	0.37

System: propan-1-ol + 2,2,4-trimethylpentane + propyl vinyl ether; phases: Gas, Liquid
Fixed: Temperature, K = 303.15
Property: Mole fraction of propan-1-ol (Gas); method: CHROM:UFactor:4
Mole fraction of propyl vinyl ether	Mole fraction of propan-1-ol	Mole fraction of propan-1-ol	uncertainty
0.0194	0.8007	0.3396	0.0126
0.0206	0.1814	0.2406	0.0089
0.029	0.7007	0.2885	0.0107
0.0303	0.8998	0.4934	0.0184
0.0304	0.2708	0.2472	0.0092
0.0314	0.0682	0.1939	0.0072
0.0394	0.6002	0.2651	0.0099
0.0403	0.3592	0.2471	0.0092
0.0499	0.4502	0.2428	0.009
0.0594	0.5397	0.241	0.009
0.0696	0.0302	0.1411	0.0052
0.0706	0.9001	0.3256	0.0121
0.0896	0.2102	0.2058	0.0077
0.0902	0.6998	0.2438	0.0091
0.1002	0.1009	0.1769	0.0066
0.1005	0.8001	0.2488	0.0093
0.1188	0.2811	0.1993	0.0074
0.1203	0.5994	0.2112	0.0079
0.1491	0.3504	0.1896	0.0071
0.1494	0.1487	0.1715	0.0064
0.1494	0.7008	0.2041	0.0076
0.1498	0.4999	0.1965	0.0073
0.1789	0.0206	0.0925	0.0034
0.1794	0.42	0.1813	0.0067
0.1807	0.7999	0.2025	0.0075
0.1991	0.6001	0.1797	0.0067
0.1995	0.2001	0.1639	0.0061
0.2097	0.7	0.181	0.0067
0.2102	0.0918	0.138	0.0051
0.2118	0.2381	0.088	0.0034
0.2493	0.2512	0.155	0.0058
0.2501	0.5001	0.1632	0.0061
0.2655	0.2915	0.0828	0.0031
0.2701	0.7003	0.1635	0.0061
0.2789	0.1208	0.1312	0.0049
0.2792	0.6012	0.1587	0.0059
0.2991	0.3013	0.1449	0.0054
0.3001	0.3992	0.1503	0.0056
0.3489	0.501	0.1426	0.0053
0.3491	0.1511	0.1228	0.0046
0.36	0.5998	0.1412	0.0053
0.3993	0.18	0.1188	0.0044
0.3998	0.3005	0.1287	0.0048
0.4002	0.061	0.0895	0.0033
0.4191	0.4005	0.1314	0.0049
0.4495	0.5004	0.1277	0.0047
0.499	0.0503	0.0733	0.0027
0.4992	0.3504	0.116	0.0043
0.5003	0.1492	0.1024	0.0038
0.5006	0.2496	0.1123	0.0042
0.5403	0.4002	0.1171	0.0044
0.5987	0.2008	0.0942	0.0035
0.5995	0.2805	0.1009	0.0038
0.5996	0.0395	0.0583	0.0022
0.5998	0.3605	0.105	0.0039
0.6005	0.1192	0.0853	0.0032
0.6988	0.1511	0.0813	0.003
0.6998	0.2704	0.0899	0.0033
0.6999	0.2108	0.0867	0.0032
0.7007	0.0895	0.0711	0.0026
0.7011	0.0289	0.0429	0.0016
0.7982	0.021	0.0313	0.0012
0.7997	0.0998	0.0666	0.0025
0.7999	0.1792	0.0774	0.0029
0.9002	0.0694	0.0532	0.002
0.9016	0.0288	0.0339	0.0013

System: propan-1-ol + 2,2,4-trimethylpentane + propyl vinyl ether; phases: Gas, Liquid
Fixed: Temperature, K = 303.15
Property: Mole fraction of propyl vinyl ether (Gas); method: CHROM:UFactor:4
Mole fraction of propyl vinyl ether	Mole fraction of propan-1-ol	Mole fraction of propyl vinyl ether	uncertainty
0.0194	0.8007	0.1368	0.0052
0.0206	0.1814	0.0697	0.0026
0.029	0.7007	0.1624	0.0061
0.0303	0.8998	0.233	0.0088
0.0304	0.2708	0.1037	0.0039
0.0314	0.0682	0.1037	0.0039
0.0394	0.6002	0.1811	0.0068
0.0403	0.3592	0.1454	0.0054
0.0499	0.4502	0.191	0.0071
0.0594	0.5397	0.2394	0.0089
0.0696	0.0302	0.2082	0.0078
0.0706	0.9001	0.5511	0.0168
0.0896	0.2102	0.2568	0.0096
0.0902	0.6998	0.3893	0.0145
0.1002	0.1009	0.2705	0.0101
0.1005	0.8001	0.5118	0.0182
0.1188	0.2811	0.3285	0.0122
0.1203	0.5994	0.422	0.0157
0.1491	0.3504	0.3995	0.0149
0.1494	0.1487	0.3655	0.0136
0.1494	0.7008	0.5534	0.0166
0.1498	0.4999	0.4409	0.0164
0.1789	0.0206	0.4219	0.0157
0.1794	0.42	0.4662	0.0173
0.1807	0.7999	0.7533	0.0092
0.1991	0.6001	0.5802	0.0156
0.1995	0.2001	0.4461	0.0166
0.2097	0.7	0.6789	0.012
0.2102	0.0918	0.4514	0.0168
0.2118	0.2381	0.5321	0.0174
0.2493	0.2512	0.5194	0.0179
0.2501	0.5001	0.6014	0.0148
0.2655	0.2915	0.6146	0.0143
0.2701	0.7003	0.7906	0.0078
0.2789	0.1208	0.5318	0.0174
0.2792	0.6012	0.7021	0.0111
0.2991	0.3013	0.5889	0.0153
0.3001	0.3992	0.6185	0.0142
0.3489	0.501	0.7195	0.0104
0.3491	0.1511	0.6049	0.0147
0.36	0.5998	0.8118	0.007
0.3993	0.18	0.6495	0.013
0.3998	0.3005	0.6789	0.0119
0.4002	0.061	0.6502	0.013
0.4191	0.4005	0.7328	0.0099
0.4495	0.5004	0.8259	0.0065
0.499	0.0503	0.7215	0.0104
0.4992	0.3504	0.7807	0.0082
0.5003	0.1492	0.7169	0.0105
0.5006	0.2496	0.7409	0.0096
0.5403	0.4002	0.8375	0.006
0.5987	0.2008	0.7998	0.0074
0.5995	0.2805	0.8261	0.0065
0.5996	0.0395	0.7842	0.008
0.5998	0.3605	0.867	0.005
0.6005	0.1192	0.7784	0.0082
0.6988	0.1511	0.8439	0.0058
0.6998	0.2704	0.8917	0.004
0.6999	0.2108	0.8642	0.0051
0.7007	0.0895	0.8327	0.0062
0.7011	0.0289	0.8346	0.0062
0.7982	0.021	0.8873	0.0042
0.7997	0.0998	0.8856	0.0043
0.7999	0.1792	0.9113	0.0033
0.9002	0.0694	0.9326	0.0025
0.9016	0.0288	0.9352	0.0024
