Measured thermophysical data. Solubility of pyrene in simple and mixed solvent systems
Source: Fluid Phase Equilib., 2009, 10.1016/j.fluid.2009.04.007
Compound 1: ethylbenzene, C8H10, InChI=1S/C8H10/c1-2-8-6-4-3-5-7-8/h3-7H,2H2,1H3
Compound 2: pyrene, C16H10, InChI=1S/C16H10/c1-3-11-7-9-13-5-2-6-14-10-8-12(4-1)15(11)16(13)14/h1-10H, purity 97%
Compound 3: benzene, C6H6, InChI=1S/C6H6/c1-2-4-6-5-3-1/h1-6H
Compound 4: hexane, C6H14, InChI=1S/C6H14/c1-3-5-6-4-2/h3-6H2,1-2H3
Compound 5: hexan-1-ol, C6H14O, InChI=1S/C6H14O/c1-2-3-4-5-6-7/h7H,2-6H2,1H3
Compound 6: methylcyclohexane, C7H14, InChI=1S/C7H14/c1-7-5-3-2-4-6-7/h7H,2-6H2,1H3

System: ethylbenzene + pyrene; phases: Liquid, Crystal
Fixed: Pressure, kPa = 101
Property: Mole fraction of pyrene (Liquid); method: Equilibrating pyrene with each solvent system by shaking the bottles in a constant temperature water bath for at least 72h followed by a settling step for the same period of time
Temperature, K	Mole fraction of pyrene	uncertainty
293	0.0651	0.0039
298	0.0776	0.0047
303	0.0944	0.0057
308	0.1224	0.0074
313	0.1647	0.0099
318	0.171	0.0103

System: benzene + pyrene; phases: Liquid, Crystal
Fixed: Pressure, kPa = 101
Property: Mole fraction of pyrene (Liquid); method: Equilibrating pyrene with each solvent system by shaking the bottles in a constant temperature water bath for at least 72h followed by a settling step for the same period of time
Temperature, K	Mole fraction of pyrene	uncertainty
293	0.0584	0.0035
298	0.071	0.0043
303	0.0849	0.0051
308	0.1064	0.0064
313	0.1313	0.0079
318	0.1617	0.0098

System: hexane + pyrene; phases: Liquid, Crystal
Fixed: Pressure, kPa = 101
Property: Mole fraction of pyrene (Liquid); method: Equilibrating pyrene with each solvent system by shaking the bottles in a constant temperature water bath for at least 72h followed by a settling step for the same period of time
Temperature, K	Mole fraction of pyrene	uncertainty
293	0.01	0.0006
298	0.0104	0.0006
303	0.0123	0.0007
308	0.0129	0.0008
313	0.0157	0.0009
318	0.0181	0.0011

System: hexan-1-ol + pyrene; phases: Liquid, Crystal
Fixed: Pressure, kPa = 101
Property: Mole fraction of pyrene (Liquid); method: Equilibrating pyrene with each solvent system by shaking the bottles in a constant temperature water bath for at least 72h followed by a settling step for the same period of time
Temperature, K	Mole fraction of pyrene	uncertainty
293	0.0137	0.0008
298	0.0143	0.0009
303	0.0159	0.001
308	0.0183	0.0011
313	0.0212	0.0013
318	0.0237	0.0014

System: methylcyclohexane + pyrene; phases: Liquid, Crystal
Fixed: Pressure, kPa = 101
Property: Mole fraction of pyrene (Liquid); method: Equilibrating pyrene with each solvent system by shaking the bottles in a constant temperature water bath for at least 72h followed by a settling step for the same period of time
Temperature, K	Mole fraction of pyrene	uncertainty
293	0.015	0.0009
298	0.0158	0.001
303	0.0186	0.0011
308	0.0237	0.0014
313	0.0277	0.0017
318	0.0289	0.0017

System: benzene + ethylbenzene + pyrene; phases: Liquid, Crystal
Fixed: Pressure, kPa = 1
Property: Mole fraction of pyrene (Liquid); method: Equilibrating pyrene with each solvent system by shaking the bottles in a constant temperature water bath for at least 72h followed by a settling step for the same period of time
Solvent: Volume fraction of benzene	Temperature, K	Mole fraction of pyrene	uncertainty
0.1	293	0.0637	0.0038
0.1	298	0.0768	0.0046
0.1	303	0.0923	0.0056
0.1	308	0.1185	0.0072
0.1	313	0.1598	0.0097
0.1	318	0.1695	0.0102
0.5	293	0.0615	0.0037
0.5	298	0.0749	0.0045
0.5	303	0.0914	0.0055
0.5	308	0.1138	0.0069
0.5	313	0.1487	0.009
0.5	318	0.1666	0.0101
0.9	293	0.0599	0.0036
0.9	298	0.0721	0.0044
0.9	303	0.0871	0.0053
0.9	308	0.1103	0.0067
0.9	313	0.1371	0.0083
0.9	318	0.1623	0.0098

System: benzene + hexane + pyrene; phases: Liquid, Crystal
Fixed: Pressure, kPa = 1
Property: Mole fraction of pyrene (Liquid); method: Equilibrating pyrene with each solvent system by shaking the bottles in a constant temperature water bath for at least 72h followed by a settling step for the same period of time
Solvent: Volume fraction of benzene	Temperature, K	Mole fraction of pyrene	uncertainty
0.1	293	0.0135	0.0008
0.1	298	0.0158	0.001
0.1	303	0.0167	0.001
0.1	308	0.0194	0.0012
0.1	313	0.0242	0.0015
0.1	318	0.0308	0.0019
0.3	293	0.0203	0.0012
0.3	298	0.0253	0.0015
0.3	303	0.0293	0.0018
0.3	308	0.0305	0.0018
0.3	313	0.0344	0.0021
0.3	318	0.0457	0.0028
0.5	293	0.0324	0.002
0.5	298	0.0401	0.0024
0.5	303	0.0437	0.0026
0.5	308	0.055	0.003
0.5	313	0.0632	0.0038
0.5	318	0.0742	0.0045
0.7	293	0.0438	0.0026
0.7	298	0.0514	0.0031
0.7	303	0.0555	0.0033
0.7	308	0.0693	0.0042
0.7	313	0.0825	0.005
0.7	318	0.1012	0.0061
0.9	293	0.0503	0.003
0.9	298	0.0578	0.0035
0.9	303	0.0626	0.0038
0.9	308	0.075	0.005
0.9	313	0.0901	0.0054
0.9	318	0.1082	0.0065

System: benzene + hexan-1-ol + pyrene; phases: Liquid, Crystal
Fixed: Pressure, kPa = 1
Property: Mole fraction of pyrene (Liquid); method: Equilibrating pyrene with each solvent system by shaking the bottles in a constant temperature water bath for at least 72h followed by a settling step for the same period of time
Solvent: Volume fraction of benzene	Temperature, K	Mole fraction of pyrene	uncertainty
0.1	293	0.017	0.0002
0.1	298	0.0231	0.0002
0.1	303	0.0245	0.0002
0.1	308	0.0254	0.0002
0.1	313	0.0283	0.0002
0.1	318	0.0393	0.0003
0.3	293	0.0215	0.0001
0.3	298	0.0307	0.0002
0.3	303	0.0323	0.0002
0.3	308	0.0344	0.0002
0.3	313	0.0408	0.0003
0.3	318	0.05	0.0003
0.5	293	0.0353	0.0002
0.5	298	0.046	0.0004
0.5	303	0.0513	0.0004
0.5	308	0.0592	0.0005
0.5	313	0.07	0.0005
0.5	318	0.0782	0.0006
0.7	293	0.0458	0.0003
0.7	298	0.0536	0.0004
0.7	303	0.0644	0.0005
0.7	308	0.0706	0.0006
0.7	313	0.0948	0.0008
0.7	318	0.1124	0.0009
0.9	293	0.0509	0.0004
0.9	298	0.0604	0.0005
0.9	303	0.0673	0.0005
0.9	308	0.0822	0.0007
0.9	313	0.1063	0.001
0.9	318	0.1346	0.0013

System: benzene + methylcyclohexane + pyrene; phases: Liquid, Crystal
Fixed: Pressure, kPa = 1
Property: Mole fraction of pyrene (Liquid); method: Equilibrating pyrene with each solvent system by shaking the bottles in a constant temperature water bath for at least 72h followed by a settling step for the same period of time
Solvent: Volume fraction of benzene	Temperature, K	Mole fraction of pyrene	uncertainty
0.1	293	0.0173	0.0002
0.1	298	0.0235	0.0002
0.1	303	0.0261	0.0002
0.1	308	0.0295	0.0002
0.1	313	0.0355	0.0003
0.1	318	0.0415	0.0003
0.3	293	0.0254	0.0002
0.3	298	0.0343	0.0003
0.3	303	0.0357	0.0002
0.3	308	0.0394	0.0003
0.3	313	0.042	0.0003
0.3	318	0.0526	0.0004
0.5	293	0.0359	0.0002
0.5	298	0.0491	0.0004
0.5	303	0.0544	0.0004
0.5	308	0.0625	0.0005
0.5	313	0.0734	0.0006
0.5	318	0.0844	0.0006
0.7	293	0.0485	0.0003
0.7	298	0.0586	0.0004
0.7	303	0.0663	0.0005
0.7	308	0.0819	0.0007
0.7	313	0.1061	0.0009
0.7	318	0.1198	0.001
0.9	293	0.0521	0.0004
0.9	298	0.0623	0.0005
0.9	303	0.0699	0.0006
0.9	308	0.095	0.0009
0.9	313	0.1159	0.001
0.9	318	0.1375	0.0013

System: ethylbenzene + hexane + pyrene; phases: Liquid, Crystal
Fixed: Pressure, kPa = 1
Property: Mole fraction of pyrene (Liquid); method: Equilibrating pyrene with each solvent system by shaking the bottles in a constant temperature water bath for at least 72h followed by a settling step for the same period of time
Solvent: Volume fraction of ethylbenzene	Temperature, K	Mole fraction of pyrene	uncertainty
0.1	293	0.014	0.0001
0.1	298	0.0165	0.0001
0.1	303	0.0173	0.0001
0.1	308	0.0202	0.0002
0.1	313	0.0251	0.0002
0.1	318	0.032	0.0003
0.3	293	0.0227	0.0002
0.3	298	0.0281	0.0002
0.3	303	0.0326	0.0002
0.3	308	0.0339	0.0002
0.3	313	0.0383	0.0003
0.3	318	0.0508	0.0003
0.5	293	0.0384	0.0003
0.5	298	0.0473	0.0003
0.5	303	0.0517	0.0004
0.5	308	0.0649	0.0005
0.5	313	0.0744	0.0006
0.5	318	0.0871	0.0006
0.7	293	0.05	0.0003
0.7	298	0.0578	0.0004
0.7	303	0.0628	0.0005
0.7	308	0.0703	0.0006
0.7	313	0.0937	0.0008
0.7	318	0.1049	0.0008
0.9	293	0.0601	0.0004
0.9	298	0.0663	0.0005
0.9	303	0.0756	0.0006
0.9	308	0.085	0.0007
0.9	313	0.1071	0.0009
0.9	318	0.1231	0.001

System: ethylbenzene + hexan-1-ol + pyrene; phases: Liquid, Crystal
Fixed: Pressure, kPa = 1
Property: Mole fraction of pyrene (Liquid); method: Equilibrating pyrene with each solvent system by shaking the bottles in a constant temperature water bath for at least 72h followed by a settling step for the same period of time
Solvent: Volume fraction of ethylbenzene	Temperature, K	Mole fraction of pyrene	uncertainty
0.1	293	0.0209	0.0013
0.1	298	0.024	0.0014
0.1	303	0.0254	0.0015
0.1	308	0.0263	0.0016
0.1	313	0.0294	0.0018
0.1	318	0.0407	0.0025
0.3	293	0.0299	0.0018
0.3	298	0.034	0.002
0.3	303	0.0357	0.0021
0.3	308	0.038	0.0023
0.3	313	0.0452	0.0027
0.3	318	0.0553	0.0033
0.5	293	0.0419	0.0025
0.5	298	0.051	0.0031
0.5	303	0.0571	0.0034
0.5	308	0.0664	0.004
0.5	313	0.0851	0.0051
0.5	318	0.1072	0.0065
0.7	293	0.057	0.0034
0.7	298	0.0666	0.004
0.7	303	0.0724	0.0044
0.7	308	0.0873	0.0053
0.7	313	0.1037	0.0063
0.7	318	0.1229	0.0074
0.9	293	0.0629	0.0038
0.9	298	0.0721	0.0043
0.9	303	0.0783	0.0047
0.9	308	0.0908	0.0055
0.9	313	0.1129	0.0068
0.9	318	0.1355	0.0082

System: ethylbenzene + methylcyclohexane + pyrene; phases: Liquid, Crystal
Fixed: Pressure, kPa = 1
Property: Mole fraction of pyrene (Liquid); method: Equilibrating pyrene with each solvent system by shaking the bottles in a constant temperature water bath for at least 72h followed by a settling step for the same period of time
Solvent: Volume fraction of ethylbenzene	Temperature, K	Mole fraction of pyrene	uncertainty
0.1	293	0.0244	0.0015
0.1	298	0.0306	0.0018
0.1	303	0.0337	0.002
0.1	308	0.0368	0.0022
0.1	313	0.0399	0.0024
0.1	318	0.043	0.0026
0.3	293	0.0334	0.002
0.3	298	0.0396	0.0024
0.3	303	0.0427	0.0026
0.3	308	0.0473	0.0028
0.3	313	0.052	0.0031
0.3	318	0.0613	0.0037
0.5	293	0.0454	0.0027
0.5	298	0.0547	0.0033
0.5	303	0.0609	0.0037
0.5	308	0.0702	0.0042
0.5	313	0.0892	0.0054
0.5	318	0.1116	0.0067
0.7	293	0.0589	0.0035
0.7	298	0.0697	0.0042
0.7	303	0.0744	0.0045
0.7	308	0.0917	0.0055
0.7	313	0.1076	0.0065
0.7	318	0.1269	0.0076
0.9	293	0.063	0.0038
0.9	298	0.0754	0.0045
0.9	303	0.0816	0.0049
0.9	308	0.0973	0.0059
0.9	313	0.1196	0.0072
0.9	318	0.139	0.0084
