Measured thermophysical data. LLE for the systems ethyl palmitate (palmiticacid)(1) + ethanol(2) + glycerol (water)(3)
Source: Fluid Phase Equilib., 2013, 10.1016/j.fluid.2013.06.027
Compound 1: ethanol, C2H6O, InChI=1S/C2H6O/c1-2-3/h3H,2H2,1H3, purity 99.8%
Compound 2: glycerol, C3H8O3, InChI=1S/C3H8O3/c4-1-3(6)2-5/h3-6H,1-2H2, purity 99.5%
Compound 3: hexadecanoic acid, C16H32O2, InChI=1S/C16H32O2/c1-2-3-4-5-6-7-8-9-10-11-12-13-14-15-16(17)18/h2-15H2,1H3,(H,17,18), purity 98%
Compound 4: ethyl hexadecanoate, C18H36O2, InChI=1S/C18H36O2/c1-3-5-6-7-8-9-10-11-12-13-14-15-16-17-18(19)20-4-2/h3-17H2,1-2H3, purity 95%
Compound 5: water, H2O, InChI=1S/H2O/h1H2, purity 99.8%

System: ethanol + ethyl hexadecanoate + water; phases: Liquid
Fixed: Temperature, K = 328.15
Fixed: Pressure, kPa = 101
Property: Refractive index (Na D-line) (Liquid); method: ABBE:mixvol
Mass fraction of ethyl hexadecanoate	Mass fraction of ethanol	Refractive index (Na D-line)	uncertainty
0.8978	0.0822	1.4217	0.0012
0.703	0.2792	1.4037	0.001
0.5156	0.4558	1.3898	0.0009
0.3012	0.6439	1.3732	0.0008
0.1324	0.775	1.361	0.0008
0.0837	0.7826	1.3573	0.0008
0.0264	0.7721	1.3552	0.0008
0.0087	0.6542	1.3533	0.0008
0.0063	0.4983	1.3512	0.0008
0.0038	0.2551	1.3433	0.0008
0.0032	0.0948	1.3343	0.0008

System: ethanol + ethyl hexadecanoate + water; phases: Liquid
Fixed: Temperature, K = 328.15
Fixed: Pressure, kPa = 101
Property: Mass density, kg/m3 (Liquid); method: Vibrating tube method
Mass fraction of ethyl hexadecanoate	Mass fraction of ethanol	Mass density, kg/m3	uncertainty
0.8978	0.0822	830.259	3.243
0.703	0.2792	816.338	2.136
0.5156	0.4558	807.015	1.464
0.3012	0.6439	799.489	1.097
0.1324	0.775	792.236	1.022
0.0837	0.7826	799.862	1.025
0.0264	0.7721	813.289	1.036
0.0087	0.6542	846.183	1.067
0.0063	0.4983	884.25	1.106
0.0038	0.2551	938.468	1.162
0.0032	0.0948	967.758	1.191

System: ethanol + ethyl hexadecanoate + water; phases: Liquid mixture 1, Liquid mixture 2
Fixed: Pressure, kPa = 101
Property: Mass fraction of ethanol (Liquid mixture 1); method: Titration method
Temperature, K	Mass fraction of ethyl hexadecanoate	Mass fraction of ethanol	uncertainty
298.15	0.9713	0	
298.15	0.4468	0.508	0.0154
298.15	0.3526	0.5907	0.0129
298.15	0.285	0.6491	0.0112
298.15	0.2399	0.6869	0.0101
298.15	0.1933	0.7231	0.009
298.15	0.1704	0.7401	0.0086
298.15	0.1547	0.7541	0.0082
298.15	0.1399	0.7628	0.008
298.15	0.128	0.7697	0.0078
298.15	0.1166	0.7757	0.0076
298.15	0.1059	0.7809	0.0075
298.15	0.038	0.7707	0.0078
298.15	0.0273	0.7446	0.0085
298.15	0.0135	0.7181	0.0095
298.15	0.0074	0.6746	0.0464
298.15	0.0031	0.6017	0.1634
298.15	0.0068	0	
313.15	0.9894	0	
313.15	0.7047	0.2639	0.0083
313.15	0.581	0.3706	0.0116
313.15	0.4295	0.4967	0.0155
313.15	0.3438	0.566	0.0136
313.15	0.2851	0.6125	0.0122
313.15	0.2229	0.6604	0.0108
313.15	0.1944	0.681	0.0102
313.15	0.1722	0.6965	0.0097
313.15	0.1562	0.7068	0.0094
313.15	0.142	0.7158	0.0092
313.15	0.0569	0.7376	0.0083
313.15	0.0484	0.7354	0.0085
313.15	0.0303	0.7192	0.0091
313.15	0.0132	0.679	0.0234
313.15	0.004	0.5965	0.1522
313.15	0.0075	0	
328.15	0.9954	0	
328.15	0.7682	0.1916	0.0061
328.15	0.5553	0.3741	0.0117
328.15	0.3958	0.5015	0.0155
328.15	0.3128	0.5661	0.0136
328.15	0.2768	0.5938	0.0127
328.15	0.2338	0.6254	0.0118
328.15	0.2076	0.6445	0.0112
328.15	0.1895	0.6567	0.0108
328.15	0.1726	0.6674	0.0105
328.15	0.1574	0.6772	0.0102
328.15	0.0907	0.7066	0.0092
328.15	0.0547	0.7208	0.0089
328.15	0.0368	0.695	0.0099
328.15	0.0226	0.6698	0.0109
328.15	0.014	0.6317	0.0141
328.15	0.0078	0.565	0.0417
328.15	0.0046	0.4506	0.1098
328.15	0.003	0	

System: ethanol + ethyl hexadecanoate + water; phases: Liquid mixture 2, Liquid mixture 1
Fixed: Pressure, kPa = 101
Property: Mass fraction of ethyl hexadecanoate (Liquid mixture 2); method: Density calibration data
Property: Mass fraction of ethyl hexadecanoate (Liquid mixture 1); method: Density calibration data
Property: Mass fraction of ethanol (Liquid mixture 1); method: Density calibration data
Temperature, K	Mass fraction of ethanol	Mass fraction of ethyl hexadecanoate	uncertainty	Mass fraction of ethyl hexadecanoate	uncertainty	Mass fraction of ethanol	uncertainty
298.15	0.1849	0.0046	0.001	0.9395	0.0019	0.0409	
313.15	0.5524	0.0037	0.001	0.8923	0.0027	0.0893	
313.15	0.6491	0.0095	0.0015	0.869	0.0032	0.1138	
313.15	0.7187	0.0394	0.0017	0.8155	0.0044	0.1669	
298.15	0.3632	0.0047	0.0011	0.9238	0.0021	0.0557	
298.15	0.4804	0.001	0.001	0.9131	0.0023	0.0706	
298.15	0.5995	0.0046	0.001	0.8988	0.0026	0.0819	
298.15	0.6918	0.0126	0.0012	0.8746	0.003	0.1078	
298.15	0.7502	0.0439	0.0017	0.8626	0.0033	0.1233	
313.15	0.1778	0.0076	0.001	0.9443	0.0019	0.0353	
313.15	0.3144	0.0083	0.0011	0.9144	0.0022	0.0646	
313.15	0.443	0.014	0.0011	0.9096	0.0024	0.0707	

System: glycerol + ethanol + ethyl hexadecanoate; phases: Liquid
Fixed: Temperature, K = 328.15
Fixed: Pressure, kPa = 101
Property: Refractive index (Na D-line) (Liquid); method: ABBE:mixvol
Mass fraction of ethyl hexadecanoate	Mass fraction of ethanol	Refractive index (Na D-line)	uncertainty
0.8507	0.14	1.4172	0.0012
0.6767	0.2772	1.4052	0.001
0.5197	0.4097	1.3955	0.0009
0.3586	0.5208	1.3882	0.0009
0.219	0.6007	1.3828	0.0008
0.1092	0.6168	1.384	0.0008
0.0504	0.596	1.3883	0.0008
0.019	0.5214	1.3983	0.0008
0.0025	0.4264	1.4088	0.0008
0.0012	0.3082	1.4243	0.0008
0.0006	0.1524	1.4443	0.0008

System: glycerol + ethanol + ethyl hexadecanoate; phases: Liquid
Fixed: Temperature, K = 328.15
Fixed: Pressure, kPa = 101
Property: Mass density, kg/m3 (Liquid); method: Vibrating tube method
Mass fraction of ethyl hexadecanoate	Mass fraction of ethanol	Mass density, kg/m3	uncertainty
0.8507	0.14	824.289	2.978
0.6767	0.2772	823.405	2.125
0.5197	0.4097	820.073	1.59
0.3586	0.5208	826.307	1.295
0.219	0.6007	838.794	1.215
0.1092	0.6168	867.535	1.198
0.0504	0.596	897.336	1.219
0.019	0.5214	940.512	1.275
0.0025	0.4264	992.868	1.348
0.0012	0.3082	1055.492	1.436
0.0006	0.1524	1144.404	1.513

System: glycerol + ethanol + ethyl hexadecanoate; phases: Liquid mixture 1, Liquid mixture 2
Fixed: Pressure, kPa = 101
Property: Mass fraction of ethanol (Liquid mixture 1); method: Titration method
Temperature, K	Mass fraction of ethyl hexadecanoate	Mass fraction of ethanol	uncertainty
298.15	0.9929	0	
298.15	0.5821	0.3594	0.0112
298.15	0.413	0.4768	0.0148
298.15	0.3621	0.5121	0.0151
298.15	0.3151	0.5405	0.0143
298.15	0.2857	0.5575	0.0138
298.15	0.254	0.5744	0.0133
298.15	0.2318	0.5855	0.0129
298.15	0.2079	0.597	0.0126
298.15	0.1975	0.6021	0.0124
298.15	0.0541	0.5945	0.0129
298.15	0.0477	0.5839	0.0132
298.15	0.0422	0.5713	0.0137
298.15	0.0354	0.5495	0.0143
298.15	0.0256	0.523	0.0153
298.15	0.0212	0.4963	0.0174
298.15	0.0175	0.4614	0.0319
298.15	0.003	0	
313.15	0.9932	0	
313.15	0.5824	0.3565	0.0111
313.15	0.403	0.4738	0.0147
313.15	0.2996	0.5297	0.0146
313.15	0.2373	0.5599	0.0137
313.15	0.2113	0.5705	0.0134
313.15	0.1611	0.5861	0.0129
313.15	0.1291	0.5907	0.0127
313.15	0.0892	0.5866	0.013
313.15	0.0324	0.5186	0.0152
313.15	0.0176	0.4226	0.021
313.15	0.0015	0	
328.15	0.9944	0	
328.15	0.6003	0.3326	0.0105
328.15	0.4068	0.4515	0.0141
328.15	0.2922	0.5123	0.0152
328.15	0.2314	0.538	0.0144
328.15	0.1928	0.5524	0.014
328.15	0.1676	0.5601	0.0137
328.15	0.1437	0.5653	0.0136
328.15	0.1089	0.5701	0.0135
328.15	0.053	0.5409	0.0144
328.15	0.0238	0.4672	0.0156
328.15	0.0122	0.3126	0.0242
328.15	0.0027	0	

System: glycerol + ethanol + ethyl hexadecanoate; phases: Liquid mixture 2, Liquid mixture 1
Fixed: Pressure, kPa = 101
Property: Mass fraction of ethyl hexadecanoate (Liquid mixture 2); method: Density calibration data
Property: Mass fraction of ethyl hexadecanoate (Liquid mixture 1); method: Density calibration data
Property: Mass fraction of ethanol (Liquid mixture 1); method: Density calibration data
Temperature, K	Mass fraction of ethanol	Mass fraction of ethyl hexadecanoate	uncertainty	Mass fraction of ethyl hexadecanoate	uncertainty	Mass fraction of ethanol	uncertainty
298.15	0.1629	0		0.9494	0.0018	0.047	
298.15	0.2975	0		0.911	0.0024	0.0842	
298.15	0.4182	0		0.8356	0.004	0.1483	
298.15	0.5392	0		0.7955	0.0049	0.1849	
298.15	0.5978	0.0985	0.0034	0.6798	0.0075	0.2793	
298.15	0.1629	0		0.9494	0.0018	0.047	
313.15	0.1415	0		0.9446	0.0018	0.0502	
313.15	0.2657	0		0.9127	0.0024	0.0822	
313.15	0.3664	0		0.8522	0.0036	0.1341	
313.15	0.48	0.018	0.0034	0.7903	0.005	0.1883	
313.15	0.56	0.0625	0.0038	0.7235	0.0065	0.2441	
313.15	0.1415	0		0.9446	0.0018	0.0502	

System: hexadecanoic acid + ethanol + water; phases: Liquid
Fixed: Temperature, K = 303.15
Fixed: Pressure, kPa = 101
Property: Refractive index (Na D-line) (Liquid); method: ABBE:mixvol
Mass fraction of hexadecanoic acid	Mass fraction of ethanol	Refractive index (Na D-line)	uncertainty
0.0096	0.902	1.3615	0.0008
0.0155	0.9022	1.3618	0.0008
0.029	0.8954	1.3628	0.0008
0.0368	0.9042	1.363	0.0008
0.0428	0.7893	1.3643	0.0008
0.0516	0.9059	1.3638	0.0008
0.0572	0.8461	1.3653	0.0008
0.0215	0.7833	1.3633	0.0008
0.039	0.845	1.3643	0.0008
0.0268	0.8447	1.3635	0.0008
0.0144	0.8466	1.3625	0.0008
0.0003	0.8735	1.3608	0.0008
0.0003	0.8868	1.3608	0.0008
0.0004	0.8996	1.3608	0.0008
0.001	0.9293	1.3602	0.0008
0.0003	0.9488	1.3595	0.0008
0.1202	0.8761	1.3678	0.0008
0.1004	0.896	1.3673	0.0008
0.0792	0.916	1.3645	0.0008
0.0575	0.9399	1.3625	0.0008
0.035	0.9606	1.3612	0.0008
0	1	1.3577	0.0008

System: hexadecanoic acid + ethanol + water; phases: Liquid
Fixed: Temperature, K = 303.15
Fixed: Pressure, kPa = 101
Property: Mass density, kg/m3 (Liquid); method: Vibrating tube method
Mass fraction of hexadecanoic acid	Mass fraction of ethanol	Mass density, kg/m3	uncertainty
0.0096	0.902	807.185	1.037
0.0155	0.9022	805.943	1.031
0.029	0.8954	805.195	1.038
0.0368	0.9042	801.253	1.028
0.0428	0.7893	830.073	1.051
0.0516	0.9059	798.234	1.028
0.0572	0.8461	812.888	1.037
0.0215	0.7833	835.094	1.055
0.039	0.845	816.485	1.04
0.0268	0.8447	818.877	1.041
0.0144	0.8466	820.613	1.044
0.0003	0.8735	816.467	1.025
0.0003	0.8868	813.009	1.019
0.0004	0.8996	809.937	1.02
0.001	0.9293	801.812	1.031
0.0003	0.9488	796.47	1.012
0.1202	0.8761	792.778	1.017
0.1004	0.896	791.222	1.015
0.0792	0.916	789.662	1.019
0.0575	0.9399	787.144	1.02
0.035	0.9606	785.64	1.019
0	1	781.328	0.949

System: hexadecanoic acid + ethanol + water; phases: Liquid mixture 1, Liquid mixture 2
Fixed: Pressure, kPa = 101
Fixed: Temperature, K = 338.15
Property: Mass fraction of ethanol (Liquid mixture 1); method: Titration method
Mass fraction of hexadecanoic acid	Mass fraction of ethanol	uncertainty
0.9726	0	
0.8318	0.0969	0.0031
0.682	0.1988	0.0062
0.604	0.2589	0.0081
0.5642	0.2882	0.0089
0.487	0.3299	0.0102
0.4314	0.358	0.0111
0.3835	0.3802	0.0118
0.3357	0.3978	0.0123
0.2768	0.4188	0.013
0.2389	0.4284	0.0133
0.1463	0.4456	0.0138
0.1076	0.4542	0.0141
0.0556	0.4662	0.0144
0.0396	0.4696	0.0146
0.0031	0.3877	0.0452
0.0015	0.3179	0.0447
0.0023	0	

System: hexadecanoic acid + ethanol + water; phases: Liquid mixture 2, Liquid mixture 1
Fixed: Temperature, K = 338.15
Fixed: Pressure, kPa = 101
Property: Mass fraction of hexadecanoic acid (Liquid mixture 2); method: Density calibration data
Property: Mass fraction of hexadecanoic acid (Liquid mixture 1); method: Density calibration data
Property: Mass fraction of ethanol (Liquid mixture 1); method: Density calibration data
Mass fraction of ethanol	Mass fraction of hexadecanoic acid	uncertainty	Mass fraction of hexadecanoic acid	uncertainty	Mass fraction of ethanol	uncertainty
0.1655	0.0001	0.0001	0.9399	0.0165	0.0421	
0.278	0.0001	0.0001	0.8525	0.0182	0.1087	
0.3822	0.0001	0.0001	0.6531	0.02	0.2361	
