Measured thermophysical data. Phase equilibria of CO2 + 1,2-dimethoxyethane at high-pressures
Source: Fluid Phase Equilib., 2018, 10.1016/j.fluid.2017.11.008
Compound 1: carbon dioxide, CO2, InChI=1S/CO2/c2-1-3, purity 99.7%
Compound 2: 1,2-dimethoxyethane, C4H10O2, InChI=1S/C4H10O2/c1-5-3-4-6-2/h3-4H2,1-2H3, purity 99.9%

System: carbon dioxide + 1,2-dimethoxyethane; phases: Gas, Liquid
Property: Vapor or sublimation pressure, kPa (Gas); method: Closed cell (Static) method
Temperature, K	Mole fraction of carbon dioxide	Vapor or sublimation pressure, kPa	uncertainty
313.15	0.3779	1080	20
313.15	0.5649	2050	30
313.15	0.6932	3070	30
313.15	0.7805	4030	40
313.15	0.8452	5070	50
313.15	0.8978	6020	50
313.15	0.9567	7060	50
323.15	0.341	1080	20
323.15	0.5221	2090	30
323.15	0.6254	3080	30
323.15	0.7169	4020	40
323.15	0.7857	5060	40
323.15	0.8439	6060	50
323.15	0.9005	7070	50
323.15	0.9437	8050	60
333.15	0.2958	1120	20
333.15	0.4586	2070	30
333.15	0.5922	3100	30
333.15	0.6657	4070	40
333.15	0.7343	5050	40
333.15	0.7948	6070	50
333.15	0.8455	7070	50
333.15	0.8935	8080	60
333.15	0.9833	9900	60
343.15	0.2636	1070	30
343.15	0.3985	2030	30
343.15	0.5189	3060	30
343.15	0.5975	4020	40
343.15	0.6612	5040	50
343.15	0.7257	6030	50
343.15	0.7855	7020	50
343.15	0.8353	8040	60

System: carbon dioxide + 1,2-dimethoxyethane; phases: Gas, Liquid
Property: Mole fraction of carbon dioxide (Gas); method: Chromatography
Temperature, K	Mole fraction of carbon dioxide	Mole fraction of carbon dioxide	uncertainty
313.15	0.3779	0.9925	0.0075
313.15	0.5649	0.9961	0.0039
313.15	0.6932	0.9978	0.0022
313.15	0.7805	0.9987	0.0013
313.15	0.8452	0.9993	0.0007
313.15	0.8978	0.9991	0.0009
313.15	0.9567	0.9983	0.0017
323.15	0.341	0.9883	0.01
323.15	0.5221	0.9939	0.0061
323.15	0.6254	0.997	0.003
323.15	0.7169	0.9978	0.0022
323.15	0.7857	0.9987	0.0013
323.15	0.8439	0.9983	0.0017
323.15	0.9005	0.9975	0.0025
323.15	0.9437	0.9947	0.0053
333.15	0.2958	0.9805	0.01
333.15	0.4586	0.9905	0.0095
333.15	0.5922	0.9954	0.0046
333.15	0.6657	0.997	0.003
333.15	0.7343	0.9976	0.0024
333.15	0.7948	0.9971	0.0029
333.15	0.8455	0.9965	0.0035
333.15	0.8935	0.9918	0.0082
333.15	0.9833	0.9833	0.01
343.15	0.2636	0.9782	0.01
343.15	0.3985	0.9887	0.01
343.15	0.5189	0.9939	0.0061
343.15	0.5975	0.9955	0.0045
343.15	0.6612	0.9958	0.0042
343.15	0.7257	0.9963	0.0037
343.15	0.7855	0.9961	0.0039
343.15	0.8353	0.9949	0.0051

System: carbon dioxide + 1,2-dimethoxyethane; phases: Liquid, Gas
Property: Critical temperature, K (Liquid); method: Visual observation in an unstirred cell
Mole fraction of carbon dioxide	Critical temperature, K	uncertainty
0	536.15	0.25
0.8163	420.05	0.49
0.8362	415.85	0.46
0.8752	408.65	0.49
0.8872	404.55	0.74
0.9066	397.75	0.85
0.9123	393.85	1.17
0.9233	388.05	1.06
0.9348	382.25	0.94
0.9412	380.05	0.94
0.952	374.55	1.23
0.9601	368.55	2.5
0.9685	354.05	3.2
0.9743	346.05	2.8
0.9794	338.85	2.87
0.9833	333.15	2.93
1	304.21	0.25

System: carbon dioxide + 1,2-dimethoxyethane; phases: Liquid, Gas
Property: Critical pressure, kPa (Liquid); method: visual observation
Mole fraction of carbon dioxide	Critical pressure, kPa	uncertainty
0	3871	21
0.8163	12790	22
0.8362	12870	21
0.8752	12920	21
0.8872	12940	21
0.9066	12890	22
0.9123	12850	28
0.9233	12740	30
0.9348	12610	32
0.9412	12520	43
0.952	12290	58
0.9601	12000	118
0.9685	11330	166
0.9743	10830	186
0.9794	10320	207
0.9833	9900	216
1	7383	21
