Measured thermophysical data. Experimental solubility and thermodynamic modeling of CO2 in four new imidazolium and pyridinium-based ionic liquids
Source: Fluid Phase Equilib., 2016, 10.1016/j.fluid.2016.03.009
Compound 1: 1-ethyl-3-methylimidazolium lactate, C9H16N2O3, InChI=1S/C6H11N2.C3H6O3/c1-3-8-5-4-7(2)6-8;1-2(4)3(5)6/h4-6H,3H2,1-2H3;2,4H,1H3,(H,5,6)/q+1;/p-1, purity 95%
Compound 2: 3-methyl-1-propylpyridinium bis(trifluoromethylsulfonyl)imide, C11H14F6N2O4S2, InChI=1S/C9H14N.C2F6NO4S2/c1-3-6-10-7-4-5-9(2)8-10;3-1(4,5)14(10,11)9-15(12,13)2(6,7)8/h4-5,7-8H,3,6H2,1-2H3;/q+1;-1, purity 99%
Compound 3: 1-(4-sulfobutyl)-3-methylimidazolium bis(trifluoromethanesulfonyl)imide, C10H15F6N3O7S3, InChI=1S/C8H14N2O3S.C2F6NO4S2/c1-9-5-6-10(8-9)4-2-3-7-14(11,12)13;3-1(4,5)14(10,11)9-15(12,13)2(6,7)8/h5-6,8H,2-4,7H2,1H3;/q;-1/p+1, purity 98%
Compound 4: 1-methyl-3-(4-sulfobutyl)-imidazolium hydrogensulfate, C8H16N2O7S2, InChI=1S/C8H14N2O3S.H2O4S/c1-9-5-6-10(8-9)4-2-3-7-14(11,12)13;1-5(2,3)4/h5-6,8H,2-4,7H2,1H3;(H2,1,2,3,4), purity 98%
Compound 5: carbon dioxide, CO2, InChI=1S/CO2/c2-1-3, purity 99.99%

System: 1-ethyl-3-methylimidazolium lactate; phases: Liquid
Fixed: Pressure, kPa = 101.325
Property: Mass density, kg/m3 (Liquid); method: Vibrating tube method
Temperature, K	Mass density, kg/m3	uncertainty
278.15	1157.45	7.28
283.15	1153.47	7.23
288.15	1149.77	7.18
293.15	1146.11	7.14
298.15	1142.46	7.09
303.15	1138.89	7.05
308.15	1135.43	7
313.15	1131.95	6.96
318.15	1128.51	6.92
323.15	1125.07	6.87
328.15	1121.67	6.83
333.15	1118.51	6.79
338.15	1117.98	6.78
343.15	1111.66	6.71
348.15	1108.39	6.67
353.15	1105.14	6.63

System: 3-methyl-1-propylpyridinium bis(trifluoromethylsulfonyl)imide; phases: Liquid
Fixed: Pressure, kPa = 101.325
Property: Mass density, kg/m3 (Liquid); method: Vibrating tube method
Temperature, K	Mass density, kg/m3	uncertainty
278.15	1467.23	80
283.15	1462.43	80
288.15	1457.62	80
293.15	1452.81	80
298.15	1448.03	80
303.15	1443.28	80
308.15	1438.54	80
313.15	1433.81	80
318.15	1429.11	80
323.15	1424.43	80
328.15	1419.79	80
333.15	1415.16	80
338.15	1409.8	80
343.15	1405.96	80
348.15	1401.4	80
353.15	1396.85	80

System: 1-(4-sulfobutyl)-3-methylimidazolium bis(trifluoromethanesulfonyl)imide; phases: Liquid
Fixed: Pressure, kPa = 101.325
Property: Mass density, kg/m3 (Liquid); method: Vibrating tube method
Temperature, K	Mass density, kg/m3	uncertainty
283.15	1597.92	80.03
288.15	1592.96	80.03
293.15	1587.85	80.03
298.15	1582.58	80.03
303.15	1577.87	80.03
308.15	1573.18	80.03
313.15	1568.52	80.03
318.15	1563.87	80.03
323.15	1559.23	80.03
328.15	1554.6	80.03
333.15	1550.01	80.03
338.15	1545.56	80.02
343.15	1541.12	80.02
348.15	1536.68	80.02
353.15	1532.23	80.02

System: 1-methyl-3-(4-sulfobutyl)-imidazolium hydrogensulfate; phases: Liquid
Fixed: Pressure, kPa = 101.325
Property: Mass density, kg/m3 (Liquid); method: Vibrating tube method
Temperature, K	Mass density, kg/m3	uncertainty
283.15	1450.3	80.02
288.15	1447.02	80.02
298.15	1437.08	80.02
303.15	1433.68	80.02
313.15	1426.76	80.02
323.15	1420.51	80.02
333.15	1414.28	80.02
343.15	1408.07	80.02
353.15	1401.8	80.02

System: carbon dioxide + 3-methyl-1-propylpyridinium bis(trifluoromethylsulfonyl)imide; phases: Liquid, Gas
Property: Mole fraction of carbon dioxide (Liquid); method: Gravimetric microbalance
Temperature, K	Pressure, kPa	Mole fraction of carbon dioxide	uncertainty
313.15	9.9	0.00238	0.00238
313.15	50	0.0109	0.0109
313.15	100.1	0.0212	0.012
313.15	199.9	0.0431	0.012
313.15	399.8	0.0834	0.012
313.15	700	0.137	0.012
313.15	899.9	0.171	0.012
313.15	1000	0.188	0.012
313.15	1099.9	0.204	0.012
313.15	1299.8	0.235	0.012
313.15	1499.8	0.263	0.012
313.15	1699.8	0.29	0.012
313.15	1899.7	0.317	0.012
323.15	9.6	0.00229	0.00229
323.15	50	0.00928	0.00928
323.15	99.8	0.0187	0.012
323.15	199.9	0.0379	0.012
323.15	399.8	0.0725	0.012
323.15	700.1	0.118	0.012
323.15	900	0.147	0.012
323.15	999.6	0.161	0.012
323.15	1099.9	0.175	0.012
323.15	1300.2	0.202	0.012
323.15	1499.8	0.228	0.012
323.15	1700.7	0.253	0.012
323.15	1900.8	0.276	0.012
333.15	10	0.00219	0.00219
333.15	50	0.00744	0.00744
333.15	99.9	0.0154	0.012
333.15	200	0.032	0.012
333.15	399.9	0.0606	0.012
333.15	699.7	0.1	0.012
333.15	900.1	0.126	0.012
333.15	999.9	0.137	0.012
333.15	1099.9	0.149	0.012
333.15	1299.7	0.172	0.012
333.15	1500	0.193	0.012
333.15	1699.5	0.214	0.012
333.15	1899.6	0.232	0.012

System: carbon dioxide + 1-ethyl-3-methylimidazolium lactate; phases: Liquid, Gas
Property: Mole fraction of carbon dioxide (Liquid); method: Gravimetric microbalance
Temperature, K	Pressure, kPa	Mole fraction of carbon dioxide	uncertainty
313.15	99.9	0.087	0.012
313.15	200.1	0.116	0.012
313.15	399.9	0.152	0.012
313.15	699.9	0.189	0.012
313.15	899.9	0.21	0.012
313.15	999.8	0.218	0.012
313.15	1100	0.227	0.012
313.15	1299.7	0.242	0.012
313.15	1499.9	0.256	0.012
313.15	1700	0.271	0.012
313.15	1899.8	0.283	0.012
323.15	99.9	0.0714	0.012
323.15	399.8	0.13	0.012
323.15	499.8	0.143	0.012
323.15	699.9	0.164	0.012
323.15	999.8	0.191	0.012
323.15	1899.8	0.25	0.012
333.15	50	0.043	0.012
333.15	99.8	0.0597	0.012
333.15	200	0.0829	0.012
333.15	399.6	0.112	0.012
333.15	700	0.143	0.012
333.15	900.1	0.159	0.012
333.15	999.8	0.167	0.012

System: carbon dioxide + 1-(4-sulfobutyl)-3-methylimidazolium bis(trifluoromethanesulfonyl)imide; phases: Liquid, Gas
Property: Mole fraction of carbon dioxide (Liquid); method: Gravimetric microbalance
Temperature, K	Pressure, kPa	Mole fraction of carbon dioxide	uncertainty
313.15	9.8	0.001328	0.001328
313.15	50	0.001319	0.001319
313.15	99.9	0.00734	0.00734
313.15	899.8	0.135	0.012
313.15	999.8	0.146	0.012
313.15	1100	0.159	0.012
313.15	1299.8	0.183	0.012
313.15	1499.9	0.208	0.012
313.15	1699.9	0.23	0.012
313.15	1900	0.254	0.012
323.15	9.8	0.00158	0.00158
323.15	50	0.00621	0.00621
323.15	100	0.0122	0.012
323.15	399.8	0.0557	0.012
323.15	700	0.0909	0.012
323.15	899.9	0.1159	0.012
323.15	1000.1	0.1258	0.012
323.15	1500.2	0.182569	0.012018

System: carbon dioxide + 1-methyl-3-(4-sulfobutyl)-imidazolium hydrogensulfate; phases: Liquid, Gas
Property: Mole fraction of carbon dioxide (Liquid); method: Gravimetric microbalance
Temperature, K	Pressure, kPa	Mole fraction of carbon dioxide	uncertainty
313.15	9.9	0.000764	0.000764
313.15	49.8	0.001753	0.001753
313.15	99.9	0.002961	0.002961
313.15	699.9	0.0253	0.012
313.15	1100	0.0482	0.012
313.15	1299.7	0.0552	0.012
323.15	10.1	0.00056	0.00056
323.15	50	0.00116	0.00116
323.15	900.1	0.0319	0.012
323.15	999.9	0.0365	0.012
323.15	1099.87	0.0408	0.012
323.15	1299.8	0.0473	0.012
323.15	1500	0.0548	0.012
323.15	1700	0.0614	0.012
