Measured thermophysical data. CO2 solubility measurement in 1-hexyl-3-methylimidazolium([HMIM]) cation based ionic liquids
Source: Fluid Phase Equilib., 2013, 10.1016/j.fluid.2013.05.005
Compound 1: 1-hexyl-3-methylimidazolium bis[(trifluoromethyl)sulfonyl]imide, C12H19F6N3O4S2, InChI=1S/C10H19N2.C2F6NO4S2/c1-3-4-5-6-7-12-9-8-11(2)10-12;3-1(4,5)14(10,11)9-15(12,13)2(6,7)8/h8-10H,3-7H2,1-2H3;/q+1;-1, purity 99%
Compound 2: 1-hexyl-3-methylimidazolium trifluoromethanesulfonate, C11H19F3N2O3S, InChI=1S/C10H19N2.CHF3O3S/c1-3-4-5-6-7-12-9-8-11(2)10-12;2-1(3,4)8(5,6)7/h8-10H,3-7H2,1-2H3;(H,5,6,7)/q+1;/p-1, purity 99%
Compound 3: 1-hexyl-3-methylimidazolium methyl sulfate, C11H22N2O4S, InChI=1S/C10H19N2.CH4O4S/c1-3-4-5-6-7-12-9-8-11(2)10-12;1-5-6(2,3)4/h8-10H,3-7H2,1-2H3;1H3,(H,2,3,4)/q+1;/p-1, purity 99%
Compound 4: 1-hexyl-3-methylimidazolium tetrafluoroborate, C10H19BF4N2, InChI=1S/C10H19N2.BF4/c1-3-4-5-6-7-12-9-8-11(2)10-12;2-1(3,4)5/h8-10H,3-7H2,1-2H3;/q+1;-1, purity 99%
Compound 5: 1-hexyl-3-methylimidazolium hexafluorophosphate, C10H19F6N2P, InChI=1S/C10H19N2.F6P/c1-3-4-5-6-7-12-9-8-11(2)10-12;1-7(2,3,4,5)6/h8-10H,3-7H2,1-2H3;/q+1;-1, purity 99%
Compound 6: carbon dioxide, CO2, InChI=1S/CO2/c2-1-3, purity 99.995%

System: carbon dioxide + 1-hexyl-3-methylimidazolium bis[(trifluoromethyl)sulfonyl]imide; phases: Liquid, Gas
Property: Vapor or sublimation pressure, kPa (Liquid); method: Closed cell (Static) method
Temperature, K	Mole fraction of carbon dioxide	Vapor or sublimation pressure, kPa	uncertainty
303.15	0.165	420	55
313.15	0.165	580	64
323.15	0.165	670	72
333.15	0.165	800	83
343.15	0.165	960	94
353.15	0.165	1090	95
363.15	0.165	1240	102
373.15	0.165	1380	118
303.15	0.265	930	56
313.15	0.265	1160	71
323.15	0.265	1370	86
333.15	0.265	1610	96
343.15	0.265	1870	106
353.15	0.265	2020	114
363.15	0.265	2240	131
373.15	0.265	2540	139
303.15	0.338	1320	70
313.15	0.338	1780	85
323.15	0.338	2140	108
333.15	0.338	2440	126
343.15	0.338	2800	135
353.15	0.338	3070	153
363.15	0.338	3520	162
373.15	0.338	3780	173
303.15	0.423	1970	80
313.15	0.423	2460	87
323.15	0.423	3040	106
333.15	0.423	3560	130
343.15	0.423	3970	141
353.15	0.423	4410	157
363.15	0.423	4780	154
373.15	0.423	5240	174

System: carbon dioxide + 1-hexyl-3-methylimidazolium trifluoromethanesulfonate; phases: Liquid, Gas
Property: Vapor or sublimation pressure, kPa (Liquid); method: Closed cell (Static) method
Temperature, K	Mole fraction of carbon dioxide	Vapor or sublimation pressure, kPa	uncertainty
303.15	0.267	1420	110
313.15	0.267	1760	148
323.15	0.267	2250	164
333.15	0.267	2650	185
343.15	0.267	3100	211
353.15	0.267	3660	224
363.15	0.267	4020	276
373.15	0.267	4460	276
303.15	0.345	2260	108
313.15	0.345	2950	135
323.15	0.345	3490	167
333.15	0.345	4100	196
343.15	0.345	4770	224
353.15	0.345	5330	249
363.15	0.345	6190	273
373.15	0.345	6600	298
303.15	0.439	3220	94
313.15	0.439	4060	149
323.15	0.439	5090	213
333.15	0.439	5990	204
343.15	0.439	6910	276
353.15	0.439	7900	324
363.15	0.439	8670	330
373.15	0.439	9540	360
303.15	0.5045	3670	80
313.15	0.5045	5330	197
323.15	0.5045	6960	223
333.15	0.5045	7310	284
343.15	0.5045	9230	329
353.15	0.5045	10590	393
363.15	0.5045	11560	435
373.15	0.5045	12360	433

System: carbon dioxide + 1-hexyl-3-methylimidazolium methyl sulfate; phases: Liquid, Gas
Property: Vapor or sublimation pressure, kPa (Liquid); method: Closed cell (Static) method
Temperature, K	Mole fraction of carbon dioxide	Vapor or sublimation pressure, kPa	uncertainty
303.15	0.158	870	63
313.15	0.158	1270	84
323.15	0.158	1470	104
333.15	0.158	1850	116
343.15	0.158	2190	127
353.15	0.158	2410	148
363.15	0.158	2640	168
373.15	0.158	2910	179
303.15	0.246	1390	116
313.15	0.246	1920	153
323.15	0.246	2430	192
333.15	0.246	2840	210
343.15	0.246	3250	240
353.15	0.246	3700	292
363.15	0.246	4120	316
373.15	0.246	4470	338
303.15	0.336	2890	142
313.15	0.336	3960	209
323.15	0.336	4860	254
333.15	0.336	5550	327
343.15	0.336	6420	403
353.15	0.336	7580	488
363.15	0.336	8230	571
373.15	0.336	8890	649
303.15	0.441	4090	123
313.15	0.441	5970	181
323.15	0.441	7360	255
333.15	0.441	9170	350
343.15	0.441	11040	450
353.15	0.441	13130	530
363.15	0.441	15140	657
373.15	0.441	17030	778

System: carbon dioxide + 1-hexyl-3-methylimidazolium tetrafluoroborate; phases: Liquid, Gas
Property: Vapor or sublimation pressure, kPa (Liquid); method: Closed cell (Static) method
Temperature, K	Mole fraction of carbon dioxide	Vapor or sublimation pressure, kPa	uncertainty
303.15	0.212	1200	87
313.15	0.212	1530	102
323.15	0.212	1930	125
333.15	0.212	2320	145
343.15	0.212	2680	149
353.15	0.212	3140	181
363.15	0.212	3470	216
373.15	0.212	3760	248
303.15	0.354	2400	108
313.15	0.354	2970	126
323.15	0.354	3670	147
333.15	0.354	4350	172
343.15	0.354	4810	198
353.15	0.354	5640	215
363.15	0.354	6510	250
373.15	0.354	7260	292
303.15	0.396	3280	169
313.15	0.396	4050	243
323.15	0.396	4910	289
333.15	0.396	5890	392
343.15	0.396	6790	496
353.15	0.396	7530	524
363.15	0.396	8520	562
373.15	0.396	9360	628
303.15	0.469	4350	151
313.15	0.469	5770	230
323.15	0.469	6990	315
333.15	0.469	8810	395
343.15	0.469	10460	481
353.15	0.469	11590	564
363.15	0.469	12850	608
373.15	0.469	14380	690

System: carbon dioxide + 1-hexyl-3-methylimidazolium hexafluorophosphate; phases: Liquid, Gas
Property: Vapor or sublimation pressure, kPa (Liquid); method: Closed cell (Static) method
Temperature, K	Mole fraction of carbon dioxide	Vapor or sublimation pressure, kPa	uncertainty
303.15	0.216	300	59
313.15	0.216	530	82
323.15	0.216	860	98
333.15	0.216	1220	122
343.15	0.216	1530	140
353.15	0.216	1720	167
363.15	0.216	1940	195
373.15	0.216	2190	223
303.15	0.355	1070	84
313.15	0.355	1660	113
323.15	0.355	2200	139
333.15	0.355	2870	163
343.15	0.355	3410	189
353.15	0.355	4030	220
363.15	0.355	4650	255
373.15	0.355	5270	278
303.15	0.427	2100	118
313.15	0.427	3050	166
323.15	0.427	3980	232
333.15	0.427	4930	277
343.15	0.427	5800	323
353.15	0.427	6680	393
363.15	0.427	7670	433
373.15	0.427	8190	467
303.15	0.512	2870	97
313.15	0.512	4250	154
323.15	0.512	5830	213
333.15	0.512	7190	265
343.15	0.512	8460	333
353.15	0.512	10160	394
363.15	0.512	11400	438
373.15	0.512	12550	515
