Measured thermophysical data. Measurement and correlation of liquid liquid equilibria and partition coefficients of benzothyophene and benzothyophene 1,1-dioxide for acetonitrile + n-octane system
Source: Fluid Phase Equilib., 2005, 10.1016/j.fluid.2004.09.028
Compound 1: acetonitrile, C2H3N, InChI=1S/C2H3N/c1-2-3/h1H3
Compound 2: octane, C8H18, InChI=1S/C8H18/c1-3-5-7-8-6-4-2/h3-8H2,1-2H3
Compound 3: decane, C10H22, InChI=1S/C10H22/c1-3-5-7-9-10-8-6-4-2/h3-10H2,1-2H3
Compound 4: benzo[b]thiophene, C8H6S, InChI=1S/C8H6S/c1-2-4-8-7(3-1)5-6-9-8/h1-6H
Compound 5: benzo[b]thiophene 1,1-dioxide, C8H6O2S, InChI=1S/C8H6O2S/c9-11(10)6-5-7-3-1-2-4-8(7)11/h1-6H

System: acetonitrile + octane; phases: Liquid mixture 1, Liquid mixture 2
Fixed: Pressure, kPa = 101.3
Property: Mole fraction of acetonitrile (Liquid mixture 1); method: CHROM:UFactor:8
Temperature, K	Mole fraction of acetonitrile	uncertainty
298.15	0.056	0.004
303.15	0.059	0.004
313.15	0.082	0.005
323.15	0.105	0.007
333.15	0.15	0.009
343.15	0.212	0.013

System: acetonitrile + octane; phases: Liquid mixture 2, Liquid mixture 1
Fixed: Pressure, kPa = 101.3
Property: Mole fraction of acetonitrile (Liquid mixture 2); method: CHROM:UFactor:8
Temperature, K	Mole fraction of acetonitrile	uncertainty
298.15	0.976	0.002
303.15	0.975	0.003
313.15	0.966	0.003
323.15	0.957	0.003
333.15	0.943	0.004
343.15	0.924	0.005

System: acetonitrile + decane; phases: Liquid mixture 1, Liquid mixture 2
Fixed: Pressure, kPa = 101.3
Property: Mole fraction of acetonitrile (Liquid mixture 1); method: CHROM:UFactor:8
Temperature, K	Mole fraction of acetonitrile	uncertainty
298.15	0.074	0.005
303.15	0.08	0.005
313.15	0.098	0.006
323.15	0.122	0.008
333.15	0.148	0.009
343.15	0.196	0.012
353.15	0.244	0.015

System: acetonitrile + decane; phases: Liquid mixture 2, Liquid mixture 1
Fixed: Pressure, kPa = 101.3
Property: Mole fraction of acetonitrile (Liquid mixture 2); method: CHROM:UFactor:8
Temperature, K	Mole fraction of acetonitrile	uncertainty
298.15	0.988	0.002
303.15	0.987	0.002
313.15	0.983	0.002
323.15	0.978	0.002
333.15	0.971	0.003
343.15	0.961	0.003
353.15	0.956	0.003

System: acetonitrile + benzo[b]thiophene + octane; phases: Liquid mixture 1, Liquid mixture 2
Fixed: Pressure, kPa = 101
Fixed: Mole fraction of benzo[b]thiophene = 0
Property: Mass fraction of benzo[b]thiophene (Liquid mixture 1); method: Chromatography
Temperature, K	Mass fraction of benzo[b]thiophene	uncertainty
298.15	0.55	0.01
303.15	0.56	0.01
313.15	0.58	0.01
323.15	0.6	0.01
333.15	0.63	0.01
343.15	0.67	0.01

System: acetonitrile + octane + benzo[b]thiophene 1,1-dioxide; phases: Liquid mixture 1, Liquid mixture 2
Fixed: Pressure, kPa = 101
Fixed: Mole fraction of benzo[b]thiophene 1,1-dioxide = 0
Property: Mass fraction of benzo[b]thiophene 1,1-dioxide (Liquid mixture 1); method: Chromatography
Temperature, K	Mass fraction of benzo[b]thiophene 1,1-dioxide	uncertainty
298.15	0.0043	0.0001
303.15	0.0055	0.0001
313.15	0.009	0.0001
323.15	0.015	0.001
333.15	0.026	0.001
343.15	0.047	0.001
