Measured thermophysical data. Effect of anion fluorination in 1-ethyl-3-methylimidazolium as solvent for the liquid extraction of ethanol from ethyl tert-butyl ether
Source: Fluid Phase Equilib., 2006, 10.1016/j.fluid.2006.01.008
Compound 1: 1-methyl-3-octylimidazolium tetrafluoroborate, C12H23BF4N2, InChI=1S/C12H23N2.BF4/c1-3-4-5-6-7-8-9-14-11-10-13(2)12-14;2-1(3,4)5/h10-12H,3-9H2,1-2H3;/q+1;-1, purity 99%
Compound 2: methanol, CH4O, InChI=1S/CH4O/c1-2/h2H,1H3, purity 99.7%
Compound 3: ethanol, C2H6O, InChI=1S/C2H6O/c1-2-3/h3H,2H2,1H3, purity 99.8%
Compound 4: propan-1-ol, C3H8O, InChI=1S/C3H8O/c1-2-3-4/h4H,2-3H2,1H3, purity 99.7%
Compound 5: propan-2-ol, C3H8O, InChI=1S/C3H8O/c1-3(2)4/h3-4H,1-2H3, purity 99.5%

System: 1-methyl-3-octylimidazolium tetrafluoroborate; phases: Liquid
Property: Refractive index (Na D-line) (Liquid); method: Standard Abbe refractometry
Temperature, K	Pressure, kPa	Refractive index (Na D-line)	uncertainty
298.15	101.325	1.43422	0.00037

System: 1-methyl-3-octylimidazolium tetrafluoroborate; phases: Liquid
Property: Mass density, kg/m3 (Liquid); method: Vibrating tube method
Temperature, K	Pressure, kPa	Mass density, kg/m3	uncertainty
298.15	101.325	1105.3	0.32

System: 1-methyl-3-octylimidazolium tetrafluoroborate; phases: Liquid
Property: Viscosity, Pa*s (Liquid); method: Capillary tube (Ostwald; Ubbelohde) method
Temperature, K	Pressure, kPa	Viscosity, Pa*s	uncertainty
298.15	101.325	0.3599	0.0123

System: 1-methyl-3-octylimidazolium tetrafluoroborate; phases: Liquid
Property: Speed of sound, m/s (Liquid); method: Sing-around technique in a fixed-path interferometer
Temperature, K	Pressure, kPa	Speed of sound, m/s	uncertainty
298.15	101.325	1491	2

System: methanol; phases: Liquid
Property: Refractive index (Na D-line) (Liquid); method: Standard Abbe refractometry
Temperature, K	Pressure, kPa	Refractive index (Na D-line)	uncertainty
298.15	101.325	1.3264	0.00032

System: methanol; phases: Liquid
Property: Mass density, kg/m3 (Liquid); method: Vibrating tube method
Temperature, K	Pressure, kPa	Mass density, kg/m3	uncertainty
298.15	101.325	786.63	0.13

System: methanol; phases: Liquid
Property: Viscosity, Pa*s (Liquid); method: Capillary tube (Ostwald; Ubbelohde) method
Temperature, K	Pressure, kPa	Viscosity, Pa*s	uncertainty
298.15	101.325	0.000541	3e-05

System: methanol; phases: Liquid
Property: Speed of sound, m/s (Liquid); method: Sing-around technique in a fixed-path interferometer
Temperature, K	Pressure, kPa	Speed of sound, m/s	uncertainty
298.15	101.325	1102	1

System: ethanol; phases: Liquid
Property: Refractive index (Na D-line) (Liquid); method: Standard Abbe refractometry
Temperature, K	Pressure, kPa	Refractive index (Na D-line)	uncertainty
298.15	101.325	1.3592	0.00031

System: ethanol; phases: Liquid
Property: Mass density, kg/m3 (Liquid); method: Vibrating tube method
Temperature, K	Pressure, kPa	Mass density, kg/m3	uncertainty
298.15	101.325	785.22	0.12

System: ethanol; phases: Liquid
Property: Viscosity, Pa*s (Liquid); method: Capillary tube (Ostwald; Ubbelohde) method
Temperature, K	Pressure, kPa	Viscosity, Pa*s	uncertainty
298.15	101.325	0.001077	3.1e-05

System: ethanol; phases: Liquid
Property: Speed of sound, m/s (Liquid); method: Sing-around technique in a fixed-path interferometer
Temperature, K	Pressure, kPa	Speed of sound, m/s	uncertainty
298.15	101.325	1144	1

System: propan-1-ol; phases: Liquid
Property: Refractive index (Na D-line) (Liquid); method: Standard Abbe refractometry
Temperature, K	Pressure, kPa	Refractive index (Na D-line)	uncertainty
298.15	101.325	1.38306	0.00032

System: propan-1-ol; phases: Liquid
Property: Mass density, kg/m3 (Liquid); method: Vibrating tube method
Temperature, K	Pressure, kPa	Mass density, kg/m3	uncertainty
298.15	101.325	799.47	0.12

System: propan-1-ol; phases: Liquid
Property: Viscosity, Pa*s (Liquid); method: Capillary tube (Ostwald; Ubbelohde) method
Temperature, K	Pressure, kPa	Viscosity, Pa*s	uncertainty
298.15	101.325	0.001928	3.2e-05

System: propan-1-ol; phases: Liquid
Property: Speed of sound, m/s (Liquid); method: Sing-around technique in a fixed-path interferometer
Temperature, K	Pressure, kPa	Speed of sound, m/s	uncertainty
298.15	101.325	1207	1

System: propan-2-ol; phases: Liquid
Property: Refractive index (Na D-line) (Liquid); method: Standard Abbe refractometry
Temperature, K	Pressure, kPa	Refractive index (Na D-line)	uncertainty
298.15	101.325	1.3752	0.00033

System: propan-2-ol; phases: Liquid
Property: Mass density, kg/m3 (Liquid); method: Vibrating tube method
Temperature, K	Pressure, kPa	Mass density, kg/m3	uncertainty
298.15	101.325	780.95	0.15

System: propan-2-ol; phases: Liquid
Property: Viscosity, Pa*s (Liquid); method: Capillary tube (Ostwald; Ubbelohde) method
Temperature, K	Pressure, kPa	Viscosity, Pa*s	uncertainty
298.15	101.325	0.002054	1.3e-05

System: propan-2-ol; phases: Liquid
Property: Speed of sound, m/s (Liquid); method: Sing-around technique in a fixed-path interferometer
Temperature, K	Pressure, kPa	Speed of sound, m/s	uncertainty
298.15	101.325	1140	1

System: methanol + 1-methyl-3-octylimidazolium tetrafluoroborate; phases: Liquid
Fixed: Temperature, K = 298.15
Fixed: Pressure, kPa = 101
Property: Viscosity, Pa*s (Liquid); method: Capillary tube (Ostwald; Ubbelohde) method
Mole fraction of 1-methyl-3-octylimidazolium tetrafluoroborate	Viscosity, Pa*s	uncertainty
0.0495	0.000981	7.1e-05
0.0979	0.001622	7.1e-05
0.1997	0.00385	7.4e-05
0.2859	0.007131	8.1e-05
0.3648	0.01181	0.0001
0.4461	0.0189	0.00013
0.4922	0.02416	0.00016
0.5121	0.02722	0.00018
0.5709	0.03828	0.00024
0.5972	0.04463	0.00028
0.6485	0.05772	0.00033
0.785	0.1239	0.002
0.9049	0.2286	0.0061

System: methanol + 1-methyl-3-octylimidazolium tetrafluoroborate; phases: Liquid
Fixed: Temperature, K = 298.15
Fixed: Pressure, kPa = 101
Property: Refractive index (Na D-line) (Liquid); method: Standard Abbe refractometry
Mole fraction of 1-methyl-3-octylimidazolium tetrafluoroborate	Refractive index (Na D-line)	uncertainty
0.0495	1.35534	0.00032
0.0979	1.3733	0.00032
0.1997	1.39501	0.00032
0.2859	1.40551	0.00033
0.3648	1.41222	0.00033
0.4461	1.41738	0.00033
0.4922	1.41982	0.00034
0.5121	1.42076	0.00034
0.5709	1.42339	0.00034
0.5972	1.42443	0.00034
0.6485	1.42629	0.00035
0.785	1.43029	0.00035
0.9049	1.43284	0.00036

System: methanol + 1-methyl-3-octylimidazolium tetrafluoroborate; phases: Liquid
Fixed: Temperature, K = 298.15
Fixed: Pressure, kPa = 101
Property: Speed of sound, m/s (Liquid); method: Sing-around technique in a fixed-path interferometer
Mole fraction of 1-methyl-3-octylimidazolium tetrafluoroborate	Speed of sound, m/s	uncertainty
0.0495	1188	1
0.0979	1243	1
0.1997	1323	1
0.2859	1366	1
0.3648	1394	1
0.4461	1416	1
0.4922	1426	1
0.5121	1430	1
0.5709	1440	1
0.5972	1445	2
0.6485	1452	2
0.785	1469	2
0.9049	1482	2

System: methanol + 1-methyl-3-octylimidazolium tetrafluoroborate; phases: Liquid
Fixed: Temperature, K = 298.15
Fixed: Pressure, kPa = 101
Property: Mass density, kg/m3 (Liquid); method: Vibrating tube method
Mole fraction of 1-methyl-3-octylimidazolium tetrafluoroborate	Mass density, kg/m3	uncertainty
0.0495	869.02	0.11
0.0979	921.23	0.11
0.1997	986.4	0.13
0.2859	1018.55	0.13
0.3648	1038.89	0.14
0.4461	1054.52	0.16
0.4922	1061.78	0.17
0.5121	1064.62	0.17
0.5709	1072.21	0.18
0.5972	1075.25	0.18
0.6485	1080.67	0.2
0.785	1092.37	0.24
0.9049	1100.21	0.28

System: ethanol + 1-methyl-3-octylimidazolium tetrafluoroborate; phases: Liquid
Fixed: Temperature, K = 298.15
Fixed: Pressure, kPa = 101
Property: Viscosity, Pa*s (Liquid); method: Capillary tube (Ostwald; Ubbelohde) method
Mole fraction of 1-methyl-3-octylimidazolium tetrafluoroborate	Viscosity, Pa*s	uncertainty
0.0517	0.00174	7.1e-05
0.0818	0.00225	7.2e-05
0.1822	0.004722	7.5e-05
0.2779	0.008542	8.3e-05
0.378	0.01499	0.00011
0.46	0.02342	0.00015
0.5474	0.03738	0.00023
0.5537	0.03862	0.00023
0.5636	0.04081	0.00025
0.6203	0.05488	0.00027
0.662	0.06791	0.00049
0.7749	0.1204	0.0019
0.9286	0.2519	0.0071

System: ethanol + 1-methyl-3-octylimidazolium tetrafluoroborate; phases: Liquid
Fixed: Temperature, K = 298.15
Fixed: Pressure, kPa = 101
Property: Refractive index (Na D-line) (Liquid); method: Standard Abbe refractometry
Mole fraction of 1-methyl-3-octylimidazolium tetrafluoroborate	Refractive index (Na D-line)	uncertainty
0.0517	1.37489	0.00031
0.0818	1.38179	0.00031
0.1822	1.39805	0.00032
0.2779	1.40778	0.00032
0.378	1.41488	0.00033
0.46	1.41926	0.00033
0.5474	1.42304	0.00034
0.5537	1.42326	0.00034
0.5636	1.42362	0.00034
0.6203	1.4256	0.00034
0.662	1.42683	0.00034
0.7749	1.42973	0.00035
0.9286	1.43293	0.00036

System: ethanol + 1-methyl-3-octylimidazolium tetrafluoroborate; phases: Liquid
Fixed: Temperature, K = 298.15
Fixed: Pressure, kPa = 101
Property: Speed of sound, m/s (Liquid); method: Sing-around technique in a fixed-path interferometer
Mole fraction of 1-methyl-3-octylimidazolium tetrafluoroborate	Speed of sound, m/s	uncertainty
0.0517	1195	1
0.0818	1218	1
0.1822	1287	1
0.2779	1336	1
0.378	1376	1
0.46	1398	1
0.5474	1419	1
0.5537	1420	1
0.5636	1422	1
0.6203	1434	1
0.662	1441	2
0.7749	1459	2
0.9286	1481	2

System: ethanol + 1-methyl-3-octylimidazolium tetrafluoroborate; phases: Liquid
Fixed: Temperature, K = 298.15
Fixed: Pressure, kPa = 101
Property: Mass density, kg/m3 (Liquid); method: Vibrating tube method
Mole fraction of 1-methyl-3-octylimidazolium tetrafluoroborate	Mass density, kg/m3	uncertainty
0.0517	849.43	0.11
0.0818	878.24	0.11
0.1822	946.85	0.13
0.2779	988.78	0.13
0.378	1019.53	0.14
0.46	1038.64	0.15
0.5474	1054.97	0.16
0.5537	1056.01	0.16
0.5636	1057.63	0.17
0.6203	1066.22	0.18
0.662	1071.9	0.19
0.7749	1085.35	0.22
0.9286	1099.7	0.28

System: propan-1-ol + 1-methyl-3-octylimidazolium tetrafluoroborate; phases: Liquid
Fixed: Temperature, K = 298.15
Fixed: Pressure, kPa = 101
Property: Viscosity, Pa*s (Liquid); method: Capillary tube (Ostwald; Ubbelohde) method
Mole fraction of 1-methyl-3-octylimidazolium tetrafluoroborate	Viscosity, Pa*s	uncertainty
0.0473	0.002789	7.2e-05
0.0982	0.003942	7.4e-05
0.2034	0.007531	8.1e-05
0.241	0.009169	8.5e-05
0.2958	0.01221	0.0001
0.4007	0.02065	0.00013
0.4355	0.02452	0.00015
0.4988	0.03331	0.00021
0.5506	0.04339	0.00027
0.6165	0.0599	0.00034
0.6778	0.07952	0.00075
0.7828	0.1309	0.0023
0.9118	0.2384	0.0065

System: propan-1-ol + 1-methyl-3-octylimidazolium tetrafluoroborate; phases: Liquid
Fixed: Temperature, K = 298.15
Fixed: Pressure, kPa = 101
Property: Refractive index (Na D-line) (Liquid); method: Standard Abbe refractometry
Mole fraction of 1-methyl-3-octylimidazolium tetrafluoroborate	Refractive index (Na D-line)	uncertainty
0.0473	1.39108	0.00032
0.0982	1.3978	0.00032
0.2034	1.40783	0.00032
0.241	1.41061	0.00032
0.2958	1.41405	0.00033
0.4007	1.41928	0.00033
0.4355	1.42071	0.00033
0.4988	1.42301	0.00034
0.5506	1.42472	0.00034
0.6165	1.42671	0.00034
0.6778	1.42832	0.00035
0.7828	1.43069	0.00035
0.9118	1.43297	0.00036

System: propan-1-ol + 1-methyl-3-octylimidazolium tetrafluoroborate; phases: Liquid
Fixed: Temperature, K = 298.15
Fixed: Pressure, kPa = 101
Property: Speed of sound, m/s (Liquid); method: Sing-around technique in a fixed-path interferometer
Mole fraction of 1-methyl-3-octylimidazolium tetrafluoroborate	Speed of sound, m/s	uncertainty
0.0473	1232	1
0.0982	1256	1
0.2034	1306	1
0.241	1321	1
0.2958	1343	1
0.4007	1377	1
0.4355	1387	1
0.4988	1403	1
0.5506	1414	1
0.6165	1428	2
0.6778	1439	2
0.7828	1457	2
0.9118	1477	2

System: propan-1-ol + 1-methyl-3-octylimidazolium tetrafluoroborate; phases: Liquid
Fixed: Temperature, K = 298.15
Fixed: Pressure, kPa = 101
Property: Mass density, kg/m3 (Liquid); method: Vibrating tube method
Mole fraction of 1-methyl-3-octylimidazolium tetrafluoroborate	Mass density, kg/m3	uncertainty
0.0473	844.63	0.12
0.0982	883.64	0.12
0.2034	943.18	0.14
0.241	959.69	0.13
0.2958	980.53	0.13
0.4007	1012.5	0.16
0.4355	1021.38	0.16
0.4988	1035.79	0.17
0.5506	1046.19	0.17
0.6165	1057.95	0.19
0.6778	1067.63	0.2
0.7828	1081.97	0.23
0.9118	1096.63	0.28

System: propan-2-ol + 1-methyl-3-octylimidazolium tetrafluoroborate; phases: Liquid
Fixed: Temperature, K = 298.15
Fixed: Pressure, kPa = 101
Property: Viscosity, Pa*s (Liquid); method: Capillary tube (Ostwald; Ubbelohde) method
Mole fraction of 1-methyl-3-octylimidazolium tetrafluoroborate	Viscosity, Pa*s	uncertainty
0.0459	0.002956	7.3e-05
0.0892	0.003955	7.4e-05
0.182	0.007053	8.1e-05
0.2506	0.01015	9e-05
0.2965	0.01288	0.0001
0.3677	0.01827	0.00012
0.4214	0.02379	0.00016
0.4798	0.03166	0.0002
0.5028	0.03548	0.00023
0.6166	0.06195	0.00039
0.7089	0.0963	0.0012
0.7558	0.1205	0.0019
0.8697	0.2026	0.005

System: propan-2-ol + 1-methyl-3-octylimidazolium tetrafluoroborate; phases: Liquid
Fixed: Temperature, K = 298.15
Fixed: Pressure, kPa = 101
Property: Refractive index (Na D-line) (Liquid); method: Standard Abbe refractometry
Mole fraction of 1-methyl-3-octylimidazolium tetrafluoroborate	Refractive index (Na D-line)	uncertainty
0.0459	1.38385	0.00033
0.0892	1.39059	0.00033
0.182	1.40147	0.00033
0.2506	1.40743	0.00034
0.2965	1.41077	0.00034
0.3677	1.41503	0.00034
0.4214	1.41781	0.00034
0.4798	1.42048	0.00034
0.5028	1.42134	0.00035
0.6166	1.42547	0.00035
0.7089	1.42817	0.00035
0.7558	1.42938	0.00036
0.8697	1.43182	0.00036

System: propan-2-ol + 1-methyl-3-octylimidazolium tetrafluoroborate; phases: Liquid
Fixed: Temperature, K = 298.15
Fixed: Pressure, kPa = 101
Property: Speed of sound, m/s (Liquid); method: Sing-around technique in a fixed-path interferometer
Mole fraction of 1-methyl-3-octylimidazolium tetrafluoroborate	Speed of sound, m/s	uncertainty
0.0459	1170	1
0.0892	1198	1
0.182	1254	1
0.2506	1291	1
0.2965	1312	1
0.3677	1343	1
0.4214	1362	1
0.4798	1381	2
0.5028	1387	2
0.6166	1416	2
0.7089	1437	2
0.7558	1446	2
0.8697	1467	2

System: propan-2-ol + 1-methyl-3-octylimidazolium tetrafluoroborate; phases: Liquid
Fixed: Temperature, K = 298.15
Fixed: Pressure, kPa = 101
Property: Mass density, kg/m3 (Liquid); method: Vibrating tube method
Mole fraction of 1-methyl-3-octylimidazolium tetrafluoroborate	Mass density, kg/m3	uncertainty
0.0459	826.83	0.14
0.0892	862.39	0.14
0.182	921.09	0.16
0.2506	953.75	0.17
0.2965	972	0.16
0.3677	996.08	0.17
0.4214	1011.52	0.18
0.4798	1026.24	0.2
0.5028	1031.53	0.2
0.6166	1054.39	0.21
0.7089	1069.7	0.23
0.7558	1076.59	0.24
0.8697	1091.33	0.27
