Measured thermophysical data. Gaseous absorption of 2,3,3,3-tetrafluoroprop-1-ene in three imidazolium-based ionic liquids
Source: Fluid Phase Equilib., 2017, 10.1016/j.fluid.2017.07.013
Compound 1: 2,3,3,3-tetrafluoro-1-propene, C3H2F4, InChI=1S/C3H2F4/c1-2(4)3(5,6)7/h1H2, purity 99.9%
Compound 2: carbon dioxide, CO2, InChI=1S/CO2/c2-1-3, purity 99.99%
Compound 3: 1-ethyl-3-methylimidazolium tetrafluoroborate, C6H11BF4N2, InChI=1S/C6H11N2.BF4/c1-3-8-5-4-7(2)6-8;2-1(3,4)5/h4-6H,3H2,1-2H3;/q+1;-1, purity 97%
Compound 4: 1-hexyl-3-methylimidazolium tetrafluoroborate, C10H19BF4N2, InChI=1S/C10H19N2.BF4/c1-3-4-5-6-7-12-9-8-11(2)10-12;2-1(3,4)5/h8-10H,3-7H2,1-2H3;/q+1;-1, purity 97%
Compound 5: 1-methyl-3-octylimidazolium tetrafluoroborate, C12H23BF4N2, InChI=1S/C12H23N2.BF4/c1-3-4-5-6-7-8-9-14-11-10-13(2)12-14;2-1(3,4)5/h10-12H,3-9H2,1-2H3;/q+1;-1, purity 97%

System: carbon dioxide + 1-ethyl-3-methylimidazolium tetrafluoroborate; phases: Liquid, Gas
Fixed: Temperature, K = 298.15
Property: Mole fraction of carbon dioxide (Liquid); method: Phase equilibration
Pressure, kPa	Mole fraction of carbon dioxide	uncertainty
183.8	0.0424	0.0015
307.4	0.0674	0.0022
415.8	0.0858	0.0027
519.7	0.1044	0.0033
612.8	0.1197	0.0037
719.8	0.1366	0.0042
819.5	0.1523	0.0047
924.3	0.1675	0.0052

System: carbon dioxide + 1-hexyl-3-methylimidazolium tetrafluoroborate; phases: Liquid, Gas
Fixed: Temperature, K = 298.15
Property: Mole fraction of carbon dioxide (Liquid); method: Phase equilibration
Pressure, kPa	Mole fraction of carbon dioxide	uncertainty
201.6	0.0262	0.001
252.2	0.0335	0.0012
340.5	0.0455	0.0015
440	0.0568	0.0018
540.6	0.07	0.0022
645	0.0821	0.0026
745.9	0.0935	0.0029
848.5	0.1056	0.0033

System: 2,3,3,3-tetrafluoro-1-propene + 1-ethyl-3-methylimidazolium tetrafluoroborate; phases: Liquid, Gas
Property: Mole fraction of 2,3,3,3-tetrafluoro-1-propene (Liquid); method: Phase equilibration
Temperature, K	Pressure, kPa	Mole fraction of 2,3,3,3-tetrafluoro-1-propene	uncertainty
283.15	59.2	0.0065	0.0005
283.15	109.6	0.0121	0.0006
283.15	159.4	0.0174	0.0007
283.15	206.2	0.0228	0.0008
283.15	251.2	0.0279	0.001
283.15	297.2	0.0337	0.0012
283.15	341.1	0.0398	0.0013
293.15	61.8	0.0052	0.0004
293.15	114.4	0.0095	0.0004
293.15	166.5	0.0139	0.0005
293.15	215.8	0.0178	0.0006
293.15	263.2	0.0216	0.0007
293.15	312.1	0.0257	0.0009
293.15	358.5	0.0297	0.001
303.15	64.3	0.0042	0.0003
303.15	119.3	0.0076	0.0003
303.15	173.7	0.0112	0.0004
303.15	225.3	0.0145	0.0005
303.15	275.2	0.0175	0.0006
303.15	326.5	0.0208	0.0007
303.15	375.5	0.0239	0.0008
313.15	67.1	0.0035	0.0002
313.15	124.1	0.0065	0.0003
313.15	180.7	0.0095	0.0004
313.15	234.5	0.0122	0.0004
313.15	286.7	0.0147	0.0005
313.15	340.6	0.0173	0.0006
313.15	391.9	0.02	0.0006
323.15	69.5	0.0028	0.0002
323.15	128.9	0.0052	0.0002
323.15	187.6	0.0077	0.0003
323.15	243.6	0.0101	0.0004
323.15	298	0.0122	0.0004
323.15	354.3	0.0145	0.0005
323.15	408.1	0.017	0.0006
333.15	72.3	0.0023	0.0002
333.15	133.6	0.0043	0.0002
333.15	194.5	0.0063	0.0002
333.15	252.6	0.0085	0.0003
333.15	309.2	0.0105	0.0004
333.15	367.8	0.0125	0.0004
333.15	423.9	0.0142	0.0005
343.15	74.9	0.0019	0.0001
343.15	138.2	0.0037	0.0002
343.15	201.4	0.0053	0.0002
343.15	261.8	0.007	0.0002
343.15	320.3	0.0086	0.0003
343.15	381.3	0.0102	0.0003
343.15	439.9	0.0119	0.0004

System: 2,3,3,3-tetrafluoro-1-propene + 1-hexyl-3-methylimidazolium tetrafluoroborate; phases: Liquid, Gas
Property: Mole fraction of 2,3,3,3-tetrafluoro-1-propene (Liquid); method: Phase equilibration
Temperature, K	Pressure, kPa	Mole fraction of 2,3,3,3-tetrafluoro-1-propene	uncertainty
283.15	54.8	0.0226	0.0018
283.15	102.3	0.0422	0.002
283.15	155	0.0608	0.0024
283.15	193	0.0772	0.003
283.15	234.2	0.0962	0.0035
283.15	276.6	0.1165	0.0041
283.15	315.7	0.1388	0.0048
293.15	58.2	0.019	0.0013
293.15	108.3	0.0338	0.0016
293.15	157.9	0.0494	0.002
293.15	204.9	0.0646	0.0023
293.15	250.2	0.0791	0.0027
293.15	296.6	0.0944	0.0032
293.15	340.4	0.1102	0.0037
303.15	61.5	0.0155	0.001
303.15	114.4	0.0279	0.0013
303.15	167.1	0.0406	0.0016
303.15	217.5	0.0519	0.0018
303.15	266	0.0632	0.0022
303.15	315.5	0.0762	0.0026
303.15	362.7	0.0887	0.0029
313.15	64.6	0.0129	0.0008
313.15	120.4	0.0228	0.001
313.15	175.7	0.0337	0.0013
313.15	228.5	0.0438	0.0015
313.15	279.9	0.053	0.0018
313.15	332.6	0.0631	0.0021
313.15	382.8	0.0736	0.0024
323.15	67.6	0.0106	0.0007
323.15	126	0.0191	0.0008
323.15	183.8	0.0282	0.0011
323.15	239.5	0.0365	0.0013
323.15	293.3	0.0444	0.0015
323.15	348.9	0.0531	0.0017
323.15	401.9	0.062	0.002
333.15	70.5	0.0087	0.0006
333.15	131.3	0.0159	0.0007
333.15	191.8	0.0238	0.0009
333.15	249.9	0.0308	0.0011
333.15	305.7	0.0376	0.0013
333.15	364.4	0.0454	0.0015
333.15	420	0.0531	0.0017
343.15	73.7	0.0063	0.0005
343.15	136.6	0.0128	0.0006
343.15	199.8	0.0192	0.0007
343.15	260.2	0.0255	0.0009
343.15	314.6	0.0315	0.001
343.15	379.8	0.038	0.0012
343.15	438.4	0.0441	0.0014

System: 2,3,3,3-tetrafluoro-1-propene + 1-methyl-3-octylimidazolium tetrafluoroborate; phases: Liquid, Gas
Property: Mole fraction of 2,3,3,3-tetrafluoro-1-propene (Liquid); method: Phase equilibration
Temperature, K	Pressure, kPa	Mole fraction of 2,3,3,3-tetrafluoro-1-propene	uncertainty
283.15	54.8	0.0292	0.0023
283.15	102.3	0.0541	0.0027
283.15	149.2	0.0781	0.0032
283.15	192.9	0.1018	0.0039
283.15	233.7	0.1292	0.0047
283.15	275.9	0.1552	0.0055
283.15	314.5	0.1847	0.0064
293.15	57.6	0.0264	0.0019
293.15	108	0.0474	0.0022
293.15	157.6	0.0683	0.0027
293.15	204.7	0.0877	0.0031
293.15	249.7	0.1075	0.0037
293.15	295.8	0.1279	0.0044
293.15	339.3	0.149	0.005
303.15	60.8	0.0223	0.0014
303.15	114.3	0.039	0.002
303.15	167.1	0.0556	0.0021
303.15	217.1	0.0717	0.0026
303.15	265.2	0.0882	0.003
303.15	314.9	0.1041	0.0035
303.15	361.7	0.1203	0.0039
313.15	63.7	0.0193	0.0011
313.15	120	0.0329	0.0014
313.15	175.4	0.0472	0.0018
313.15	228.3	0.0607	0.0021
313.15	279.3	0.0741	0.0025
313.15	331.9	0.0879	0.0029
313.15	382.3	0.1017	0.0033
323.15	66.8	0.016	0.001
323.15	125.6	0.0276	0.0012
323.15	183.8	0.0395	0.0015
323.15	239.3	0.0509	0.0018
323.15	292.8	0.0625	0.0021
323.15	348.3	0.0742	0.0024
323.15	401.4	0.0859	0.0028
333.15	69.7	0.0134	0.0008
333.15	131	0.0235	0.001
333.15	191.6	0.034	0.0012
333.15	249.6	0.0439	0.0015
333.15	305.6	0.054	0.0018
333.15	363.9	0.0641	0.0021
333.15	419.6	0.0743	0.0024
343.15	72.5	0.0108	0.0007
343.15	136.1	0.0201	0.0008
343.15	199.3	0.0291	0.0011
343.15	259.8	0.0375	0.0013
343.15	318.5	0.0458	0.0015
343.15	379.3	0.0546	0.0018
343.15	437.9	0.0628	0.002
