Measured thermophysical data. Measurement and correlation of solubility of artemisinin in supercritical carbon dioxide
Source: Fluid Phase Equilib., 2009, 10.1016/j.fluid.2009.05.018
Compound 1: artemisinin, C15H22O5, InChI=1S/C15H22O5/c1-8-4-5-11-9(2)12(16)17-13-15(11)10(8)6-7-14(3,18-13)19-20-15/h8-11,13H,4-7H2,1-3H3/t8-,9-,10+,11+,13-,14-,15-/m1/s1
Compound 2: carbon dioxide, CO2, InChI=1S/CO2/c2-1-3

System: carbon dioxide + artemisinin; phases: Gas, Crystal 1
Property: Mole fraction of artemisinin (Gas); method: static method
Temperature, K	Pressure, kPa	Mole fraction of artemisinin	uncertainty
313	11000	0.000498	1.8e-05
313	14000	0.000762	2e-05
313	17000	0.001108	6.6e-05
313	17500	0.001274	6.6e-05
313	20000	0.001218	1.4e-05
313	23000	0.001658	1.4e-05
313	26000	0.001642	1.4e-05
313	28500	0.002047	2.8e-05
313	31000	0.002319	2.2e-05
323	14000	0.000498	6.8e-05
323	16000	0.001181	3.8e-05
323	18000	0.001287	1.1e-05
323	21000	0.001459	1.9e-05
323	23000	0.001766	1.9e-05
323	25000	0.001841	9e-06
323	26000	0.001966	1.9e-05
323	29000	0.002193	2e-05
323	31000	0.002467	3.7e-05
333	16000	0.000816	1.5e-05
333	20000	0.001106	1.8e-05
333	21000	0.001287	5.4e-05
333	22500	0.001766	3.5e-05
333	24500	0.001923	6e-06
333	26500	0.001889	2.6e-05
333	27000	0.002395	5e-05
333	29000	0.002636	2.6e-05
333	31000	0.002915	2.8e-05
