Measured thermophysical data. Viscometric study of myo-inositol in aqueous deep eutectic solvent solutions
Source: Fluid Phase Equilib., 2018, 10.1016/j.fluid.2018.06.018
Compound 1: cis-1,2,3,5-trans-4,6-cyclohexanehexol, C6H12O6, InChI=1S/C6H12O6/c7-1-2(8)4(10)6(12)5(11)3(1)9/h1-12H/t1-,2-,3-,4+,5-,6-, purity 99%
Compound 2: water, H2O, InChI=1S/H2O/h1H2, purity 99.9%
Compound 3: choline chloride, C5H14ClNO, InChI=1S/C5H14NO.ClH/c1-6(2,3)4-5-7;/h7H,4-5H2,1-3H3;1H/q+1;/p-1, purity 98%
Compound 4: urea, CH4N2O, InChI=1S/CH4N2O/c2-1(3)4/h(H4,2,3,4), purity 98%
Compound 5: glycerol, C3H8O3, InChI=1S/C3H8O3/c4-1-3(6)2-5/h3-6H,1-2H2, purity 98%

System: water; phases: Liquid
Fixed: Pressure, kPa = 99
Property: Kinematic viscosity, m2/s (Liquid); method: Capillary tube (Ostwald; Ubbelohde) method
Temperature, K	Kinematic viscosity, m2/s	uncertainty
293.15	1.0002e-06	2.09e-08
298.15	8.916e-07	1.87e-08
303.15	8.015e-07	1.68e-08
308.15	7.25e-07	1.52e-08
313.15	6.607e-07	1.39e-08
318.15	6.05e-07	1.27e-08

System: cis-1,2,3,5-trans-4,6-cyclohexanehexol + water; phases: Liquid
Fixed: Pressure, kPa = 99
Property: Kinematic viscosity, m2/s (Liquid); method: Capillary tube (Ostwald; Ubbelohde) method
Temperature, K	Molality, mol/kg of cis-1,2,3,5-trans-4,6-cyclohexanehexol	Kinematic viscosity, m2/s	uncertainty
293.15	0	1.0002e-06	2.09e-08
293.15	0.0274	1.0107e-06	2.11e-08
293.15	0.0468	1.0191e-06	2.13e-08
293.15	0.0745	1.0303e-06	2.15e-08
293.15	0.0987	1.0401e-06	2.18e-08
293.15	0.1239	1.05e-06	2.2e-08
293.15	0.1471	1.0594e-06	2.22e-08
298.15	0	8.916e-07	1.87e-08
298.15	0.0274	9.007e-07	1.89e-08
298.15	0.0468	9.078e-07	1.9e-08
298.15	0.0745	9.17e-07	1.92e-08
298.15	0.0987	9.254e-07	1.94e-08
298.15	0.1239	9.345e-07	1.96e-08
298.15	0.1471	9.421e-07	1.97e-08
303.15	0	8.015e-07	1.68e-08
303.15	0.0274	8.101e-07	1.7e-08
303.15	0.0468	8.155e-07	1.71e-08
303.15	0.0745	8.244e-07	1.73e-08
303.15	0.0987	8.311e-07	1.74e-08
303.15	0.1239	8.392e-07	1.76e-08
303.15	0.1471	8.457e-07	1.77e-08
308.15	0	7.25e-07	1.52e-08
308.15	0.0274	7.326e-07	1.54e-08
308.15	0.0468	7.373e-07	1.55e-08
308.15	0.0745	7.45e-07	1.56e-08
308.15	0.0987	7.51e-07	1.57e-08
308.15	0.1239	7.577e-07	1.59e-08
308.15	0.1471	7.638e-07	1.6e-08
313.15	0	6.607e-07	1.39e-08
313.15	0.0274	6.676e-07	1.4e-08
313.15	0.0468	6.718e-07	1.41e-08
313.15	0.0745	6.786e-07	1.42e-08
313.15	0.0987	6.843e-07	1.44e-08
313.15	0.1239	6.9e-07	1.45e-08
313.15	0.1471	6.955e-07	1.46e-08
318.15	0	6.05e-07	1.27e-08
318.15	0.0274	6.11e-07	1.28e-08
318.15	0.0468	6.153e-07	1.29e-08
318.15	0.0745	6.204e-07	1.3e-08
318.15	0.0987	6.255e-07	1.31e-08
318.15	0.1239	6.311e-07	1.33e-08
318.15	0.1471	6.354e-07	1.33e-08

System: water + choline chloride + urea; phases: Liquid
Fixed: Pressure, kPa = 99
Property: Kinematic viscosity, m2/s (Liquid); method: Capillary tube (Ostwald; Ubbelohde) method
Molality, mol/kg of choline chloride	Molality, mol/kg of urea	Temperature, K	Kinematic viscosity, m2/s	uncertainty
0.03697	0.07393	293.15	1.0075e-06	2.11e-08
0.03697	0.07393	298.15	9.013e-07	1.89e-08
0.03697	0.07393	303.15	8.099e-07	1.7e-08
0.03697	0.07393	308.15	7.304e-07	1.53e-08
0.03697	0.07393	313.15	6.642e-07	1.39e-08
0.03697	0.07393	318.15	6.128e-07	1.29e-08
0.07397	0.14793	293.15	1.0162e-06	2.13e-08
0.07397	0.14793	298.15	9.088e-07	1.9e-08
0.07397	0.14793	303.15	8.166e-07	1.71e-08
0.07397	0.14793	308.15	7.373e-07	1.55e-08
0.07397	0.14793	313.15	6.712e-07	1.41e-08
0.07397	0.14793	318.15	6.182e-07	1.3e-08
0.12777	0.25553	293.15	1.0259e-06	2.15e-08
0.12777	0.25553	298.15	9.188e-07	1.92e-08
0.12777	0.25553	303.15	8.254e-07	1.73e-08
0.12777	0.25553	308.15	7.453e-07	1.56e-08
0.12777	0.25553	313.15	6.786e-07	1.42e-08
0.12777	0.25553	318.15	6.263e-07	1.32e-08
0.16937	0.33873	293.15	1.0348e-06	2.16e-08
0.16937	0.33873	298.15	9.274e-07	1.94e-08
0.16937	0.33873	303.15	8.328e-07	1.75e-08
0.16937	0.33873	308.15	7.524e-07	1.58e-08
0.16937	0.33873	313.15	6.859e-07	1.44e-08
0.16937	0.33873	318.15	6.322e-07	1.33e-08

System: water + choline chloride + glycerol; phases: Liquid
Fixed: Pressure, kPa = 99
Property: Kinematic viscosity, m2/s (Liquid); method: Capillary tube (Ostwald; Ubbelohde) method
Molality, mol/kg of choline chloride	Molality, mol/kg of glycerol	Temperature, K	Kinematic viscosity, m2/s	uncertainty
0.04173	0.08347	293.15	1.0266e-06	2.15e-08
0.04173	0.08347	298.15	9.184e-07	1.92e-08
0.04173	0.08347	303.15	8.242e-07	1.73e-08
0.04173	0.08347	308.15	7.437e-07	1.56e-08
0.04173	0.08347	313.15	6.762e-07	1.42e-08
0.04173	0.08347	318.15	6.225e-07	1.31e-08
0.0846	0.1692	293.15	1.0513e-06	2.2e-08
0.0846	0.1692	298.15	9.397e-07	1.97e-08
0.0846	0.1692	303.15	8.428e-07	1.77e-08
0.0846	0.1692	308.15	7.603e-07	1.59e-08
0.0846	0.1692	313.15	6.912e-07	1.45e-08
0.0846	0.1692	318.15	6.361e-07	1.34e-08
0.12473	0.24947	293.15	1.074e-06	2.25e-08
0.12473	0.24947	298.15	9.595e-07	2.01e-08
0.12473	0.24947	303.15	8.605e-07	1.8e-08
0.12473	0.24947	308.15	7.757e-07	1.63e-08
0.12473	0.24947	313.15	7.046e-07	1.48e-08
0.12473	0.24947	318.15	6.481e-07	1.36e-08
0.1662	0.3324	293.15	1.0972e-06	2.3e-08
0.1662	0.3324	298.15	9.807e-07	2.05e-08
0.1662	0.3324	303.15	8.786e-07	1.84e-08
0.1662	0.3324	308.15	7.909e-07	1.66e-08
0.1662	0.3324	313.15	7.187e-07	1.51e-08
0.1662	0.3324	318.15	6.613e-07	1.39e-08
