Measured thermophysical data. Carbon dioxide solubility in 1-butyl-3-methylimidazolium tetrafluoroborate and 1-butyl-3-methylimidazolium tetrachloroferrate over an extended range of temperature and pressure
Source: Fluid Phase Equilib., 2018, 10.1016/j.fluid.2018.03.019
Compound 1: 1-butyl-3-methylimidazolium tetrafluoroborate, C8H15BF4N2, InChI=1S/C8H15N2.BF4/c1-3-4-5-10-7-6-9(2)8-10;2-1(3,4)5/h6-8H,3-5H2,1-2H3;/q+1;-1, purity 99%
Compound 2: 1-butyl-3-methylimidazolium tetrachloroferrate, C8H15Cl4FeN2, InChI=1S/C8H15N2.4ClH.Fe/c1-3-4-5-10-7-6-9(2)8-10;;;;;/h6-8H,3-5H2,1-2H3;4*1H;/q+1;;;;;+3/p-4, purity 98%
Compound 3: carbon dioxide, CO2, InChI=1S/CO2/c2-1-3

System: 1-butyl-3-methylimidazolium tetrafluoroborate + carbon dioxide; phases: Liquid, Gas
Property: Mole fraction of carbon dioxide (Liquid); method: Pressure drop isochoric method
Temperature, K	Pressure, kPa	Mole fraction of carbon dioxide	uncertainty
413.15	4732	0.1428	0.0009
393.15	4710	0.1684	0.0011
373.15	4673	0.2086	0.0014
353.15	4630	0.2433	0.0016
333.15	4568	0.3094	0.0021
313.15	4484	0.3839	0.0026
293.15	4349	0.4876	0.0033
413.15	2701	0.0804	0.0005
393.15	2678	0.1	0.0007
373.15	2654	0.12	0.0008
353.15	2623	0.15	0.001
333.15	2587	0.1943	0.0013
313.15	2537	0.2539	0.0017
293.15	2466	0.3394	0.0022
273.15	2353	0.4622	0.0031
413.15	1299	0.0368	0.0003
393.15	1290	0.044	0.0003
373.15	1278	0.054	0.0004
353.15	1263	0.07	0.0005
333.15	1244	0.0925	0.0006
313.15	1220	0.1297	0.0008
293.15	1187	0.1861	0.0012
273.15	1138	0.2712	0.0018
413.15	417	0.0117	0.0001
393.15	414	0.013	0.0001
373.15	410	0.0163	0.0002
353.15	405	0.0227	0.0002
333.15	399	0.0316	0.0002
313.15	391	0.0466	0.0003
293.15	381	0.0668	0.0004
273.15	369	0.0917	0.0006

System: 1-butyl-3-methylimidazolium tetrachloroferrate + carbon dioxide; phases: Liquid, Gas
Property: Mole fraction of carbon dioxide (Liquid); method: Pressure drop isochoric method
Temperature, K	Pressure, kPa	Mole fraction of carbon dioxide	uncertainty
413.15	4887	0.2333	0.0016
393.15	4859	0.2531	0.0018
373.15	4825	0.2767	0.002
353.15	4777	0.318	0.0023
333.15	4718	0.3589	0.0026
313.15	4628	0.4227	0.0032
293.15	4478	0.5126	0.0037
413.15	2708	0.1403	0.0009
393.15	2686	0.1579	0.0011
373.15	2660	0.1794	0.0012
353.15	2627	0.2091	0.0014
333.15	2588	0.2421	0.0017
313.15	2534	0.2909	0.0021
293.15	2457	0.3584	0.0026
273.15	2340	0.4489	0.0034
413.15	1337	0.0801	0.0005
393.15	1329	0.081	0.0005
373.15	1316	0.092	0.0006
353.15	1300	0.1073	0.0007
333.15	1281	0.1263	0.0008
313.15	1255	0.1564	0.0011
293.15	1220	0.1987	0.0014
273.15	1168	0.2625	0.0019
413.15	443	0.0268	0.0002
393.15	439	0.0307	0.0002
373.15	434	0.0367	0.0002
353.15	428	0.0447	0.0003
333.15	422	0.0517	0.0003
313.15	415	0.0603	0.0004
293.15	402	0.0837	0.0005
273.15	391	0.0998	0.0007
