Measured thermophysical data. Separation of ethyl acetate and 2-propanol azeotropic mixture using ionic liquids as entrainers
Source: Fluid Phase Equilib., 2016, 10.1016/j.fluid.2016.08.011
Compound 1: ethyl acetate, C4H8O2, InChI=1S/C4H8O2/c1-3-6-4(2)5/h3H2,1-2H3, purity 99.9%
Compound 2: propan-2-ol, C3H8O, InChI=1S/C3H8O/c1-3(2)4/h3-4H,1-2H3, purity 99.9%
Compound 3: 1-butyl-3-methylimidazolium acetate, C10H18N2O2, InChI=1S/C8H15N2.C2H4O2/c1-3-4-5-10-7-6-9(2)8-10;1-2(3)4/h6-8H,3-5H2,1-2H3;1H3,(H,3,4)/q+1;/p-1, purity 98%
Compound 4: 1-butyl-3-methylimidazolium bromide, C8H15BrN2, InChI=1S/C8H15N2.BrH/c1-3-4-5-10-7-6-9(2)8-10;/h6-8H,3-5H2,1-2H3;1H/q+1;/p-1, purity 98%
Compound 5: 1-butyl-3-methylimidazolium tetrafluoroborate, C8H15BF4N2, InChI=1S/C8H15N2.BF4/c1-3-4-5-10-7-6-9(2)8-10;2-1(3,4)5/h6-8H,3-5H2,1-2H3;/q+1;-1, purity 98%

System: propan-2-ol + ethyl acetate; phases: Liquid, Gas
Fixed: Pressure, kPa = 101.3
Property: Boiling temperature at pressure P, K (Liquid); method: Ebulliometric method (Recirculating still)
Mole fraction of ethyl acetate	Boiling temperature at pressure P, K	uncertainty
0	355.37	0.09
0.094	353.04	0.09
0.197	351.72	0.09
0.243	351.23	0.09
0.284	350.79	0.09
0.369	349.99	0.09
0.487	349.21	0.09
0.565	348.79	0.09
0.683	348.58	0.09
0.709	348.53	0.09
0.731	348.55	0.09
0.764	348.58	0.09
0.818	348.72	0.09
0.942	349.45	0.09
1	350.14	0.09

System: propan-2-ol + ethyl acetate; phases: Gas, Liquid
Fixed: Pressure, kPa = 101.3
Property: Mole fraction of ethyl acetate (Gas); method: Chromatography
Mole fraction of ethyl acetate	Mole fraction of ethyl acetate	uncertainty
0	0	
0.094	0.155	0.004
0.197	0.291	0.004
0.243	0.344	0.004
0.284	0.387	0.004
0.369	0.46	0.005
0.487	0.553	0.005
0.565	0.603	0.004
0.683	0.689	0.004
0.709	0.71	0.004
0.731	0.725	0.003
0.764	0.751	0.003
0.818	0.798	0.003
0.942	0.923	0.003
1	1	

System: propan-2-ol + ethyl acetate + 1-butyl-3-methylimidazolium acetate; phases: Liquid, Gas
Fixed: Pressure, kPa = 101.3
Property: Mole fraction of 1-butyl-3-methylimidazolium acetate (Liquid); method: mass balance
Property: Mole fraction of 1-butyl-3-methylimidazolium acetate (Gas); method: mass balance
Property: Mole fraction of ethyl acetate (Gas); method: mass balance
Temperature, K	Mole fraction of ethyl acetate	Mole fraction of 1-butyl-3-methylimidazolium acetate	uncertainty	Mole fraction of 1-butyl-3-methylimidazolium acetate	uncertainty	Mole fraction of ethyl acetate	uncertainty
357.7	0.002	0.1	0.002	0		0.005	
356.25	0.073	0.1	0.002	0		0.164	
355.75	0.103	0.099	0.002	0		0.221	
355.16	0.15	0.1	0.002	0		0.298	
354.59	0.201	0.101	0.002	0		0.377	
354.1	0.249	0.1	0.002	0		0.437	
353.78	0.293	0.1	0.002	0		0.488	
353.19	0.399	0.101	0.002	0		0.593	
352.72	0.517	0.098	0.002	0		0.69	
352.61	0.605	0.1	0.002	0		0.761	
352.52	0.725	0.101	0.002	0		0.852	
352.5	0.757	0.1	0.002	0		0.875	
352.51	0.835	0.1	0.002	0		0.942	
360.16	0.016	0.198	0.002	0		0.051	
359.53	0.046	0.201	0.002	0		0.142	
358.43	0.097	0.199	0.002	0		0.269	
357.05	0.194	0.2	0.002	0		0.454	
356.23	0.281	0.201	0.002	0		0.577	
355.65	0.369	0.2	0.002	0		0.674	
355.3	0.455	0.202	0.002	0		0.754	
354.89	0.564	0.2	0.002	0		0.837	
354.72	0.609	0.198	0.002	0		0.867	
354.55	0.664	0.2	0.002	0		0.907	
354.39	0.703	0.199	0.002	0		0.932	
354.29	0.731	0.201	0.002	0		0.953	
362.8	0.028	0.299	0.002	0		0.117	
361.63	0.066	0.3	0.002	0		0.25	
360.62	0.105	0.301	0.002	0		0.362	
359.31	0.164	0.298	0.002	0		0.493	
358.54	0.212	0.299	0.002	0		0.579	
358.07	0.247	0.3	0.002	0		0.633	
357.43	0.308	0.302	0.002	0		0.712	
356.97	0.359	0.3	0.002	0		0.764	
356.64	0.4	0.301	0.002	0		0.802	
356.14	0.479	0.3	0.002	0		0.863	
355.92	0.514	0.302	0.002	0		0.889	
355.58	0.564	0.3	0.002	0		0.92	
355.19	0.615	0.299	0.002	0		0.95	
354.74	0.666	0.3	0.002	0		0.981	

System: propan-2-ol + ethyl acetate + 1-butyl-3-methylimidazolium bromide; phases: Liquid, Gas
Fixed: Pressure, kPa = 101.3
Property: Mole fraction of 1-butyl-3-methylimidazolium bromide (Liquid); method: OTHER
Property: Mole fraction of 1-butyl-3-methylimidazolium bromide (Gas); method: OTHER
Property: Mole fraction of ethyl acetate (Gas); method: OTHER
Temperature, K	Mole fraction of ethyl acetate	Mole fraction of 1-butyl-3-methylimidazolium bromide	uncertainty	Mole fraction of 1-butyl-3-methylimidazolium bromide	uncertainty	Mole fraction of ethyl acetate	uncertainty
356.57	0.04	0.1	0.002	0		0.095	
356.34	0.068	0.099	0.002	0		0.152	
355.65	0.111	0.1	0.002	0		0.231	
355.09	0.148	0.1	0.002	0		0.296	
354.5	0.204	0.101	0.002	0		0.375	
353.69	0.297	0.101	0.002	0		0.49	
353.18	0.371	0.099	0.002	0		0.56	
352.65	0.534	0.101	0.002	0		0.703	
352.56	0.606	0.102	0.002	0		0.759	
352.41	0.657	0.099	0.002	0		0.793	
352.42	0.705	0.1	0.002	0		0.83	
352.51	0.799	0.102	0.002	0		0.92	
352.56	0.867	0.1	0.002	0		0.969	
359.53	0.043	0.199	0.002	0		0.131	
359.04	0.066	0.199	0.002	0		0.19	
358.7	0.082	0.2	0.002	0		0.231	
358.09	0.116	0.2	0.002	0		0.306	
357.51	0.152	0.201	0.002	0		0.376	
356.89	0.197	0.201	0.002	0		0.453	
356.25	0.257	0.201	0.002	0		0.54	
355.56	0.347	0.201	0.002	0		0.644	
355.14	0.429	0.202	0.002	0		0.722	
354.9	0.493	0.202	0.002	0		0.776	
354.68	0.565	0.202	0.002	0		0.833	
354.48	0.635	0.202	0.002	0		0.881	
354.3	0.698	0.203	0.002	0		0.928	
354.21	0.727	0.203	0.002	0		0.949	
361.77	0.057	0.291	0.002	0		0.209	
361.5	0.073	0.299	0.002	0		0.264	
360.21	0.123	0.299	0.002	0		0.394	
359.18	0.172	0.3	0.002	0		0.497	
358.37	0.22	0.3	0.002	0		0.58	
357.7	0.27	0.3	0.002	0		0.652	
357.08	0.328	0.3	0.002	0		0.72	
356.61	0.384	0.301	0.002	0		0.776	
356.09	0.457	0.301	0.002	0		0.838	
355.75	0.511	0.301	0.002	0		0.878	
355.37	0.568	0.302	0.002	0		0.918	
355.05	0.612	0.302	0.002	0		0.945	
354.82	0.643	0.302	0.002	0		0.967	

System: propan-2-ol + ethyl acetate + 1-butyl-3-methylimidazolium tetrafluoroborate; phases: Liquid, Gas
Fixed: Pressure, kPa = 101.3
Property: Mole fraction of 1-butyl-3-methylimidazolium tetrafluoroborate (Liquid); method: OTHER
Property: Mole fraction of 1-butyl-3-methylimidazolium tetrafluoroborate (Gas); method: OTHER
Property: Mole fraction of ethyl acetate (Gas); method: OTHER
Temperature, K	Mole fraction of ethyl acetate	Mole fraction of 1-butyl-3-methylimidazolium tetrafluoroborate	uncertainty	Mole fraction of 1-butyl-3-methylimidazolium tetrafluoroborate	uncertainty	Mole fraction of ethyl acetate	uncertainty
355.71	0.071	0.101	0.002	0		0.156	
355.17	0.126	0.101	0.002	0		0.252	
354.69	0.163	0.103	0.002	0		0.31	
354.13	0.211	0.102	0.002	0		0.373	
353.49	0.278	0.101	0.002	0		0.452	
353.15	0.321	0.1	0.002	0		0.494	
352.68	0.423	0.102	0.002	0		0.589	
352.36	0.517	0.101	0.002	0		0.664	
352.28	0.578	0.103	0.002	0		0.712	
352.18	0.654	0.101	0.002	0		0.77	
352.2	0.694	0.102	0.002	0		0.803	
352.19	0.754	0.1	0.002	0		0.852	
352.32	0.817	0.1	0.002	0		0.91	
352.55	0.871	0.101	0.002	0		0.967	
358.74	0.054	0.2	0.002	0		0.155	
358.1	0.083	0.2	0.002	0		0.223	
357.6	0.112	0.202	0.002	0		0.284	
357.14	0.139	0.201	0.002	0		0.333	
356.72	0.169	0.201	0.002	0		0.382	
356.27	0.204	0.2	0.002	0		0.435	
355.69	0.259	0.197	0.002	0		0.505	
355.39	0.315	0.201	0.002	0		0.57	
355.12	0.36	0.2	0.002	0		0.615	
354.65	0.507	0.2	0.002	0		0.744	
354.54	0.551	0.2	0.002	0		0.779	
354.47	0.596	0.2	0.002	0		0.816	
354.4	0.633	0.2	0.002	0		0.846	
354.35	0.664	0.2	0.002	0		0.873	
354.33	0.69	0.201	0.002	0		0.896	
361.12	0.052	0.301	0.002	0		0.186	
360.64	0.069	0.302	0.002	0		0.235	
359.74	0.103	0.302	0.002	0		0.323	
358.97	0.139	0.3	0.002	0		0.395	
358.35	0.181	0.306	0.002	0		0.476	
357.74	0.223	0.301	0.002	0		0.538	
357.05	0.297	0.302	0.002	0		0.633	
356.63	0.363	0.304	0.002	0		0.702	
356.3	0.422	0.302	0.002	0		0.754	
355.93	0.498	0.3	0.002	0		0.821	
355.83	0.529	0.308	0.002	0		0.853	
355.53	0.586	0.305	0.002	0		0.899	
355.19	0.647	0.302	0.002	0		0.951	
