Measured thermophysical data. Solubility, liquid-liquid equilibrium and critical states for quaternary system acetic acid - n-amyl alcohol - n-amyl acetate - water at 303.15 K and atmospheric pressure
Source: Fluid Phase Equilib., 2018, 10.1016/j.fluid.2018.05.009
Compound 1: acetic acid, C2H4O2, InChI=1S/C2H4O2/c1-2(3)4/h1H3,(H,3,4), purity 99.7%
Compound 2: pentan-1-ol, C5H12O, InChI=1S/C5H12O/c1-2-3-4-5-6/h6H,2-5H2,1H3, purity 99.7%
Compound 3: pentyl ethanoate, C7H14O2, InChI=1S/C7H14O2/c1-3-4-5-6-9-7(2)8/h3-6H2,1-2H3, purity 99.8%
Compound 4: water, H2O, InChI=1S/H2O/h1H2, purity 99.8%

System: acetic acid + pentyl ethanoate + water; phases: Liquid mixture 1, Liquid mixture 2
Fixed: Temperature, K = 303.15
Fixed: Pressure, kPa = 101
Property: Mole fraction of pentyl ethanoate (Liquid mixture 1); method: Titration method
Mole fraction of acetic acid	Mole fraction of pentyl ethanoate	uncertainty
0.285	0.077	0.02
0.285	0.079	0.02
0.286	0.08	0.02
0.289	0.087	0.02
0.293	0.095	0.02
0.301	0.113	0.02
0.304	0.122	0.02
0.312	0.162	0.021
0.309	0.162	0.021
0.311	0.173	0.021
0.312	0.181	0.021
0.313	0.19	0.021
0.314	0.202	0.021
0.314	0.215	0.021
0.314	0.23	0.021
0.312	0.264	0.021
0.302	0.311	0.022
0.265	0.424	0.023
0.199	0.558	0.024
0.198	0.556	0.024
0.269	0.047	0.02
0.285	0.076	0.02
0.292	0.092	0.02
0.306	0.132	0.02

System: acetic acid + pentyl ethanoate + water; phases: Liquid mixture 2, Liquid mixture 1
Fixed: Temperature, K = 303.15
Fixed: Pressure, kPa = 101
Property: Mole fraction of pentyl ethanoate (Liquid mixture 2); method: Chromatography
Property: Mole fraction of acetic acid (Liquid mixture 1); method: Chromatography
Property: Mole fraction of pentyl ethanoate (Liquid mixture 1); method: Chromatography
Mole fraction of acetic acid	Mole fraction of pentyl ethanoate	uncertainty	Mole fraction of acetic acid	uncertainty	Mole fraction of pentyl ethanoate	uncertainty
0.093	0.007	0.007	0.247	0.011	0.52	
0.121	0.002	0.002	0.294	0.011	0.396	
0.138	0.004	0.004	0.317	0.01	0.294	
0.067	0.002	0.002	0.187	0.012	0.633	
0.033	0.002	0.002	0.091	0.01	0.783	

System: acetic acid + pentan-1-ol + water; phases: Liquid mixture 1, Liquid mixture 2
Fixed: Temperature, K = 303.15
Fixed: Pressure, kPa = 101
Property: Mole fraction of pentan-1-ol (Liquid mixture 1); method: Titration method
Mole fraction of acetic acid	Mole fraction of pentan-1-ol	uncertainty
0.156	0.101	0.02
0.116	0.027	0.02
0.127	0.049	0.02
0.133	0.052	0.02
0.135	0.055	0.02
0.138	0.06	0.02
0.141	0.066	0.02
0.143	0.069	0.02
0.144	0.072	0.02
0.147	0.078	0.02
0.153	0.092	0.02
0.156	0.099	0.02
0.18	0.234	0.021
0.158	0.112	0.02
0.164	0.13	0.02
0.168	0.147	0.02
0.171	0.161	0.021
0.175	0.186	0.021
0.178	0.248	0.021
0.174	0.288	0.022
0.178	0.193	0.021
0.176	0.201	0.021
0.18	0.231	0.021
0.178	0.257	0.021
0.177	0.265	0.021
0.175	0.281	0.022
0.095	0.469	0.024
0.143	0.379	0.023
0.125	0.423	0.023

System: acetic acid + pentan-1-ol + water; phases: Liquid mixture 2, Liquid mixture 1
Fixed: Temperature, K = 303.15
Fixed: Pressure, kPa = 101
Property: Mole fraction of pentan-1-ol (Liquid mixture 2); method: Chromatography
Property: Mole fraction of acetic acid (Liquid mixture 1); method: Chromatography
Property: Mole fraction of pentan-1-ol (Liquid mixture 1); method: Chromatography
Mole fraction of acetic acid	Mole fraction of pentan-1-ol	uncertainty	Mole fraction of acetic acid	uncertainty	Mole fraction of pentan-1-ol	uncertainty
0.016	0.006	0.006	0.052	0.01	0.573	
0.033	0.007	0.007	0.097	0.011	0.494	
0.051	0.008	0.008	0.132	0.011	0.418	
0.079	0.012	0.01	0.17	0.01	0.318	
0.099	0.017	0.01	0.18	0.01	0.241	

System: pentan-1-ol + pentyl ethanoate + water; phases: Liquid mixture 1, Liquid mixture 2
Fixed: Temperature, K = 303.15
Fixed: Pressure, kPa = 101
Property: Mole fraction of pentyl ethanoate (Liquid mixture 1); method: Titration method
Mole fraction of pentan-1-ol	Mole fraction of pentyl ethanoate	uncertainty
0.117	0.746	0.021
0.212	0.633	0.023
0.29	0.507	0.024
0.347	0.42	0.023
0.4	0.348	0.022
0.475	0.232	0.021
0.513	0.184	0.021
0.533	0.146	0.02
0.558	0.114	0.02

System: pentan-1-ol + pentyl ethanoate + water; phases: Liquid mixture 1, Liquid mixture 2
Fixed: Temperature, K = 303.15
Fixed: Pressure, kPa = 101
Property: Mole fraction of pentyl ethanoate (Liquid mixture 1); method: Chromatography
Property: Mole fraction of pentyl ethanoate (Liquid mixture 2); method: Chromatography
Property: Mole fraction of pentan-1-ol (Liquid mixture 2); method: Chromatography
Mole fraction of pentan-1-ol	Mole fraction of pentyl ethanoate	uncertainty	Mole fraction of pentyl ethanoate	uncertainty	Mole fraction of pentan-1-ol	uncertainty
0.363	0.43	0.01	0.001	0.001	0.003	
0.466	0.278	0.015	0		0.003	
0.563	0.132	0.018	0		0.004	
0.24	0.61	0.017	0.001	0.001	0.002	
0.129	0.756	0.01	0.001	0.001	0.001	
0.6	0.125	0.01	0.001	0.001	0.006	
0.504	0.263	0.019	0.003	0.003	0.007	
0.381	0.396	0.01	0.004	0.004	0.006	
0.277	0.582	0.018	0.002	0.002	0.003	
0.144	0.749	0.01	0.002	0.002	0.002	

System: pentyl ethanoate + water; phases: Liquid mixture 1, Liquid mixture 2
Property: Mole fraction of pentyl ethanoate (Liquid mixture 1); method: Chromatography
Temperature, K	Pressure, kPa	Mole fraction of pentyl ethanoate	uncertainty
303.15	101	0.908	0.01

System: pentyl ethanoate + water; phases: Liquid mixture 2, Liquid mixture 1
Property: Mole fraction of pentyl ethanoate (Liquid mixture 2); method: Chromatography
Temperature, K	Pressure, kPa	Mole fraction of pentyl ethanoate	uncertainty
303.15	101	0.001	0.001

System: pentan-1-ol + water; phases: Liquid mixture 1, Liquid mixture 2
Property: Mole fraction of pentan-1-ol (Liquid mixture 1); method: Chromatography
Temperature, K	Pressure, kPa	Mole fraction of pentan-1-ol	uncertainty
303.15	101	0.658	0.01

System: pentan-1-ol + water; phases: Liquid mixture 2, Liquid mixture 1
Property: Mole fraction of pentan-1-ol (Liquid mixture 2); method: Chromatography
Temperature, K	Pressure, kPa	Mole fraction of pentan-1-ol	uncertainty
303.15	101	0.005	0.005
