Measured thermophysical data. Ultrasonic velocity, viscosity and excess properties of binary mixture of tetrahydrofuran with 1-propanol and 2-propanol
Source: Fluid Phase Equilib., 2006, 10.1016/j.fluid.2005.07.013
Compound 1: tetrahydrofuran, C4H8O, InChI=1S/C4H8O/c1-2-4-5-3-1/h1-4H2
Compound 2: propan-1-ol, C3H8O, InChI=1S/C3H8O/c1-2-3-4/h4H,2-3H2,1H3
Compound 3: propan-2-ol, C3H8O, InChI=1S/C3H8O/c1-3(2)4/h3-4H,1-2H3
Compound 4: benzene, C6H6, InChI=1S/C6H6/c1-2-4-6-5-3-1/h1-6H
Compound 5: tetrachloromethane, CCl4, InChI=1S/CCl4/c2-1(3,4)5

System: tetrahydrofuran; phases: Liquid
Fixed: Pressure, kPa = 101
Property: Viscosity, Pa*s (Liquid); method: CAPTUB:UFactor:8
Temperature, K	Viscosity, Pa*s	uncertainty
293	0.00049	4e-05
293	0.00047	5e-05
303	0.00042	3e-05
313	0.00039	3e-05

System: tetrahydrofuran; phases: Liquid
Fixed: Pressure, kPa = 101
Property: Speed of sound, m/s (Liquid); method: FPINT:UFactor:16
Temperature, K	Speed of sound, m/s	uncertainty
293	1302	15
303	1254	14
313	1202	14

System: propan-1-ol; phases: Liquid
Fixed: Pressure, kPa = 101
Property: Viscosity, Pa*s (Liquid); method: CAPTUB:UFactor:8
Temperature, K	Viscosity, Pa*s	uncertainty
293	0.00219	0.00014
303	0.00161	0.00011
313	0.00134	9e-05

System: propan-1-ol; phases: Liquid
Fixed: Pressure, kPa = 101
Property: Speed of sound, m/s (Liquid); method: FPINT::UFactor:16
Temperature, K	Speed of sound, m/s	uncertainty
293	1224	14
303	1189	14
313	1155	13

System: propan-2-ol; phases: Liquid
Fixed: Pressure, kPa = 101
Property: Viscosity, Pa*s (Liquid); method: CAPTUB::UFactor:12
Temperature, K	Viscosity, Pa*s	uncertainty
293	0.0021	0.00019
303	0.00149	0.00014
313	0.00113	0.00011

System: propan-2-ol; phases: Liquid
Fixed: Pressure, kPa = 101
Property: Speed of sound, m/s (Liquid); method: FPINT::UFactor:16
Temperature, K	Speed of sound, m/s	uncertainty
293	1140	13
303	1114	13
313	1085	13

System: benzene; phases: Liquid
Fixed: Pressure, kPa = 101.325
Property: Speed of sound, m/s (Liquid); method: FPINT:UFactor:16
Temperature, K	Speed of sound, m/s	uncertainty
293	1316.5	14.6
298	1294	14.5
303	1272.8	14.3
313	1226.5	14

System: tetrachloromethane; phases: Liquid
Fixed: Pressure, kPa = 101.325
Property: Speed of sound, m/s (Liquid); method: FPINT:UFactor:16
Temperature, K	Speed of sound, m/s	uncertainty
293	932	11.8
298	927	11.7
303	919.5	11.7
313	904	11.6

System: propan-1-ol + tetrahydrofuran; phases: Liquid
Fixed: Pressure, kPa = 101
Property: Viscosity, Pa*s (Liquid); method: CAPTUB:UFactor:8
Mole fraction of tetrahydrofuran	Temperature, K	Viscosity, Pa*s	uncertainty
0	293	0.00219	0.00014
0	303	0.00161	0.00011
0	313	0.00134	9e-05
0.0992	293	0.00174	0.00011
0.0992	303	0.00122	8e-05
0.0992	313	0.00104	7e-05
0.1999	293	0.00149	0.0001
0.1999	303	0.00108	7e-05
0.1999	313	0.0009	6e-05
0.2846	293	0.00138	9e-05
0.2846	303	0.001	7e-05
0.2846	313	0.00085	6e-05
0.39	293	0.00121	8e-05
0.39	303	0.00091	6e-05
0.39	313	0.00077	5e-05
0.5146	293	0.00105	7e-05
0.5146	303	0.0008	6e-05
0.5146	313	0.00069	5e-05
0.5918	293	0.00095	7e-05
0.5918	303	0.00073	5e-05
0.5918	313	0.00065	5e-05
0.7012	293	0.00081	6e-05
0.7012	303	0.00064	5e-05
0.7012	313	0.00057	4e-05
0.8028	293	0.0007	5e-05
0.8028	303	0.00057	4e-05
0.8028	313	0.00051	4e-05
0.894	293	0.00059	4e-05
0.894	303	0.0005	4e-05
0.894	313	0.00047	4e-05
0.9761	293	0.0005	4e-05
0.9761	303	0.00044	3e-05
0.9761	313	0.00042	3e-05
1	293	0.00049	4e-05
1	303	0.00042	3e-05
1	313	0.00039	3e-05

System: propan-1-ol + tetrahydrofuran; phases: Liquid
Fixed: Pressure, kPa = 101
Property: Speed of sound, m/s (Liquid); method: FPINT:UFactor:16
Mole fraction of tetrahydrofuran	Temperature, K	Speed of sound, m/s	uncertainty
0	293	1224	14
0	303	1189	14
0	313	1155	13
0.0992	293	1232	14
0.0992	303	1200	14
0.0992	313	1164	14
0.1999	293	1242	14
0.1999	303	1220	14
0.1999	313	1175	14
0.2846	293	1250	14
0.2846	303	1228	14
0.2846	313	1188	14
0.39	293	1257	14
0.39	303	1235	14
0.39	313	1194	14
0.5146	293	1265	14
0.5146	303	1244	14
0.5146	313	1196	14
0.5918	293	1271	14
0.5918	303	1245	14
0.5918	313	1197	14
0.7012	293	1279	14
0.7012	303	1247	14
0.7012	313	1198	14
0.8028	293	1287	14
0.8028	303	1248	14
0.8028	313	1199	14
0.894	293	1294	14
0.894	303	1251	14
0.894	313	1200	14
0.9761	293	1300	15
0.9761	303	1252	14
0.9761	313	1201	14
1	293	1302	15
1	303	1254	14
1	313	1202	14

System: propan-2-ol + tetrahydrofuran; phases: Liquid
Fixed: Pressure, kPa = 101
Property: Viscosity, Pa*s (Liquid); method: CAPTUB:UFactor:12
Mole fraction of tetrahydrofuran	Temperature, K	Viscosity, Pa*s	uncertainty
0	293	0.0021	0.00019
0	303	0.00149	0.00014
0	313	0.00113	0.00011
0.0983	293	0.0016	0.00015
0.0983	303	0.00107	0.00011
0.0983	313	0.00086	9e-05
0.2085	293	0.00128	0.00012
0.2085	303	0.00086	9e-05
0.2085	313	0.0007	7e-05
0.2911	293	0.00108	0.00011
0.2911	303	0.00071	7e-05
0.2911	313	0.00061	7e-05
0.3728	293	0.00091	9e-05
0.3728	303	0.00058	6e-05
0.3728	313	0.00054	6e-05
0.5014	293	0.00077	8e-05
0.5014	303	0.00056	6e-05
0.5014	313	0.00048	5e-05
0.5976	293	0.0007	7e-05
0.5976	303	0.00054	6e-05
0.5976	313	0.00046	5e-05
0.7483	293	0.00058	6e-05
0.7483	303	0.00048	5e-05
0.7483	313	0.00045	5e-05
0.8001	293	0.00055	6e-05
0.8001	303	0.00047	5e-05
0.8001	313	0.00043	5e-05
0.8939	293	0.0005	6e-05
0.8939	303	0.00045	5e-05
0.8939	313	0.00043	5e-05
1	293	0.00047	5e-05
1	303	0.00042	5e-05
1	313	0.00039	5e-05

System: propan-2-ol + tetrahydrofuran; phases: Liquid
Fixed: Pressure, kPa = 101
Property: Speed of sound, m/s (Liquid); method: FPINT:UFactor:16
Mole fraction of tetrahydrofuran	Temperature, K	Speed of sound, m/s	uncertainty
0	293	1140	13
0	303	1114	13
0	313	1085	13
0.0983	293	1151	13
0.0983	303	1123	13
0.0983	313	1093	13
0.2085	293	1165	14
0.2085	303	1136	13
0.2085	313	1103	13
0.2911	293	1176	14
0.2911	303	1145	13
0.2911	313	1110	13
0.3728	293	1187	14
0.3728	303	1155	13
0.3728	313	1118	13
0.5014	293	1206	14
0.5014	303	1170	14
0.5014	313	1131	13
0.5976	293	1222	14
0.5976	303	1183	14
0.5976	313	1142	13
0.7483	293	1248	14
0.7483	303	1207	14
0.7483	313	1162	13
0.8001	293	1258	14
0.8001	303	1216	14
0.8001	313	1170	14
0.8939	293	1278	14
0.8939	303	1232	14
0.8939	313	1185	14
1	293	1302	15
1	303	1254	14
1	313	1202	14
