Measured thermophysical data. Thermodynamic properties and sPC-SAFT modeling of 2-ethoxyethanol, 2-propoxyethanol and 2-butoxyethanol from T = (293.15-413.15) K and pressure up to 30 MPa
Source: Fluid Phase Equilib., 2018, 10.1016/j.fluid.2017.10.027
Compound 1: 2-ethoxyethan-1-ol, C4H10O2, InChI=1S/C4H10O2/c1-2-6-4-3-5/h5H,2-4H2,1H3, purity 99%
Compound 2: 2-propoxyethanol, C5H12O2, InChI=1S/C5H12O2/c1-2-4-7-5-3-6/h6H,2-5H2,1H3, purity 99.4%
Compound 3: 2-butoxyethan-1-ol, C6H14O2, InChI=1S/C6H14O2/c1-2-3-5-8-6-4-7/h7H,2-6H2,1H3, purity 99%

System: 2-ethoxyethan-1-ol; phases: Liquid
Property: Mass density, kg/m3 (Liquid); method: Vibrating tube method
Temperature, K	Pressure, kPa	Mass density, kg/m3	uncertainty
298.15	101.325	925.64	0.23

System: 2-ethoxyethan-1-ol; phases: Liquid
Property: Speed of sound, m/s (Liquid); method: Sing-around technique in a fixed-path interferometer
Temperature, K	Pressure, kPa	Speed of sound, m/s	uncertainty
298.15	101.325	1305.65	3.22

System: 2-ethoxyethan-1-ol; phases: Liquid
Property: Mass density, kg/m3 (Liquid); method: Vibrating tube method
Temperature, K	Pressure, kPa	Mass density, kg/m3	uncertainty
293.15	100	931	2
293.15	2500	933	2
293.15	5000	934	2
293.15	10000	938	2
293.15	15000	941	2
293.15	20000	944	2
293.15	25000	947	2
293.15	30000	950	2
303.15	100	922	2
303.15	2500	924	2
303.15	5000	925	2
303.15	10000	929	2
303.15	15000	932	2
303.15	20000	936	2
303.15	25000	939	2
303.15	30000	942	2
313.15	100	913	2
313.15	2500	914	2
313.15	5000	916	2
313.15	10000	920	2
313.15	15000	924	2
313.15	20000	927	2
313.15	25000	930	2
313.15	30000	933	2
323.15	100	903	2
323.15	2500	905	2
323.15	5000	907	2
323.15	10000	911	2
323.15	15000	915	2
323.15	20000	918	2
323.15	25000	922	2
323.15	30000	925	2
333.15	100	894	2
333.15	2500	896	2
333.15	5000	898	2
333.15	10000	902	2
333.15	15000	906	2
333.15	20000	910	2
333.15	25000	913	2
333.15	30000	917	2
343.15	100	884	2
343.15	2500	886	2
343.15	5000	889	2
343.15	10000	893	2
343.15	15000	897	2
343.15	20000	901	2
343.15	25000	905	2
343.15	30000	908	2
353.15	100	874	2
353.15	2500	877	2
353.15	5000	879	2
353.15	10000	884	2
353.15	15000	888	2
353.15	20000	892	2
353.15	25000	896	2
353.15	30000	900	2
363.15	100	864	2
363.15	2500	867	2
363.15	5000	869	2
363.15	10000	874	2
363.15	15000	879	2
363.15	20000	883	2
363.15	25000	887	2
363.15	30000	891	2
373.15	100	854	2
373.15	2500	857	2
373.15	5000	859	2
373.15	10000	865	2
373.15	15000	869	2
373.15	20000	874	2
373.15	25000	878	2
373.15	30000	882	2
383.15	100	843	2
383.15	2500	846	2
383.15	5000	849	2
383.15	10000	855	2
383.15	15000	860	2
383.15	20000	865	2
383.15	25000	869	2
383.15	30000	874	2
393.15	100	832	2
393.15	2500	836	2
393.15	5000	839	2
393.15	10000	845	2
393.15	15000	850	2
393.15	20000	855	2
393.15	25000	860	2
393.15	30000	865	2

System: 2-propoxyethanol; phases: Liquid
Property: Mass density, kg/m3 (Liquid); method: Vibrating tube method
Temperature, K	Pressure, kPa	Mass density, kg/m3	uncertainty
298.15	101.325	907.23	0.15

System: 2-propoxyethanol; phases: Liquid
Property: Speed of sound, m/s (Liquid); method: Sing-around technique in a fixed-path interferometer
Temperature, K	Pressure, kPa	Speed of sound, m/s	uncertainty
298.15	101.325	1298.84	3.12

System: 2-propoxyethanol; phases: Liquid
Property: Mass density, kg/m3 (Liquid); method: Vibrating tube method
Temperature, K	Pressure, kPa	Mass density, kg/m3	uncertainty
293.15	100	911	2
293.15	2500	913	2
293.15	5000	915	2
293.15	10000	918	2
293.15	15000	922	2
293.15	20000	925	2
293.15	25000	928	2
293.15	30000	931	2
303.15	100	903	2
303.15	2500	904	2
303.15	5000	906	2
303.15	10000	910	2
303.15	15000	913	2
303.15	20000	917	2
303.15	25000	920	2
303.15	30000	923	2
313.15	100	894	2
313.15	2500	896	2
313.15	5000	898	2
313.15	10000	901	2
313.15	15000	905	2
313.15	20000	908	2
313.15	25000	912	2
313.15	30000	915	2
323.15	100	885	2
323.15	2500	887	2
323.15	5000	889	2
323.15	10000	893	2
323.15	15000	897	2
323.15	20000	900	2
323.15	25000	904	2
323.15	30000	907	2
333.15	100	876	2
333.15	2500	878	2
333.15	5000	880	2
333.15	10000	884	2
333.15	15000	888	2
333.15	20000	892	2
333.15	25000	895	2
333.15	30000	899	2
343.15	100	867	2
343.15	2500	869	2
343.15	5000	871	2
343.15	10000	875	2
343.15	15000	879	2
343.15	20000	883	2
343.15	25000	887	2
343.15	30000	891	2
353.15	100	857	2
353.15	2500	860	2
353.15	5000	862	2
353.15	10000	866	2
353.15	15000	871	2
353.15	20000	875	2
353.15	25000	879	2
353.15	30000	882	2
363.15	100	848	2
363.15	2500	850	2
363.15	5000	853	2
363.15	10000	857	2
363.15	15000	862	2
363.15	20000	866	2
363.15	25000	870	2
363.15	30000	874	2
373.15	100	838	2
373.15	2500	840	2
373.15	5000	843	2
373.15	10000	848	2
373.15	15000	853	2
373.15	20000	858	2
373.15	25000	862	2
373.15	30000	866	2
383.15	100	828	2
383.15	2500	830	2
383.15	5000	833	2
383.15	10000	839	2
383.15	15000	844	2
383.15	20000	849	2
383.15	25000	853	2
383.15	30000	858	2
393.15	100	817	2
393.15	2500	820	2
393.15	5000	823	2
393.15	10000	829	2
393.15	15000	835	2
393.15	20000	840	2
393.15	25000	845	2
393.15	30000	849	2
403.15	100	806	2
403.15	2500	810	2
403.15	5000	813	2
403.15	10000	819	2
403.15	15000	825	2
403.15	20000	831	2
403.15	25000	836	2
403.15	30000	841	2
413.15	100	795	2
413.15	2500	799	2
413.15	5000	803	2
413.15	10000	810	2
413.15	15000	816	2
413.15	20000	822	2
413.15	25000	827	2
413.15	30000	832	2

System: 2-butoxyethan-1-ol; phases: Liquid
Property: Mass density, kg/m3 (Liquid); method: Vibrating tube method
Temperature, K	Pressure, kPa	Mass density, kg/m3	uncertainty
298.15	101.325	896.17	0.23

System: 2-butoxyethan-1-ol; phases: Liquid
Property: Speed of sound, m/s (Liquid); method: Sing-around technique in a fixed-path interferometer
Temperature, K	Pressure, kPa	Speed of sound, m/s	uncertainty
298.15	101.325	1304.72	3.22

System: 2-butoxyethan-1-ol; phases: Liquid
Property: Mass density, kg/m3 (Liquid); method: Vibrating tube method
Temperature, K	Pressure, kPa	Mass density, kg/m3	uncertainty
293.15	100	900	2
293.15	2500	902	2
293.15	5000	903	2
293.15	10000	907	2
293.15	15000	910	2
293.15	20000	913	2
293.15	25000	916	2
293.15	30000	919	2
303.15	100	892	2
303.15	2500	893	2
303.15	5000	895	2
303.15	10000	899	2
303.15	15000	902	2
303.15	20000	905	2
303.15	25000	909	2
303.15	30000	912	2
313.15	100	883	2
313.15	2500	885	2
313.15	5000	887	2
313.15	10000	889	2
313.15	15000	894	2
313.15	20000	898	2
313.15	25000	901	2
313.15	30000	904	2
323.15	100	873	2
323.15	2500	875	2
323.15	5000	877	2
323.15	10000	879	2
323.15	15000	886	2
323.15	20000	890	2
323.15	25000	893	2
323.15	30000	896	2
333.15	100	866	2
333.15	2500	868	2
333.15	5000	870	2
333.15	10000	874	2
333.15	15000	878	2
333.15	20000	882	2
333.15	25000	885	2
333.15	30000	889	2
343.15	100	857	2
343.15	2500	860	2
343.15	5000	862	2
343.15	10000	866	2
343.15	15000	870	2
343.15	20000	874	2
343.15	25000	877	2
343.15	30000	881	2
353.15	100	849	2
353.15	2500	851	2
353.15	5000	853	2
353.15	10000	857	2
353.15	15000	862	2
353.15	20000	866	2
353.15	25000	869	2
353.15	30000	873	2
363.15	100	839	2
363.15	2500	842	2
363.15	5000	844	2
363.15	10000	849	2
363.15	15000	853	2
363.15	20000	857	2
363.15	25000	861	2
363.15	30000	865	2
373.15	100	830	2
373.15	2500	833	2
373.15	5000	835	2
373.15	10000	840	2
373.15	15000	845	2
373.15	20000	849	2
373.15	25000	853	2
373.15	30000	857	2
383.15	100	821	2
383.15	2500	823	2
383.15	5000	826	2
383.15	10000	831	2
383.15	15000	836	2
383.15	20000	841	2
383.15	25000	845	2
383.15	30000	849	2
393.15	100	811	2
393.15	2500	814	2
393.15	5000	817	2
393.15	10000	822	2
393.15	15000	827	2
393.15	20000	832	2
393.15	25000	837	2
393.15	30000	841	2
403.15	100	801	2
403.15	2500	804	2
403.15	5000	807	2
403.15	10000	813	2
403.15	15000	819	2
403.15	20000	824	2
403.15	25000	829	2
403.15	30000	833	2
413.15	100	790	2
413.15	2500	794	2
413.15	5000	797	2
413.15	10000	804	2
413.15	15000	810	2
413.15	20000	815	2
413.15	25000	821	2
413.15	30000	825	2
