Measured thermophysical data. Recommended vapor pressures for thiophene, sulfolane, and dimethyl sulfoxide
Source: Fluid Phase Equilib., 2011, 10.1016/j.fluid.2011.02.002
Compound 1: sulfolane, C4H8O2S, InChI=1S/C4H8O2S/c5-7(6)3-1-2-4-7/h1-4H2, purity 99.85%
Compound 2: dimethyl sulfoxide, C2H6OS, InChI=1S/C2H6OS/c1-4(2)3/h1-2H3, purity 99.99%

System: sulfolane; phases: Liquid
Fixed: Pressure, kPa = 101.325
Property: Molar heat capacity at constant pressure, J/K/mol (Liquid); method: Small sample (50 mg) DSC
Temperature, K	Molar heat capacity at constant pressure, J/K/mol	uncertainty
304.04	179.5	4.4
304.04	179.9	4.4
309.14	181.3	4.4
309.15	181.6	4.4
314.25	182.6	4.5
314.25	183.8	4.5
319.35	184.7	4.5
319.35	184.5	4.5
324.46	185.3	4.5
324.46	184.4	4.5
329.56	187.4	4.6
329.56	186.6	4.6
334.66	188.7	4.6
334.67	187.9	4.6
339.77	189.7	4.6
339.77	188.5	4.6
344.88	190.2	4.7
344.88	190.2	4.7
349.98	192.5	4.7
349.98	192	4.7
355.09	193.4	4.7
355.09	192.3	4.7

System: sulfolane; phases: Liquid, Gas
Property: Vapor or sublimation pressure, kPa (Liquid); method: Closed cell (Static) method
Temperature, K	Vapor or sublimation pressure, kPa	uncertainty
302.16	0.00146	0.00012
302.16	0.00146	0.00012
302.16	0.00146	0.00012
303.17	0.00155	0.00012
303.17	0.00158	0.00012
303.17	0.00158	0.00012
305.17	0.00188	0.00013
305.17	0.00187	0.00013
305.17	0.00188	0.00013
305.17	0.00187	0.00013
306.17	0.00203	0.00013
306.17	0.00203	0.00013
306.17	0.00203	0.00013
307.17	0.00223	0.00014
307.17	0.00224	0.00014
307.17	0.0022	0.00014
308.17	0.00241	0.00014
308.17	0.00241	0.00014
308.17	0.0024	0.00014

System: dimethyl sulfoxide; phases: Liquid, Gas
Property: Vapor or sublimation pressure, kPa (Liquid); method: Closed cell (Static) method
Temperature, K	Vapor or sublimation pressure, kPa	uncertainty
293.15	0.05512	0.00117
293.15	0.05509	0.00117
293.15	0.0551	0.00117
295.65	0.06631	0.00135
295.65	0.06632	0.00135
295.65	0.06633	0.00135
298.15	0.07965	0.00156
298.15	0.07966	0.00156
298.15	0.07964	0.00156
300.65	0.09518	0.0018
300.65	0.09517	0.0018
300.65	0.09517	0.0018
303.16	0.11338	0.00208
303.16	0.1134	0.00209
303.16	0.11337	0.00208
305.66	0.13457	0.00208
305.66	0.13459	0.00208
305.66	0.13461	0.00208
308.16	0.15924	0.00228
308.16	0.15922	0.00228
308.16	0.15921	0.00228

System: dimethyl sulfoxide; phases: Crystal, Gas
Property: Vapor or sublimation pressure, kPa (Crystal); method: Closed cell (Static) method
Temperature, K	Vapor or sublimation pressure, kPa	uncertainty
273.65	0.00789	0.00032
273.65	0.00789	0.00032
273.65	0.00789	0.00032
275.65	0.00979	0.0004
275.65	0.00979	0.0004
275.65	0.00979	0.0004
278.15	0.01278	0.00051
278.15	0.01277	0.00051
278.15	0.01275	0.00051
280.64	0.01655	0.00057
280.65	0.01656	0.00057
280.65	0.01656	0.00057
283.15	0.02138	0.00065
283.15	0.02137	0.00065
285.65	0.02752	0.00074
285.65	0.02752	0.00074
285.65	0.02751	0.00074
288.15	0.03531	0.00087
288.15	0.03525	0.00086
288.15	0.03525	0.00086
290.65	0.04487	0.00101
290.65	0.04487	0.00101
290.65	0.04486	0.00101
