Measured thermophysical data. Measurement and modeling of infinite dilution activity coefficients of organic compounds in an equimolar ionic liquid mixture of [Bmim]Cl and [Bmim][Tf2N]
Source: Fluid Phase Equilib., 2019, 10.1016/j.fluid.2019.01.028
Compound 1: benzene, C6H6, InChI=1S/C6H6/c1-2-4-6-5-3-1/h1-6H, purity 99.7%
Compound 2: toluene, C7H8, InChI=1S/C7H8/c1-7-5-3-2-4-6-7/h2-6H,1H3, purity 99.8%
Compound 3: methanol, CH4O, InChI=1S/CH4O/c1-2/h2H,1H3, purity 99.8%
Compound 4: ethanol, C2H6O, InChI=1S/C2H6O/c1-2-3/h3H,2H2,1H3, purity 99.8%
Compound 5: 2-ethylfuran, C6H8O, InChI=1S/C6H8O/c1-2-6-4-3-5-7-6/h3-5H,2H2,1H3, purity 98%
Compound 6: ethylbenzene, C8H10, InChI=1S/C8H10/c1-2-8-6-4-3-5-7-8/h3-7H,2H2,1H3, purity 99.75%
Compound 7: chlorobenzene, C6H5Cl, InChI=1S/C6H5Cl/c7-6-4-2-1-3-5-6/h1-5H, purity 99.85%
Compound 8: propan-1-ol, C3H8O, InChI=1S/C3H8O/c1-2-3-4/h4H,2-3H2,1H3, purity 99.9%
Compound 9: 2-methylfuran, C5H6O, InChI=1S/C5H6O/c1-5-3-2-4-6-5/h2-4H,1H3, purity 98.5%
Compound 10: 2,5-dimethylfuran, C6H8O, InChI=1S/C6H8O/c1-5-3-4-6(2)7-5/h3-4H,1-2H3, purity 99%
Compound 11: furan, C4H4O, InChI=1S/C4H4O/c1-2-4-5-3-1/h1-4H, purity 99%
Compound 12: 1-butyl-3-methylimidazolium chloride, C8H15ClN2, InChI=1S/C8H15N2.ClH/c1-3-4-5-10-7-6-9(2)8-10;/h6-8H,3-5H2,1-2H3;1H/q+1;/p-1, purity 98%
Compound 13: 1-butyl-3-methylimidazolium bis(trifluoromethylsulfonyl)imide, C10H15F6N3O4S2, InChI=1S/C8H15N2.C2F6NO4S2/c1-3-4-5-10-7-6-9(2)8-10;3-1(4,5)14(10,11)9-15(12,13)2(6,7)8/h6-8H,3-5H2,1-2H3;/q+1;-1, purity 98%

System: 1-butyl-3-methylimidazolium chloride + benzene; phases: Liquid, Gas
Fixed: Mole fraction of benzene = 0
Property: Activity coefficient of benzene (Liquid); method: Chromatography
Temperature, K	Activity coefficient of benzene	uncertainty
313	4.09	0.38
323	4.14	0.38
333	4.15	0.38
343	4.15	0.38
353	4.12	0.38

System: 1-butyl-3-methylimidazolium chloride + toluene; phases: Liquid, Gas
Fixed: Mole fraction of toluene = 0
Property: Activity coefficient of toluene (Liquid); method: Chromatography
Temperature, K	Activity coefficient of toluene	uncertainty
313	7.19	0.66
323	7.24	0.67
333	7.23	0.66
343	7.3	0.67
353	7.38	0.68

System: 1-butyl-3-methylimidazolium chloride + ethylbenzene; phases: Liquid, Gas
Fixed: Mole fraction of ethylbenzene = 0
Property: Activity coefficient of ethylbenzene (Liquid); method: Chromatography
Temperature, K	Activity coefficient of ethylbenzene	uncertainty
313	12.5	1.2
323	12.5	1.2
333	12.4	1.1
343	12.4	1.1
353	12.4	1.1

System: 1-butyl-3-methylimidazolium chloride + chlorobenzene; phases: Liquid, Gas
Fixed: Mole fraction of chlorobenzene = 0
Property: Activity coefficient of chlorobenzene (Liquid); method: Chromatography
Temperature, K	Activity coefficient of chlorobenzene	uncertainty
313	3.41	0.31
323	3.58	0.33
333	3.71	0.34
343	3.82	0.35
353	3.96	0.36

System: 1-butyl-3-methylimidazolium chloride + methanol; phases: Liquid, Gas
Fixed: Mole fraction of methanol = 0
Property: Activity coefficient of methanol (Liquid); method: Chromatography
Temperature, K	Activity coefficient of methanol	uncertainty
323	0.1	0.03
333	0.104	0.03
343	0.109	0.03
353	0.115	0.03

System: 1-butyl-3-methylimidazolium chloride + ethanol; phases: Liquid, Gas
Fixed: Mole fraction of ethanol = 0
Property: Activity coefficient of ethanol (Liquid); method: Chromatography
Temperature, K	Activity coefficient of ethanol	uncertainty
323	0.208	0.032
333	0.213	0.032
343	0.22	0.032
353	0.229	0.033

System: 1-butyl-3-methylimidazolium chloride + propan-1-ol; phases: Liquid, Gas
Fixed: Mole fraction of propan-1-ol = 0
Property: Activity coefficient of propan-1-ol (Liquid); method: Chromatography
Temperature, K	Activity coefficient of propan-1-ol	uncertainty
333	0.286	0.035
343	0.292	0.036
353	0.301	0.036

System: 1-butyl-3-methylimidazolium chloride + furan; phases: Liquid, Gas
Fixed: Mole fraction of furan = 0
Property: Activity coefficient of furan (Liquid); method: Chromatography
Temperature, K	Activity coefficient of furan	uncertainty
313	1.41	0.13
323	1.48	0.13
333	1.56	0.14
343	1.66	0.15
353	1.75	0.16

System: 1-butyl-3-methylimidazolium chloride + 2-methylfuran; phases: Liquid, Gas
Fixed: Mole fraction of 2-methylfuran = 0
Property: Activity coefficient of 2-methylfuran (Liquid); method: Chromatography
Temperature, K	Activity coefficient of 2-methylfuran	uncertainty
313	3.61	0.33
323	3.76	0.35
333	3.84	0.35
343	3.96	0.36
353	4.08	0.37

System: 1-butyl-3-methylimidazolium chloride + 2-ethylfuran; phases: Liquid, Gas
Fixed: Mole fraction of 2-ethylfuran = 0
Property: Activity coefficient of 2-ethylfuran (Liquid); method: Chromatography
Temperature, K	Activity coefficient of 2-ethylfuran	uncertainty
313	5.85	0.54
323	6	0.55
333	6.12	0.56
343	6.23	0.57
353	6.41	0.59

System: 1-butyl-3-methylimidazolium chloride + 2,5-dimethylfuran; phases: Liquid, Gas
Fixed: Mole fraction of 2,5-dimethylfuran = 0
Property: Activity coefficient of 2,5-dimethylfuran (Liquid); method: Chromatography
Temperature, K	Activity coefficient of 2,5-dimethylfuran	uncertainty
313	9.51	0.87
323	9.6	0.88
333	9.61	0.88
343	9.64	0.89
353	9.76	0.9

System: 1-butyl-3-methylimidazolium bis(trifluoromethylsulfonyl)imide + benzene; phases: Liquid, Gas
Fixed: Mole fraction of benzene = 0
Property: Activity coefficient of benzene (Liquid); method: Chromatography
Temperature, K	Activity coefficient of benzene	uncertainty
313	0.938	0.08
323	0.957	0.081
333	0.975	0.083
343	0.99	0.084
353	1.01	0.09

System: 1-butyl-3-methylimidazolium bis(trifluoromethylsulfonyl)imide + toluene; phases: Liquid, Gas
Fixed: Mole fraction of toluene = 0
Property: Activity coefficient of toluene (Liquid); method: Chromatography
Temperature, K	Activity coefficient of toluene	uncertainty
313	1.31	0.11
323	1.34	0.12
333	1.37	0.12
343	1.39	0.12
353	1.42	0.12

System: 1-butyl-3-methylimidazolium bis(trifluoromethylsulfonyl)imide + ethylbenzene; phases: Liquid, Gas
Fixed: Mole fraction of ethylbenzene = 0
Property: Activity coefficient of ethylbenzene (Liquid); method: Chromatography
Temperature, K	Activity coefficient of ethylbenzene	uncertainty
313	1.98	0.18
323	2.01	0.18
333	2.01	0.18
343	2.05	0.18
353	2.07	0.18

System: 1-butyl-3-methylimidazolium bis(trifluoromethylsulfonyl)imide + chlorobenzene; phases: Liquid, Gas
Fixed: Mole fraction of chlorobenzene = 0
Property: Activity coefficient of chlorobenzene (Liquid); method: Chromatography
Temperature, K	Activity coefficient of chlorobenzene	uncertainty
313	1.5	0.13
323	1.52	0.13
333	1.53	0.13
343	1.54	0.13
353	1.54	0.13

System: 1-butyl-3-methylimidazolium bis(trifluoromethylsulfonyl)imide + methanol; phases: Liquid, Gas
Fixed: Mole fraction of methanol = 0
Property: Activity coefficient of methanol (Liquid); method: Chromatography
Temperature, K	Activity coefficient of methanol	uncertainty
313	1.26	0.11
323	1.21	0.1
333	1.09	0.09
343	1.06	0.09
353	1.03	0.09

System: 1-butyl-3-methylimidazolium bis(trifluoromethylsulfonyl)imide + ethanol; phases: Liquid, Gas
Fixed: Mole fraction of ethanol = 0
Property: Activity coefficient of ethanol (Liquid); method: Chromatography
Temperature, K	Activity coefficient of ethanol	uncertainty
313	1.6	0.14
323	1.48	0.13
333	1.37	0.12
343	1.28	0.11
353	1.2	0.1

System: 1-butyl-3-methylimidazolium bis(trifluoromethylsulfonyl)imide + propan-1-ol; phases: Liquid, Gas
Fixed: Mole fraction of propan-1-ol = 0
Property: Activity coefficient of propan-1-ol (Liquid); method: Chromatography
Temperature, K	Activity coefficient of propan-1-ol	uncertainty
313	1.94	0.17
323	1.77	0.16
333	1.63	0.14
343	1.51	0.13
353	1.4	0.12

System: 1-butyl-3-methylimidazolium bis(trifluoromethylsulfonyl)imide + furan; phases: Liquid, Gas
Fixed: Mole fraction of furan = 0
Property: Activity coefficient of furan (Liquid); method: Chromatography
Temperature, K	Activity coefficient of furan	uncertainty
313	0.678	0.06
323	0.695	0.061
333	0.711	0.063
343	0.727	0.064
353	0.739	0.065

System: 1-butyl-3-methylimidazolium bis(trifluoromethylsulfonyl)imide + 2-methylfuran; phases: Liquid, Gas
Fixed: Mole fraction of 2-methylfuran = 0
Property: Activity coefficient of 2-methylfuran (Liquid); method: Chromatography
Temperature, K	Activity coefficient of 2-methylfuran	uncertainty
313	1.1	0.09
323	1.12	0.1
333	1.15	0.1
343	1.17	0.1
353	1.18	0.1

System: 1-butyl-3-methylimidazolium bis(trifluoromethylsulfonyl)imide + 2-ethylfuran; phases: Liquid, Gas
Fixed: Mole fraction of 2-ethylfuran = 0
Property: Activity coefficient of 2-ethylfuran (Liquid); method: Chromatography
Temperature, K	Activity coefficient of 2-ethylfuran	uncertainty
313	1.47	0.13
323	1.49	0.13
333	1.51	0.13
343	1.52	0.13
353	1.54	0.13

System: 1-butyl-3-methylimidazolium bis(trifluoromethylsulfonyl)imide + 2,5-dimethylfuran; phases: Liquid, Gas
Fixed: Mole fraction of 2,5-dimethylfuran = 0
Property: Activity coefficient of 2,5-dimethylfuran (Liquid); method: Chromatography
Temperature, K	Activity coefficient of 2,5-dimethylfuran	uncertainty
313	1.83	0.16
323	1.85	0.16
333	1.86	0.16
343	1.88	0.17
353	1.88	0.17

System: benzene + 1-butyl-3-methylimidazolium chloride + 1-butyl-3-methylimidazolium bis(trifluoromethylsulfonyl)imide; phases: Liquid, Gas
Fixed: Solvent: Mole fraction of 1-butyl-3-methylimidazolium chloride = 0.5
Fixed: Mole fraction of benzene = 0
Property: Activity coefficient of benzene (Liquid); method: Chromatography
Temperature, K	Activity coefficient of benzene	uncertainty
313	1.66	0.14
323	1.67	0.15
333	1.69	0.15
343	1.69	0.15
353	1.71	0.15

System: toluene + 1-butyl-3-methylimidazolium chloride + 1-butyl-3-methylimidazolium bis(trifluoromethylsulfonyl)imide; phases: Liquid, Gas
Fixed: Solvent: Mole fraction of 1-butyl-3-methylimidazolium chloride = 0.5
Fixed: Mole fraction of toluene = 0
Property: Activity coefficient of toluene (Liquid); method: Chromatography
Temperature, K	Activity coefficient of toluene	uncertainty
313	2.51	0.22
323	2.54	0.22
333	2.54	0.22
343	2.55	0.22
353	2.56	0.23

System: ethylbenzene + 1-butyl-3-methylimidazolium chloride + 1-butyl-3-methylimidazolium bis(trifluoromethylsulfonyl)imide; phases: Liquid, Gas
Fixed: Solvent: Mole fraction of 1-butyl-3-methylimidazolium chloride = 0.5
Fixed: Mole fraction of ethylbenzene = 0
Property: Activity coefficient of ethylbenzene (Liquid); method: Chromatography
Temperature, K	Activity coefficient of ethylbenzene	uncertainty
313	3.91	0.34
323	3.91	0.34
333	3.91	0.34
343	3.91	0.34
353	3.87	0.34

System: chlorobenzene + 1-butyl-3-methylimidazolium chloride + 1-butyl-3-methylimidazolium bis(trifluoromethylsulfonyl)imide; phases: Liquid, Gas
Fixed: Solvent: Mole fraction of 1-butyl-3-methylimidazolium chloride = 0.5
Fixed: Mole fraction of chlorobenzene = 0
Property: Activity coefficient of chlorobenzene (Liquid); method: Chromatography
Temperature, K	Activity coefficient of chlorobenzene	uncertainty
313	2.16	0.19
323	2.18	0.19
333	2.2	0.19
343	2.22	0.2
353	2.23	0.2

System: methanol + 1-butyl-3-methylimidazolium chloride + 1-butyl-3-methylimidazolium bis(trifluoromethylsulfonyl)imide; phases: Liquid, Gas
Fixed: Solvent: Mole fraction of 1-butyl-3-methylimidazolium chloride = 0.5
Fixed: Mole fraction of methanol = 0
Property: Activity coefficient of methanol (Liquid); method: Chromatography
Temperature, K	Activity coefficient of methanol	uncertainty
313	0.146	0.029
323	0.151	0.029
333	0.157	0.03
343	0.163	0.03
353	0.169	0.03

System: ethanol + 1-butyl-3-methylimidazolium chloride + 1-butyl-3-methylimidazolium bis(trifluoromethylsulfonyl)imide; phases: Liquid, Gas
Fixed: Solvent: Mole fraction of 1-butyl-3-methylimidazolium chloride = 0.5
Fixed: Mole fraction of ethanol = 0
Property: Activity coefficient of ethanol (Liquid); method: Chromatography
Temperature, K	Activity coefficient of ethanol	uncertainty
313	0.243	0.033
323	0.25	0.033
333	0.258	0.033
343	0.267	0.034
353	0.27	0.034

System: propan-1-ol + 1-butyl-3-methylimidazolium chloride + 1-butyl-3-methylimidazolium bis(trifluoromethylsulfonyl)imide; phases: Liquid, Gas
Fixed: Solvent: Mole fraction of 1-butyl-3-methylimidazolium chloride = 0.5
Fixed: Mole fraction of propan-1-ol = 0
Property: Activity coefficient of propan-1-ol (Liquid); method: Chromatography
Temperature, K	Activity coefficient of propan-1-ol	uncertainty
313	0.299	0.035
323	0.304	0.035
333	0.31	0.036
343	0.316	0.036
353	0.321	0.036

System: furan + 1-butyl-3-methylimidazolium chloride + 1-butyl-3-methylimidazolium bis(trifluoromethylsulfonyl)imide; phases: Liquid, Gas
Fixed: Solvent: Mole fraction of 1-butyl-3-methylimidazolium chloride = 0.5
Fixed: Mole fraction of furan = 0
Property: Activity coefficient of furan (Liquid); method: Chromatography
Temperature, K	Activity coefficient of furan	uncertainty
313	0.909	0.077
323	0.933	0.079
333	0.956	0.08
343	0.991	0.083
353	1.01	0.08

System: 2-methylfuran + 1-butyl-3-methylimidazolium chloride + 1-butyl-3-methylimidazolium bis(trifluoromethylsulfonyl)imide; phases: Liquid, Gas
Fixed: Solvent: Mole fraction of 1-butyl-3-methylimidazolium chloride = 0.5
Fixed: Mole fraction of 2-methylfuran = 0
Property: Activity coefficient of 2-methylfuran (Liquid); method: Chromatography
Temperature, K	Activity coefficient of 2-methylfuran	uncertainty
313	1.68	0.15
323	1.71	0.15
333	1.74	0.15
343	1.78	0.16
353	1.8	0.16

System: 2-ethylfuran + 1-butyl-3-methylimidazolium chloride + 1-butyl-3-methylimidazolium bis(trifluoromethylsulfonyl)imide; phases: Liquid, Gas
Fixed: Solvent: Mole fraction of 1-butyl-3-methylimidazolium chloride = 0.5
Fixed: Mole fraction of 2-ethylfuran = 0
Property: Activity coefficient of 2-ethylfuran (Liquid); method: Chromatography
Temperature, K	Activity coefficient of 2-ethylfuran	uncertainty
313	2.38	0.21
323	2.41	0.21
333	2.44	0.21
343	2.46	0.22
353	2.49	0.22

System: 2,5-dimethylfuran + 1-butyl-3-methylimidazolium chloride + 1-butyl-3-methylimidazolium bis(trifluoromethylsulfonyl)imide; phases: Liquid, Gas
Fixed: Solvent: Mole fraction of 1-butyl-3-methylimidazolium chloride = 0.5
Fixed: Mole fraction of 2,5-dimethylfuran = 0
Property: Activity coefficient of 2,5-dimethylfuran (Liquid); method: Chromatography
Temperature, K	Activity coefficient of 2,5-dimethylfuran	uncertainty
313	3.24	0.29
323	3.24	0.29
333	3.24	0.29
343	3.23	0.28
353	3.25	0.29
