Measured thermophysical data. Vapor-liquid equilibrium of isoamyl alcohol + isoamyl propionate andpropionic acid + isoamyl propionate systems at 50.00, 101.33 and 150.00 kPa
Source: Fluid Phase Equilib., 2013, 10.1016/j.fluid.2013.07.024
Compound 1: propanoic acid, C3H6O2, InChI=1S/C3H6O2/c1-2-3(4)5/h2H2,1H3,(H,4,5), purity 99.5%
Compound 2: 3-methylbutyl propanoate, C8H16O2, InChI=1S/C8H16O2/c1-4-8(9)10-6-5-7(2)3/h7H,4-6H2,1-3H3, purity 99%
Compound 3: 3-methylbutan-1-ol, C5H12O, InChI=1S/C5H12O/c1-5(2)3-4-6/h5-6H,3-4H2,1-2H3, purity 99.5%

System: propanoic acid; phases: Liquid, Gas
Property: Boiling temperature at pressure P, K (Liquid); method: Ebulliometric method (Recirculating still)
Pressure, kPa	Boiling temperature at pressure P, K	uncertainty
20	368.83	0.04
30	378.94	0.04
40	386.59	0.03
50	392.77	0.03
60	397.99	0.03
70	402.56	0.03
80	406.6	0.03
90	410.26	0.03
101.33	414.01	0.03
110	416.68	0.03
120	419.53	0.03
130	422.18	0.03
140	424.67	0.03
150	427.01	0.03
160	429.23	0.03
170	431.36	0.03
180	433.37	0.03
190	435.31	0.03
200	437.16	0.03

System: 3-methylbutyl propanoate; phases: Liquid, Gas
Property: Boiling temperature at pressure P, K (Liquid); method: Ebulliometric method (Recirculating still)
Pressure, kPa	Boiling temperature at pressure P, K	uncertainty
20	381.77	0.18
30	393.43	0.19
40	402.13	0.18
50	409.26	0.18
60	415.18	0.18
70	420.42	0.18
80	425.06	0.18
90	429.43	0.18
101.33	433.87	0.18
110	437.07	0.18
120	440.36	0.18
130	443.47	0.18
140	446.39	0.18
150	449.17	0.18
160	451.76	0.19
170	454.42	0.19
180	456.84	0.19
190	459.15	0.19
200	461.35	0.19

System: 3-methylbutyl propanoate + 3-methylbutan-1-ol; phases: Liquid, Gas
Property: Boiling temperature at pressure P, K (Liquid); method: Ebulliometric method (Recirculating still)
Mole fraction of 3-methylbutan-1-ol	Pressure, kPa	Boiling temperature at pressure P, K	uncertainty
0.051	50	405.28	2.19
0.127	50	401.13	1.68
0.306	50	394.39	1.25
0.493	50	389.74	0.85
0.617	50	387.93	0.49
0.782	50	386.26	0.38
0.837	50	385.94	0.29
0.886	50	385.55	0.33
0.116	101.33	424.67	1.25
0.283	101.33	417.52	1.95
0.344	101.33	415.02	0.99
0.495	101.33	410.53	1.32
0.584	101.33	409.13	0.9
0.645	101.33	407.88	0.28
0.761	101.33	406.71	0.4
0.885	101.33	405.31	1.11
0.107	150	441.14	2.46
0.188	150	436.18	2.3
0.27	150	431.82	1.92
0.357	150	428.08	1.38
0.558	150	421.78	1.09
0.652	150	420.4	0.48
0.727	150	419.88	0.58
0.853	150	417.7	0.71

System: 3-methylbutyl propanoate + 3-methylbutan-1-ol; phases: Gas, Liquid
Property: Mole fraction of 3-methylbutan-1-ol (Gas); method: Chromatography
Mole fraction of 3-methylbutan-1-ol	Pressure, kPa	Mole fraction of 3-methylbutan-1-ol	uncertainty
0.051	50	0.143	0.096
0.127	50	0.308	0.074
0.306	50	0.553	0.059
0.493	50	0.709	0.051
0.617	50	0.79	0.05
0.782	50	0.87	0.045
0.837	50	0.902	0.046
0.886	50	0.928	0.045
0.116	101.33	0.277	0.072
0.283	101.33	0.532	0.07
0.344	101.33	0.595	0.052
0.495	101.33	0.713	0.05
0.584	101.33	0.771	0.048
0.645	101.33	0.808	0.046
0.761	101.33	0.872	0.045
0.885	101.33	0.935	0.045
0.107	150	0.258	0.08
0.188	150	0.398	0.074
0.27	150	0.511	0.065
0.357	150	0.611	0.053
0.558	150	0.763	0.049
0.652	150	0.817	0.046
0.727	150	0.857	0.045
0.853	150	0.922	0.045

System: propanoic acid + 3-methylbutyl propanoate; phases: Liquid, Gas
Property: Boiling temperature at pressure P, K (Liquid); method: Ebulliometric method (Recirculating still)
Mole fraction of propanoic acid	Pressure, kPa	Boiling temperature at pressure P, K	uncertainty
0.076	50	407.24	0.86
0.105	50	406.37	0.75
0.191	50	404.78	0.73
0.25	50	403.75	0.67
0.318	50	402.67	0.62
0.398	50	401.48	0.58
0.461	50	400.63	0.62
0.53	50	399.48	0.6
0.618	50	398.29	0.63
0.696	50	396.91	0.6
0.767	50	396.1	0.53
0.809	50	395.41	0.62
0.854	50	394.77	0.6
0.891	50	394.32	0.54
0.929	50	393.63	0.62
0.037	101.33	432.3	0.94
0.09	101.33	430.26	1.86
0.132	101.33	429.08	0.36
0.227	101.33	426.85	1.15
0.29	101.33	425.57	1.29
0.367	101.33	424.07	0.6
0.457	101.33	422.6	0.56
0.614	101.33	419.94	0.76
0.652	101.33	419.13	0.89
0.753	101.33	417.17	1.13
0.807	101.33	416.71	0.41
0.848	101.33	416.24	0.6
0.895	101.33	415.38	1.5
0.94	101.33	414.67	2.6
0.042	150	446.86	1.73
0.118	150	443.59	1.6
0.162	150	442.15	1.02
0.218	150	441.05	0.92
0.327	150	438.47	0.86
0.452	150	436.1	0.78
0.492	150	435.33	0.89
0.554	150	433.89	0.7
0.602	150	433.51	0.79
0.7	150	431.19	0.67
0.796	150	430.37	0.63
0.845	150	428.84	0.75
0.941	150	427.6	0.54

System: propanoic acid + 3-methylbutyl propanoate; phases: Gas, Liquid
Property: Mole fraction of propanoic acid (Gas); method: Chromatography
Mole fraction of propanoic acid	Pressure, kPa	Mole fraction of propanoic acid	uncertainty
0.076	50	0.142	0.069
0.105	50	0.188	0.067
0.191	50	0.303	0.066
0.25	50	0.377	0.062
0.318	50	0.454	0.059
0.398	50	0.535	0.057
0.461	50	0.596	0.054
0.53	50	0.656	0.053
0.618	50	0.733	0.052
0.696	50	0.794	0.05
0.767	50	0.845	0.049
0.809	50	0.875	0.049
0.854	50	0.908	0.048
0.891	50	0.931	0.048
0.929	50	0.957	0.043
0.037	101.33	0.074	0.074
0.09	101.33	0.17	0.083
0.132	101.33	0.247	0.068
0.227	101.33	0.363	0.064
0.29	101.33	0.446	0.06
0.367	101.33	0.519	0.055
0.457	101.33	0.604	0.053
0.614	101.33	0.737	0.051
0.652	101.33	0.765	0.051
0.753	101.33	0.839	0.049
0.807	101.33	0.877	0.049
0.848	101.33	0.906	0.048
0.895	101.33	0.936	0.047
0.94	101.33	0.963	0.037
0.042	150	0.091	0.081
0.118	150	0.225	0.077
0.162	150	0.285	0.066
0.218	150	0.356	0.063
0.327	150	0.487	0.058
0.452	150	0.604	0.055
0.492	150	0.639	0.055
0.554	150	0.698	0.052
0.602	150	0.73	0.049
0.7	150	0.802	0.049
0.796	150	0.868	0.049
0.845	150	0.905	0.048
0.941	150	0.964	0.036
