Measured thermophysical data. The solid-liquid equilibrium of the binary system H2O-DMSO and the influence of a salt (NaCl, KCl) on the thermodynamic behavior Correlations using a revised LIQUAC model
Source: Fluid Phase Equilib., 2011, 10.1016/j.fluid.2011.01.026
Compound 1: dimethyl sulfoxide, C2H6OS, InChI=1S/C2H6OS/c1-4(2)3/h1-2H3, purity 99.8%
Compound 2: sodium chloride, ClNa, InChI=1S/ClH.Na/h1H;/q;+1/p-1, purity 99.8%
Compound 3: potassium chloride, ClK, InChI=1S/ClH.K/h1H;/q;+1/p-1, purity 99.5%
Compound 4: water, H2O, InChI=1S/H2O/h1H2, purity 99.8%

System: dimethyl sulfoxide + sodium chloride + water; phases: Liquid, Crystal
Fixed: Pressure, kPa = 101
Property: Molality, mol/kg of sodium chloride (Liquid); method: Residual mass after drying
Temperature, K	Solvent: Mole fraction of water	Molality, mol/kg of sodium chloride	uncertainty
241.448	0.85	2.4087	0.0602
242.859	0.8	1.7753	0.0601
242.933	0.719	1.0579	0.06
243.123	0.75	1.3203	0.0601
243.213	0.65	0.8587	0.06
243.22	0.601	0.6714	0.06
257.702	0.719	1.0558	0.06
257.919	0.95	4.0507	0.0606
258.14	0.9	3.1975	0.0604
258.172	0.8	1.7629	0.0601
258.208	0.65	0.8593	0.06
258.231	0.75	1.3692	0.0601
258.318	0.85	2.4124	0.0602
258.387	0.601	0.6844	0.06
268.04	0.973	4.9551	0.0609
268.159	0.918	3.6522	0.0605
278.006	0.95	4.4347	0.0607
278.138	0.75	1.3826	0.0601
278.149	0.85	2.4198	0.0602
278.152	0.918	3.6239	0.0605
278.171	0.8	1.7751	0.0601
278.173	0.973	5.045	0.0609
278.193	0.65	0.8519	0.06
278.221	0.9	3.2924	0.0604
278.222	0.601	0.681	0.06
278.252	0.718	1.1553	0.0601
278.702	1	6.1376	0.0614
297.963	0.918	3.6765	0.0605
298.024	0.718	1.1928	0.0601
298.15	0.8	1.8543	0.0601
298.157	0.601	0.6846	0.06
298.174	0.65	0.8513	0.06
298.213	0.862	2.4341	0.0602
298.266	0.95	4.4216	0.0607
298.316	0.9	3.3578	0.0604
298.317	0.75	1.415	0.0601
298.345	0.973	5.0605	0.061
298.35	1	6.1986	0.0614
312.711	0.651	0.8658	0.06
312.714	0.718	1.2215	0.0601
312.905	0.973	5.1442	0.061
312.932	0.918	3.7095	0.0605
312.946	0.601	0.6978	0.06
312.966	0.95	4.4954	0.0608
313	0.8	1.8883	0.0601
313.003	0.9	3.372	0.0604
313.165	1	6.2775	0.0615
313.182	0.862	2.4402	0.0602
313.275	0.75	1.4319	0.0601

System: dimethyl sulfoxide + sodium chloride + water; phases: Liquid, Crystal
Fixed: Pressure, kPa = 101
Property: Solid-liquid equilibrium temperature, K (Liquid); method: VISOBS
Solvent: Mole fraction of water	Molality, mol/kg of sodium chloride	Solid-liquid equilibrium temperature, K	uncertainty
0.751	0	217.268	1.706
0.751	0.05	216.22	1.706
0.8	0	222.417	1.706
0.8	0.049	221.88	1.706
0.8	0.101	221.71	1.706
0.847	0	240.369	0.173
0.847	0.051	240.31	0.173
0.847	0.099	240.057	0.173
0.847	0.325	237.593	0.173
0.848	0.5	236.088	0.173
0.848	1	230.342	0.173
0.899	0	257.739	0.173
0.899	0.099	256.72	0.173
0.899	0.5	252.359	0.173
0.899	0.502	257.395	0.173
0.899	0.999	249.125	0.173
0.899	2.001	240.662	0.173
0.973	0	269.723	0.173
0.973	0.051	269.523	0.173
0.973	0.1	269.318	0.173
0.973	0.502	267.537	0.173
0.973	1.001	265.357	0.173
0.973	2.201	260.298	0.173
1	0	273.117	0.173
1	0.05	272.941	0.173
1	0.102	272.757	0.173
1	0.5	271.414	0.173
1	1.03	269.628	0.173
1	3.003	261.628	0.173

System: dimethyl sulfoxide + sodium chloride + water; phases: Liquid, Crystal
Fixed: Pressure, kPa = 101
Property: Solid-liquid equilibrium temperature, K (Liquid); method: VISOBS
Solvent: Mole fraction of water	Molality, mol/kg of sodium chloride	Solid-liquid equilibrium temperature, K	uncertainty
0	0	291.661	0.173
0.103	0	285.326	0.173
0.2	0	279.326	0.173
0.3	0	271.071	0.173
0.3	0.05	270.834	0.173
0.404	0	258.362	0.173
0.404	0.05	258.303	0.173
0.501	0	243.806	0.173
0.501	0.05	242.859	0.173
0.501	0.101	242.758	0.173
0.603	0	225.73	1.706
0.603	0.049	225.917	1.706
0.603	0.101	226.249	1.706
0.65	0	221.254	1.706
0.65	0.05	221.13	1.706
0.7	0	217.955	1.706
0.7	0.05	217.737	1.706

System: dimethyl sulfoxide + potassium chloride + water; phases: Liquid, Crystal
Fixed: Pressure, kPa = 101
Property: Molality, mol/kg of potassium chloride (Liquid); method: Residual mass after drying
Temperature, K	Solvent: Mole fraction of water	Molality, mol/kg of potassium chloride	uncertainty
243.173	0.85	0.5658	0.06
258.052	0.85	0.7561	0.06
258.167	0.9	1.2372	0.0601
263.017	0.973	2.53	0.0603
268.079	0.85	0.8567	0.06
268.126	0.973	2.7101	0.0604
268.205	0.9	1.3816	0.0601
278.056	0.973	3.1376	0.0605
278.211	0.9	1.6165	0.0601
278.356	0.85	1.0343	0.0601
297.988	0.973	3.7527	0.0606
298.07	0.9	2.0515	0.0602
298.495	0.85	1.3332	0.0601
312.875	0.9	2.3543	0.0603
312.933	0.973	4.2819	0.0608
313.065	0.85	1.6543	0.0601

System: dimethyl sulfoxide + potassium chloride + water; phases: Liquid, Crystal
Fixed: Pressure, kPa = 101
Property: Solid-liquid equilibrium temperature, K (Liquid); method: VISOBS
Solvent: Mole fraction of water	Molality, mol/kg of potassium chloride	Solid-liquid equilibrium temperature, K	uncertainty
0.85	0.05	239.623	0.173
0.9	0.05	256.253	0.173
0.9	0.1	255.846	0.173
0.9	0.5	252.498	0.173
0.9	1	248.893	0.173
0.973	0.05	269.546	0.173
0.973	0.1	269.46	0.173
0.973	0.117	269.42	0.173
0.973	0.501	267.601	0.173
0.973	1	265.488	0.173
