Measured thermophysical data. Extraction of benzene from heptane with pyridinium based ionic liquid at (298.15, 308.15 and 318.15) K
Source: Fluid Phase Equilib., 2016, 10.1016/j.fluid.2015.12.009
Compound 1: heptane, C7H16, InChI=1S/C7H16/c1-3-5-7-6-4-2/h3-7H2,1-2H3, purity 99%
Compound 2: benzene, C6H6, InChI=1S/C6H6/c1-2-4-6-5-3-1/h1-6H, purity 99%
Compound 3: 1-butylpyridinium nitrate, C9H14N2O3, InChI=1S/C9H14N.NO3/c1-2-3-7-10-8-5-4-6-9-10;2-1(3)4/h4-6,8-9H,2-3,7H2,1H3;/q+1;-1
Compound 4: 1-hexylpyridinium nitrate, C11H18N2O3, InChI=1S/C11H18N.NO3/c1-2-3-4-6-9-12-10-7-5-8-11-12;2-1(3)4/h5,7-8,10-11H,2-4,6,9H2,1H3;/q+1;-1

System: benzene + heptane + 1-butylpyridinium nitrate; phases: Liquid mixture 1, Liquid mixture 2
Fixed: Pressure, kPa = 101
Property: Mole fraction of heptane (Liquid mixture 1); method: Chromatography
Property: Mole fraction of heptane (Liquid mixture 2); method: Chromatography
Property: Mole fraction of benzene (Liquid mixture 2); method: Chromatography
Temperature, K	Mole fraction of benzene	Mole fraction of heptane	uncertainty	Mole fraction of heptane	uncertainty	Mole fraction of benzene	uncertainty
298.15	0.035	0.965	0.003	0.01	0.002	0.037	
298.15	0.875	0.125	0.003	0.004	0.002	0.341	
308.15	0.037	0.963	0.003	0.009	0.002	0.032	
308.15	0.081	0.919	0.003	0.009	0.002	0.052	
308.15	0.17	0.83	0.003	0.007	0.002	0.079	
308.15	0.264	0.736	0.003	0.006	0.002	0.105	
308.15	0.359	0.641	0.004	0.006	0.002	0.132	
308.15	0.46	0.54	0.004	0.005	0.002	0.15	
308.15	0.564	0.436	0.004	0.005	0.002	0.165	
308.15	0.667	0.333	0.004	0.005	0.002	0.192	
308.15	0.774	0.226	0.003	0.004	0.002	0.229	
298.15	0.077	0.923	0.003	0.009	0.002	0.059	
308.15	0.886	0.114	0.003	0.004	0.002	0.271	
318.15	0.039	0.961	0.003	0.009	0.002	0.028	
318.15	0.083	0.917	0.003	0.009	0.002	0.048	
318.15	0.176	0.824	0.003	0.006	0.002	0.071	
318.15	0.271	0.729	0.003	0.005	0.002	0.092	
318.15	0.37	0.63	0.004	0.005	0.002	0.105	
318.15	0.467	0.533	0.004	0.005	0.002	0.127	
318.15	0.567	0.433	0.004	0.005	0.002	0.153	
318.15	0.675	0.325	0.004	0.005	0.002	0.175	
318.15	0.779	0.221	0.003	0.004	0.002	0.202	
298.15	0.162	0.838	0.003	0.008	0.002	0.097	
318.15	0.884	0.116	0.003	0.004	0.002	0.241	
298.15	0.256	0.744	0.003	0.006	0.002	0.123	
298.15	0.356	0.644	0.004	0.005	0.002	0.147	
298.15	0.452	0.548	0.004	0.005	0.002	0.176	
298.15	0.55	0.45	0.004	0.005	0.002	0.208	
298.15	0.656	0.344	0.004	0.005	0.002	0.231	
298.15	0.763	0.237	0.003	0.004	0.002	0.276	

System: benzene + heptane + 1-hexylpyridinium nitrate; phases: Liquid mixture 1, Liquid mixture 2
Fixed: Pressure, kPa = 101
Property: Mole fraction of heptane (Liquid mixture 1); method: Chromatography
Property: Mole fraction of heptane (Liquid mixture 2); method: Chromatography
Property: Mole fraction of benzene (Liquid mixture 2); method: Chromatography
Temperature, K	Mole fraction of benzene	Mole fraction of heptane	uncertainty	Mole fraction of heptane	uncertainty	Mole fraction of benzene	uncertainty
298.15	0.032	0.968	0.003	0.027	0.002	0.042	
298.15	0.853	0.147	0.003	0.01	0.002	0.455	
308.15	0.034	0.966	0.003	0.028	0.002	0.04	
308.15	0.074	0.926	0.003	0.023	0.002	0.064	
308.15	0.159	0.841	0.003	0.019	0.002	0.104	
308.15	0.252	0.748	0.003	0.018	0.002	0.139	
308.15	0.342	0.658	0.004	0.019	0.002	0.176	
308.15	0.44	0.56	0.004	0.017	0.002	0.208	
308.15	0.538	0.462	0.004	0.016	0.002	0.249	
308.15	0.637	0.363	0.004	0.014	0.002	0.301	
308.15	0.748	0.252	0.003	0.013	0.002	0.346	
298.15	0.07	0.93	0.003	0.024	0.002	0.072	
308.15	0.865	0.135	0.003	0.011	0.002	0.41	
318.15	0.038	0.962	0.003	0.024	0.002	0.032	
318.15	0.08	0.92	0.003	0.02	0.002	0.052	
318.15	0.167	0.833	0.003	0.017	0.002	0.091	
318.15	0.26	0.74	0.003	0.016	0.002	0.12	
318.15	0.354	0.646	0.004	0.016	0.002	0.146	
318.15	0.453	0.547	0.004	0.016	0.002	0.172	
318.15	0.55	0.45	0.004	0.015	0.002	0.217	
318.15	0.654	0.346	0.004	0.013	0.002	0.251	
318.15	0.759	0.241	0.003	0.014	0.002	0.306	
298.15	0.148	0.852	0.003	0.021	0.002	0.129	
318.15	0.875	0.125	0.003	0.011	0.002	0.365	
298.15	0.241	0.759	0.003	0.018	0.002	0.16	
298.15	0.329	0.671	0.004	0.017	0.002	0.201	
298.15	0.422	0.578	0.004	0.016	0.002	0.244	
298.15	0.52	0.48	0.004	0.017	0.002	0.292	
298.15	0.624	0.376	0.004	0.014	0.002	0.333	
298.15	0.732	0.268	0.003	0.013	0.002	0.384	
