Measured thermophysical data. Solid-liquid equilibrium of binary and ternary systems formed by ethyl laurate, ethyl palmitate and dodecylcylohexane: Experimental data and thermodynamic modeling
Source: Fluid Phase Equilib., 2016, 10.1016/j.fluid.2015.09.038
Compound 1: ethyl dodecanoate, C14H28O2, InChI=1S/C14H28O2/c1-3-5-6-7-8-9-10-11-12-13-14(15)16-4-2/h3-13H2,1-2H3, purity 98%
Compound 2: ethyl hexadecanoate, C18H36O2, InChI=1S/C18H36O2/c1-3-5-6-7-8-9-10-11-12-13-14-15-16-17-18(19)20-4-2/h3-17H2,1-2H3, purity 99%
Compound 3: dodecylcyclohexane, C18H36, InChI=1S/C18H36/c1-2-3-4-5-6-7-8-9-10-12-15-18-16-13-11-14-17-18/h18H,2-17H2,1H3, purity 98%

System: ethyl dodecanoate; phases: Crystal, Liquid, Air at 1 atmosphere
Property: Molar enthalpy of transition or fusion, kJ/mol (Crystal); method: DSC
Molar enthalpy of transition or fusion, kJ/mol	uncertainty
38.27	7.69

System: ethyl dodecanoate; phases: Crystal, Liquid, Air at 1 atmosphere
Property: Normal melting temperature, K (Crystal); method: DTA
Normal melting temperature, K	uncertainty
272.23	2.03

System: ethyl hexadecanoate; phases: Crystal, Liquid, Air at 1 atmosphere
Property: Molar enthalpy of transition or fusion, kJ/mol (Crystal); method: DSC
Molar enthalpy of transition or fusion, kJ/mol	uncertainty
53.03	20.03

System: ethyl hexadecanoate; phases: Crystal, Liquid, Air at 1 atmosphere
Property: Normal melting temperature, K (Crystal); method: DTA
Normal melting temperature, K	uncertainty
297.93	2.03

System: dodecylcyclohexane; phases: Crystal, Liquid, Air at 1 atmosphere
Property: Molar enthalpy of transition or fusion, kJ/mol (Crystal); method: DSC
Molar enthalpy of transition or fusion, kJ/mol	uncertainty
45.28	9.1

System: dodecylcyclohexane; phases: Crystal, Liquid, Air at 1 atmosphere
Property: Normal melting temperature, K (Crystal); method: DTA
Normal melting temperature, K	uncertainty
286.78	2.03

System: ethyl dodecanoate + dodecylcyclohexane; phases: Crystal, Crystal, Liquid, Air at 1 atmosphere
Property: Eutectic temperature, K (Crystal); method: DTA
Eutectic temperature, K	uncertainty
268.39	1.13

System: ethyl dodecanoate + dodecylcyclohexane; phases: Liquid, Crystal
Fixed: Pressure, kPa = 100
Property: Solid-liquid equilibrium temperature, K (Liquid); method: DTA
Mole fraction of ethyl dodecanoate	Solid-liquid equilibrium temperature, K	uncertainty
0.1015	284.35	1.06
0.2343	282.2	1.06
0.2559	281.56	1.06
0.2772	281.13	1.06
0.3999	278.84	1.06
0.4994	277.39	1.06
0.6035	274.11	1.06
0.6926	270.83	1.06
0.725	270.02	1.06
0.7531	269.09	1.06

System: ethyl dodecanoate + dodecylcyclohexane; phases: Liquid, Crystal
Fixed: Pressure, kPa = 100
Property: Solid-liquid equilibrium temperature, K (Liquid); method: DTA
Mole fraction of ethyl dodecanoate	Solid-liquid equilibrium temperature, K	uncertainty
0.7531	269.09	1.06
0.7999	269.7	1.06
0.8827	271.05	1.06

System: ethyl hexadecanoate + dodecylcyclohexane; phases: Crystal of intercomponent compound 1, Crystal, Liquid, Air at 1 atmosphere
Property: Eutectic temperature, K (Crystal of intercomponent compound 1); method: DTA
Eutectic temperature, K	uncertainty
281.7	1.12

System: ethyl hexadecanoate + dodecylcyclohexane; phases: Crystal of intercomponent compound 1, Crystal, Liquid, Air at 1 atmosphere
Property: Eutectic temperature, K (Crystal of intercomponent compound 1); method: DTA
Eutectic temperature, K	uncertainty
282.34	0.7

System: ethyl hexadecanoate + dodecylcyclohexane; phases: Liquid, Crystal
Fixed: Pressure, kPa = 101
Property: Solid-liquid equilibrium temperature, K (Liquid); method: DTA
Mole fraction of dodecylcyclohexane	Solid-liquid equilibrium temperature, K	uncertainty
0.068	297.25	1.06
0.1147	296.11	1.06
0.1823	295.58	1.06
0.2105	294.75	1.06
0.2598	294.07	1.06
0.3185	293.05	1.06
0.3578	292.95	1.06
0.378	292.46	1.06
0.4552	291.33	1.06
0.4804	290.2	1.06
0.5332	290.04	1.06
0.5761	289.15	1.06
0.617	288.61	1.06
0.6442	288.09	1.06
0.6977	286.81	1.06

System: ethyl hexadecanoate + dodecylcyclohexane; phases: Liquid, Crystal
Fixed: Pressure, kPa = 101
Property: Solid-liquid equilibrium temperature, K (Liquid); method: DTA
Mole fraction of dodecylcyclohexane	Solid-liquid equilibrium temperature, K	uncertainty
0.8147	281.67	1.06
0.8329	282.84	1.06
0.8515	283.27	1.06
0.8912	283.65	1.06
0.9493	285.28	1.06

System: ethyl hexadecanoate + dodecylcyclohexane; phases: Liquid, Crystal of intercomponent compound 1
Fixed: Pressure, kPa = 101
Property: Solid-liquid equilibrium temperature, K (Liquid); method: DTA
Mole fraction of dodecylcyclohexane	Solid-liquid equilibrium temperature, K	uncertainty
0.7503	285.5	1.06
0.7836	284.01	1.06
0.8147	281.67	1.06
