Measured thermophysical data. Volumetric properties of the boldine + alcohol mixtures at atmospheric pressure from 283.15 to 333.15K A new method for the determination of the density of pure boldine
Source: Fluid Phase Equilib., 2007, 10.1016/j.fluid.2007.04.030
Compound 1: boldine, C19H21NO4, InChI=1S/C19H21NO4/c1-20-5-4-10-7-15(22)19(24-3)18-12-9-16(23-2)14(21)8-11(12)6-13(20)17(10)18/h7-9,13,21-22H,4-6H2,1-3H3
Compound 2: methanol, CH4O, InChI=1S/CH4O/c1-2/h2H,1H3
Compound 3: ethanol, C2H6O, InChI=1S/C2H6O/c1-2-3/h3H,2H2,1H3
Compound 4: propan-1-ol, C3H8O, InChI=1S/C3H8O/c1-2-3-4/h4H,2-3H2,1H3
Compound 5: propan-2-ol, C3H8O, InChI=1S/C3H8O/c1-3(2)4/h3-4H,1-2H3
Compound 6: butan-1-ol, C4H10O, InChI=1S/C4H10O/c1-2-3-4-5/h5H,2-4H2,1H3
Compound 7: pentan-1-ol, C5H12O, InChI=1S/C5H12O/c1-2-3-4-5-6/h6H,2-5H2,1H3
Compound 8: hexan-1-ol, C6H14O, InChI=1S/C6H14O/c1-2-3-4-5-6-7/h7H,2-6H2,1H3
Compound 9: octan-1-ol, C8H18O, InChI=1S/C8H18O/c1-2-3-4-5-6-7-8-9/h9H,2-8H2,1H3

System: methanol; phases: Liquid
Fixed: Pressure, kPa = 101
Property: Mass density, kg/m3 (Liquid); method: VIBTUB::UFactor:4
Temperature, K	Mass density, kg/m3	uncertainty
283.15	801.08	0.56
288.15	796.41	0.57
293.15	791.71	0.58
298.15	787.01	0.59
303.15	782.29	0.6
308.15	777.55	0.61
313.15	772.78	0.62
318.15	767.97	0.63
323.15	763.12	0.64
328.15	758.23	0.65
333.15	753.29	0.66

System: ethanol; phases: Liquid
Fixed: Pressure, kPa = 101
Property: Mass density, kg/m3 (Liquid); method: VIBTUB::UFactor:4
Temperature, K	Mass density, kg/m3	uncertainty
283.15	797.96	0.57
288.15	793.71	0.58
293.15	789.44	0.59
298.15	785.15	0.6
303.15	780.83	0.6
308.15	776.48	0.61
313.15	772.09	0.62
318.15	767.65	0.63
323.15	763.17	0.64
328.15	758.63	0.65
333.15	754.01	0.66

System: propan-1-ol; phases: Liquid
Fixed: Pressure, kPa = 101
Property: Mass density, kg/m3 (Liquid); method: VIBTUB::UFactor:4
Temperature, K	Mass density, kg/m3	uncertainty
283.15	811.57	1.23
288.15	807.62	1.23
293.15	803.63	1.23
298.15	799.62	1.23
303.15	795.58	1.23
308.15	791.49	1.23
313.15	787.37	1.24
318.15	783.22	1.24
323.15	779.01	1.24
328.15	774.73	1.24
333.15	770.39	1.24

System: propan-2-ol; phases: Liquid
Fixed: Pressure, kPa = 101
Property: Mass density, kg/m3 (Liquid); method: VIBTUB::UFactor:4
Temperature, K	Mass density, kg/m3	uncertainty
283.15	793.31	0.74
288.15	789.22	0.75
293.15	785.08	0.75
298.15	780.87	0.76
303.15	776.6	0.77
308.15	772.25	0.77
313.15	767.81	0.78
318.15	763.28	0.79
323.15	758.64	0.8
328.15	753.88	0.8
333.15	749.01	0.81

System: butan-1-ol; phases: Liquid
Fixed: Pressure, kPa = 101
Property: Mass density, kg/m3 (Liquid); method: VIBTUB::UFactor:4
Temperature, K	Mass density, kg/m3	uncertainty
283.15	817.15	0.54
288.15	813.38	0.54
293.15	809.59	0.55
298.15	805.77	0.56
303.15	801.92	0.57
308.15	798.05	0.58
313.15	794.14	0.58
318.15	790.19	0.59
323.15	786.19	0.6
328.15	782.14	0.61
333.15	778.03	0.62

System: pentan-1-ol; phases: Liquid
Fixed: Pressure, kPa = 101
Property: Mass density, kg/m3 (Liquid); method: VIBTUB::UFactor:4
Temperature, K	Mass density, kg/m3	uncertainty
283.15	822.42	0.69
288.15	818.79	0.7
293.15	815.13	0.7
298.15	811.45	0.71
303.15	807.74	0.72
308.15	804.01	0.72
313.15	800.24	0.73
318.15	796.43	0.73
323.15	792.57	0.74
328.15	788.67	0.75
333.15	784.72	0.75

System: hexan-1-ol; phases: Liquid
Fixed: Pressure, kPa = 101
Property: Mass density, kg/m3 (Liquid); method: VIBTUB:UFactor:4
Temperature, K	Mass density, kg/m3	uncertainty
283.15	827.82	2.15
288.15	824.25	2.14
293.15	820.65	2.13
298.15	817.03	2.13
303.15	813.39	2.12
308.15	809.71	2.11
313.15	806	2.11
318.15	802.27	2.1
323.15	798.49	2.09
328.15	794.67	2.09
333.15	790.8	2.08

System: octan-1-ol; phases: Liquid
Fixed: Pressure, kPa = 101
Property: Mass density, kg/m3 (Liquid); method: VIBTUB::UFactor:4
Temperature, K	Mass density, kg/m3	uncertainty
283.15	832.13	0.54
288.15	828.71	0.55
293.15	825.27	0.56
298.15	821.81	0.56
303.15	818.33	0.57
308.15	814.84	0.58
313.15	811.31	0.58
318.15	807.76	0.59
323.15	804.19	0.6
328.15	800.58	0.6
333.15	796.93	0.61

System: methanol + boldine; phases: Liquid
Fixed: Pressure, kPa = 101
Property: Mass density, kg/m3 (Liquid); method: VIBTUB:UFactor:4
Temperature, K	Mole fraction of boldine	Mass density, kg/m3	uncertainty
283.15	0	801.08	0.56
283.15	0.00099	804.63	0.56
283.15	0.002	808.15	0.55
283.15	0.00302	811.7	0.54
283.15	0.00406	815.24	0.54
283.15	0.00513	818.83	0.53
283.15	0.00788	827.92	0.51
283.15	0.01077	837.15	0.49
283.15	0.01696	856.15	0.46
283.15	0.02389	875.72	0.42
288.15	0	796.41	0.57
288.15	0.00099	799.96	0.57
288.15	0.002	803.48	0.56
288.15	0.00302	807.04	0.55
288.15	0.00406	810.59	0.55
288.15	0.00513	814.19	0.54
288.15	0.00788	823.28	0.52
288.15	0.01077	832.53	0.5
288.15	0.01696	851.55	0.47
288.15	0.02389	871.15	0.43
293.15	0	791.71	0.58
293.15	0.00099	795.27	0.58
293.15	0.002	798.79	0.57
293.15	0.00302	802.35	0.56
293.15	0.00406	805.91	0.55
293.15	0.00513	809.51	0.55
293.15	0.00788	818.62	0.53
293.15	0.01077	827.88	0.51
293.15	0.01696	846.93	0.47
293.15	0.02389	866.56	0.44
298.15	0	787.01	0.59
298.15	0.00099	790.57	0.59
298.15	0.002	794.1	0.58
298.15	0.00302	797.66	0.57
298.15	0.00406	801.22	0.56
298.15	0.00513	804.83	0.56
298.15	0.00788	813.95	0.54
298.15	0.01077	823.21	0.52
298.15	0.01696	842.29	0.48
298.15	0.02389	861.96	0.45
303.15	0	782.29	0.6
303.15	0.00099	785.86	0.59
303.15	0.002	789.39	0.59
303.15	0.00302	792.96	0.58
303.15	0.00406	796.52	0.57
303.15	0.00513	800.14	0.57
303.15	0.00788	809.27	0.55
303.15	0.01077	818.54	0.53
303.15	0.01696	837.63	0.49
303.15	0.02389	857.34	0.46
308.15	0	777.55	0.61
308.15	0.00099	781.12	0.6
308.15	0.002	784.66	0.6
308.15	0.00302	788.23	0.59
308.15	0.00406	791.8	0.58
308.15	0.00513	795.42	0.58
308.15	0.00788	804.56	0.56
308.15	0.01077	813.85	0.54
308.15	0.01696	832.96	0.5
308.15	0.02389	852.69	0.47
313.15	0	772.78	0.62
313.15	0.00099	776.35	0.61
313.15	0.002	779.89	0.61
313.15	0.00302	783.47	0.6
313.15	0.00406	787.05	0.59
313.15	0.00513	790.67	0.59
313.15	0.00788	799.82	0.57
313.15	0.01077	809.13	0.55
313.15	0.01696	828.27	0.51
313.15	0.02389	848.03	0.48
318.15	0	767.97	0.63
318.15	0.00099	771.55	0.62
318.15	0.002	775.1	0.62
318.15	0.00302	778.68	0.61
318.15	0.00406	782.26	0.6
318.15	0.00513	785.89	0.6
318.15	0.00788	795.05	0.58
318.15	0.01077	804.37	0.56
318.15	0.01696	823.55	0.52
318.15	0.02389	843.34	0.48
323.15	0	763.12	0.64
323.15	0.00099	766.71	0.63
323.15	0.002	770.26	0.63
323.15	0.00302	773.84	0.62
323.15	0.00406	777.43	0.61
323.15	0.00513	781.07	0.61
323.15	0.00788	790.25	0.59
323.15	0.01077	799.58	0.57
323.15	0.01696	818.78	0.53
323.15	0.02389	838.61	0.49
328.15	0	758.23	0.65
328.15	0.00099	761.83	0.64
328.15	0.002	765.38	0.64
328.15	0.00302	768.97	0.63
328.15	0.00406	772.57	0.62
328.15	0.00513	776.2	0.62
328.15	0.00788	785.4	0.6
328.15	0.01077	794.75	0.58
328.15	0.01696	813.97	0.54
328.15	0.02389	833.84	0.5
333.15	0	753.29	0.66
333.15	0.00099	756.89	0.65
333.15	0.002	760.45	0.65
333.15	0.00302	764.05	0.64
333.15	0.00406	767.65	0.63
333.15	0.00513	771.29	0.63
333.15	0.00788	780.5	0.61
333.15	0.01077	789.86	0.59
333.15	0.01696	809.11	0.55
333.15	0.02389	829.02	0.51

System: ethanol + boldine; phases: Liquid
Fixed: Pressure, kPa = 101
Property: Mass density, kg/m3 (Liquid); method: VIBTUB:UFactor:4
Temperature, K	Mole fraction of boldine	Mass density, kg/m3	uncertainty
283.15	0	797.96	0.57
283.15	0.00151	801.79	0.56
283.15	0.0036	806.58	0.55
283.15	0.00737	815.68	0.53
283.15	0.01217	826.69	0.51
283.15	0.0177	838.83	0.49
283.15	0.02066	845.25	0.48
283.15	0.02425	852.81	0.46
283.15	0.02539	855.28	0.46
288.15	0	793.71	0.58
288.15	0.00151	797.54	0.57
288.15	0.0036	802.33	0.56
288.15	0.00737	811.43	0.54
288.15	0.01217	822.44	0.52
288.15	0.0177	834.59	0.5
288.15	0.02066	841.01	0.48
288.15	0.02425	848.57	0.47
288.15	0.02539	851.04	0.47
293.15	0	789.44	0.59
293.15	0.00151	793.27	0.58
293.15	0.0036	798.06	0.57
293.15	0.00737	807.16	0.55
293.15	0.01217	818.18	0.53
293.15	0.0177	830.32	0.51
293.15	0.02066	836.74	0.49
293.15	0.02425	844.3	0.48
293.15	0.02539	846.79	0.47
298.15	0	785.15	0.6
298.15	0.00151	788.97	0.59
298.15	0.0036	793.77	0.58
298.15	0.00737	802.87	0.56
298.15	0.01217	813.89	0.54
298.15	0.0177	826.03	0.51
298.15	0.02066	832.46	0.5
298.15	0.02425	840.02	0.49
298.15	0.02539	842.51	0.48
303.15	0	780.83	0.6
303.15	0.00151	784.65	0.6
303.15	0.0036	789.45	0.59
303.15	0.00737	798.55	0.57
303.15	0.01217	809.57	0.55
303.15	0.0177	821.71	0.52
303.15	0.02066	828.14	0.51
303.15	0.02425	835.71	0.5
303.15	0.02539	838.2	0.49
308.15	0	776.48	0.61
308.15	0.00151	780.3	0.61
308.15	0.0036	785.1	0.6
308.15	0.00737	794.2	0.58
308.15	0.01217	805.23	0.56
308.15	0.0177	817.37	0.53
308.15	0.02066	823.79	0.52
308.15	0.02425	831.35	0.51
308.15	0.02539	833.86	0.5
313.15	0	772.09	0.62
313.15	0.00151	775.91	0.61
313.15	0.0036	780.71	0.6
313.15	0.00737	789.81	0.59
313.15	0.01217	800.84	0.56
313.15	0.0177	813	0.54
313.15	0.02066	819.42	0.53
313.15	0.02425	826.97	0.51
313.15	0.02539	829.49	0.51
318.15	0	767.65	0.63
318.15	0.00151	771.49	0.62
318.15	0.0036	776.27	0.61
318.15	0.00737	785.38	0.6
318.15	0.01217	796.41	0.57
318.15	0.0177	808.57	0.55
318.15	0.02066	815	0.54
318.15	0.02425	822.56	0.52
318.15	0.02539	825.07	0.52
323.15	0	763.17	0.64
323.15	0.00151	767.01	0.63
323.15	0.0036	771.79	0.62
323.15	0.00737	780.9	0.6
323.15	0.01217	791.93	0.58
323.15	0.0177	804.1	0.56
323.15	0.02066	810.54	0.55
323.15	0.02425	818.09	0.53
323.15	0.02539	820.6	0.53
328.15	0	758.63	0.65
328.15	0.00151	762.47	0.64
328.15	0.0036	767.24	0.63
328.15	0.00737	776.37	0.61
328.15	0.01217	787.4	0.59
328.15	0.0177	799.57	0.57
328.15	0.02066	806.01	0.56
328.15	0.02425	813.57	0.54
328.15	0.02539	816.08	0.54
333.15	0	754.01	0.66
333.15	0.00151	757.86	0.65
333.15	0.0036	762.64	0.64
333.15	0.00737	771.76	0.62
333.15	0.01217	782.8	0.6
333.15	0.0177	794.98	0.58
333.15	0.02066	801.42	0.57
333.15	0.02425	808.99	0.55
333.15	0.02539	811.5	0.55

System: propan-1-ol + boldine; phases: Liquid
Fixed: Pressure, kPa = 101
Property: Mass density, kg/m3 (Liquid); method: VIBTUB:UFactor:4
Temperature, K	Mole fraction of boldine	Mass density, kg/m3	uncertainty
283.15	0	811.57	1.23
283.15	0.00185	814.99	1.22
283.15	0.00374	818.36	1.22
283.15	0.00565	821.77	1.22
283.15	0.0076	825.23	1.22
283.15	0.00957	828.61	1.21
283.15	0.01158	832.08	1.21
283.15	0.01361	835.59	1.21
288.15	0	807.62	1.23
288.15	0.00185	811.04	1.23
288.15	0.00374	814.41	1.22
288.15	0.00565	817.81	1.22
288.15	0.0076	821.26	1.22
288.15	0.00957	824.65	1.22
288.15	0.01158	828.12	1.21
288.15	0.01361	831.61	1.21
293.15	0	803.63	1.23
293.15	0.00185	807.05	1.23
293.15	0.00374	810.42	1.22
293.15	0.00565	813.82	1.22
293.15	0.0076	817.26	1.22
293.15	0.00957	820.65	1.22
293.15	0.01158	824.12	1.21
293.15	0.01361	827.61	1.21
298.15	0	799.62	1.23
298.15	0.00185	803.04	1.23
298.15	0.00374	806.4	1.23
298.15	0.00565	809.8	1.22
298.15	0.0076	813.24	1.22
298.15	0.00957	816.64	1.22
298.15	0.01158	820.1	1.22
298.15	0.01361	823.59	1.21
303.15	0	795.58	1.23
303.15	0.00185	799	1.23
303.15	0.00374	802.35	1.23
303.15	0.00565	805.75	1.23
303.15	0.0076	809.2	1.22
303.15	0.00957	812.59	1.22
303.15	0.01158	816.05	1.22
303.15	0.01361	819.54	1.22
308.15	0	791.49	1.23
308.15	0.00185	794.92	1.23
308.15	0.00374	798.27	1.23
308.15	0.00565	801.67	1.23
308.15	0.0076	805.12	1.22
308.15	0.00957	808.5	1.22
308.15	0.01158	811.96	1.22
308.15	0.01361	815.45	1.22
313.15	0	787.37	1.24
313.15	0.00185	790.81	1.23
313.15	0.00374	794.14	1.23
313.15	0.00565	797.55	1.23
313.15	0.0076	800.98	1.23
313.15	0.00957	804.37	1.22
313.15	0.01158	807.83	1.22
313.15	0.01361	811.31	1.22
318.15	0	783.22	1.24
318.15	0.00185	786.65	1.23
318.15	0.00374	789.98	1.23
318.15	0.00565	793.39	1.23
318.15	0.0076	796.82	1.23
318.15	0.00957	800.21	1.22
318.15	0.01158	803.65	1.22
318.15	0.01361	807.13	1.22
323.15	0	779.01	1.24
323.15	0.00185	782.43	1.24
323.15	0.00374	785.77	1.23
323.15	0.00565	789.17	1.23
323.15	0.0076	792.6	1.23
323.15	0.00957	795.99	1.23
323.15	0.01158	799.42	1.22
323.15	0.01361	802.91	1.22
328.15	0	774.73	1.24
328.15	0.00185	778.16	1.24
328.15	0.00374	781.5	1.24
328.15	0.00565	784.89	1.23
328.15	0.0076	788.33	1.23
328.15	0.00957	791.71	1.23
328.15	0.01158	795.16	1.23
328.15	0.01361	798.63	1.22
333.15	0	770.39	1.24
333.15	0.00185	773.81	1.24
333.15	0.00374	777.16	1.24
333.15	0.00565	780.54	1.23
333.15	0.0076	783.99	1.23
333.15	0.00957	787.37	1.23
333.15	0.01158	790.82	1.23
333.15	0.01361	794.3	1.22

System: propan-2-ol + boldine; phases: Liquid
Fixed: Pressure, kPa = 101
Property: Mass density, kg/m3 (Liquid); method: VIBTUB:UFactor:4
Temperature, K	Mole fraction of boldine	Mass density, kg/m3	uncertainty
283.15	0	793.31	0.74
283.15	0.00187	796.84	0.73
283.15	0.00371	800.29	0.73
283.15	0.00563	803.77	0.72
283.15	0.00735	807.03	0.72
283.15	0.00957	810.42	0.71
283.15	0.01158	814.44	0.71
283.15	0.01364	818.2	0.7
288.15	0	789.22	0.75
288.15	0.00187	792.75	0.74
288.15	0.00371	796.21	0.73
288.15	0.00563	799.68	0.73
288.15	0.00735	802.94	0.72
288.15	0.00957	806.37	0.72
288.15	0.01158	810.34	0.71
288.15	0.01364	814.09	0.71
293.15	0	785.08	0.75
293.15	0.00187	788.61	0.75
293.15	0.00371	792.06	0.74
293.15	0.00563	795.53	0.74
293.15	0.00735	798.79	0.73
293.15	0.00957	802.25	0.72
293.15	0.01158	806.19	0.72
293.15	0.01364	809.91	0.71
298.15	0	780.87	0.76
298.15	0.00187	784.39	0.75
298.15	0.00371	787.84	0.75
298.15	0.00563	791.32	0.74
298.15	0.00735	794.57	0.74
298.15	0.00957	798.05	0.73
298.15	0.01158	801.97	0.73
298.15	0.01364	805.66	0.72
303.15	0	776.6	0.77
303.15	0.00187	780.11	0.76
303.15	0.00371	783.56	0.75
303.15	0.00563	787.04	0.75
303.15	0.00735	790.29	0.74
303.15	0.00957	793.78	0.74
303.15	0.01158	797.69	0.73
303.15	0.01364	801.36	0.73
308.15	0	772.25	0.77
308.15	0.00187	775.77	0.77
308.15	0.00371	779.22	0.76
308.15	0.00563	782.69	0.76
308.15	0.00735	785.94	0.75
308.15	0.00957	789.45	0.75
308.15	0.01158	793.35	0.74
308.15	0.01364	797.01	0.73
313.15	0	767.81	0.78
313.15	0.00187	771.34	0.77
313.15	0.00371	774.79	0.77
313.15	0.00563	778.25	0.76
313.15	0.00735	781.51	0.76
313.15	0.00957	785.03	0.75
313.15	0.01158	788.91	0.75
313.15	0.01364	792.59	0.74
318.15	0	763.28	0.79
318.15	0.00187	766.8	0.78
318.15	0.00371	770.26	0.78
318.15	0.00563	773.72	0.77
318.15	0.00735	776.98	0.77
318.15	0.00957	780.51	0.76
318.15	0.01158	784.38	0.75
318.15	0.01364	788.09	0.75
323.15	0	758.64	0.8
323.15	0.00187	762.17	0.79
323.15	0.00371	765.62	0.78
323.15	0.00563	769.08	0.78
323.15	0.00735	772.35	0.77
323.15	0.00957	775.88	0.77
323.15	0.01158	779.76	0.76
323.15	0.01364	783.56	0.76
328.15	0	753.88	0.8
328.15	0.00187	757.42	0.8
328.15	0.00371	760.87	0.79
328.15	0.00563	764.34	0.79
328.15	0.00735	767.61	0.78
328.15	0.00957	771.14	0.78
328.15	0.01158	775.02	0.77
328.15	0.01364	778.85	0.76
333.15	0	749.01	0.81
333.15	0.00187	752.55	0.81
333.15	0.00371	756.01	0.8
333.15	0.00563	759.48	0.79
333.15	0.00735	762.75	0.79
333.15	0.00957	766.27	0.78
333.15	0.01158	770.17	0.78
333.15	0.01364	773.99	0.77

System: butan-1-ol + boldine; phases: Liquid
Fixed: Pressure, kPa = 101
Property: Mass density, kg/m3 (Liquid); method: VIBTUB:UFactor:4
Temperature, K	Mole fraction of boldine	Mass density, kg/m3	uncertainty
283.15	0	817.15	0.54
283.15	0.00228	820.49	0.53
283.15	0.00461	823.85	0.52
283.15	0.00696	827.2	0.52
283.15	0.00936	830.57	0.51
283.15	0.01178	833.94	0.5
283.15	0.01427	837.36	0.5
283.15	0.01678	840.79	0.49
288.15	0	813.38	0.54
288.15	0.00228	816.73	0.54
288.15	0.00461	820.08	0.53
288.15	0.00696	823.43	0.53
288.15	0.00936	826.79	0.52
288.15	0.01178	830.16	0.51
288.15	0.01427	833.57	0.51
288.15	0.01678	837	0.5
293.15	0	809.59	0.55
293.15	0.00228	812.93	0.55
293.15	0.00461	816.28	0.54
293.15	0.00696	819.62	0.53
293.15	0.00936	822.98	0.53
293.15	0.01178	826.35	0.52
293.15	0.01427	829.75	0.51
293.15	0.01678	833.18	0.51
298.15	0	805.77	0.56
298.15	0.00228	809.11	0.55
298.15	0.00461	812.45	0.55
298.15	0.00696	815.8	0.54
298.15	0.00936	819.15	0.53
298.15	0.01178	822.52	0.53
298.15	0.01427	825.92	0.52
298.15	0.01678	829.34	0.51
303.15	0	801.92	0.57
303.15	0.00228	805.26	0.56
303.15	0.00461	808.6	0.55
303.15	0.00696	811.94	0.55
303.15	0.00936	815.29	0.54
303.15	0.01178	818.66	0.54
303.15	0.01427	822.06	0.53
303.15	0.01678	825.48	0.52
308.15	0	798.05	0.58
308.15	0.00228	801.39	0.57
308.15	0.00461	804.72	0.56
308.15	0.00696	808.06	0.56
308.15	0.00936	811.4	0.55
308.15	0.01178	814.77	0.54
308.15	0.01427	818.16	0.54
308.15	0.01678	821.58	0.53
313.15	0	794.14	0.58
313.15	0.00228	797.47	0.58
313.15	0.00461	800.81	0.57
313.15	0.00696	804.14	0.56
313.15	0.00936	807.48	0.56
313.15	0.01178	810.84	0.55
313.15	0.01427	814.23	0.54
313.15	0.01678	817.64	0.54
318.15	0	790.19	0.59
318.15	0.00228	793.52	0.58
318.15	0.00461	796.85	0.58
318.15	0.00696	800.17	0.57
318.15	0.00936	803.52	0.57
318.15	0.01178	806.87	0.56
318.15	0.01427	810.25	0.55
318.15	0.01678	813.67	0.55
323.15	0	786.19	0.6
323.15	0.00228	789.52	0.59
323.15	0.00461	792.84	0.59
323.15	0.00696	796.17	0.58
323.15	0.00936	799.51	0.57
323.15	0.01178	802.86	0.57
323.15	0.01427	806.23	0.56
323.15	0.01678	809.66	0.55
328.15	0	782.14	0.61
328.15	0.00228	785.47	0.6
328.15	0.00461	788.79	0.59
328.15	0.00696	792.11	0.59
328.15	0.00936	795.45	0.58
328.15	0.01178	798.79	0.58
328.15	0.01427	802.17	0.57
328.15	0.01678	805.59	0.56
333.15	0	778.03	0.62
333.15	0.00228	781.35	0.61
333.15	0.00461	784.67	0.6
333.15	0.00696	787.99	0.6
333.15	0.00936	791.32	0.59
333.15	0.01178	794.67	0.58
333.15	0.01427	798.05	0.58
333.15	0.01678	801.46	0.57

System: pentan-1-ol + boldine; phases: Liquid
Fixed: Pressure, kPa = 101
Property: Mass density, kg/m3 (Liquid); method: VIBTUB:UFactor:4
Temperature, K	Mole fraction of boldine	Mass density, kg/m3	uncertainty
283.15	0	822.42	0.69
283.15	0.00272	825.74	0.69
283.15	0.00547	829.04	0.68
283.15	0.00826	832.39	0.68
288.15	0	818.79	0.7
288.15	0.00272	822.11	0.69
288.15	0.00547	825.4	0.69
288.15	0.00826	828.75	0.68
293.15	0	815.13	0.7
293.15	0.00272	818.44	0.7
293.15	0.00547	821.73	0.69
293.15	0.00826	825.07	0.69
298.15	0	811.45	0.71
298.15	0.00272	814.76	0.7
298.15	0.00547	818.04	0.7
298.15	0.00826	821.37	0.69
303.15	0	807.74	0.72
303.15	0.00272	811.05	0.71
303.15	0.00547	814.33	0.71
303.15	0.00826	817.65	0.7
308.15	0	804.01	0.72
308.15	0.00272	807.31	0.72
308.15	0.00547	810.58	0.71
308.15	0.00826	813.91	0.71
313.15	0	800.24	0.73
313.15	0.00272	803.53	0.72
313.15	0.00547	806.8	0.72
313.15	0.00826	810.12	0.71
318.15	0	796.43	0.73
318.15	0.00272	799.72	0.73
318.15	0.00547	802.99	0.72
318.15	0.00826	806.31	0.72
323.15	0	792.57	0.74
323.15	0.00272	795.87	0.73
323.15	0.00547	799.13	0.73
323.15	0.00826	802.45	0.72
328.15	0	788.67	0.75
328.15	0.00272	791.97	0.74
328.15	0.00547	795.23	0.74
328.15	0.00826	798.54	0.73
333.15	0	784.72	0.75
333.15	0.00272	788.02	0.75
333.15	0.00547	791.28	0.74
333.15	0.00826	794.59	0.74

System: hexan-1-ol + boldine; phases: Liquid
Fixed: Pressure, kPa = 101
Property: Mass density, kg/m3 (Liquid); method: VIBTUB:UFactor:4
Temperature, K	Mole fraction of boldine	Mass density, kg/m3	uncertainty
283.15	0	827.82	2.15
283.15	0.00308	831.02	2.15
283.15	0.00633	834.31	2.15
283.15	0.00958	837.66	2.14
288.15	0	824.25	2.14
288.15	0.00308	827.44	2.14
288.15	0.00633	830.73	2.14
288.15	0.00958	834.07	2.14
293.15	0	820.65	2.13
293.15	0.00308	823.83	2.13
293.15	0.00633	827.12	2.13
293.15	0.00958	830.46	2.13
298.15	0	817.03	2.13
298.15	0.00308	820.21	2.13
298.15	0.00633	823.49	2.12
298.15	0.00958	826.82	2.12
303.15	0	813.39	2.12
303.15	0.00308	816.56	2.12
303.15	0.00633	819.84	2.12
303.15	0.00958	823.16	2.12
308.15	0	809.71	2.11
308.15	0.00308	812.88	2.11
308.15	0.00633	816.16	2.11
308.15	0.00958	819.48	2.11
313.15	0	806	2.11
313.15	0.00308	809.17	2.1
313.15	0.00633	812.44	2.1
313.15	0.00958	815.76	2.1
318.15	0	802.27	2.1
318.15	0.00308	805.43	2.1
318.15	0.00633	808.7	2.1
318.15	0.00958	812.01	2.1
323.15	0	798.49	2.09
323.15	0.00308	801.65	2.09
323.15	0.00633	804.91	2.09
323.15	0.00958	808.22	2.09
328.15	0	794.67	2.09
328.15	0.00308	797.83	2.08
328.15	0.00633	801.09	2.08
328.15	0.00958	804.39	2.08
333.15	0	790.8	2.08
333.15	0.00308	793.97	2.08
333.15	0.00633	797.22	2.08
333.15	0.00958	800.51	2.08

System: octan-1-ol + boldine; phases: Liquid
Fixed: Pressure, kPa = 101
Property: Mass density, kg/m3 (Liquid); method: VIBTUB:UFactor:4
Temperature, K	Mole fraction of boldine	Mass density, kg/m3	uncertainty
283.15	0	832.13	0.54
283.15	0.00398	835.34	0.54
283.15	0.00806	838.57	0.53
283.15	0.01216	842.06	0.53
288.15	0	828.71	0.55
288.15	0.00398	831.91	0.54
288.15	0.00806	835.14	0.54
288.15	0.01216	838.62	0.53
293.15	0	825.27	0.56
293.15	0.00398	828.46	0.55
293.15	0.00806	831.68	0.55
293.15	0.01216	835.16	0.54
298.15	0	821.81	0.56
298.15	0.00398	825	0.56
298.15	0.00806	828.21	0.55
298.15	0.01216	831.68	0.55
303.15	0	818.33	0.57
303.15	0.00398	821.52	0.56
303.15	0.00806	824.72	0.56
303.15	0.01216	828.18	0.55
308.15	0	814.84	0.58
308.15	0.00398	818.01	0.57
308.15	0.00806	821.21	0.57
308.15	0.01216	824.66	0.56
313.15	0	811.31	0.58
313.15	0.00398	814.49	0.58
313.15	0.00806	817.68	0.57
313.15	0.01216	821.12	0.57
318.15	0	807.76	0.59
318.15	0.00398	810.93	0.58
318.15	0.00806	814.12	0.58
318.15	0.01216	817.55	0.57
323.15	0	804.19	0.6
323.15	0.00398	807.34	0.59
323.15	0.00806	810.52	0.59
323.15	0.01216	813.96	0.58
328.15	0	800.58	0.6
328.15	0.00398	803.73	0.6
328.15	0.00806	806.9	0.59
328.15	0.01216	810.33	0.59
333.15	0	796.93	0.61
333.15	0.00398	800.08	0.61
333.15	0.00806	803.24	0.6
333.15	0.01216	806.66	0.59
