Measured thermophysical data. Liquid-liquid equilibria of n-heptane, methanol and deep eutectic solvents composed of carboxylic acid and monocyclic terpenes
Source: Fluid Phase Equilib., 2018, 10.1016/j.fluid.2018.08.020
Compound 1: L-menthol, C10H20O, InChI=1S/C10H20O/c1-7(2)9-5-4-8(3)6-10(9)11/h7-11H,4-6H2,1-3H3/t8-,9+,10-/m1/s1
Compound 2: 2-methyl-5-(1-methylethyl)phenol, C10H14O, InChI=1S/C10H14O/c1-7(2)9-5-4-8(3)10(11)6-9/h4-7,11H,1-3H3
Compound 3: 3-methyl-6-isopropylphenol, C10H14O, InChI=1S/C10H14O/c1-7(2)9-5-4-8(3)6-10(9)11/h4-7,11H,1-3H3
Compound 4: 4-oxopentanoic acid, C5H8O3, InChI=1S/C5H8O3/c1-4(6)2-3-5(7)8/h2-3H2,1H3,(H,7,8), purity 99%
Compound 5: heptane, C7H16, InChI=1S/C7H16/c1-3-5-7-6-4-2/h3-7H2,1-2H3, purity 99%
Compound 6: methanol, CH4O, InChI=1S/CH4O/c1-2/h2H,1H3, purity 99%

System: heptane + L-menthol + 4-oxopentanoic acid; phases: Liquid mixture 2, Liquid mixture 1
Fixed: Temperature, K = 293.95
Fixed: Pressure, kPa = 101
Property: Mass fraction of L-menthol (Liquid mixture 2); method: Chromatography
Property: Mass fraction of L-menthol (Liquid mixture 1); method: Chromatography
Property: Mass fraction of heptane (Liquid mixture 1); method: Chromatography
Mass fraction of heptane	Mass fraction of L-menthol	uncertainty	Mass fraction of L-menthol	uncertainty	Mass fraction of heptane	uncertainty
0.0424	0.1893	0.0019	0.3163	0.0032	0.5606	
0.0422	0.189	0.0019	0.3175	0.0032	0.5589	
0.0421	0.189	0.0019	0.3175	0.0032	0.5585	

System: heptane + methanol; phases: Liquid mixture 1, Liquid mixture 2
Fixed: Pressure, kPa = 101
Property: Mass fraction of heptane (Liquid mixture 1); method: Chromatography
Temperature, K	Mass fraction of heptane	uncertainty
293.95	0.9494	0.0007
293.95	0.9506	0.0009
295.15	0.9476	0.0006
295.15	0.9466	0.0007
295.15	0.9468	0.0007
295.15	0.9469	0.0007
295.15	0.9465	0.0007

System: heptane + methanol; phases: Liquid mixture 2, Liquid mixture 1
Fixed: Pressure, kPa = 101
Property: Mass fraction of heptane (Liquid mixture 2); method: Chromatography
Temperature, K	Mass fraction of heptane	uncertainty
293.95	0.2401	0.0029
293.95	0.2391	0.003
295.15	0.2465	0.0027
295.15	0.2465	0.0027
295.15	0.2406	0.0024
295.15	0.2408	0.0024
295.15	0.2396	0.0024

System: heptane + 3-methyl-6-isopropylphenol + 4-oxopentanoic acid; phases: Liquid mixture 2, Liquid mixture 1
Fixed: Temperature, K = 295.15
Fixed: Pressure, kPa = 101
Property: Mass fraction of heptane (Liquid mixture 2); method: Chromatography
Property: Mass fraction of 3-methyl-6-isopropylphenol (Liquid mixture 1); method: Chromatography
Property: Mass fraction of heptane (Liquid mixture 1); method: Chromatography
Mass fraction of 3-methyl-6-isopropylphenol	Mass fraction of heptane	uncertainty	Mass fraction of 3-methyl-6-isopropylphenol	uncertainty	Mass fraction of heptane	uncertainty
0.4642	0.1703	0.0017	0.092	0.0009	0.8873	
0.4631	0.1683	0.0017	0.0954	0.001	0.8825	
0.4584	0.1702	0.0017	0.0914	0.0009	0.8847	

System: heptane + 2-methyl-5-(1-methylethyl)phenol + 4-oxopentanoic acid; phases: Liquid mixture 2, Liquid mixture 1
Fixed: Temperature, K = 295.15
Fixed: Pressure, kPa = 101
Property: Mass fraction of 2-methyl-5-(1-methylethyl)phenol (Liquid mixture 2); method: Chromatography
Property: Mass fraction of 2-methyl-5-(1-methylethyl)phenol (Liquid mixture 1); method: Chromatography
Property: Mass fraction of heptane (Liquid mixture 1); method: Chromatography
Mass fraction of heptane	Mass fraction of 2-methyl-5-(1-methylethyl)phenol	uncertainty	Mass fraction of 2-methyl-5-(1-methylethyl)phenol	uncertainty	Mass fraction of heptane	uncertainty
0.1447	0.4722	0.0047	0.0943	0.0009	0.8846	
0.1455	0.4715	0.0047	0.0948	0.0009	0.8834	
0.1432	0.4717	0.0047	0.0943	0.0009	0.8839	
