Measured thermophysical data. Measurement, correlation, and prediction of vapor pressure for binary and ternary systems containing an ionic liquid 1,3-dimethylimidazolium methylsulfate
Source: Fluid Phase Equilib., 2015, 10.1016/j.fluid.2014.10.028
Compound 1: propan-1-ol, C3H8O, InChI=1S/C3H8O/c1-2-3-4/h4H,2-3H2,1H3, purity 99.7%
Compound 2: propan-2-ol, C3H8O, InChI=1S/C3H8O/c1-3(2)4/h3-4H,1-2H3, purity 99.7%
Compound 3: 1,3-dimethylimidazolium methylsulfate, C6H12N2O4S, InChI=1S/C5H9N2.CH4O4S/c1-6-3-4-7(2)5-6;1-5-6(2,3)4/h3-5H,1-2H3;1H3,(H,2,3,4)/q+1;/p-1, purity 99%
Compound 4: water, H2O, InChI=1S/H2O/h1H2, purity 99.8%
Compound 5: ethanol, C2H6O, InChI=1S/C2H6O/c1-2-3/h3H,2H2,1H3, purity 99.7%

System: ethanol; phases: Liquid, Gas
Property: Vapor or sublimation pressure, kPa (Liquid); method: Ebulliometric method (Recirculating still)
Temperature, K	Vapor or sublimation pressure, kPa	uncertainty
310.23	15.36	0.09
318.81	23.82	0.09
324.28	31.1	0.1
329.53	39.76	0.11
333.26	47.09	0.12
336.63	54.67	0.13
339.71	62.42	0.13
342.45	70.11	0.14
345	77.95	0.15
346.94	84.41	0.16
349.19	92.48	0.17
351.85	102.8	0.18

System: water + 1,3-dimethylimidazolium methylsulfate; phases: Liquid, Gas
Property: Vapor or sublimation pressure, kPa (Liquid); method: Ebulliometric method (Recirculating still)
Mole fraction of water	Temperature, K	Vapor or sublimation pressure, kPa	uncertainty
0.9905	325.33	13.43	0.12
0.9905	331.95	18.43	0.13
0.9905	340.11	26.7	0.16
0.9905	346.26	34.87	0.19
0.9905	353.75	47.62	0.24
0.9905	361.49	64.56	0.31
0.9905	368.44	83.85	0.39
0.9905	373.85	102.08	0.46
0.9788	323.95	12.29	0.12
0.9788	334.22	20.07	0.14
0.9788	340.02	26.11	0.16
0.9788	348.63	37.81	0.2
0.9788	354.91	48.87	0.24
0.9788	362.4	65.52	0.31
0.9788	369	83.94	0.39
0.9788	374.64	102.84	0.46
0.9643	326.3	13.43	0.12
0.9643	334.54	19.87	0.14
0.9643	340.82	26.28	0.16
0.9643	349.8	38.64	0.2
0.9643	356.19	50.09	0.25
0.9643	363.85	67.39	0.32
0.9643	370.05	84.99	0.39
0.9643	375.42	102.96	0.46
0.9204	329.08	13.94	0.12
0.9204	338	21.13	0.14
0.9204	344.09	27.56	0.16
0.9204	352.14	38.6	0.2
0.9204	359.25	51.34	0.25
0.9204	366.5	67.65	0.32
0.9204	373.22	86.82	0.4
0.9204	377.84	102.37	0.46

System: ethanol + 1,3-dimethylimidazolium methylsulfate; phases: Liquid, Gas
Property: Vapor or sublimation pressure, kPa (Liquid); method: Ebulliometric method (Recirculating still)
Mole fraction of ethanol	Temperature, K	Vapor or sublimation pressure, kPa	uncertainty
0.976	308.92	14.03	0.12
0.976	317.47	21.82	0.14
0.976	322.45	27.88	0.17
0.976	329.73	39.32	0.21
0.976	335.72	51.53	0.26
0.976	341.95	67.49	0.32
0.976	348.02	86.77	0.4
0.976	352.23	102.76	0.47
0.9476	309.15	13.92	0.12
0.9476	317.82	21.77	0.14
0.9476	322.67	27.66	0.17
0.9476	329.55	38.28	0.2
0.9476	335.82	50.84	0.26
0.9476	342.31	67.3	0.32
0.9476	348.41	86.56	0.4
0.9476	352.5	102.13	0.47
0.9194	308.57	13.26	0.12
0.9194	317.37	20.9	0.14
0.9194	321.98	26.27	0.16
0.9194	330.71	39.69	0.21
0.9194	336.29	51.06	0.26
0.9194	342.81	67.61	0.32
0.9194	348.39	85.17	0.4
0.9194	352.82	101.98	0.47
0.8189	309.5	13.17	0.12
0.8189	317.29	19.7	0.14
0.8189	324.16	27.72	0.17
0.8189	331.99	40.18	0.21
0.8189	337.66	51.67	0.26
0.8189	344.2	68.31	0.33
0.8189	349.76	85.65	0.4
0.8189	354.24	102.45	0.47

System: propan-1-ol + 1,3-dimethylimidazolium methylsulfate; phases: Liquid, Gas
Property: Vapor or sublimation pressure, kPa (Liquid); method: Ebulliometric method (Recirculating still)
Mole fraction of propan-1-ol	Temperature, K	Vapor or sublimation pressure, kPa	uncertainty
0.9684	329.46	16.5	0.13
0.9684	332.82	19.54	0.14
0.9684	338.26	25.47	0.16
0.9684	346.69	37.6	0.2
0.9684	352.73	49.03	0.25
0.9684	359.63	65.48	0.31
0.9684	365.96	84.4	0.39
0.9684	370.57	100.83	0.46
0.9317	323.46	11.89	0.12
0.9317	333.68	20.09	0.14
0.9317	339.37	26.47	0.16
0.9317	347.59	38.62	0.2
0.9317	353.66	50.36	0.25
0.9317	361.6	70.1	0.33
0.9317	366.66	85.77	0.4
0.9317	370.96	101.31	0.46
0.8883	325.96	13.27	0.12
0.8883	334.84	20.8	0.14
0.8883	340.5	27.29	0.16
0.8883	347.83	38.15	0.2
0.8883	354.36	50.72	0.25
0.8883	361.99	69.42	0.33
0.8883	366.69	83.8	0.39
0.8883	371.78	101.85	0.46
0.7732	327.03	12.96	0.12
0.7732	335.66	20.01	0.14
0.7732	340.5	25.22	0.16
0.7732	350.51	39.69	0.21
0.7732	356.26	50.83	0.26
0.7732	362.93	66.92	0.32
0.7732	369.11	85.38	0.4
0.7732	373.79	102.03	0.47

System: propan-2-ol + 1,3-dimethylimidazolium methylsulfate; phases: Liquid, Gas
Property: Vapor or sublimation pressure, kPa (Liquid); method: Ebulliometric method (Recirculating still)
Mole fraction of propan-2-ol	Temperature, K	Vapor or sublimation pressure, kPa	uncertainty
0.9684	315.24	15.21	0.13
0.9684	321.1	20.85	0.15
0.9684	327.01	28.12	0.2
0.9684	333.39	38.26	0.22
0.9684	339.89	51.62	0.28
0.9684	345.88	67.27	0.76
0.9684	352.3	88.11	0.43
0.9684	356.04	102.61	0.47
0.9684	313.88	13.94	0.12
0.9684	320.69	20.12	0.15
0.9684	326.76	27.39	0.19
0.9684	332.76	36.64	0.21
0.9684	339.43	49.94	0.28
0.9684	345.82	66.22	0.76
0.9684	351.62	84.66	0.42
0.9684	356.19	101.96	0.47
0.8883	315.02	14.59	0.12
0.8883	321.81	20.96	0.14
0.8883	326.56	26.66	0.16
0.8883	333.9	38	0.2
0.8883	340.77	52.1	0.26
0.8883	346.99	68.46	0.33
0.8883	352.76	87.07	0.41
0.8883	356.83	102.71	0.47
0.7732	315.43	13.81	0.12
0.7732	323.24	20.83	0.14
0.7732	328.66	27.41	0.17
0.7732	335.93	38.71	0.21
0.7732	342.09	51.24	0.26
0.7732	348.58	67.92	0.33
0.7732	354.32	86.15	0.4
0.7732	358.62	102.25	0.47

System: propan-1-ol + water + 1,3-dimethylimidazolium methylsulfate; phases: Liquid, Gas
Property: Vapor or sublimation pressure, kPa (Liquid); method: Ebulliometric method (Recirculating still)
Mole fraction of water	Mole fraction of propan-1-ol	Temperature, K	Vapor or sublimation pressure, kPa	uncertainty
0.9311	0.0305	322.15	14.57	0.12
0.9311	0.0305	330.25	21.82	0.14
0.9311	0.0305	334.93	27.22	0.16
0.9311	0.0305	342.48	38.5	0.2
0.9311	0.0305	349.53	51.71	0.26
0.9311	0.0305	355.69	66.2	0.32
0.9311	0.0305	361.88	84.72	0.39
0.9311	0.0305	366.13	99.78	0.45
0.8479	0.1072	319.68	15.08	0.13
0.8479	0.1072	326.24	21.02	0.14
0.8479	0.1072	331.78	27.45	0.16
0.8479	0.1072	338.87	38.04	0.2
0.8479	0.1072	345.12	49.72	0.25
0.8479	0.1072	352.45	67.42	0.32
0.8479	0.1072	358.54	85.16	0.39
0.8479	0.1072	362.73	99.72	0.45
0.7305	0.2154	319.31	14.82	0.12
0.7305	0.2154	325.94	20.78	0.14
0.7305	0.2154	332.12	28.04	0.17
0.7305	0.2154	338.85	38.24	0.2
0.7305	0.2154	344.94	50	0.25
0.7305	0.2154	351.97	66.17	0.32
0.7305	0.2154	358.76	86.76	0.4
0.7305	0.2154	362.44	99.82	0.45
0.5521	0.37967	319.31	14.2	0.12
0.5521	0.37967	327.4	21.4	0.14
0.5521	0.37967	331.26	25.8	0.16
0.5521	0.37967	339.56	37.89	0.2
0.5521	0.37967	345.62	49.45	0.25
0.5521	0.37967	352.75	66.75	0.32
0.5521	0.37967	358.45	83.49	0.39
0.5521	0.37967	363.21	100.25	0.45
0.2491	0.6589	323.82	15.16	0.13
0.2491	0.6589	329.49	20.2	0.14
0.2491	0.6589	335.27	26.67	0.16
0.2491	0.6589	342.44	37.05	0.2
0.2491	0.6589	348.44	48.15	0.24
0.2491	0.6589	355.72	64.95	0.31
0.2491	0.6589	362.56	85.59	0.4
0.2491	0.6589	366.17	98.48	0.45

System: propan-2-ol + water + 1,3-dimethylimidazolium methylsulfate; phases: Liquid, Gas
Property: Vapor or sublimation pressure, kPa (Liquid); method: Ebulliometric method (Recirculating still)
Mole fraction of water	Mole fraction of propan-2-ol	Temperature, K	Vapor or sublimation pressure, kPa	uncertainty
0.9311	0.0305	318.5	13.35	0.12
0.9311	0.0305	326.49	20.24	0.14
0.9311	0.0305	332.24	26.8	0.16
0.9311	0.0305	340.01	38.39	0.2
0.9311	0.0305	346.06	50.16	0.25
0.9311	0.0305	352.79	65.61	0.32
0.9311	0.0305	359.97	85.42	0.4
0.9311	0.0305	363.96	101.43	0.46
0.8479	0.1072	312.7	13.48	0.12
0.8479	0.1072	321	20.89	0.14
0.8479	0.1072	326.3	27.2	0.17
0.8479	0.1072	333.57	38.38	0.2
0.8479	0.1072	339.4	49.95	0.25
0.8479	0.1072	346.61	68.05	0.33
0.8479	0.1072	352.56	86.11	0.4
0.8479	0.1072	356.38	101.49	0.46
0.7305	0.2154	313.16	14.7	0.12
0.7305	0.2154	320.31	21.38	0.14
0.7305	0.2154	326.29	28.76	0.17
0.7305	0.2154	333.48	40.38	0.21
0.7305	0.2154	338.01	50.2	0.25
0.7305	0.2154	346.1	70.87	0.33
0.7305	0.2154	350.42	85.38	0.4
0.7305	0.2154	354.85	102.24	0.46
0.5521	0.3797	313.75	15.38	0.13
0.5521	0.3797	320.4	21.79	0.15
0.5521	0.3797	327.56	31.05	0.18
0.5521	0.3797	332.18	38.73	0.21
0.5521	0.3797	338.28	51.37	0.26
0.5521	0.3797	344.01	66.52	0.32
0.5521	0.3797	350.29	86.7	0.4
0.5521	0.3797	354.15	100.94	0.46
0.2487	0.6591	314.93	15.72	0.13
0.2487	0.6591	320.74	21.32	0.14
0.2487	0.6591	326.1	27.89	0.17
0.2487	0.6591	332.49	38.65	0.21
0.2487	0.6591	338.68	51.12	0.26
0.2487	0.6591	344.73	67.85	0.33
0.2487	0.6591	351.09	87.12	0.4
0.2487	0.6591	354.27	100.59	0.47
