Measured thermophysical data. Use of HS-SPME for analysis of the influence of salt concentration and temperature on the activity coefficient at infinite dilution of ethanol-water-salt systems.
Source: Fluid Phase Equilib., 2016, 10.1016/j.fluid.2016.08.030
Compound 1: ethanol, C2H6O, InChI=1S/C2H6O/c1-2-3/h3H,2H2,1H3, purity 99.59%
Compound 2: potassium chloride, ClK, InChI=1S/ClH.K/h1H;/q;+1/p-1, purity 98%
Compound 3: calcium chloride, CaCl2, InChI=1S/Ca.2ClH/h;2*1H/q+2;;/p-2, purity 98%
Compound 4: aluminum chloride, AlCl3, InChI=1S/Al.3ClH/h;3*1H/q+3;;;/p-3, purity 98%
Compound 5: water, H2O, InChI=1S/H2O/h1H2, purity 99.8%

System: ethanol + water; phases: Liquid
Fixed: Pressure, kPa = 101
Fixed: Mole fraction of ethanol = 0
Property: Activity coefficient of ethanol (Liquid); method: solid-phase micro extraction
Temperature, K	Activity coefficient of ethanol	uncertainty
323.15	5.17	0.56
333.15	4.77	0.52
343.15	4.37	0.47
353.15	4.11	0.45

System: ethanol + potassium chloride + water; phases: Liquid
Fixed: Pressure, kPa = 101
Fixed: Mole fraction of ethanol = 0
Property: Activity coefficient of ethanol (Liquid); method: solid-phase micro extraction
Temperature, K	Solvent: Molality, mol/kg of potassium chloride	Activity coefficient of ethanol	uncertainty
323.15	1.125	7.87	0.89
333.15	1.125	7.52	0.85
343.15	1.125	7.24	0.81
353.15	1.125	6.92	0.77
323.15	1.8	10.61	1.19
333.15	1.8	9.83	1.1
343.15	1.8	9.24	1.03
353.15	1.8	8.52	0.95
323.15	2.571	13.83	1.54
333.15	2.571	13.05	1.46
343.15	2.571	11.92	1.33
353.15	2.571	11.26	1.26

System: ethanol + water + calcium chloride; phases: Liquid
Fixed: Pressure, kPa = 101
Fixed: Mole fraction of ethanol = 0
Property: Activity coefficient of ethanol (Liquid); method: solid-phase micro extraction
Temperature, K	Solvent: Molality, mol/kg of calcium chloride	Activity coefficient of ethanol	uncertainty
323.15	1.125	9.02	1.02
333.15	1.125	8.47	0.95
343.15	1.125	8.07	0.9
353.15	1.125	7.65	0.85
323.15	1.8	11.89	1.34
333.15	1.8	10.86	1.22
343.15	1.8	10.05	1.13
353.15	1.8	9.52	1.06
323.15	2.571	16.36	1.84
333.15	2.571	15.01	1.69
343.15	2.571	13.54	1.52
353.15	2.571	12.33	1.37

System: ethanol + aluminum chloride + water; phases: Liquid
Fixed: Pressure, kPa = 101
Fixed: Mole fraction of ethanol = 0
Property: Activity coefficient of ethanol (Liquid); method: solid-phase micro extraction
Temperature, K	Solvent: Molality, mol/kg of aluminum chloride	Activity coefficient of ethanol	uncertainty
323.15	1.125	10.44	1.18
333.15	1.125	10.2	1.14
343.15	1.125	10.84	1.19
353.15	1.125	12.39	1.37
323.15	1.8	13.66	1.57
333.15	1.8	12.87	1.45
343.15	1.8	12.09	1.36
353.15	1.8	11.24	1.24
323.15	2.571	20.87	2.38
333.15	2.571	18.04	2.04
343.15	2.571	17.11	1.92
353.15	2.571	15.31	1.72
