Measured thermophysical data. Electrical conductivity of ammonium and phosphonium based deepeutectic solvents: Measurements and artificial intelligence-basedprediction
Source: Fluid Phase Equilib., 2013, 10.1016/j.fluid.2013.07.012
Compound 1: choline chloride, C5H14ClNO, InChI=1S/C5H14NO.ClH/c1-6(2,3)4-5-7;/h7H,4-5H2,1-3H3;1H/q+1;/p-1, purity 98%
Compound 2: 1,2-ethanediol, C2H6O2, InChI=1S/C2H6O2/c3-1-2-4/h3-4H,1-2H2, purity 99%
Compound 3: glycerol, C3H8O3, InChI=1S/C3H8O3/c4-1-3(6)2-5/h3-6H,1-2H2, purity 99%
Compound 4: 2-(diethylamino)ethanol hydrochloride, C6H16ClNO, InChI=1S/C6H15NO.ClH/c1-3-7(4-2)5-6-8;/h8H,3-6H2,1-2H3;1H, purity 98%
Compound 5: methyltriphenylphosphonium bromide, C19H18BrP, InChI=1S/C19H18P.BrH/c1-20(17-11-5-2-6-12-17,18-13-7-3-8-14-18)19-15-9-4-10-16-19;/h2-16H,1H3;1H/q+1;/p-1, purity 98%

System: choline chloride + 1,2-ethanediol; phases: Liquid, Crystal
Fixed: Pressure, kPa = 101
Property: Solid-liquid equilibrium temperature, K (Liquid); method: DTA
Mole fraction of choline chloride	Solid-liquid equilibrium temperature, K	uncertainty
0.36	239.83	2.03
0.34	207.14	2.03
0.28	277.3	2

System: choline chloride + 1,2-ethanediol; phases: Liquid
Fixed: Pressure, kPa = 101
Property: Electrical conductivity, S/m (Liquid); method: Direct current cell with electrodes
Temperature, K	Mole fraction of choline chloride	Electrical conductivity, S/m	uncertainty
298.15	0.36	0.6801	0.0094
303.15	0.36	0.9138	0.0081
308.15	0.36	1.0857	0.0076
313.15	0.36	1.2935	0.0079
318.15	0.36	1.4794	0.0068
323.15	0.36	1.6335	0.0072
328.15	0.36	1.8393	0.0076
333.15	0.36	2.0102	0.0068
338.15	0.36	2.1773	0.0068
343.15	0.36	2.3474	0.006
348.15	0.36	2.475	0.005
353.15	0.36	2.6043	0.0052
298.15	0.34	0.7332	0.0118
303.15	0.34	1.0191	0.0082
308.15	0.34	1.1407	0.0068
313.15	0.34	1.3553	0.009
318.15	0.34	1.5895	0.0073
323.15	0.34	1.7185	0.0087
328.15	0.34	2.0227	0.0116
333.15	0.34	2.2991	0.008
338.15	0.34	2.42	0.01
343.15	0.34	2.5599	0.0058
348.15	0.34	2.7065	0.005
353.15	0.34	2.8072	0.0009
298.15	0.28	0.8317	0.0094
303.15	0.28	1.0665	0.0075
308.15	0.28	1.207	0.007
313.15	0.28	1.4133	0.009
318.15	0.28	1.6558	0.0077
323.15	0.28	1.7977	0.0094
328.15	0.28	2.1257	0.0126
333.15	0.28	2.4247	0.0078
338.15	0.28	2.5152	0.0041
343.15	0.28	2.6275	0.0053
348.15	0.28	2.7799	0.0049
353.15	0.28	2.869	0.004

System: glycerol + choline chloride; phases: Liquid, Crystal
Fixed: Pressure, kPa = 101
Property: Solid-liquid equilibrium temperature, K (Liquid); method: DTA
Mole fraction of choline chloride	Solid-liquid equilibrium temperature, K	uncertainty
0.5	281.18	2.03
0.34	237	2
0.25	240.5	2

System: glycerol + choline chloride; phases: Liquid
Fixed: Pressure, kPa = 101
Property: Electrical conductivity, S/m (Liquid); method: Direct current cell with electrodes
Temperature, K	Mole fraction of choline chloride	Electrical conductivity, S/m	uncertainty
298.15	0.5	0.1929	0.0012
303.15	0.5	0.2191	0.0025
308.15	0.5	0.3161	0.003
313.15	0.5	0.368	0.003
318.15	0.5	0.4603	0.0044
323.15	0.5	0.5864	0.0042
328.15	0.5	0.6668	0.0039
333.15	0.5	0.7805	0.0047
338.15	0.5	0.898	0.004
343.15	0.5	0.9863	0.0052
348.15	0.5	1.1548	0.0062
353.15	0.5	1.2954	0.0057
298.15	0.34	0.1749	0.0013
303.15	0.34	0.1951	0.0017
308.15	0.34	0.2549	0.0022
313.15	0.34	0.3004	0.0029
318.15	0.34	0.3991	0.0043
323.15	0.34	0.512	0.004
328.15	0.34	0.6046	0.0042
333.15	0.34	0.7187	0.0043
338.15	0.34	0.816	0.004
343.15	0.34	0.8955	0.005
348.15	0.34	1.0629	0.0065
353.15	0.34	1.2191	0.0047
298.15	0.25	0.1463	0.0007
303.15	0.25	0.1553	0.0013
308.15	0.25	0.2035	0.0021
313.15	0.25	0.257	0.002
318.15	0.25	0.3112	0.0026
323.15	0.25	0.3816	0.0035
328.15	0.25	0.4811	0.0039
333.15	0.25	0.5757	0.0039
338.15	0.25	0.6717	0.0041
343.15	0.25	0.7805	0.0052
348.15	0.25	0.9286	0.006
353.15	0.25	1.08	0.01

System: 1,2-ethanediol + 2-(diethylamino)ethanol hydrochloride; phases: Liquid, Crystal
Fixed: Pressure, kPa = 101
Property: Solid-liquid equilibrium temperature, K (Liquid); method: DTA
Mole fraction of 2-(diethylamino)ethanol hydrochloride	Solid-liquid equilibrium temperature, K	uncertainty
0.28	240.03	2.03
0.25	250.9	2
0.2	251.48	2.03

System: 1,2-ethanediol + 2-(diethylamino)ethanol hydrochloride; phases: Liquid
Fixed: Pressure, kPa = 101
Property: Electrical conductivity, S/m (Liquid); method: Direct current cell with electrodes
Temperature, K	Mole fraction of 2-(diethylamino)ethanol hydrochloride	Electrical conductivity, S/m	uncertainty
298.15	0.34	0.512	0.006
303.15	0.34	0.6627	0.0057
308.15	0.34	0.794	0.005
313.15	0.34	0.9283	0.0061
318.15	0.34	1.0955	0.0065
323.15	0.34	1.2539	0.0068
328.15	0.34	1.433	0.007
333.15	0.34	1.6161	0.0069
338.15	0.34	1.7779	0.0065
343.15	0.34	1.9417	0.0072
348.15	0.34	2.1347	0.0074
353.15	0.34	2.3097	0.007
298.15	0.25	0.5429	0.0057
303.15	0.25	0.6878	0.0058
308.15	0.25	0.8305	0.0053
313.15	0.25	0.9486	0.0061
318.15	0.25	1.1339	0.0073
323.15	0.25	1.3147	0.0069
328.15	0.25	1.4769	0.0071
333.15	0.25	1.6664	0.0073
338.15	0.25	1.8395	0.0065
343.15	0.25	1.99	0.01
348.15	0.25	2.1924	0.0076
353.15	0.25	2.3667	0.0071
298.15	0.2	0.5661	0.0054
303.15	0.2	0.6994	0.0052
308.15	0.2	0.8245	0.0054
313.15	0.2	0.9699	0.0067
318.15	0.2	1.1579	0.0074
323.15	0.2	1.3408	0.007
328.15	0.2	1.5086	0.0075
333.15	0.2	1.7137	0.0074
338.15	0.2	1.8755	0.0063
343.15	0.2	2.0286	0.007
348.15	0.2	2.2262	0.0076
353.15	0.2	2.4053	0.0072

System: glycerol + 2-(diethylamino)ethanol hydrochloride; phases: Liquid, Crystal
Fixed: Pressure, kPa = 101
Property: Solid-liquid equilibrium temperature, K (Liquid); method: DTA
Mole fraction of 2-(diethylamino)ethanol hydrochloride	Solid-liquid equilibrium temperature, K	uncertainty
0.34	271.82	2.03
0.25	274.85	2.03
0.2	275.12	2.03

System: glycerol + 2-(diethylamino)ethanol hydrochloride; phases: Liquid
Fixed: Pressure, kPa = 101
Property: Electrical conductivity, S/m (Liquid); method: Direct current cell with electrodes
Temperature, K	Mole fraction of 2-(diethylamino)ethanol hydrochloride	Electrical conductivity, S/m	uncertainty
298.15	0.34	0.075	0.002
303.15	0.34	0.1177	0.0019
308.15	0.34	0.1635	0.0019
313.15	0.34	0.2067	0.0022
318.15	0.34	0.2716	0.0027
323.15	0.34	0.3381	0.0024
328.15	0.34	0.3903	0.0031
333.15	0.34	0.4878	0.0038
338.15	0.34	0.5754	0.0033
343.15	0.34	0.6521	0.004
348.15	0.34	0.7754	0.0052
353.15	0.34	0.9109	0.0055
298.15	0.25	0.0602	0.0016
303.15	0.25	0.0958	0.0011
308.15	0.25	0.1041	0.0013
313.15	0.25	0.1562	0.0022
318.15	0.25	0.2112	0.0022
323.15	0.25	0.2637	0.0027
328.15	0.25	0.3426	0.003
333.15	0.25	0.4086	0.003
338.15	0.25	0.4916	0.0034
343.15	0.25	0.5748	0.0032
348.15	0.25	0.6474	0.0028
353.15	0.25	0.71	0.01
298.15	0.2	0.0487	0.0013
303.15	0.2	0.078	0.001
308.15	0.2	0.1099	0.0014
313.15	0.2	0.1387	0.0017
318.15	0.2	0.1878	0.002
323.15	0.2	0.2357	0.0018
328.15	0.2	0.2716	0.0019
333.15	0.2	0.3246	0.0026
338.15	0.2	0.3962	0.0029
343.15	0.2	0.4646	0.0028
348.15	0.2	0.5335	0.003
353.15	0.2	0.6095	0.0031

System: 1,2-ethanediol + methyltriphenylphosphonium bromide; phases: Liquid, Crystal
Fixed: Pressure, kPa = 101
Property: Solid-liquid equilibrium temperature, K (Liquid); method: DTA
Mole fraction of methyltriphenylphosphonium bromide	Solid-liquid equilibrium temperature, K	uncertainty
0.25	226.9	2
0.2	223.8	2
0.16	224.6	2

System: 1,2-ethanediol + methyltriphenylphosphonium bromide; phases: Liquid
Fixed: Pressure, kPa = 101
Property: Electrical conductivity, S/m (Liquid); method: Direct current cell with electrodes
Temperature, K	Mole fraction of methyltriphenylphosphonium bromide	Electrical conductivity, S/m	uncertainty
298.15	0.25	0.1092	0.0021
303.15	0.25	0.1598	0.0018
308.15	0.25	0.19136	0.0019
313.15	0.25	0.2502	0.0022
318.15	0.25	0.2964	0.0016
323.15	0.25	0.3265	0.0028
328.15	0.25	0.4307	0.0038
333.15	0.25	0.5129	0.003
338.15	0.25	0.5797	0.0036
343.15	0.25	0.6923	0.0032
348.15	0.25	0.7372	0.0025
353.15	0.25	0.8114	0.003
298.15	0.2	0.1557	0.0026
303.15	0.2	0.2193	0.0023
308.15	0.2	0.2649	0.0022
313.15	0.2	0.3246	0.0025
318.15	0.2	0.3858	0.0024
323.15	0.2	0.4405	0.0031
328.15	0.2	0.5395	0.0037
333.15	0.2	0.6221	0.0041
338.15	0.2	0.7423	0.004
343.15	0.2	0.8192	0.0034
348.15	0.2	0.9074	0.0037
353.15	0.2	1.0027	0.0033
298.15	0.16	0.1942	0.0026
303.15	0.16	0.257	0.002
308.15	0.16	0.3103	0.0026
313.15	0.16	0.3845	0.0027
318.15	0.16	0.4437	0.0025
323.15	0.16	0.5072	0.0037
328.15	0.16	0.6279	0.0041
333.15	0.16	0.711	0.004
338.15	0.16	0.8169	0.0048
343.15	0.16	0.9496	0.0043
348.15	0.16	1.031	0.003
353.15	0.16	1.1196	0.0036

System: glycerol + methyltriphenylphosphonium bromide; phases: Liquid, Crystal
Fixed: Pressure, kPa = 101
Property: Solid-liquid equilibrium temperature, K (Liquid); method: DTA
Mole fraction of methyltriphenylphosphonium bromide	Solid-liquid equilibrium temperature, K	uncertainty
0.34	276.9	2
0.25	267.6	2
0.2	288.9	2

System: glycerol + methyltriphenylphosphonium bromide; phases: Liquid
Fixed: Pressure, kPa = 101
Property: Electrical conductivity, S/m (Liquid); method: Direct current cell with electrodes
Temperature, K	Mole fraction of methyltriphenylphosphonium bromide	Electrical conductivity, S/m	uncertainty
298.15	0.34	0.0062	0.0006
303.15	0.34	0.0124	0.0006
308.15	0.34	0.0186	0.0006
313.15	0.34	0.0277	0.0006
318.15	0.34	0.0405	0.0006
323.15	0.34	0.0496	0.0006
328.15	0.34	0.0701	0.0006
333.15	0.34	0.0858	0.0006
338.15	0.34	0.116	0.001
343.15	0.34	0.1493	0.0006
348.15	0.34	0.1811	0.0006
353.15	0.34	0.2154	0.0006
298.15	0.25	0.0103	0.0006
303.15	0.25	0.0172	0.0006
308.15	0.25	0.0319	0.0006
313.15	0.25	0.0394	0.0006
318.15	0.25	0.0549	0.0006
323.15	0.25	0.0719	0.0006
328.15	0.25	0.0927	0.0006
333.15	0.25	0.1124	0.0006
338.15	0.25	0.1487	0.0006
343.15	0.25	0.1778	0.0006
348.15	0.25	0.2196	0.0006
353.15	0.25	0.2599	0.0007
298.15	0.2	0.0116	0.0006
303.15	0.2	0.0198	0.0006
308.15	0.2	0.037	0.001
313.15	0.2	0.041	0.001
318.15	0.2	0.0607	0.0006
323.15	0.2	0.0816	0.0006
328.15	0.2	0.0965	0.0006
333.15	0.2	0.1233	0.0006
338.15	0.2	0.1608	0.0006
343.15	0.2	0.1971	0.0007
348.15	0.2	0.2874	0.0007
353.15	0.2	0.3594	0.0007
