Measured thermophysical data. Vapour-liquid equilibrium data for the hydrogen sulphide(H2S) + carbon dioxide (CO2) system at temperatures from 258 to 313 K
Source: Fluid Phase Equilib., 2013, 10.1016/j.fluid.2013.07.050
Compound 1: carbon dioxide, CO2, InChI=1S/CO2/c2-1-3
Compound 2: hydrogen sulfide, H2S, InChI=1S/H2S/h1H2

System: carbon dioxide + hydrogen sulfide; phases: Liquid, Gas
Property: Vapor or sublimation pressure, kPa (Liquid); method: Closed cell (Static) method
Temperature, K	Mole fraction of carbon dioxide	Vapor or sublimation pressure, kPa	uncertainty
313.02	0	2920	10
313.02	0.0489	3434	122
313.02	0.0983	3914	107
313.02	0.1655	4472	99
313.02	0.2226	4930	89
313.02	0.3028	5475	83
293.47	0	1781	7
293.47	0.0315	2049	117
293.47	0.0703	2350	72
293.47	0.1397	2815	74
293.47	0.2226	3280	51
293.47	0.3823	4000	53
293.47	0.4415	4205	47
293.47	0.6434	4969	44
293.47	0.7555	5264	36
273.15	0	1030	5
273.15	0.0541	1375	69
273.15	0.126	1722	40
273.15	0.292	2246	35
273.15	0.3959	2484	28
273.15	0.5897	2899	27
258.41	0	644	5
258.41	0.0854	1002	43
258.41	0.0969	1043	43
258.41	0.1715	1254	29
258.41	0.2888	1504	23
258.41	0.5364	1923	22

System: carbon dioxide + hydrogen sulfide; phases: Gas, Liquid
Property: Mole fraction of carbon dioxide (Gas); method: Chromatography
Temperature, K	Mole fraction of carbon dioxide	Mole fraction of carbon dioxide	uncertainty
313.02	0	0	
313.02	0.0489	0.1482	0.1017
313.02	0.0983	0.2483	0.0719
313.02	0.1655	0.356	0.0499
313.02	0.3028	0.5008	0.0441
293.47	0	0	
293.47	0.0315	0.129	0.0695
293.47	0.0703	0.2414	0.1044
293.47	0.1397	0.3728	0.0617
293.47	0.2226	0.4727	0.0358
293.47	0.3823	0.5841	0.0315
293.47	0.4415	0.6322	0.0284
293.47	0.6434	0.7541	0.0273
293.47	0.7555	0.8241	0.0278
273.15	0	0	
273.15	0.0541	0.2346	0.1305
273.15	0.126	0.4006	0.0559
273.15	0.292	0.5878	0.0398
273.15	0.3959	0.6506	0.0252
273.15	0.5897	0.7522	0.0243
258.41	0	0	
258.41	0.0854	0.3673	0.1208
258.41	0.0969	0.395	0.123
258.41	0.1715	0.5157	0.0481
258.41	0.2888	0.6222	0.0329
258.41	0.5364	0.7973	0.0308
