Measured thermophysical data. Solubility of iodopropynyl butylcarbamate in supercritical carbon dioxide
Source: Fluid Phase Equilib., 2008, 10.1016/j.fluid.2008.05.010
Compound 1: carbon dioxide, CO2, InChI=1S/CO2/c2-1-3
Compound 2: iodopropynyl butylcarbamate, C8H12INO2, InChI=1S/C8H12INO2/c1-2-3-6-10-8(11)12-7-4-5-9/h2-3,5-6H2,1H3,(H,10,11)
Compound 3: phenanthrene, C14H10, InChI=1S/C14H10/c1-3-7-13-11(5-1)9-10-12-6-2-4-8-14(12)13/h1-10H

System: carbon dioxide + iodopropynyl butylcarbamate; phases: Fluid (supercritical or subcritical phases), Crystal
Property: Mole fraction of iodopropynyl butylcarbamate (Fluid (supercritical or subcritical phases)); method: Varible volume high-pressure cell
Temperature, K	Pressure, kPa	Mole fraction of iodopropynyl butylcarbamate	uncertainty
313.15	8760	0.0012	0.0001
313.15	10260	0.0019	0.0002
313.15	12860	0.0025	0.0003
313.15	15610	0.0031	0.0003
313.15	16430	0.0034	0.0003
313.15	18730	0.0037	0.0004
313.15	21560	0.0039	0.0004
313.15	24560	0.0041	0.0004
313.15	34150	0.0047	0.0005
323.15	10810	0.0012	0.0001
323.15	12060	0.0019	0.0002
323.15	13850	0.0025	0.0003
323.15	15640	0.0031	0.0003
323.15	17420	0.0034	0.0003
323.15	18960	0.0037	0.0004
323.15	20470	0.0039	0.0004
323.15	21560	0.0041	0.0004
323.15	26850	0.0047	0.0005
333.15	12030	0.0012	0.0001
333.15	13550	0.0019	0.0002
333.15	14540	0.0025	0.0003
333.15	15410	0.0031	0.0003
333.15	16850	0.0034	0.0003
333.15	17560	0.0037	0.0004
333.15	18210	0.0039	0.0004
333.15	19020	0.0041	0.0004
333.15	21580	0.0047	0.0005

System: phenanthrene + carbon dioxide; phases: Fluid (supercritical or subcritical phases), Crystal
Fixed: Temperature, K = 308.15
Property: Mole fraction of carbon dioxide (Fluid (supercritical or subcritical phases)); method: Once cloud point was found, solubility was calculated using the known amount of solid loaded into vessel along with the amount of CO2 present.
Pressure, kPa	Mole fraction of carbon dioxide	uncertainty
11300	0.00075	5e-05
13100	0.00102	6e-05
14800	0.00128	8e-05
16800	0.00153	9e-05
18700	0.00168	0.0001
20800	0.00184	0.00011
22700	0.00204	0.00012
26200	0.00221	0.00013
28800	0.00235	0.00014
30700	0.00248	0.00015
33200	0.00254	0.00015
