Measured thermophysical data. Activity and thermodynamic parameters of some surfactants adsorption at the water-air interface
Source: Fluid Phase Equilib., 2012, 10.1016/j.fluid.2012.01.014
Compound 1: sodium dodecyl sulfate, C12H25NaO4S, InChI=1S/C12H26O4S.Na/c1-2-3-4-5-6-7-8-9-10-11-12-16-17(13,14)15;/h2-12H2,1H3,(H,13,14,15);/q;+1/p-1, purity 98%
Compound 2: sodium hexadecylsulfonate, C16H33NaO3S, InChI=1S/C16H34O3S.Na/c1-2-3-4-5-6-7-8-9-10-11-12-13-14-15-16-20(17,18)19;/h2-16H2,1H3,(H,17,18,19);/q;+1/p-1, purity 98%
Compound 3: N,N,N-trimethyl-1-hexadecanaminium bromide, C19H42BrN, InChI=1S/C19H42N.BrH/c1-5-6-7-8-9-10-11-12-13-14-15-16-17-18-19-20(2,3)4;/h5-19H2,1-4H3;1H/q+1;/p-1, purity 98%
Compound 4: 1-hexadecylpyridinium bromide, C21H38BrN, InChI=1S/C21H38N.BrH/c1-2-3-4-5-6-7-8-9-10-11-12-13-14-16-19-22-20-17-15-18-21-22;/h15,17-18,20-21H,2-14,16,19H2,1H3;1H/q+1;/p-1, purity 98%
Compound 5: sodium laurylsarcosinate, C15H30NNaO2, InChI=1S/C15H31NO2.Na/c1-3-4-5-6-7-8-9-10-11-12-13-16(2)14-15(17)18;/h3-14H2,1-2H3,(H,17,18);/q;+1/p-1, purity 94%
Compound 6: dodecyl ethyl dimethylammonium bromide, C16H36BrN, InChI=1S/C16H36N.BrH/c1-5-7-8-9-10-11-12-13-14-15-16-17(3,4)6-2;/h5-16H2,1-4H3;1H/q+1;/p-1, purity 99%
Compound 7: tetradecyltrimethylammonium bromide, C17H38BrN, InChI=1S/C17H38N.BrH/c1-5-6-7-8-9-10-11-12-13-14-15-16-17-18(2,3)4;/h5-17H2,1-4H3;1H/q+1;/p-1, purity 98%
Compound 8: benzenemethanaminium, N-dodecyl-N,N-dimethyl, bromide, C21H38BrN, InChI=1S/C21H38N.BrH/c1-4-5-6-7-8-9-10-11-12-16-19-22(2,3)20-21-17-14-13-15-18-21;/h13-15,17-18H,4-12,16,19-20H2,1-3H3;1H/q+1;/p-1, purity 99%
Compound 9: water, H2O, InChI=1S/H2O/h1H2

System: water; phases: Liquid, Air at 1 atmosphere
Property: Surface tension liquid-gas, N/m (Liquid); method: Ring tensiometer
Temperature, K	Surface tension liquid-gas, N/m	uncertainty
293	0.0728	0.00131
303	0.0712	0.0013
313	0.0696	0.00129

System: sodium dodecyl sulfate + water; phases: Liquid, Air at 1 atmosphere
Property: Surface tension liquid-gas, N/m (Liquid); method: Ring tensiometer
Temperature, K	Amount concentration (molarity), mol/dm3 of sodium dodecyl sulfate	Surface tension liquid-gas, N/m	uncertainty
293	0	0.0728	0.00131
293	1e-08	0.0728	0.00131
293	1e-07	0.0729	0.00131
293	1e-06	0.07279	0.00131
293	3.98e-06	0.07278	0.00131
293	7.94e-06	0.07276	0.00131
293	1e-05	0.07275	0.00131
293	5.01e-05	0.07269	0.00131
293	6.31e-05	0.07246	0.00131
293	0.0001	0.07224	0.00131
293	0.0002	0.07162	0.0013
293	0.000631	0.0681	0.00128
293	0.000794	0.06625	0.00127
293	0.001	0.06432	0.00125
293	0.002	0.05743	0.00121
293	0.00398	0.04972	0.00117
293	0.00631	0.04337	0.00113
293	0.00794	0.03888	0.00111
293	0.00832	0.0384	0.00111
293	0.01	0.0384	0.00111
303	0	0.0712	0.0013
303	1e-08	0.0712	0.0013
303	1e-07	0.07119	0.0013
303	1e-06	0.07117	0.0013
303	3.98e-06	0.07115	0.0013
303	7.94e-06	0.07114	0.0013
303	1e-05	0.071	0.0013
303	5.01e-05	0.07081	0.0013
303	6.31e-05	0.07059	0.0013
303	0.0001	0.07001	0.00129
303	0.0002	0.06929	0.00129
303	0.000631	0.06662	0.00127
303	0.000794	0.06521	0.00126
303	0.001	0.06387	0.00125
303	0.002	0.05702	0.00121
303	0.00398	0.04952	0.00117
303	0.00631	0.04298	0.00113
303	0.00794	0.03834	0.00111
303	0.00832	0.03821	0.00111
303	0.01	0.03821	0.00111
313	0	0.0696	0.00129
313	1e-08	0.0696	0.00129
313	1e-07	0.0696	0.00129
313	1e-06	0.06958	0.00129
313	3.98e-06	0.06956	0.00129
313	7.94e-06	0.06953	0.00129
313	1e-05	0.06951	0.00129
313	5.01e-05	0.06948	0.00129
313	6.31e-05	0.06927	0.00129
313	0.0001	0.06905	0.00128
313	0.0002	0.06785	0.00128
313	0.000631	0.06514	0.00126
313	0.000794	0.06401	0.00125
313	0.001	0.06273	0.00124
313	0.002	0.05594	0.0012
313	0.00398	0.04845	0.00116
313	0.00631	0.0417	0.00113
313	0.00794	0.03691	0.0011
313	0.00832	0.03642	0.0011
313	0.01	0.03642	0.0011

System: water + sodium hexadecylsulfonate; phases: Liquid, Air at 1 atmosphere
Property: Surface tension liquid-gas, N/m (Liquid); method: Ring tensiometer
Temperature, K	Amount concentration (molarity), mol/dm3 of sodium hexadecylsulfonate	Surface tension liquid-gas, N/m	uncertainty
293	0	0.0728	0.00131
293	1e-08	0.0728	0.00131
293	1e-07	0.0728	0.00131
293	1e-06	0.0727	0.00131
293	3.98e-06	0.0726	0.00131
293	5.01e-06	0.0725	0.00131
293	6.03e-06	0.0724	0.00131
293	7.94e-06	0.0723	0.00131
293	1e-05	0.0722	0.00131
293	2e-05	0.0716	0.0013
293	6.03e-05	0.069	0.00128
293	0.0001	0.0662	0.00127
293	0.0002	0.05915	0.00122
293	0.000603	0.04323	0.00113
293	0.000741	0.04028	0.00112
303	0	0.0712	0.0013
303	1e-08	0.0712	0.0013
303	1e-07	0.07119	0.0013
303	1e-06	0.07115	0.0013
303	3.98e-06	0.07099	0.0013
303	5.01e-06	0.07089	0.0013
303	6.03e-06	0.07077	0.0013
303	7.94e-06	0.07069	0.0013
303	1e-05	0.07054	0.00129
303	2e-05	0.06998	0.00129
303	6.03e-05	0.06849	0.00128
303	0.0001	0.06554	0.00126
303	0.0002	0.05894	0.00122
303	0.000603	0.04317	0.00113
303	0.000741	0.04007	0.00112
303	0.000891	0.03859	0.00111
313	0	0.0696	0.00129
313	1e-08	0.0696	0.00129
313	1e-07	0.0696	0.00129
313	1e-06	0.06955	0.00129
313	3.98e-06	0.06942	0.00129
313	5.01e-06	0.06931	0.00129
313	6.03e-06	0.06921	0.00129
313	7.94e-06	0.06909	0.00129
313	1e-05	0.06899	0.00128
313	2e-05	0.06841	0.00128
313	6.03e-05	0.06704	0.00127
313	0.0001	0.06415	0.00125
313	0.0002	0.05884	0.00122
313	0.000603	0.04312	0.00113
313	0.000741	0.03997	0.00112
313	0.000891	0.03855	0.00111

System: N,N,N-trimethyl-1-hexadecanaminium bromide + water; phases: Liquid, Air at 1 atmosphere
Property: Surface tension liquid-gas, N/m (Liquid); method: Ring tensiometer
Temperature, K	Amount concentration (molarity), mol/dm3 of N,N,N-trimethyl-1-hexadecanaminium bromide	Surface tension liquid-gas, N/m	uncertainty
293	0	0.0728	0.00131
293	1e-08	0.07279	0.00131
293	1e-07	0.07278	0.00131
293	5.01e-07	0.07273	0.00131
293	1e-06	0.07266	0.00131
293	2e-06	0.07254	0.00131
293	3.98e-06	0.07231	0.00131
293	6.31e-06	0.0721	0.0013
293	7.94e-06	0.07191	0.0013
293	1e-05	0.07173	0.0013
293	2e-05	0.07097	0.0013
293	3.02e-05	0.07031	0.00129
293	3.98e-05	0.06972	0.00129
293	5.01e-05	0.0692	0.0013
293	6.03e-05	0.06881	0.00128
293	7.08e-05	0.06848	0.00128
293	7.94e-05	0.068063	0.001278
293	9.12e-05	0.06715	0.00127
293	0.0001	0.06641	0.00127
293	0.0002	0.06086	0.00123
293	0.000302	0.05474	0.00119
293	0.000398	0.05039	0.00117
293	0.000501	0.04702	0.00115
293	0.000603	0.04427	0.00114
293	0.000708	0.04194	0.00113
293	0.000794	0.03992	0.00112
293	0.000891	0.03815	0.00111
293	0.000912	0.0379	0.0011
293	0.001	0.0379	0.0011
293	0.002	0.0378	0.0011
303	0	0.0712	0.0013
303	1e-08	0.0712	0.0013
303	1e-07	0.07119	0.0013
303	5.01e-07	0.07116	0.0013
303	1e-06	0.07111	0.0013
303	2e-06	0.07103	0.0013
303	3.98e-06	0.07086	0.0013
303	6.31e-06	0.07069	0.0013
303	7.94e-06	0.07053	0.00129
303	1e-05	0.07037	0.00129
303	2e-05	0.06962	0.00129
303	3.02e-05	0.06893	0.00128
303	3.98e-05	0.0683	0.00128
303	5.01e-05	0.06772	0.00128
303	6.03e-05	0.06718	0.00127
303	7.08e-05	0.06667	0.00127
303	7.94e-05	0.0662	0.00127
303	9.12e-05	0.06575	0.00126
303	0.0001	0.06532	0.00126
303	0.0002	0.06052	0.00123
303	0.000302	0.05435	0.00119
303	0.000398	0.05002	0.00117
303	0.000501	0.04683	0.00115
303	0.000603	0.04412	0.00114
303	0.000708	0.04182	0.00113
303	0.000794	0.03975	0.00112
303	0.000891	0.03801	0.00111
303	0.000912	0.0378	0.00111
303	0.001	0.0372	0.0011
303	0.002	0.03714	0.0011
313	0	0.0696	0.00129
313	1e-08	0.0696	0.00129
313	1e-07	0.06959	0.00129
313	5.01e-07	0.06956	0.00129
313	1e-06	0.06952	0.00129
313	2e-06	0.06945	0.00129
313	3.98e-06	0.0693	0.00129
313	6.31e-06	0.06916	0.00129
313	7.94e-06	0.06902	0.00128
313	1e-05	0.06888	0.00128
313	2e-05	0.06822	0.00128
313	3.02e-05	0.06761	0.00128
313	3.98e-05	0.06704	0.00127
313	5.01e-05	0.06651	0.00127
313	6.03e-05	0.06601	0.00126
313	7.08e-05	0.06554	0.00126
313	7.94e-05	0.0651	0.00126
313	9.12e-05	0.06468	0.00126
313	0.0001	0.06428	0.00125
313	0.0002	0.05945	0.00122
313	0.000302	0.05395	0.00119
313	0.000398	0.04972	0.00117
313	0.000501	0.04615	0.00115
313	0.000603	0.04353	0.00113
313	0.000708	0.04122	0.00112
313	0.000794	0.039	0.00111
313	0.000891	0.03725	0.0011
313	0.000912	0.037	0.0011
313	0.001	0.0364	0.0011
313	0.002	0.0364	0.0011

System: 1-hexadecylpyridinium bromide + water; phases: Liquid, Air at 1 atmosphere
Property: Surface tension liquid-gas, N/m (Liquid); method: Ring tensiometer
Temperature, K	Amount concentration (molarity), mol/dm3 of 1-hexadecylpyridinium bromide	Surface tension liquid-gas, N/m	uncertainty
293	0	0.0728	0.00131
293	1e-08	0.0728	0.00131
293	5.01e-08	0.0728	0.00131
293	1e-07	0.07275	0.00131
293	5.01e-07	0.0727	0.00131
293	1e-06	0.0726	0.00131
293	5.01e-06	0.0717	0.0013
293	1e-05	0.0711	0.0013
293	2e-05	0.0698	0.00129
293	5.01e-05	0.0674	0.00127
293	0.0001	0.063	0.00125
293	0.0002	0.0546	0.0012
293	0.000398	0.0455	0.00115
293	0.000631	0.0448	0.00114
293	0.000794	0.0453	0.00114
293	0.001	0.0444	0.00114
293	0.002	0.044	0.00114
293	0.00398	0.0445	0.00114
293	0.00603	0.0441	0.00114
293	0.00794	0.0432	0.00113
293	0.01	0.0432	0.00113
293	0.0302	0.0394	0.00111
293	0.0603	0.0388	0.00111
303	0	0.0712	0.0013
303	1e-08	0.0712	0.0013
303	5.01e-08	0.07119	0.0013
303	1e-07	0.07118	0.0013
303	5.01e-07	0.07113	0.0013
303	1e-06	0.07107	0.0013
303	5.01e-06	0.07056	0.00129
303	1e-05	0.06997	0.00129
303	2e-05	0.06891	0.00128
303	5.01e-05	0.06638	0.00127
303	0.0001	0.0618	0.00124
303	0.0002	0.05341	0.00119
303	0.000398	0.04473	0.00114
303	0.000631	0.04403	0.00114
303	0.000794	0.04404	0.00114
303	0.001	0.04392	0.00114
303	0.002	0.04381	0.00114
303	0.00398	0.04379	0.00114
303	0.00603	0.04362	0.00113
303	0.00794	0.04283	0.00113
303	0.01	0.04275	0.00113
303	0.0302	0.03889	0.00111
303	0.0603	0.03802	0.00111
313	0	0.0696	0.00129
313	1e-08	0.0696	0.00129
313	5.01e-08	0.06959	0.00129
313	1e-07	0.06957	0.00129
313	5.01e-07	0.06954	0.00129
313	1e-06	0.06949	0.00129
313	5.01e-06	0.06904	0.00128
313	1e-05	0.06852	0.00128
313	2e-05	0.06758	0.00127
313	5.01e-05	0.06526	0.00126
313	0.0001	0.06065	0.00123
313	0.0002	0.05301	0.00119
313	0.000398	0.04456	0.00114
313	0.000631	0.04387	0.00114
313	0.000794	0.04386	0.00114
313	0.001	0.04375	0.00113
313	0.002	0.04368	0.00113
313	0.00398	0.04364	0.00113
313	0.00603	0.04353	0.00113
313	0.00794	0.04274	0.00113
313	0.01	0.04265	0.00113
313	0.0302	0.0389	0.00111
313	0.0603	0.03795	0.00111

System: sodium laurylsarcosinate + water; phases: Liquid, Air at 1 atmosphere
Property: Surface tension liquid-gas, N/m (Liquid); method: Ring tensiometer
Temperature, K	Amount concentration (molarity), mol/dm3 of sodium laurylsarcosinate	Surface tension liquid-gas, N/m	uncertainty
293	0	0.0728	0.00131
293	1e-07	0.0724	0.00131
293	5.01e-07	0.0722	0.00131
293	1e-06	0.072	0.0013
293	5.01e-06	0.0716	0.0013
293	1e-05	0.0714	0.0013
293	5.01e-05	0.069	0.00128
293	0.0001	0.0655	0.00126
293	0.000501	0.0486	0.00116
293	0.000631	0.0463	0.00115
293	0.000708	0.0449	0.00114
293	0.000794	0.0436	0.00113
293	0.000891	0.0423	0.00113
293	0.001	0.0411	0.00112
293	0.002	0.0329	0.00109
293	0.00316	0.0283	0.00107
293	0.00398	0.0269	0.00106
293	0.00501	0.0265	0.00106
293	0.01	0.0265	0.00106
303	0	0.0712	0.0013
303	1e-07	0.07119	0.0013
303	5.01e-07	0.07115	0.0013
303	1e-06	0.0711	0.0013
303	5.01e-06	0.07072	0.0013
303	1e-05	0.07028	0.00129
303	5.01e-05	0.06757	0.00127
303	0.0001	0.06533	0.00126
303	0.000501	0.04846	0.00116
303	0.000631	0.0461	0.00115
303	0.000708	0.04403	0.00114
303	0.000794	0.04291	0.00113
303	0.000891	0.04185	0.00113
303	0.001	0.04033	0.00112
303	0.002	0.03239	0.00108
303	0.00316	0.028	0.00107
303	0.00398	0.02665	0.00106
303	0.00501	0.02645	0.00106
303	0.01	0.02645	0.00106
313	0	0.0696	0.00129
313	1e-07	0.06959	0.00129
313	5.01e-07	0.06956	0.00129
313	1e-06	0.06952	0.00129
313	5.01e-06	0.0692	0.00129
313	1e-05	0.06883	0.00128
313	5.01e-05	0.06649	0.00127
313	0.0001	0.06445	0.00125
313	0.000501	0.04832	0.00116
313	0.000631	0.046	0.00115
313	0.000708	0.04382	0.00114
313	0.000794	0.04271	0.00113
313	0.000891	0.04115	0.00112
313	0.001	0.03951	0.00111
313	0.002	0.03183	0.00108
313	0.00316	0.0275	0.00106
313	0.00398	0.02612	0.00106
313	0.00501	0.02548	0.00106
313	0.01	0.02542	0.00106

System: water + dodecyl ethyl dimethylammonium bromide; phases: Liquid, Air at 1 atmosphere
Property: Surface tension liquid-gas, N/m (Liquid); method: Ring tensiometer
Temperature, K	Amount concentration (molarity), mol/dm3 of dodecyl ethyl dimethylammonium bromide	Surface tension liquid-gas, N/m	uncertainty
293	0	0.0728	0.0013
293	1e-07	0.0726	0.0013
293	5.01e-07	0.0724	0.0013
293	1e-06	0.0723	0.0013
293	5.01e-06	0.0722	0.0013
293	1e-05	0.0717	0.0013
293	5.01e-05	0.0707	0.0013
293	0.0001	0.07	0.0013
293	0.000501	0.0678	0.0013
293	0.001	0.0651	0.0013
293	0.002	0.0603	0.0012
293	0.00316	0.0564	0.0012
293	0.00398	0.0524	0.0012
293	0.00501	0.05	0.0012
293	0.00631	0.0473	0.0012
293	0.00794	0.0443	0.0011
293	0.00891	0.0428	0.0011
293	0.01	0.0415	0.0011
293	0.0251	0.0409	0.0011
293	0.0501	0.0406	0.0011
293	0.1	0.0394	0.0011
303	0	0.0712	0.0013
303	1e-07	0.0712	0.0013
303	5.01e-07	0.07119	0.0013
303	1e-06	0.07119	0.0013
303	5.01e-06	0.07113	0.0013
303	1e-05	0.07106	0.0013
303	5.01e-05	0.07054	0.00129
303	0.0001	0.06994	0.00129
303	0.000501	0.06659	0.00127
303	0.001	0.06391	0.00125
303	0.002	0.06054	0.00123
303	0.00316	0.05613	0.0012
303	0.00398	0.05236	0.00118
303	0.00501	0.04944	0.00116
303	0.00631	0.04678	0.00115
303	0.00794	0.04372	0.00113
303	0.00891	0.04212	0.00113
303	0.01	0.04073	0.00112
303	0.0251	0.04001	0.00112
303	0.0501	0.03982	0.00112
303	0.1	0.039	0.00111
313	0	0.0696	0.00129
313	1e-07	0.0696	0.00129
313	5.01e-07	0.0696	0.00129
313	1e-06	0.06959	0.00129
313	5.01e-06	0.06956	0.00129
313	1e-05	0.06953	0.00129
313	5.01e-05	0.06924	0.00129
313	0.0001	0.06889	0.00128
313	0.000501	0.06563	0.00126
313	0.001	0.06294	0.00124
313	0.002	0.05958	0.00122
313	0.00316	0.05517	0.0012
313	0.00398	0.05187	0.00118
313	0.00501	0.04885	0.00116
313	0.00631	0.04639	0.00115
313	0.00794	0.04312	0.00113
313	0.00891	0.04171	0.00112
313	0.01	0.03982	0.00112
313	0.0251	0.03943	0.00111
313	0.0501	0.03875	0.00111
313	0.1	0.03824	0.00111

System: tetradecyltrimethylammonium bromide + water; phases: Liquid, Air at 1 atmosphere
Property: Surface tension liquid-gas, N/m (Liquid); method: Ring tensiometer
Temperature, K	Amount concentration (molarity), mol/dm3 of tetradecyltrimethylammonium bromide	Surface tension liquid-gas, N/m	uncertainty
293	0	0.0728	0.0013
293	1e-07	0.0724	0.0013
293	5.01e-07	0.0723	0.0013
293	1e-06	0.0722	0.0013
293	5.01e-06	0.0717	0.0013
293	1e-05	0.0716	0.0013
293	5.01e-05	0.0708	0.0013
293	0.0001	0.0699	0.0013
293	0.0002	0.0667	0.0013
293	0.000501	0.0591	0.0012
293	0.000631	0.0561	0.0012
293	0.000708	0.0546	0.0012
293	0.000794	0.0537	0.0012
293	0.000891	0.0527	0.0012
293	0.001	0.0519	0.0012
293	0.002	0.0437	0.0011
293	0.00316	0.0367	0.0011
293	0.00398	0.0363	0.0011
293	0.00501	0.0363	0.0011
293	0.00708	0.0363	0.0011
293	0.01	0.0363	0.0011
313	0	0.0696	0.00129
313	1e-07	0.06959	0.00129
313	5.01e-07	0.06954	0.00129
313	1e-06	0.06948	0.00129
313	5.01e-06	0.06903	0.00128
313	1e-05	0.06849	0.00128
313	5.01e-05	0.06749	0.00127
313	0.0001	0.06658	0.00127
313	0.0002	0.06361	0.00125
313	0.000501	0.05843	0.00122
313	0.000631	0.05541	0.0012
313	0.000708	0.05385	0.00119
313	0.000794	0.05261	0.00118
313	0.000891	0.05154	0.00118
313	0.001	0.05021	0.00117
313	0.002	0.04265	0.00113
313	0.00316	0.03605	0.0011
313	0.00398	0.03538	0.0011
313	0.00501	0.03538	0.0011
313	0.00708	0.03538	0.0011
313	0.01	0.03538	0.0011

System: benzenemethanaminium, N-dodecyl-N,N-dimethyl, bromide + water; phases: Liquid, Air at 1 atmosphere
Property: Surface tension liquid-gas, N/m (Liquid); method: Ring tensiometer
Temperature, K	Amount concentration (molarity), mol/dm3 of benzenemethanaminium, N-dodecyl-N,N-dimethyl, bromide	Surface tension liquid-gas, N/m	uncertainty
293	0	0.0728	0.0013
293	1e-07	0.0724	0.0013
293	5.01e-07	0.0723	0.0013
293	1e-06	0.0716	0.0013
293	5.01e-06	0.0707	0.0013
293	1e-05	0.0696	0.0013
293	5.01e-05	0.0668	0.0013
293	0.0001	0.0643	0.0013
293	0.000316	0.0553	0.0012
293	0.000501	0.0517	0.0012
293	0.001	0.0462	0.0012
293	0.002	0.0411	0.0011
293	0.00316	0.0378	0.0011
293	0.00398	0.036	0.0011
293	0.00501	0.0345	0.0011
293	0.00708	0.0345	0.0011
293	0.01	0.0344	0.0011
303	0	0.0712	0.0013
303	1e-07	0.07118	0.0013
303	5.01e-07	0.07109	0.0013
303	1e-06	0.07098	0.0013
303	5.01e-06	0.07022	0.00129
303	1e-05	0.06944	0.00129
303	5.01e-05	0.06588	0.00126
303	0.0001	0.06366	0.00125
303	0.000316	0.05419	0.00119
303	0.000501	0.05007	0.00117
303	0.001	0.04448	0.00114
303	0.002	0.04	0.00112
303	0.00316	0.03673	0.0011
303	0.00398	0.03482	0.00109
303	0.00501	0.03311	0.00109
303	0.00708	0.03311	0.00109
303	0.01	0.03311	0.00109
313	0	0.0696	0.00129
313	1e-07	0.06958	0.00129
313	5.01e-07	0.06949	0.00129
313	1e-06	0.06938	0.00129
313	5.01e-06	0.06859	0.00128
313	1e-05	0.06778	0.00128
313	5.01e-05	0.0641	0.00125
313	0.0001	0.06181	0.00124
313	0.000316	0.0534	0.00119
313	0.000501	0.04915	0.00116
313	0.001	0.04337	0.00113
313	0.002	0.03893	0.00111
313	0.00316	0.03576	0.0011
313	0.00398	0.03392	0.00109
313	0.00501	0.03267	0.00108
313	0.00708	0.03267	0.00108
313	0.01	0.03267	0.00108
