Measured thermophysical data. Solubility of chlocyphos in different solvents
Source: Fluid Phase Equilib., 2012, 10.1016/j.fluid.2012.06.010
Compound 1: 4-(2-chlorophenyl)-2-hydroxy-5,5-dimethyl-1,3,2-dioxaphosphinane 2-oxide, C11H14ClO4P, InChI=1S/C11H14ClO4P/c1-11(2)7-15-17(13,14)16-10(11)8-5-3-4-6-9(8)12/h3-6,10H,7H2,1-2H3,(H,13,14)
Compound 2: methanol, CH4O, InChI=1S/CH4O/c1-2/h2H,1H3, purity 99.5%
Compound 3: ethanol, C2H6O, InChI=1S/C2H6O/c1-2-3/h3H,2H2,1H3, purity 99.5%
Compound 4: propan-2-ol, C3H8O, InChI=1S/C3H8O/c1-3(2)4/h3-4H,1-2H3, purity 99.5%
Compound 5: 2-methylpropan-2-ol, C4H10O, InChI=1S/C4H10O/c1-4(2,3)5/h5H,1-3H3, purity 99.5%
Compound 6: acetic acid, C2H4O2, InChI=1S/C2H4O2/c1-2(3)4/h1H3,(H,3,4), purity 99.5%
Compound 7: water, H2O, InChI=1S/H2O/h1H2, purity 99.8%
Compound 8: benzoic acid, C7H6O2, InChI=1S/C7H6O2/c8-7(9)6-4-2-1-3-5-6/h1-5H,(H,8,9), purity 98%

System: 4-(2-chlorophenyl)-2-hydroxy-5,5-dimethyl-1,3,2-dioxaphosphinane 2-oxide; phases: Crystal, Liquid, Air at 1 atmosphere
Property: Normal melting temperature, K (Crystal); method: VISOBS
Normal melting temperature, K	uncertainty
498	4

System: methanol + 4-(2-chlorophenyl)-2-hydroxy-5,5-dimethyl-1,3,2-dioxaphosphinane 2-oxide; phases: Liquid, Crystal
Fixed: Pressure, kPa = 101
Property: Mole fraction of 4-(2-chlorophenyl)-2-hydroxy-5,5-dimethyl-1,3,2-dioxaphosphinane 2-oxide (Liquid); method: UV absorbance
Temperature, K	Mole fraction of 4-(2-chlorophenyl)-2-hydroxy-5,5-dimethyl-1,3,2-dioxaphosphinane 2-oxide	uncertainty
278.15	0.00445	0.00037
283.15	0.00519	0.00043
288.15	0.00572	0.00047
293.15	0.00644	0.00053
298.15	0.00713	0.00059
303.15	0.00809	0.00066
308.15	0.00892	0.00073
313.15	0.01052	0.00086
318.15	0.01248	0.00102
323.15	0.01449	0.00119

System: ethanol + 4-(2-chlorophenyl)-2-hydroxy-5,5-dimethyl-1,3,2-dioxaphosphinane 2-oxide; phases: Liquid, Crystal
Fixed: Pressure, kPa = 101
Property: Mole fraction of 4-(2-chlorophenyl)-2-hydroxy-5,5-dimethyl-1,3,2-dioxaphosphinane 2-oxide (Liquid); method: UV absorbance
Temperature, K	Mole fraction of 4-(2-chlorophenyl)-2-hydroxy-5,5-dimethyl-1,3,2-dioxaphosphinane 2-oxide	uncertainty
278.15	0.00426	0.00035
283.15	0.00473	0.00038
288.15	0.00536	0.00043
293.15	0.00614	0.0005
298.15	0.00685	0.00056
303.15	0.00783	0.00063
308.15	0.00884	0.00072
313.15	0.00995	0.00081
318.15	0.01214	0.00098
323.15	0.01345	0.00109

System: propan-2-ol + 4-(2-chlorophenyl)-2-hydroxy-5,5-dimethyl-1,3,2-dioxaphosphinane 2-oxide; phases: Liquid, Crystal
Fixed: Pressure, kPa = 101
Property: Mole fraction of 4-(2-chlorophenyl)-2-hydroxy-5,5-dimethyl-1,3,2-dioxaphosphinane 2-oxide (Liquid); method: UV absorbance
Temperature, K	Mole fraction of 4-(2-chlorophenyl)-2-hydroxy-5,5-dimethyl-1,3,2-dioxaphosphinane 2-oxide	uncertainty
278.15	0.01143	0.00092
283.15	0.01349	0.00109
288.15	0.01604	0.00129
293.15	0.01758	0.00142
298.15	0.02071	0.00167
303.15	0.02511	0.00203
308.15	0.02901	0.00234
313.15	0.03416	0.00276
318.15	0.03908	0.00315
323.15	0.04476	0.00361

System: 2-methylpropan-2-ol + 4-(2-chlorophenyl)-2-hydroxy-5,5-dimethyl-1,3,2-dioxaphosphinane 2-oxide; phases: Liquid, Crystal
Fixed: Pressure, kPa = 101
Property: Mole fraction of 4-(2-chlorophenyl)-2-hydroxy-5,5-dimethyl-1,3,2-dioxaphosphinane 2-oxide (Liquid); method: UV absorbance
Temperature, K	Mole fraction of 4-(2-chlorophenyl)-2-hydroxy-5,5-dimethyl-1,3,2-dioxaphosphinane 2-oxide	uncertainty
303.15	0.02285	0.00184
308.15	0.02807	0.00226
313.15	0.03126	0.00252
318.15	0.0359	0.00289
323.15	0.0398	0.0032
328.15	0.04687	0.00377
333.15	0.05099	0.0041
338.15	0.05741	0.00462
343.15	0.0629	0.00506
348.15	0.06906	0.00556

System: acetic acid + 4-(2-chlorophenyl)-2-hydroxy-5,5-dimethyl-1,3,2-dioxaphosphinane 2-oxide; phases: Liquid, Crystal
Fixed: Pressure, kPa = 101
Property: Mole fraction of 4-(2-chlorophenyl)-2-hydroxy-5,5-dimethyl-1,3,2-dioxaphosphinane 2-oxide (Liquid); method: UV absorbance
Temperature, K	Mole fraction of 4-(2-chlorophenyl)-2-hydroxy-5,5-dimethyl-1,3,2-dioxaphosphinane 2-oxide	uncertainty
293.15	0.00131	0.00011
298.15	0.00156	0.00013
303.15	0.00186	0.00015
308.15	0.00221	0.00018
313.15	0.0025	0.0002
318.15	0.00277	0.00022
323.15	0.00341	0.00028
328.15	0.0039	0.00031
333.15	0.00449	0.00036
338.15	0.00523	0.00042

System: water + 4-(2-chlorophenyl)-2-hydroxy-5,5-dimethyl-1,3,2-dioxaphosphinane 2-oxide; phases: Liquid, Crystal
Fixed: Pressure, kPa = 101
Property: Mole fraction of 4-(2-chlorophenyl)-2-hydroxy-5,5-dimethyl-1,3,2-dioxaphosphinane 2-oxide (Liquid); method: UV absorbance
Temperature, K	Mole fraction of 4-(2-chlorophenyl)-2-hydroxy-5,5-dimethyl-1,3,2-dioxaphosphinane 2-oxide	uncertainty
278.15	0.000124	1.1e-05
283.15	0.000123	1.1e-05
288.15	0.000136	1.2e-05
293.15	0.000157	1.4e-05
298.15	0.000162	1.4e-05
303.15	0.000164	1.4e-05
308.15	0.000166	1.4e-05
313.15	0.000168	1.5e-05
318.15	0.00017	1.5e-05

System: benzoic acid + water; phases: Liquid, Crystal
Fixed: Pressure, kPa = 101
Property: Mole fraction of benzoic acid (Liquid); method: UV absorbance
Temperature, K	Mole fraction of benzoic acid	uncertainty
297.75	0.00049	4e-05
298.15	0.0005	4e-05
303.15	0.00062	5e-05
308.15	0.00077	6e-05
313.15	0.00089	7e-05
315.55	0.00093	8e-05
318.15	0.00115	9e-05
323.15	0.00139	0.00011
328.15	0.00159	0.00013
330.95	0.00162	0.00013
333.15	0.00178	0.00014
338.15	0.00222	0.00018
343.15	0.00263	0.00021
347.25	0.0031	0.00025
348.15	0.00329	0.00027
353.15	0.00409	0.00033
356.25	0.00475	0.00039
358.15	0.00503	0.00041
366.35	0.00868	0.00071
