Measured thermophysical data. Effect of temperature on the solubility of 3-aminopyridine in binary ethanol + toluene solvent mixtures
Source: Fluid Phase Equilib., 2012, 10.1016/j.fluid.2011.11.023
Compound 1: .beta.-aminopyridine, C5H6N2, InChI=1S/C5H6N2/c6-5-2-1-3-7-4-5/h1-4H,6H2
Compound 2: ethanol, C2H6O, InChI=1S/C2H6O/c1-2-3/h3H,2H2,1H3
Compound 3: toluene, C7H8, InChI=1S/C7H8/c1-7-5-3-2-4-6-7/h2-6H,1H3

System: .beta.-aminopyridine; phases: Crystal, Liquid, Air at 1 atmosphere
Property: Normal melting temperature, K (Crystal); method: VISOBS
Normal melting temperature, K	uncertainty
337.65	0.5

System: toluene + .beta.-aminopyridine; phases: Liquid, Crystal
Fixed: Pressure, kPa = 101
Property: Mole fraction of .beta.-aminopyridine (Liquid); method: OTHER::sMethod:UV spectrophotometry
Temperature, K	Mole fraction of .beta.-aminopyridine	uncertainty
283.15	0.02971	0.0013
288.15	0.04268	0.00185
293.15	0.06465	0.00281
298.15	0.09712	0.00426
303.15	0.1516	0.0066
308.15	0.2232	0.0095
313.15	0.3128	0.0132
318.15	0.4184	0.0175
323.15	0.5456	0.0231

System: ethanol + .beta.-aminopyridine; phases: Liquid, Crystal
Fixed: Pressure, kPa = 101
Property: Mole fraction of .beta.-aminopyridine (Liquid); method: UV spectrophotometry
Temperature, K	Mole fraction of .beta.-aminopyridine	uncertainty
283.15	0.438	0.0179
288.15	0.476	0.0195
293.15	0.5177	0.0212
298.15	0.5655	0.0229
303.15	0.6118	0.0247
308.15	0.6605	0.0266
313.15	0.7099	0.0285
318.15	0.7639	0.0307
323.15	0.8212	0.0329

System: ethanol + toluene + .beta.-aminopyridine; phases: Liquid, Crystal
Fixed: Pressure, kPa = 101
Property: Mole fraction of .beta.-aminopyridine (Liquid); method: UV spectrophotometry
Solvent: Mass fraction of ethanol	Temperature, K	Mole fraction of .beta.-aminopyridine	uncertainty
0	283.15	0.02971	0.0013
0	288.15	0.04268	0.00185
0	293.15	0.06465	0.00281
0	298.15	0.09712	0.00426
0	303.15	0.1516	0.0066
0	308.15	0.2232	0.0095
0	313.15	0.3128	0.0132
0	318.15	0.4184	0.0175
0	323.15	0.5456	0.0231
0.2	283.15	0.2342	0.0099
0.2	288.15	0.2729	0.0111
0.2	293.15	0.3203	0.013
0.2	298.15	0.3717	0.0151
0.2	303.15	0.4288	0.0175
0.2	308.15	0.4914	0.0202
0.2	313.15	0.5596	0.0235
0.2	318.15	0.6351	0.0332
0.2	323.15	0.717	0.037
0.4	283.15	0.3214	0.0131
0.4	288.15	0.3606	0.0146
0.4	293.15	0.4033	0.0164
0.4	298.15	0.4512	0.0184
0.4	303.15	0.5004	0.0205
0.4	308.15	0.5599	0.0234
0.4	313.15	0.6168	0.0286
0.4	318.15	0.6811	0.1786
0.4	323.15	0.7535	0.033
0.6	283.15	0.3708	0.015
0.6	288.15	0.4032	0.0163
0.6	293.15	0.4472	0.0182
0.6	298.15	0.494	0.0202
0.6	303.15	0.5448	0.0226
0.6	308.15	0.5991	0.0263
0.6	313.15	0.6604	0.0648
0.6	318.15	0.7175	0.0369
0.6	323.15	0.784	0.0329
0.8	283.15	0.402	0.0163
0.8	288.15	0.4358	0.0177
0.8	293.15	0.4795	0.0195
0.8	298.15	0.5262	0.0217
0.8	303.15	0.5785	0.0246
0.8	308.15	0.625	0.0301
0.8	313.15	0.6796	0.2428
0.8	318.15	0.7379	0.0336
0.8	323.15	0.8005	0.0333
1	283.15	0.438	0.0178
1	288.15	0.476	0.0194
1	293.15	0.5177	0.0213
1	298.15	0.5655	0.0237
1	303.15	0.6118	0.0278
1	308.15	0.6605	0.0652
1	313.15	0.7099	0.0398
1	318.15	0.7639	0.0328
1	323.15	0.8212	0.0338
