Measured thermophysical data. Excess molar volumes of ternary mixtures of 1,3-dichlorobenzene and methyl ethyl ketone with 1-alkanols at 303.15K
Source: Fluid Phase Equilib., 2006, 10.1016/j.fluid.2006.04.010
Compound 1: 1,3-dichlorobenzene, C6H4Cl2, InChI=1S/C6H4Cl2/c7-5-2-1-3-6(8)4-5/h1-4H
Compound 2: butanone, C4H8O, InChI=1S/C4H8O/c1-3-4(2)5/h3H2,1-2H3
Compound 3: propan-1-ol, C3H8O, InChI=1S/C3H8O/c1-2-3-4/h4H,2-3H2,1H3
Compound 4: butan-1-ol, C4H10O, InChI=1S/C4H10O/c1-2-3-4-5/h5H,2-4H2,1H3
Compound 5: pentan-1-ol, C5H12O, InChI=1S/C5H12O/c1-2-3-4-5-6/h6H,2-5H2,1H3
Compound 6: hexan-1-ol, C6H14O, InChI=1S/C6H14O/c1-2-3-4-5-6-7/h7H,2-6H2,1H3

System: 1,3-dichlorobenzene; phases: Liquid, Gas
Property: Normal boiling temperature, K (Liquid); method: Distillation
Normal boiling temperature, K	uncertainty
446.15	0.21

System: 1,3-dichlorobenzene; phases: Liquid
Property: Mass density, kg/m3 (Liquid); method: Pycnometric method
Temperature, K	Pressure, kPa	Mass density, kg/m3	uncertainty
303.15	101.325	1277.16	1.36

System: butanone; phases: Liquid, Gas
Property: Normal boiling temperature, K (Liquid); method: Distillation
Normal boiling temperature, K	uncertainty
352.85	0.21

System: butanone; phases: Liquid
Property: Mass density, kg/m3 (Liquid); method: Pycnometric method
Temperature, K	Pressure, kPa	Mass density, kg/m3	uncertainty
303.15	101.325	794.57	0.9

System: propan-1-ol; phases: Liquid, Gas
Property: Normal boiling temperature, K (Liquid); method: Distillation
Normal boiling temperature, K	uncertainty
370.4	0.22

System: propan-1-ol; phases: Liquid
Property: Mass density, kg/m3 (Liquid); method: Pycnometric method
Temperature, K	Pressure, kPa	Mass density, kg/m3	uncertainty
303.15	101.325	796.02	1.47

System: butan-1-ol; phases: Liquid, Gas
Property: Normal boiling temperature, K (Liquid); method: Distillation
Normal boiling temperature, K	uncertainty
390.75	0.21

System: butan-1-ol; phases: Liquid
Property: Mass density, kg/m3 (Liquid); method: Pycnometric method
Temperature, K	Pressure, kPa	Mass density, kg/m3	uncertainty
303.15	101.325	802.03	0.9

System: pentan-1-ol; phases: Liquid, Gas
Property: Normal boiling temperature, K (Liquid); method: Distillation
Normal boiling temperature, K	uncertainty
411.15	0.21

System: pentan-1-ol; phases: Liquid
Property: Mass density, kg/m3 (Liquid); method: Pycnometric method
Temperature, K	Pressure, kPa	Mass density, kg/m3	uncertainty
303.15	101.325	807.64	0.91

System: hexan-1-ol; phases: Liquid, Gas
Property: Normal boiling temperature, K (Liquid); method: Distillation
Normal boiling temperature, K	uncertainty
430.75	0.21

System: hexan-1-ol; phases: Liquid
Property: Mass density, kg/m3 (Liquid); method: Pycnometric method
Temperature, K	Pressure, kPa	Mass density, kg/m3	uncertainty
303.15	101.325	812.05	0.91

System: butanone + 1,3-dichlorobenzene; phases: Liquid
Fixed: Temperature, K = 303.15
Fixed: Pressure, kPa = 101
Property: Excess molar volume, m3/mol (Liquid); method: Direct dilatometry
Mole fraction of 1,3-dichlorobenzene	Excess molar volume, m3/mol	uncertainty
0.0464	-8.5e-08	6e-09
0.086	-1.4e-07	6e-09
0.1789	-2.26e-07	6e-09
0.259	-2.54e-07	6e-09
0.357	-2.64e-07	6e-09
0.4795	-2.54e-07	6e-09
0.5754	-2.44e-07	6e-09
0.6862	-2.28e-07	6e-09
0.8016	-1.97e-07	6e-09
0.9657	-5.9e-08	6e-09

System: propan-1-ol + butanone + 1,3-dichlorobenzene; phases: Liquid
Fixed: Temperature, K = 303.15
Fixed: Pressure, kPa = 101
Property: Excess molar volume, m3/mol (Liquid); method: Direct dilatometry
Mole fraction of 1,3-dichlorobenzene	Mole fraction of butanone	Excess molar volume, m3/mol	uncertainty
0.0728	0.8673	-1.35e-07	7e-09
0.1241	0.4408	-1.72e-07	7e-09
0.1271	0.8075	-1.9e-07	7e-09
0.1285	0.5744	-1.89e-07	7e-09
0.1291	0.7177	-1.97e-07	6e-09
0.1296	0.3214	-1.45e-07	7e-09
0.1299	0.5092	-1.81e-07	7e-09
0.1303	0.242	-1.3e-07	8e-09
0.1356	0.1781	-1.33e-07	7e-09
0.1589	0.1157	-1.33e-07	7e-09

System: butan-1-ol + butanone + 1,3-dichlorobenzene; phases: Liquid
Fixed: Temperature, K = 303.15
Fixed: Pressure, kPa = 101
Property: Excess molar volume, m3/mol (Liquid); method: Direct dilatometry
Mole fraction of 1,3-dichlorobenzene	Mole fraction of butanone	Excess molar volume, m3/mol	uncertainty
0.0997	0.8407	-1.7e-07	8e-09
0.1264	0.7008	-1.88e-07	8e-09
0.1271	0.4926	-1.34e-07	8e-09
0.1312	0.5683	-1.61e-07	8e-09
0.1319	0.3731	-1.2e-07	7e-09
0.1342	0.7548	-2.06e-07	7e-09
0.1356	0.2765	-1.18e-07	8e-09
0.1389	0.6359	-1.92e-07	7e-09
0.1416	0.2269	-1.37e-07	7e-09
0.176	0.1385	-1.62e-07	6e-09

System: pentan-1-ol + butanone + 1,3-dichlorobenzene; phases: Liquid
Fixed: Temperature, K = 303.15
Fixed: Pressure, kPa = 101
Property: Excess molar volume, m3/mol (Liquid); method: Direct dilatometry
Mole fraction of 1,3-dichlorobenzene	Mole fraction of butanone	Excess molar volume, m3/mol	uncertainty
0.0672	0.9029	-1.24e-07	1e-08
0.0958	0.8539	-1.73e-07	8e-09
0.1378	0.5365	-2.36e-07	6e-09
0.1464	0.7579	-2.55e-07	8e-09
0.1469	0.3176	-1.7e-07	1e-08
0.1488	0.4168	-2.08e-07	1e-08
0.1493	0.5747	-2.65e-07	9e-09
0.1514	0.6579	-2.83e-07	7e-09
0.1622	0.2488	-1.56e-07	1e-08
0.2027	0.1371	-1.42e-07	9e-09

System: butanone + hexan-1-ol + 1,3-dichlorobenzene; phases: Liquid
Fixed: Temperature, K = 303.15
Fixed: Pressure, kPa = 101
Property: Excess molar volume, m3/mol (Liquid); method: Direct dilatometry
Mole fraction of 1,3-dichlorobenzene	Mole fraction of butanone	Excess molar volume, m3/mol	uncertainty
0.0789	0.883	-1.25e-07	1e-08
0.1229	0.7811	-1.81e-07	1e-08
0.1534	0.4449	-1.13e-07	1.1e-08
0.1537	0.5424	-1.57e-07	1.1e-08
0.1562	0.5906	-1.83e-07	1.1e-08
0.1563	0.6612	-2.13e-07	1.1e-08
0.1621	0.3148	-9.2e-08	8e-09
0.1866	0.238	-1.09e-07	9e-09
0.2158	0.2037	-1.33e-07	9e-09
0.2476	0.079	-1.8e-07	8e-09
