Measured thermophysical data. Experimental measurements and thermodynamic modeling of wax disappearance temperature for the binary systems n-C14H30 + n- C16H34, n-C16H34 + n-C18H38 and n-C11H24 + n-C18H38
Source: Fluid Phase Equilib., 2015, 10.1016/j.fluid.2014.12.036
Compound 1: tetradecane, C14H30, InChI=1S/C14H30/c1-3-5-7-9-11-13-14-12-10-8-6-4-2/h3-14H2,1-2H3, purity 99%
Compound 2: hexadecane, C16H34, InChI=1S/C16H34/c1-3-5-7-9-11-13-15-16-14-12-10-8-6-4-2/h3-16H2,1-2H3, purity 99%
Compound 3: octadecane, C18H38, InChI=1S/C18H38/c1-3-5-7-9-11-13-15-17-18-16-14-12-10-8-6-4-2/h3-18H2,1-2H3, purity 99%
Compound 4: undecane, C11H24, InChI=1S/C11H24/c1-3-5-7-9-11-10-8-6-4-2/h3-11H2,1-2H3, purity 99%

System: tetradecane; phases: Crystal, Liquid, Air at 1 atmosphere
Property: Normal melting temperature, K (Crystal); method: VISOBS
Normal melting temperature, K	uncertainty
279.4	0.4

System: hexadecane; phases: Crystal, Liquid, Air at 1 atmosphere
Property: Normal melting temperature, K (Crystal); method: VISOBS
Normal melting temperature, K	uncertainty
291.5	0.4

System: octadecane; phases: Crystal, Liquid, Air at 1 atmosphere
Property: Normal melting temperature, K (Crystal); method: VISOBS
Normal melting temperature, K	uncertainty
301.6	0.4

System: hexadecane + tetradecane; phases: Liquid, Crystal
Fixed: Pressure, kPa = 101
Property: Solid-liquid equilibrium temperature, K (Liquid); method: VISOBS
Mass fraction of hexadecane	Solid-liquid equilibrium temperature, K	uncertainty
0	279.4	0.3
0.04	278.7	0.3
0.1	277.3	0.3
0.14	275.9	0.3

System: hexadecane + tetradecane; phases: Liquid, Crystal
Fixed: Pressure, kPa = 101
Property: Solid-liquid equilibrium temperature, K (Liquid); method: VISOBS
Mass fraction of hexadecane	Solid-liquid equilibrium temperature, K	uncertainty
0.3	277.6	0.3
0.42	280.2	0.3
0.58	284.3	0.3
0.75	288.3	0.3
0.9	290.3	0.3
1	291.5	0.3

System: hexadecane + octadecane; phases: Liquid, Crystal
Fixed: Pressure, kPa = 101
Property: Solid-liquid equilibrium temperature, K (Liquid); method: VISOBS
Mass fraction of octadecane	Solid-liquid equilibrium temperature, K	uncertainty
0.11	289.7	0.3
0.2	290.4	0.3
0.35	292	1
0.49	293.9	0.3
0.5	293.48	0.25
0.68	296.4	0.3
0.82	299.4	0.3
0.91	300.6	0.3
1	301.6	0.3

System: octadecane + undecane; phases: Liquid, Crystal
Fixed: Pressure, kPa = 101
Property: Solid-liquid equilibrium temperature, K (Liquid); method: VISOBS
Mass fraction of octadecane	Solid-liquid equilibrium temperature, K	uncertainty
0.15	276.8	0.3
0.21	279.6	0.3
0.36	286.6	0.3
0.53	291.6	0.3
0.59	293.4	0.3
0.75	297.5	0.3
0.91	300.2	0.3
1	301.8	0.3
