Measured thermophysical data. Separation of propylbenzene and n-alkanes from their mixtures using 4-methyl-N-butylpyridinium tetrafluoroborate as an ionic solvent at several  temperatures
Source: Fluid Phase Equilib., 2011, 10.1016/j.fluid.2011.06.036
Compound 1: propylbenzene, C9H12, InChI=1S/C9H12/c1-2-6-9-7-4-3-5-8-9/h3-5,7-8H,2,6H2,1H3, purity 99%
Compound 2: tetradecane, C14H30, InChI=1S/C14H30/c1-3-5-7-9-11-13-14-12-10-8-6-4-2/h3-14H2,1-2H3, purity 99%
Compound 3: hexadecane, C16H34, InChI=1S/C16H34/c1-3-5-7-9-11-13-15-16-14-12-10-8-6-4-2/h3-16H2,1-2H3, purity 99%
Compound 4: 1-butyl-4-methylpyridinium tetrafluoroborate, C10H16BF4N, InChI=1S/C10H16N.BF4/c1-3-4-7-11-8-5-10(2)6-9-11;2-1(3,4)5/h5-6,8-9H,3-4,7H2,1-2H3;/q+1;-1, purity 97%

System: propylbenzene + tetradecane + 1-butyl-4-methylpyridinium tetrafluoroborate; phases: Liquid mixture 2, Liquid mixture 1, Liquid
Fixed: Pressure, kPa = 101
Property: Mole fraction of propylbenzene (Liquid mixture 2); method: Chromatography
Property: Mole fraction of propylbenzene (Liquid mixture 1); method: Chromatography
Property: Mole fraction of tetradecane (Liquid mixture 2); method: Chromatography
Property: Mole fraction of tetradecane (Liquid mixture 1); method: Chromatography
Temperature, K	Mole fraction of propylbenzene	uncertainty	Mole fraction of propylbenzene	uncertainty	Mole fraction of tetradecane	uncertainty	Mole fraction of tetradecane	uncertainty
313	0.1231	0.0013	0.0353	0.001	0.8769	0.0013	0.0031	0.001
313	0.2208	0.0044	0.0655	0.0016	0.7792	0.0044	0.0033	0.001
313	0.2999	0.0075	0.092	0.0025	0.7001	0.0075	0.0034	0.001
313	0.3653	0.0101	0.115	0.0034	0.6347	0.0101	0.0036	0.001
313	0.4202	0.0124	0.1352	0.0042	0.5798	0.0124	0.0037	0.001
313	0.4642	0.0141	0.1609	0.0052	0.5358	0.0141	0.0039	0.001
313	0.5048	0.0158	0.176	0.0058	0.4952	0.0158	0.004	0.001
313	0.5394	0.0171	0.1917	0.0064	0.4606	0.0171	0.0042	0.001
313	0.5955	0.0192	0.2231	0.0077	0.4045	0.0192	0.0043	0.001
313	0.6388	0.0209	0.2553	0.009	0.3612	0.0209	0.0045	0.001
323	0.1222	0.0013	0.0366	0.001	0.8778	0.0013	0.0033	0.001
323	0.2193	0.0018	0.0682	0.0011	0.7807	0.0018	0.0036	0.001
323	0.2969	0.0023	0.0981	0.0012	0.7031	0.0023	0.004	0.001
323	0.3609	0.0028	0.1253	0.0013	0.6391	0.0028	0.0042	0.001
323	0.4162	0.0032	0.1459	0.0014	0.5838	0.0032	0.0044	0.001
323	0.4622	0.0036	0.167	0.0015	0.5378	0.0036	0.0045	0.001
323	0.5002	0.0039	0.1912	0.0017	0.4998	0.0039	0.0046	0.001
323	0.5348	0.0036	0.2089	0.0018	0.4652	0.0036	0.0052	0.001
323	0.5922	0.0032	0.2382	0.002	0.4078	0.0032	0.0055	0.001
323	0.6355	0.0028	0.2728	0.0022	0.3645	0.0028	0.0057	0.001
333	0.1211	0.0013	0.0382	0.001	0.8789	0.0013	0.0037	0.001
333	0.2179	0.0042	0.0706	0.0018	0.7821	0.0042	0.0039	0.001
333	0.2957	0.0073	0.1005	0.0028	0.7043	0.0073	0.0043	0.001
333	0.3619	0.01	0.1231	0.0037	0.6381	0.01	0.0044	0.001
333	0.4156	0.0122	0.1475	0.0047	0.5844	0.0122	0.0046	0.001
333	0.4614	0.014	0.1694	0.0055	0.5386	0.014	0.0047	0.001
333	0.4999	0.0156	0.1923	0.0065	0.5001	0.0156	0.0049	0.001
333	0.5318	0.0168	0.2192	0.0075	0.4682	0.0168	0.0055	0.001
333	0.5895	0.019	0.2496	0.0088	0.4105	0.019	0.0059	0.001
333	0.6336	0.0207	0.2825	0.0101	0.3664	0.0207	0.0066	0.001

System: propylbenzene + hexadecane + 1-butyl-4-methylpyridinium tetrafluoroborate; phases: Liquid mixture 2, Liquid mixture 1, Liquid
Fixed: Pressure, kPa = 101
Property: Mole fraction of propylbenzene (Liquid mixture 2); method: Chromatography
Property: Mole fraction of propylbenzene (Liquid mixture 1); method: Chromatography
Property: Mole fraction of hexadecane (Liquid mixture 2); method: Chromatography
Property: Mole fraction of hexadecane (Liquid mixture 1); method: Chromatography
Temperature, K	Mole fraction of propylbenzene	uncertainty	Mole fraction of propylbenzene	uncertainty	Mole fraction of hexadecane	uncertainty	Mole fraction of hexadecane	uncertainty
313	0.1388	0.0014	0.0347	0.001	0.8612	0.0014	0.002	0.001
313	0.2458	0.0048	0.0638	0.0015	0.7542	0.0048	0.0021	0.001
313	0.3307	0.0081	0.0883	0.0024	0.6693	0.0081	0.0022	0.001
313	0.3997	0.0109	0.1087	0.0031	0.6003	0.0109	0.0023	0.001
313	0.4544	0.0132	0.1319	0.004	0.5456	0.0132	0.0024	0.001
313	0.5005	0.015	0.1524	0.0049	0.4995	0.015	0.0024	0.001
313	0.5402	0.0165	0.1693	0.0055	0.4598	0.0165	0.0025	0.001
313	0.5736	0.0178	0.1874	0.0063	0.4264	0.0178	0.0027	0.001
313	0.6281	0.0198	0.2193	0.0075	0.3719	0.0198	0.0027	0.001
313	0.6718	0.0215	0.2402	0.0084	0.3282	0.0215	0.0028	0.001
323	0.1373	0.0014	0.0367	0.001	0.8627	0.0014	0.0023	0.001
323	0.2438	0.002	0.0671	0.0011	0.7562	0.002	0.0024	0.001
323	0.328	0.0025	0.0936	0.0012	0.672	0.0025	0.0025	0.001
323	0.396	0.0031	0.1172	0.0013	0.604	0.0031	0.0026	0.001
323	0.4501	0.0035	0.1432	0.0014	0.5499	0.0035	0.0027	0.001
323	0.4975	0.0039	0.1616	0.0015	0.5025	0.0039	0.0029	0.001
323	0.5374	0.0036	0.1791	0.0016	0.4626	0.0036	0.003	0.001
323	0.5722	0.0033	0.193	0.0017	0.4278	0.0033	0.0031	0.001
323	0.6272	0.0029	0.2239	0.0019	0.3728	0.0029	0.0032	0.001
323	0.6686	0.0026	0.2583	0.0021	0.3314	0.0026	0.0033	0.001
333	0.1342	0.0014	0.0407	0.0011	0.8658	0.0014	0.0028	0.001
333	0.2392	0.0045	0.0744	0.0019	0.7608	0.0045	0.0028	0.001
333	0.3236	0.0079	0.102	0.0029	0.6764	0.0079	0.0029	0.001
333	0.3915	0.0106	0.1272	0.0039	0.6085	0.0106	0.003	0.001
333	0.447	0.0129	0.1513	0.0048	0.553	0.0129	0.0033	0.001
333	0.4932	0.0147	0.1741	0.0057	0.5068	0.0147	0.0034	0.001
333	0.5329	0.0162	0.1939	0.0065	0.4671	0.0162	0.0036	0.001
333	0.5678	0.0175	0.2095	0.0071	0.4322	0.0175	0.0038	0.001
333	0.6227	0.0196	0.2443	0.0085	0.3773	0.0196	0.004	0.001
333	0.664	0.0212	0.2823	0.0101	0.336	0.0212	0.0042	0.001
