Measured thermophysical data. Excess Gibbs energies and volumes of the ternary system ethanol + dimethylformamide + tetrahydrofuran at 298.15K
Source: Fluid Phase Equilib., 2013, 10.1016/j.fluid.2013.07.034
Compound 1: dimethylformamide, C3H7NO, InChI=1S/C3H7NO/c1-4(2)3-5/h3H,1-2H3
Compound 2: tetrahydrofuran, C4H8O, InChI=1S/C4H8O/c1-2-4-5-3-1/h1-4H2
Compound 3: ethanol, C2H6O, InChI=1S/C2H6O/c1-2-3/h3H,2H2,1H3

System: dimethylformamide + tetrahydrofuran; phases: Gas, Liquid
Fixed: Temperature, K = 298.15
Property: Mole fraction of dimethylformamide (Gas); method: Chromatography
Mole fraction of dimethylformamide	Mole fraction of dimethylformamide	uncertainty
0.0256	0.0012	0.0001
0.0501	0.0025	0.0001
0.0601	0.0029	0.0001
0.1316	0.0059	0.0001
0.1616	0.007	0.0002
0.2308	0.0095	0.0002
0.2525	0.0105	0.0002
0.3092	0.0129	0.0003
0.4118	0.0171	0.0004
0.426	0.0179	0.0004
0.4741	0.0204	0.0004
0.5216	0.0233	0.0005
0.607	0.0288	0.0006
0.6251	0.0311	0.0007
0.7287	0.0436	0.001
0.7984	0.0589	0.0013
0.8351	0.0727	0.0016
0.9296	0.1597	0.0036
0.9491	0.2082	0.0046

System: dimethylformamide + tetrahydrofuran; phases: Liquid
Fixed: Temperature, K = 298.15
Fixed: Pressure, kPa = 101
Property: Excess molar volume, m3/mol (Liquid); method: Calculated with densities of this investigation
Mole fraction of dimethylformamide	Excess molar volume, m3/mol	uncertainty
0.0327	-1.8e-08	8e-09
0.106	-4.8e-08	8e-09
0.13	-5.5e-08	8e-09
0.199	-7.6e-08	8e-09
0.247	-9e-08	8e-09
0.359	-1.1e-07	8e-09
0.5	-1.18e-07	8e-09
0.502	-1.23e-07	8e-09
0.594	-1.18e-07	8e-09
0.746	-9.6e-08	8e-09
0.819	-7.7e-08	8e-09
0.951	-2.6e-08	8e-09

System: ethanol + dimethylformamide + tetrahydrofuran; phases: Gas, Liquid
Fixed: Temperature, K = 298.15
Property: Mole fraction of ethanol (Gas); method: Chromatography
Mole fraction of ethanol	Mole fraction of dimethylformamide	Mole fraction of ethanol	uncertainty
0.0788	0.0788	0.0508	0.0006
0.1802	0.4096	0.1121	0.0011
0.3944	0.3026	0.25422	0.00246
0.3732	0.2534	0.2232	0.0021
0.5252	0.2372	0.3495	0.0034
0.1372	0.7254	0.161	0.0016
0.2246	0.5508	0.1831	0.0018
0.6207	0.1895	0.432	0.0043
0.0509	0.2611	0.0294	0.0005
0.0533	0.2267	0.0311	0.0005
0.1026	0.1801	0.0589	0.0007
0.1905	0.0477	0.1135	0.0011
0.3038	0.1398	0.1638	0.0015
0.1354	0.1354	0.0786	0.0008
0.0531	0.7576	0.0544	0.0008
0.433	0.1336	0.2373	0.0022
0.1065	0.715	0.1093	0.0012
0.3372	0.3372	0.2227	0.0021
0.3852	0.3852	0.2843	0.0027
0.4367	0.4367	0.415	0.004
0.0271	0.9459	0.1142	0.0012
0.7259	0.1369	0.5374	0.0046
0.3012	0.5591	0.311	0.003
0.8448	0.0775	0.6973	0.0031
0.9483	0.0258	0.8776	0.0021
0.201	0.201	0.1124	0.0011
0.2862	0.4273	0.2019	0.002
0.0788	0.6061	0.0585	0.00075
0.4746	0.0505	0.2478	0.0023
0.0559	0.1889	0.0334	0.0005
0.5941	0.0815	0.3349	0.0032
0.0819	0.836	0.1453	0.0016
0.1803	0.0986	0.1049	0.001
0.484	0.484	0.7129	0.0031
0.616	0.3073	0.626	0.0038
0.252	0.252	0.1437	0.0014
0.2953	0.2953	0.1693	0.0016
0.1413	0.2938	0.0807	0.0008
0.0527	0.4733	0.0322	0.0006

System: ethanol + dimethylformamide + tetrahydrofuran; phases: Gas, Liquid
Fixed: Temperature, K = 298.15
Property: Mole fraction of dimethylformamide (Gas); method: Chromatography
Mole fraction of ethanol	Mole fraction of dimethylformamide	Mole fraction of dimethylformamide	uncertainty
0.0788	0.0788	0.0031	0.0004
0.1802	0.4096	0.0179	0.0004
0.3944	0.3026	0.0125	0.0004
0.3732	0.2534	0.0094	0.0004
0.5252	0.2372	0.0096	0.0004
0.1372	0.7254	0.0626	0.0007
0.2246	0.5508	0.0313	0.0005
0.6207	0.1895	0.008	0.001
0.0509	0.2611	0.0109	0.0004
0.0533	0.2267	0.0094	0.0004
0.1026	0.1801	0.0072	0.0004
0.1905	0.0477	0.0017	0.0004
0.3038	0.1398	0.0048	0.0004
0.1354	0.1354	0.0049	0.0004
0.0531	0.7576	0.0594	0.0007
0.433	0.1336	0.0045	0.0004
0.1065	0.715	0.0563	0.0006
0.3372	0.3372	0.0133	0.0004
0.3852	0.3852	0.0185	0.0004
0.4367	0.4367	0.0273	0.0005
0.0271	0.9459	0.2918	0.0028
0.7259	0.1369	0.0061	0.0004
0.3012	0.5591	0.0419	0.0005
0.8448	0.0775	0.0036	0.0004
0.9483	0.0258	0.0014	0.0004
0.201	0.201	0.007	0.0004
0.2862	0.4273	0.0203	0.0004
0.0788	0.6061	0.0307	0.0005
0.4746	0.0505	0.0016	0.0004
0.0559	0.1889	0.008	0.0004
0.5941	0.0815	0.0028	0.0004
0.0819	0.836	0.1106	0.0011
0.1803	0.0986	0.0036	0.0004
0.484	0.484	0.046	0.001
0.616	0.3073	0.02	0.0004
0.252	0.252	0.0092	0.0004
0.2953	0.2953	0.0113	0.0004
0.1413	0.2938	0.0115	0.0004
0.0527	0.4733	0.0204	0.0004

System: ethanol + dimethylformamide; phases: Liquid
Fixed: Temperature, K = 298.15
Fixed: Pressure, kPa = 101
Property: Excess molar volume, m3/mol (Liquid); method: Calculated with densities of this investigation
Volume fraction of ethanol	Excess molar volume, m3/mol	uncertainty
0.0999	-6.2e-08	8e-09
0.1	-6.4e-08	8e-09
0.2	-1.15e-07	8e-09
0.3998	-1.85e-07	8e-09
0.4996	-2.01e-07	8e-09
0.5032	-2.04e-07	8e-09
0.6	-2.04e-07	8e-09
0.6012	-2.05e-07	8e-09
0.7996	-1.58e-07	8e-09
0.9	-1.01e-07	8e-09
0.9695	-3.6e-08	8e-09
0.9779	-2.6e-08	8e-09
0.993	-9e-09	8e-09
0.9973	-4e-09	8e-09
0.9991	-1e-09	8e-09
