Measured thermophysical data. Solubility of menadione and dichlone in supercritical carbon dioxide
Source: Fluid Phase Equilib., 2016, 10.1016/j.fluid.2016.04.001
Compound 1: carbon dioxide, CO2, InChI=1S/CO2/c2-1-3, purity 99.99%
Compound 2: 2-methyl-1,4-naphthalenedione, C11H8O2, InChI=1S/C11H8O2/c1-7-6-10(12)8-4-2-3-5-9(8)11(7)13/h2-6H,1H3, purity 98%
Compound 3: 2,3-dichloro-1,4-naphthalenedione, C10H4Cl2O2, InChI=1S/C10H4Cl2O2/c11-7-8(12)10(14)6-4-2-1-3-5(6)9(7)13/h1-4H, purity 98%

System: 2-methyl-1,4-naphthalenedione + carbon dioxide; phases: Fluid (supercritical or subcritical phases), Crystal
Property: Mole fraction of 2-methyl-1,4-naphthalenedione (Fluid (supercritical or subcritical phases)); method: Chromatography
Temperature, K	Pressure, kPa	Mole fraction of 2-methyl-1,4-naphthalenedione	uncertainty
313	10320	0.0008	0.000373
313	14130	0.000843	0.000392
313	17610	0.000864	0.000386
313	19580	0.000873	0.000408
313	22410	0.000884	0.000394
313	25720	0.000893	0.000389
313	30670	0.000905	0.000391
323	9870	0.000794	0.000359
323	15360	0.000923	0.000411
323	20380	0.000954	0.000401
323	21890	0.000961	0.000479
323	26410	0.000976	0.000401
333	9720	0.00075	0.00028
333	13150	0.000864	0.00044
333	13430	0.00088	0.000468
333	17170	0.000948	0.000431
333	20530	0.000983	0.000426
333	24240	0.001006	0.00041

System: 2,3-dichloro-1,4-naphthalenedione + carbon dioxide; phases: Fluid (supercritical or subcritical phases), Crystal
Property: Mole fraction of 2,3-dichloro-1,4-naphthalenedione (Fluid (supercritical or subcritical phases)); method: Chromatography
Temperature, K	Pressure, kPa	Mole fraction of 2,3-dichloro-1,4-naphthalenedione	uncertainty
313	7070	7.3e-05	3.3e-05
313	9950	9.1e-05	4.1e-05
313	14300	0.00015	6.6e-05
313	16750	0.000166	7.3e-05
313	21490	0.000189	8.3e-05
313	27900	0.00021	9.2e-05
313	29150	0.000214	9.4e-05
323	10170	5.7e-05	2.6e-05
323	12260	0.000107	4.7e-05
323	15760	0.000152	6.7e-05
323	18100	0.000167	7.3e-05
323	20540	0.000181	7.9e-05
323	25900	0.000201	8.8e-05
323	29320	0.000213	9.3e-05
323	32580	0.000219	9.6e-05
333	7150	7e-06	3e-06
333	10490	6e-05	2.7e-05
333	13610	0.000138	6.1e-05
333	15860	0.000172	7.6e-05
333	18610	0.000198	8.7e-05
333	21230	0.000214	9.4e-05
333	24540	0.00023	0.000101
333	30620	0.000251	0.00011
