Measured thermophysical data. Ternary liquid liquid equilibria for mixtures of an ionic liquid + n-hexane + an organic compound involved in the kinetic resolution of rac-1-phenyl ethanol (rac-1-phenyl ethanol, vinyl propionate, rac-1-phenylethyl propionate or propionic acid) at 298.2K and atmospheric pressure
Source: Fluid Phase Equilib., 2008, 10.1016/j.fluid.2007.10.011
Compound 1: hexane, C6H14, InChI=1S/C6H14/c1-3-5-6-4-2/h3-6H2,1-2H3
Compound 2: 1-butyl-3-methylimidazolium hexafluorophosphate, C8H15F6N2P, InChI=1S/C8H15N2.F6P/c1-3-4-5-10-7-6-9(2)8-10;1-7(2,3,4,5)6/h6-8H,3-5H2,1-2H3;/q+1;-1
Compound 3: 1-butyl-3-methylimidazolium tetrafluoroborate, C8H15BF4N2, InChI=1S/C8H15N2.BF4/c1-3-4-5-10-7-6-9(2)8-10;2-1(3,4)5/h6-8H,3-5H2,1-2H3;/q+1;-1
Compound 4: 1-ethyl-3-methylimidazolium 4-methylbenzenesulfonate, C13H18N2O3S, InChI=1S/C7H8O3S.C6H11N2/c1-6-2-4-7(5-3-6)11(8,9)10;1-3-8-5-4-7(2)6-8/h2-5H,1H3,(H,8,9,10);4-6H,3H2,1-2H3/q;+1/p-1
Compound 5: 1-butyl-3-methylimidazolium 2-(2-methoxyethoxy)ethyl sulfate, C13H26N2O6S, InChI=1S/C8H15N2.C5H12O6S/c1-3-4-5-10-7-6-9(2)8-10;1-9-2-3-10-4-5-11-12(6,7)8/h6-8H,3-5H2,1-2H3;2-5H2,1H3,(H,6,7,8)/q+1;/p-1
Compound 6: 1-phenylethanol, C8H10O, InChI=1S/C8H10O/c1-7(9)8-5-3-2-4-6-8/h2-7,9H,1H3
Compound 7: vinyl propanoate, C5H8O2, InChI=1S/C5H8O2/c1-3-5(6)7-4-2/h4H,2-3H2,1H3
Compound 8: 1-phenylethyl propionate, C11H14O2, InChI=1S/C11H14O2/c1-3-11(12)13-9(2)10-7-5-4-6-8-10/h4-9H,3H2,1-2H3
Compound 9: propanoic acid, C3H6O2, InChI=1S/C3H6O2/c1-2-3(4)5/h2H2,1H3,(H,4,5)

System: 1-butyl-3-methylimidazolium hexafluorophosphate; phases: Liquid
Property: Refractive index (Na D-line) (Liquid); method: Standard Abbe refractometry
Temperature, K	Pressure, kPa	Refractive index (Na D-line)	uncertainty
298.2	101.325	1.41	0.001

System: 1-butyl-3-methylimidazolium hexafluorophosphate; phases: Liquid
Property: Mass density, kg/m3 (Liquid); method: Pycnometric method
Temperature, K	Pressure, kPa	Mass density, kg/m3	uncertainty
298.2	101.325	1380	10

System: 1-butyl-3-methylimidazolium tetrafluoroborate; phases: Liquid
Property: Refractive index (Na D-line) (Liquid); method: Standard Abbe refractometry
Temperature, K	Pressure, kPa	Refractive index (Na D-line)	uncertainty
298.2	101.325	1.422	0.001

System: 1-butyl-3-methylimidazolium tetrafluoroborate; phases: Liquid
Property: Mass density, kg/m3 (Liquid); method: Pycnometric method
Temperature, K	Pressure, kPa	Mass density, kg/m3	uncertainty
298.2	101.325	1200	10

System: 1-ethyl-3-methylimidazolium 4-methylbenzenesulfonate; phases: Liquid
Property: Refractive index (Na D-line) (Liquid); method: Standard Abbe refractometry
Temperature, K	Pressure, kPa	Refractive index (Na D-line)	uncertainty
298.2	101.325	1.538	0.001

System: 1-ethyl-3-methylimidazolium 4-methylbenzenesulfonate; phases: Liquid
Property: Mass density, kg/m3 (Liquid); method: Pycnometric method
Temperature, K	Pressure, kPa	Mass density, kg/m3	uncertainty
298.2	101.325	1210	10

System: 1-butyl-3-methylimidazolium 2-(2-methoxyethoxy)ethyl sulfate; phases: Liquid
Property: Refractive index (Na D-line) (Liquid); method: Standard Abbe refractometry
Temperature, K	Pressure, kPa	Refractive index (Na D-line)	uncertainty
298.2	101.325	1.48	0.001

System: 1-butyl-3-methylimidazolium 2-(2-methoxyethoxy)ethyl sulfate; phases: Liquid
Property: Mass density, kg/m3 (Liquid); method: Pycnometric method
Temperature, K	Pressure, kPa	Mass density, kg/m3	uncertainty
298.2	101.325	1170	10

System: 1-phenylethanol; phases: Liquid
Property: Refractive index (Na D-line) (Liquid); method: Standard Abbe refractometry
Temperature, K	Pressure, kPa	Refractive index (Na D-line)	uncertainty
298.2	101.325	1.5225	0.0008

System: 1-phenylethanol; phases: Liquid
Property: Mass density, kg/m3 (Liquid); method: Pycnometric method
Temperature, K	Pressure, kPa	Mass density, kg/m3	uncertainty
298.2	101.325	1010	2

System: vinyl propanoate; phases: Liquid
Property: Refractive index (Na D-line) (Liquid); method: Standard Abbe refractometry
Temperature, K	Pressure, kPa	Refractive index (Na D-line)	uncertainty
298.2	101.325	1.402	0.001

System: vinyl propanoate; phases: Liquid
Property: Mass density, kg/m3 (Liquid); method: Pycnometric method
Temperature, K	Pressure, kPa	Mass density, kg/m3	uncertainty
298.2	101.325	919	2

System: 1-phenylethyl propionate; phases: Liquid
Property: Refractive index (Na D-line) (Liquid); method: Standard Abbe refractometry
Temperature, K	Pressure, kPa	Refractive index (Na D-line)	uncertainty
298.2	101.325	1.4865	0.0008

System: 1-phenylethyl propionate; phases: Liquid
Property: Mass density, kg/m3 (Liquid); method: Pycnometric method
Temperature, K	Pressure, kPa	Mass density, kg/m3	uncertainty
298.2	101.325	1007	2

System: propanoic acid; phases: Liquid
Property: Refractive index (Na D-line) (Liquid); method: Standard Abbe refractometry
Temperature, K	Pressure, kPa	Refractive index (Na D-line)	uncertainty
298.2	101.325	1.382	0.001

System: propanoic acid; phases: Liquid
Property: Mass density, kg/m3 (Liquid); method: Pycnometric method
Temperature, K	Pressure, kPa	Mass density, kg/m3	uncertainty
298.2	101.325	992	1

System: propanoic acid + hexane + 1-butyl-3-methylimidazolium hexafluorophosphate; phases: Liquid mixture 1, Liquid mixture 2
Fixed: Temperature, K = 298.2
Fixed: Pressure, kPa = 101.32
Property: Mole fraction of 1-butyl-3-methylimidazolium hexafluorophosphate (Liquid mixture 1); method: Titration method
Property: Mole fraction of 1-butyl-3-methylimidazolium hexafluorophosphate (Liquid mixture 2); method: Titration method
Property: Mole fraction of propanoic acid (Liquid mixture 2); method: Titration method
Mole fraction of propanoic acid	Mole fraction of 1-butyl-3-methylimidazolium hexafluorophosphate	uncertainty	Mole fraction of 1-butyl-3-methylimidazolium hexafluorophosphate	uncertainty	Mole fraction of propanoic acid	uncertainty
0.77	0.0013	0.0013	0.73	0.0174	0.26	
0.59	0.0012	0.0012	0.76	0.0166	0.235	
0.34	0.0011	0.0011	0.81	0.0153	0.19	
0.19	0.001	0.001	0.94	0.0142	0.06	

System: vinyl propanoate + hexane + 1-butyl-3-methylimidazolium hexafluorophosphate; phases: Liquid mixture 2, Liquid mixture 1
Fixed: Temperature, K = 298.2
Fixed: Pressure, kPa = 101.32
Property: Mole fraction of vinyl propanoate (Liquid mixture 2); method: Titration method
Property: Mole fraction of 1-butyl-3-methylimidazolium hexafluorophosphate (Liquid mixture 1); method: Titration method
Property: Mole fraction of vinyl propanoate (Liquid mixture 1); method: Titration method
Mole fraction of 1-butyl-3-methylimidazolium hexafluorophosphate	Mole fraction of vinyl propanoate	uncertainty	Mole fraction of 1-butyl-3-methylimidazolium hexafluorophosphate	uncertainty	Mole fraction of vinyl propanoate	uncertainty
0.1293	0.8707	0.0146	0.001	0.001	0.8289	
0.2	0.8	0.0152	0.0006	0.0006	0.58	
0.31	0.69	0.0166	0.0005	0.0005	0.32	
0.58	0.42	0.0185	0.0004	0.0004	0.18	
0.77	0.23	0.0156	0.0001	0.0001	0.09	

System: hexane + 1-phenylethyl propionate + 1-butyl-3-methylimidazolium hexafluorophosphate; phases: Liquid mixture 1, Liquid mixture 2
Fixed: Temperature, K = 298.2
Fixed: Pressure, kPa = 101.32
Property: Mole fraction of 1-butyl-3-methylimidazolium hexafluorophosphate (Liquid mixture 1); method: Titration method
Property: Mole fraction of 1-butyl-3-methylimidazolium hexafluorophosphate (Liquid mixture 2); method: Titration method
Property: Mole fraction of 1-phenylethyl propionate (Liquid mixture 2); method: Titration method
Mole fraction of 1-phenylethyl propionate	Mole fraction of 1-butyl-3-methylimidazolium hexafluorophosphate	uncertainty	Mole fraction of 1-butyl-3-methylimidazolium hexafluorophosphate	uncertainty	Mole fraction of 1-phenylethyl propionate	uncertainty
0.751	0.0033	0.0033	0.2625	0.016	0.7373	
0.5104	0.0031	0.0031	0.4264	0.0186	0.5735	
0.2711	0.0023	0.0023	0.5265	0.0195	0.4734	
0.1293	0.0012	0.0012	0.7648	0.0156	0.2351	
0.0758	0	0.0001	0.9227	0.0143	0.0773	

System: 1-phenylethanol + hexane + 1-butyl-3-methylimidazolium hexafluorophosphate; phases: Liquid mixture 2, Liquid mixture 1
Fixed: Temperature, K = 298.2
Fixed: Pressure, kPa = 101.32
Property: Mole fraction of 1-phenylethanol (Liquid mixture 2); method: Titration method
Property: Mole fraction of 1-butyl-3-methylimidazolium hexafluorophosphate (Liquid mixture 1); method: Titration method
Property: Mole fraction of 1-phenylethanol (Liquid mixture 1); method: Titration method
Mole fraction of 1-butyl-3-methylimidazolium hexafluorophosphate	Mole fraction of 1-phenylethanol	uncertainty	Mole fraction of 1-butyl-3-methylimidazolium hexafluorophosphate	uncertainty	Mole fraction of 1-phenylethanol	uncertainty
0.0647	0.9351	0.0143	0.0025	0.0025	0.7918	
0.2359	0.764	0.0156	0.0018	0.0018	0.5314	
0.3609	0.639	0.0174	0.0016	0.0016	0.2875	
0.4099	0.5901	0.0183	0.001	0.001	0.2534	
0.5922	0.4077	0.0183	0	0.0001	0.0751	

System: propanoic acid + hexane + 1-butyl-3-methylimidazolium tetrafluoroborate; phases: Liquid mixture 2, Liquid mixture 1
Fixed: Temperature, K = 298.2
Fixed: Pressure, kPa = 101.32
Property: Mole fraction of propanoic acid (Liquid mixture 2); method: Titration method
Property: Mole fraction of 1-butyl-3-methylimidazolium tetrafluoroborate (Liquid mixture 1); method: Titration method
Property: Mole fraction of propanoic acid (Liquid mixture 1); method: Titration method
Mole fraction of 1-butyl-3-methylimidazolium tetrafluoroborate	Mole fraction of propanoic acid	uncertainty	Mole fraction of 1-butyl-3-methylimidazolium tetrafluoroborate	uncertainty	Mole fraction of propanoic acid	uncertainty
0.1436	0.8561	0.0147	0.0027	0.0027	0.8755	
0.2804	0.7194	0.0162	0.0018	0.0018	0.7152	
0.4464	0.5534	0.019	0.0011	0.0011	0.5188	
0.6356	0.3642	0.0175	0.0008	0.0008	0.2663	
0.8239	0.176	0.015	0.0001	0.0001	0.1504	

System: vinyl propanoate + hexane + 1-butyl-3-methylimidazolium tetrafluoroborate; phases: Liquid mixture 2, Liquid mixture 1
Fixed: Temperature, K = 298.2
Fixed: Pressure, kPa = 101.32
Property: Mole fraction of vinyl propanoate (Liquid mixture 2); method: Titration method
Property: Mole fraction of 1-butyl-3-methylimidazolium tetrafluoroborate (Liquid mixture 1); method: Titration method
Property: Mole fraction of vinyl propanoate (Liquid mixture 1); method: Titration method
Mole fraction of 1-butyl-3-methylimidazolium tetrafluoroborate	Mole fraction of vinyl propanoate	uncertainty	Mole fraction of 1-butyl-3-methylimidazolium tetrafluoroborate	uncertainty	Mole fraction of vinyl propanoate	uncertainty
0.6226	0.3774	0.0177	0.011	0.01	0.8694	
0.7917	0.2083	0.0153	0.01	0.01	0.7128	
0.8432	0.1568	0.0148	0.0009	0.0009	0.5185	
0.8708	0.1292	0.0146	0.0007	0.0007	0.2721	
0.9086	0.0914	0.0144	0.0005	0.0005	0.1326	

System: hexane + 1-phenylethyl propionate + 1-butyl-3-methylimidazolium tetrafluoroborate; phases: Liquid mixture 2, Liquid mixture 1
Fixed: Temperature, K = 298.2
Fixed: Pressure, kPa = 101.32
Property: Mole fraction of 1-phenylethyl propionate (Liquid mixture 2); method: Titration method
Property: Mole fraction of 1-butyl-3-methylimidazolium tetrafluoroborate (Liquid mixture 1); method: Titration method
Property: Mole fraction of 1-phenylethyl propionate (Liquid mixture 1); method: Titration method
Mole fraction of 1-butyl-3-methylimidazolium tetrafluoroborate	Mole fraction of 1-phenylethyl propionate	uncertainty	Mole fraction of 1-butyl-3-methylimidazolium tetrafluoroborate	uncertainty	Mole fraction of 1-phenylethyl propionate	uncertainty
0.2619	0.7379	0.016	0.0045	0.0045	0.7403	
0.4687	0.5312	0.0194	0.003	0.003	0.51	
0.6581	0.3419	0.0171	0.002	0.002	0.3132	
0.7879	0.2121	0.0154	0.0012	0.0012	0.1253	
0.8731	0.1269	0.0146	0	0.0001	0.0511	

System: 1-phenylethanol + hexane + 1-butyl-3-methylimidazolium tetrafluoroborate; phases: Liquid mixture 2, Liquid mixture 1
Fixed: Temperature, K = 298.2
Fixed: Pressure, kPa = 101.32
Property: Mole fraction of 1-phenylethanol (Liquid mixture 2); method: Titration method
Property: Mole fraction of 1-butyl-3-methylimidazolium tetrafluoroborate (Liquid mixture 1); method: Titration method
Property: Mole fraction of 1-phenylethanol (Liquid mixture 1); method: Titration method
Mole fraction of 1-butyl-3-methylimidazolium tetrafluoroborate	Mole fraction of 1-phenylethanol	uncertainty	Mole fraction of 1-butyl-3-methylimidazolium tetrafluoroborate	uncertainty	Mole fraction of 1-phenylethanol	uncertainty
0.165	0.7	0.0147	0	0.0001	0.4335	
0.315	0.6	0.0171	0	0.0001	0.1785	
0.55	0.39	0.0174	0	0.0001	0.0641	
0.7	0.255	0.0153	0	0.0001	0.0183	

System: propanoic acid + hexane + 1-ethyl-3-methylimidazolium 4-methylbenzenesulfonate; phases: Liquid mixture 2, Liquid mixture 1
Fixed: Temperature, K = 298.2
Fixed: Pressure, kPa = 101.32
Property: Mole fraction of propanoic acid (Liquid mixture 2); method: Titration method
Property: Mole fraction of 1-ethyl-3-methylimidazolium 4-methylbenzenesulfonate (Liquid mixture 1); method: Titration method
Property: Mole fraction of propanoic acid (Liquid mixture 1); method: Titration method
Mole fraction of 1-ethyl-3-methylimidazolium 4-methylbenzenesulfonate	Mole fraction of propanoic acid	uncertainty	Mole fraction of 1-ethyl-3-methylimidazolium 4-methylbenzenesulfonate	uncertainty	Mole fraction of propanoic acid	uncertainty
0.085	0.805	0.0144	0	0.0001	0.5221	
0.17	0.73	0.0153	0	0.0001	0.2083	
0.345	0.58	0.0179	0	0.0001	0.0573	
0.545	0.4	0.0176	0	0.0001	0.0212	

System: vinyl propanoate + hexane + 1-ethyl-3-methylimidazolium 4-methylbenzenesulfonate; phases: Liquid mixture 2, Liquid mixture 1
Fixed: Temperature, K = 298.2
Fixed: Pressure, kPa = 101.32
Property: Mole fraction of vinyl propanoate (Liquid mixture 2); method: Titration method
Property: Mole fraction of 1-ethyl-3-methylimidazolium 4-methylbenzenesulfonate (Liquid mixture 1); method: Titration method
Property: Mole fraction of vinyl propanoate (Liquid mixture 1); method: Titration method
Mole fraction of 1-ethyl-3-methylimidazolium 4-methylbenzenesulfonate	Mole fraction of vinyl propanoate	uncertainty	Mole fraction of 1-ethyl-3-methylimidazolium 4-methylbenzenesulfonate	uncertainty	Mole fraction of vinyl propanoate	uncertainty
0.1176	0.8824	0.0145	0.0008	0.0008	0.8213	
0.2533	0.7467	0.0159	0.0007	0.0007	0.6272	
0.4315	0.5685	0.0187	0.0005	0.0005	0.4271	
0.6762	0.3238	0.0168	0.0002	0.0002	0.2213	
0.8266	0.1734	0.015	0	0.0001	0.1129	

System: hexane + 1-phenylethyl propionate + 1-ethyl-3-methylimidazolium 4-methylbenzenesulfonate; phases: Liquid mixture 2, Liquid mixture 1
Fixed: Temperature, K = 298.2
Fixed: Pressure, kPa = 101.32
Property: Mole fraction of 1-phenylethyl propionate (Liquid mixture 2); method: Titration method
Property: Mole fraction of 1-ethyl-3-methylimidazolium 4-methylbenzenesulfonate (Liquid mixture 1); method: Titration method
Property: Mole fraction of 1-phenylethyl propionate (Liquid mixture 1); method: Titration method
Mole fraction of 1-ethyl-3-methylimidazolium 4-methylbenzenesulfonate	Mole fraction of 1-phenylethyl propionate	uncertainty	Mole fraction of 1-ethyl-3-methylimidazolium 4-methylbenzenesulfonate	uncertainty	Mole fraction of 1-phenylethyl propionate	uncertainty
0.4312	0.5687	0.0187	0.0016	0.0016	0.7761	
0.651	0.3485	0.0172	0.0015	0.0015	0.5627	
0.7033	0.2966	0.0164	0.0012	0.0012	0.3403	
0.8637	0.1363	0.0147	0.0011	0.0011	0.1622	
0.9627	0.0373	0.0142	0	0.0001	0.0873	

System: 1-phenylethanol + hexane + 1-ethyl-3-methylimidazolium 4-methylbenzenesulfonate; phases: Liquid mixture 2, Liquid mixture 1
Fixed: Temperature, K = 298.2
Fixed: Pressure, kPa = 101.32
Property: Mole fraction of 1-phenylethanol (Liquid mixture 2); method: Titration method
Property: Mole fraction of 1-ethyl-3-methylimidazolium 4-methylbenzenesulfonate (Liquid mixture 1); method: Titration method
Property: Mole fraction of 1-phenylethanol (Liquid mixture 1); method: Titration method
Mole fraction of 1-ethyl-3-methylimidazolium 4-methylbenzenesulfonate	Mole fraction of 1-phenylethanol	uncertainty	Mole fraction of 1-ethyl-3-methylimidazolium 4-methylbenzenesulfonate	uncertainty	Mole fraction of 1-phenylethanol	uncertainty
0.095	0.65	0.0141	0.0003	0.0003	0.0491	
0.22	0.645	0.0151	0.0002	0.0002	0.0246	
0.445	0.48	0.0186	0.0001	0.0001	0.006	
0.645	0.31	0.0158	0	0.0001	0.0038	

System: propanoic acid + hexane + 1-butyl-3-methylimidazolium 2-(2-methoxyethoxy)ethyl sulfate; phases: Liquid mixture 2, Liquid mixture 1
Fixed: Temperature, K = 298.2
Fixed: Pressure, kPa = 101.32
Property: Mole fraction of propanoic acid (Liquid mixture 2); method: Titration method
Property: Mole fraction of 1-butyl-3-methylimidazolium 2-(2-methoxyethoxy)ethyl sulfate (Liquid mixture 1); method: Titration method
Property: Mole fraction of propanoic acid (Liquid mixture 1); method: Titration method
Mole fraction of 1-butyl-3-methylimidazolium 2-(2-methoxyethoxy)ethyl sulfate	Mole fraction of propanoic acid	uncertainty	Mole fraction of 1-butyl-3-methylimidazolium 2-(2-methoxyethoxy)ethyl sulfate	uncertainty	Mole fraction of propanoic acid	uncertainty
0.065	0.785	0.0117	0	0.0001	0.5198	
0.14	0.785	0.0139	0	0.0001	0.2136	
0.3	0.62	0.0176	0	0.0001	0.0465	
0.475	0.46	0.0188	0	0.0001	0.0074	

System: vinyl propanoate + hexane + 1-butyl-3-methylimidazolium 2-(2-methoxyethoxy)ethyl sulfate; phases: Liquid mixture 2, Liquid mixture 1
Fixed: Temperature, K = 298.2
Fixed: Pressure, kPa = 101.32
Property: Mole fraction of vinyl propanoate (Liquid mixture 2); method: Titration method
Property: Mole fraction of 1-butyl-3-methylimidazolium 2-(2-methoxyethoxy)ethyl sulfate (Liquid mixture 1); method: Titration method
Property: Mole fraction of vinyl propanoate (Liquid mixture 1); method: Titration method
Mole fraction of 1-butyl-3-methylimidazolium 2-(2-methoxyethoxy)ethyl sulfate	Mole fraction of vinyl propanoate	uncertainty	Mole fraction of 1-butyl-3-methylimidazolium 2-(2-methoxyethoxy)ethyl sulfate	uncertainty	Mole fraction of vinyl propanoate	uncertainty
0.319	0.681	0.0168	0.001	0.001	0.8638	
0.4581	0.5419	0.0192	0.0009	0.0009	0.6952	
0.6413	0.3587	0.0174	0.0008	0.0008	0.5013	
0.7772	0.2228	0.0155	0.0007	0.0007	0.2633	
0.8786	0.1214	0.0146	0.0005	0.0005	0.135	

System: hexane + 1-phenylethyl propionate + 1-butyl-3-methylimidazolium 2-(2-methoxyethoxy)ethyl sulfate; phases: Liquid mixture 2, Liquid mixture 1
Fixed: Temperature, K = 298.2
Fixed: Pressure, kPa = 101.32
Property: Mole fraction of 1-phenylethyl propionate (Liquid mixture 2); method: Titration method
Property: Mole fraction of 1-butyl-3-methylimidazolium 2-(2-methoxyethoxy)ethyl sulfate (Liquid mixture 1); method: Titration method
Property: Mole fraction of 1-phenylethyl propionate (Liquid mixture 1); method: Titration method
Mole fraction of 1-butyl-3-methylimidazolium 2-(2-methoxyethoxy)ethyl sulfate	Mole fraction of 1-phenylethyl propionate	uncertainty	Mole fraction of 1-butyl-3-methylimidazolium 2-(2-methoxyethoxy)ethyl sulfate	uncertainty	Mole fraction of 1-phenylethyl propionate	uncertainty
0.2059	0.7939	0.0153	0.005	0.005	0.7428	
0.3285	0.671	0.0169	0.0031	0.0031	0.4822	
0.4941	0.5058	0.0199	0.002	0.002	0.2775	
0.7512	0.2487	0.0158	0.001	0.001	0.136	
0.877	0.123	0.0146	0	0.0001	0.0669	

System: 1-phenylethanol + hexane + 1-butyl-3-methylimidazolium 2-(2-methoxyethoxy)ethyl sulfate; phases: Liquid mixture 2, Liquid mixture 1
Fixed: Temperature, K = 298.2
Fixed: Pressure, kPa = 101.32
Property: Mole fraction of 1-phenylethanol (Liquid mixture 2); method: Titration method
Property: Mole fraction of 1-butyl-3-methylimidazolium 2-(2-methoxyethoxy)ethyl sulfate (Liquid mixture 1); method: Titration method
Property: Mole fraction of 1-phenylethanol (Liquid mixture 1); method: Titration method
Mole fraction of 1-butyl-3-methylimidazolium 2-(2-methoxyethoxy)ethyl sulfate	Mole fraction of 1-phenylethanol	uncertainty	Mole fraction of 1-butyl-3-methylimidazolium 2-(2-methoxyethoxy)ethyl sulfate	uncertainty	Mole fraction of 1-phenylethanol	uncertainty
0.09	0.72	0.0141	0	0.0001	0.0618	
0.19	0.66	0.0158	0	0.0001	0.0249	
0.395	0.495	0.0191	0	0.0001	0.0092	
0.59	0.33	0.0161	0	0.0001	0.0055	
