Measured thermophysical data. Great increase of the electrical conductivity of ionic liquids in aqueous solutions
Source: Fluid Phase Equilib., 2006, 10.1016/j.fluid.2006.05.028
Compound 1: 1-ethylpyridinium bromide, C7H10BrN, InChI=1S/C7H10N.BrH/c1-2-8-6-4-3-5-7-8;/h3-7H,2H2,1H3;1H/q+1;/p-1
Compound 2: 1-ethyl-3-methylimidazolium chloride, C6H11ClN2, InChI=1S/C6H11N2.ClH/c1-3-8-5-4-7(2)6-8;/h4-6H,3H2,1-2H3;1H/q+1;/p-1
Compound 3: 1-ethyl-3-methylimidazolium tetrafluoroborate, C6H11BF4N2, InChI=1S/C6H11N2.BF4/c1-3-8-5-4-7(2)6-8;2-1(3,4)5/h4-6H,3H2,1-2H3;/q+1;-1
Compound 4: 1-ethyl-3-methylimidazolium ethyl sulfate, C8H16N2O4S, InChI=1S/C6H11N2.C2H6O4S/c1-3-8-5-4-7(2)6-8;1-2-6-7(3,4)5/h4-6H,3H2,1-2H3;2H2,1H3,(H,3,4,5)/q+1;/p-1
Compound 5: water, H2O, InChI=1S/H2O/h1H2
Compound 6: aluminum bromide, AlBr3, InChI=1S/Al.3BrH/h;3*1H/q+3;;;/p-3
Compound 7: aluminum chloride, AlCl3, InChI=1S/Al.3ClH/h;3*1H/q+3;;;/p-3
Compound 8: 1-ethyl-3-methylimidazolium bromide, C6H11BrN2, InChI=1S/C6H11N2.BrH/c1-3-8-5-4-7(2)6-8;/h4-6H,3H2,1-2H3;1H/q+1;/p-1

System: 1-ethyl-3-methylimidazolium tetrafluoroborate; phases: Liquid
Property: Electrical conductivity, S/m (Liquid); method: Alternating current cell with electrodes
Pressure, kPa	Temperature, K	Electrical conductivity, S/m	uncertainty
101.3	298.15	1.63	0.16

System: 1-ethyl-3-methylimidazolium tetrafluoroborate; phases: Liquid
Property: Mass density, kg/m3 (Liquid); method: VIBTUB:UFactor:32
Pressure, kPa	Temperature, K	Mass density, kg/m3	uncertainty
101.3	298.15	1279	5

System: 1-ethyl-3-methylimidazolium ethyl sulfate; phases: Liquid
Property: Electrical conductivity, S/m (Liquid); method: Alternating current cell with electrodes
Pressure, kPa	Temperature, K	Electrical conductivity, S/m	uncertainty
101.3	298.15	0.398	0.04

System: 1-ethyl-3-methylimidazolium ethyl sulfate; phases: Liquid
Property: Mass density, kg/m3 (Liquid); method: VIBTUB:UFactor:32
Pressure, kPa	Temperature, K	Mass density, kg/m3	uncertainty
101.3	298.15	1228	4

System: water; phases: Liquid
Property: Electrical conductivity, S/m (Liquid); method: Alternating current cell with electrodes
Pressure, kPa	Temperature, K	Electrical conductivity, S/m	uncertainty
101.3	298.15	0.00264	0.00026

System: water + 1-ethyl-3-methylimidazolium tetrafluoroborate; phases: Liquid
Fixed: Pressure, kPa = 101.3
Fixed: Temperature, K = 298.15
Property: Electrical conductivity, S/m (Liquid); method: Alternating current cell with electrodes
Mass fraction of water	Electrical conductivity, S/m	uncertainty
0	1.63	0.16
0.05	4.1	0.41
0.1	6.07	0.61
0.15	7.64	0.76
0.2	8.15	0.82
0.25	8.44	0.84
0.3	8.52	0.85
0.35	8.47	0.85
0.4	8.36	0.84
0.45	8.18	0.82
0.5	7.9	0.79
0.55	7.43	0.74
0.6	7.1	0.71
0.65	6.56	0.66
0.7	6.13	0.61
0.75	5.43	0.54
0.8	4.76	0.48
0.85	4.03	0.4
0.9	2.95	0.3
0.95	1.79	0.18
1	0.00264	0.00026

System: water + 1-ethyl-3-methylimidazolium tetrafluoroborate; phases: Liquid
Fixed: Pressure, kPa = 101.3
Fixed: Temperature, K = 298.15
Property: Mass density, kg/m3 (Liquid); method: VIBTUB:UFactor:32
Mass fraction of water	Mass density, kg/m3	uncertainty
0	1279	5
0.05	1253	5
0.1	1229	4
0.15	1207	4
0.2	1187	4
0.25	1169	4
0.3	1153	3
0.35	1137	3
0.4	1123	3
0.45	1110	3
0.5	1098	3
0.55	1087	3
0.6	1077	3
0.65	1067	3
0.7	1057	3
0.75	1047	3
0.8	1038	2
0.85	1028	2
0.9	1018	2
0.95	1007	2

System: water + 1-ethyl-3-methylimidazolium ethyl sulfate; phases: Liquid
Fixed: Pressure, kPa = 101.3
Fixed: Temperature, K = 298.15
Property: Electrical conductivity, S/m (Liquid); method: Alternating current cell with electrodes
Mass fraction of water	Electrical conductivity, S/m	uncertainty
0	0.398	0.04
0.05	1.3	0.13
0.1	2.03	0.2
0.15	2.55	0.26
0.2	3.03	0.3
0.25	3.54	0.35
0.3	3.85	0.39
0.35	4.14	0.41
0.4	4.31	0.43
0.45	4.41	0.44
0.5	4.45	0.45
0.55	4.43	0.44
0.6	4.33	0.43
0.65	4.16	0.42
0.7	3.95	0.4
0.75	3.66	0.37
0.8	3.26	0.33
0.85	2.76	0.28
0.9	2.11	0.21
0.95	1.35	0.14
1	0.00264	0.00026

System: water + 1-ethyl-3-methylimidazolium ethyl sulfate; phases: Liquid
Fixed: Pressure, kPa = 101.3
Fixed: Temperature, K = 298.15
Property: Mass density, kg/m3 (Liquid); method: VIBTUB:UFactor:32
Mass fraction of water	Mass density, kg/m3	uncertainty
0	1228	4
0.05	1214	4
0.1	1201	4
0.15	1187	4
0.2	1174	4
0.25	1161	4
0.3	1148	3
0.35	1135	3
0.4	1123	3
0.45	1111	3
0.5	1099	3
0.55	1088	3
0.6	1076	3
0.65	1066	3
0.7	1055	3
0.75	1045	3
0.8	1035	2
0.85	1025	2
0.9	1016	2
0.95	1007	2

System: aluminum bromide + 1-ethyl-3-methylimidazolium bromide; phases: Liquid
Fixed: Pressure, kPa = 101.3
Fixed: Temperature, K = 298.15
Property: Electrical conductivity, S/m (Liquid); method: Alternating current cell with electrodes
Mole fraction of aluminum bromide	Electrical conductivity, S/m	uncertainty
0.35	0.625	0.063
0.6	0.877	0.088

System: aluminum bromide + 1-ethyl-3-methylimidazolium bromide; phases: Liquid
Fixed: Pressure, kPa = 101.3
Fixed: Temperature, K = 298.15
Property: Mass density, kg/m3 (Liquid); method: VIBTUB:UFactor:32
Mole fraction of aluminum bromide	Mass density, kg/m3	uncertainty
0.35	1620	10
0.6	1699	11

System: 1-ethylpyridinium bromide + aluminum bromide; phases: Liquid
Property: Electrical conductivity, S/m (Liquid); method: Alternating current cell with electrodes
Pressure, kPa	Temperature, K	Mole fraction of aluminum bromide	Electrical conductivity, S/m	uncertainty
101.3	298.15	0.35	0.292	0.029

System: 1-ethylpyridinium bromide + aluminum bromide; phases: Liquid
Property: Mass density, kg/m3 (Liquid); method: VIBTUB:UFactor:32
Mole fraction of aluminum bromide	Pressure, kPa	Temperature, K	Mass density, kg/m3	uncertainty
0.35	101.3	298.15	1626	10

System: aluminum chloride + 1-ethyl-3-methylimidazolium chloride; phases: Liquid
Property: Electrical conductivity, S/m (Liquid); method: Alternating current cell with electrodes
Pressure, kPa	Temperature, K	Mole fraction of aluminum chloride	Electrical conductivity, S/m	uncertainty
101.3	298.15	0.33	0.907	0.091

System: aluminum chloride + 1-ethyl-3-methylimidazolium chloride; phases: Liquid
Property: Mass density, kg/m3 (Liquid); method: VIBTUB:UFactor:32
Mole fraction of aluminum chloride	Pressure, kPa	Temperature, K	Mass density, kg/m3	uncertainty
0.33	101.3	298.15	1241	5

System: aluminum bromide + water + 1-ethyl-3-methylimidazolium bromide; phases: Liquid
Fixed: Pressure, kPa = 101.3
Fixed: Temperature, K = 298.15
Property: Electrical conductivity, S/m (Liquid); method: Alternating current cell with electrodes
Solvent: Mole fraction of aluminum bromide	Mass fraction of water	Electrical conductivity, S/m	uncertainty
0.35	0	0.625	0.063
0.35	0.05	1.36	0.14
0.35	0.1	2.59	0.26
0.35	0.15	3.93	0.39
0.35	0.2	5.41	0.54
0.35	0.25	6.37	0.64
0.35	0.3	7.95	0.8
0.35	0.35	8.96	0.9
0.35	0.4	9.73	0.97
0.35	0.45	10.05	1.01
0.35	0.5	10.13	1.01
0.35	0.55	10.16	1.02
0.35	0.6	9.91	0.99
0.35	0.65	9.47	0.95
0.35	0.7	8.75	0.88
0.35	0.75	7.92	0.79
0.35	0.8	6.67	0.67
0.35	0.85	5.36	0.54
0.35	0.9	4	0.4
0.35	0.95	2.03	0.2
0.35	1	0.00264	0.00026
0.6	0	0.877	0.088
0.6	0.05	1.27	0.13
0.6	0.1	3.56	0.36
0.6	0.15	5.19	0.52
0.6	0.2	7.16	0.72
0.6	0.25	8.58	0.86
0.6	0.3	9.63	0.96
0.6	0.35	10.16	1.02
0.6	0.4	10.27	1.03
0.6	0.45	10.02	1
0.6	0.5	9.43	0.94
0.6	0.55	8.97	0.9
0.6	0.6	8.15	0.82
0.6	0.65	7.28	0.73
0.6	0.7	6.3	0.63
0.6	0.75	5.26	0.53
0.6	0.8	4.21	0.42
0.6	0.85	3.18	0.32
0.6	0.9	2.14	0.21
0.6	0.95	1.12	0.11
0.6	1	0.00264	0.00026

System: aluminum bromide + water + 1-ethyl-3-methylimidazolium bromide; phases: Liquid
Fixed: Pressure, kPa = 101.3
Fixed: Temperature, K = 298.15
Property: Mass density, kg/m3 (Liquid); method: VIBTUB:UFactor:32
Solvent: Mole fraction of aluminum bromide	Mass fraction of water	Mass density, kg/m3	uncertainty
0.35	0	1620	10
0.35	0.05	1537	9
0.35	0.1	1463	8
0.35	0.15	1397	7
0.35	0.2	1339	6
0.35	0.25	1289	6
0.35	0.3	1245	5
0.35	0.35	1208	5
0.35	0.4	1176	4
0.35	0.45	1148	4
0.35	0.5	1125	4
0.35	0.55	1106	3
0.35	0.6	1090	3
0.35	0.65	1076	3
0.35	0.7	1063	3
0.35	0.75	1053	3
0.35	0.8	1042	3
0.35	0.85	1032	3
0.35	0.9	1021	3
0.35	0.95	1009	3
0.6	0	1699	11
0.6	0.05	1644	11
0.6	0.1	1591	10
0.6	0.15	1541	9
0.6	0.2	1492	8
0.6	0.25	1445	8
0.6	0.3	1401	7
0.6	0.35	1359	7
0.6	0.4	1318	6
0.6	0.45	1280	5
0.6	0.5	1244	5
0.6	0.55	1210	5
0.6	0.6	1178	4
0.6	0.65	1149	4
0.6	0.7	1121	4
0.6	0.75	1095	3
0.6	0.8	1072	3
0.6	0.85	1051	3
0.6	0.9	1031	3
0.6	0.95	1014	3

System: 1-ethylpyridinium bromide + aluminum bromide + water; phases: Liquid
Fixed: Pressure, kPa = 101.3
Fixed: Temperature, K = 298.15
Fixed: Solvent: Mole fraction of aluminum bromide = 0.35
Property: Electrical conductivity, S/m (Liquid); method: Alternating current cell with electrodes
Mass fraction of water	Electrical conductivity, S/m	uncertainty
0	0.292	0.029
0.05	0.899	0.09
0.1	1.6	0.16
0.15	2.92	0.29
0.2	4.32	0.43
0.25	6.13	0.61
0.3	7.43	0.74
0.35	8.57	0.86
0.4	9.45	0.95
0.45	9.84	0.98
0.5	9.99	1
0.55	9.86	0.99
0.6	9.58	0.96
0.65	8.96	0.9
0.7	8.17	0.82
0.75	7.24	0.72
0.8	6.22	0.62
0.85	4.94	0.49
0.9	3.56	0.36
0.95	1.93	0.19
1	0.00264	0.00026

System: 1-ethylpyridinium bromide + aluminum bromide + water; phases: Liquid
Fixed: Solvent: Mole fraction of aluminum bromide = 0.35
Fixed: Pressure, kPa = 101.3
Fixed: Temperature, K = 298.15
Property: Mass density, kg/m3 (Liquid); method: VIBTUB:UFactor:32
Mass fraction of water	Mass density, kg/m3	uncertainty
0	1626	10
0.05	1579	9
0.1	1533	9
0.15	1489	8
0.2	1447	7
0.25	1407	7
0.3	1368	6
0.35	1330	6
0.4	1295	5
0.45	1261	5
0.5	1228	5
0.55	1198	4
0.6	1169	4
0.65	1141	4
0.7	1116	3
0.75	1092	3
0.8	1069	3
0.85	1048	3
0.9	1029	3
0.95	1012	2

System: aluminum chloride + water + 1-ethyl-3-methylimidazolium chloride; phases: Liquid
Fixed: Pressure, kPa = 101.3
Fixed: Temperature, K = 298.15
Fixed: Solvent: Mole fraction of aluminum chloride = 0.33
Property: Electrical conductivity, S/m (Liquid); method: Alternating current cell with electrodes
Mass fraction of water	Electrical conductivity, S/m	uncertainty
0	0.907	0.091
0.05	1.58	0.16
0.1	2.46	0.25
0.15	3.59	0.36
0.2	5.04	0.5
0.25	6.09	0.61
0.3	7.48	0.75
0.35	8.43	0.84
0.4	8.77	0.88
0.45	8.9	0.89
0.5	8.49	0.85
0.55	8.12	0.81
0.6	7.48	0.75
0.65	6.73	0.67
0.7	5.91	0.59
0.75	5.07	0.51
0.8	4.17	0.42
0.85	3.23	0.32
0.9	2.2	0.22
0.95	1.26	0.13
1	0.00264	0.00026

System: aluminum chloride + water + 1-ethyl-3-methylimidazolium chloride; phases: Liquid
Fixed: Solvent: Mole fraction of aluminum chloride = 0.33
Fixed: Pressure, kPa = 101.3
Fixed: Temperature, K = 298.15
Property: Mass density, kg/m3 (Liquid); method: VIBTUB:UFactor:32
Mass fraction of water	Mass density, kg/m3	uncertainty
0	1241	5
0.05	1228	5
0.1	1214	5
0.15	1201	4
0.2	1188	4
0.25	1175	4
0.3	1162	4
0.35	1150	4
0.4	1137	4
0.45	1125	4
0.5	1112	3
0.55	1100	3
0.6	1088	3
0.65	1076	3
0.7	1064	3
0.75	1053	3
0.8	1041	3
0.85	1030	3
0.9	1018	3
0.95	1007	3
