Measured thermophysical data. Thermodynamics of the carbon dioxide plus argon (CO2 + Ar) system: An improved reference mixture model and measurements of vapor-liquid, vapor-solid, liquid-solid and vapor-liquid-solid phase equilibrium data at the temperatures 213 to 299 K and pressures up to 16 MPa
Source: Fluid Phase Equilib., 2018, 10.1016/j.fluid.2018.02.009
Compound 1: carbon dioxide, CO2, InChI=1S/CO2/c2-1-3, purity 99.9993%
Compound 2: argon, Ar, InChI=1S/Ar, purity 99.9999%

System: carbon dioxide; phases: Liquid, Gas
Property: Vapor or sublimation pressure, kPa (Liquid); method: Closed cell (Static) method
Temperature, K	Vapor or sublimation pressure, kPa	uncertainty
213.22	410.4	1.2
223.146	681.8	2.4
243.129	1426.3	2.5
263.134	2646.7	4.3
273.22	3491.3	5.4
283.146	4502.3	7
299.219	6595	10.2

System: carbon dioxide + argon; phases: Liquid, Gas
Property: Vapor or sublimation pressure, kPa (Liquid); method: Closed cell (Static) method
Temperature, K	Mole fraction of carbon dioxide	Vapor or sublimation pressure, kPa	uncertainty
213.139	0.80825	9030.2	29.6
213.145	0.75037	10911.3	34.9
213.146	0.66989	12965.4	40.7
213.147	0.58309	14460.8	45
213.145	0.51738	15097.1	46.9
223.146	0.91098	5057.3	19.6
223.146	0.80927	9043.9	29.5
223.147	0.66075	13007	40.8
223.148	0.49163	14886.4	46.3
243.122	0.978	2539.9	17.9
243.121	0.93623	4502.4	19.3
243.12	0.87687	6996.3	24.7
243.12	0.81941	9078.6	30
243.119	0.75435	11028.1	35.1
243.12	0.68575	12595.7	39.4
243.12	0.59223	13866.3	43.1
243.121	0.56416	14037.5	43.5
243.12	0.55458	14075.3	43.6
263.133	0.98995	3133.4	16.8
263.134	0.96776	4166.8	19
263.134	0.94463	5190.3	20.4
263.132	0.91006	6615.1	23.7
263.132	0.87315	8002.6	26.9
263.134	0.83051	9418.1	30.5
263.134	0.76717	11114	35
263.135	0.69537	12320.9	38.5
263.135	0.67129	12524.1	38.9
263.135	0.65867	12586.7	39
263.134	0.63983	12633.8	39.2
273.257	0.8785	8397	27.6
273.256	0.83403	9737.1	31.2
273.259	0.78776	10811.9	34
273.257	0.74269	11447.5	35.7
273.257	0.71988	11588.9	36
283.146	0.95181	6520.5	22.5
283.145	0.89281	8570.3	28.3
283.146	0.86078	9440.5	30.3
283.144	0.84627	9762.7	30.8
283.144	0.84625	9762.7	30.8
283.144	0.82121	10184.2	32
299.217	0.98187	7243.6	24.2
299.218	0.96284	7817.2	25.7
299.218	0.95315	8037	25.6
299.218	0.95314	8037	25.6
299.217	0.94756	8120.5	25.5
299.218	0.94468	8144	25.4

System: carbon dioxide + argon; phases: Liquid, Crystal
Property: Vapor or sublimation pressure, kPa (Liquid); method: Closed cell (Static) method
Temperature, K	Mole fraction of carbon dioxide	Vapor or sublimation pressure, kPa	uncertainty
213.146	0.86621	6845.5	7230.3
213.137	0.81524	13918.6	2989.5
213.138	0.7863	16144.1	24035.4

System: carbon dioxide + argon; phases: Gas, Liquid
Property: Vapor or sublimation pressure, kPa (Gas); method: Closed cell (Static) method
Temperature, K	Mole fraction of carbon dioxide	Vapor or sublimation pressure, kPa	uncertainty
213.146	0.86621	6845.5	21.5

System: carbon dioxide + argon; phases: Gas, Liquid
Property: Mole fraction of carbon dioxide (Gas); method: Chromatography
Temperature, K	Pressure, kPa	Mole fraction of carbon dioxide	uncertainty
213.139	9030.2	0.13313	0.00124
213.137	9030.2	0.13349	0.00124
213.146	10921.7	0.14882	0.00139
213.146	12979.3	0.19008	0.00178
213.147	14476.2	0.25502	0.00239
213.145	15104	0.31634	0.00299
223.146	5063.2	0.2119	0.00252
223.146	9051.2	0.18189	0.00169
223.146	13019.6	0.23183	0.00216
223.147	14892.4	0.36516	0.00342
243.121	4502.4	0.41406	0.00387
243.12	6996.3	0.32878	0.00307
243.12	9078.7	0.30893	0.00288
243.12	11027.9	0.31569	0.00294
243.12	12595.7	0.34311	0.0032
243.12	13866.3	0.41171	0.00392
243.12	14037.5	0.43814	0.00433
243.12	14075.3	0.44809	0.00442
263.134	3133.4	0.88303	0.00116
263.134	4167.4	0.72201	0.00261
263.134	5190.3	0.62697	0.00348
263.133	6615.1	0.54864	0.0042
263.132	8002.6	0.50717	0.00459
263.134	9418.1	0.48823	0.00454
263.134	11114	0.49429	0.0046
263.134	12320.9	0.53774	0.00434
263.135	12524	0.56042	0.00415
263.134	12586.7	0.57349	0.00429
263.134	12633.8	0.59424	0.00446
273.258	6859.5	0.66489	0.00312
273.256	8391.2	0.61313	0.0036
273.257	9746.9	0.59654	0.00375
273.257	10820.9	0.60553	0.00367
273.257	11456.5	0.63721	0.0035
273.257	11596.5	0.66165	0.00328
283.145	6520.4	0.80919	0.00178
283.145	8570.3	0.72667	0.00254
283.144	9440.5	0.71655	0.00264
283.145	9762.6	0.71807	0.00262
283.143	10184.2	0.72944	0.00253
283.144	10405	0.75465	0.00236
299.218	7243.7	0.96083	0.00045
299.218	7817.3	0.93733	0.00061
299.218	8037	0.93312	0.00064
299.218	8120.5	0.9342	0.00063
299.218	8144	0.93613	0.00065
299.218	8144	0.936	0.00064

System: carbon dioxide + argon; phases: Gas, Crystal
Fixed: Temperature, K = 213.146
Property: Vapor or sublimation pressure, kPa (Gas); method: Closed cell (Static) method
Mole fraction of carbon dioxide	Vapor or sublimation pressure, kPa	uncertainty
0.42357	1049.5	4.1
0.20333	2595.2	9.1
0.13572	5490.9	93.9
0.13132	6844.9	94.8

System: carbon dioxide + argon; phases: Gas, Liquid
Property: Vapor or sublimation pressure, kPa (Gas); method: Closed cell (Static) method
Temperature, K	Mole fraction of carbon dioxide	Vapor or sublimation pressure, kPa	uncertainty
213.146	0.13132	6844.9	21.5
