Measured thermophysical data. Solubility of cinnamic acid in supercritical carbon dioxide and subcritical 1,1,1,2-tetrafluoroethane: Experimental data and modelling
Source: Fluid Phase Equilib., 2019, 10.1016/j.fluid.2018.10.009
Compound 1: (E)-cinnamic acid, C9H8O2, InChI=1S/C9H8O2/c10-9(11)7-6-8-4-2-1-3-5-8/h1-7H,(H,10,11)/b7-6+, purity 99%
Compound 2: carbon dioxide, CO2, InChI=1S/CO2/c2-1-3, purity 99.9%
Compound 3: 1,1,1,2-tetrafluoroethane, C2H2F4, InChI=1S/C2H2F4/c3-1-2(4,5)6/h1H2, purity 99.9%
Compound 4: ethanol, C2H6O, InChI=1S/C2H6O/c1-2-3/h3H,2H2,1H3, purity 99.7%
Compound 5: ethyl acetate, C4H8O2, InChI=1S/C4H8O2/c1-3-6-4(2)5/h3H2,1-2H3, purity 99.5%
Compound 6: pentane, C5H12, InChI=1S/C5H12/c1-3-5-4-2/h3-5H2,1-2H3, purity 99%

System: (E)-cinnamic acid + carbon dioxide; phases: Fluid (supercritical or subcritical phases), Crystal
Property: Mole fraction of (E)-cinnamic acid (Fluid (supercritical or subcritical phases)); method: UV vis spectroscopy of trapped and dissolved solute in ethanol
Temperature, K	Pressure, kPa	Mole fraction of (E)-cinnamic acid	uncertainty
308	9000	5.52e-05	4.3e-06
308	11000	7.09e-05	4.2e-06
308	13000	8.1e-05	4.1e-06
308	15000	8.66e-05	4e-06
308	18000	9.6e-05	4.1e-06
318	9000	3.57e-05	5.1e-06
318	11000	7.15e-05	5e-06
318	13000	9.59e-05	4.4e-06
318	15000	0.00011	4e-06
318	18000	0.000132	4e-06
328	9000	2.78e-05	5.2e-06
328	11000	6.15e-05	5.4e-06
328	13000	0.000102	5e-06
328	15000	0.000132	5e-06
328	18000	0.000164	5e-06

System: (E)-cinnamic acid + 1,1,1,2-tetrafluoroethane; phases: Liquid, Crystal
Property: Mole fraction of (E)-cinnamic acid (Liquid); method: UV vis spectroscopy of trapped and dissolved solute in ethanol
Temperature, K	Pressure, kPa	Mole fraction of (E)-cinnamic acid	uncertainty
308	9000	7.3e-05	4.9e-06
308	11000	0.000101	5e-06
308	13000	0.000137	6e-06
308	15000	0.000187	7e-06
308	18000	0.000269	7e-06
318	9000	8.3e-05	5.5e-06
318	11000	0.000121	6e-06
318	13000	0.000166	7e-06
318	15000	0.000235	8e-06
318	18000	0.000343	8e-06
328	9000	9.2e-05	6.2e-06
328	11000	0.00014	6e-06
328	13000	0.000193	8e-06
328	15000	0.000267	9e-06
328	18000	0.000404	1e-05

System: (E)-cinnamic acid + ethanol + carbon dioxide; phases: Fluid (supercritical or subcritical phases), Crystal
Fixed: Solvent: Mole fraction of ethanol = 0.05
Property: Mole fraction of (E)-cinnamic acid (Fluid (supercritical or subcritical phases)); method: UV vis spectroscopy of trapped and dissolved solute in ethanol
Temperature, K	Pressure, kPa	Mole fraction of (E)-cinnamic acid	uncertainty
308	9000	8.59e-05	1.78e-05
308	11000	0.000131	1.8e-05
308	13000	0.000154	1.7e-05
308	15000	0.000181	1.7e-05
308	18000	0.000194	1.7e-05
318	9000	4.15e-05	1.86e-05
318	11000	0.000125	1.9e-05
318	13000	0.000181	1.8e-05
318	15000	0.000209	1.7e-05
318	18000	0.000253	1.8e-05
328	9000	3.73e-05	1.83e-05
328	11000	0.0001	1.9e-05
328	13000	0.000197	1.9e-05
328	15000	0.000266	1.8e-05
328	18000	0.000342	1.8e-05

System: (E)-cinnamic acid + ethyl acetate + carbon dioxide; phases: Fluid (supercritical or subcritical phases), Crystal
Fixed: Solvent: Mole fraction of ethyl acetate = 0.05
Property: Mole fraction of (E)-cinnamic acid (Fluid (supercritical or subcritical phases)); method: UV vis spectroscopy of trapped and dissolved solute in ethanol
Temperature, K	Pressure, kPa	Mole fraction of (E)-cinnamic acid	uncertainty
308	9000	8.56e-05	1.73e-05
308	11000	0.000106	1.7e-05
308	13000	0.000127	1.7e-05
308	15000	0.00015	1.7e-05
308	18000	0.000155	1.7e-05
318	9000	4.04e-05	1.81e-05
318	11000	0.000107	1.8e-05
318	13000	0.000133	1.7e-05
318	15000	0.000158	1.7e-05
318	18000	0.000187	1.7e-05
328	9000	3.13e-05	1.76e-05
328	11000	6.85e-05	1.79e-05
328	13000	0.000129	1.8e-05
328	15000	0.000175	1.8e-05
328	18000	0.000224	1.8e-05

System: (E)-cinnamic acid + pentane + carbon dioxide; phases: Fluid (supercritical or subcritical phases), Crystal
Fixed: Solvent: Mole fraction of pentane = 0.05
Property: Mole fraction of (E)-cinnamic acid (Fluid (supercritical or subcritical phases)); method: UV vis spectroscopy of trapped and dissolved solute in ethanol
Temperature, K	Pressure, kPa	Mole fraction of (E)-cinnamic acid	uncertainty
308	9000	4.46e-05	1.73e-05
308	11000	6.54e-05	1.73e-05
308	13000	7.51e-05	1.72e-05
308	15000	8.12e-05	1.72e-05
308	18000	8.85e-05	1.72e-05
318	9000	1.4e-05	1.4e-05
318	11000	5.19e-05	1.75e-05
318	13000	7.44e-05	1.73e-05
318	15000	9.15e-05	1.73e-05
318	18000	0.00011	1.7e-05
328	9000	1.32e-05	1.32e-05
328	11000	3.32e-05	1.75e-05
328	13000	7.8e-05	1.77e-05
328	15000	0.000115	1.7e-05
328	18000	0.000133	1.7e-05
