Measured thermophysical data. Measurements of the isobaric heat capacity of R1234yf in liquid phase at temperatures from 305 K to 355 K and pressures up to to 5 MPa
Source: Fluid Phase Equilib., 2014, 10.1016/j.fluid.2014.05.029
Compound 1: 2,3,3,3-tetrafluoro-1-propene, C3H2F4, InChI=1S/C3H2F4/c1-2(4)3(5,6)7/h1H2, purity 99.9%
Compound 2: chlorodifluoromethane, CHClF2, InChI=1S/CHClF2/c2-1(3)4/h1H, purity 99.9%

System: 2,3,3,3-tetrafluoro-1-propene; phases: Liquid
Property: Molar heat capacity at constant pressure, J/K/mol (Liquid); method: Large sample (1 g) DSC
Temperature, K	Pressure, kPa	Molar heat capacity at constant pressure, J/K/mol	uncertainty
305.15	1500	160.9126874408	5.9301628256
305.15	1980	159.5441883272	5.9301628256
305.15	2550	160.1143962912	5.9301628256
305.15	3020	158.6318555848	5.8161212328
305.15	3500	158.1756892136	5.8161212328
305.15	3990	157.7195228424	5.8161212328
305.15	4480	157.0352732856	5.8161212328
305.15	5080	156.0088989504	5.70207964
310.15	1500	164.9041431888	6.0442044184
310.15	1980	163.8777688536	6.0442044184
310.15	2550	162.7373529256	6.0442044184
310.15	3020	161.8250201832	5.9301628256
310.15	3500	161.1407706264	5.9301628256
310.15	3990	159.65822992	5.9301628256
310.15	4480	158.9739803632	5.8161212328
310.15	5080	158.1756892136	5.8161212328
315.15	1500	168.5534741584	6.1582460112
315.15	1980	167.2990166376	6.1582460112
315.15	2550	165.930517524	6.1582460112
315.15	3020	164.9041431888	6.0442044184
315.15	3500	163.8777688536	6.0442044184
315.15	3990	162.1671449616	5.9301628256
315.15	4480	161.1407706264	5.9301628256
315.15	5080	160.4565210696	5.9301628256
320.15	1500	172.6589714992	6.3863291968
320.15	1980	170.7202644216	6.272287604
320.15	2550	169.351765308	6.272287604
320.15	3020	168.21134938	6.1582460112
320.15	3500	166.6147670808	6.1582460112
320.15	3990	164.6760600032	6.0442044184
320.15	4480	163.4216024824	6.0442044184
320.15	5080	162.50926974	5.9301628256
325.15	1980	175.2819281336	6.5003707896
325.15	2550	173.2291794632	6.3863291968
325.15	3020	171.8606803496	6.3863291968
325.15	3500	169.8079316792	6.272287604
325.15	3990	167.4130582304	6.1582460112
325.15	4480	166.1586007096	6.1582460112
325.15	5080	165.0181847816	6.0442044184
330.15	1980	180.8699661808	6.6144123824
330.15	2550	177.904884768	6.5003707896
330.15	3020	176.0802192832	6.5003707896
330.15	3500	173.7993874272	6.3863291968
330.15	3990	170.8343060144	6.272287604
330.15	4480	169.2377237152	6.272287604
330.15	5080	167.8692246016	6.1582460112
335.15	1980	187.9405449344	6.9565371608
335.15	2550	183.8350475936	6.7284539752
335.15	3020	181.326132552	6.7284539752
335.15	3500	178.3610511392	6.6144123824
335.15	3990	174.8257617624	6.3863291968
335.15	4480	172.8870546848	6.3863291968
335.15	5080	171.2904723856	6.272287604
340.15	2550	191.9320006824	7.0705787536
340.15	3020	188.2826697128	6.9565371608
340.15	3500	183.9490891864	6.7284539752
340.15	3990	179.7295502528	6.6144123824
340.15	4480	177.2206352112	6.5003707896
340.15	5080	175.053844948	6.5003707896
345.15	2550	203.3361599624	7.5267451248
345.15	3020	197.6340803224	7.2986619392
345.15	3500	191.2477511256	7.0705787536
345.15	3990	185.7737546712	6.842495568
345.15	4480	182.3525068872	6.7284539752
345.15	5080	179.5014670672	6.6144123824
350.15	3020	210.406738716	7.7548283104
350.15	3500	201.5114944776	7.412703532
350.15	3990	193.300499796	7.0705787536
350.15	4480	188.8528776768	6.9565371608
350.15	5080	184.9754635216	6.842495568
355.15	3500	216.2228599488	7.982911496
355.15	3990	203.4502015552	7.5267451248
355.15	4480	197.0638723584	7.2986619392
355.15	5080	191.7039174968	7.0705787536

System: chlorodifluoromethane; phases: Liquid
Property: Molar heat capacity at constant pressure, J/K/mol (Liquid); method: Large sample (1 g) DSC
Temperature, K	Pressure, kPa	Molar heat capacity at constant pressure, J/K/mol	uncertainty
305.15	2060	110.0739503672	4.0640028808
305.15	2560	110.1604185136	4.0640028808
305.15	3040	109.5551414888	4.0640028808
305.15	3680	109.2957370496	4.0640028808
305.15	4110	108.8633963176	3.9775347344
305.15	4570	108.2581192928	3.9775347344
305.15	5120	107.7393104144	3.9775347344
310.15	2060	112.840931052	4.1504710272
310.15	2560	112.0627177344	4.1504710272
310.15	3040	111.543908856	4.1504710272
310.15	3680	110.5062910992	4.0640028808
310.15	4110	110.24688666	4.0640028808
310.15	4570	109.382205196	4.0640028808
310.15	5120	109.0363326104	3.9775347344
315.15	2060	115.5214435904	4.2369391736
315.15	2560	114.3108895408	4.2369391736
315.15	3040	113.7920806624	4.1504710272
315.15	3680	112.40859032	4.1504710272
315.15	4110	112.1491858808	4.1504710272
315.15	4570	111.3709725632	4.0640028808
315.15	5120	110.7656955384	4.0640028808
320.15	2560	117.0778702256	4.32340732
320.15	3040	116.3861250544	4.32340732
320.15	3680	114.7432302728	4.2369391736
320.15	4110	114.137953248	4.2369391736
320.15	4570	113.4462080768	4.1504710272
320.15	5120	112.5815266128	4.1504710272
325.15	2560	120.4501279352	4.4098754664
325.15	3040	119.5854464712	4.4098754664
325.15	3680	117.596679104	4.32340732
325.15	4110	116.73199764	4.32340732
325.15	4570	115.9537843224	4.2369391736
325.15	5120	114.8296984192	4.2369391736
330.15	3040	123.7359174984	4.5828117592
330.15	3680	121.2283412528	4.4963436128
330.15	4110	120.1042553496	4.4098754664
330.15	4570	119.0666375928	4.4098754664
330.15	5120	117.596679104	4.32340732
335.15	4110	124.4276626696	4.5828117592
335.15	4570	122.9577041808	4.4963436128
335.15	5120	121.1418731064	4.4963436128
340.15	4570	127.8863885256	4.6692799056
340.15	5120	125.6382167192	4.6692799056
345.15	5120	131.431582528	4.8422161984
