Measured thermophysical data. Determination and correlation of molar excess enthalpies of binary systems 2,4-pentanedione + (1-butanol, + 2-methyl-1-propanol, + 1-pentanol, + 1-heptane, + ethyl acetate, and + water)
Source: Fluid Phase Equilib., 2008, 10.1016/j.fluid.2007.12.008
Compound 1: 2,4-pentanedione, C5H8O2, InChI=1S/C5H8O2/c1-4(6)3-5(2)7/h3H2,1-2H3
Compound 2: butan-1-ol, C4H10O, InChI=1S/C4H10O/c1-2-3-4-5/h5H,2-4H2,1H3
Compound 3: 2-methyl-1-propanol, C4H10O, InChI=1S/C4H10O/c1-4(2)3-5/h4-5H,3H2,1-2H3
Compound 4: pentan-1-ol, C5H12O, InChI=1S/C5H12O/c1-2-3-4-5-6/h6H,2-5H2,1H3
Compound 5: heptane, C7H16, InChI=1S/C7H16/c1-3-5-7-6-4-2/h3-7H2,1-2H3
Compound 6: ethyl acetate, C4H8O2, InChI=1S/C4H8O2/c1-3-6-4(2)5/h3H2,1-2H3
Compound 7: water, H2O, InChI=1S/H2O/h1H2

System: 2,4-pentanedione; phases: Liquid
Fixed: Pressure, kPa = 101.325
Property: Mass density, kg/m3 (Liquid); method: PYCNOM:UFactor:8
Temperature, K	Mass density, kg/m3	uncertainty
298.15	972.1	2.6
313.15	954	2.9
328.15	939.3	3.2

System: butan-1-ol + 2,4-pentanedione; phases: Liquid
Property: Excess molar enthalpy (molar enthalpy of mixing), kJ/mol (Liquid); method: Flow calorimetry
Temperature, K	Pressure, kPa	Mole fraction of 2,4-pentanedione	Excess molar enthalpy (molar enthalpy of mixing), kJ/mol	uncertainty
298.15	100	0.0494	0.293	0.0081
298.15	100	0.15	0.7844	0.0175
298.15	100	0.2495	1.1146	0.0241
298.15	100	0.3501	1.3325	0.0287
298.15	100	0.4001	1.4055	0.0302
298.15	100	0.4494	1.4549	0.0312
298.15	100	0.4993	1.4811	0.0318
298.15	100	0.5497	1.485	0.0318
298.15	100	0.5994	1.4633	0.0314
298.15	100	0.6497	1.4136	0.0303
298.15	100	0.6993	1.3389	0.0288
298.15	100	0.8	1.0824	0.0234
298.15	100	0.8499	0.8897	0.0198
298.15	100	0.9499	0.3399	0.0093
298.15	10000	0.0495	0.2848	0.0079
298.15	10000	0.1502	0.7634	0.017
298.15	10000	0.2498	1.0903	0.0237
298.15	10000	0.3505	1.3245	0.0285
298.15	10000	0.4005	1.3865	0.0298
298.15	10000	0.4498	1.4488	0.0311
298.15	10000	0.4996	1.4675	0.0315
298.15	10000	0.5501	1.4745	0.0316
298.15	10000	0.5998	1.4573	0.0313
298.15	10000	0.6501	1.4084	0.0302
298.15	10000	0.6996	1.3354	0.0287
298.15	10000	0.8003	1.0793	0.0234
298.15	10000	0.8501	0.8839	0.0197
298.15	10000	0.95	0.3384	0.0092
313.15	100	0.0494	0.3223	0.0089
313.15	100	0.15	0.8576	0.019
313.15	100	0.2495	1.2424	0.0268
313.15	100	0.3501	1.5061	0.0323
313.15	100	0.4001	1.5862	0.034
313.15	100	0.4494	1.6396	0.0351
313.15	100	0.4993	1.6664	0.0356
313.15	100	0.5497	1.664	0.0356
313.15	100	0.5994	1.6339	0.035
313.15	100	0.6497	1.5701	0.0336
313.15	100	0.6993	1.4777	0.0317
313.15	100	0.8	1.174	0.0254
313.15	100	0.8499	0.9508	0.0211
313.15	100	0.9499	0.3674	0.01
313.15	10000	0.0495	0.3219	0.0089
313.15	10000	0.1502	0.8562	0.019
313.15	10000	0.2498	1.2355	0.0267
313.15	10000	0.3505	1.5038	0.0323
313.15	10000	0.4005	1.584	0.0339
313.15	10000	0.4498	1.638	0.035
313.15	10000	0.4996	1.659	0.0355
313.15	10000	0.5501	1.6586	0.0355
313.15	10000	0.5998	1.629	0.0348
313.15	10000	0.6501	1.5678	0.0336
313.15	10000	0.6996	1.4733	0.0316
313.15	10000	0.8003	1.1634	0.0252
313.15	10000	0.8501	0.9447	0.021
313.15	10000	0.95	0.3651	0.0099
328.15	100	0.0607	0.3867	0.0097
328.15	100	0.1779	0.9437	0.0208
328.15	100	0.2899	1.3937	0.03
328.15	100	0.3976	1.6381	0.0351
328.15	100	0.4494	1.7195	0.0367
328.15	100	0.5005	1.7371	0.0371
328.15	100	0.551	1.7353	0.0371
328.15	100	0.5994	1.6985	0.0363
328.15	100	0.6471	1.6395	0.0351
328.15	100	0.694	1.5804	0.0338
328.15	100	0.7401	1.4457	0.0309
328.15	100	0.831	1.0824	0.0236
328.15	100	0.8743	0.8575	0.0185
328.15	100	0.9582	0.3142	0.0078
328.15	10000	0.0495	0.3389	0.009
328.15	10000	0.1502	0.8481	0.0188
328.15	10000	0.2498	1.2586	0.0272
328.15	10000	0.3505	1.5553	0.0333
328.15	10000	0.4005	1.6323	0.0349
328.15	10000	0.4498	1.7089	0.0365
328.15	10000	0.4996	1.7166	0.0367
328.15	10000	0.5501	1.7213	0.0368
328.15	10000	0.5998	1.6847	0.036
328.15	10000	0.6501	1.619	0.0346
328.15	10000	0.6996	1.5222	0.0327
328.15	10000	0.8003	1.1705	0.0254
328.15	10000	0.8501	0.944	0.021
328.15	10000	0.95	0.3864	0.0101

System: 2-methyl-1-propanol + 2,4-pentanedione; phases: Liquid
Property: Excess molar enthalpy (molar enthalpy of mixing), kJ/mol (Liquid); method: Flow calorimetry
Temperature, K	Pressure, kPa	Mole fraction of 2,4-pentanedione	Excess molar enthalpy (molar enthalpy of mixing), kJ/mol	uncertainty
298.15	100	0.0496	0.3324	0.0091
298.15	100	0.1505	0.8726	0.0194
298.15	100	0.2502	1.2678	0.0274
298.15	100	0.351	1.5246	0.0327
298.15	100	0.401	1.5928	0.0341
298.15	100	0.4503	1.6465	0.0353
298.15	100	0.5002	1.6718	0.0358
298.15	100	0.5506	1.6693	0.0357
298.15	100	0.6003	1.6454	0.0352
298.15	100	0.6506	1.5762	0.0338
298.15	100	0.7001	1.4864	0.0319
298.15	100	0.8006	1.187	0.0257
298.15	100	0.8504	0.9645	0.0215
298.15	100	0.9501	0.37	0.0101
298.15	10000	0.0494	0.3264	0.0088
298.15	10000	0.1501	0.8446	0.0188
298.15	10000	0.2496	1.2034	0.026
298.15	10000	0.3503	1.4462	0.0311
298.15	10000	0.4003	1.5254	0.0327
298.15	10000	0.4496	1.5793	0.0338
298.15	10000	0.4995	1.6079	0.0344
298.15	10000	0.5499	1.6108	0.0345
298.15	10000	0.5996	1.5868	0.034
298.15	10000	0.6499	1.5335	0.0329
298.15	10000	0.6994	1.4485	0.0311
298.15	10000	0.8001	1.1646	0.0252
298.15	10000	0.85	0.9561	0.0213
298.15	10000	0.9499	0.3688	0.01
313.15	100	0.0496	0.378	0.0103
313.15	100	0.1505	0.9805	0.0217
313.15	100	0.2502	1.398	0.0301
313.15	100	0.351	1.6783	0.036
313.15	100	0.401	1.7643	0.0377
313.15	100	0.4503	1.8196	0.0389
313.15	100	0.5002	1.8439	0.0394
313.15	100	0.5506	1.8377	0.0393
313.15	100	0.6003	1.7968	0.0384
313.15	100	0.6506	1.7226	0.0369
313.15	100	0.7001	1.6118	0.0346
313.15	100	0.8006	1.2696	0.0275
313.15	100	0.8504	1.026	0.0228
313.15	100	0.9501	0.3884	0.0107
313.15	10000	0.0494	0.3533	0.0096
313.15	10000	0.1501	0.9196	0.0204
313.15	10000	0.2496	1.3107	0.0283
313.15	10000	0.3503	1.5858	0.034
313.15	10000	0.4003	1.6772	0.0359
313.15	10000	0.4496	1.7407	0.0372
313.15	10000	0.4995	1.774	0.0379
313.15	10000	0.5499	1.7776	0.038
313.15	10000	0.5996	1.7415	0.0372
313.15	10000	0.6499	1.6833	0.036
313.15	10000	0.6994	1.5747	0.0338
313.15	10000	0.8001	1.2439	0.0269
313.15	10000	0.85	1.0119	0.0225
313.15	10000	0.9499	0.3795	0.0105
328.15	100	0.0496	0.3968	0.0108
328.15	100	0.1505	1.0444	0.023
328.15	100	0.2502	1.4816	0.0319
328.15	100	0.351	1.7695	0.0379
328.15	100	0.401	1.8527	0.0396
328.15	100	0.4503	1.9062	0.0407
328.15	100	0.5002	1.923	0.041
328.15	100	0.5506	1.9059	0.0407
328.15	100	0.6003	1.8529	0.0396
328.15	100	0.6506	1.765	0.0377
328.15	100	0.7001	1.642	0.0352
328.15	100	0.8006	1.2717	0.0275
328.15	100	0.8504	1.0214	0.0227
328.15	100	0.9501	0.3941	0.0107
328.15	10000	0.0494	0.3858	0.0105
328.15	10000	0.1501	1.0191	0.0225
328.15	10000	0.2496	1.4583	0.0314
328.15	10000	0.3503	1.7395	0.0373
328.15	10000	0.4003	1.8262	0.0391
328.15	10000	0.4496	1.8807	0.0402
328.15	10000	0.4995	1.9012	0.0406
328.15	10000	0.5499	1.8871	0.0403
328.15	10000	0.5996	1.8404	0.0393
328.15	10000	0.6499	1.7558	0.0376
328.15	10000	0.6994	1.6339	0.0351
328.15	10000	0.8001	1.2675	0.0274
328.15	10000	0.85	1.0189	0.0227
328.15	10000	0.9499	0.3869	0.0106

System: pentan-1-ol + 2,4-pentanedione; phases: Liquid
Property: Excess molar enthalpy (molar enthalpy of mixing), kJ/mol (Liquid); method: Flow calorimetry
Temperature, K	Pressure, kPa	Mole fraction of 2,4-pentanedione	Excess molar enthalpy (molar enthalpy of mixing), kJ/mol	uncertainty
298.15	100	0.05	0.3072	0.0084
298.15	100	0.1492	0.7922	0.0176
298.15	100	0.25	1.1461	0.0248
298.15	100	0.3496	1.3791	0.0297
298.15	100	0.3991	1.4639	0.0314
298.15	100	0.4495	1.5181	0.0326
298.15	100	0.4997	1.547	0.0332
298.15	100	0.5496	1.5586	0.0334
298.15	100	0.5992	1.5405	0.033
298.15	100	0.6499	1.4956	0.0321
298.15	100	0.699	1.4198	0.0305
298.15	100	0.8	1.1552	0.025
298.15	100	0.8495	0.9588	0.0213
298.15	100	0.9501	0.3718	0.01
298.15	10000	0.0501	0.306	0.0083
298.15	10000	0.1496	0.7834	0.0174
298.15	10000	0.2505	1.1269	0.0244
298.15	10000	0.3503	1.3448	0.029
298.15	10000	0.3998	1.4309	0.0307
298.15	10000	0.4502	1.4896	0.032
298.15	10000	0.5004	1.5211	0.0326
298.15	10000	0.5503	1.53	0.0328
298.15	10000	0.5999	1.5154	0.0325
298.15	10000	0.6505	1.4729	0.0316
298.15	10000	0.6995	1.4019	0.0301
298.15	10000	0.8005	1.1467	0.0248
298.15	10000	0.8499	0.9534	0.0212
298.15	10000	0.9502	0.3699	0.01
313.15	100	0.05	0.3345	0.0092
313.15	100	0.1492	0.8676	0.0192
313.15	100	0.25	1.2723	0.0275
313.15	100	0.3496	1.538	0.033
313.15	100	0.3991	1.634	0.035
313.15	100	0.4495	1.7022	0.0364
313.15	100	0.4997	1.7347	0.0371
313.15	100	0.5496	1.7436	0.0373
313.15	100	0.5992	1.721	0.0368
313.15	100	0.6499	1.6655	0.0356
313.15	100	0.699	1.578	0.0338
313.15	100	0.8	1.2797	0.0276
313.15	100	0.8495	1.0564	0.0235
313.15	100	0.9501	0.3766	0.0107
313.15	10000	0.0501	0.3308	0.0091
313.15	10000	0.1496	0.8581	0.019
313.15	10000	0.2505	1.2602	0.0272
313.15	10000	0.3503	1.5221	0.0327
313.15	10000	0.3998	1.6131	0.0345
313.15	10000	0.4502	1.672	0.0358
313.15	10000	0.5004	1.7019	0.0364
313.15	10000	0.5503	1.7033	0.0364
313.15	10000	0.5999	1.6752	0.0358
313.15	10000	0.6505	1.6155	0.0346
313.15	10000	0.6995	1.5242	0.0327
313.15	10000	0.8005	1.2198	0.0263
313.15	10000	0.8499	1.0018	0.0223
313.15	10000	0.9502	0.3684	0.0102
328.15	100	0.05	0.3406	0.0094
328.15	100	0.1492	0.8974	0.0199
328.15	100	0.25	1.3167	0.0284
328.15	100	0.3496	1.588	0.034
328.15	100	0.3991	1.6886	0.0361
328.15	100	0.4495	1.749	0.0374
328.15	100	0.4997	1.778	0.038
328.15	100	0.5496	1.7761	0.0379
328.15	100	0.5992	1.7444	0.0373
328.15	100	0.6499	1.6745	0.0358
328.15	100	0.699	1.5698	0.0337
328.15	100	0.8	1.2399	0.0268
328.15	100	0.8495	1.0023	0.0223
328.15	100	0.9501	0.3799	0.0104
328.15	10000	0.0501	0.3223	0.009
328.15	10000	0.1496	0.8705	0.0194
328.15	10000	0.2505	1.3079	0.0282
328.15	10000	0.3503	1.5874	0.034
328.15	10000	0.3998	1.6746	0.0358
328.15	10000	0.4502	1.7349	0.0371
328.15	10000	0.5004	1.7648	0.0377
328.15	10000	0.5503	1.7609	0.0376
328.15	10000	0.5999	1.7272	0.0369
328.15	10000	0.6505	1.6595	0.0355
328.15	10000	0.6995	1.5577	0.0334
328.15	10000	0.8005	1.2277	0.0265
328.15	10000	0.8499	0.9974	0.0222
328.15	10000	0.9502	0.3776	0.0103

System: 2,4-pentanedione + heptane; phases: Liquid
Fixed: Pressure, kPa = 100
Property: Excess molar enthalpy (molar enthalpy of mixing), kJ/mol (Liquid); method: Flow calorimetry
Temperature, K	Mole fraction of 2,4-pentanedione	Excess molar enthalpy (molar enthalpy of mixing), kJ/mol	uncertainty
298.15	0.0493	0.2689	0.0076
298.15	0.1503	0.7444	0.0165
298.15	0.2498	1.0103	0.0218
298.15	0.3504	1.1472	0.0247
298.15	0.3997	1.1872	0.0255
298.15	0.45	1.211	0.026
298.15	0.4999	1.2145	0.0261
298.15	0.5506	1.2019	0.0258
298.15	0.5995	1.17	0.0252
298.15	0.6502	1.1166	0.024
298.15	0.7001	1.0419	0.0225
298.15	0.7998	0.8194	0.0179
298.15	0.8503	0.6605	0.0148
298.15	0.95	0.2431	0.0069
313.15	0.0493	0.2401	0.0067
313.15	0.1503	0.6405	0.0143
313.15	0.2498	0.898	0.0194
313.15	0.3504	0.9992	0.0216
313.15	0.3997	1.0233	0.0221
313.15	0.45	1.0444	0.0225
313.15	0.4999	1.0487	0.0226
313.15	0.5506	1.0391	0.0225
313.15	0.5995	1.014	0.0219
313.15	0.6502	0.9658	0.021
313.15	0.7001	0.9023	0.0197
313.15	0.7998	0.7043	0.0156
313.15	0.8503	0.5649	0.0129
313.15	0.95	0.2046	0.0059
328.15	0.0493	0.2248	0.0061
328.15	0.1503	0.5724	0.0128
328.15	0.2498	0.7641	0.0167
328.15	0.3504	0.8348	0.0181
328.15	0.3997	0.8505	0.0184
328.15	0.45	0.8459	0.0184
328.15	0.4999	0.829	0.0181
328.15	0.5506	0.8014	0.0176
328.15	0.5995	0.7559	0.0167
328.15	0.6502	0.6966	0.0155
328.15	0.7001	0.6177	0.014
328.15	0.7998	0.427	0.0102
328.15	0.8503	0.3229	0.0081

System: 2,4-pentanedione + ethyl acetate; phases: Liquid
Fixed: Pressure, kPa = 100
Property: Excess molar enthalpy (molar enthalpy of mixing), kJ/mol (Liquid); method: Flow calorimetry
Temperature, K	Mole fraction of 2,4-pentanedione	Excess molar enthalpy (molar enthalpy of mixing), kJ/mol	uncertainty
298.15	0.0997	-0.0095	0.0009
298.15	0.2003	-0.022	0.001
298.15	0.2503	-0.0278	0.0012
298.15	0.3006	-0.0318	0.0012
298.15	0.3498	-0.0347	0.0013
298.15	0.4005	-0.0372	0.0014
298.15	0.4502	-0.0362	0.0013
298.15	0.5001	-0.0356	0.0013
298.15	0.5503	-0.0339	0.0013
298.15	0.5994	-0.0315	0.0013
298.15	0.6499	-0.0283	0.0012
298.15	0.6995	-0.0241	0.0011
298.15	0.7992	-0.0148	0.001
298.15	0.8998	-0.0064	0.0009
313.15	0.0997	-0.0231	0.001
313.15	0.2003	-0.0471	0.0015
313.15	0.2503	-0.0601	0.0017
313.15	0.3006	-0.0698	0.0019
313.15	0.3498	-0.0758	0.002
313.15	0.4005	-0.079	0.0021
313.15	0.4502	-0.08	0.0021
313.15	0.5001	-0.0787	0.0021
313.15	0.5503	-0.0759	0.002
313.15	0.5994	-0.0719	0.002
313.15	0.6499	-0.0664	0.0018
313.15	0.6995	-0.0598	0.0017
313.15	0.7992	-0.0427	0.0014
313.15	0.8998	-0.0236	0.001
328.15	0.0997	-0.0335	0.0012
328.15	0.2003	-0.0663	0.0018
328.15	0.2503	-0.0828	0.0021
328.15	0.3006	-0.097	0.0024
328.15	0.3498	-0.1073	0.0026
328.15	0.4005	-0.1125	0.0027
328.15	0.4502	-0.1149	0.0028
328.15	0.5001	-0.1152	0.0028
328.15	0.5503	-0.1124	0.0027
328.15	0.5994	-0.1071	0.0026
328.15	0.6499	-0.0991	0.0025
328.15	0.6995	-0.0881	0.0023
328.15	0.7992	-0.0583	0.0017
328.15	0.8998	-0.0243	0.0011

System: 2,4-pentanedione + water; phases: Liquid
Fixed: Pressure, kPa = 100
Property: Excess molar enthalpy (molar enthalpy of mixing), kJ/mol (Liquid); method: Flow calorimetry
Temperature, K	Mole fraction of 2,4-pentanedione	Excess molar enthalpy (molar enthalpy of mixing), kJ/mol	uncertainty
298.15	0.2004	0.1562	0.0042
298.15	0.4007	0.3191	0.0075
298.15	0.5985	0.4905	0.0111
298.15	0.6486	0.5327	0.012
298.15	0.7007	0.5778	0.013
298.15	0.7492	0.6211	0.0139
298.15	0.7974	0.665	0.0149
298.15	0.8507	0.6904	0.0152
298.15	0.903	0.5691	0.0129
298.15	0.9532	0.3312	0.0087
313.15	0.2004	0.306	0.0072
313.15	0.4007	0.5056	0.0116
313.15	0.5985	0.7235	0.0162
313.15	0.6486	0.7755	0.0173
313.15	0.7007	0.8322	0.0185
313.15	0.7492	0.8901	0.0197
313.15	0.7974	0.938	0.0205
313.15	0.8507	0.8439	0.0185
313.15	0.903	0.6411	0.0147
313.15	0.9532	0.368	0.0098
328.15	0.2004	0.5153	0.0116
328.15	0.4007	0.8388	0.0186
328.15	0.5985	1.1138	0.0245
328.15	0.6486	1.1879	0.0261
328.15	0.7007	1.2707	0.0278
328.15	0.7492	1.307	0.0284
328.15	0.7974	1.2127	0.0263
328.15	0.8507	1.0296	0.0226
328.15	0.903	0.7421	0.0172
328.15	0.9532	0.3796	0.011
