Measured thermophysical data. Isobaric vapor-liquid equilibrium for the binary mixtures of nonane with cyclohexane, toluene, m-xylene, or p-xylene at 101.3 kPa
Source: Fluid Phase Equilib., 2012, 10.1016/j.fluid.2011.10.009
Compound 1: cyclohexane, C6H12, InChI=1S/C6H12/c1-2-4-6-5-3-1/h1-6H2, purity 99.98%
Compound 2: toluene, C7H8, InChI=1S/C7H8/c1-7-5-3-2-4-6-7/h2-6H,1H3, purity 99.96%
Compound 3: 1,3-dimethylbenzene, C8H10, InChI=1S/C8H10/c1-7-4-3-5-8(2)6-7/h3-6H,1-2H3, purity 99.99%
Compound 4: 1,4-dimethylbenzene, C8H10, InChI=1S/C8H10/c1-7-3-5-8(2)6-4-7/h3-6H,1-2H3, purity 99.95%
Compound 5: nonane, C9H20, InChI=1S/C9H20/c1-3-5-7-9-8-6-4-2/h3-9H2,1-2H3, purity 99.98%
Compound 6: benzene, C6H6, InChI=1S/C6H6/c1-2-4-6-5-3-1/h1-6H, purity 99.97%

System: cyclohexane; phases: Liquid, Gas
Property: Vapor or sublimation pressure, kPa (Liquid); method: Ebulliometric method (Recirculating still)
Temperature, K	Vapor or sublimation pressure, kPa	uncertainty
353.7	101.3	1

System: toluene; phases: Liquid, Gas
Property: Vapor or sublimation pressure, kPa (Liquid); method: Closed cell (Static) method
Temperature, K	Vapor or sublimation pressure, kPa	uncertainty
383.4	101.3	1
383.8	101.3	1

System: 1,3-dimethylbenzene; phases: Liquid, Gas
Property: Vapor or sublimation pressure, kPa (Liquid); method: Ebulliometric method (Recirculating still)
Temperature, K	Vapor or sublimation pressure, kPa	uncertainty
412	101.3	1

System: 1,4-dimethylbenzene; phases: Liquid, Gas
Property: Vapor or sublimation pressure, kPa (Liquid); method: Ebulliometric method (Recirculating still)
Temperature, K	Vapor or sublimation pressure, kPa	uncertainty
411.4	101.3	1

System: nonane; phases: Liquid, Gas
Property: Vapor or sublimation pressure, kPa (Liquid); method: Ebulliometric method (Recirculating still)
Temperature, K	Vapor or sublimation pressure, kPa	uncertainty
423.8	101.3	1

System: benzene; phases: Liquid, Gas
Property: Vapor or sublimation pressure, kPa (Liquid); method: Closed cell (Static) method
Temperature, K	Vapor or sublimation pressure, kPa	uncertainty
353.3	101.3	1

System: benzene + toluene; phases: Liquid, Gas
Fixed: Pressure, kPa = 101.3
Property: Boiling temperature at pressure P, K (Liquid); method: Closed cell (Static) method
Mole fraction of toluene	Boiling temperature at pressure P, K	uncertainty
0	353.3	0.2
0.099	355.8	0.2
0.217	358.5	0.2
0.222	358.5	0.2
0.367	362.1	0.2
0.402	362.9	0.2
0.511	366.3	0.2
0.517	366.3	0.2
0.638	369.8	0.2
0.735	373.5	0.2
0.869	378.4	0.2
0.913	380.2	0.2
1	383.8	0.2

System: benzene + toluene; phases: Gas, Liquid
Fixed: Pressure, kPa = 101.3
Property: Mole fraction of toluene (Gas); method: Chromatography
Mole fraction of toluene	Mole fraction of toluene	uncertainty
0	0	
0.099	0.043	0.043
0.217	0.107	0.107
0.222	0.107	0.107
0.367	0.202	0.2
0.402	0.208	0.2
0.511	0.31	0.2
0.517	0.31	0.2
0.638	0.432	0.2
0.735	0.538	0.2
0.869	0.758	0.2
0.913	0.825	0.175
1	1	

System: cyclohexane + nonane; phases: Liquid, Gas
Fixed: Pressure, kPa = 101.3
Property: Boiling temperature at pressure P, K (Liquid); method: Ebulliometric method (Recirculating still)
Mole fraction of nonane	Boiling temperature at pressure P, K	uncertainty
0	353.7	0.2
0.061	354.8	0.2
0.161	357.9	0.3
0.275	364.4	0.3
0.405	369.6	0.3
0.499	376.1	0.3
0.596	382.8	0.3
0.715	389.9	0.3
0.802	399	0.3
0.833	401.4	0.3
0.91	410.9	0.3
0.951	416	0.4
0.982	420.8	0.4
1	423.8	0.2

System: cyclohexane + nonane; phases: Gas, Liquid
Fixed: Pressure, kPa = 101.3
Property: Mole fraction of nonane (Gas); method: Chromatography
Mole fraction of nonane	Mole fraction of nonane	uncertainty
0	0	
0.061	0.005	0.005
0.161	0.02	0.02
0.275	0.052	0.052
0.405	0.085	0.085
0.499	0.134	0.134
0.596	0.2	0.2
0.715	0.295	0.2
0.802	0.443	0.2
0.833	0.477	0.2
0.91	0.679	0.2
0.951	0.779	0.2
0.982	0.912	0.088
1	1	

System: toluene + nonane; phases: Liquid, Gas
Fixed: Pressure, kPa = 101.3
Property: Boiling temperature at pressure P, K (Liquid); method: Ebulliometric method (Recirculating still)
Mole fraction of nonane	Boiling temperature at pressure P, K	uncertainty
0	383.4	0.2
0.078	384.5	0.2
0.156	386.1	0.2
0.222	387.7	0.2
0.336	390.5	0.2
0.484	395.4	0.2
0.581	399.1	0.2
0.629	401.1	0.3
0.68	403.8	0.3
0.707	405	0.3
0.765	407.5	0.3
0.858	412.7	0.3
0.918	416.4	0.3
0.973	420.7	0.3
1	423.8	0.2

System: toluene + nonane; phases: Gas, Liquid
Fixed: Pressure, kPa = 101.3
Property: Mole fraction of nonane (Gas); method: Chromatography
Mole fraction of nonane	Mole fraction of nonane	uncertainty
0	0	
0.078	0.033	0.033
0.156	0.064	0.064
0.222	0.093	0.093
0.336	0.151	0.151
0.484	0.24	0.2
0.581	0.321	0.2
0.629	0.359	0.2
0.68	0.425	0.2
0.707	0.456	0.2
0.765	0.52	0.2
0.858	0.673	0.2
0.918	0.782	0.2
0.973	0.916	0.084
1	1	

System: 1,3-dimethylbenzene + nonane; phases: Liquid, Gas
Fixed: Pressure, kPa = 101.3
Property: Boiling temperature at pressure P, K (Liquid); method: Ebulliometric method (Recirculating still)
Mole fraction of nonane	Boiling temperature at pressure P, K	uncertainty
0	412	0.2
0.034	412.1	0.2
0.144	412.2	0.2
0.268	412.8	0.2
0.299	413	0.2
0.359	413.4	0.2
0.458	414.4	0.2
0.549	415.4	0.2
0.642	416.5	0.2
0.708	417.4	0.2
0.792	418.8	0.2
0.852	420	0.2
0.947	422.1	0.2
1	423.8	0.2

System: 1,3-dimethylbenzene + nonane; phases: Gas, Liquid
Fixed: Pressure, kPa = 101.3
Property: Mole fraction of nonane (Gas); method: Chromatography
Mole fraction of nonane	Mole fraction of nonane	uncertainty
0	0	
0.034	0.029	0.029
0.144	0.123	0.123
0.268	0.23	0.2
0.299	0.25	0.2
0.359	0.304	0.2
0.458	0.389	0.2
0.549	0.466	0.2
0.642	0.562	0.2
0.708	0.626	0.2
0.792	0.722	0.2
0.852	0.798	0.2
0.947	0.921	0.079
1	1	

System: 1,4-dimethylbenzene + nonane; phases: Liquid, Gas
Fixed: Pressure, kPa = 101.3
Property: Boiling temperature at pressure P, K (Liquid); method: Ebulliometric method (Recirculating still)
Mole fraction of nonane	Boiling temperature at pressure P, K	uncertainty
0	411.4	0.2
0.107	412.6	0.2
0.227	413.9	0.2
0.325	415	0.2
0.443	416.1	0.2
0.527	417.3	0.2
0.633	418.4	0.2
0.715	419.5	0.2
0.787	420.7	0.2
0.875	421.9	0.2
0.954	423.2	0.2
0.971	423.4	0.2
1	423.8	0.2

System: 1,4-dimethylbenzene + nonane; phases: Gas, Liquid
Fixed: Pressure, kPa = 101.3
Property: Mole fraction of nonane (Gas); method: Chromatography
Mole fraction of nonane	Mole fraction of nonane	uncertainty
0	0	
0.107	0.087	0.087
0.227	0.189	0.189
0.325	0.269	0.2
0.443	0.371	0.2
0.527	0.446	0.2
0.633	0.55	0.2
0.715	0.638	0.2
0.787	0.716	0.2
0.875	0.83	0.17
0.954	0.936	0.064
0.971	0.957	0.043
1	1	
