Measured thermophysical data. Conductivity in NiSO4 d-glucose water solutions at 278.15 308.15K
Source: Fluid Phase Equilib., 2009, 10.1016/j.fluid.2009.06.008
Compound 1: D-glucose, C6H12O6, InChI=1S/C6H12O6/c7-1-3(9)5(11)6(12)4(10)2-8/h1,3-6,8-12H,2H2/t3-,4+,5+,6+/m0/s1
Compound 2: water, H2O, InChI=1S/H2O/h1H2, purity 99.9%
Compound 3: nickel monosulfate, NiO4S, InChI=1S/Ni.H2O4S/c;1-5(2,3)4/h;(H2,1,2,3,4)/q+2;/p-2

System: D-glucose + water; phases: Liquid
Fixed: Pressure, kPa = 101
Property: Viscosity, Pa*s (Liquid); method: Capillary tube (Ostwald; Ubbelohde) method
Temperature, K	Molality, mol/kg of D-glucose	Viscosity, Pa*s	uncertainty
278.15	0.2	0.00169366	1.576e-05
278.15	0.4	0.00187278	1.771e-05
278.15	0.6	0.00207417	1.972e-05
278.15	0.8	0.00230023	2.184e-05
278.15	1	0.00253566	2.441e-05
278.15	1.2	0.00280236	2.663e-05
283.15	0.2	0.00145095	1.381e-05
283.15	0.4	0.00159941	1.532e-05
283.15	0.6	0.00176642	1.702e-05
283.15	0.8	0.00195341	1.893e-05
283.15	1	0.00214677	2.087e-05
283.15	1.2	0.00237397	2.326e-05
288.15	0.2	0.00125834	1.166e-05
288.15	0.4	0.00138345	1.289e-05
288.15	0.6	0.00152378	1.427e-05
288.15	0.8	0.00168179	1.585e-05
288.15	1	0.0018495	1.724e-05
288.15	1.2	0.00202867	1.941e-05
293.15	0.2	0.00110352	1.004e-05
293.15	0.4	0.00120996	1.106e-05
293.15	0.6	0.00132893	1.222e-05
293.15	0.8	0.00146039	1.36e-05
293.15	1	0.00161869	1.506e-05
293.15	1.2	0.00175388	1.64e-05
298.15	0.2	0.00097482	8.75e-06
298.15	0.4	0.00106583	9.61e-06
298.15	0.6	0.00116605	1.055e-05
298.15	0.8	0.00127229	1.157e-05
298.15	1	0.00139468	1.292e-05
298.15	1.2	0.00152772	1.403e-05
303.15	0.2	0.0008685	7.7e-06
303.15	0.4	0.00094687	8.4e-06
303.15	0.6	0.00103467	9.18e-06
303.15	0.8	0.00113237	1.002e-05
303.15	1	0.00123611	1.104e-05
303.15	1.2	0.00134347	1.208e-05
308.15	0.2	0.00078109	6.96e-06
308.15	0.4	0.00084958	7.53e-06
308.15	0.6	0.00092635	8.25e-06
308.15	0.8	0.00100968	9.08e-06
308.15	1	0.00109623	9.93e-06
308.15	1.2	0.00119436	1.081e-05

System: D-glucose + water; phases: Liquid
Fixed: Pressure, kPa = 101
Property: Mass density, kg/m3 (Liquid); method: Vibrating tube method
Temperature, K	Molality, mol/kg of D-glucose	Mass density, kg/m3	uncertainty
278.15	0.2	1019.647	0.074
278.15	0.4	1031.601	0.078
278.15	0.6	1043.554	0.082
278.15	0.8	1055.508	0.087
278.15	1	1067.46	0.092
278.15	1.2	1079.414	0.098
283.15	0.2	1017.74	0.074
283.15	0.4	1029.578	0.077
283.15	0.6	1041.417	0.081
283.15	0.8	1053.254	0.086
283.15	1	1065.092	0.091
283.15	1.2	1076.93	0.097
288.15	0.2	1015.541	0.073
288.15	0.4	1027.278	0.076
288.15	0.6	1039.015	0.08
288.15	0.8	1050.752	0.085
288.15	1	1062.488	0.09
288.15	1.2	1074.225	0.096
293.15	0.2	1013.094	0.072
293.15	0.4	1024.74	0.075
293.15	0.6	1036.385	0.079
293.15	0.8	1048.031	0.084
293.15	1	1059.675	0.089
293.15	1.2	1071.321	0.095
298.15	0.2	1010.386	0.077
298.15	0.4	1023.108	0.078
298.15	0.6	1035.259	0.08
298.15	0.8	1046.847	0.083
298.15	1	1057.94	0.086
298.15	1.2	1068.547	0.09
303.15	0.2	1007.438	0.071
303.15	0.4	1018.931	0.074
303.15	0.6	1030.423	0.078
303.15	0.8	1041.916	0.083
303.15	1	1053.407	0.087
303.15	1.2	1064.9	0.093
308.15	0.2	1004.382	0.07
308.15	0.4	1015.811	0.073
308.15	0.6	1027.241	0.076
308.15	0.8	1038.669	0.081
308.15	1	1050.098	0.086
308.15	1.2	1061.527	0.091

System: D-glucose + water + nickel monosulfate; phases: Liquid
Fixed: Pressure, kPa = 101
Property: Molar conductivity, S*m2/mol (Liquid); method: Direct current cell with electrodes
Temperature, K	Molality, mol/kg of nickel monosulfate	Solvent: Molality, mol/kg of D-glucose	Molar conductivity, S*m2/mol	uncertainty
278.15	7.69516e-05	1	0.0047	5e-05
278.15	8.49175e-05	0.6	0.0056	6e-05
278.15	8.64267e-05	0.8	0.00524	5e-05
278.15	0.000110323	1.2	0.00427	4e-05
278.15	0.000118961	0.4	0.00606	6e-05
278.15	0.000158862	0.8	0.00513	5e-05
278.15	0.000159883	0.6	0.00548	6e-05
278.15	0.000169516	0.2	0.0067	7e-05
278.15	0.000180807	1	0.00455	5e-05
278.15	0.000203665	1.2	0.00414	4e-05
278.15	0.000213777	0.4	0.00591	6e-05
278.15	0.000231971	0.2	0.00658	7e-05
278.15	0.000237409	0.6	0.00538	5e-05
278.15	0.00025174	0.8	0.00502	5e-05
278.15	0.000280129	0.4	0.00583	6e-05
278.15	0.000288542	1.2	0.00406	4e-05
278.15	0.000295228	0.2	0.0065	7e-05
278.15	0.000306807	0.6	0.00531	5e-05
278.15	0.000340001	0.8	0.00493	5e-05
278.15	0.000350755	0.4	0.00575	6e-05
278.15	0.000351578	1	0.00438	4e-05
278.15	0.000360094	0.2	0.0064	6e-05
278.15	0.000373737	0.6	0.00524	5e-05
278.15	0.000390336	1.2	0.00397	4e-05
278.15	0.00040904	0.4	0.0057	6e-05
278.15	0.000421916	1	0.00432	4e-05
278.15	0.000423488	0.8	0.00487	5e-05
278.15	0.000444182	0.2	0.0063	6e-05
278.15	0.00046449	0.6	0.00517	5e-05
278.15	0.000506537	0.4	0.00561	6e-05
278.15	0.000512072	1	0.00425	4e-05
278.15	0.000514561	0.8	0.00479	5e-05
278.15	0.00052646	1.2	0.00386	4e-05
278.15	0.000528576	0.2	0.00621	6e-05
278.15	0.000603032	1	0.00419	4e-05
278.15	0.000614728	0.6	0.00505	5e-05
278.15	0.000631851	0.4	0.00552	6e-05
278.15	0.000641062	0.8	0.0047	5e-05
278.15	0.00065542	1.2	0.00378	4e-05
278.15	0.000676748	1	0.00414	4e-05
278.15	0.000686299	0.2	0.00607	6e-05
278.15	0.000789966	1.2	0.0037	4e-05
283.15	7.69516e-05	1	0.00554	6e-05
283.15	8.49175e-05	0.6	0.00654	7e-05
283.15	8.64267e-05	0.8	0.00613	6e-05
283.15	0.000110323	1.2	0.00504	5e-05
283.15	0.000118961	0.4	0.00708	7e-05
283.15	0.000158862	0.8	0.006	6e-05
283.15	0.000159883	0.6	0.00639	6e-05
283.15	0.000169516	0.2	0.00776	8e-05
283.15	0.000180807	1	0.00536	5e-05
283.15	0.000203665	1.2	0.0049	5e-05
283.15	0.000213777	0.4	0.00689	7e-05
283.15	0.000231971	0.2	0.00763	8e-05
283.15	0.000237409	0.6	0.00629	6e-05
283.15	0.00025174	0.8	0.00587	6e-05
283.15	0.000280129	0.4	0.00679	7e-05
283.15	0.000288542	1.2	0.00479	5e-05
283.15	0.000295228	0.2	0.00751	8e-05
283.15	0.000306807	0.6	0.00619	6e-05
283.15	0.000340001	0.8	0.00576	6e-05
283.15	0.000350755	0.4	0.0067	7e-05
283.15	0.000351578	1	0.00515	5e-05
283.15	0.000360094	0.2	0.00741	7e-05
283.15	0.000373737	0.6	0.00612	6e-05
283.15	0.000390336	1.2	0.00468	5e-05
283.15	0.00040904	0.4	0.00663	7e-05
283.15	0.000421916	1	0.00507	5e-05
283.15	0.000423488	0.8	0.00567	6e-05
283.15	0.000444182	0.2	0.00729	7e-05
283.15	0.00046449	0.6	0.00604	6e-05
283.15	0.000506537	0.4	0.00652	7e-05
283.15	0.000512072	1	0.005	5e-05
283.15	0.000514561	0.8	0.0056	6e-05
283.15	0.00052646	1.2	0.00456	5e-05
283.15	0.000528576	0.2	0.00718	7e-05
283.15	0.000603032	1	0.00492	5e-05
283.15	0.000614728	0.6	0.0059	6e-05
283.15	0.000631851	0.4	0.0064	6e-05
283.15	0.000641062	0.8	0.0055	6e-05
283.15	0.00065542	1.2	0.00445	5e-05
283.15	0.000676748	1	0.00487	5e-05
283.15	0.000686299	0.2	0.00702	7e-05
283.15	0.000789966	1.2	0.00436	4e-05
288.15	7.69516e-05	1	0.00642	6e-05
288.15	8.49175e-05	0.6	0.00755	8e-05
288.15	8.64267e-05	0.8	0.00707	7e-05
288.15	0.000110323	1.2	0.00588	6e-05
288.15	0.000118961	0.4	0.00812	8e-05
288.15	0.000158862	0.8	0.00691	7e-05
288.15	0.000159883	0.6	0.00739	7e-05
288.15	0.000169516	0.2	0.00886	9e-05
288.15	0.000180807	1	0.0062	6e-05
288.15	0.000203665	1.2	0.0057	6e-05
288.15	0.000213777	0.4	0.00791	8e-05
288.15	0.000231971	0.2	0.00871	9e-05
288.15	0.000237409	0.6	0.00725	7e-05
288.15	0.00025174	0.8	0.00677	7e-05
288.15	0.000280129	0.4	0.00779	8e-05
288.15	0.000288542	1.2	0.00557	6e-05
288.15	0.000295228	0.2	0.00857	9e-05
288.15	0.000306807	0.6	0.00715	7e-05
288.15	0.000340001	0.8	0.00664	7e-05
288.15	0.000350755	0.4	0.00767	8e-05
288.15	0.000351578	1	0.00595	6e-05
288.15	0.000360094	0.2	0.00846	9e-05
288.15	0.000373737	0.6	0.00705	7e-05
288.15	0.000390336	1.2	0.00544	6e-05
288.15	0.00040904	0.4	0.0076	8e-05
288.15	0.000421916	1	0.00587	6e-05
288.15	0.000423488	0.8	0.00654	7e-05
288.15	0.000444182	0.2	0.00831	8e-05
288.15	0.00046449	0.6	0.00695	7e-05
288.15	0.000506537	0.4	0.00746	8e-05
288.15	0.000512072	1	0.00577	6e-05
288.15	0.000514561	0.8	0.00644	7e-05
288.15	0.00052646	1.2	0.0053	5e-05
288.15	0.000528576	0.2	0.00819	8e-05
288.15	0.000603032	1	0.00568	6e-05
288.15	0.000614728	0.6	0.00678	7e-05
288.15	0.000631851	0.4	0.00733	7e-05
288.15	0.000641062	0.8	0.00632	6e-05
288.15	0.00065542	1.2	0.00517	5e-05
288.15	0.000676748	1	0.00562	6e-05
288.15	0.000686299	0.2	0.008	8e-05
288.15	0.000789966	1.2	0.00506	5e-05
293.15	7.69516e-05	1	0.00736	7e-05
293.15	8.49175e-05	0.6	0.00859	9e-05
293.15	8.64267e-05	0.8	0.00808	8e-05
293.15	0.000110323	1.2	0.00675	7e-05
293.15	0.000118961	0.4	0.00922	9e-05
293.15	0.000158862	0.8	0.00791	8e-05
293.15	0.000159883	0.6	0.0084	8e-05
293.15	0.000169516	0.2	0.01002	0.0001
293.15	0.000180807	1	0.00711	7e-05
293.15	0.000203665	1.2	0.00654	7e-05
293.15	0.000213777	0.4	0.00898	9e-05
293.15	0.000231971	0.2	0.00984	0.0001
293.15	0.000237409	0.6	0.00825	8e-05
293.15	0.00025174	0.8	0.00773	8e-05
293.15	0.000280129	0.4	0.00883	9e-05
293.15	0.000288542	1.2	0.00639	6e-05
293.15	0.000295228	0.2	0.00969	0.0001
293.15	0.000306807	0.6	0.00812	8e-05
293.15	0.000340001	0.8	0.00758	8e-05
293.15	0.000350755	0.4	0.0087	9e-05
293.15	0.000351578	1	0.00682	7e-05
293.15	0.000360094	0.2	0.00955	0.0001
293.15	0.000373737	0.6	0.00802	8e-05
293.15	0.000390336	1.2	0.00624	6e-05
293.15	0.00040904	0.4	0.00862	9e-05
293.15	0.000421916	1	0.00672	7e-05
293.15	0.000423488	0.8	0.00748	8e-05
293.15	0.000444182	0.2	0.00938	9e-05
293.15	0.00046449	0.6	0.0079	8e-05
293.15	0.000506537	0.4	0.00847	9e-05
293.15	0.000512072	1	0.00661	7e-05
293.15	0.000514561	0.8	0.00736	7e-05
293.15	0.00052646	1.2	0.00607	6e-05
293.15	0.000528576	0.2	0.00925	9e-05
293.15	0.000603032	1	0.0065	7e-05
293.15	0.000614728	0.6	0.00771	8e-05
293.15	0.000631851	0.4	0.00831	8e-05
293.15	0.000641062	0.8	0.00722	7e-05
293.15	0.00065542	1.2	0.00592	6e-05
293.15	0.000676748	1	0.00643	6e-05
293.15	0.000686299	0.2	0.00902	9e-05
293.15	0.000789966	1.2	0.00579	6e-05
298.15	7.69516e-05	1	0.00833	8e-05
298.15	8.49175e-05	0.6	0.00968	0.0001
298.15	8.64267e-05	0.8	0.0091	9e-05
298.15	0.000110323	1.2	0.00769	8e-05
298.15	0.000118961	0.4	0.01036	0.0001
298.15	0.000158862	0.8	0.0089	9e-05
298.15	0.000159883	0.6	0.00947	0.0001
298.15	0.000169516	0.2	0.01123	0.00011
298.15	0.000180807	1	0.00803	8e-05
298.15	0.000203665	1.2	0.00744	7e-05
298.15	0.000213777	0.4	0.01008	0.0001
298.15	0.000231971	0.2	0.01104	0.00011
298.15	0.000237409	0.6	0.00927	9e-05
298.15	0.00025174	0.8	0.0087	9e-05
298.15	0.000280129	0.4	0.00992	0.0001
298.15	0.000288542	1.2	0.00726	7e-05
298.15	0.000295228	0.2	0.01086	0.00011
298.15	0.000306807	0.6	0.00913	9e-05
298.15	0.000340001	0.8	0.00853	9e-05
298.15	0.000350755	0.4	0.00978	0.0001
298.15	0.000351578	1	0.0077	8e-05
298.15	0.000360094	0.2	0.0107	0.00011
298.15	0.000373737	0.6	0.00903	9e-05
298.15	0.000390336	1.2	0.00709	7e-05
298.15	0.00040904	0.4	0.00968	0.0001
298.15	0.000421916	1	0.00759	8e-05
298.15	0.000423488	0.8	0.00841	8e-05
298.15	0.000444182	0.2	0.01051	0.00011
298.15	0.00046449	0.6	0.00889	9e-05
298.15	0.000506537	0.4	0.0095	0.0001
298.15	0.000512072	1	0.00745	8e-05
298.15	0.000514561	0.8	0.00828	8e-05
298.15	0.00052646	1.2	0.00689	7e-05
298.15	0.000528576	0.2	0.01035	0.0001
298.15	0.000603032	1	0.00734	7e-05
298.15	0.000614728	0.6	0.00867	9e-05
298.15	0.000631851	0.4	0.00933	9e-05
298.15	0.000641062	0.8	0.00812	8e-05
298.15	0.00065542	1.2	0.00674	7e-05
298.15	0.000676748	1	0.00725	7e-05
298.15	0.000686299	0.2	0.0101	0.0001
298.15	0.000789966	1.2	0.00658	7e-05
303.15	7.69516e-05	1	0.00943	9e-05
303.15	8.49175e-05	0.6	0.01087	0.00011
303.15	8.64267e-05	0.8	0.01026	0.0001
303.15	0.000110323	1.2	0.00867	9e-05
303.15	0.000118961	0.4	0.01162	0.00012
303.15	0.000158862	0.8	0.01004	0.0001
303.15	0.000159883	0.6	0.01062	0.00011
303.15	0.000169516	0.2	0.0126	0.00013
303.15	0.000180807	1	0.00908	9e-05
303.15	0.000203665	1.2	0.00838	8e-05
303.15	0.000213777	0.4	0.0113	0.00011
303.15	0.000231971	0.2	0.01237	0.00012
303.15	0.000237409	0.6	0.0104	0.0001
303.15	0.00025174	0.8	0.0098	0.0001
303.15	0.000280129	0.4	0.01111	0.00011
303.15	0.000288542	1.2	0.00819	8e-05
303.15	0.000295228	0.2	0.01215	0.00012
303.15	0.000306807	0.6	0.01026	0.0001
303.15	0.000340001	0.8	0.00961	0.0001
303.15	0.000350755	0.4	0.01096	0.00011
303.15	0.000351578	1	0.00869	9e-05
303.15	0.000360094	0.2	0.01195	0.00012
303.15	0.000373737	0.6	0.01013	0.0001
303.15	0.000390336	1.2	0.00799	8e-05
303.15	0.00040904	0.4	0.01083	0.00011
303.15	0.000421916	1	0.00856	9e-05
303.15	0.000423488	0.8	0.00946	0.0001
303.15	0.000444182	0.2	0.01174	0.00012
303.15	0.00046449	0.6	0.00997	0.0001
303.15	0.000506537	0.4	0.01065	0.00011
303.15	0.000512072	1	0.00841	8e-05
303.15	0.000514561	0.8	0.00931	9e-05
303.15	0.00052646	1.2	0.00776	8e-05
303.15	0.000528576	0.2	0.01155	0.00012
303.15	0.000603032	1	0.00827	8e-05
303.15	0.000614728	0.6	0.00971	0.0001
303.15	0.000631851	0.4	0.01044	0.0001
303.15	0.000641062	0.8	0.00913	9e-05
303.15	0.00065542	1.2	0.00757	8e-05
303.15	0.000676748	1	0.00817	8e-05
303.15	0.000686299	0.2	0.01122	0.00011
303.15	0.000789966	1.2	0.0074	7e-05
308.15	7.69516e-05	1	0.01052	0.00011
308.15	8.49175e-05	0.6	0.01208	0.00012
308.15	8.64267e-05	0.8	0.01146	0.00012
308.15	0.000110323	1.2	0.0097	0.0001
308.15	0.000118961	0.4	0.01285	0.00013
308.15	0.000158862	0.8	0.0112	0.00011
308.15	0.000159883	0.6	0.01179	0.00012
308.15	0.000169516	0.2	0.01392	0.00014
308.15	0.000180807	1	0.01013	0.0001
308.15	0.000203665	1.2	0.00937	9e-05
308.15	0.000213777	0.4	0.0125	0.00013
308.15	0.000231971	0.2	0.01364	0.00014
308.15	0.000237409	0.6	0.01159	0.00012
308.15	0.00025174	0.8	0.01093	0.00011
308.15	0.000280129	0.4	0.0123	0.00012
308.15	0.000288542	1.2	0.00915	9e-05
308.15	0.000295228	0.2	0.01342	0.00013
308.15	0.000306807	0.6	0.0114	0.00011
308.15	0.000340001	0.8	0.01071	0.00011
308.15	0.000350755	0.4	0.01211	0.00012
308.15	0.000351578	1	0.00969	0.0001
308.15	0.000360094	0.2	0.0132	0.00013
308.15	0.000373737	0.6	0.01125	0.00011
308.15	0.000390336	1.2	0.00892	9e-05
308.15	0.00040904	0.4	0.01198	0.00012
308.15	0.000421916	1	0.00953	0.0001
308.15	0.000423488	0.8	0.01054	0.00011
308.15	0.000444182	0.2	0.01295	0.00013
308.15	0.00046449	0.6	0.01107	0.00011
308.15	0.000506537	0.4	0.01177	0.00012
308.15	0.000512072	1	0.00937	9e-05
308.15	0.000514561	0.8	0.01036	0.0001
308.15	0.00052646	1.2	0.00866	9e-05
308.15	0.000528576	0.2	0.01275	0.00013
308.15	0.000603032	1	0.0092	9e-05
308.15	0.000614728	0.6	0.01079	0.00011
308.15	0.000631851	0.4	0.01155	0.00012
308.15	0.000641062	0.8	0.01015	0.0001
308.15	0.00065542	1.2	0.00845	8e-05
308.15	0.000676748	1	0.00909	9e-05
308.15	0.000686299	0.2	0.01238	0.00012
308.15	0.000789966	1.2	0.00824	8e-05
