Measured thermophysical data. Solubility of sulfapyridine in propylene glycol + water mixtures and correlation with the Jouyban Acree model
Source: Fluid Phase Equilib., 2013, 10.1016/j.fluid.2012.12.017
Compound 1: 4-amino-N-2-pyridinylbenzenesulfonamide, C11H11N3O2S, InChI=1S/C11H11N3O2S/c12-9-4-6-10(7-5-9)17(15,16)14-11-3-1-2-8-13-11/h1-8H,12H2,(H,13,14), purity 99.5%
Compound 2: 1,2-propanediol, C3H8O2, InChI=1S/C3H8O2/c1-3(5)2-4/h3-5H,2H2,1H3, purity 99.8%
Compound 3: water, H2O, InChI=1S/H2O/h1H2

System: 1,2-propanediol + 4-amino-N-2-pyridinylbenzenesulfonamide + water; phases: Liquid, Crystal
Fixed: Pressure, kPa = 73.9
Property: Mole fraction of 4-amino-N-2-pyridinylbenzenesulfonamide (Liquid); method: Density calibration data
Temperature, K	Solvent: Mass fraction of 1,2-propanediol	Mole fraction of 4-amino-N-2-pyridinylbenzenesulfonamide	uncertainty
293.15	0	2.318e-05	2e-07
293.15	0.1	2.375e-05	1.6e-07
293.15	0.2	3.35e-05	8e-07
293.15	0.3	5.59e-05	1.8e-06
293.15	0.4	0.0001061	1.4e-06
293.15	0.5	0.00018	1.6e-06
293.15	0.6	0.0003139	3.4e-06
293.15	0.7	0.000505	1.2e-05
293.15	0.8	0.000762	1.1e-05
293.15	0.9	0.001177	1.7e-05
293.15	1	0.001769	3.2e-05
298.15	0	2.675e-05	3.1e-07
298.15	0.1	3.019e-05	4.6e-07
298.15	0.2	4.278e-05	6.6e-07
298.15	0.3	6.932e-05	6.9e-07
298.15	0.4	0.0001307	3.9e-06
298.15	0.5	0.0002233	1.9e-06
298.15	0.6	0.000386	7e-06
298.15	0.7	0.000582	9e-06
298.15	0.8	0.000853	8e-06
298.15	0.9	0.001285	2.5e-05
298.15	1	0.001925	2.6e-05
303.15	0	3.138e-05	4.4e-07
303.15	0.1	3.886e-05	3.1e-07
303.15	0.2	5.537e-05	7.1e-07
303.15	0.3	9.02e-05	2.7e-06
303.15	0.4	0.0001666	4.6e-06
303.15	0.5	0.0002871	2e-06
303.15	0.6	0.000465	1.2e-05
303.15	0.7	0.000707	4.7e-06
303.15	0.8	0.001017	9e-06
303.15	0.9	0.001432	1.6e-05
303.15	1	0.00207	1.7e-05
308.15	0	3.525e-05	3.2e-07
308.15	0.1	4.77e-05	9e-07
308.15	0.2	7.15e-05	2.7e-06
308.15	0.3	0.0001195	4.1e-06
308.15	0.4	0.0002105	1.8e-06
308.15	0.5	0.0003367	3.9e-06
308.15	0.6	0.0005449	5.3e-06
308.15	0.7	0.000806	2.3e-05
308.15	0.8	0.001159	1e-05
308.15	0.9	0.001623	1.5e-05
308.15	1	0.002235	3.4e-05
313.15	0	4.08e-05	8e-07
313.15	0.1	5.86e-05	1.1e-06
313.15	0.2	9.51e-05	1.3e-06
313.15	0.3	0.0001615	1.7e-06
313.15	0.4	0.0002767	3.7e-06
313.15	0.5	0.000416	9e-06
313.15	0.6	0.000646	9e-06
313.15	0.7	0.000952	1e-05
313.15	0.8	0.001276	2.1e-05
313.15	0.9	0.001755	3.9e-05
313.15	1	0.002386	1.9e-05

System: 4-amino-N-2-pyridinylbenzenesulfonamide + water; phases: Liquid, Crystal
Fixed: Pressure, kPa = 73.9
Property: Mole fraction of 4-amino-N-2-pyridinylbenzenesulfonamide (Liquid); method: Density calibration data
Temperature, K	Mole fraction of 4-amino-N-2-pyridinylbenzenesulfonamide	uncertainty
293.15	2.318e-05	7.5e-07
298.15	2.675e-05	8.6e-07
303.15	3.138e-05	1.01e-06
308.15	3.525e-05	1.14e-06
313.15	4.08e-05	1.4e-06

System: 1,2-propanediol + 4-amino-N-2-pyridinylbenzenesulfonamide; phases: Liquid, Crystal
Fixed: Pressure, kPa = 73.9
Property: Mole fraction of 4-amino-N-2-pyridinylbenzenesulfonamide (Liquid); method: Density calibration data
Temperature, K	Mole fraction of 4-amino-N-2-pyridinylbenzenesulfonamide	uncertainty
293.15	0.001769	3.2e-05
298.15	0.001925	2.6e-05
303.15	0.00207	1.7e-05
308.15	0.002235	3.4e-05
313.15	0.002386	1.9e-05
