Measured thermophysical data. Isothermal vapour-liquid equilibria and excess enthalpies for the binary mixtures containing an isomeric chlorobutane and diisopropyl ether
Source: Fluid Phase Equilib., 2011, 10.1016/j.fluid.2011.06.001
Compound 1: 1-chlorobutane, C4H9Cl, InChI=1S/C4H9Cl/c1-2-3-4-5/h2-4H2,1H3, purity 99%
Compound 2: 2-chlorobutane, C4H9Cl, InChI=1S/C4H9Cl/c1-3-4(2)5/h4H,3H2,1-2H3, purity 99%
Compound 3: 2-chloro-2-methylpropane, C4H9Cl, InChI=1S/C4H9Cl/c1-4(2,3)5/h1-3H3, purity 99%
Compound 4: diisopropyl ether, C6H14O, InChI=1S/C6H14O/c1-5(2)7-6(3)4/h5-6H,1-4H3, purity 99%
Compound 5: 1-chloro-2-methylpropane, C4H9Cl, InChI=1S/C4H9Cl/c1-4(2)3-5/h4H,3H2,1-2H3, purity 99%

System: 1-chlorobutane; phases: Liquid, Gas
Property: Vapor or sublimation pressure, kPa (Liquid); method: Closed cell (Static) method
Temperature, K	Vapor or sublimation pressure, kPa	uncertainty
288.15	8.4	0.025
298.15	13.515	0.034
308.15	21.035	0.048

System: 2-chlorobutane; phases: Liquid, Gas
Property: Vapor or sublimation pressure, kPa (Liquid); method: Closed cell (Static) method
Temperature, K	Vapor or sublimation pressure, kPa	uncertainty
288.15	13.36	0.035
298.15	20.905	0.049
308.15	31.55	0.068

System: 2-chloro-2-methylpropane; phases: Liquid, Gas
Property: Vapor or sublimation pressure, kPa (Liquid); method: Closed cell (Static) method
Temperature, K	Vapor or sublimation pressure, kPa	uncertainty
288.15	26.42	0.062
298.15	40.13	0.087
308.15	59.52	0.123

System: diisopropyl ether; phases: Liquid, Gas
Property: Vapor or sublimation pressure, kPa (Liquid); method: Closed cell (Static) method
Temperature, K	Vapor or sublimation pressure, kPa	uncertainty
288.15	12.65	0.034
298.15	20.005	0.047
308.15	30.46	0.066

System: 1-chloro-2-methylpropane; phases: Liquid, Gas
Property: Vapor or sublimation pressure, kPa (Liquid); method: Closed cell (Static) method
Temperature, K	Vapor or sublimation pressure, kPa	uncertainty
288.15	13	0.034
298.15	20.35	0.048
308.15	30.45	0.066

System: diisopropyl ether + 1-chlorobutane; phases: Liquid
Fixed: Pressure, kPa = 101
Fixed: Temperature, K = 298.15
Property: Excess molar enthalpy (molar enthalpy of mixing), kJ/mol (Liquid); method: Flow calorimetry
Mole fraction of 1-chlorobutane	Excess molar enthalpy (molar enthalpy of mixing), kJ/mol	uncertainty
0.0908	-0.0286	0.0011
0.1817	-0.0547	0.0016
0.2726	-0.0732	0.0019
0.3636	-0.0873	0.0022
0.4545	-0.0954	0.0024
0.5453	-0.0954	0.0024
0.6363	-0.0903	0.0023
0.7273	-0.0785	0.002
0.818	-0.0587	0.0016
0.909	-0.0324	0.0011

System: diisopropyl ether + 1-chlorobutane; phases: Liquid, Gas
Property: Vapor or sublimation pressure, kPa (Liquid); method: Closed cell (Static) method
Mole fraction of 1-chlorobutane	Temperature, K	Vapor or sublimation pressure, kPa	uncertainty
0.0535	308.15	30.01	0.126
0.0542	298.15	19.68	0.09
0.0635	288.15	12.255	0.061
0.121	308.15	29.46	0.124
0.1232	298.15	19.23	0.086
0.1276	288.15	12.06	0.06
0.1864	288.15	11.865	0.059
0.1985	298.15	18.66	0.084
0.2013	308.15	28.655	0.121
0.3048	288.15	11.385	0.057
0.3062	308.15	27.83	0.118
0.3069	298.15	18.185	0.082
0.4069	308.15	26.965	0.115
0.4115	298.15	17.575	0.08
0.4194	288.15	10.895	0.056
0.4984	308.15	26.16	0.112
0.5035	298.15	16.98	0.078
0.5078	288.15	10.55	0.054
0.603	308.15	25.19	0.108
0.6071	298.15	16.29	0.075
0.6095	288.15	10.295	0.053
0.7175	308.15	24.19	0.104
0.7214	298.15	15.505	0.072
0.7259	288.15	9.775	0.051
0.8011	298.15	14.96	0.071
0.8011	308.15	23.235	0.101
0.8027	288.15	9.46	0.05
0.8982	298.15	14.195	0.068
0.8987	308.15	22.32	0.098
0.9039	288.15	8.845	0.048
0.9598	288.15	8.61	0.047
0.9603	298.15	13.72	0.066
0.9603	308.15	21.545	0.095

System: diisopropyl ether + 1-chlorobutane; phases: Gas, Liquid
Property: Mole fraction of 1-chlorobutane (Gas); method: Density calibration data
Mole fraction of 1-chlorobutane	Temperature, K	Mole fraction of 1-chlorobutane	uncertainty
0.0535	308.15	0.0405	0.0013
0.0542	298.15	0.0413	0.0013
0.0635	288.15	0.0405	0.0013
0.121	308.15	0.0924	0.0013
0.1232	298.15	0.0909	0.0013
0.1276	288.15	0.0909	0.0014
0.1864	288.15	0.1593	0.0013
0.1985	298.15	0.1522	0.0013
0.2013	308.15	0.1593	0.0013
0.3048	288.15	0.2378	0.0015
0.3062	308.15	0.2399	0.0015
0.3069	298.15	0.2406	0.0015
0.4069	308.15	0.3294	0.002
0.4115	298.15	0.3334	0.0021
0.4194	288.15	0.3334	0.002
0.4984	308.15	0.4096	0.0028
0.5035	298.15	0.4161	0.0028
0.5078	288.15	0.4109	0.0028
0.603	308.15	0.511	0.004
0.6071	298.15	0.511	0.004
0.6095	288.15	0.5234	0.004
0.7175	308.15	0.6353	0.0038
0.7214	298.15	0.6377	0.0037
0.7259	288.15	0.6336	0.0037
0.8011	298.15	0.7281	0.0033
0.8011	308.15	0.7309	0.0033
0.8027	288.15	0.7242	0.0033
0.8982	298.15	0.8563	0.0024
0.8987	308.15	0.8568	0.0024
0.9039	288.15	0.8536	0.0024
0.9598	288.15	0.9408	0.002
0.9603	298.15	0.9393	0.0019
0.9603	308.15	0.9398	0.0019

System: 2-chlorobutane + diisopropyl ether; phases: Liquid
Fixed: Pressure, kPa = 101
Fixed: Temperature, K = 298.15
Property: Excess molar enthalpy (molar enthalpy of mixing), kJ/mol (Liquid); method: Flow calorimetry
Mole fraction of 2-chlorobutane	Excess molar enthalpy (molar enthalpy of mixing), kJ/mol	uncertainty
0.0909	-0.0154	0.0009
0.1819	-0.03	0.0011
0.2726	-0.0434	0.0013
0.3636	-0.0523	0.0015
0.4546	-0.0575	0.0016
0.5454	-0.0601	0.0017
0.6365	-0.0599	0.0017
0.7273	-0.053	0.0015
0.8182	-0.0412	0.0013
0.9092	-0.0251	0.001

System: 2-chlorobutane + diisopropyl ether; phases: Liquid, Gas
Property: Vapor or sublimation pressure, kPa (Liquid); method: Closed cell (Static) method
Mole fraction of 2-chlorobutane	Temperature, K	Vapor or sublimation pressure, kPa	uncertainty
0.0631	288.15	12.695	0.062
0.0631	298.15	20.09	0.09
0.0631	308.15	30.585	0.128
0.1353	288.15	12.79	0.063
0.1361	308.15	30.75	0.128
0.1365	298.15	20.26	0.09
0.2132	288.15	12.875	0.063
0.2141	308.15	31.045	0.13
0.2147	298.15	20.375	0.09
0.2898	288.15	12.955	0.063
0.2905	308.15	31.185	0.13
0.2941	298.15	20.525	0.091
0.3788	288.15	13.04	0.064
0.3805	298.15	20.62	0.091
0.3806	308.15	31.3	0.13
0.4677	288.15	13.1	0.064
0.4695	308.15	31.39	0.131
0.4703	298.15	20.7	0.092
0.5584	288.15	13.175	0.064
0.5586	308.15	31.475	0.131
0.5587	298.15	20.76	0.092
0.646	288.15	13.225	0.064
0.6461	308.15	31.5	0.131
0.6468	298.15	20.82	0.092
0.727	288.15	13.28	0.064
0.7278	308.15	31.525	0.131
0.728	298.15	20.83	0.092
0.8155	288.15	13.32	0.064
0.8157	308.15	31.54	0.131
0.8164	298.15	20.86	0.092
0.8691	288.15	13.33	0.065
0.8694	308.15	31.545	0.131
0.8699	298.15	20.895	0.092
0.9741	288.15	13.345	0.065
0.9744	298.15	20.885	0.093
0.9744	308.15	31.525	0.131

System: 2-chlorobutane + diisopropyl ether; phases: Gas, Liquid
Property: Mole fraction of 2-chlorobutane (Gas); method: Density calibration data
Mole fraction of 2-chlorobutane	Temperature, K	Mole fraction of 2-chlorobutane	uncertainty
0.0631	288.15	0.07	0.0015
0.0631	298.15	0.0699	0.0015
0.0631	308.15	0.0709	0.0014
0.1353	288.15	0.1466	0.0015
0.1361	308.15	0.1464	0.0015
0.1365	298.15	0.1474	0.0015
0.2132	288.15	0.2279	0.0016
0.2141	308.15	0.2264	0.0016
0.2147	298.15	0.2279	0.0016
0.2898	288.15	0.3086	0.002
0.2905	308.15	0.3017	0.0019
0.2941	298.15	0.3086	0.002
0.3788	288.15	0.3933	0.0026
0.3805	298.15	0.3933	0.0026
0.3806	308.15	0.3806	0.0025
0.4677	288.15	0.4803	0.0037
0.4695	308.15	0.4778	0.0037
0.4703	298.15	0.4807	0.0037
0.5584	288.15	0.5686	0.0039
0.5586	308.15	0.5648	0.0039
0.5587	298.15	0.5661	0.0039
0.646	288.15	0.6532	0.0036
0.6461	308.15	0.6497	0.0037
0.6468	298.15	0.6515	0.0036
0.727	288.15	0.7317	0.0032
0.7278	308.15	0.7286	0.0032
0.728	298.15	0.7308	0.0032
0.8155	288.15	0.8179	0.0025
0.8157	308.15	0.815	0.0026
0.8164	298.15	0.818	0.0025
0.8691	288.15	0.8707	0.0021
0.8694	308.15	0.8685	0.0021
0.8699	298.15	0.8707	0.0021
0.9741	288.15	0.9742	0.0014
0.9744	298.15	0.9741	0.0015
0.9744	308.15	0.9739	0.0015

System: diisopropyl ether + 1-chloro-2-methylpropane; phases: Liquid
Fixed: Pressure, kPa = 101
Fixed: Temperature, K = 298.15
Property: Excess molar enthalpy (molar enthalpy of mixing), kJ/mol (Liquid); method: Flow calorimetry
Mole fraction of 1-chloro-2-methylpropane	Excess molar enthalpy (molar enthalpy of mixing), kJ/mol	uncertainty
0.0907	-0.0302	0.0011
0.1815	-0.0541	0.0015
0.2726	-0.0732	0.0019
0.3634	-0.0863	0.0022
0.4544	-0.0948	0.0023
0.5453	-0.0957	0.0024
0.6361	-0.0915	0.0023
0.727	-0.0791	0.002
0.8179	-0.0615	0.0017
0.909	-0.0344	0.0012

System: diisopropyl ether + 1-chloro-2-methylpropane; phases: Liquid, Gas
Property: Vapor or sublimation pressure, kPa (Liquid); method: Closed cell (Static) method
Mole fraction of 1-chloro-2-methylpropane	Temperature, K	Vapor or sublimation pressure, kPa	uncertainty
0.0897	288.15	12.71	0.062
0.0943	308.15	30.545	0.128
0.099	298.15	20.12	0.093
0.1395	298.15	20.125	0.089
0.142	308.15	30.56	0.128
0.1448	288.15	12.735	0.062
0.2211	288.15	12.795	0.063
0.2385	308.15	30.6	0.128
0.2548	298.15	20.215	0.09
0.2913	288.15	12.82	0.063
0.3628	288.15	12.89	0.063
0.3631	308.15	30.67	0.128
0.3685	298.15	20.275	0.09
0.4004	298.15	20.29	0.09
0.4095	288.15	12.895	0.063
0.4613	308.15	30.675	0.128
0.495	298.15	20.33	0.09
0.5362	288.15	12.935	0.063
0.5386	308.15	30.64	0.128
0.5495	298.15	20.375	0.09
0.647	308.15	30.58	0.128
0.6481	298.15	20.405	0.09
0.6628	288.15	13	0.063
0.7247	308.15	30.565	0.128
0.7426	298.15	20.37	0.09
0.7829	288.15	13.005	0.063
0.8323	308.15	30.535	0.128
0.8603	298.15	20.375	0.09
0.8604	288.15	13.01	0.063
0.9285	308.15	30.5	0.127
0.932	288.15	13.005	0.063
0.935	298.15	20.37	0.091

System: diisopropyl ether + 1-chloro-2-methylpropane; phases: Gas, Liquid
Property: Mole fraction of 1-chloro-2-methylpropane (Gas); method: Density calibration data
Mole fraction of 1-chloro-2-methylpropane	Temperature, K	Mole fraction of 1-chloro-2-methylpropane	uncertainty
0.0897	288.15	0.0932	0.0014
0.0943	308.15	0.0985	0.0014
0.099	298.15	0.1003	0.0014
0.1395	298.15	0.1427	0.0014
0.142	308.15	0.1461	0.0014
0.1448	288.15	0.1465	0.0015
0.2211	288.15	0.2275	0.0016
0.2385	308.15	0.2397	0.0016
0.2548	298.15	0.257	0.0017
0.2913	288.15	0.2925	0.0019
0.3628	288.15	0.3685	0.0024
0.3631	308.15	0.3655	0.0024
0.3685	298.15	0.37	0.0024
0.4004	298.15	0.4035	0.0027
0.4095	288.15	0.4137	0.0028
0.4613	308.15	0.4612	0.0034
0.495	298.15	0.4962	0.0039
0.5362	288.15	0.5363	0.004
0.5386	308.15	0.5364	0.004
0.5495	298.15	0.5492	0.004
0.647	308.15	0.6424	0.0037
0.6481	298.15	0.646	0.0037
0.6628	288.15	0.6625	0.0036
0.7247	308.15	0.7202	0.0033
0.7426	298.15	0.7421	0.0031
0.7829	288.15	0.7803	0.0028
0.8323	308.15	0.8285	0.0025
0.8603	298.15	0.8568	0.0022
0.8604	288.15	0.8562	0.0022
0.9285	308.15	0.9276	0.0017
0.932	288.15	0.9315	0.0017
0.935	298.15	0.9318	0.0017

System: diisopropyl ether + 2-chloro-2-methylpropane; phases: Liquid
Fixed: Pressure, kPa = 101
Fixed: Temperature, K = 298.15
Property: Excess molar enthalpy (molar enthalpy of mixing), kJ/mol (Liquid); method: Flow calorimetry
Mole fraction of 2-chloro-2-methylpropane	Excess molar enthalpy (molar enthalpy of mixing), kJ/mol	uncertainty
0.1093	0.0045	0.0008
0.2192	0.007	0.0008
0.3295	0.008	0.0008
0.4402	0.0082	0.0008
0.5512	0.0071	0.0008
0.6628	0.0053	0.0008
0.7747	0.0035	0.0008
0.8872	0.0013	0.0008

System: diisopropyl ether + 2-chloro-2-methylpropane; phases: Liquid, Gas
Property: Vapor or sublimation pressure, kPa (Liquid); method: Closed cell (Static) method
Mole fraction of 2-chloro-2-methylpropane	Temperature, K	Vapor or sublimation pressure, kPa	uncertainty
0.0369	298.15	20.955	0.093
0.0379	288.15	13.255	0.066
0.0379	308.15	31.78	0.136
0.1126	288.15	14.49	0.071
0.1136	298.15	22.74	0.102
0.1224	308.15	34.475	0.146
0.1844	288.15	15.425	0.074
0.1949	308.15	36.905	0.154
0.1987	298.15	24.505	0.108
0.2926	288.15	17.215	0.081
0.3126	298.15	26.92	0.117
0.3126	308.15	40.34	0.167
0.3852	288.15	18.525	0.085
0.409	298.15	28.95	0.124
0.4116	308.15	43.4	0.178
0.4946	288.15	19.975	0.091
0.5201	308.15	46.4	0.189
0.5209	298.15	31.105	0.132
0.5528	288.15	20.76	0.094
0.5761	298.15	32.16	0.135
0.5811	308.15	48.12	0.195
0.687	288.15	22.42	0.1
0.6941	308.15	51.365	0.207
0.6949	298.15	34.535	0.145
0.7929	288.15	23.85	0.105
0.7989	308.15	54.115	0.217
0.8004	298.15	36.42	0.152
0.8948	288.15	25.19	0.11
0.897	308.15	56.725	0.227
0.8977	298.15	38.225	0.159
0.9359	288.15	25.565	0.111
0.9459	298.15	39.075	0.169
0.9474	308.15	58.07	0.232

System: diisopropyl ether + 2-chloro-2-methylpropane; phases: Gas, Liquid
Property: Mole fraction of 2-chloro-2-methylpropane (Gas); method: Density calibration data
Mole fraction of 2-chloro-2-methylpropane	Temperature, K	Mole fraction of 2-chloro-2-methylpropane	uncertainty
0.0369	298.15	0.0797	0.002
0.0379	288.15	0.0827	0.0021
0.0379	308.15	0.0777	0.0019
0.1126	288.15	0.2213	0.002
0.1136	298.15	0.21	0.0019
0.1224	308.15	0.2166	0.002
0.1844	288.15	0.3144	0.0021
0.1949	308.15	0.3289	0.0022
0.1987	298.15	0.3244	0.0022
0.2926	288.15	0.4482	0.0034
0.3126	298.15	0.468	0.0036
0.3126	308.15	0.4637	0.0035
0.3852	288.15	0.567	0.004
0.409	298.15	0.5736	0.0039
0.4116	308.15	0.5728	0.0039
0.4946	288.15	0.6823	0.0035
0.5201	308.15	0.6711	0.0035
0.5209	298.15	0.6735	0.0035
0.5528	288.15	0.7231	0.0032
0.5761	298.15	0.7216	0.0032
0.5811	308.15	0.7208	0.0032
0.687	288.15	0.8206	0.0024
0.6941	308.15	0.8042	0.0025
0.6949	298.15	0.8124	0.0025
0.7929	288.15	0.8817	0.0019
0.7989	308.15	0.8803	0.0019
0.8004	298.15	0.8832	0.0019
0.8948	288.15	0.9431	0.0014
0.897	308.15	0.9352	0.0014
0.8977	298.15	0.9402	0.0014
0.9359	288.15	0.966	0.0012
0.9459	298.15	0.9674	0.0012
0.9474	308.15	0.9681	0.0013
