Measured thermophysical data. Vapor liquid equilibria of the 1,1-difluoroethane (HFC-152a) + isobutene system
Source: Fluid Phase Equilib., 2008, 10.1016/j.fluid.2008.07.007
Compound 1: 1,1-difluoroethane, C2H4F2, InChI=1S/C2H4F2/c1-2(3)4/h2H,1H3
Compound 2: 2-methylpropene, C4H8, InChI=1S/C4H8/c1-4(2)3/h1H2,2-3H3

System: 1,1-difluoroethane; phases: Liquid, Gas
Property: Vapor or sublimation pressure, kPa (Liquid); method: EBULLIO:UFactor:4
Temperature, K	Vapor or sublimation pressure, kPa	uncertainty
273.15	267	4
288.15	442	7
303.15	693	11
318.15	1039	16
333.15	1505	24
348.15	2109	33

System: 2-methylpropene; phases: Liquid, Gas
Property: Vapor or sublimation pressure, kPa (Liquid); method: EBULLIO:UFactor:4
Temperature, K	Vapor or sublimation pressure, kPa	uncertainty
273.15	133	2
288.15	224	4
303.15	353	6
318.15	538	9
333.15	787	13
348.15	1110	18

System: 1,1-difluoroethane + 2-methylpropene; phases: Liquid, Gas
Property: Vapor or sublimation pressure, kPa (Liquid); method: EBULLIO:UFactor:4
Mole fraction of 1,1-difluoroethane	Temperature, K	Vapor or sublimation pressure, kPa	uncertainty
0	273.15	133	2
0	288.15	224	4
0	303.15	353	6
0	318.15	538	9
0	333.15	787	13
0	348.15	1110	18
0.1334	273.15	153	3
0.1347	288.15	253	4
0.1348	318.15	608	10
0.1424	303.15	404	7
0.1698	333.15	922	15
0.1795	348.15	1290	20
0.219	318.15	657	11
0.2919	333.15	1038	16
0.2956	318.15	708	11
0.3002	288.15	295	5
0.3119	303.15	473	8
0.3368	348.15	1490	24
0.3515	273.15	187	3
0.3689	318.15	758	12
0.4138	288.15	330	5
0.4335	333.15	1185	19
0.4532	348.15	1656	26
0.4641	303.15	551	9
0.4828	273.15	215	4
0.4831	318.15	842	14
0.5813	288.15	389	6
0.5982	303.15	619	10
0.6104	318.15	938	15
0.6106	273.15	241	4
0.6645	333.15	1412	22
0.6699	348.15	1958	31
0.6951	273.15	258	4
0.7042	288.15	426	7
0.7278	288.15	433	7
0.7474	273.15	266	4
0.7479	333.15	1466	23
0.748	303.15	680	11
0.7484	348.15	2034	32
0.7635	318.15	1021	16
0.773	288.15	443	7
0.7844	318.15	1031	16
0.79	333.15	1485	23
0.8052	348.15	2075	33
0.8053	318.15	1039	17
0.8078	303.15	692	11
0.8079	273.15	272	5
0.8117	288.15	447	7
0.8119	333.15	1494	24
0.8265	318.15	1043	17
0.8352	303.15	695	11
0.8401	318.15	1047	17
0.8423	288.15	452	7
0.8543	348.15	2097	33
0.8545	273.15	277	5
0.8554	318.15	1050	17
0.8596	303.15	699	11
0.8623	288.15	455	7
0.8645	333.15	1508	24
0.8758	348.15	2106	33
0.8861	318.15	1055	17
0.8879	303.15	699	11
0.8985	348.15	2110	33
0.8993	333.15	1508	24
0.903	273.15	278	5
0.9041	318.15	1057	17
0.9047	303.15	702	11
0.9101	288.15	451	7
0.9201	348.15	2113	33
0.921	318.15	1058	17
0.9213	333.15	1514	24
0.9302	348.15	2115	33
0.9395	303.15	700	11
0.9406	333.15	1514	24
0.9438	318.15	1052	17
0.9561	348.15	2117	33
0.9593	333.15	1516	24
1	273.15	267	4
1	288.15	442	7
1	303.15	693	11
1	318.15	1039	16
1	333.15	1505	24
1	348.15	2109	33

System: 1,1-difluoroethane + 2-methylpropene; phases: Liquid, Gas
Property: Mole fraction of 1,1-difluoroethane (Liquid); method: CHROM:UFactor:4
Mole fraction of 1,1-difluoroethane	Temperature, K	Mole fraction of 1,1-difluoroethane	uncertainty
0	273.15	0	0.0001
0	288.15	0	0.0001
0	303.15	0	0.0001
0	318.15	0	0.0001
0	333.15	0	0.0001
0	348.15	0	0.0001
0.1334	273.15	0.0325	0.0019
0.1347	288.15	0.036	0.002
0.1348	318.15	0.0467	0.0022
0.1424	303.15	0.0437	0.0021
0.1698	333.15	0.0746	0.0028
0.1795	348.15	0.0777	0.0029
0.219	318.15	0.0849	0.003
0.2919	333.15	0.1526	0.0049
0.2956	318.15	0.1303	0.0042
0.3002	288.15	0.1055	0.0035
0.3119	303.15	0.1223	0.004
0.3368	348.15	0.1859	0.0059
0.3515	273.15	0.1197	0.0039
0.3689	318.15	0.1818	0.0058
0.4138	288.15	0.1802	0.0058
0.4335	333.15	0.28	0.0089
0.4532	348.15	0.2961	0.0094
0.4641	303.15	0.2521	0.008
0.4828	273.15	0.2274	0.0072
0.4831	318.15	0.295	0.0094
0.5813	288.15	0.3722	0.0117
0.5982	303.15	0.4232	0.0133
0.6104	318.15	0.4739	0.0149
0.6106	273.15	0.3855	0.0122
0.6645	333.15	0.5955	0.0127
0.6699	348.15	0.5894	0.0129
0.6951	273.15	0.5312	0.0148
0.7042	288.15	0.5749	0.0135
0.7278	288.15	0.6212	0.0121
0.7474	273.15	0.6351	0.0116
0.7479	333.15	0.7161	0.0091
0.748	303.15	0.6782	0.0103
0.7484	348.15	0.7032	0.0095
0.7635	318.15	0.7105	0.0093
0.773	288.15	0.7054	0.0096
0.7844	318.15	0.7528	0.0081
0.79	333.15	0.7728	0.0073
0.8052	348.15	0.7822	0.0071
0.8053	318.15	0.7833	0.0071
0.8078	303.15	0.7693	0.0076
0.8079	273.15	0.712	0.0092
0.8117	288.15	0.7658	0.0077
0.8119	333.15	0.8019	0.0065
0.8265	318.15	0.8163	0.0062
0.8352	303.15	0.8116	0.0063
0.8401	318.15	0.8358	0.0054
0.8423	288.15	0.8078	0.0063
0.8543	348.15	0.8467	0.0052
0.8545	273.15	0.7911	0.007
0.8554	318.15	0.852	0.005
0.8596	303.15	0.8403	0.0053
0.8623	288.15	0.8363	0.0055
0.8645	333.15	0.8656	0.0046
0.8758	348.15	0.8734	0.0044
0.8861	318.15	0.8906	0.0039
0.8879	303.15	0.8774	0.0043
0.8985	348.15	0.899	0.0038
0.8993	333.15	0.9046	0.0036
0.903	273.15	0.8712	0.0046
0.9041	318.15	0.9114	0.0035
0.9047	303.15	0.8979	0.0037
0.9101	288.15	0.8882	0.004
0.9201	348.15	0.9244	0.0033
0.921	318.15	0.9275	0.0031
0.9213	333.15	0.9279	0.0031
0.9302	348.15	0.9354	0.003
0.9395	303.15	0.9337	0.003
0.9406	333.15	0.9498	0.0027
0.9438	318.15	0.9503	0.0026
0.9561	348.15	0.9652	0.0024
0.9593	333.15	0.9656	0.0023
1	273.15	1	0.0001
1	288.15	1	0.0001
1	303.15	1	0.0001
1	318.15	1	0.0001
1	333.15	1	0.0001
1	348.15	1	0.0001
