Measured thermophysical data. Determination and prediction of solubilities of active pharmaceutical ingredients in selected organic solvents
Source: Fluid Phase Equilib., 2015, 10.1016/j.fluid.2015.07.032
Compound 1: 2-acetoxybenzoic acid, C9H8O4, InChI=1S/C9H8O4/c1-6(10)13-8-5-3-2-4-7(8)9(11)12/h2-5H,1H3,(H,11,12), purity 99.5%
Compound 2: N-acetyl-p-aminophenol, C8H9NO2, InChI=1S/C8H9NO2/c1-6(10)9-7-2-4-8(11)5-3-7/h2-5,11H,1H3,(H,9,10), purity 99%
Compound 3: guanidine, CH5N3, InChI=1S/CH5N3/c2-1(3)4/h(H5,2,3,4), purity 98%
Compound 4: famotidine, C8H15N7O2S3, InChI=1S/C8H15N7O2S3/c9-6(15-20(12,16)17)1-2-18-3-5-4-19-8(13-5)14-7(10)11/h4H,1-3H2,(H2,9,15)(H2,12,16,17)(H4,10,11,13,14), purity 98%
Compound 5: methanol, CH4O, InChI=1S/CH4O/c1-2/h2H,1H3, purity 99.9%
Compound 6: ethanol, C2H6O, InChI=1S/C2H6O/c1-2-3/h3H,2H2,1H3, purity 99.9%
Compound 7: propan-2-ol, C3H8O, InChI=1S/C3H8O/c1-3(2)4/h3-4H,1-2H3, purity 99.7%
Compound 8: octan-1-ol, C8H18O, InChI=1S/C8H18O/c1-2-3-4-5-6-7-8-9/h9H,2-8H2,1H3, purity 99.8%

System: 2-acetoxybenzoic acid; phases: Crystal, Liquid, Air at 1 atmosphere
Property: Normal melting temperature, K (Crystal); method: DTA
Normal melting temperature, K	uncertainty
408.65	0.7

System: 2-acetoxybenzoic acid; phases: Crystal, Liquid, Air at 1 atmosphere
Property: Molar enthalpy of transition or fusion, kJ/mol (Crystal); method: DSC
Molar enthalpy of transition or fusion, kJ/mol	uncertainty
33.509	0.727

System: N-acetyl-p-aminophenol; phases: Crystal, Liquid, Air at 1 atmosphere
Property: Normal melting temperature, K (Crystal); method: DTA
Normal melting temperature, K	uncertainty
442.35	0.7

System: N-acetyl-p-aminophenol; phases: Crystal, Liquid, Air at 1 atmosphere
Property: Molar enthalpy of transition or fusion, kJ/mol (Crystal); method: DSC
Molar enthalpy of transition or fusion, kJ/mol	uncertainty
27.509	0.612

System: guanidine; phases: Crystal, Liquid, Air at 1 atmosphere
Property: Normal melting temperature, K (Crystal); method: DTA
Normal melting temperature, K	uncertainty
414.15	0.7

System: guanidine; phases: Crystal, Liquid, Air at 1 atmosphere
Property: Molar enthalpy of transition or fusion, kJ/mol (Crystal); method: DSC
Molar enthalpy of transition or fusion, kJ/mol	uncertainty
35.485	0.771

System: famotidine; phases: Crystal, Liquid, Air at 1 atmosphere
Property: Normal melting temperature, K (Crystal); method: DTA
Normal melting temperature, K	uncertainty
439.35	0.7

System: famotidine; phases: Crystal, Liquid, Air at 1 atmosphere
Property: Molar enthalpy of transition or fusion, kJ/mol (Crystal); method: DSC
Molar enthalpy of transition or fusion, kJ/mol	uncertainty
50.28	1.056

System: famotidine; phases: Crystal, Liquid, Air at 1 atmosphere
Property: Normal melting temperature, K (Crystal); method: DTA
Normal melting temperature, K	uncertainty
445.65	0.7

System: famotidine; phases: Crystal, Liquid, Air at 1 atmosphere
Property: Molar enthalpy of transition or fusion, kJ/mol (Crystal); method: DSC
Molar enthalpy of transition or fusion, kJ/mol	uncertainty
48.168	1.015

System: methanol; phases: Liquid
Property: Mass density, kg/m3 (Liquid); method: Vibrating tube method
Temperature, K	Pressure, kPa	Mass density, kg/m3	uncertainty
298.15	101.325	786.59	0.12

System: ethanol; phases: Liquid
Property: Mass density, kg/m3 (Liquid); method: Vibrating tube method
Temperature, K	Pressure, kPa	Mass density, kg/m3	uncertainty
298.15	101.325	785.02	0.12

System: propan-2-ol; phases: Liquid
Property: Mass density, kg/m3 (Liquid); method: Vibrating tube method
Temperature, K	Pressure, kPa	Mass density, kg/m3	uncertainty
298.15	101.325	780.8	0.13

System: octan-1-ol; phases: Liquid
Property: Mass density, kg/m3 (Liquid); method: Vibrating tube method
Temperature, K	Pressure, kPa	Mass density, kg/m3	uncertainty
298.15	101.325	821.6	0.11

System: 2-acetoxybenzoic acid + ethanol; phases: Liquid, Crystal
Fixed: Pressure, kPa = 101
Property: Solid-liquid equilibrium temperature, K (Liquid); method: VISOBS
Mole fraction of 2-acetoxybenzoic acid	Solid-liquid equilibrium temperature, K	uncertainty
0.0246	274.95	0.23
0.0487	292.45	0.2
0.0914	310.39	0.19
0.1319	321.42	0.18
0.1688	329.97	0.18
0.2016	336.95	0.18

System: 2-acetoxybenzoic acid + propan-2-ol; phases: Liquid, Crystal
Fixed: Pressure, kPa = 101
Property: Solid-liquid equilibrium temperature, K (Liquid); method: VISOBS
Mole fraction of 2-acetoxybenzoic acid	Solid-liquid equilibrium temperature, K	uncertainty
0.0163	274.9	0.29
0.0223	281.7	0.28
0.0245	283.75	0.24
0.0307	288.48	0.22
0.0412	295.55	0.2
0.0545	301.32	0.19
0.068	307.5	0.19
0.0792	311.7	0.19
0.0933	316.8	0.19

System: 2-acetoxybenzoic acid + octan-1-ol; phases: Liquid, Crystal
Fixed: Pressure, kPa = 101
Property: Solid-liquid equilibrium temperature, K (Liquid); method: VISOBS
Mole fraction of 2-acetoxybenzoic acid	Solid-liquid equilibrium temperature, K	uncertainty
0.01	272.14	0.4
0.0152	281.45	0.33
0.0235	291.53	0.25
0.0434	307.12	0.22
0.0518	311.1	0.2
0.0794	323.41	0.19
0.1012	331.4	0.19
0.1185	336.35	0.18
0.1352	340.25	0.18
0.1474	343.3	0.18

System: ethanol + N-acetyl-p-aminophenol; phases: Liquid, Crystal
Fixed: Pressure, kPa = 101
Property: Solid-liquid equilibrium temperature, K (Liquid); method: VISOBS
Mole fraction of N-acetyl-p-aminophenol	Solid-liquid equilibrium temperature, K	uncertainty
0.0444	284.49	0.34
0.0471	288.38	0.33
0.0508	293.54	0.28
0.0539	295.69	0.25
0.0603	302.06	0.25
0.0634	304.3	0.24
0.0687	309.05	0.25
0.0737	313.41	0.23
0.0773	315.66	0.21
0.0831	318.74	0.2

System: propan-2-ol + N-acetyl-p-aminophenol; phases: Liquid, Crystal
Fixed: Pressure, kPa = 101
Property: Solid-liquid equilibrium temperature, K (Liquid); method: VISOBS
Mole fraction of N-acetyl-p-aminophenol	Solid-liquid equilibrium temperature, K	uncertainty
0.0256	273.5	0.33
0.0372	289.99	0.32
0.0473	302.5	0.27
0.0583	311.9	0.24
0.0695	321.14	0.22
0.079	326.4	0.21
0.0868	330.95	0.2
0.0982	336.51	0.2
0.1069	340.69	0.2

System: N-acetyl-p-aminophenol + octan-1-ol; phases: Liquid, Crystal
Fixed: Pressure, kPa = 101
Property: Solid-liquid equilibrium temperature, K (Liquid); method: VISOBS
Mole fraction of N-acetyl-p-aminophenol	Solid-liquid equilibrium temperature, K	uncertainty
0.0057	262.78	1.03
0.0082	275.42	0.99
0.0104	285.72	0.75
0.0151	301.15	0.53
0.0204	311.02	0.42
0.0276	324.97	0.39
0.0304	328.32	0.31
0.0375	337.42	0.3
0.0466	348.21	0.27
0.0545	354.88	0.23
0.0612	359.72	0.23

System: methanol + guanidine; phases: Liquid, Crystal
Fixed: Pressure, kPa = 101
Property: Solid-liquid equilibrium temperature, K (Liquid); method: VISOBS
Mole fraction of guanidine	Solid-liquid equilibrium temperature, K	uncertainty
0.0082	281.04	0.55
0.0098	285.25	0.49
0.0119	289.65	0.4
0.0138	292.46	0.35
0.0166	296.7	0.32
0.02	300.65	0.28
0.0248	305.97	0.27
0.0274	307.99	0.25
0.0292	309.88	0.23
0.0327	312.16	0.21
0.0356	313.88	0.22
0.0363	314.37	0.23
0.0373	315.18	0.24

System: ethanol + guanidine; phases: Liquid, Crystal
Fixed: Pressure, kPa = 101
Property: Solid-liquid equilibrium temperature, K (Liquid); method: VISOBS
Mole fraction of guanidine	Solid-liquid equilibrium temperature, K	uncertainty
0.005	297.26	0.64
0.0081	306.76	0.61
0.0091	309.1	0.49
0.0101	311.34	0.4
0.0122	314.84	0.33
0.0151	318.47	0.31
0.017	320.95	0.29
0.0202	324.51	0.27
0.0229	327.18	0.27
0.0247	329.11	0.25
0.03	333.48	0.24
