Measured thermophysical data. Thermodynamic properties of new heat pump working pairs: 1,3-Dimethylimidazolium dimethylphosphate and water, ethanol and methanol
Source: Fluid Phase Equilib., 2010, 10.1016/j.fluid.2010.07.005
Compound 1: water, H2O, InChI=1S/H2O/h1H2, purity 99.8%
Compound 2: 1,3-dimethylimidazolium dimethylphosphate, C7H15N2O4P, InChI=1S/C5H9N2.C2H7O4P/c1-6-3-4-7(2)5-6;1-5-7(3,4)6-2/h3-5H,1-2H3;1-2H3,(H,3,4)/q+1;/p-1, purity 99.6%
Compound 3: ethanol, C2H6O, InChI=1S/C2H6O/c1-2-3/h3H,2H2,1H3, purity 99%
Compound 4: methanol, CH4O, InChI=1S/CH4O/c1-2/h2H,1H3, purity 99%

System: 1,3-dimethylimidazolium dimethylphosphate; phases: Liquid
Fixed: Pressure, kPa = 101.325
Property: Molar heat capacity at constant pressure, J/K/mol (Liquid); method: Vacuum adiabatic calorimetry
Temperature, K	Molar heat capacity at constant pressure, J/K/mol	uncertainty
298.15	282.833664593	13.33073046
303.15	296.608752735	13.33073046
313.15	310.828198559	13.33073046
323.15	321.048425245	13.33073046

System: 1,3-dimethylimidazolium dimethylphosphate; phases: Liquid
Fixed: Pressure, kPa = 101.325
Property: Viscosity, Pa*s (Liquid); method: Capillary tube (Ostwald; Ubbelohde) method
Temperature, K	Viscosity, Pa*s	uncertainty
298.15	0.27186	0.008
303.15	0.1883	0.00446
308.15	0.13949	0.00258
313.15	0.11025	0.00161
318.15	0.08444	0.00088
323.15	0.06999	0.00059

System: 1,3-dimethylimidazolium dimethylphosphate; phases: Liquid
Fixed: Pressure, kPa = 101.325
Property: Mass density, kg/m3 (Liquid); method: Speicific gravity balance
Temperature, K	Mass density, kg/m3	uncertainty
298.15	1258.7	1.2
303.15	1255.9	1.2
308.15	1253	1.2
313.15	1249.1	1.2
318.15	1245.2	1.2
323.15	1241.5	1.2

System: water + 1,3-dimethylimidazolium dimethylphosphate; phases: Liquid
Fixed: Pressure, kPa = 101.325
Fixed: Temperature, K = 298.15
Property: Excess molar enthalpy (molar enthalpy of mixing), kJ/mol (Liquid); method: Flow calorimetry
Mole fraction of 1,3-dimethylimidazolium dimethylphosphate	Excess molar enthalpy (molar enthalpy of mixing), kJ/mol	uncertainty
0	0	0.23
0.104	-4.696	0.239
0.209	-5.922	0.234
0.369	-6.432	0.235
0.498	-6.047	0.234
0.604	-5.368	0.235
1	0	0.23

System: water + 1,3-dimethylimidazolium dimethylphosphate; phases: Liquid
Fixed: Pressure, kPa = 101.325
Property: Molar heat capacity at constant pressure, J/K/mol (Liquid); method: Vacuum adiabatic calorimetry
Temperature, K	Mole fraction of 1,3-dimethylimidazolium dimethylphosphate	Molar heat capacity at constant pressure, J/K/mol	uncertainty
298.15	0.21	116.48185800053	3.6533776686
298.15	0.375	143.18899567775	5.6745969225
298.15	0.57	197.41672085213	8.0633105862
298.15	0.821	255.803050614618	11.13801381486
298.15	1	282.833664593	13.33073046
303.15	0.21	124.2148407324	3.6533776686
303.15	0.375	151.228007984625	5.6745969225
303.15	0.57	205.74880845787	8.0633105862
303.15	0.821	267.683598683802	11.13801381486
303.15	1	296.608752735	13.33073046
313.15	0.21	147.9617955783	3.71426729641
313.15	0.375	167.211455983	5.6745969225
313.15	0.57	220.80032155211	8.0633105862
313.15	0.821	284.761886533254	11.13801381486
313.15	1	310.828198559	13.33073046
323.15	0.21	171.34341265734	3.71426729641
323.15	0.375	182.627444289125	5.769173537875
323.15	0.57	232.89528743141	8.0633105862
323.15	0.821	298.313136674667	11.13801381486
323.15	1	321.048425245	13.33073046

System: water + 1,3-dimethylimidazolium dimethylphosphate; phases: Liquid
Fixed: Pressure, kPa = 101.325
Property: Viscosity, Pa*s (Liquid); method: Capillary tube (Ostwald; Ubbelohde) method
Temperature, K	Mole fraction of 1,3-dimethylimidazolium dimethylphosphate	Viscosity, Pa*s	uncertainty
298.15	0.252	0.04002	0.00055
298.15	0.428	0.07443	0.00101
298.15	0.617	0.14521	0.0028
298.15	0.795	0.19792	0.00485
298.15	1	0.27186	0.008
303.15	0.252	0.03261	0.00046
303.15	0.428	0.05522	0.00063
303.15	0.617	0.11023	0.00169
303.15	0.795	0.13881	0.00264
303.15	1	0.1883	0.00446
308.15	0.252	0.02446	0.00041
308.15	0.428	0.04351	0.00052
308.15	0.617	0.08204	0.00091
308.15	0.795	0.10459	0.00149
308.15	1	0.13949	0.00258
313.15	0.252	0.02028	0.00038
313.15	0.428	0.03523	0.00046
313.15	0.617	0.06613	0.00059
313.15	0.795	0.08027	0.00084
313.15	1	0.11025	0.00161
318.15	0.252	0.01697	0.00035
318.15	0.428	0.02792	0.00041
318.15	0.617	0.05166	0.00045
318.15	0.795	0.06301	0.00054
318.15	1	0.08444	0.00088
323.15	0.252	0.0145	0.00035
323.15	0.428	0.02363	0.00037
323.15	0.617	0.04192	0.00047
323.15	0.795	0.05035	0.00041
323.15	1	0.06999	0.00059

System: water + 1,3-dimethylimidazolium dimethylphosphate; phases: Liquid, Gas
Property: Vapor or sublimation pressure, kPa (Liquid); method: Manometric method
Mole fraction of 1,3-dimethylimidazolium dimethylphosphate	Temperature, K	Vapor or sublimation pressure, kPa	uncertainty
0.105	329.35	6.62	0.24
0.105	334.85	9.82	0.28
0.105	339.4	12.81	0.36
0.105	342.75	15.53	0.43
0.105	345.85	18.54	0.49
0.105	348.65	21.61	0.54
0.105	350.95	24.15	0.59
0.105	353.15	26.82	0.63
0.105	355.05	29.35	0.69
0.105	356.9	32.15	0.74
0.201	352.65	11.79	0.4
0.201	355.75	14.36	0.45
0.201	359.45	17.21	0.45
0.201	361.95	19.88	0.46
0.201	364.65	22.68	0.54
0.201	366.6	25.38	0.58
0.201	369.65	28.82	0.64
0.201	371.95	32.02	0.77
0.308	359.7	7.34	0.26
0.308	365.15	10.27	0.33
0.308	376.15	16.94	0.48
0.308	380.15	20.55	0.49
0.308	384.15	23.88	0.56
0.308	387.65	28.15	0.65
0.308	389.15	31.09	0.7
0.308	393.15	35.09	0.79
0.308	395.15	38.48	0.85
0.41	383.65	10.81	0.35
0.41	387.15	13.74	0.41
0.41	392.65	17.37	0.49
0.41	398.15	22.41	0.59
0.41	401.65	26.1	0.53
0.41	405.15	29.4	0.65
0.41	408.75	33.35	0.73
0.41	410.65	36.88	0.81
0.56	408.15	13.83	0.39
0.56	410.75	16.15	0.44
0.56	414.15	19.01	0.48
0.56	419.15	22.48	0.54
0.56	421.65	25.41	0.63
0.56	423.25	27.71	0.68
0.56	428.75	35.28	1.25
0.56	429.75	39.15	1.29

System: water + 1,3-dimethylimidazolium dimethylphosphate; phases: Liquid
Fixed: Pressure, kPa = 101.325
Property: Mass density, kg/m3 (Liquid); method: Speicific gravity balance
Temperature, K	Mole fraction of 1,3-dimethylimidazolium dimethylphosphate	Mass density, kg/m3	uncertainty
298.15	0.252	1233.4	1.2
298.15	0.428	1241.5	1.2
298.15	0.617	1248.5	1.2
298.15	0.795	1253.6	1.2
298.15	1	1258.7	1.2
303.15	0.252	1231	1.2
303.15	0.428	1239.4	1.2
303.15	0.617	1245.8	1.2
303.15	0.795	1250.5	1.2
303.15	1	1255.9	1.2
308.15	0.252	1227.9	1.2
308.15	0.428	1236.2	1.2
308.15	0.617	1241.8	1.2
308.15	0.795	1247.2	1.2
308.15	1	1253	1.2
313.15	0.252	1224	1.2
313.15	0.428	1233.6	1.2
313.15	0.617	1239.3	1.2
313.15	0.795	1243.9	1.2
313.15	1	1249.1	1.2
318.15	0.252	1220.8	1.2
318.15	0.428	1230.5	1.2
318.15	0.617	1236.1	1.2
318.15	0.795	1241.1	1.2
318.15	1	1245.2	1.2
323.15	0.252	1216.8	1.2
323.15	0.428	1226.2	1.2
323.15	0.617	1232.9	1.2
323.15	0.795	1236.8	1.2
323.15	1	1241.5	1.2

System: ethanol + 1,3-dimethylimidazolium dimethylphosphate; phases: Liquid
Fixed: Pressure, kPa = 101.325
Fixed: Temperature, K = 298.15
Property: Excess molar enthalpy (molar enthalpy of mixing), kJ/mol (Liquid); method: Flow calorimetry
Mole fraction of 1,3-dimethylimidazolium dimethylphosphate	Excess molar enthalpy (molar enthalpy of mixing), kJ/mol	uncertainty
0	0	0.036
0.177	-1.375	0.04
0.307	-2.011	0.039
0.524	-2.029	0.039
0.665	-1.578	0.039
0.8	-1.009	0.038
1	0	0.036

System: ethanol + 1,3-dimethylimidazolium dimethylphosphate; phases: Liquid
Fixed: Pressure, kPa = 101.325
Property: Molar heat capacity at constant pressure, J/K/mol (Liquid); method: Vacuum adiabatic calorimetry
Temperature, K	Mole fraction of 1,3-dimethylimidazolium dimethylphosphate	Molar heat capacity at constant pressure, J/K/mol	uncertainty
298.15	0.224	145.293671530976	5.13103018944
298.15	0.408	193.744997567944	7.07528901648
298.15	0.596	235.909233311752	9.06181433976
298.15	0.803	258.541941872137	11.24910552018
298.15	1	282.833664593	13.33073046
303.15	0.224	153.588837003904	5.13103018944
303.15	0.408	205.301302961528	7.07528901648
303.15	0.596	247.991652431432	9.06181433976
303.15	0.803	267.728711380284	11.24910552018
303.15	1	296.608752735	13.33073046
313.15	0.224	172.146062855712	5.13103018944
313.15	0.408	227.824306330656	7.07528901648
313.15	0.596	280.91624453256	9.06181433976
313.15	0.803	289.851952236638	11.24910552018
313.15	1	310.828198559	13.33073046
323.15	0.224	190.190185688576	5.13103018944
323.15	0.408	247.281351125976	7.07528901648
323.15	0.596	299.341933690072	9.06181433976
323.15	0.803	304.850759596878	11.24910552018
323.15	1	321.048425245	13.33073046

System: ethanol + 1,3-dimethylimidazolium dimethylphosphate; phases: Liquid
Fixed: Pressure, kPa = 101.325
Property: Viscosity, Pa*s (Liquid); method: Capillary tube (Ostwald; Ubbelohde) method
Temperature, K	Mole fraction of 1,3-dimethylimidazolium dimethylphosphate	Viscosity, Pa*s	uncertainty
298.15	0.202	0.00683	0.00076
298.15	0.414	0.02299	0.00081
298.15	0.562	0.04876	0.00107
298.15	0.807	0.13788	0.00284
298.15	1	0.27186	0.008
303.15	0.202	0.00598	0.00075
303.15	0.414	0.019	0.00077
303.15	0.562	0.03845	0.00091
303.15	0.807	0.10591	0.00172
303.15	1	0.1883	0.00446
308.15	0.202	0.0053	0.00075
308.15	0.414	0.01621	0.00076
308.15	0.562	0.0308	0.00084
308.15	0.807	0.08022	0.00117
308.15	1	0.13949	0.00258
313.15	0.202	0.00483	0.00075
313.15	0.414	0.01415	0.00075
313.15	0.562	0.02647	0.0008
313.15	0.807	0.06376	0.00093
313.15	1	0.11025	0.00166
318.15	0.202	0.00432	0.00074
318.15	0.414	0.01235	0.00075
318.15	0.562	0.02223	0.00078
318.15	0.807	0.05057	0.00083
318.15	1	0.08444	0.00111
323.15	0.202	0.00394	0.00074
323.15	0.414	0.01103	0.00075
323.15	0.562	0.01927	0.00076
323.15	0.807	0.04211	0.0008
323.15	1	0.06999	0.00089

System: ethanol + 1,3-dimethylimidazolium dimethylphosphate; phases: Liquid, Gas
Property: Vapor or sublimation pressure, kPa (Liquid); method: Manometric method
Mole fraction of 1,3-dimethylimidazolium dimethylphosphate	Temperature, K	Vapor or sublimation pressure, kPa	uncertainty
0.109	330.05	29.48	0.65
0.109	331.95	32.21	0.7
0.109	333.85	35.09	0.77
0.109	335.5	37.89	0.83
0.109	337.05	40.77	0.89
0.109	338.45	43.36	0.94
0.109	339.75	46.16	1
0.109	341.15	49.1	1.07
0.109	342.45	52.3	1.14
0.109	343.45	55.1	1.21
0.207	329	17.69	0.44
0.207	331.15	19.93	0.48
0.207	333.45	22.28	0.53
0.207	336.45	25.8	0.6
0.207	338.55	28.47	0.65
0.207	340.1	30.69	0.71
0.207	342.1	33.75	0.77
0.207	344.2	37.09	0.84
0.207	346.05	40.21	0.91
0.207	347.75	43.36	0.96
0.301	338.15	16.28	0.43
0.301	340.95	18.54	0.48
0.301	343.8	21.03	0.55
0.301	346.95	24.55	0.64
0.301	349.4	27.35	0.68
0.301	351.4	30.02	0.68
0.301	353.5	33.22	0.73
0.301	355.35	35.76	0.79
0.301	357.5	38.82	0.86
0.301	359.1	41.57	0.91
0.405	352.95	18.73	0.48
0.405	355.95	21.21	0.53
0.405	358.45	23.75	0.59
0.405	360.95	26.47	0.64
0.405	363.4	29.3	0.69
0.405	365.7	32.07	0.74
0.405	367.3	34.29	0.76
0.405	369.2	37.3	0.82
0.405	370.8	40.16	0.88
0.405	372.3	42.83	0.93
0.491	374.25	32.9	0.72
0.491	378.25	36.37	0.79
0.491	380.4	38.82	0.86
0.491	381.65	40.88	0.95
0.491	383.15	43.89	0.99
0.491	385	46.83	1.05
0.491	386.55	50.22	1.15
0.491	388.15	53.37	1.22
0.491	389.4	56.43	1.24
0.491	391.3	59.64	1.25

System: ethanol + 1,3-dimethylimidazolium dimethylphosphate; phases: Liquid
Fixed: Pressure, kPa = 101.325
Property: Mass density, kg/m3 (Liquid); method: Specific gravity balance
Temperature, K	Mole fraction of 1,3-dimethylimidazolium dimethylphosphate	Mass density, kg/m3	uncertainty
298.15	0.202	1000.6	1.6
298.15	0.414	1116.5	1.5
298.15	0.562	1166.7	1.3
298.15	0.807	1223.2	1.3
298.15	1	1258.7	1.2
303.15	0.202	996.6	1.6
303.15	0.414	1113.4	1.5
303.15	0.562	1163.4	1.3
303.15	0.807	1219.5	1.3
303.15	1	1255.9	1.2
308.15	0.202	992.7	1.6
308.15	0.414	1109.8	1.5
308.15	0.562	1159.7	1.3
308.15	0.807	1216.8	1.3
308.15	1	1253	1.2
313.15	0.202	989.7	1.6
313.15	0.414	1106.6	1.5
313.15	0.562	1156.2	1.3
313.15	0.807	1213.8	1.3
313.15	1	1249.1	1.2
318.15	0.202	986.9	1.6
318.15	0.414	1103.5	1.5
318.15	0.562	1152.4	1.3
318.15	0.807	1211.4	1.3
318.15	1	1245.2	1.2
323.15	0.202	983.2	1.6
323.15	0.414	1098.4	1.6
323.15	0.562	1148.5	1.3
323.15	0.807	1207.5	1.3
323.15	1	1241.5	1.2

System: methanol + 1,3-dimethylimidazolium dimethylphosphate; phases: Liquid
Fixed: Pressure, kPa = 101.325
Fixed: Temperature, K = 298.15
Property: Excess molar enthalpy (molar enthalpy of mixing), kJ/mol (Liquid); method: Flow calorimetry
Mole fraction of 1,3-dimethylimidazolium dimethylphosphate	Excess molar enthalpy (molar enthalpy of mixing), kJ/mol	uncertainty
0	0	0.022
0.165	-2.256	0.036
0.28	-3.26	0.033
0.466	-3.276	0.033
0.593	-2.874	0.032
0.744	-1.988	0.03
1	0	0.022

System: methanol + 1,3-dimethylimidazolium dimethylphosphate; phases: Liquid
Fixed: Pressure, kPa = 101.325
Property: Molar heat capacity at constant pressure, J/K/mol (Liquid); method: Vacuum adiabatic calorimetry
Temperature, K	Mole fraction of 1,3-dimethylimidazolium dimethylphosphate	Molar heat capacity at constant pressure, J/K/mol	uncertainty
298.15	0.202	130.824777510834	4.22697180972
298.15	0.399	177.614124379674	6.47439092514
298.15	0.591	215.463921130332	8.66476894626
298.15	0.81	256.7528841618	11.1631688766
298.15	1	282.833664593	13.33073046
303.15	0.202	144.77378448291	4.22697180972
303.15	0.399	191.426158353306	6.47439092514
303.15	0.591	225.28399260276	8.66476894626
303.15	0.81	261.77631015627	11.1631688766
303.15	1	296.608752735	13.33073046
313.15	0.202	169.008422858638	4.22697180972
313.15	0.399	214.086526591296	6.47439092514
313.15	0.591	246.801502152639	8.66476894626
313.15	0.81	274.80000717897	11.1631688766
313.15	1	310.828198559	13.33073046
323.15	0.202	190.072832377076	4.22697180972
323.15	0.399	233.401792851297	6.47439092514
323.15	0.591	262.542499071678	8.66476894626
323.15	0.81	290.2423907916	11.1631688766
323.15	1	321.048425245	13.33073046

System: methanol + 1,3-dimethylimidazolium dimethylphosphate; phases: Liquid
Fixed: Pressure, kPa = 101.325
Property: Viscosity, Pa*s (Liquid); method: Capillary tube (Ostwald; Ubbelohde) method
Temperature, K	Mole fraction of 1,3-dimethylimidazolium dimethylphosphate	Viscosity, Pa*s	uncertainty
298.15	0.203	0.0038	0.0003
298.15	0.399	0.01833	0.00041
298.15	0.603	0.0539	0.00099
298.15	0.805	0.14563	0.00313
298.15	1	0.27186	0.008
303.15	0.203	0.00332	0.00029
303.15	0.399	0.01656	0.00033
303.15	0.603	0.03818	0.00056
303.15	0.805	0.09868	0.00157
303.15	1	0.1883	0.00446
308.15	0.203	0.00306	0.00028
308.15	0.399	0.01243	0.00031
308.15	0.603	0.03137	0.00045
308.15	0.805	0.0754	0.00088
308.15	1	0.13949	0.00258
313.15	0.203	0.00284	0.00027
313.15	0.399	0.01108	0.00029
313.15	0.603	0.0258	0.00039
313.15	0.805	0.06157	0.00062
313.15	1	0.11025	0.00161
318.15	0.203	0.0026	0.00027
318.15	0.399	0.00976	0.00029
318.15	0.603	0.02286	0.00035
318.15	0.805	0.0499	0.00051
318.15	1	0.08444	0.00088
323.15	0.203	0.0024	0.00027
323.15	0.399	0.00879	0.00028
323.15	0.603	0.01845	0.00032
323.15	0.805	0.0402	0.00043
323.15	1	0.06999	0.00056

System: methanol + 1,3-dimethylimidazolium dimethylphosphate; phases: Liquid, Gas
Property: Vapor or sublimation pressure, kPa (Liquid); method: Manometric method
Mole fraction of 1,3-dimethylimidazolium dimethylphosphate	Temperature, K	Vapor or sublimation pressure, kPa	uncertainty
0.104	311.55	23.93	0.57
0.104	315.15	27.62	0.64
0.104	317	30.1	0.72
0.104	318.68	32.69	0.78
0.104	320.65	35.81	0.84
0.104	322.63	39.09	0.9
0.104	324.55	42.16	0.96
0.104	326.4	45.49	1.03
0.104	329.55	51.87	1.14
0.104	330.5	54.11	1.21
0.203	329	29.48	0.75
0.203	331.6	32.69	0.81
0.203	333.4	35.36	0.84
0.203	335.05	38.02	0.87
0.203	336.7	40.75	0.92
0.203	338.15	43.36	0.97
0.203	339.55	45.98	1.04
0.203	341	48.91	1.1
0.203	342.3	51.5	1.17
0.203	343.7	54.38	1.22
0.303	336.4	21.21	0.59
0.303	340.1	24.44	0.67
0.303	342.9	27.35	0.75
0.303	345.2	30.02	0.81
0.303	347.55	33.19	0.86
0.303	350.05	36.42	0.81
0.303	351.9	39.49	0.87
0.303	353.7	42.43	0.93
0.303	355.5	45.63	1.01
0.303	357.15	48.7	1.07
0.413	352.35	22.15	0.56
0.413	356.15	24.82	0.64
0.413	358.5	27.48	0.68
0.413	361.15	30.1	0.67
0.413	362.55	32.55	0.72
0.413	365.2	35.36	0.79
0.413	367	37.76	0.85
0.413	368.6	40.67	0.9
0.413	370.45	43.63	0.98
0.413	371.95	46.3	1.03
0.5	361.65	19.56	0.48
0.5	365.7	22.28	0.55
0.5	367.95	24.42	0.62
0.5	371.25	27.48	0.7
0.5	374.25	30.42	0.75
0.5	376.25	33.09	0.81
0.5	378.65	36.29	0.85
0.5	381.15	39.14	0.91
0.5	383.25	42.29	1.01
0.5	385.15	45.76	1.09

System: methanol + 1,3-dimethylimidazolium dimethylphosphate; phases: Liquid
Fixed: Pressure, kPa = 101.325
Property: Mass density, kg/m3 (Liquid); method: Specific gravity balance
Temperature, K	Mole fraction of 1,3-dimethylimidazolium dimethylphosphate	Mass density, kg/m3	uncertainty
298.15	0.203	1040.2	1.5
298.15	0.399	1158.3	1.2
298.15	0.603	1205.5	0.9
298.15	0.805	1236.4	0.8
298.15	1	1258.7	0.8
303.15	0.203	1037.1	1.5
303.15	0.399	1155.2	1.2
303.15	0.603	1201.4	0.9
303.15	0.805	1233	0.9
303.15	1	1255.9	0.8
308.15	0.203	1033.2	1.5
308.15	0.399	1151.2	1.2
308.15	0.603	1197.8	0.9
308.15	0.805	1229.7	0.9
308.15	1	1253	0.8
313.15	0.203	1030.2	1.5
313.15	0.399	1148.1	1.2
313.15	0.603	1194.1	0.9
313.15	0.805	1226.4	0.9
313.15	1	1249.1	0.8
318.15	0.203	1027.6	1.5
318.15	0.399	1147	1.2
318.15	0.603	1190.8	0.9
318.15	0.805	1223.1	0.9
318.15	1	1245.2	0.8
323.15	0.203	1025.1	1.4
323.15	0.399	1140.1	1.3
323.15	0.603	1188	0.9
323.15	0.805	1219.8	0.9
323.15	1	1241.5	0.8
