Measured thermophysical data. Vapor liquid equilibria and density measurement for binary mixtures of o-xylene + NMF, m-xylene +NMF and p-xylene +NMF at 333.15 K, 343.15 K and 353.15 K from 0 kPa to 101.3 kPa
Source: Fluid Phase Equilib., 2010, 10.1016/j.fluid.2009.12.002
Compound 1: 1,2-dimethylbenzene, C8H10, InChI=1S/C8H10/c1-7-5-3-4-6-8(7)2/h3-6H,1-2H3
Compound 2: N-methylformamide, C2H5NO, InChI=1S/C2H5NO/c1-3-2-4/h2H,1H3,(H,3,4)
Compound 3: 1,3-dimethylbenzene, C8H10, InChI=1S/C8H10/c1-7-4-3-5-8(2)6-7/h3-6H,1-2H3
Compound 4: 1,4-dimethylbenzene, C8H10, InChI=1S/C8H10/c1-7-3-5-8(2)6-4-7/h3-6H,1-2H3

System: 1,2-dimethylbenzene; phases: Liquid, Gas
Property: Vapor or sublimation pressure, kPa (Liquid); method: isothermal bubble-point pressure
Temperature, K	Vapor or sublimation pressure, kPa	uncertainty
333.15	5.45	0.02
343.15	8.47	0.03
353.15	12.71	0.03

System: 1,2-dimethylbenzene; phases: Gas, Liquid
Property: Mass density, kg/m3 (Gas); method: Vibrating tube method
Temperature, K	Mass density, kg/m3	uncertainty
333.15	0.2087	0.104
343.15	0.3149	0.104
353.15	0.4587	0.104

System: 1,2-dimethylbenzene; phases: Liquid, Gas
Property: Mass density, kg/m3 (Liquid); method: Vibrating tube method
Temperature, K	Mass density, kg/m3	uncertainty
333.15	845.839	0.235
343.15	837.399	0.235
353.15	828.528	0.236

System: N-methylformamide; phases: Liquid, Gas
Property: Vapor or sublimation pressure, kPa (Liquid); method: isothermal bubble-point pressure
Temperature, K	Vapor or sublimation pressure, kPa	uncertainty
333.15	0.37	0.02
343.15	0.67	0.02
353.15	1.15	0.02

System: N-methylformamide; phases: Gas, Liquid
Property: Mass density, kg/m3 (Gas); method: Vibrating tube method
Temperature, K	Mass density, kg/m3	uncertainty
333.15	0.0079	0.1039
343.15	0.0138	0.1039
353.15	0.0231	0.104

System: N-methylformamide; phases: Liquid, Gas
Property: Mass density, kg/m3 (Liquid); method: Vibrating tube method
Temperature, K	Mass density, kg/m3	uncertainty
333.15	967.461	0.232
343.15	958.765	0.232
353.15	949.98	0.232

System: 1,3-dimethylbenzene; phases: Liquid, Gas
Property: Vapor or sublimation pressure, kPa (Liquid); method: isothermal bubble-point pressure
Temperature, K	Vapor or sublimation pressure, kPa	uncertainty
333.15	6.58	0.03
343.15	10.17	0.03
353.15	15.12	0.04

System: 1,3-dimethylbenzene; phases: Gas, Liquid
Property: Mass density, kg/m3 (Gas); method: Vibrating tube method
Temperature, K	Mass density, kg/m3	uncertainty
333.15	0.2519	0.104
343.15	0.3779	0.104
353.15	0.5457	0.104

System: 1,3-dimethylbenzene; phases: Liquid, Gas
Property: Mass density, kg/m3 (Liquid); method: Vibrating tube method
Temperature, K	Mass density, kg/m3	uncertainty
333.15	829.305	0.236
343.15	820.443	0.236
353.15	811.602	0.237

System: 1,4-dimethylbenzene; phases: Liquid, Gas
Property: Vapor or sublimation pressure, kPa (Liquid); method: isothermal bubble-point pressure
Temperature, K	Vapor or sublimation pressure, kPa	uncertainty
333.15	6.85	0.03
343.15	10.5	0.03
353.15	15.61	0.04

System: 1,4-dimethylbenzene; phases: Liquid, Gas
Property: Mass density, kg/m3 (Liquid); method: Vibrating tube method
Temperature, K	Mass density, kg/m3	uncertainty
333.15	825.539	0.236
343.15	816.664	0.236
353.15	807.649	0.237

System: 1,4-dimethylbenzene; phases: Gas, Liquid
Property: Mass density, kg/m3 (Gas); method: Vibrating tube method
Temperature, K	Mass density, kg/m3	uncertainty
333.15	0.262	0.104
343.15	0.3903	0.104
353.15	0.5636	0.104

System: 1,2-dimethylbenzene + N-methylformamide; phases: Gas, Liquid
Property: Vapor or sublimation pressure, kPa (Gas); method: isothermal bubble-point pressure
Temperature, K	Mole fraction of 1,2-dimethylbenzene	Vapor or sublimation pressure, kPa	uncertainty
333.15	0	0.37	0.02
333.15	0.1	0.92	0.02
333.15	0.201	1.46	0.02
333.15	0.3	1.98	0.02
333.15	0.401	2.49	0.02
333.15	0.499	2.98	0.02
333.15	0.601	3.49	0.02
333.15	0.698	3.96	0.02
333.15	0.8	4.46	0.03
333.15	0.899	4.93	0.03
333.15	1	5.45	0.02
343.15	0	0.67	0.02
343.15	0.099	1.49	0.03
343.15	0.201	2.3	0.03
343.15	0.301	3.08	0.03
343.15	0.4	3.86	0.03
343.15	0.5	4.63	0.03
343.15	0.599	5.41	0.03
343.15	0.7	6.14	0.03
343.15	0.8	6.88	0.03
343.15	0.899	7.64	0.03
343.15	1	8.47	0.03
353.15	0	1.15	0.02
353.15	0.1	2.34	0.03
353.15	0.2	3.55	0.03
353.15	0.3	4.68	0.03
353.15	0.4	5.85	0.03
353.15	0.499	6.99	0.03
353.15	0.601	8.14	0.03
353.15	0.699	9.22	0.04
353.15	0.801	10.46	0.04
353.15	0.9	11.51	0.04
353.15	1	12.71	0.03

System: 1,2-dimethylbenzene + N-methylformamide; phases: Gas, Liquid
Property: Mass density, kg/m3 (Gas); method: Vibrating tube method
Temperature, K	Mole fraction of 1,2-dimethylbenzene	Mass density, kg/m3	uncertainty
333.15	0	0.0079	0.1039
333.15	0.1	0.0212	0.1039
333.15	0.201	0.036	0.1039
333.15	0.3	0.0524	0.1039
333.15	0.401	0.07	0.1039
333.15	0.499	0.0889	0.1039
333.15	0.601	0.1099	0.1039
333.15	0.698	0.1312	0.1039
333.15	0.8	0.1556	0.1039
333.15	0.899	0.1804	0.1039
333.15	1	0.2087	0.104
343.15	0	0.0138	0.1039
343.15	0.099	0.033	0.1039
343.15	0.201	0.0552	0.1039
343.15	0.301	0.0789	0.104
343.15	0.4	0.1051	0.104
343.15	0.5	0.1338	0.104
343.15	0.599	0.1652	0.104
343.15	0.7	0.198	0.104
343.15	0.8	0.2331	0.104
343.15	0.899	0.2713	0.104
343.15	1	0.3149	0.104
353.15	0	0.0231	0.104
353.15	0.1	0.0507	0.104
353.15	0.2	0.0826	0.104
353.15	0.3	0.1164	0.104
353.15	0.4	0.1549	0.104
353.15	0.499	0.1963	0.104
353.15	0.601	0.242	0.104
353.15	0.699	0.2884	0.104
353.15	0.801	0.3442	0.104
353.15	0.9	0.397	0.104
353.15	1	0.4587	0.104

System: 1,2-dimethylbenzene + N-methylformamide; phases: Liquid, Gas
Property: Mass density, kg/m3 (Liquid); method: Vibrating tube method
Temperature, K	Mole fraction of 1,2-dimethylbenzene	Mass density, kg/m3	uncertainty
333.15	0	967.461	0.232
333.15	0.1	955.279	0.336
333.15	0.201	943.061	0.336
333.15	0.3	930.949	0.337
333.15	0.401	918.701	0.337
333.15	0.499	906.743	0.337
333.15	0.601	894.398	0.336
333.15	0.698	882.623	0.338
333.15	0.8	870.121	0.338
333.15	0.899	858.136	0.337
333.15	1	845.839	0.235
343.15	0	958.765	0.232
343.15	0.099	946.741	0.336
343.15	0.201	934.413	0.336
343.15	0.301	922.286	0.336
343.15	0.4	910.279	0.336
343.15	0.5	898.117	0.337
343.15	0.599	886.023	0.337
343.15	0.7	873.758	0.336
343.15	0.8	861.715	0.337
343.15	0.899	849.639	0.338
343.15	1	837.399	0.235
353.15	0	949.98	0.232
353.15	0.1	937.805	0.336
353.15	0.2	925.706	0.336
353.15	0.3	913.562	0.336
353.15	0.4	901.432	0.337
353.15	0.499	889.316	0.337
353.15	0.601	877.006	0.337
353.15	0.699	865.051	0.337
353.15	0.801	852.738	0.338
353.15	0.9	840.639	0.338
353.15	1	828.528	0.236

System: 1,3-dimethylbenzene + N-methylformamide; phases: Gas, Liquid
Property: Vapor or sublimation pressure, kPa (Gas); method: isothermal bubble-point pressure
Temperature, K	Mole fraction of 1,3-dimethylbenzene	Vapor or sublimation pressure, kPa	uncertainty
333.15	0	0.37	0.02
333.15	0.1	0.98	0.02
333.15	0.2	1.69	0.02
333.15	0.301	2.31	0.02
333.15	0.4	2.92	0.03
333.15	0.501	3.54	0.03
333.15	0.601	4.18	0.03
333.15	0.701	4.7	0.03
333.15	0.8	5.32	0.03
333.15	0.899	5.94	0.03
333.15	1	6.58	0.03
343.15	0	0.67	0.02
343.15	0.1	1.74	0.03
343.15	0.201	2.69	0.03
343.15	0.3	3.55	0.03
343.15	0.401	4.48	0.03
343.15	0.499	5.56	0.03
343.15	0.601	6.38	0.03
343.15	0.698	7.33	0.03
343.15	0.8	8.27	0.03
343.15	0.899	9.22	0.03
343.15	1	10.17	0.03
353.15	0	1.15	0.02
353.15	0.099	2.55	0.04
353.15	0.201	4.02	0.04
353.15	0.3	5.4	0.04
353.15	0.4	6.77	0.04
353.15	0.5	8.13	0.04
353.15	0.6	9.53	0.04
353.15	0.699	10.91	0.04
353.15	0.8	12.25	0.04
353.15	0.9	13.71	0.05
353.15	1	15.12	0.04

System: 1,3-dimethylbenzene + N-methylformamide; phases: Gas, Liquid
Property: Mass density, kg/m3 (Gas); method: Vibrating tube method
Temperature, K	Mole fraction of 1,3-dimethylbenzene	Mass density, kg/m3	uncertainty
333.15	0	0.0079	0.1039
333.15	0.1	0.0224	0.1039
333.15	0.2	0.0418	0.1039
333.15	0.301	0.061	0.1039
333.15	0.4	0.082	0.1039
333.15	0.501	0.1057	0.1039
333.15	0.601	0.1318	0.1039
333.15	0.701	0.156	0.1039
333.15	0.8	0.1856	0.104
333.15	0.899	0.2172	0.104
333.15	1	0.2519	0.104
343.15	0	0.0138	0.1039
343.15	0.1	0.0543	0.104
343.15	0.201	0.0909	0.104
343.15	0.3	0.1242	0.104
343.15	0.401	0.1599	0.104
343.15	0.499	0.2008	0.104
343.15	0.601	0.2324	0.104
343.15	0.698	0.2687	0.104
343.15	0.8	0.3051	0.104
343.15	0.899	0.3414	0.104
343.15	1	0.3779	0.104
353.15	0	0.0231	0.104
353.15	0.099	0.0756	0.104
353.15	0.201	0.1304	0.104
353.15	0.3	0.1821	0.104
353.15	0.4	0.2333	0.104
353.15	0.5	0.2841	0.104
353.15	0.6	0.3366	0.104
353.15	0.699	0.388	0.104
353.15	0.8	0.4385	0.104
353.15	0.9	0.493	0.104
353.15	1	0.5457	0.104

System: 1,3-dimethylbenzene + N-methylformamide; phases: Liquid, Gas
Property: Mass density, kg/m3 (Liquid); method: Vibrating tube method
Temperature, K	Mole fraction of 1,3-dimethylbenzene	Mass density, kg/m3	uncertainty
333.15	0	967.461	0.232
333.15	0.1	953.656	0.361
333.15	0.2	939.829	0.361
333.15	0.301	925.816	0.361
333.15	0.4	912.15	0.36
333.15	0.501	898.304	0.361
333.15	0.601	884.463	0.362
333.15	0.701	870.672	0.363
333.15	0.8	856.867	0.363
333.15	0.899	843.274	0.362
333.15	1	829.305	0.236
343.15	0	958.765	0.232
343.15	0.1	944.911	0.361
343.15	0.201	931.014	0.361
343.15	0.3	917.24	0.362
343.15	0.401	903.309	0.362
343.15	0.499	889.71	0.362
343.15	0.601	875.637	0.361
343.15	0.698	862.285	0.363
343.15	0.8	848.058	0.363
343.15	0.899	834.428	0.363
343.15	1	820.443	0.236
353.15	0	949.98	0.232
353.15	0.099	936.271	0.362
353.15	0.201	922.151	0.361
353.15	0.3	908.47	0.362
353.15	0.4	894.594	0.362
353.15	0.5	880.82	0.362
353.15	0.6	866.999	0.363
353.15	0.699	853.268	0.364
353.15	0.8	839.222	0.363
353.15	0.9	825.505	0.363
353.15	1	811.602	0.237

System: 1,4-dimethylbenzene + N-methylformamide; phases: Liquid, Gas
Property: Vapor or sublimation pressure, kPa (Liquid); method: isothermal bubble-point pressure
Temperature, K	Mole fraction of 1,4-dimethylbenzene	Vapor or sublimation pressure, kPa	uncertainty
333.15	0	0.37	0.02
333.15	0.101	1.07	0.03
333.15	0.201	1.76	0.03
333.15	0.3	2.4	0.03
333.15	0.4	3.05	0.03
333.15	0.5	3.71	0.03
333.15	0.6	4.31	0.03
333.15	0.7	4.95	0.03
333.15	0.8	5.56	0.03
333.15	0.9	6.21	0.03
333.15	1	6.85	0.03
343.15	0	0.67	0.02
343.15	0.1	1.71	0.03
343.15	0.2	2.74	0.03
343.15	0.3	3.72	0.03
343.15	0.4	4.7	0.03
343.15	0.501	5.65	0.03
343.15	0.6	6.65	0.03
343.15	0.7	7.58	0.03
343.15	0.8	8.54	0.03
343.15	0.899	9.51	0.04
343.15	1	10.5	0.03
353.15	0	1.15	0.02
353.15	0.1	2.64	0.04
353.15	0.2	4.1	0.04
353.15	0.3	5.54	0.04
353.15	0.4	6.98	0.04
353.15	0.5	8.4	0.04
353.15	0.6	9.87	0.04
353.15	0.701	11.28	0.04
353.15	0.8	12.71	0.04
353.15	0.9	14.15	0.05
353.15	1	15.61	0.04

System: 1,4-dimethylbenzene + N-methylformamide; phases: Liquid, Gas
Property: Mass density, kg/m3 (Liquid); method: Vibrating tube method
Temperature, K	Mole fraction of 1,4-dimethylbenzene	Mass density, kg/m3	uncertainty
333.15	0	967.461	0.232
333.15	0.101	953.153	0.367
333.15	0.201	938.932	0.367
333.15	0.3	924.819	0.366
333.15	0.4	910.762	0.367
333.15	0.5	896.493	0.368
333.15	0.6	882.334	0.368
333.15	0.7	868.075	0.368
333.15	0.8	853.939	0.368
333.15	0.9	839.77	0.369
333.15	1	825.539	0.236
343.15	0	958.765	0.232
343.15	0.1	944.552	0.367
343.15	0.2	930.324	0.367
343.15	0.3	916.152	0.367
343.15	0.4	901.907	0.368
343.15	0.501	887.537	0.368
343.15	0.6	873.479	0.368
343.15	0.7	859.306	0.368
343.15	0.8	845.071	0.369
343.15	0.899	830.948	0.369
343.15	1	816.664	0.236
353.15	0	949.98	0.232
353.15	0.1	935.754	0.368
353.15	0.2	921.474	0.368
353.15	0.3	907.258	0.367
353.15	0.4	893.081	0.368
353.15	0.5	878.818	0.369
353.15	0.6	864.525	0.368
353.15	0.701	850.269	0.369
353.15	0.8	836.094	0.37
353.15	0.9	821.91	0.37
353.15	1	807.649	0.237

System: 1,4-dimethylbenzene + N-methylformamide; phases: Gas, Liquid
Property: Mass density, kg/m3 (Gas); method: Vibrating tube method
Temperature, K	Mole fraction of 1,4-dimethylbenzene	Mass density, kg/m3	uncertainty
333.15	0	0.0079	0.1039
333.15	0.101	0.0247	0.1039
333.15	0.201	0.0434	0.1039
333.15	0.3	0.0633	0.1039
333.15	0.4	0.0856	0.1039
333.15	0.5	0.1105	0.1039
333.15	0.6	0.1356	0.1039
333.15	0.7	0.1642	0.1039
333.15	0.8	0.194	0.104
333.15	0.9	0.2269	0.104
333.15	1	0.262	0.104
343.15	0	0.0138	0.1039
343.15	0.1	0.0382	0.1039
343.15	0.2	0.0658	0.104
343.15	0.3	0.0954	0.104
343.15	0.4	0.1281	0.104
343.15	0.501	0.1635	0.104
343.15	0.6	0.2033	0.104
343.15	0.7	0.2443	0.104
343.15	0.8	0.2891	0.104
343.15	0.899	0.3375	0.104
343.15	1	0.3903	0.104
353.15	0	0.0231	0.104
353.15	0.1	0.0572	0.104
353.15	0.2	0.0955	0.104
353.15	0.3	0.138	0.104
353.15	0.4	0.1851	0.104
353.15	0.5	0.2361	0.104
353.15	0.6	0.2932	0.104
353.15	0.701	0.353	0.104
353.15	0.8	0.4183	0.104
353.15	0.9	0.4883	0.104
353.15	1	0.5636	0.104
