Measured thermophysical data. Experimental investigation and modeling of phase equilibria for Cu-Bi and Cu-Bi-Sb alloys in vacuum distillation
Source: Fluid Phase Equilib., 2019, 10.1016/j.fluid.2019.03.003
Compound 1: bismuth, Bi, InChI=1S/Bi, purity 99.99%
Compound 2: copper, Cu, InChI=1S/Cu, purity 99.99%
Compound 3: antimony, Sb, InChI=1S/Sb, purity 99.99%

System: copper + bismuth; phases: Liquid, Gas
Fixed: Pressure, kPa = 0.01
Property: Boiling temperature at pressure P, K (Liquid); method: Ebulliometric method (Recirculating still)
Mole fraction of copper	Boiling temperature at pressure P, K	uncertainty
0.9707	1150	78
0.9933	1200	81
0.999	1250	78
0.9838	1300	78
0.9921	1350	81
0.9997	1400	98
0.9982	1450	92
0.999	1500	78
0.9999	1550	108

System: copper + bismuth; phases: Gas, Liquid
Fixed: Pressure, kPa = 0.01
Property: Mole fraction of copper (Gas); method: Titration method
Mole fraction of copper	Mole fraction of copper	uncertainty
0.9707	0.0014	0.0002
0.9933	0.0064	0.001
0.999	0.0018	0.0018
0.9838	0.0025	0.0002
0.9921	0.0004	0.0004
0.9997	0.0106	0.0106
0.9982	0.0268	0.0063
0.999	0.0832	0.0022
0.9999	0.1218	0.0556

System: copper + bismuth + antimony; phases: Liquid, Gas
Fixed: Temperature, K = 1400
Fixed: Pressure, kPa = 0.01
Property: Mole fraction of antimony (Liquid); method: Titration method
Property: Mole fraction of copper (Gas); method: Titration method
Property: Mole fraction of antimony (Gas); method: Titration method
Mole fraction of copper	Mole fraction of antimony	uncertainty	Mole fraction of copper	uncertainty	Mole fraction of antimony	uncertainty
0.9311	0.0651	0.0004	0.0084	0.0002	0.0201	
0.6467	0.347	0.0022	0		0.3613	
0.6243	0.3658	0.0023	0		0.358	
0.8148	0.1642	0.001	0.006	0.0002	0.0601	
0.7191	0.2731	0.0017	0.0013	0.0002	0.0605	
0.6205	0.3637	0.0023	0.0005	0.0002	0.3844	
0.7733	0.2203	0.0014	0.0036	0.0002	0.0187	
0.6404	0.3324	0.0021	0.0012	0.0002	0.1512	
0.632	0.3613	0.0022	0.001	0.0002	0.3215	
0.6379	0.3535	0.0022	0.0014	0.0002	0.2076	
0.6611	0.3315	0.0021	0.0001	0.0001	0.3445	
