Measured thermophysical data. Experimental and modelling study of the densities of the hydrogen sulphide + methane mixtures at 253, 273 and 293 K and pressures up to 30 MPa.
Source: Fluid Phase Equilib., 2016, 10.1016/j.fluid.2016.08.002
Compound 1: methane, CH4, InChI=1S/CH4/h1H4
Compound 2: hydrogen sulfide, H2S, InChI=1S/H2S/h1H2

System: methane + hydrogen sulfide; phases: Gas
Property: Mass density, kg/m3 (Gas); method: Vibrating tube method
Mole fraction of methane	Temperature, K	Pressure, kPa	Mass density, kg/m3	uncertainty
0.8685	253.28	188	1.76	0.37
0.8685	253.29	508	4.8	0.45
0.8685	253.3	1250	12.25	0.66
0.8685	253.31	1824	18.07	0.82
0.8685	253.33	2475	24.75	1
0.8685	253.35	3335	33.57	1.05
0.8685	253.36	4114	41.57	1.09
0.8685	253.38	4487	45.79	1.11
0.8685	253.34	4807	49.57	1.15
0.8685	253.33	5174	53.92	1.19
0.8685	253.32	5258	55.98	1.21
0.8685	253.33	5895	64.88	1.24
0.8685	253.32	6503	73.25	1.28
0.8685	253.34	6994	80.75	1.34
0.8685	253.36	7255	84.54	1.54
0.8685	253.35	7572	90	1.47
0.8685	253.35	7961	99.59	1.49
0.8685	253.36	8383	108.5	1.55
0.8685	253.37	8539	112.16	1.55
0.8685	253.38	8660	115.11	1.56
0.8685	253.38	8850	119.77	1.58
0.8685	253.39	9030	124.2	1.6
0.8685	253.4	9215	128.92	1.64
0.8685	253.4	9484	135.48	1.71
0.8685	253.43	9711	140.67	1.77
0.8685	253.43	9944	145.46	1.86
0.8685	253.41	10167	150.17	1.94
0.8685	253.42	10405	155.11	2.02
0.8685	253.44	10674	160.71	2.07
0.8685	253.42	10879	164.94	2.1
0.8685	253.42	11161	170.62	2.15
0.8685	253.45	11408	175.6	2.17
0.8685	253.46	11691	181.06	2.21
0.8685	253.46	11951	186.09	2.23
0.8685	253.46	12221	190.99	2.25
0.8685	253.45	12503	195.9	2.29
0.8685	253.46	12710	199.55	2.31
0.8685	253.47	13026	204.72	2.35
0.8685	253.48	13361	209.99	2.4
0.8685	253.49	13557	213.18	2.4
0.8685	253.5	13904	217.77	2.45
0.8685	253.53	14217	222.31	2.49
0.8685	253.53	14605	227.86	2.54
0.8685	253.54	15328	236.23	2.66
0.8685	253.56	16209	246.09	2.79
0.8685	253.58	16612	250.04	2.82
0.8685	253.59	17129	255.23	2.68
0.8685	253.6	17589	259.35	2.59
0.8685	253.61	18036	263.28	2.47
0.8685	253.61	18480	267.15	2.37
0.8685	253.62	18822	269.8	2.29
0.8685	253.63	19390	274.47	2.18
0.8685	253.64	19853	277.53	2.1
0.8685	253.66	21081	286.3	1.88
0.8685	253.66	21605	289.87	1.81
0.8685	253.67	22087	292.82	1.73
0.8685	253.68	22512	295.31	1.67
0.8685	253.68	22918	297.52	1.62
0.8685	253.56	23487	300.68	1.56
0.8685	253.29	24245	303.67	1.5
0.8685	253.29	24733	306.89	1.45
0.8685	253.3	25670	310.08	1.39
0.8685	253.57	26154	313.25	1.34
0.8685	253.72	26573	314.9	1.32
0.8685	253.53	27036	316.4	1.31
0.8685	253.32	27359	317.71	1.3
0.8685	253.32	27986	320.59	1.29
0.8685	253.33	28601	322.89	1.28
0.8685	253.33	29015	324.42	1.26
0.8685	253.31	29542	326.32	1.27
0.8685	253.33	30002	327.17	1.28
0.8685	273.21	209	1.7	0.34
0.8685	273.21	648	5.39	0.44
0.8685	273.24	1167	10	0.52
0.8685	273.24	1761	15.44	0.6
0.8685	273.25	2240	19.97	0.68
0.8685	273.26	2770	25.12	0.74
0.8685	273.27	3280	30.25	0.8
0.8685	273.25	3776	35.41	0.84
0.8685	273.27	4207	40.03	0.88
0.8685	273.27	4225	40.23	0.88
0.8685	273.26	4666	45.13	0.9
0.8685	273.26	5086	49.93	0.95
0.8685	273.28	5512	54.98	0.97
0.8685	273.28	5933	60.12	0.98
0.8685	273.3	6333	65.17	1
0.8685	273.31	6712	70.1	1.04
0.8685	273.31	7200	76.68	1.06
0.8685	273.31	7483	80.6	1.07
0.8685	273.31	7817	85.33	1.09
0.8685	273.29	8136	89.96	1.12
0.8685	273.28	8496	95.31	1.14
0.8685	273.29	8809	100.05	1.16
0.8685	273.27	9149	105.29	1.19
0.8685	273.28	9596	112.28	1.23
0.8685	273.27	9851	116.33	1.25
0.8685	273.28	10137	120.88	1.27
0.8685	273.29	10446	125.82	1.32
0.8685	273.29	10749	130.66	1.34
0.8685	273.26	11062	135.65	1.38
0.8685	273.25	11361	140.37	1.41
0.8685	273.26	11726	146.08	1.44
0.8685	273.26	12002	150.33	1.47
0.8685	273.26	12322	155.19	1.52
0.8685	273.26	12637	159.86	1.56
0.8685	273.26	13040	165.72	1.61
0.8685	273.27	13466	171.7	1.66
0.8685	273.27	13771	175.85	1.7
0.8685	273.3	14847	189.62	1.85
0.8685	273.31	15329	195.37	1.92
0.8685	273.32	15811	200.85	1.98
0.8685	273.32	16120	204.24	2.04
0.8685	273.32	16817	211.55	2.13
0.8685	273.33	17352	216.85	2.21
0.8685	273.34	17978	222.75	2.31
0.8685	273.34	18233	225.06	2.34
0.8685	273.35	18773	229.81	2.24
0.8685	273.35	19531	236.12	2.1
0.8685	273.37	20048	240.23	1.84
0.8685	273.36	20692	245.12	1.58
0.8685	273.33	21405	250.29	1.34
0.8685	273.31	22905	260.37	1.06
0.8685	273.29	23690	265.29	1.04
0.8685	273.27	24569	270.52	1.01
0.8685	273.27	25361	275.02	0.99
0.8685	273.27	26319	280.21	0.96
0.8685	273.26	27255	285.03	0.94
0.8685	273.26	28276	290.05	0.94
0.8685	273.26	29372	295.19	0.92
0.8685	273.25	30481	300.13	0.91
0.8685	293.18	239	1.86	0.36
0.8685	293.18	469	3.71	0.38
0.8685	293.19	792	6.46	0.44
0.8685	293.21	1117	9.2	0.48
0.8685	293.19	1341	11.22	0.52
0.8685	293.2	1820	15.41	0.58
0.8685	293.19	2300	20.14	0.64
0.8685	293.18	2890	25.81	0.72
0.8685	293.19	3396	30.35	0.76
0.8685	293.19	3988	35.82	0.82
0.8685	293.19	4428	40.25	0.84
0.8685	293.2	4887	44.78	0.88
0.8685	293.2	5494	50.99	0.91
0.8685	293.2	5964	55.59	0.93
0.8685	293.2	6411	60.21	0.93
0.8685	293.19	6909	65.4	0.95
0.8685	293.19	7335	70.05	0.97
0.8685	293.19	7786	74.96	0.99
0.8685	293.18	8263	79.99	1.02
0.8685	293.18	8722	85.68	1.04
0.8685	293.19	9097	90.09	1.08
0.8685	293.19	9534	95.16	1.1
0.8685	293.18	9972	100.39	1.14
0.8685	293.19	10368	105.2	1.17
0.8685	293.19	10794	110.28	1.22
0.8685	293.19	11183	115.06	1.26
0.8685	293.19	11608	120.16	1.3
0.8685	293.18	12003	124.94	1.34
0.8685	293.18	12415	130.08	1.38
0.8685	293.18	12830	135.13	1.43
0.8685	293.19	13230	140.02	1.47
0.8685	293.18	13726	145.96	1.53
0.8685	293.2	14242	152.42	1.57
0.8685	293.2	14579	156.48	1.61
0.8685	293.2	14924	160.62	1.67
0.8685	293.2	15365	165.51	1.68
0.8685	293.2	15806	170.31	1.78
0.8685	293.19	16228	174.96	1.84
0.8685	293.19	16699	180.07	1.9
0.8685	293.2	17183	185.14	1.96
0.8685	293.19	17682	190.29	2.02
0.8685	293.2	18163	195.16	2.08
0.8685	293.23	18686	200.27	2.05
0.8685	293.29	19219	205.31	1.82
0.8685	293.23	19770	210.3	1.55
0.8685	293.22	20355	215.54	1.28
0.8685	293.2	20932	220.42	1.02
0.8685	293.2	21495	224.99	0.95
0.8685	293.23	22173	230.34	0.92
0.8685	293.23	22860	235.56	0.88
0.8685	293.21	23505	240.2	0.85
0.8685	293.22	24254	245.19	0.82
0.8685	293.22	25052	250.52	0.8
0.8685	293.21	25865	255.77	0.78
0.8685	293.21	26669	260.49	0.75
0.8685	293.2	27629	265.96	0.74
0.8685	293.2	28496	270.59	0.73
0.8685	293.21	29415	275.27	0.72
0.8685	293.21	29995	278.16	0.73
0.8685	293.21	30419	280.17	0.72
0.8197	253.03	225	2.1	0.37
0.8197	253.05	472	4.43	0.44
0.8197	253.07	1105	10.58	0.62
0.8197	253.08	1496	14.53	0.72
0.8197	253.08	2006	20.39	0.86
0.8197	253.25	2607	28.21	1.01
0.8197	253.21	2947	32.5	1.02
0.8197	253.16	3517	38.95	1.05
0.8197	253.19	4054	46.42	1.09
0.8197	253.18	4507	52.31	1.13
0.8197	253.12	4809	59.33	1.16
0.8197	253.13	5304	67.27	1.23
0.8197	252.91	9089	146	1.67
0.8197	252.91	9296	153.9	1.74
0.8197	252.91	9508	162.6	1.83
0.8197	252.91	9727	172.12	1.88
0.8197	252.9	9948	181.75	1.99
0.8197	252.9	10181	191.68	2.08
0.8197	252.9	10440	200.58	2.18
0.8197	252.89	10727	209.51	2.25
0.8197	252.89	11063	217.25	2.31
0.8197	252.89	11429	224.63	2.35
0.8197	252.9	11825	231.88	2.38
0.8197	252.9	12251	239.02	2.44
0.8197	252.91	12717	246.1	2.48
0.8197	252.92	13223	253.09	2.54
0.8197	252.92	13782	260.02	2.6
0.8197	252.94	14392	266.89	2.67
0.8197	252.95	15070	273.89	2.75
0.8197	252.97	15829	280.91	2.87
0.8197	252.98	16314	285.18	2.94
0.8197	252.99	16702	288.37	2.94
0.8197	253.01	17275	293.02	2.78
0.8197	253.02	17701	296.11	2.69
0.8197	253.03	18070	299	2.61
0.8197	253.02	18537	302.29	2.52
0.8197	253.02	19009	305.49	2.41
0.8197	253.02	19564	309.06	2.31
0.8197	253.01	20084	312.27	2.21
0.8197	253.01	20574	315.19	2.13
0.8197	253	21010	317.91	2.06
0.8197	253	21473	320.52	1.99
0.8197	253	21973	323.2	1.92
0.8197	253	22531	326.01	1.85
0.8197	253	22822	327.46	1.82
0.8197	253	23125	329.05	1.79
0.8197	253.01	23774	332.07	1.71
0.8197	253.01	24145	333.77	1.69
0.8197	253.02	24553	335.64	1.65
0.8197	253.02	25031	337.77	1.62
0.8197	253.03	25582	340.15	1.58
0.8197	253.04	26249	342.94	1.53
0.8197	253.07	26760	345.19	1.52
0.8197	253.07	27152	346.63	1.51
0.8197	253.06	27510	348.27	1.5
0.8197	253.07	28062	350.41	1.48
0.8197	253.08	28543	352.25	1.47
0.8197	253.08	28966	353.85	1.46
0.8197	253.08	29496	355.79	1.47
0.8197	253.08	30039	357.73	1.47
0.8197	273.04	220	1.87	0.36
0.8197	273.05	512	4.39	0.42
0.8197	273.06	1024	8.86	0.5
0.8197	273.06	1546	13.54	0.58
0.8197	273.06	1998	17.83	0.65
0.8197	273.07	2472	22.64	0.71
0.8197	273.08	3006	28.12	0.77
0.8197	273.08	3496	33.34	0.83
0.8197	273.07	4037	39.48	0.87
0.8197	273.06	4568	45.89	0.92
0.8197	273.02	5020	51.69	0.95
0.8197	273.04	5526	58.55	0.99
0.8197	273.05	6060	66.2	1.01
0.8197	273.05	6535	73.36	1.02
0.8197	273.06	7007	80.78	1.07
0.8197	273.06	7503	88.86	1.13
0.8197	273.08	8037	97.86	1.18
0.8197	273.09	8509	106.04	1.21
0.8197	273.09	8697	109.34	1.21
0.8197	273.11	9417	122.17	1.4
0.8197	273.11	10159	135.6	1.45
0.8197	273.14	10580	143.25	1.53
0.8197	273.13	10896	148.97	1.59
0.8197	273.13	11490	159.68	1.67
0.8197	273.13	12024	169.16	1.73
0.8197	273.17	12519	177.81	1.79
0.8197	273.16	13305	191.11	1.89
0.8197	273.13	13513	194.52	1.92
0.8197	273.13	14007	202.45	1.98
0.8197	273.11	14299	207.01	2
0.8197	273.13	14904	216.11	2.06
0.8197	273.13	15510	224.73	2.13
0.8197	273.13	16041	231.85	2.2
0.8197	273.13	16504	237.74	2.25
0.8197	273.11	17004	243.74	2.32
0.8197	273.08	17522	249.57	2.39
0.8197	273.1	18017	254.8	2.44
0.8197	273.08	18504	259.61	2.51
0.8197	273.07	19004	264.22	2.49
0.8197	273.05	19490	268.43	2.24
0.8197	273.06	19898	271.74	2.05
0.8197	273.05	20545	276.64	1.79
0.8197	273.07	21088	280.47	1.62
0.8197	273.08	21490	283.16	1.5
0.8197	273.07	22026	286.58	1.4
0.8197	273.1	22561	289.86	1.32
0.8197	273.11	23102	293.06	1.3
0.8197	273.12	23507	295.4	1.28
0.8197	273.13	24081	298.69	1.26
0.8197	273.14	24511	301.13	1.25
0.8197	273.15	25182	304.96	1.23
0.8197	273.15	25661	307.41	1.21
0.8197	273.14	26076	309.49	1.2
0.8197	273.14	26577	312.08	1.19
0.8197	273.14	26982	314.11	1.18
0.8197	273.13	27492	316.71	1.17
0.8197	273.13	28026	319.37	1.16
0.8197	273.13	28568	321.92	1.15
0.8197	273.13	29088	324.13	1.15
0.8197	273.13	29546	325.75	1.15
0.8197	273.13	29999	327.01	1.14
0.8197	293.27	193	1.54	0.31
0.8197	293.27	498	4.03	0.43
0.8197	293.35	936	7.74	0.47
0.8197	293.33	1434	12.03	0.55
0.8197	293.36	1962	16.56	0.61
0.8197	293.35	2422	20.5	0.67
0.8197	293.38	2915	26.63	0.73
0.8197	293.33	3440	30.85	0.77
0.8197	293.42	3941	35.88	0.81
0.8197	293.35	4502	41.72	0.87
0.8197	293.32	5019	46.91	0.89
0.8197	293.32	5508	52.59	0.91
0.8197	293.34	6006	58.11	0.94
0.8197	293.31	6513	63.51	0.94
0.8197	293.32	7004	68.5	0.96
0.8197	293.32	7520	74.89	1
0.8197	293.33	8008	80.89	1.03
0.8197	293.32	8507	87.23	1.07
0.8197	293.33	9072	94.8	1.12
0.8197	293.32	9526	100.87	1.15
0.8197	293.37	10013	107.38	1.19
0.8197	293.32	10518	114.24	1.25
0.8197	293.33	10922	121.63	1.31
0.8197	293.35	11685	130.63	1.4
0.8197	293.36	12068	136.11	1.45
0.8197	293.36	12506	142.15	1.5
0.8197	293.36	13036	149.41	1.57
0.8197	293.36	13500	155.72	1.62
0.8197	293.34	14027	162.75	1.69
0.8197	293.34	14501	169.12	1.75
0.8197	293.37	15006	175.59	1.81
0.8197	293.45	15532	182.32	1.87
0.8197	293.41	16017	188.26	1.94
0.8197	293.45	16485	193.92	2
0.8197	293.4	17009	200	2.07
0.8197	293.41	17526	205.67	2.13
0.8197	293.42	18033	211.2	2.21
0.8197	293.42	18536	216.41	2.23
0.8197	293.41	19019	221.14	2.05
0.8197	293.41	19519	225.91	1.82
0.8197	293.41	20054	230.93	1.58
0.8197	293.42	20511	234.95	1.41
0.8197	293.41	21059	239.83	1.21
0.8197	293.35	21512	243.53	1.2
0.8197	293.34	22090	248.06	1.17
0.8197	293.37	22488	251.05	1.16
0.8197	293.39	22971	254.58	1.13
0.8197	293.41	23490	258.21	1.11
0.8197	293.39	24024	261.83	1.1
0.8197	293.39	24659	266.01	1.09
0.8197	293.42	25034	268.44	1.07
0.8197	293.41	25538	271.56	1.07
0.8197	293.37	26028	274.53	1.05
0.8197	293.42	26523	277.36	1.04
0.8197	293.41	27022	280.18	1.03
0.8197	293.37	27520	283	1.02
0.8197	293.38	27986	285.56	1.02
0.8197	293.38	28437	287.96	1
0.8197	293.38	28979	290.66	1.01
0.8197	293.37	29405	292.65	0.99
0.8197	293.37	29932	295.13	0.99
0.714	252.96	508	5.18	0.47
0.714	252.94	1010	10.45	0.6
0.714	252.95	1513	16.11	0.75
0.714	253	2008	22.87	0.87
0.714	253.02	2407	28.16	0.97
0.714	253.27	13000	342.99	2.86
0.714	253.23	13535	348.43	2.89
0.714	253.17	14005	352.44	2.95
0.714	253.25	14514	356.43	2.99
0.714	253.16	15038	360.04	3.04
0.714	253.22	15498	363.19	3.09
0.714	253.14	16004	366.38	3.16
0.714	253.21	16513	369.43	3.21
0.714	253.18	17054	372.46	3.08
0.714	253.13	17511	374.95	2.99
0.714	253.19	18047	377.75	2.86
0.714	253.16	18491	380.05	2.77
0.714	253.12	19058	382.7	2.67
0.714	253.15	19521	384.91	2.58
0.714	253.16	20070	387.42	2.49
0.714	253.11	20550	389.58	2.41
0.714	253.1	21049	391.7	2.34
0.714	253.15	21583	393.97	2.26
0.714	253.17	22039	395.89	2.2
0.714	253.15	22523	397.9	2.15
0.714	253.09	23043	399.91	2.09
0.714	253.07	23585	402.01	2.05
0.714	253.09	24033	403.73	2.01
0.714	253.12	24495	405.58	1.97
0.714	253.14	25004	407.49	1.94
0.714	253.11	25528	409.34	1.9
0.714	253.09	25963	410.91	1.88
0.714	253.06	26459	412.74	1.86
0.714	253.05	26980	414.51	1.84
0.714	253.07	27494	416.29	1.82
0.714	253.1	28034	418.14	1.81
0.714	253.13	28568	420	1.8
0.714	253.16	29087	421.82	1.79
0.714	253.16	29450	423.08	1.79
0.714	253.16	30025	425.02	1.8
0.714	272.97	448	4.32	0.45
0.714	272.98	925	9.1	0.51
0.714	272.99	1499	15.62	0.59
0.714	272.98	1959	21.08	0.65
0.714	272.99	2470	27.39	0.71
0.714	273.07	2991	34.29	0.78
0.714	273.06	3515	41.26	0.84
0.714	273.02	4006	49.21	0.89
0.714	273.02	4495	57.7	0.95
0.714	273	5009	66.37	0.99
0.714	273.03	5418	73.5	1.02
0.714	273.01	12511	252.68	2.24
0.714	273	13055	265.48	2.3
0.714	273	13551	273.7	2.33
0.714	273	14019	280.64	2.35
0.714	273	14532	287.5	2.39
0.714	273.01	14977	293.17	2.42
0.714	273	15457	298.99	2.43
0.714	272.99	15974	304.94	2.48
0.714	272.99	16531	310.78	2.51
0.714	273.03	16977	315.19	2.56
0.714	273.08	17450	319.61	2.6
0.714	273.11	17956	324.07	2.65
0.714	273.09	18521	328.7	2.71
0.714	273.1	18931	331.97	2.75
0.714	273.16	19608	336.94	2.39
0.714	273.23	20100	340.42	2.18
0.714	273.2	20623	344.02	2.01
0.714	273.19	21199	347.78	1.85
0.714	273.21	21506	349.84	1.79
0.714	273.14	21825	351.99	1.73
0.714	273.16	22152	354.18	1.68
0.714	273.16	22483	356.27	1.64
0.714	273.18	22828	358.14	1.63
0.714	273.2	23590	362.19	1.6
0.714	273.37	24085	364.7	1.58
0.714	273.25	24591	367.01	1.56
0.714	273.19	24981	368.95	1.55
0.714	273.23	25533	371.48	1.54
0.714	273.25	26031	373.67	1.53
0.714	273.22	26410	375.25	1.52
0.714	273.24	27020	377.85	1.5
0.714	273.05	27474	379.67	1.49
0.714	273.06	27956	381.54	1.48
0.714	273.1	28471	383.53	1.47
0.714	273.05	29015	385.58	1.47
0.714	273.03	29571	387.72	1.47
0.714	273.03	30070	389.49	1.48
0.714	293.27	227	1.99	0.38
0.714	293.27	560	4.92	0.42
0.714	293.28	1101	9.72	0.5
0.714	293.28	1547	14.1	0.6
0.714	293.28	2065	19.16	0.62
0.714	293.3	2511	23.63	0.69
0.714	293.29	2976	28.53	0.74
0.714	293.29	3489	33.95	0.81
0.714	293.42	3851	38.01	0.83
0.714	293.43	4386	46.59	0.85
0.714	293.44	4823	51.27	0.88
0.714	293.39	5407	58.83	0.93
0.714	293.32	5943	66.82	0.96
0.714	293.33	6464	75.29	0.97
0.714	293.31	6885	80.49	1
0.714	293.27	7261	85.92	1.02
0.714	293.27	7749	94.83	1.06
0.714	293.28	8092	103.64	1.1
0.714	293.29	8523	108.8	1.14
0.714	293.3	9149	119.96	1.2
0.714	293.3	9741	129.36	1.26
0.714	293.33	10169	136.99	1.31
0.714	293.29	10516	145.41	1.37
0.714	293.29	11236	161.66	1.44
0.714	293.3	11789	174.33	1.57
0.714	293.32	12220	183.56	1.64
0.714	293.32	12521	189.88	1.69
0.714	293.31	12964	198.31	1.76
0.714	293.3	13528	208.17	1.83
0.714	293.29	13780	213.21	1.88
0.714	293.3	14426	223.09	1.96
0.714	293.31	14523	224.65	1.96
0.714	293.3	15049	233.3	2.03
0.714	293.3	15503	239.94	2.09
0.714	293.31	16108	249.28	2.17
0.714	293.34	16524	253.44	2.22
0.714	293.34	17035	260.09	2.27
0.714	293.35	17740	267.95	2.36
0.714	293.33	18012	271.26	2.38
0.714	293.33	18543	276.99	2.42
0.714	293.33	19012	281.75	2.26
0.714	293.33	19476	286.23	2.07
0.714	293.34	20081	291.58	1.85
0.714	293.34	20504	295.67	1.7
0.714	293.31	21026	300.53	1.55
0.714	293.33	21863	306.8	1.53
0.714	293.32	22053	308.34	1.51
0.714	293.31	22118	308.67	1.51
0.714	293.31	22512	311.24	1.5
0.714	293.3	22979	314.55	1.48
0.714	293.3	23460	317.83	1.46
0.714	293.31	23712	319.93	1.46
0.714	293.29	23988	321.16	1.45
0.714	293.3	24512	324.48	1.43
0.714	293.29	25012	327.5	1.42
0.714	293.3	25515	330.43	1.41
0.714	293.3	25988	333.07	1.41
0.714	293.31	26506	335.86	1.39
0.714	293.33	26879	337.31	1.39
0.714	293.64	27145	339.08	1.38
0.714	293.53	27520	340.85	1.39
0.714	293.43	28085	343.33	1.37
0.714	293.42	28586	345.52	1.36
0.714	293.4	29019	347.54	1.36
0.714	293.33	29517	349.82	1.35
0.714	293.33	29998	352.02	1.35
