Measured thermophysical data. Vapor pressures and thermophysical properties of selected ethanolamines
Source: Fluid Phase Equilib., 2018, 10.1016/j.fluid.2018.05.032
Compound 1: (diethylamino)ethanol, C6H15NO, InChI=1S/C6H15NO/c1-3-7(4-2)5-6-8/h8H,3-6H2,1-2H3
Compound 2: 2-(ethylamino)ethanol, C4H11NO, InChI=1S/C4H11NO/c1-2-5-3-4-6/h5-6H,2-4H2,1H3
Compound 3: 2-isopropylaminoethanol, C5H13NO, InChI=1S/C5H13NO/c1-5(2)6-3-4-7/h5-7H,3-4H2,1-2H3

System: (diethylamino)ethanol; phases: Liquid, Gas
Property: Vapor or sublimation pressure, kPa (Liquid); method: Closed cell (Static) method
Temperature, K	Vapor or sublimation pressure, kPa	uncertainty
273.64	0.03488	0.00086
273.64	0.0349	0.00086
273.64	0.03489	0.00086
278.14	0.05131	0.00112
278.15	0.05134	0.00112
278.14	0.05133	0.00112
283.15	0.07737	0.00152
283.14	0.07733	0.00152
283.14	0.07733	0.00152
288.15	0.11458	0.00211
288.15	0.11456	0.00211
288.15	0.11459	0.00211
293.14	0.16701	0.00236
293.14	0.16692	0.00236
293.14	0.16686	0.00236
298.15	0.23933	0.00298
298.15	0.23932	0.00298
298.15	0.23932	0.00298
303.15	0.33803	0.00385
303.14	0.33782	0.00385
303.14	0.33789	0.00385
308.15	0.47078	0.005
308.15	0.47078	0.005
308.15	0.47089	0.005

System: (diethylamino)ethanol; phases: Liquid
Fixed: Pressure, kPa = 101.325
Property: Molar heat capacity at constant pressure, J/K/mol (Liquid); method: DSC
Temperature, K	Molar heat capacity at constant pressure, J/K/mol	uncertainty
265	260.6	10.1
270	263.9	10.2
275	267.1	10.3
280	270	10.5
285	272.8	10.6
290	275.6	10.7
295	278.7	10.8
300	281.8	10.9
305	284.7	11
310	287.6	11.1
315	290.5	11.3
320	293.2	11.4
325	295.8	11.5
330	298.2	11.5
335	300.4	11.6
340	302.7	11.7
345	305.1	11.8
350	307.7	11.9
355	309.9	12

System: 2-(ethylamino)ethanol; phases: Crystal, Liquid, Air at 1 atmosphere
Property: Normal melting temperature, K (Crystal); method: DTA
Normal melting temperature, K	uncertainty
263.9	0.7

System: 2-(ethylamino)ethanol; phases: Crystal, Liquid, Air at 1 atmosphere
Property: Molar enthalpy of transition or fusion, kJ/mol (Crystal); method: DSC
Molar enthalpy of transition or fusion, kJ/mol	uncertainty
16.5	0.7

System: 2-(ethylamino)ethanol; phases: Metastable liquid, Gas
Property: Vapor or sublimation pressure, kPa (Metastable liquid); method: Closed cell (Static) method
Temperature, K	Vapor or sublimation pressure, kPa	uncertainty
243.07	0.000222	9.6e-05
243.07	0.000223	9.6e-05
243.07	0.000221	9.6e-05
248.11	0.000424	9.9e-05
248.11	0.000423	9.9e-05
248.11	0.000423	9.9e-05
253.13	0.000783	0.000105
253.13	0.000784	0.000105
253.13	0.000781	0.000105
258.13	0.001401	0.000116
258.13	0.001403	0.000116
258.14	0.001403	0.000116
263.13	0.002453	0.000141
263.14	0.002454	0.000141
263.14	0.002454	0.000141

System: 2-(ethylamino)ethanol; phases: Liquid, Gas
Property: Vapor or sublimation pressure, kPa (Liquid); method: Closed cell (Static) method
Temperature, K	Vapor or sublimation pressure, kPa	uncertainty
268.14	0.004201	0.000192
268.14	0.004205	0.000192
268.14	0.004206	0.000192
273.14	0.007045	0.000293
273.14	0.007039	0.000293
273.14	0.007052	0.000293
278.14	0.01158	0.00046
278.14	0.01158	0.00046
278.14	0.01158	0.00046
283.14	0.01863	0.0006
283.14	0.01862	0.0006
283.14	0.01862	0.0006
288.14	0.02935	0.00077
288.14	0.02936	0.00077
288.14	0.02934	0.00077
293.13	0.04545	0.00102
293.13	0.04545	0.00102
293.13	0.04543	0.00102
298.14	0.06913	0.0014
298.14	0.06915	0.0014
298.14	0.06915	0.0014
303.13	0.10341	0.00194
303.13	0.10341	0.00194
303.14	0.10348	0.00194
308.14	0.15246	0.00223
308.14	0.15247	0.00223
308.14	0.15248	0.00223

System: 2-(ethylamino)ethanol; phases: Crystal, Gas
Property: Vapor or sublimation pressure, kPa (Crystal); method: Closed cell (Static) method
Temperature, K	Vapor or sublimation pressure, kPa	uncertainty
238.05	5e-05	9.4e-05
238.05	4.9e-05	9.4e-05
238.05	4.8e-05	9.4e-05
243.07	0.000113	9.6e-05
243.07	0.000112	9.6e-05
243.07	0.000113	9.6e-05
248.13	0.000251	9.8e-05
248.13	0.000252	9.8e-05
248.14	0.000253	9.8e-05
253.13	0.000546	0.000102
253.13	0.000545	0.000102
253.13	0.000544	0.000102
258.13	0.001146	0.000112
258.14	0.001142	0.000112
258.14	0.001139	0.000112
263.14	0.002334	0.000138
263.14	0.002326	0.000138
263.14	0.00232	0.000138

System: 2-(ethylamino)ethanol; phases: Liquid
Fixed: Pressure, kPa = 101.325
Property: Molar heat capacity at constant pressure, J/K/mol (Liquid); method: DSC
Temperature, K	Molar heat capacity at constant pressure, J/K/mol	uncertainty
265	215.4	8.3
270	217.1	8.4
275	218.8	8.5
280	220.3	8.5
285	222	8.6
290	223.6	8.7
295	225.5	8.7
300	227.7	8.8
305	229.9	8.9
310	232.1	9
315	234.6	9.1
320	237	9.2
325	239.5	9.3
330	242	9.4
335	244.4	9.5
340	247	9.6
345	249.9	9.7
350	252.9	9.8
355	255.9	9.9

System: 2-isopropylaminoethanol; phases: Crystal, Liquid, Air at 1 atmosphere
Property: Normal melting temperature, K (Crystal); method: DTA
Normal melting temperature, K	uncertainty
289	2

System: 2-isopropylaminoethanol; phases: Crystal, Liquid, Air at 1 atmosphere
Property: Molar enthalpy of transition or fusion, kJ/mol (Crystal); method: DSC
Molar enthalpy of transition or fusion, kJ/mol	uncertainty
19	3

System: 2-isopropylaminoethanol; phases: Metastable liquid, Gas
Property: Vapor or sublimation pressure, kPa (Metastable liquid); method: Closed cell (Static) method
Temperature, K	Vapor or sublimation pressure, kPa	uncertainty
248.13	0.000252	9.8e-05
248.13	0.000252	9.8e-05
248.13	0.000251	9.8e-05
253.14	0.000472	0.000101
253.15	0.000471	0.000101
253.15	0.000472	0.000101
258.15	0.000864	0.000107
258.15	0.000864	0.000107
258.15	0.000864	0.000107
263.15	0.001544	0.00012
263.15	0.001546	0.00012
263.15	0.001544	0.00012
268.14	0.002688	0.000148
268.14	0.002688	0.000148
268.14	0.002688	0.000148
273.14	0.004591	0.000204
273.15	0.004589	0.000204
273.15	0.00459	0.000204
278.14	0.007669	0.000317
278.14	0.007676	0.000317
278.14	0.007665	0.000316
283.14	0.01257	0.0005
283.14	0.01257	0.0005
283.14	0.01257	0.0005
288.15	0.0202	0.00063
288.15	0.0202	0.00063
288.15	0.0202	0.00063

System: 2-isopropylaminoethanol; phases: Liquid, Gas
Property: Vapor or sublimation pressure, kPa (Liquid); method: Closed cell (Static) method
Temperature, K	Vapor or sublimation pressure, kPa	uncertainty
293.14	0.03179	0.00081
293.14	0.03179	0.00081
293.14	0.03179	0.00081
298.14	0.04914	0.00108
298.14	0.04915	0.00108
298.14	0.04915	0.00108
303.14	0.0747	0.00147
303.14	0.07469	0.00147
303.14	0.07473	0.00147
308.14	0.11186	0.00205
308.15	0.11189	0.00205
308.15	0.11184	0.00205
298.11	0.04899	0.00112
298.12	0.0492	0.00112
298.17	0.04928	0.00112
303.04	0.07439	0.00155
303.04	0.0744	0.00155
303.04	0.07435	0.00155
308.01	0.1111	0.0022
308.03	0.1112	0.0022
308.04	0.1112	0.0022
313	0.164	0.0027
313.01	0.1642	0.0027
313.01	0.1642	0.0027
317.9	0.2372	0.0036
317.9	0.2372	0.0036
317.9	0.2373	0.0036
322.97	0.3405	0.0049
322.97	0.3405	0.0049
322.98	0.3407	0.0049
327.95	0.4814	0.0066
327.95	0.4814	0.0066
327.95	0.4815	0.0066
332.99	0.6731	0.0089
332.99	0.6731	0.0089
332.99	0.6728	0.0089
337.93	0.9221	0.012
337.93	0.9221	0.012
337.93	0.9223	0.012
342.94	1.2566	0.0161
342.94	1.2566	0.0161
342.94	1.2568	0.0161

System: 2-isopropylaminoethanol; phases: Crystal, Gas
Property: Vapor or sublimation pressure, kPa (Crystal); method: Closed cell (Static) method
Temperature, K	Vapor or sublimation pressure, kPa	uncertainty
253.15	0.000258	9.9e-05
253.15	0.000257	9.9e-05
253.15	0.000254	9.9e-05
258.14	0.000482	0.000103
258.14	0.00048	0.000103
258.14	0.000479	0.000103
263.15	0.000926	0.00011
263.15	0.000923	0.00011
263.15	0.000921	0.00011
268.14	0.00171	0.000125
268.14	0.00171	0.000125
268.14	0.001709	0.000125
273.14	0.00318	0.000162
273.14	0.003182	0.000162
273.14	0.003174	0.000162
278.14	0.005875	0.000251
278.14	0.005872	0.000251
278.14	0.00587	0.000251
283.14	0.01065	0.00043
283.14	0.01066	0.00043
283.14	0.01068	0.00043
288.14	0.01909	0.00061
288.14	0.01911	0.00061
288.15	0.0191	0.00061

System: 2-isopropylaminoethanol; phases: Liquid
Fixed: Pressure, kPa = 101.325
Property: Molar heat capacity at constant pressure, J/K/mol (Liquid); method: DSC
Temperature, K	Molar heat capacity at constant pressure, J/K/mol	uncertainty
290	253.8	9.8
295	256.9	10
300	260.1	10.1
305	263.3	10.2
310	266.6	10.3
315	270.1	10.5
320	273.5	10.6
325	277.2	10.7
330	280.7	10.9
335	284.3	11
340	287.7	11.1
345	291.1	11.3
350	294.9	11.4
355	298.5	11.6

System: 2-isopropylaminoethanol; phases: Metastable liquid
Fixed: Pressure, kPa = 101.325
Property: Molar heat capacity at constant pressure, J/K/mol (Metastable liquid); method: DSC
Temperature, K	Molar heat capacity at constant pressure, J/K/mol	uncertainty
265	240.4	9.3
270	243.1	9.4
275	245.8	9.5
280	248.5	9.6
285	251	9.7
