Measured thermophysical data. Measurement and correlation for the thermophysical properties of novel pyrrolidonium ionic liquids: Effect of temperature and alkyl chain length on anion
Source: Fluid Phase Equilib., 2015, 10.1016/j.fluid.2014.11.024
Compound 1: N-methyl-2-oxopyrrolidinium formate, C6H11NO3, InChI=1S/C5H9NO.CH2O2/c1-6-4-2-3-5(6)7;2-1-3/h2-4H2,1H3;1H,(H,2,3), purity 98%
Compound 2: N-methyl-2-oxopyrrolidinium acetate, C7H13NO3, InChI=1S/C5H9NO.C2H4O2/c1-6-4-2-3-5(6)7;1-2(3)4/h2-4H2,1H3;1H3,(H,3,4), purity 98%
Compound 3: N-methyl-2-oxopyrrolidinium propionate, C8H15NO3, InChI=1S/C5H9NO.C3H6O2/c1-6-4-2-3-5(6)7;1-2-3(4)5/h2-4H2,1H3;2H2,1H3,(H,4,5), purity 98%
Compound 4: N-methyl-2-oxopyrrolidinium butanoate, C9H17NO3, InChI=1S/C5H9NO.C4H8O2/c1-6-4-2-3-5(6)7;1-2-3-4(5)6/h2-4H2,1H3;2-3H2,1H3,(H,5,6), purity 98%
Compound 5: N-methyl-2-oxopyrrolidinium pentanoate, C10H19NO3, InChI=1S/C5H9NO.C5H10O2/c1-6-4-2-3-5(6)7;1-2-3-4-5(6)7/h2-4H2,1H3;2-4H2,1H3,(H,6,7), purity 98%
Compound 6: N-methyl-2-oxopyrrolidinium hexanoate, C11H21NO3, InChI=1S/C6H12O2.C5H9NO/c1-2-3-4-5-6(7)8;1-6-4-2-3-5(6)7/h2-5H2,1H3,(H,7,8);2-4H2,1H3, purity 98%

System: N-methyl-2-oxopyrrolidinium formate; phases: Liquid
Fixed: Pressure, kPa = 101.325
Property: Mass density, kg/m3 (Liquid); method: Vibrating tube method
Temperature, K	Mass density, kg/m3	uncertainty
293.15	1076.38	1
298.15	1071.66	0.99
303.15	1066.93	0.98
308.15	1062.2	0.97
313.15	1057.45	0.96
318.15	1052.71	0.95
323.15	1047.96	0.94
328.15	1043.2	0.93
333.15	1038.43	0.92
338.15	1033.66	0.91
343.15	1028.88	0.9

System: N-methyl-2-oxopyrrolidinium formate; phases: Liquid
Fixed: Pressure, kPa = 101.325
Property: Speed of sound, m/s (Liquid); method: Sing-around technique in a fixed-path interferometer
Temperature, K	Speed of sound, m/s	uncertainty
293.15	1495.99	2.34
298.15	1478.27	2.33
303.15	1460.38	2.33
308.15	1442.53	2.33
313.15	1424.82	2.33
318.15	1407.2	2.33
323.15	1389.66	2.32
328.15	1372.23	2.32
333.15	1354.84	2.32
338.15	1337.64	2.32
343.15	1320.51	2.32

System: N-methyl-2-oxopyrrolidinium formate; phases: Liquid
Fixed: Pressure, kPa = 101.325
Property: Viscosity, Pa*s (Liquid); method: Falling or rolling sphere viscometry
Temperature, K	Viscosity, Pa*s	uncertainty
293.15	0.002451	3.2e-05
298.15	0.002217	2.9e-05
303.15	0.00202	2.7e-05
308.15	0.00185	2.5e-05
313.15	0.001705	2.3e-05
318.15	0.00158	2.2e-05
323.15	0.001472	2.1e-05
328.15	0.001377	2e-05
333.15	0.001295	1.9e-05
338.15	0.001223	1.8e-05
343.15	0.001159	1.7e-05

System: N-methyl-2-oxopyrrolidinium acetate; phases: Liquid
Fixed: Pressure, kPa = 101.325
Property: Mass density, kg/m3 (Liquid); method: Vibrating tube method
Temperature, K	Mass density, kg/m3	uncertainty
293.15	1050.71	0.94
298.15	1046.06	0.93
303.15	1041.42	0.92
308.15	1036.77	0.91
313.15	1032.12	0.9
318.15	1027.46	0.89
323.15	1022.79	0.88
328.15	1018.12	0.87
333.15	1013.44	0.86
338.15	1008.75	0.86
343.15	1004.05	0.85

System: N-methyl-2-oxopyrrolidinium acetate; phases: Liquid
Fixed: Pressure, kPa = 101.325
Property: Speed of sound, m/s (Liquid); method: Sing-around technique in a fixed-path interferometer
Temperature, K	Speed of sound, m/s	uncertainty
293.15	1491.5	2.34
298.15	1473.45	2.33
303.15	1455.14	2.33
308.15	1436.86	2.33
313.15	1418.66	2.33
318.15	1400.59	2.33
323.15	1382.61	2.32
328.15	1364.67	2.32
333.15	1346.9	2.32
338.15	1329.15	2.32
343.15	1311.54	2.32

System: N-methyl-2-oxopyrrolidinium acetate; phases: Liquid
Fixed: Pressure, kPa = 101.325
Property: Viscosity, Pa*s (Liquid); method: Falling or rolling sphere viscometry
Temperature, K	Viscosity, Pa*s	uncertainty
293.15	0.002933	3.7e-05
298.15	0.002622	3.4e-05
303.15	0.002364	3.1e-05
308.15	0.002144	2.8e-05
313.15	0.001959	2.6e-05
318.15	0.001799	2.4e-05
323.15	0.00166	2.3e-05
328.15	0.00154	2.1e-05
333.15	0.001435	2e-05
338.15	0.001344	1.9e-05
343.15	0.001264	1.8e-05

System: N-methyl-2-oxopyrrolidinium propionate; phases: Liquid
Fixed: Pressure, kPa = 101.325
Property: Mass density, kg/m3 (Liquid); method: Vibrating tube method
Temperature, K	Mass density, kg/m3	uncertainty
293.15	1032.46	0.9
298.15	1027.86	0.89
303.15	1023.32	0.89
308.15	1018.74	0.88
313.15	1014.16	0.87
318.15	1009.56	0.86
323.15	1004.97	0.85
328.15	1000.36	0.84
333.15	995.75	0.83
338.15	991.12	0.83
343.15	986.49	0.82

System: N-methyl-2-oxopyrrolidinium propionate; phases: Liquid
Fixed: Pressure, kPa = 101.325
Property: Speed of sound, m/s (Liquid); method: Sing-around technique in a fixed-path interferometer
Temperature, K	Speed of sound, m/s	uncertainty
293.15	1460.35	2.33
298.15	1442.56	2.33
303.15	1424.49	2.33
308.15	1406.43	2.33
313.15	1388.44	2.32
318.15	1370.59	2.32
323.15	1352.8	2.32
328.15	1335.1	2.32
333.15	1317.49	2.32
338.15	1300	2.32
343.15	1282.64	2.31

System: N-methyl-2-oxopyrrolidinium propionate; phases: Liquid
Fixed: Pressure, kPa = 101.325
Property: Viscosity, Pa*s (Liquid); method: Falling or rolling sphere viscometry
Temperature, K	Viscosity, Pa*s	uncertainty
293.15	0.003136	4e-05
298.15	0.002801	3.6e-05
303.15	0.002518	3.2e-05
308.15	0.00228	3e-05
313.15	0.002075	2.7e-05
318.15	0.0019	2.5e-05
323.15	0.00175	2.4e-05
328.15	0.001619	2.2e-05
333.15	0.001506	2.1e-05
338.15	0.001407	2e-05
343.15	0.00132	1.9e-05

System: N-methyl-2-oxopyrrolidinium butanoate; phases: Liquid
Fixed: Pressure, kPa = 101.325
Property: Mass density, kg/m3 (Liquid); method: Vibrating tube method
Temperature, K	Mass density, kg/m3	uncertainty
293.15	1010.56	0.86
298.15	1006.11	0.85
303.15	1001.65	0.84
308.15	997.18	0.83
313.15	992.71	0.83
318.15	988.24	0.82
323.15	983.74	0.82
328.15	979.25	0.81
333.15	974.76	0.81
338.15	970.26	0.8
343.15	965.75	0.8

System: N-methyl-2-oxopyrrolidinium butanoate; phases: Liquid
Fixed: Pressure, kPa = 101.325
Property: Speed of sound, m/s (Liquid); method: Sing-around technique in a fixed-path interferometer
Temperature, K	Speed of sound, m/s	uncertainty
293.15	1435.64	2.33
298.15	1418.02	2.33
303.15	1400.1	2.33
308.15	1382.18	2.32
313.15	1364.38	2.32
318.15	1346.67	2.32
323.15	1328.55	2.32
328.15	1310.98	2.32
333.15	1293.55	2.32
338.15	1276.27	2.31
343.15	1259.13	2.31

System: N-methyl-2-oxopyrrolidinium butanoate; phases: Liquid
Fixed: Pressure, kPa = 101.325
Property: Viscosity, Pa*s (Liquid); method: Falling or rolling sphere viscometry
Temperature, K	Viscosity, Pa*s	uncertainty
293.15	0.003996	5.1e-05
298.15	0.003526	4.5e-05
303.15	0.003136	4e-05
308.15	0.002809	3.6e-05
313.15	0.002531	3.3e-05
318.15	0.002295	3e-05
323.15	0.002093	2.8e-05
328.15	0.001918	2.6e-05
333.15	0.001771	2.4e-05
338.15	0.001639	2.2e-05
343.15	0.001527	2.1e-05

System: N-methyl-2-oxopyrrolidinium pentanoate; phases: Liquid
Fixed: Pressure, kPa = 101.325
Property: Mass density, kg/m3 (Liquid); method: Vibrating tube method
Temperature, K	Mass density, kg/m3	uncertainty
293.15	994.31	0.83
298.15	990.01	0.83
303.15	985.7	0.82
308.15	981.38	0.82
313.15	977.06	0.81
318.15	972.73	0.81
323.15	968.39	0.8
328.15	964.05	0.8
333.15	959.71	0.79
338.15	955.36	0.79
343.15	951.01	0.78

System: N-methyl-2-oxopyrrolidinium pentanoate; phases: Liquid
Fixed: Pressure, kPa = 101.325
Property: Speed of sound, m/s (Liquid); method: Sing-around technique in a fixed-path interferometer
Temperature, K	Speed of sound, m/s	uncertainty
293.15	1427.71	2.33
298.15	1410.5	2.33
303.15	1392.96	2.33
308.15	1375.43	2.32
313.15	1357.99	2.32
318.15	1340.66	2.32
323.15	1322.95	2.32
328.15	1305.74	2.32
333.15	1288.68	2.32
338.15	1271.75	2.31
343.15	1254.95	2.31

System: N-methyl-2-oxopyrrolidinium pentanoate; phases: Liquid
Fixed: Pressure, kPa = 101.325
Property: Viscosity, Pa*s (Liquid); method: Falling or rolling sphere viscometry
Temperature, K	Viscosity, Pa*s	uncertainty
293.15	0.004448	5.6e-05
298.15	0.00391	5e-05
303.15	0.003465	4.4e-05
308.15	0.003093	3.9e-05
313.15	0.002779	3.6e-05
318.15	0.002513	3.2e-05
323.15	0.002284	3e-05
328.15	0.002087	2.8e-05
333.15	0.001917	2.6e-05
338.15	0.001769	2.4e-05
343.15	0.00164	2.2e-05

System: N-methyl-2-oxopyrrolidinium hexanoate; phases: Liquid
Fixed: Pressure, kPa = 101.325
Property: Mass density, kg/m3 (Liquid); method: Vibrating tube method
Temperature, K	Mass density, kg/m3	uncertainty
293.15	983.01	0.82
298.15	978.81	0.81
303.15	974.6	0.81
308.15	970.39	0.8
313.15	966.18	0.8
318.15	961.96	0.79
323.15	957.74	0.79
328.15	953.51	0.78
333.15	949.28	0.78
338.15	945.04	0.77
343.15	940.79	0.77

System: N-methyl-2-oxopyrrolidinium hexanoate; phases: Liquid
Fixed: Pressure, kPa = 101.325
Property: Speed of sound, m/s (Liquid); method: Sing-around technique in a fixed-path interferometer
Temperature, K	Speed of sound, m/s	uncertainty
293.15	1431.4	2.33
298.15	1414.15	2.33
303.15	1396.69	2.33
308.15	1379.28	2.32
313.15	1361.97	2.32
318.15	1344.76	2.32
323.15	1327.63	2.32
328.15	1310.59	2.32
333.15	1293.65	2.32
338.15	1276.84	2.31
343.15	1260.16	2.31

System: N-methyl-2-oxopyrrolidinium hexanoate; phases: Liquid
Fixed: Pressure, kPa = 101.325
Property: Viscosity, Pa*s (Liquid); method: Falling or rolling sphere viscometry
Temperature, K	Viscosity, Pa*s	uncertainty
293.15	0.005211	6.6e-05
298.15	0.004549	5.8e-05
303.15	0.003998	5.1e-05
308.15	0.003543	4.5e-05
313.15	0.003163	4e-05
318.15	0.002843	3.6e-05
323.15	0.00257	3.3e-05
328.15	0.002336	3e-05
333.15	0.002135	2.8e-05
338.15	0.00196	2.6e-05
343.15	0.001808	2.4e-05
