Measured thermophysical data. Vapor liquid equilibria for the ternary system of carbon dioxide + ethanol + ethyl acetate at elevated pressures
Source: Fluid Phase Equilib., 2006, 10.1016/j.fluid.2006.01.017
Compound 1: carbon dioxide, CO2, InChI=1S/CO2/c2-1-3, purity 99.9%
Compound 2: ethanol, C2H6O, InChI=1S/C2H6O/c1-2-3/h3H,2H2,1H3, purity 99.99%
Compound 3: ethyl acetate, C4H8O2, InChI=1S/C4H8O2/c1-3-6-4(2)5/h3H2,1-2H3, purity 99.8%

System: ethanol; phases: Liquid
Property: Refractive index (Na D-line) (Liquid); method: Standard Abbe refractometry
Temperature, K	Pressure, kPa	Refractive index (Na D-line)	uncertainty
293.2	101.325	1.36	0.0004

System: ethanol; phases: Liquid
Property: Mass density, kg/m3 (Liquid); method: VIBTUB:UFactor:2
Temperature, K	Pressure, kPa	Mass density, kg/m3	uncertainty
293.2	101.325	789.5	0.4

System: ethyl acetate; phases: Liquid
Property: Refractive index (Na D-line) (Liquid); method: Standard Abbe refractometry
Temperature, K	Pressure, kPa	Refractive index (Na D-line)	uncertainty
293.2	101.325	1.3702	0.0004

System: ethyl acetate; phases: Liquid
Property: Mass density, kg/m3 (Liquid); method: VIBTUB:UFactor:2
Temperature, K	Pressure, kPa	Mass density, kg/m3	uncertainty
293.2	101.325	900.6	0.3

System: ethanol + carbon dioxide + ethyl acetate; phases: Gas, Liquid
Property: Mole fraction of ethanol (Gas); method: CHROM:UFactor:8
Property: Mole fraction of ethanol (Liquid); method: CHROM:UFactor:8
Property: Mole fraction of carbon dioxide (Liquid); method: CHROM:UFactor:8
Temperature, K	Pressure, kPa	Mole fraction of carbon dioxide	Mole fraction of ethanol	uncertainty	Mole fraction of ethanol	uncertainty	Mole fraction of carbon dioxide	uncertainty
303.2	4140	0.994	0.005	0.0004	0.51	0.0304	0.32	
303.2	5020	0.995	0.0044	0.0004	0.4218	0.0261	0.4261	
303.2	6000	0.9955	0.0041	0.0003	0.3191	0.0198	0.5374	
303.2	6920	0.9959	0.0039	0.0003	0.2124	0.0132	0.7261	
303.2	4120	0.9938	0.0042	0.0004	0.4681	0.029	0.3262	
303.2	5030	0.9941	0.0041	0.0003	0.372	0.0231	0.4431	
303.2	6040	0.995	0.0034	0.0003	0.2765	0.0171	0.545	
303.2	6920	0.9958	0.0033	0.0003	0.1691	0.0105	0.7593	
303.2	4110	0.9934	0.0039	0.0003	0.3481	0.0216	0.419	
303.2	5020	0.994	0.0035	0.0003	0.2952	0.0183	0.4948	
303.2	6040	0.9945	0.0033	0.0003	0.2433	0.0151	0.5651	
303.2	6970	0.9951	0.0029	0.0003	0.1276	0.0079	0.784	
303.2	4190	0.9936	0.0027	0.0003	0.275	0.017	0.4931	
303.2	5030	0.9938	0.0025	0.0003	0.2067	0.0128	0.6063	
303.2	6030	0.9943	0.0023	0.0003	0.196	0.0121	0.624	
303.2	7030	0.9948	0.0018	0.0002	0.104	0.0064	0.8166	
303.2	4160	0.9939	0.001	0.0002	0.1	0.0062	0.6883	
303.2	5090	0.9942	0.001	0.0002	0.097	0.006	0.7264	
303.2	6090	0.9947	0.0008	0.0002	0.08	0.005	0.825	
303.2	7030	0.9954	0.0006	0.0002	0.045	0.0028	0.8806	
308.2	4160	0.9934	0.0055	0.0004	0.5726	0.0265	0.2793	
308.2	5020	0.994	0.005	0.0004	0.486	0.0301	0.3828	
308.2	6080	0.9949	0.0042	0.0004	0.414	0.0257	0.4815	
308.2	6970	0.9953	0.0039	0.0003	0.3	0.0186	0.64	
308.2	4150	0.993	0.0049	0.0004	0.501	0.0309	0.2977	
308.2	5040	0.9938	0.0042	0.0004	0.4054	0.0251	0.4204	
308.2	6040	0.9945	0.0039	0.0003	0.3004	0.0186	0.5366	
308.2	6960	0.9949	0.0037	0.0003	0.2434	0.0151	0.6338	
308.2	4150	0.9927	0.004	0.0003	0.4134	0.0256	0.311	
308.2	5020	0.9933	0.0036	0.0003	0.2953	0.0183	0.4558	
308.2	6090	0.994	0.0031	0.0003	0.2168	0.0134	0.5863	
308.2	6980	0.9945	0.0028	0.0003	0.1703	0.0106	0.6876	
308.2	4190	0.9925	0.003	0.0003	0.1706	0.0106	0.5446	
308.2	5090	0.993	0.0028	0.0003	0.1295	0.008	0.6628	
308.2	6100	0.9936	0.0024	0.0003	0.0792	0.0049	0.7948	
308.2	6980	0.9943	0.0019	0.0002	0.0532	0.0033	0.8582	
308.2	4160	0.992	0.001	0.0002	0.05	0.0031	0.71	
308.2	5090	0.993	0.001	0.0002	0.04	0.0025	0.79	
308.2	6090	0.9932	0.0009	0.0002	0.04	0.0025	0.85	
308.2	6990	0.9942	0.0008	0.0002	0.03	0.0019	0.8966	
313.2	4110	0.989	0.0092	0.0007	0.628	0.0231	0.223	
313.2	5050	0.99	0.0088	0.0007	0.545	0.0282	0.3145	
313.2	6070	0.9903	0.0086	0.0006	0.4641	0.0288	0.4224	
313.2	7060	0.9904	0.0085	0.0006	0.3514	0.0218	0.5396	
313.2	4180	0.9874	0.0089	0.0007	0.559	0.0273	0.23	
313.2	5080	0.988	0.0085	0.0006	0.4562	0.0283	0.3682	
313.2	6040	0.989	0.008	0.0006	0.3689	0.0229	0.4634	
313.2	7070	0.9893	0.0079	0.0006	0.2902	0.018	0.56	
313.2	4160	0.9873	0.0075	0.0006	0.423	0.0262	0.3	
313.2	5080	0.9874	0.0075	0.0006	0.35	0.0217	0.4	
313.2	6020	0.9877	0.0075	0.0006	0.25	0.0155	0.55	
313.2	7070	0.9878	0.0074	0.0006	0.216	0.0134	0.6006	
313.2	4130	0.9876	0.005	0.0004	0.2773	0.0172	0.4718	
313.2	5030	0.9885	0.005	0.0004	0.2428	0.015	0.5456	
313.2	6040	0.989	0.0049	0.0004	0.16	0.0099	0.66	
313.2	6980	0.9895	0.0047	0.0004	0.1	0.0062	0.74	
313.2	4150	0.9878	0.0037	0.0003	0.1619	0.01	0.5957	
313.2	5090	0.99	0.0021	0.0003	0.1279	0.0079	0.6892	
313.2	6060	0.9905	0.0019	0.0002	0.0786	0.0049	0.7915	
313.2	6980	0.991	0.0019	0.0002	0.0212	0.0013	0.8969	
