Measured thermophysical data. Vapour liquid equilibrium of octane enhancing additives in gasolines 7: Total pressure data and gE for the ternary mixture tert-amyl methyl ether (TAME), methanol and hexane at 313.15K
Source: Fluid Phase Equilib., 2006, 10.1016/j.fluid.2005.10.024
Compound 1: 2-methoxy-2-methylbutane, C6H14O, InChI=1S/C6H14O/c1-5-6(2,3)7-4/h5H2,1-4H3
Compound 2: methanol, CH4O, InChI=1S/CH4O/c1-2/h2H,1H3
Compound 3: hexane, C6H14, InChI=1S/C6H14/c1-3-5-6-4-2/h3-6H2,1-2H3

System: 2-methoxy-2-methylbutane; phases: Liquid, Gas
Fixed: Temperature, K = 313.15
Property: Vapor or sublimation pressure, kPa (Liquid); method: CCELL:UFactor:2
Vapor or sublimation pressure, kPa	uncertainty
19.568	0.154
19.56	0.154

System: methanol; phases: Liquid, Gas
Fixed: Temperature, K = 313.15
Property: Vapor or sublimation pressure, kPa (Liquid); method: CCELL:UFactor:2
Vapor or sublimation pressure, kPa	uncertainty
35.481	0.254
35.492	0.254

System: hexane; phases: Liquid, Gas
Property: Vapor or sublimation pressure, kPa (Liquid); method: CCELL:UFactor:2
Temperature, K	Vapor or sublimation pressure, kPa	uncertainty
313.15	37.274	0.265

System: hexane + 2-methoxy-2-methylbutane; phases: Liquid, Gas
Fixed: Temperature, K = 313.15
Property: Vapor or sublimation pressure, kPa (Liquid); method: CCELL:UFactor:2
Mole fraction of 2-methoxy-2-methylbutane	Vapor or sublimation pressure, kPa	uncertainty
0.296	32.984	0.238
0.698	26.122	0.195

System: methanol + hexane; phases: Liquid, Gas
Fixed: Temperature, K = 313.15
Property: Vapor or sublimation pressure, kPa (Liquid); method: CCELL:UFactor:2
Mole fraction of methanol	Vapor or sublimation pressure, kPa	uncertainty
0.3114	68.933	0.464
0.7094	69.02	0.465

System: methanol + 2-methoxy-2-methylbutane; phases: Liquid, Gas
Fixed: Temperature, K = 313.15
Property: Vapor or sublimation pressure, kPa (Liquid); method: CCELL:UFactor:2
Mole fraction of 2-methoxy-2-methylbutane	Vapor or sublimation pressure, kPa	uncertainty
0.2917	40.068	0.285
0.6825	36.767	0.262

System: methanol + hexane + 2-methoxy-2-methylbutane; phases: Liquid, Gas
Fixed: Temperature, K = 313.15
Property: Vapor or sublimation pressure, kPa (Liquid); method: CCELL:UFactor:2
Mole fraction of 2-methoxy-2-methylbutane	Mole fraction of methanol	Vapor or sublimation pressure, kPa	uncertainty
0	0	37.274	0.265
0	0.3114	68.933	0.464
0	0.7094	69.02	0.465
0	1	35.481	0.254
0.0001	0	37.274	0.265
0.0001	1	35.492	0.254
0.0285	0.6891	67.186	0.453
0.0291	0.3023	67.64	0.456
0.0564	0.2938	66.407	0.45
0.0996	0.6384	62.849	0.426
0.1036	0.2791	64.284	0.435
0.143	0.3466	62.597	0.424
0.1475	0.6043	60.212	0.41
0.1477	0.5014	61.758	0.419
0.1492	0.2649	62.245	0.422
0.1575	0.3818	61.836	0.42
0.1616	0.4544	61.406	0.417
0.1728	0.4188	60.926	0.414
0.1761	0.4054	61.014	0.414
0.1878	0.4552	59.893	0.407
0.19	0.3584	60.584	0.412
0.198	0.2497	60.064	0.408
0.2007	0.5665	57.532	0.393
0.202	0.4898	58.77	0.4
0.2057	0.3054	59.997	0.408
0.2174	0.5271	57.279	0.391
0.2206	0.2551	59.282	0.403
0.2318	0.5622	55.569	0.38
0.2346	0.2078	58.385	0.398
0.2475	0.164	57.196	0.39
0.2475	0.6004	53.186	0.365
0.2482	0.5328	55.327	0.379
0.2501	0.2335	57.745	0.394
0.2614	0.6343	50.4	0.348
0.2633	0.1107	54.736	0.375
0.2765	0.6711	46.247	0.323
0.2805	0.0525	49.186	0.34
0.2834	0.6882	43.713	0.307
0.2846	0.0387	46.606	0.336
0.2917	0.7083	40.068	0.285
0.296	0	32.984	0.238
0.2997	0.4962	53.116	0.365
0.3	0.218	55.509	0.38
0.3399	0.158	53.062	0.364
0.3478	0.5018	49.883	0.345
0.35	0.2024	53.243	0.366
0.3502	0.4603	51.087	0.352
0.3753	0.1744	51.902	0.357
0.3827	0.4518	49.36	0.341
0.3999	0.4251	49.202	0.34
0.4024	0.1861	50.86	0.351
0.4076	0.1893	50.779	0.35
0.4226	0.3948	48.653	0.337
0.4424	0.2055	49.483	0.342
0.4505	0.1712	48.633	0.337
0.4507	0.3891	47.35	0.329
0.4512	0.3537	48.053	0.333
0.4782	0.2221	48.034	0.333
0.4873	0.302	47.151	0.327
0.4991	0.1561	46.351	0.322
0.5007	0.3537	45.584	0.317
0.5093	0.2366	46.686	0.324
0.5234	0.2503	45.99	0.32
0.5436	0.2526	45.082	0.314
0.5547	0.2054	44.695	0.312
0.5778	0.2686	43.342	0.303
0.5903	0.1543	42.68	0.299
0.6125	0.2847	41.392	0.291
0.6252	0.1044	39.763	0.281
0.6478	0.3013	39.182	0.277
0.662	0.0516	34.702	0.249
0.6631	0.3084	38.148	0.271
0.669	0.0415	33.382	0.241
0.6825	0.3175	36.767	0.262
0.698	0	26.122	0.195
1	0	19.568	0.154
1	0	19.56	0.154
