Measured thermophysical data. Solubility of dilute sulfur dioxide in binary mixtures of ethylene glycol and tetraethylene glycol dimethyl ether
Source: Fluid Phase Equilib., 2015, 10.1016/j.fluid.2015.03.002
Compound 1: 1,2-ethanediol, C2H6O2, InChI=1S/C2H6O2/c3-1-2-4/h3-4H,1-2H2, purity 99%
Compound 2: sulfur dioxide, O2S, InChI=1S/O2S/c1-3-2, purity 99%
Compound 3: 2,5,8,11,14-pentaoxapentadecane, C10H22O5, InChI=1S/C10H22O5/c1-11-3-5-13-7-9-15-10-8-14-6-4-12-2/h3-10H2,1-2H3, purity 98%

System: 1,2-ethanediol + 2,5,8,11,14-pentaoxapentadecane + sulfur dioxide; phases: Gas, Liquid
Fixed: Pressure, kPa = 122.7
Property: Mole fraction of sulfur dioxide (Gas); method: Chromatography
Temperature, K	Solvent: Mass fraction of 2,5,8,11,14-pentaoxapentadecane	Mole fraction of sulfur dioxide	uncertainty
293.15	0	0.000138	3e-06
293.15	0	0.000214	4e-06
293.15	0	0.000315	6e-06
293.15	0	0.000439	8e-06
293.15	0	0.000597	1.1e-05
293.15	0	0.000738	1.4e-05
293.15	0	0.000976	1.8e-05
293.15	0.1	0.000131	2e-06
293.15	0.1	0.000289	5e-06
293.15	0.1	0.000458	8e-06
293.15	0.1	0.000575	1.1e-05
293.15	0.1	0.000696	1.3e-05
293.15	0.1	0.000797	1.5e-05
293.15	0.1	0.00087	1.6e-05
293.15	0.2	0.00015	3e-06
293.15	0.2	0.000281	5e-06
293.15	0.2	0.000422	8e-06
293.15	0.2	0.000573	1.1e-05
293.15	0.2	0.000639	1.2e-05
293.15	0.2	0.000727	1.3e-05
293.15	0.2	0.000872	1.6e-05
293.15	0.3	7.7e-05	2e-06
293.15	0.3	0.000184	3e-06
293.15	0.3	0.000243	4e-06
293.15	0.3	0.000315	6e-06
293.15	0.3	0.000499	9e-06
293.15	0.3	0.000697	1.3e-05
293.15	0.3	0.000744	1.4e-05
293.15	0.4	0.000154	3e-06
293.15	0.4	0.000249	5e-06
293.15	0.4	0.000311	6e-06
293.15	0.4	0.00041	8e-06
293.15	0.4	0.000531	1e-05
293.15	0.4	0.000622	1.1e-05
293.15	0.4	0.000918	1.7e-05
293.15	0.5	0.000103	2e-06
293.15	0.5	0.000147	3e-06
293.15	0.5	0.000197	4e-06
293.15	0.5	0.000345	6e-06
293.15	0.5	0.000425	8e-06
293.15	0.5	0.000502	9e-06
293.15	0.5	0.000717	1.3e-05
293.15	0.6	6.4e-05	1e-06
293.15	0.6	0.000139	3e-06
293.15	0.6	0.000256	5e-06
293.15	0.6	0.000416	8e-06
293.15	0.6	0.00056	1e-05
293.15	0.6	0.000755	1.4e-05
293.15	0.6	0.000654	1.2e-05
293.15	0.7	0.000143	3e-06
293.15	0.7	0.000237	4e-06
293.15	0.7	0.000306	6e-06
293.15	0.7	0.000504	9e-06
293.15	0.7	0.000606	1.1e-05
293.15	0.7	0.000715	1.3e-05
293.15	0.7	0.000804	1.5e-05
293.15	0.8	9.6e-05	2e-06
293.15	0.8	0.000125	2e-06
293.15	0.8	0.000245	5e-06
293.15	0.8	0.00039	7e-06
293.15	0.8	0.000549	1e-05
293.15	0.8	0.000665	1.2e-05
293.15	0.8	0.000748	1.4e-05
293.15	1	7.1e-05	1e-06
293.15	1	0.000146	3e-06
293.15	1	0.000346	6e-06
293.15	1	0.000457	8e-06
293.15	1	0.000572	1.1e-05
293.15	1	0.000681	1.3e-05
293.15	1	0.000809	1.5e-05
298.15	0	0.000148	3e-06
298.15	0	0.000238	4e-06
298.15	0	0.000321	6e-06
298.15	0	0.000394	7e-06
298.15	0	0.000571	1e-05
298.15	0	0.000635	1.2e-05
298.15	0	0.000862	1.6e-05
298.15	0.1	4.7e-05	1e-06
298.15	0.1	0.000186	3e-06
298.15	0.1	0.000353	6e-06
298.15	0.1	0.000439	8e-06
298.15	0.1	0.000522	1e-05
298.15	0.1	0.000649	1.2e-05
298.15	0.1	0.000762	1.4e-05
298.15	0.2	0.000123	2e-06
298.15	0.2	0.000235	4e-06
298.15	0.2	0.000366	7e-06
298.15	0.2	0.000494	9e-06
298.15	0.2	0.00064	1.2e-05
298.15	0.2	0.000768	1.4e-05
298.15	0.2	0.000827	1.5e-05
298.15	0.3	8.1e-05	2e-06
298.15	0.3	0.000196	4e-06
298.15	0.3	0.000306	6e-06
298.15	0.3	0.000478	9e-06
298.15	0.3	0.000565	1e-05
298.15	0.3	0.000632	1.2e-05
298.15	0.3	0.000791	1.4e-05
298.15	0.4	0.000182	3e-06
298.15	0.4	0.000346	6e-06
298.15	0.4	0.000421	8e-06
298.15	0.4	0.000486	9e-06
298.15	0.4	0.000584	1.1e-05
298.15	0.4	0.000752	1.4e-05
298.15	0.4	0.000895	1.6e-05
298.15	0.5	6.6e-05	1e-06
298.15	0.5	0.000219	4e-06
298.15	0.5	0.000335	6e-06
298.15	0.5	0.00043	8e-06
298.15	0.5	0.000604	1.1e-05
298.15	0.5	0.00071	1.3e-05
298.15	0.5	0.000826	1.5e-05
298.15	0.6	0.000128	2e-06
298.15	0.6	0.000178	3e-06
298.15	0.6	0.00033	6e-06
298.15	0.6	0.00049	9e-06
298.15	0.6	0.00064	1.2e-05
298.15	0.6	0.000749	1.4e-05
298.15	0.6	0.000831	1.5e-05
298.15	0.7	0.000106	2e-06
298.15	0.7	0.000315	6e-06
298.15	0.7	0.000394	7e-06
298.15	0.7	0.000487	9e-06
298.15	0.7	0.000597	1.1e-05
298.15	0.7	0.000698	1.3e-05
298.15	0.7	0.000827	1.5e-05
298.15	0.8	0.000181	3e-06
298.15	0.8	0.000222	4e-06
298.15	0.8	0.000386	7e-06
298.15	0.8	0.000497	9e-06
298.15	0.8	0.000671	1.2e-05
298.15	0.8	0.000779	1.4e-05
298.15	0.8	0.000884	1.6e-05
298.15	1	0.000152	3e-06
298.15	1	0.000251	5e-06
298.15	1	0.000344	6e-06
298.15	1	0.000494	9e-06
298.15	1	0.000628	1.1e-05
298.15	1	0.00074	1.4e-05
298.15	1	0.000874	1.6e-05
303.15	0	0.000203	4e-06
303.15	0	0.000323	6e-06
303.15	0	0.00045	8e-06
303.15	0	0.000513	9e-06
303.15	0	0.000621	1.1e-05
303.15	0	0.000703	1.3e-05
303.15	0	0.000801	1.5e-05
303.15	0.1	0.000205	4e-06
303.15	0.1	0.000297	5e-06
303.15	0.1	0.000425	8e-06
303.15	0.1	0.000517	9e-06
303.15	0.1	0.000681	1.2e-05
303.15	0.1	0.000801	1.5e-05
303.15	0.1	0.000862	1.6e-05
303.15	0.2	0.000205	4e-06
303.15	0.2	0.000318	6e-06
303.15	0.2	0.000476	9e-06
303.15	0.2	0.000532	1e-05
303.15	0.2	0.000644	1.2e-05
303.15	0.2	0.000755	1.4e-05
303.15	0.2	0.000883	1.6e-05
303.15	0.3	6.3e-05	1e-06
303.15	0.3	0.000178	3e-06
303.15	0.3	0.00029	5e-06
303.15	0.3	0.000402	7e-06
303.15	0.3	0.00054	1e-05
303.15	0.3	0.000698	1.3e-05
303.15	0.3	0.000819	1.5e-05
303.15	0.4	0.000168	3e-06
303.15	0.4	0.000267	5e-06
303.15	0.4	0.000371	7e-06
303.15	0.4	0.0005	9e-06
303.15	0.4	0.000617	1.1e-05
303.15	0.4	0.000786	1.4e-05
303.15	0.4	0.000832	1.5e-05
303.15	0.5	0.00022	4e-06
303.15	0.5	0.00033	6e-06
303.15	0.5	0.000533	1e-05
303.15	0.5	0.000658	1.2e-05
303.15	0.5	0.000758	1.4e-05
303.15	0.5	0.000776	1.4e-05
303.15	0.5	0.000857	1.6e-05
303.15	0.6	0.000227	4e-06
303.15	0.6	0.000346	6e-06
303.15	0.6	0.000464	9e-06
303.15	0.6	0.000599	1.1e-05
303.15	0.6	0.000659	1.2e-05
303.15	0.6	0.000747	1.4e-05
303.15	0.6	0.000863	1.6e-05
303.15	0.7	0.00011	2e-06
303.15	0.7	0.000308	6e-06
303.15	0.7	0.000385	7e-06
303.15	0.7	0.000495	9e-06
303.15	0.7	0.00059	1.1e-05
303.15	0.7	0.00074	1.4e-05
303.15	0.7	0.000842	1.5e-05
303.15	0.8	6.6e-05	1e-06
303.15	0.8	0.000218	4e-06
303.15	0.8	0.000369	7e-06
303.15	0.8	0.000474	9e-06
303.15	0.8	0.000558	1e-05
303.15	0.8	0.000676	1.2e-05
303.15	0.8	0.000792	1.4e-05
303.15	1	3.7e-05	1e-06
303.15	1	0.000131	2e-06
303.15	1	0.000215	4e-06
303.15	1	0.000307	6e-06
303.15	1	0.000409	8e-06
303.15	1	0.000519	1e-05
303.15	1	0.000702	1.3e-05
308.15	0	0.000188	3e-06
308.15	0	0.00024	4e-06
308.15	0	0.00031	6e-06
308.15	0	0.000478	9e-06
308.15	0	0.000598	1.1e-05
308.15	0	0.000716	1.3e-05
308.15	0	0.000776	1.4e-05
308.15	0.1	2.4e-05	1e-06
308.15	0.1	0.000214	4e-06
308.15	0.1	0.000392	7e-06
308.15	0.1	0.000463	8e-06
308.15	0.1	0.00054	1e-05
308.15	0.1	0.000628	1.2e-05
308.15	0.1	0.000675	1.2e-05
308.15	0.2	9.3e-05	2e-06
308.15	0.2	0.00019	4e-06
308.15	0.2	0.000346	6e-06
308.15	0.2	0.000509	9e-06
308.15	0.2	0.000635	1.2e-05
308.15	0.2	0.000742	1.4e-05
308.15	0.2	0.000831	1.5e-05
308.15	0.3	6.4e-05	1e-06
308.15	0.3	0.000229	4e-06
308.15	0.3	0.000372	7e-06
308.15	0.3	0.000525	1e-05
308.15	0.3	0.000606	1.1e-05
308.15	0.3	0.000692	1.3e-05
308.15	0.3	0.000767	1.4e-05
308.15	0.4	6.7e-05	1e-06
308.15	0.4	0.000162	3e-06
308.15	0.4	0.000264	5e-06
308.15	0.4	0.000398	7e-06
308.15	0.4	0.000558	1e-05
308.15	0.4	0.000712	1.3e-05
308.15	0.4	0.000755	1.4e-05
308.15	0.5	0.000202	4e-06
308.15	0.5	0.000286	5e-06
308.15	0.5	0.000328	6e-06
308.15	0.5	0.000427	8e-06
308.15	0.5	0.000486	9e-06
308.15	0.5	0.000666	1.2e-05
308.15	0.5	0.000817	1.5e-05
308.15	0.6	0.000101	2e-06
308.15	0.6	0.00018	3e-06
308.15	0.6	0.000271	5e-06
308.15	0.6	0.000396	7e-06
308.15	0.6	0.000489	9e-06
308.15	0.6	0.000619	1.1e-05
308.15	0.6	0.000837	1.5e-05
308.15	0.7	9.3e-05	2e-06
308.15	0.7	0.000218	4e-06
308.15	0.7	0.000367	7e-06
308.15	0.7	0.000483	9e-06
308.15	0.7	0.000635	1.2e-05
308.15	0.7	0.000697	1.3e-05
308.15	0.7	0.000827	1.5e-05
308.15	0.8	0.000148	3e-06
308.15	0.8	0.000209	4e-06
308.15	0.8	0.000339	6e-06
308.15	0.8	0.000434	8e-06
308.15	0.8	0.000619	1.1e-05
308.15	0.8	0.000713	1.3e-05
308.15	0.8	0.000838	1.5e-05
308.15	1	5.9e-05	1e-06
308.15	1	0.00011	2e-06
308.15	1	0.000275	5e-06
308.15	1	0.000359	7e-06
308.15	1	0.000467	9e-06
308.15	1	0.000573	1e-05
308.15	1	0.000727	1.3e-05
313.15	0	0.000138	3e-06
313.15	0	0.000262	5e-06
313.15	0	0.000366	7e-06
313.15	0	0.000524	1e-05
313.15	0	0.000685	1.3e-05
313.15	0	0.000755	1.4e-05
313.15	0	0.000822	1.5e-05
313.15	0.1	7.4e-05	2e-06
313.15	0.1	0.000214	4e-06
313.15	0.1	0.000326	6e-06
313.15	0.1	0.00056	1e-05
313.15	0.1	0.000612	1.1e-05
313.15	0.1	0.000733	1.3e-05
313.15	0.1	0.000857	1.6e-05
313.15	0.2	0.000275	5e-06
313.15	0.2	0.000341	6e-06
313.15	0.2	0.000448	8e-06
313.15	0.2	0.000529	1e-05
313.15	0.2	0.000694	1.3e-05
313.15	0.2	0.000778	1.4e-05
313.15	0.2	0.000813	1.5e-05
313.15	0.3	0.000115	2e-06
313.15	0.3	0.00028	5e-06
313.15	0.3	0.000481	9e-06
313.15	0.3	0.000571	1.1e-05
313.15	0.3	0.000705	1.3e-05
313.15	0.3	0.000799	1.5e-05
313.15	0.3	0.00087	1.6e-05
313.15	0.4	0.000116	2e-06
313.15	0.4	0.000202	4e-06
313.15	0.4	0.000375	7e-06
313.15	0.4	0.000515	9e-06
313.15	0.4	0.000566	1e-05
313.15	0.4	0.000698	1.3e-05
313.15	0.4	0.000913	1.7e-05
313.15	0.5	8.3e-05	2e-06
313.15	0.5	0.000197	4e-06
313.15	0.5	0.000275	5e-06
313.15	0.5	0.000441	8e-06
313.15	0.5	0.000512	9e-06
313.15	0.5	0.00059	1.1e-05
313.15	0.5	0.000715	1.3e-05
313.15	0.6	0.00012	2e-06
313.15	0.6	0.000172	3e-06
313.15	0.6	0.000316	6e-06
313.15	0.6	0.000482	9e-06
313.15	0.6	0.000552	1e-05
313.15	0.6	0.000637	1.2e-05
313.15	0.6	0.000827	1.5e-05
313.15	0.7	8.4e-05	2e-06
313.15	0.7	0.000254	5e-06
313.15	0.7	0.000394	7e-06
313.15	0.7	0.000496	9e-06
313.15	0.7	0.000586	1.1e-05
313.15	0.7	0.000722	1.3e-05
313.15	0.7	0.000778	1.4e-05
313.15	0.8	0.000139	3e-06
313.15	0.8	0.000365	7e-06
313.15	0.8	0.000498	9e-06
313.15	0.8	0.000619	1.1e-05
313.15	0.8	0.000707	1.3e-05
313.15	0.8	0.000754	1.4e-05
313.15	0.8	0.000874	1.6e-05
313.15	1	8.4e-05	2e-06
313.15	1	0.000212	4e-06
313.15	1	0.000284	5e-06
313.15	1	0.000368	7e-06
313.15	1	0.000485	9e-06
313.15	1	0.00063	1.2e-05
313.15	1	0.000716	1.3e-05

System: 1,2-ethanediol + 2,5,8,11,14-pentaoxapentadecane + sulfur dioxide; phases: Liquid, Gas
Fixed: Pressure, kPa = 122.7
Property: Amount concentration (molarity), mol/dm3 of sulfur dioxide (Liquid); method: iodometric titration
Temperature, K	Solvent: Mass fraction of 2,5,8,11,14-pentaoxapentadecane	Amount concentration (molarity), mol/dm3 of sulfur dioxide	uncertainty
293.15	0	0.00168	4e-05
293.15	0	0.00247	4e-05
293.15	0	0.00363	4e-05
293.15	0	0.00473	4e-05
293.15	0	0.00641	5e-05
293.15	0	0.0081	5e-05
293.15	0	0.01054	6e-05
293.15	0.1	0.00265	4e-05
293.15	0.1	0.00564	4e-05
293.15	0.1	0.00831	4e-05
293.15	0.1	0.01107	4e-05
293.15	0.1	0.0129	5e-05
293.15	0.1	0.0151	5e-05
293.15	0.1	0.01647	5e-05
293.15	0.2	0.00352	4e-05
293.15	0.2	0.00653	4e-05
293.15	0.2	0.01066	4e-05
293.15	0.2	0.01413	4e-05
293.15	0.2	0.01607	4e-05
293.15	0.2	0.01841	5e-05
293.15	0.2	0.02162	5e-05
293.15	0.3	0.00308	4e-05
293.15	0.3	0.00616	4e-05
293.15	0.3	0.00828	4e-05
293.15	0.3	0.01111	4e-05
293.15	0.3	0.01717	5e-05
293.15	0.3	0.02485	5e-05
293.15	0.3	0.02671	6e-05
293.15	0.4	0.00651	4e-05
293.15	0.4	0.0104	4e-05
293.15	0.4	0.01273	4e-05
293.15	0.4	0.01661	4e-05
293.15	0.4	0.02131	4e-05
293.15	0.4	0.02555	5e-05
293.15	0.4	0.03772	6e-05
293.15	0.5	0.00435	4e-05
293.15	0.5	0.00664	4e-05
293.15	0.5	0.00873	4e-05
293.15	0.5	0.01448	5e-05
293.15	0.5	0.01841	5e-05
293.15	0.5	0.02222	5e-05
293.15	0.5	0.03087	6e-05
293.15	0.6	0.00275	4e-05
293.15	0.6	0.00592	4e-05
293.15	0.6	0.01219	4e-05
293.15	0.6	0.02017	5e-05
293.15	0.6	0.02706	6e-05
293.15	0.6	0.03624	6e-05
293.15	0.6	0.03172	6e-05
293.15	0.7	0.008	4e-05
293.15	0.7	0.01295	4e-05
293.15	0.7	0.0177	5e-05
293.15	0.7	0.02937	5e-05
293.15	0.7	0.03477	6e-05
293.15	0.7	0.04048	6e-05
293.15	0.7	0.04649	7e-05
293.15	0.8	0.00543	4e-05
293.15	0.8	0.00813	4e-05
293.15	0.8	0.0154	4e-05
293.15	0.8	0.02275	5e-05
293.15	0.8	0.03179	5e-05
293.15	0.8	0.04083	6e-05
293.15	0.8	0.04563	7e-05
293.15	1	0.00377	4e-05
293.15	1	0.00734	4e-05
293.15	1	0.01591	6e-05
293.15	1	0.02208	8e-05
293.15	1	0.02723	0.0001
293.15	1	0.03203	0.00012
293.15	1	0.03947	0.00015
298.15	0	0.00117	4e-05
298.15	0	0.00184	4e-05
298.15	0	0.00255	4e-05
298.15	0	0.00311	4e-05
298.15	0	0.00449	4e-05
298.15	0	0.00495	4e-05
298.15	0	0.00663	4e-05
298.15	0.1	0.00077	4e-05
298.15	0.1	0.00296	4e-05
298.15	0.1	0.00561	4e-05
298.15	0.1	0.00729	4e-05
298.15	0.1	0.00836	4e-05
298.15	0.1	0.01058	4e-05
298.15	0.1	0.01193	4e-05
298.15	0.2	0.00273	4e-05
298.15	0.2	0.00546	4e-05
298.15	0.2	0.00811	4e-05
298.15	0.2	0.01091	4e-05
298.15	0.2	0.01275	4e-05
298.15	0.2	0.01647	4e-05
298.15	0.2	0.01775	4e-05
298.15	0.3	0.00232	4e-05
298.15	0.3	0.0053	4e-05
298.15	0.3	0.00833	4e-05
298.15	0.3	0.01338	4e-05
298.15	0.3	0.01581	4e-05
298.15	0.3	0.01747	4e-05
298.15	0.3	0.02202	4e-05
298.15	0.4	0.00499	4e-05
298.15	0.4	0.01018	4e-05
298.15	0.4	0.01255	4e-05
298.15	0.4	0.01479	4e-05
298.15	0.4	0.01802	4e-05
298.15	0.4	0.02311	4e-05
298.15	0.4	0.02749	4e-05
298.15	0.5	0.0025	4e-05
298.15	0.5	0.00773	4e-05
298.15	0.5	0.01109	4e-05
298.15	0.5	0.01369	4e-05
298.15	0.5	0.01961	4e-05
298.15	0.5	0.02379	4e-05
298.15	0.5	0.02777	4e-05
298.15	0.6	0.00362	4e-05
298.15	0.6	0.00546	4e-05
298.15	0.6	0.01061	4e-05
298.15	0.6	0.01591	4e-05
298.15	0.6	0.02183	4e-05
298.15	0.6	0.02555	4e-05
298.15	0.6	0.02897	4e-05
298.15	0.7	0.00358	4e-05
298.15	0.7	0.01187	4e-05
298.15	0.7	0.01525	4e-05
298.15	0.7	0.01923	4e-05
298.15	0.7	0.02379	4e-05
298.15	0.7	0.02825	4e-05
298.15	0.7	0.03382	4e-05
298.15	0.8	0.00694	4e-05
298.15	0.8	0.00872	4e-05
298.15	0.8	0.01622	4e-05
298.15	0.8	0.01986	4e-05
298.15	0.8	0.02917	4e-05
298.15	0.8	0.03417	4e-05
298.15	0.8	0.03851	4e-05
298.15	1	0.00408	4e-05
298.15	1	0.00801	4e-05
298.15	1	0.01173	4e-05
298.15	1	0.01734	4e-05
298.15	1	0.02137	4e-05
298.15	1	0.02519	4e-05
298.15	1	0.02902	4e-05
303.15	0	0.00126	4e-05
303.15	0	0.00204	4e-05
303.15	0	0.00286	4e-05
303.15	0	0.00324	4e-05
303.15	0	0.00395	4e-05
303.15	0	0.00441	4e-05
303.15	0	0.0051	4e-05
303.15	0.1	0.00298	4e-05
303.15	0.1	0.00399	4e-05
303.15	0.1	0.00505	4e-05
303.15	0.1	0.00697	4e-05
303.15	0.1	0.00934	4e-05
303.15	0.1	0.01086	4e-05
303.15	0.1	0.01172	4e-05
303.15	0.2	0.00351	4e-05
303.15	0.2	0.00542	4e-05
303.15	0.2	0.00829	4e-05
303.15	0.2	0.00932	4e-05
303.15	0.2	0.01129	4e-05
303.15	0.2	0.01299	4e-05
303.15	0.2	0.01519	4e-05
303.15	0.3	0.00146	4e-05
303.15	0.3	0.00399	4e-05
303.15	0.3	0.00677	4e-05
303.15	0.3	0.00934	4e-05
303.15	0.3	0.01237	4e-05
303.15	0.3	0.01601	4e-05
303.15	0.3	0.01853	4e-05
303.15	0.4	0.00434	4e-05
303.15	0.4	0.00711	4e-05
303.15	0.4	0.00979	4e-05
303.15	0.4	0.01331	4e-05
303.15	0.4	0.01655	4e-05
303.15	0.4	0.02058	4e-05
303.15	0.4	0.02171	4e-05
303.15	0.5	0.00561	4e-05
303.15	0.5	0.00836	4e-05
303.15	0.5	0.01377	4e-05
303.15	0.5	0.01749	4e-05
303.15	0.5	0.02009	4e-05
303.15	0.5	0.02091	4e-05
303.15	0.5	0.02275	4e-05
303.15	0.6	0.0059	4e-05
303.15	0.6	0.00908	4e-05
303.15	0.6	0.01163	4e-05
303.15	0.6	0.01574	4e-05
303.15	0.6	0.01791	4e-05
303.15	0.6	0.02018	4e-05
303.15	0.6	0.02321	4e-05
303.15	0.7	0.0026	4e-05
303.15	0.7	0.00841	4e-05
303.15	0.7	0.01088	4e-05
303.15	0.7	0.01401	4e-05
303.15	0.7	0.01704	4e-05
303.15	0.7	0.02202	4e-05
303.15	0.7	0.0248	4e-05
303.15	0.8	0.00242	4e-05
303.15	0.8	0.0076	4e-05
303.15	0.8	0.01283	4e-05
303.15	0.8	0.01588	4e-05
303.15	0.8	0.01886	4e-05
303.15	0.8	0.02361	4e-05
303.15	0.8	0.0276	4e-05
303.15	1	0.00088	4e-05
303.15	1	0.00414	4e-05
303.15	1	0.00631	4e-05
303.15	1	0.00787	4e-05
303.15	1	0.01097	4e-05
303.15	1	0.01433	4e-05
303.15	1	0.01987	4e-05
308.15	0	0.00105	4e-05
308.15	0	0.0013	4e-05
308.15	0	0.00168	4e-05
308.15	0	0.00247	4e-05
308.15	0	0.00309	4e-05
308.15	0	0.0036	4e-05
308.15	0	0.00402	4e-05
308.15	0.1	0.00043	4e-05
308.15	0.1	0.00275	4e-05
308.15	0.1	0.00469	4e-05
308.15	0.1	0.00551	4e-05
308.15	0.1	0.00655	4e-05
308.15	0.1	0.00798	4e-05
308.15	0.1	0.00854	4e-05
308.15	0.2	0.00121	4e-05
308.15	0.2	0.00255	4e-05
308.15	0.2	0.00492	4e-05
308.15	0.2	0.00745	4e-05
308.15	0.2	0.00922	4e-05
308.15	0.2	0.01048	4e-05
308.15	0.2	0.01184	4e-05
308.15	0.3	0.00146	4e-05
308.15	0.3	0.00439	4e-05
308.15	0.3	0.00677	4e-05
308.15	0.3	0.00995	4e-05
308.15	0.3	0.01136	4e-05
308.15	0.3	0.01303	4e-05
308.15	0.3	0.01469	4e-05
308.15	0.4	0.00131	4e-05
308.15	0.4	0.00318	4e-05
308.15	0.4	0.00561	4e-05
308.15	0.4	0.00848	4e-05
308.15	0.4	0.01172	4e-05
308.15	0.4	0.01502	4e-05
308.15	0.4	0.01591	4e-05
308.15	0.5	0.00464	4e-05
308.15	0.5	0.00668	4e-05
308.15	0.5	0.00765	4e-05
308.15	0.5	0.00974	4e-05
308.15	0.5	0.01102	4e-05
308.15	0.5	0.01535	4e-05
308.15	0.5	0.0189	4e-05
308.15	0.6	0.00245	4e-05
308.15	0.6	0.00413	4e-05
308.15	0.6	0.00627	4e-05
308.15	0.6	0.00872	4e-05
308.15	0.6	0.01066	4e-05
308.15	0.6	0.01358	4e-05
308.15	0.6	0.01914	4e-05
308.15	0.7	0.00192	4e-05
308.15	0.7	0.00467	4e-05
308.15	0.7	0.00821	4e-05
308.15	0.7	0.01088	4e-05
308.15	0.7	0.01475	4e-05
308.15	0.7	0.01626	4e-05
308.15	0.7	0.01967	4e-05
308.15	0.8	0.00341	4e-05
308.15	0.8	0.00538	4e-05
308.15	0.8	0.00851	4e-05
308.15	0.8	0.01144	4e-05
308.15	0.8	0.01634	4e-05
308.15	0.8	0.01906	4e-05
308.15	0.8	0.02255	4e-05
308.15	1	0.00114	4e-05
308.15	1	0.00217	4e-05
308.15	1	0.00616	4e-05
308.15	1	0.00802	4e-05
308.15	1	0.01035	4e-05
308.15	1	0.01242	4e-05
308.15	1	0.01589	4e-05
313.15	0	0.00064	4e-05
313.15	0	0.00117	4e-05
313.15	0	0.00161	4e-05
313.15	0	0.00227	4e-05
313.15	0	0.00288	4e-05
313.15	0	0.00319	4e-05
313.15	0	0.00347	4e-05
313.15	0.1	0.00092	4e-05
313.15	0.1	0.00235	4e-05
313.15	0.1	0.00354	4e-05
313.15	0.1	0.00612	4e-05
313.15	0.1	0.00678	4e-05
313.15	0.1	0.00821	4e-05
313.15	0.1	0.00974	4e-05
313.15	0.2	0.00338	4e-05
313.15	0.2	0.00424	4e-05
313.15	0.2	0.00525	4e-05
313.15	0.2	0.00646	4e-05
313.15	0.2	0.00838	4e-05
313.15	0.2	0.00947	4e-05
313.15	0.2	0.0099	4e-05
313.15	0.3	0.00164	4e-05
313.15	0.3	0.00401	4e-05
313.15	0.3	0.00742	4e-05
313.15	0.3	0.00881	4e-05
313.15	0.3	0.01073	4e-05
313.15	0.3	0.01242	4e-05
313.15	0.3	0.01353	4e-05
313.15	0.4	0.00179	4e-05
313.15	0.4	0.00346	4e-05
313.15	0.4	0.00624	4e-05
313.15	0.4	0.00856	4e-05
313.15	0.4	0.00972	4e-05
313.15	0.4	0.01192	4e-05
313.15	0.4	0.01571	4e-05
313.15	0.5	0.00145	4e-05
313.15	0.5	0.00367	4e-05
313.15	0.5	0.0052	4e-05
313.15	0.5	0.00816	4e-05
313.15	0.5	0.00946	4e-05
313.15	0.5	0.0113	4e-05
313.15	0.5	0.01331	4e-05
313.15	0.6	0.00224	4e-05
313.15	0.6	0.00298	4e-05
313.15	0.6	0.00574	4e-05
313.15	0.6	0.00887	4e-05
313.15	0.6	0.01038	4e-05
313.15	0.6	0.01188	4e-05
313.15	0.6	0.01517	4e-05
313.15	0.7	0.00093	4e-05
313.15	0.7	0.00426	4e-05
313.15	0.7	0.0071	4e-05
313.15	0.7	0.00919	4e-05
313.15	0.7	0.01095	4e-05
313.15	0.7	0.01357	4e-05
313.15	0.7	0.01479	4e-05
313.15	0.8	0.0029	4e-05
313.15	0.8	0.00826	4e-05
313.15	0.8	0.01103	4e-05
313.15	0.8	0.01356	4e-05
313.15	0.8	0.01542	4e-05
313.15	0.8	0.01673	4e-05
313.15	0.8	0.01911	4e-05
313.15	1	0.0016	4e-05
313.15	1	0.00367	4e-05
313.15	1	0.00471	4e-05
313.15	1	0.00678	5e-05
313.15	1	0.00849	5e-05
313.15	1	0.01118	6e-05
313.15	1	0.01263	6e-05
