Measured thermophysical data. Isobaric vapor-liquid equilibria for binary and ternary mixtures with cyclohexane, cyclohexene, and morpholine at 100 kPa
Source: Fluid Phase Equilib., 2010, 10.1016/j.fluid.2010.04.008
Compound 1: cyclohexane, C6H12, InChI=1S/C6H12/c1-2-4-6-5-3-1/h1-6H2, purity 99.8%
Compound 2: cyclohexene, C6H10, InChI=1S/C6H10/c1-2-4-6-5-3-1/h1-2H,3-6H2, purity 99.5%
Compound 3: tetrahydro-1,4-oxazine, C4H9NO, InChI=1S/C4H9NO/c1-3-6-4-2-5-1/h5H,1-4H2, purity 99.5%

System: tetrahydro-1,4-oxazine; phases: Liquid, Gas
Property: Vapor or sublimation pressure, kPa (Liquid); method: Ebulliometric method (Recirculating still)
Temperature, K	Vapor or sublimation pressure, kPa	uncertainty
356.46	22.57	0.2
359.12	24.96	0.2
361.7	27.47	0.2
364.05	30.02	0.21
366.23	32.49	0.21
368.27	34.95	0.21
370.28	37.52	0.21
372.11	40.01	0.21
373.84	42.47	0.21
375.53	45.01	0.21
377.1	47.47	0.21
378.63	49.95	0.21
380.12	52.51	0.21
381.51	54.94	0.22
382.87	57.53	0.22
384.16	59.98	0.22
385.48	62.51	0.22
386.71	65.04	0.22
387.9	67.54	0.22
389.05	69.99	0.22
390.19	72.56	0.22
391.28	75.03	0.22
392.32	77.49	0.23
393.36	80.02	0.23
394.38	82.52	0.23
395.33	85.07	0.23
396.32	87.48	0.23
397.26	90.03	0.23
398.15	92.46	0.23
399.11	95.07	0.24
399.93	97.49	0.24
400.78	100.01	0.24
401.24	101.32	0.24

System: cyclohexane + tetrahydro-1,4-oxazine; phases: Liquid, Gas
Fixed: Pressure, kPa = 100
Property: Boiling temperature at pressure P, K (Liquid); method: Ebulliometric method (Recirculating still)
Mole fraction of cyclohexane	Boiling temperature at pressure P, K	uncertainty
0.013	396.86	0.52
0.026	393.57	0.4
0.058	387.92	0.39
0.078	383.78	0.3
0.118	379.05	0.27
0.156	374.05	0.22
0.19	371.83	0.18
0.223	368.97	0.14
0.273	367.54	0.36
0.283	365.82	0.36
0.327	364.24	0.12
0.372	362.55	0.12
0.406	361.65	0.11
0.468	360.13	0.11
0.523	359.24	0.1
0.603	357.84	0.1
0.652	357.43	0.1
0.696	356.81	0.1
0.743	356.13	0.1
0.786	355.67	0.1
0.832	355.16	0.1
0.892	354.5	0.1
0.946	353.91	0.1
0.996	353.41	0.1

System: cyclohexane + tetrahydro-1,4-oxazine; phases: Gas, Liquid
Fixed: Pressure, kPa = 100
Property: Mole fraction of cyclohexane (Gas); method: Chromatography
Mole fraction of cyclohexane	Mole fraction of cyclohexane	uncertainty
0.013	0.117	0.042
0.026	0.199	0.042
0.058	0.368	0.041
0.078	0.45	0.04
0.118	0.561	0.04
0.156	0.625	0.04
0.19	0.665	0.04
0.223	0.71	0.04
0.273	0.746	0.04
0.283	0.756	0.04
0.327	0.783	0.04
0.372	0.803	0.04
0.406	0.81	0.04
0.468	0.828	0.04
0.523	0.847	0.04
0.603	0.862	0.04
0.652	0.867	0.04
0.696	0.881	0.04
0.743	0.889	0.04
0.786	0.901	0.04
0.832	0.913	0.04
0.892	0.939	0.04
0.946	0.964	0.036
0.996	0.996	0.004

System: cyclohexene + tetrahydro-1,4-oxazine; phases: Liquid, Gas
Fixed: Pressure, kPa = 100
Property: Boiling temperature at pressure P, K (Liquid); method: Ebulliometric method (Recirculating still)
Mole fraction of cyclohexene	Boiling temperature at pressure P, K	uncertainty
0.016	397.76	0.39
0.034	394.35	0.31
0.066	390.36	0.3
0.087	386.86	0.24
0.141	381.82	0.22
0.162	379.26	0.2
0.192	377.42	0.17
0.217	375.4	0.18
0.243	373.65	0.15
0.286	371.33	0.14
0.327	369.55	0.13
0.376	367.74	0.13
0.404	366.41	0.13
0.441	365.19	0.11
0.492	363.99	0.11
0.531	363.14	0.11
0.588	361.93	0.11
0.642	360.96	0.1
0.698	359.96	0.1
0.753	359.16	0.1
0.804	358.42	0.1
0.856	357.55	0.1
0.911	356.84	0.1
0.956	356.18	0.1
0.982	355.76	0.1

System: cyclohexene + tetrahydro-1,4-oxazine; phases: Gas, Liquid
Fixed: Pressure, kPa = 100
Property: Mole fraction of cyclohexene (Gas); method: Chromatography
Mole fraction of cyclohexene	Mole fraction of cyclohexene	uncertainty
0.016	0.094	0.011
0.034	0.194	0.009
0.066	0.323	0.008
0.087	0.392	0.007
0.141	0.523	0.007
0.162	0.564	0.006
0.192	0.604	0.005
0.217	0.635	0.005
0.243	0.667	0.004
0.286	0.707	0.004
0.327	0.732	0.004
0.376	0.758	0.003
0.404	0.784	0.003
0.441	0.8	0.003
0.492	0.81	0.003
0.531	0.826	0.003
0.588	0.847	0.003
0.642	0.863	0.003
0.698	0.879	0.003
0.753	0.897	0.002
0.804	0.914	0.002
0.856	0.931	0.002
0.911	0.954	0.002
0.956	0.972	0.002
0.982	0.988	0.002

System: cyclohexane + cyclohexene + tetrahydro-1,4-oxazine; phases: Liquid, Gas
Fixed: Pressure, kPa = 100
Property: Mole fraction of cyclohexane (Liquid); method: Chromatography
Property: Mole fraction of cyclohexane (Gas); method: Chromatography
Property: Mole fraction of cyclohexene (Gas); method: Chromatography
Temperature, K	Mole fraction of cyclohexene	Mole fraction of cyclohexane	uncertainty	Mole fraction of cyclohexane	uncertainty	Mole fraction of cyclohexene	uncertainty
385.57	0.049	0.049	0.002	0.243	0.003	0.173	
370.81	0.229	0.047	0.002	0.151	0.002	0.559	
363.64	0.451	0.052	0.002	0.113	0.002	0.714	
359.96	0.661	0.047	0.002	0.073	0.002	0.819	
356.08	0.901	0.057	0.002	0.061	0.002	0.914	
356.64	0.798	0.106	0.002	0.123	0.002	0.827	
358.13	0.691	0.107	0.002	0.139	0.002	0.772	
359.88	0.587	0.102	0.002	0.152	0.002	0.725	
361.91	0.454	0.103	0.002	0.18	0.003	0.661	
363.62	0.362	0.098	0.002	0.208	0.003	0.61	
367	0.257	0.089	0.002	0.241	0.003	0.525	
369.1	0.196	0.09	0.002	0.272	0.003	0.453	
372.01	0.121	0.102	0.002	0.351	0.004	0.317	
366.69	0.116	0.185	0.002	0.512	0.005	0.246	
364.07	0.208	0.191	0.002	0.424	0.004	0.37	
362.07	0.312	0.197	0.003	0.332	0.004	0.434	
360.42	0.411	0.2	0.003	0.315	0.003	0.53	
359.35	0.489	0.191	0.002	0.263	0.003	0.581	
357.26	0.637	0.193	0.002	0.23	0.003	0.679	
355.65	0.745	0.198	0.003	0.219	0.003	0.742	
356	0.586	0.301	0.003	0.339	0.004	0.591	
357.33	0.494	0.303	0.003	0.368	0.004	0.528	
358.75	0.392	0.285	0.003	0.4	0.004	0.466	
360.28	0.287	0.28	0.003	0.454	0.005	0.384	
361.33	0.199	0.291	0.003	0.53	0.005	0.291	
364.35	0.052	0.277	0.003	0.691	0.003	0.102	
360.3	0.102	0.394	0.003	0.702	0.003	0.143	
358.83	0.207	0.408	0.004	0.604	0.004	0.252	
358.16	0.289	0.387	0.003	0.526	0.005	0.334	
356.54	0.406	0.405	0.004	0.474	0.005	0.43	
354.95	0.538	0.396	0.004	0.425	0.004	0.53	
355.55	0.408	0.47	0.004	0.525	0.005	0.397	
356.43	0.296	0.495	0.004	0.589	0.004	0.308	
357.65	0.203	0.47	0.004	0.642	0.004	0.233	
359.34	0.049	0.498	0.004	0.793	0.003	0.071	
357.31	0.103	0.597	0.004	0.762	0.003	0.115	
356.07	0.2	0.597	0.004	0.698	0.003	0.208	
354.47	0.354	0.584	0.004	0.609	0.004	0.342	
354.92	0.209	0.684	0.003	0.731	0.003	0.206	
356.33	0.053	0.709	0.003	0.853	0.002	0.057	
354.59	0.095	0.801	0.003	0.849	0.002	0.097	
354.04	0.049	0.899	0.002	0.922	0.002	0.048	
