Measured thermophysical data. Solid liquid phase equilibrium and phase diagram for ternary o-nitrobenzoic acid p-nitrobenzoic acid acetone system at 283.15K and 313.15K
Source: Fluid Phase Equilib., 2008, 10.1016/j.fluid.2008.02.007
Compound 1: acetone, C3H6O, InChI=1S/C3H6O/c1-3(2)4/h1-2H3
Compound 2: 2-nitrobenzoic acid, C7H5NO4, InChI=1S/C7H5NO4/c9-7(10)5-3-1-2-4-6(5)8(11)12/h1-4H,(H,9,10), purity 98.5%
Compound 3: 4-nitrobenzoic acid, C7H5NO4, InChI=1S/C7H5NO4/c9-7(10)5-1-3-6(4-2-5)8(11)12/h1-4H,(H,9,10), purity 99.2%

System: 2-nitrobenzoic acid; phases: Crystal, Liquid, Air at 1 atmosphere
Property: Normal melting temperature, K (Crystal); method: VISOBS
Normal melting temperature, K	uncertainty
420.8	0.5

System: 4-nitrobenzoic acid; phases: Crystal, Liquid, Air at 1 atmosphere
Property: Normal melting temperature, K (Crystal); method: VISOBS
Normal melting temperature, K	uncertainty
513	0.5

System: 4-nitrobenzoic acid + acetone + 2-nitrobenzoic acid; phases: Liquid, Crystal
Fixed: Pressure, kPa = 101
Property: Mass density, kg/m3 (Liquid); method: Pycnometric method
Temperature, K	Mass fraction of 2-nitrobenzoic acid	Mass density, kg/m3	uncertainty
283.15	0	795.3	10
283.15	0.106	832	10
283.15	0.1628	863.5	10
283.15	0.1887	865.2	10
283.15	0.2917	922.4	10
283.15	0.3369	940.5	10
283.15	0.3806	969.2	10
313.15	0	815.4	10
313.15	0.1136	849	10
313.15	0.2079	898.7	10
313.15	0.2954	934.9	10
313.15	0.3703	969.8	10
313.15	0.4609	1018.6	10

System: 4-nitrobenzoic acid + acetone + 2-nitrobenzoic acid; phases: Liquid, Crystal
Fixed: Pressure, kPa = 101
Property: Mass density, kg/m3 (Liquid); method: Pycnometric method
Temperature, K	Mass fraction of 2-nitrobenzoic acid	Mass density, kg/m3	uncertainty
283.15	0.3879	961.5	10
283.15	0.4031	957.6	10
283.15	0.4287	953.2	10
313.15	0.4742	1043.4	10.7
313.15	0.4753	1039.6	10.7
313.15	0.485	1029.1	10
313.15	0.5119	1017.9	10

System: 4-nitrobenzoic acid + acetone + 2-nitrobenzoic acid; phases: Liquid, Crystal, Crystal
Property: Mass density, kg/m3 (Liquid); method: Pycnometric method
Temperature, K	Mass fraction of 2-nitrobenzoic acid	Mass density, kg/m3	uncertainty
283.15	0.3867	969	10
333.15	0.4726	1029	10

System: 4-nitrobenzoic acid + acetone + 2-nitrobenzoic acid; phases: Liquid, Crystal
Fixed: Pressure, kPa = 101.3
Property: Mass fraction of 4-nitrobenzoic acid (Liquid); method: Chromatography
Temperature, K	Mass fraction of 2-nitrobenzoic acid	Mass fraction of 4-nitrobenzoic acid	uncertainty
283.15	0	0.0528	0.01
283.15	0.106	0.0289	0.01
283.15	0.1628	0.0275	0.01
283.15	0.1887	0.0239	0.01
283.15	0.2917	0.0193	0.01
283.15	0.3369	0.0191	0.01
283.15	0.3806	0.017	0.01
313.15	0	0.089	0.01
313.15	0.1136	0.0742	0.01
313.15	0.2079	0.0601	0.01
313.15	0.2954	0.0494	0.01
313.15	0.3703	0.0367	0.01
313.15	0.4609	0.0361	0.01

System: 4-nitrobenzoic acid + acetone + 2-nitrobenzoic acid; phases: Liquid, Crystal
Fixed: Pressure, kPa = 101.3
Property: Mass fraction of 4-nitrobenzoic acid (Liquid); method: Chromatography
Temperature, K	Mass fraction of 2-nitrobenzoic acid	Mass fraction of 4-nitrobenzoic acid	uncertainty
283.15	0.3879	0.0148	0.002
283.15	0.4031	0.008	0.002
283.15	0.4287	0	0.01
313.15	0.4742	0.0286	0.0091
313.15	0.4753	0.0198	0.0092
313.15	0.485	0.0084	0.0021
313.15	0.5119	0	0.01

System: 4-nitrobenzoic acid + acetone + 2-nitrobenzoic acid; phases: Liquid, Crystal, Crystal
Property: Mass fraction of 4-nitrobenzoic acid (Liquid); method: Chromatography
Temperature, K	Mass fraction of 2-nitrobenzoic acid	Mass fraction of 4-nitrobenzoic acid	uncertainty
283.15	0.3867	0.0168	0.002
313.15	0.4726	0.031	0.002
