Measured thermophysical data. Excess molar enthalpies for binary carbon dioxide + diethyl carbonate system at 298.15 - 308.15K and 5.0 - 6.5MPa
Source: Fluid Phase Equilib., 2005, 10.1016/j.fluid.2005.05.029
Compound 1: carbon dioxide, CO2, InChI=1S/CO2/c2-1-3
Compound 2: diethyl carbonate, C5H10O3, InChI=1S/C5H10O3/c1-3-7-5(6)8-4-2/h3-4H2,1-2H3

System: diethyl carbonate + carbon dioxide; phases: Liquid
Property: Excess molar enthalpy (molar enthalpy of mixing), kJ/mol (Liquid); method: Flow calorimetry
Temperature, K	Pressure, kPa	Mole fraction of carbon dioxide	Excess molar enthalpy (molar enthalpy of mixing), kJ/mol	uncertainty
298.15	5000	0.2074	-2.384	0.051
298.15	5000	0.2936	-3.414	0.073
298.15	5000	0.3706	-4.299	0.091
298.15	5000	0.4398	-5.086	0.108
298.15	5000	0.5023	-5.85	0.124
298.15	5000	0.5591	-6.397	0.136
298.15	5000	0.6109	-6.894	0.146
298.15	5000	0.6583	-7.46	0.158
298.15	5000	0.7019	-7.89	0.168
298.15	5000	0.7421	-8.24	0.175
298.15	5000	0.7794	-8.556	0.182
298.15	5000	0.8139	-8.788	0.187
298.15	5000	0.846	-8.973	0.191
298.15	5000	0.8522	-8.67	0.184
298.15	5000	0.876	-7.377	0.157
298.15	5000	0.904	-5.673	0.121
298.15	5000	0.9303	-4.174	0.089
298.15	5000	0.9549	-2.668	0.057
298.15	5000	0.9781	-1.29	0.028
298.15	5500	0.111	-1.256	0.027
298.15	5500	0.2086	-2.388	0.051
298.15	5500	0.2951	-3.366	0.072
298.15	5500	0.3723	-4.161	0.089
298.15	5500	0.4416	-4.847	0.103
298.15	5500	0.5041	-5.538	0.118
298.15	5500	0.5609	-6.032	0.128
298.15	5500	0.66	-7.019	0.149
298.15	5500	0.7035	-7.326	0.156
298.15	5500	0.7436	-7.68	0.163
298.15	5500	0.7806	-7.988	0.17
298.15	5500	0.815	-8.213	0.174
298.15	5500	0.847	-8.392	0.178
298.15	5500	0.8768	-8.516	0.181
298.15	5500	0.9047	-8.652	0.184
298.15	5500	0.91	-8.655	0.184
298.15	5500	0.9153	-8.536	0.181
298.15	5500	0.9205	-8.138	0.173
298.15	5500	0.9308	-7.089	0.151
298.15	5500	0.9553	-4.498	0.096
298.15	5500	0.9783	-2.084	0.044
303.15	5000	0.1103	-1.252	0.027
303.15	5000	0.2074	-2.413	0.051
303.15	5000	0.2936	-3.409	0.073
303.15	5000	0.3706	-4.417	0.094
303.15	5000	0.4398	-5.189	0.11
303.15	5000	0.5023	-5.85	0.124
303.15	5000	0.5591	-6.491	0.138
303.15	5000	0.6109	-7.004	0.149
303.15	5000	0.6583	-7.509	0.16
303.15	5000	0.7019	-7.903	0.168
303.15	5000	0.7421	-8.264	0.176
303.15	5000	0.7794	-8.483	0.18
303.15	5000	0.7935	-8.562	0.182
303.15	5000	0.8004	-8.295	0.176
303.15	5000	0.8139	-7.772	0.165
303.15	5000	0.846	-6.335	0.135
303.15	5000	0.876	-5.078	0.108
303.15	5000	0.904	-3.859	0.082
303.15	5000	0.9303	-3.022	0.064
303.15	5000	0.9549	-1.837	0.039
303.15	5000	0.9781	-0.87	0.019
303.15	5500	0.111	-1.27	0.027
303.15	5500	0.2086	-2.401	0.051
303.15	5500	0.2951	-3.355	0.071
303.15	5500	0.3723	-4.193	0.089
303.15	5500	0.4416	-4.906	0.104
303.15	5500	0.5041	-5.54	0.118
303.15	5500	0.5609	-6.112	0.13
303.15	5500	0.6126	-6.678	0.142
303.15	5500	0.66	-7.16	0.152
303.15	5500	0.7035	-7.483	0.159
303.15	5500	0.7436	-7.762	0.165
303.15	5500	0.7806	-8.1	0.172
303.15	5500	0.815	-8.398	0.178
303.15	5500	0.8281	-8.498	0.181
303.15	5500	0.8345	-8.508	0.181
303.15	5500	0.8408	-8.502	0.181
303.15	5500	0.847	-8.056	0.171
303.15	5500	0.8768	-6.357	0.135
303.15	5500	0.9047	-5.053	0.107
303.15	5500	0.9308	-3.659	0.078
303.15	5500	0.9553	-2.361	0.05
303.15	5500	0.9783	-1.107	0.024
308.15	5000	0.1103	-1.401	0.03
308.15	5000	0.2074	-2.623	0.056
308.15	5000	0.2936	-3.484	0.074
308.15	5000	0.3706	-4.442	0.094
308.15	5000	0.4398	-5.208	0.111
308.15	5000	0.5023	-5.879	0.125
308.15	5000	0.6109	-7.05	0.15
308.15	5000	0.6583	-7.536	0.16
308.15	5000	0.7019	-7.952	0.169
308.15	5000	0.7184	-8.125	0.173
308.15	5000	0.7264	-8.14	0.173
308.15	5000	0.7343	-7.748	0.165
308.15	5000	0.7421	-7.583	0.161
308.15	5000	0.7794	-6.424	0.137
308.15	5000	0.846	-4.456	0.095
308.15	5000	0.904	-2.72	0.058
308.15	5000	0.9549	-1.242	0.027
308.15	5000	0.9957	-0.019	0.016
308.15	5500	0.111	-1.275	0.027
308.15	5500	0.2086	-2.423	0.052
308.15	5500	0.3723	-4.271	0.091
308.15	5500	0.5041	-5.732	0.122
308.15	5500	0.6126	-6.872	0.146
308.15	5500	0.66	-7.318	0.155
308.15	5500	0.7035	-7.701	0.164
308.15	5500	0.7199	-7.836	0.166
308.15	5500	0.7436	-8.029	0.171
308.15	5500	0.7587	-8.149	0.173
308.15	5500	0.7661	-8.173	0.174
308.15	5500	0.7734	-8.228	0.175
308.15	5500	0.7806	-8.16	0.173
308.15	5500	0.7947	-7.595	0.161
308.15	5500	0.815	-6.868	0.146
308.15	5500	0.847	-5.694	0.121
308.15	5500	0.9047	-3.518	0.075
308.15	5500	0.9553	-1.655	0.035
308.15	6000	0.2097	-2.35	0.05
308.15	6000	0.2965	-3.256	0.069
308.15	6000	0.3739	-4.158	0.088
308.15	6000	0.4433	-4.91	0.104
308.15	6000	0.5058	-5.527	0.117
308.15	6000	0.5626	-6.051	0.129
308.15	6000	0.6142	-6.585	0.14
308.15	6000	0.6615	-6.966	0.148
308.15	6000	0.7049	-7.362	0.156
308.15	6000	0.7448	-7.673	0.163
308.15	6000	0.7818	-7.946	0.169
308.15	6000	0.7958	-8.029	0.171
308.15	6000	0.816	-8.133	0.173
308.15	6000	0.829	-8.155	0.173
308.15	6000	0.8354	-7.989	0.17
308.15	6000	0.8479	-7.377	0.157
308.15	6000	0.9052	-4.559	0.097
308.15	6000	0.9555	-2.096	0.045
308.15	6500	0.1123	-1.174	0.025
308.15	6500	0.2108	-2.244	0.048
308.15	6500	0.2978	-3.144	0.067
308.15	6500	0.3753	-4.067	0.087
308.15	6500	0.4448	-4.59	0.098
308.15	6500	0.5074	-5.241	0.111
308.15	6500	0.5641	-5.746	0.122
308.15	6500	0.6157	-6.147	0.131
308.15	6500	0.6629	-6.622	0.141
308.15	6500	0.7062	-6.973	0.148
308.15	6500	0.746	-7.229	0.154
308.15	6500	0.7828	-7.38	0.157
308.15	6500	0.817	-7.548	0.16
308.15	6500	0.8487	-7.642	0.162
308.15	6500	0.8782	-7.602	0.162
308.15	6500	0.895	-7.102	0.151
308.15	6500	0.9058	-6.519	0.139
308.15	6500	0.9215	-5.321	0.113
308.15	6500	0.9316	-4.708	0.1
308.15	6500	0.9415	-4.127	0.088
308.15	6500	0.9558	-2.888	0.062
308.15	6500	0.9786	-1.378	0.03
308.15	6500	0.9916	-0.465	0.017
