Measured thermophysical data. Solid liquid equilibria of acenaphthene with o-, m-, or p-dichlorobenzene
Source: Fluid Phase Equilib., 2010, 10.1016/j.fluid.2009.12.013
Compound 1: 1,2-dichlorobenzene, C6H4Cl2, InChI=1S/C6H4Cl2/c7-5-3-1-2-4-6(5)8/h1-4H, purity 99.5%
Compound 2: 1,4-dichlorobenzene, C6H4Cl2, InChI=1S/C6H4Cl2/c7-5-1-2-6(8)4-3-5/h1-4H, purity 99.5%
Compound 3: acenaphthene, C12H10, InChI=1S/C12H10/c1-3-9-4-2-6-11-8-7-10(5-1)12(9)11/h1-6H,7-8H2, purity 99.5%
Compound 4: 1,3-dichlorobenzene, C6H4Cl2, InChI=1S/C6H4Cl2/c7-5-2-1-3-6(8)4-5/h1-4H, purity 99.5%

System: 1,2-dichlorobenzene; phases: Crystal, Liquid, Air at 1 atmosphere
Property: Molar enthalpy of transition or fusion, kJ/mol (Crystal); method: DSC
Molar enthalpy of transition or fusion, kJ/mol	uncertainty
13.094	0.856

System: 1,2-dichlorobenzene; phases: Crystal, Liquid, Air at 1 atmosphere
Property: Normal melting temperature, K (Crystal); method: DTA
Normal melting temperature, K	uncertainty
255.85	0.53

System: 1,4-dichlorobenzene; phases: Crystal, Liquid, Air at 1 atmosphere
Property: Molar enthalpy of transition or fusion, kJ/mol (Crystal); method: DSC
Molar enthalpy of transition or fusion, kJ/mol	uncertainty
18.082	0.891

System: 1,4-dichlorobenzene; phases: Crystal, Liquid, Air at 1 atmosphere
Property: Normal melting temperature, K (Crystal); method: DTA
Normal melting temperature, K	uncertainty
326.15	0.53

System: acenaphthene; phases: Crystal, Liquid, Air at 1 atmosphere
Property: Molar enthalpy of transition or fusion, kJ/mol (Crystal); method: DSC
Molar enthalpy of transition or fusion, kJ/mol	uncertainty
21.48	0.92

System: acenaphthene; phases: Crystal, Liquid, Air at 1 atmosphere
Property: Normal melting temperature, K (Crystal); method: DTA
Normal melting temperature, K	uncertainty
366.35	0.53

System: 1,3-dichlorobenzene; phases: Crystal, Liquid, Air at 1 atmosphere
Property: Molar enthalpy of transition or fusion, kJ/mol (Crystal); method: DSC
Molar enthalpy of transition or fusion, kJ/mol	uncertainty
12.51	0.85

System: 1,3-dichlorobenzene; phases: Crystal, Liquid, Air at 1 atmosphere
Property: Normal melting temperature, K (Crystal); method: DTA
Normal melting temperature, K	uncertainty
248.25	0.53

System: acenaphthene + 1,2-dichlorobenzene; phases: Crystal, Crystal, Liquid, Air at 1 atmosphere
Property: Eutectic temperature, K (Crystal); method: Derived from phase diagram analysis
Eutectic temperature, K	uncertainty
254.95	0.4

System: acenaphthene + 1,2-dichlorobenzene; phases: Crystal, Crystal, Liquid, Air at 1 atmosphere
Property: Eutectic composition: mole fraction of acenaphthene (Crystal); method: Derived from phase diagram analysis
Eutectic composition: mole fraction of acenaphthene	uncertainty
0.0334	0.002

System: acenaphthene + 1,2-dichlorobenzene; phases: Liquid, Crystal
Fixed: Pressure, kPa = 101.3
Property: Solid-liquid equilibrium temperature, K (Liquid); method: DTA
Mole fraction of acenaphthene	Solid-liquid equilibrium temperature, K	uncertainty
0.08	272.15	0.58
0.1185	283.45	0.59
0.1605	292.85	0.57
0.2192	303.05	0.56
0.2658	309.65	0.55
0.3258	316.75	0.55
0.3768	322.55	0.54
0.4136	326.25	0.54
0.4554	330.25	0.54
0.5026	334.55	0.54
0.5476	337.85	0.54
0.5932	341.65	0.54
0.67	346.95	0.54
0.7052	349.45	0.54
0.7675	353.25	0.54
0.8154	356.25	0.54
0.8647	359.15	0.54
0.918	362.15	0.54
0.9673	364.75	0.54
1	366.35	0.53

System: acenaphthene + 1,3-dichlorobenzene; phases: Crystal, Crystal, Liquid, Air at 1 atmosphere
Property: Eutectic temperature, K (Crystal); method: Derived from phase diagram analysis
Eutectic temperature, K	uncertainty
246.15	0.4

System: acenaphthene + 1,3-dichlorobenzene; phases: Crystal, Crystal, Liquid, Air at 1 atmosphere
Property: Eutectic composition: mole fraction of acenaphthene (Crystal); method: Derived from phase diagram analysis
Eutectic composition: mole fraction of acenaphthene	uncertainty
0.046	0.002

System: acenaphthene + 1,3-dichlorobenzene; phases: Liquid, Crystal
Fixed: Pressure, kPa = 101.3
Property: Solid-liquid equilibrium temperature, K (Liquid); method: DTA
Mole fraction of acenaphthene	Solid-liquid equilibrium temperature, K	uncertainty
0.0691	260.05	0.58
0.1168	275.95	0.62
0.15	286.15	0.58
0.2193	298.55	0.56
0.2638	305.25	0.56
0.3038	311.65	0.55
0.3413	315.65	0.55
0.4067	323.05	0.54
0.4588	327.95	0.54
0.5072	332.65	0.54
0.5593	337.15	0.54
0.6129	341.65	0.54
0.6563	345.15	0.54
0.706	348.55	0.54
0.7403	350.85	0.54
0.7725	352.85	0.54
0.8076	355.35	0.54
0.8403	357.25	0.54
0.8773	359.55	0.54
0.9182	361.75	0.54
0.9675	364.55	0.54
1	366.35	0.53

System: acenaphthene + 1,4-dichlorobenzene; phases: Crystal, Crystal, Liquid, Air at 1 atmosphere
Property: Eutectic temperature, K (Crystal); method: Derived from phase diagram analysis
Eutectic temperature, K	uncertainty
307.75	0.4

System: acenaphthene + 1,4-dichlorobenzene; phases: Crystal, Crystal, Liquid, Air at 1 atmosphere
Property: Eutectic composition: mole fraction of acenaphthene (Crystal); method: Derived from phase diagram analysis
Eutectic composition: mole fraction of acenaphthene	uncertainty
0.294	0.0029

System: acenaphthene + 1,4-dichlorobenzene; phases: Liquid, Crystal
Fixed: Pressure, kPa = 101.3
Property: Solid-liquid equilibrium temperature, K (Liquid); method: DTA
Mole fraction of acenaphthene	Solid-liquid equilibrium temperature, K	uncertainty
0.3411	312.65	0.54
0.4252	320.35	0.55
0.4455	323.35	0.55
0.5075	330.65	0.54
0.5432	333.85	0.54
0.561	335.75	0.54
0.6018	339.25	0.54
0.6551	343.35	0.54
0.7149	348.15	0.54
0.7525	350.75	0.54
0.818	355.15	0.54
0.8602	357.85	0.54
0.8881	359.75	0.54
0.952	363.55	0.54
1	366.35	0.53

System: acenaphthene + 1,4-dichlorobenzene; phases: Liquid, Crystal
Fixed: Pressure, kPa = 101.3
Property: Solid-liquid equilibrium temperature, K (Liquid); method: DTA
Mole fraction of acenaphthene	Solid-liquid equilibrium temperature, K	uncertainty
0	326.15	0.53
0.0572	323.25	0.54
0.1063	320.25	0.54
0.1551	316.95	0.54
0.194	314.35	0.54
0.243	310.95	0.54
0.2942	307.85	0.53
