Measured thermophysical data. Measurement of vapor liquid equilibria for the binary systems of propane + 1,1,1,2-tetrafluoroethane and 1,1,1-trifluoroethane + propane at various temperatures
Source: Fluid Phase Equilib., 2006, 10.1016/j.fluid.2006.02.016
Compound 1: 1,1,1,2-tetrafluoroethane, C2H2F4, InChI=1S/C2H2F4/c3-1-2(4,5)6/h1H2, purity 99.8%
Compound 2: 1,1,1-trifluoroethane, C2H3F3, InChI=1S/C2H3F3/c1-2(3,4)5/h1H3, purity 99.8%
Compound 3: propane, C3H8, InChI=1S/C3H8/c1-3-2/h3H2,1-2H3, purity 99.5%

System: 1,1,1,2-tetrafluoroethane; phases: Liquid, Gas
Property: Vapor or sublimation pressure, kPa (Liquid); method: EBULLIO:UFactor:64
Temperature, K	Vapor or sublimation pressure, kPa	uncertainty
273.15	294.2	2.5
283.15	416.9	3.3
293.15	571.9	4.3
303.15	770.4	5.6
313.15	1012.8	7.1
323.15	1313.8	9.1

System: 1,1,1-trifluoroethane; phases: Liquid, Gas
Property: Vapor or sublimation pressure, kPa (Liquid); method: EBULLIO:UFactor:64
Temperature, K	Vapor or sublimation pressure, kPa	uncertainty
268.15	529.2	4
278.15	722.4	5.3
288.15	962	6.8
298.15	1261.8	8.7
308.15	1619.8	11
318.15	2055.2	13.8

System: propane; phases: Liquid, Gas
Property: Vapor or sublimation pressure, kPa (Liquid); method: EBULLIO:UFactor:64
Temperature, K	Vapor or sublimation pressure, kPa	uncertainty
268.15	407.9	3.3
273.15	474.6	3.7
278.15	549.4	4.2
283.15	636.6	4.7
288.15	735	5.4
293.15	836.2	6
298.15	954.8	6.8
303.15	1078.4	7.6
308.15	1213	8.4
313.15	1363.8	9.4
313.15	1369	11.8
318.15	1530.8	10.5
323.15	1709.2	11.6

System: propane + 1,1,1,2-tetrafluoroethane; phases: Gas, Liquid
Property: Vapor or sublimation pressure, kPa (Gas); method: EBULLIO:UFactor:8
Mole fraction of propane	Temperature, K	Vapor or sublimation pressure, kPa	uncertainty
0	273.15	294.2	3.2
0	283.15	416.9	4.1
0	293.15	571.9	5.4
0	303.15	770.4	7
0	313.15	1012.8	8.9
0	323.15	1313.8	11.3
0.1421	323.15	1510.2	12.9
0.1492	313.15	1183.6	10.3
0.1812	293.15	702.4	6.4
0.2316	303.15	983.4	8.7
0.2625	323.15	1719.4	14.6
0.3084	313.15	1399.6	12
0.312	293.15	812.8	7.3
0.3486	283.15	622.2	5.8
0.3596	273.15	450.3	4.4
0.3775	323.15	1923	16.2
0.3863	303.15	1161	10.1
0.4176	293.15	911	8.1
0.4204	313.15	1559	13.3
0.4896	323.15	2064	17.4
0.4924	303.15	1281.4	11.1
0.511	273.15	537	5.1
0.5273	313.15	1689.2	14.4
0.5494	283.15	764.2	7
0.5632	323.15	2116.6	17.8
0.5739	313.15	1716	14.6
0.5757	323.15	2123.4	17.9
0.5816	303.15	1343	11.6
0.5846	293.15	1033	9.1
0.5904	323.15	2128.9	17.9
0.5964	273.15	584	5.5
0.5978	313.15	1724.2	14.7
0.6098	293.15	1047.4	9.2
0.6109	323.15	2128	17.9
0.6114	303.15	1356.8	11.7
0.6141	293.15	1052.4	9.3
0.6232	313.15	1722	14.7
0.6239	303.15	1355.2	11.7
0.6406	273.15	593	5.6
0.6408	283.15	794.2	7.2
0.6413	273.15	592	5.6
0.6473	273.15	594.7	5.6
0.6701	283.15	792.2	7.2
0.6716	273.15	591.1	5.6
0.6758	303.15	1357.2	11.7
0.6871	323.15	2098.6	17.7
0.696	313.15	1695.8	14.5
0.7014	273.15	587.4	5.5
0.7053	293.15	1023.6	9.1
0.7783	283.15	755.6	6.9
0.7801	313.15	1628.6	13.9
0.8122	323.15	1954.8	16.5
0.8162	273.15	546.3	5.2
0.8332	293.15	957	8.5
0.8388	303.15	1236.6	10.8
0.8639	313.15	1535.6	13.2
0.8659	283.15	716.2	6.6
0.9227	293.15	893.8	8
0.9285	303.15	1157	10.1
0.9676	293.15	863.6	7.8
1	273.15	474.6	4.6
1	283.15	636.6	5.9
1	293.15	836.2	7.5
1	303.15	1078.4	9.5
1	313.15	1369	11.8
1	323.15	1709.2	14.6

System: propane + 1,1,1,2-tetrafluoroethane; phases: Liquid, Gas
Property: Mole fraction of propane (Liquid); method: CHROM:UFactor:8
Mole fraction of propane	Temperature, K	Mole fraction of propane	uncertainty
0	273.15	0	0.0001
0	283.15	0	0.0001
0	293.15	0	0.0001
0	303.15	0	0.0001
0	313.15	0	0.0001
0	323.15	0	0.0001
0.1421	323.15	0.0577	0.0046
0.1492	313.15	0.0505	0.004
0.1812	293.15	0.049	0.0039
0.2316	303.15	0.085	0.0068
0.2625	323.15	0.1347	0.0108
0.3084	313.15	0.1466	0.0117
0.312	293.15	0.1176	0.0094
0.3486	283.15	0.1153	0.0092
0.3596	273.15	0.0991	0.0079
0.3775	323.15	0.25	0.02
0.3863	303.15	0.2156	0.0172
0.4176	293.15	0.2153	0.0172
0.4204	313.15	0.2747	0.022
0.4896	323.15	0.4144	0.0332
0.4924	303.15	0.356	0.0285
0.511	273.15	0.2357	0.0189
0.5273	313.15	0.4511	0.0361
0.5494	283.15	0.3736	0.0299
0.5632	323.15	0.5421	0.0366
0.5739	313.15	0.5427	0.0366
0.5757	323.15	0.5639	0.0349
0.5816	303.15	0.5389	0.0369
0.5846	293.15	0.5015	0.0399
0.5904	323.15	0.5893	0.0329
0.5964	273.15	0.4868	0.039
0.5978	313.15	0.5904	0.0328
0.6098	293.15	0.5705	0.0344
0.6109	323.15	0.6238	0.0301
0.6114	303.15	0.6045	0.0317
0.6141	293.15	0.5836	0.0333
0.6232	313.15	0.6384	0.0289
0.6239	303.15	0.6305	0.0296
0.6406	273.15	0.5687	0.0345
0.6408	283.15	0.6302	0.0296
0.6413	273.15	0.5817	0.0335
0.6473	273.15	0.6542	0.0277
0.6701	283.15	0.7439	0.0205
0.6716	273.15	0.7048	0.0236
0.6758	303.15	0.7292	0.0217
0.6871	323.15	0.7429	0.0206
0.696	313.15	0.7588	0.0193
0.7014	273.15	0.773	0.0182
0.7053	293.15	0.7844	0.0173
0.7783	283.15	0.8816	0.0095
0.7801	313.15	0.8604	0.0112
0.8122	323.15	0.8807	0.0096
0.8162	273.15	0.9149	0.0068
0.8332	293.15	0.9232	0.0062
0.8388	303.15	0.9175	0.0066
0.8639	313.15	0.9293	0.0057
0.8659	283.15	0.9445	0.0044
0.9227	293.15	0.9705	0.0024
0.9285	303.15	0.9707	0.0023
0.9676	293.15	0.9897	0.0008
1	273.15	1	0.0001
1	283.15	1	0.0001
1	293.15	1	0.0001
1	303.15	1	0.0001
1	313.15	1	0.0001
1	323.15	1	0.0001

System: propane + 1,1,1-trifluoroethane; phases: Gas, Liquid
Property: Vapor or sublimation pressure, kPa (Gas); method: EBULLIO:UFactor:8
Mole fraction of 1,1,1-trifluoroethane	Temperature, K	Vapor or sublimation pressure, kPa	uncertainty
0	268.15	407.9	4.1
0	278.15	549.4	5.2
0	288.15	735	6.7
0	298.15	954.8	8.5
0	308.15	1213	10.6
0	318.15	1530.8	13.2
0.299	318.15	1974.4	16.7
0.323	308.15	1599	13.7
0.352	298.15	1284.8	11.1
0.358	268.15	576.7	5.4
0.36	278.15	767.4	7
0.364	288.15	1012.6	9
0.474	288.15	1089	9.6
0.476	298.15	1400.4	12.1
0.477	308.15	1774.6	15.1
0.483	268.15	621.6	5.8
0.483	318.15	2229.6	18.7
0.494	278.15	834	7.5
0.578	288.15	1132.2	9.9
0.58	268.15	637.6	5.9
0.589	278.15	859	7.7
0.611	308.15	1844.6	15.6
0.618	298.15	1455.4	12.5
0.622	318.15	2312.4	19.4
0.626	278.15	861.4	7.7
0.627	288.15	1132.2	9.9
0.638	268.15	638.2	5.9
0.645	298.15	1456.6	12.5
0.656	308.15	1843.2	15.6
0.742	318.15	2288.8	19.2
0.86	308.15	1741.4	14.8
0.877	278.15	779.4	7.1
0.879	318.15	2182.2	18.3
0.886	298.15	1341.8	11.6
0.889	288.15	1030.8	9.1
0.93	268.15	554.9	5.3
1	268.15	529.2	5.1
1	278.15	722.4	6.6
1	288.15	962	8.5
1	298.15	1261.8	10.9
1	308.15	1619.8	13.8
1	318.15	2055.2	17.3

System: propane + 1,1,1-trifluoroethane; phases: Liquid, Gas
Property: Mole fraction of 1,1,1-trifluoroethane (Liquid); method: CHROM:UFactor:4
Mole fraction of 1,1,1-trifluoroethane	Temperature, K	Mole fraction of 1,1,1-trifluoroethane	uncertainty
0	268.15	0	0.0001
0	278.15	0	0.0001
0	288.15	0	0.0001
0	298.15	0	0.0001
0	308.15	0	0.0001
0	318.15	0	0.0001
0.299	318.15	0.183	0.0073
0.323	308.15	0.193	0.0077
0.352	298.15	0.212	0.0085
0.358	268.15	0.2	0.008
0.36	278.15	0.2	0.008
0.364	288.15	0.215	0.0086
0.474	288.15	0.371	0.0148
0.476	298.15	0.38	0.0152
0.477	308.15	0.39	0.0156
0.483	268.15	0.373	0.0149
0.483	318.15	0.406	0.0163
0.494	278.15	0.389	0.0156
0.578	288.15	0.55	0.018
0.58	268.15	0.542	0.0183
0.589	278.15	0.568	0.0173
0.611	308.15	0.597	0.0161
0.618	298.15	0.613	0.0155
0.622	318.15	0.607	0.0157
0.626	278.15	0.642	0.0143
0.627	288.15	0.631	0.0148
0.638	268.15	0.66	0.0136
0.645	298.15	0.648	0.0141
0.656	308.15	0.657	0.0137
0.742	318.15	0.76	0.0096
0.86	308.15	0.891	0.0044
0.877	278.15	0.922	0.0031
0.879	318.15	0.906	0.0038
0.886	298.15	0.924	0.003
0.889	288.15	0.928	0.0029
0.93	268.15	0.964	0.0014
1	268.15	1	0.0001
1	278.15	1	0.0001
1	288.15	1	0.0001
1	298.15	1	0.0001
1	308.15	1	0.0001
1	318.15	1	0.0001
