Measured thermophysical data. Excess molar volumes and excess molar enthalpies in binary systems N-alkyl-triethylammonium bis(trifluoromethylsulfonyl)imide +methanol
Source: Fluid Phase Equilib., 2014, 10.1016/j.fluid.2013.11.025
Compound 1: triethylhexylammonium bis((trifluoromethyl)sulfonyl)imide, C14H28F6N2O4S2, InChI=1S/C12H28N.C2F6NO4S2/c1-5-9-10-11-12-13(6-2,7-3)8-4;3-1(4,5)14(10,11)9-15(12,13)2(6,7)8/h5-12H2,1-4H3;/q+1;-1
Compound 2: triethyloctylammonium bis[(trifluoromethyl)sulfonyl]imide, C16H32F6N2O4S2, InChI=1S/C14H32N.C2F6NO4S2/c1-5-9-10-11-12-13-14-15(6-2,7-3)8-4;3-1(4,5)14(10,11)9-15(12,13)2(6,7)8/h5-14H2,1-4H3;/q+1;-1
Compound 3: N,N,N-triethyldodecan-1-aminium bis((trifluoromethyl)sulfonyl)amide, C20H40F6N2O4S2, InChI=1S/C18H40N.C2F6NO4S2/c1-5-9-10-11-12-13-14-15-16-17-18-19(6-2,7-3)8-4;3-1(4,5)14(10,11)9-15(12,13)2(6,7)8/h5-18H2,1-4H3;/q+1;-1
Compound 4: methanol, CH4O, InChI=1S/CH4O/c1-2/h2H,1H3, purity 99.8%

System: triethylhexylammonium bis((trifluoromethyl)sulfonyl)imide; phases: Liquid
Property: Refractive index (Na D-line) (Liquid); method: Standard Abbe refractometry
Temperature, K	Pressure, kPa	Refractive index (Na D-line)	uncertainty
298.15	101.325	1.42567	0.00068

System: triethylhexylammonium bis((trifluoromethyl)sulfonyl)imide; phases: Liquid
Fixed: Pressure, kPa = 101.325
Property: Mass density, kg/m3 (Liquid); method: Vibrating tube method
Temperature, K	Mass density, kg/m3	uncertainty
283.15	1301.47	0.29
288.15	1297.2	0.29
293.15	1292.91	0.29
298.15	1288.66	0.29
303.15	1284.52	0.29
308.15	1280.38	0.29
313.15	1276.23	0.29
318.15	1272.08	0.29
323.15	1267.94	0.28
328.15	1263.81	0.28
333.15	1259.69	0.28
338.15	1255.58	0.28
343.15	1251.48	0.28
348.15	1247.39	0.28
353.15	1243.3	0.28
358.15	1239.23	0.28
363.15	1235.16	0.27

System: triethylhexylammonium bis((trifluoromethyl)sulfonyl)imide; phases: Liquid
Fixed: Temperature, K = 298.15
Property: Mass density, kg/m3 (Liquid); method: Vibrating tube method
Pressure, kPa	Mass density, kg/m3	uncertainty
101.2	1289.7	2
500	1289.9	2
1000	1290.3	2
2000	1290.9	2

System: triethyloctylammonium bis[(trifluoromethyl)sulfonyl]imide; phases: Liquid
Property: Refractive index (Na D-line) (Liquid); method: Standard Abbe refractometry
Temperature, K	Pressure, kPa	Refractive index (Na D-line)	uncertainty
298.15	101.325	1.42903	0.00068

System: triethyloctylammonium bis[(trifluoromethyl)sulfonyl]imide; phases: Liquid
Fixed: Pressure, kPa = 101.325
Property: Mass density, kg/m3 (Liquid); method: Vibrating tube method
Temperature, K	Mass density, kg/m3	uncertainty
283.15	1261.7	0.28
288.15	1257.55	0.28
293.15	1253.4	0.28
298.15	1249.24	0.28
303.15	1245.17	0.28
308.15	1241.14	0.27
313.15	1237.11	0.27
318.15	1233.08	0.27
323.15	1229.05	0.27
328.15	1225.03	0.27
333.15	1221.02	0.27
338.15	1217.02	0.27
343.15	1213.03	0.27
348.15	1209.04	0.27
353.15	1205.06	0.26
358.15	1201.09	0.26
363.15	1197.13	0.26

System: triethyloctylammonium bis[(trifluoromethyl)sulfonyl]imide; phases: Liquid
Fixed: Temperature, K = 298.15
Property: Mass density, kg/m3 (Liquid); method: Vibrating tube method
Pressure, kPa	Mass density, kg/m3	uncertainty
101.2	1250.3	2
500	1250.6	2
1000	1250.9	2
2000	1251.6	2

System: N,N,N-triethyldodecan-1-aminium bis((trifluoromethyl)sulfonyl)amide; phases: Liquid
Property: Refractive index (Na D-line) (Liquid); method: Standard Abbe refractometry
Temperature, K	Pressure, kPa	Refractive index (Na D-line)	uncertainty
298.15	101.325	1.43454	0.00068

System: N,N,N-triethyldodecan-1-aminium bis((trifluoromethyl)sulfonyl)amide; phases: Liquid
Fixed: Pressure, kPa = 101.325
Property: Mass density, kg/m3 (Liquid); method: Vibrating tube method
Temperature, K	Mass density, kg/m3	uncertainty
283.15	1199.67	0.26
288.15	1195.68	0.26
293.15	1191.69	0.26
298.15	1187.7	0.26
303.15	1183.71	0.26
308.15	1179.75	0.26
313.15	1175.87	0.26
318.15	1171.99	0.25
323.15	1168.11	0.25
328.15	1164.25	0.25
333.15	1160.38	0.25
338.15	1156.52	0.25
343.15	1152.67	0.25
348.15	1148.82	0.25
353.15	1144.98	0.25
358.15	1141.15	0.25
363.15	1137.33	0.25

System: N,N,N-triethyldodecan-1-aminium bis((trifluoromethyl)sulfonyl)amide; phases: Liquid
Fixed: Temperature, K = 298.15
Property: Mass density, kg/m3 (Liquid); method: Vibrating tube method
Pressure, kPa	Mass density, kg/m3	uncertainty
101.2	1189.1	2
500	1189.4	2
1000	1189.7	2
2000	1190.3	2

System: methanol; phases: Liquid
Property: Refractive index (Na D-line) (Liquid); method: Standard Abbe refractometry
Temperature, K	Pressure, kPa	Refractive index (Na D-line)	uncertainty
298.15	101.325	1.3264	0.0007

System: methanol; phases: Liquid
Fixed: Pressure, kPa = 101.325
Property: Mass density, kg/m3 (Liquid); method: Vibrating tube method
Temperature, K	Mass density, kg/m3	uncertainty
283.15	800.99	0.23
288.15	796.25	0.23
293.15	791.52	0.23
298.15	786.78	0.23
303.15	782.02	0.23
308.15	777.24	0.23
313.15	772.43	0.24
318.15	767.59	0.24
323.15	762.71	0.24
328.15	757.79	0.24
333.15	752.82	0.24
338.15	747.79	0.24

System: methanol + triethylhexylammonium bis((trifluoromethyl)sulfonyl)imide; phases: Liquid
Fixed: Pressure, kPa = 101
Fixed: Temperature, K = 303.15
Property: Excess molar enthalpy (molar enthalpy of mixing), kJ/mol (Liquid); method: Calvet calorimetry
Mole fraction of triethylhexylammonium bis((trifluoromethyl)sulfonyl)imide	Excess molar enthalpy (molar enthalpy of mixing), kJ/mol	uncertainty
0.0398	0.43	0.035
0.0821	0.838	0.067
0.101	0.892	0.072
0.2135	1.575	0.127
0.3892	2.074	0.167
0.5022	2.137	0.172
0.6771	1.734	0.139
0.8417	1.068	0.086

System: methanol + triethylhexylammonium bis((trifluoromethyl)sulfonyl)imide; phases: Liquid
Fixed: Pressure, kPa = 101
Property: Mass density, kg/m3 (Liquid); method: Vibrating tube method
Temperature, K	Mole fraction of triethylhexylammonium bis((trifluoromethyl)sulfonyl)imide	Mass density, kg/m3	uncertainty
283.15	0.025	896.9	0.2
283.15	0.0983	1051.5	0.3
283.15	0.1005	1054.7	0.3
283.15	0.1994	1149.4	0.3
283.15	0.3029	1200.7	0.3
283.15	0.401	1231.3	0.3
283.15	0.5064	1253.2	0.3
283.15	0.6158	1269.1	0.3
283.15	0.7012	1278.6	0.3
283.15	0.8812	1293.8	0.3
288.15	0.025	892.1	0.2
288.15	0.0983	1046.7	0.3
288.15	0.1005	1049.9	0.3
288.15	0.1994	1144.8	0.3
288.15	0.3029	1196.1	0.3
288.15	0.401	1226.8	0.3
288.15	0.5064	1248.8	0.3
288.15	0.6158	1264.7	0.3
288.15	0.7012	1274.3	0.3
288.15	0.8812	1289.5	0.3
293.15	0.025	887.4	0.2
293.15	0.0983	1042	0.3
293.15	0.1005	1045.2	0.3
293.15	0.1994	1140.2	0.3
293.15	0.3029	1191.6	0.3
293.15	0.401	1222.4	0.3
293.15	0.5064	1244.4	0.3
293.15	0.6158	1260.4	0.3
293.15	0.7012	1270	0.3
293.15	0.8812	1285.3	0.3
298.15	0.025	882.6	0.2
298.15	0.0983	1037.3	0.3
298.15	0.1005	1040.5	0.3
298.15	0.1994	1135.6	0.3
298.15	0.3029	1187.1	0.3
298.15	0.401	1217.9	0.3
298.15	0.5064	1240	0.3
298.15	0.6158	1256.1	0.3
298.15	0.7012	1265.7	0.3
298.15	0.8812	1281.1	0.3
303.15	0.025	877.8	0.2
303.15	0.0983	1032.5	0.3
303.15	0.1005	1035.7	0.3
303.15	0.1994	1130.9	0.3
303.15	0.3029	1182.5	0.3
303.15	0.401	1213.4	0.3
303.15	0.5064	1235.6	0.3
303.15	0.6158	1251.7	0.3
303.15	0.7012	1261.4	0.3
303.15	0.8812	1276.9	0.3
308.15	0.025	873	0.2
308.15	0.0983	1027.8	0.3
308.15	0.1005	1031	0.3
308.15	0.1994	1126.3	0.3
308.15	0.3029	1178	0.3
308.15	0.401	1209	0.3
308.15	0.5064	1231.3	0.3
308.15	0.6158	1247.4	0.3
308.15	0.7012	1257.2	0.3
308.15	0.8812	1272.7	0.3
313.15	0.025	868.2	0.2
313.15	0.0983	1023	0.3
313.15	0.1005	1026.3	0.3
313.15	0.3029	1173.5	0.3
313.15	0.401	1204.5	0.3
313.15	0.5064	1226.9	0.3
313.15	0.7012	1252.9	0.3
313.15	0.8812	1268.5	0.3
313.15	0.1994	1121.7	0.3
313.15	0.6158	1243.1	0.3
318.15	0.025	863.3	0.2
318.15	0.0983	1018.3	0.3
318.15	0.1005	1021.5	0.3
318.15	0.1994	1117	0.3
318.15	0.3029	1168.9	0.3
318.15	0.401	1200.1	0.3
318.15	0.5064	1222.5	0.3
318.15	0.6158	1238.8	0.3
318.15	0.7012	1248.6	0.3
318.15	0.8812	1264.3	0.3
323.15	0.025	858.5	0.2
323.15	0.0983	1013.5	0.3
323.15	0.1005	1016.7	0.3
323.15	0.1994	1112.4	0.3
323.15	0.3029	1164.4	0.3
323.15	0.401	1195.7	0.3
323.15	0.5064	1218.2	0.3
323.15	0.6158	1234.5	0.3
323.15	0.7012	1244.4	0.3
323.15	0.8812	1260.1	0.3
328.15	0.025	853.6	0.2
328.15	0.0983	1008.7	0.3
328.15	0.1005	1011.9	0.3
328.15	0.1994	1107.8	0.3
328.15	0.3029	1159.9	0.3
328.15	0.401	1191.2	0.3
328.15	0.5064	1213.8	0.3
328.15	0.6158	1230.2	0.3
328.15	0.7012	1240.1	0.3
328.15	0.8812	1255.9	0.3
333.15	0.025	848.6	0.2
333.15	0.0983	1003.9	0.3
333.15	0.1005	1007.1	0.3
333.15	0.1994	1103.1	0.3
333.15	0.3029	1155.4	0.3
333.15	0.401	1186.8	0.3
333.15	0.5064	1209.5	0.3
333.15	0.6158	1225.9	0.3
333.15	0.7012	1235.9	0.3
333.15	0.8812	1251.8	0.3
338.15	0.025	843.6	0.2
338.15	0.0983	999.1	0.3
338.15	0.1005	1002.3	0.3
338.15	0.1994	1098.4	0.3
338.15	0.3029	1150.9	0.3
338.15	0.401	1182.4	0.3
338.15	0.5064	1205.1	0.3
338.15	0.6158	1221.6	0.3
338.15	0.7012	1231.7	0.3
338.15	0.8812	1247.6	0.3

System: methanol + triethyloctylammonium bis[(trifluoromethyl)sulfonyl]imide; phases: Liquid
Fixed: Pressure, kPa = 101
Fixed: Temperature, K = 303.15
Property: Excess molar enthalpy (molar enthalpy of mixing), kJ/mol (Liquid); method: Calvet calorimetry
Mole fraction of triethyloctylammonium bis[(trifluoromethyl)sulfonyl]imide	Excess molar enthalpy (molar enthalpy of mixing), kJ/mol	uncertainty
0.0618	0.707	0.057
0.198	1.581	0.127
0.3008	2.021	0.162
0.4002	2.118	0.17
0.4965	2.042	0.164
0.6237	1.87	0.15
0.6917	1.742	0.14
0.7898	0.986	0.079
0.9801	0.304	0.025

System: methanol + triethyloctylammonium bis[(trifluoromethyl)sulfonyl]imide; phases: Liquid
Fixed: Pressure, kPa = 101
Property: Mass density, kg/m3 (Liquid); method: Vibrating tube method
Temperature, K	Mole fraction of triethyloctylammonium bis[(trifluoromethyl)sulfonyl]imide	Mass density, kg/m3	uncertainty
283.15	0.0131	855.4	0.2
283.15	0.0999	1043.7	0.4
283.15	0.2004	1130.4	0.3
283.15	0.3	1174.2	0.3
283.15	0.4002	1201.3	0.3
283.15	0.4914	1217.9	0.3
283.15	0.6018	1232.4	0.3
283.15	0.7009	1242.2	0.3
283.15	0.7984	1249.6	0.3
283.15	0.9197	1256.9	0.3
288.15	0.0131	850.7	0.2
288.15	0.0999	1039.1	0.3
288.15	0.2004	1125.9	0.3
288.15	0.3	1169.8	0.3
288.15	0.4002	1196.9	0.3
288.15	0.4914	1213.6	0.3
288.15	0.6018	1228.2	0.3
288.15	0.7009	1238.1	0.3
288.15	0.7984	1245.3	0.3
288.15	0.9197	1252.7	0.3
293.15	0.0131	845.9	0.2
293.15	0.0999	1034.5	0.3
293.15	0.2004	1121.3	0.3
293.15	0.3	1165.4	0.3
293.15	0.4002	1192.6	0.3
293.15	0.4914	1209.3	0.3
293.15	0.6018	1224	0.3
293.15	0.7009	1233.9	0.3
293.15	0.7984	1241.2	0.3
293.15	0.9197	1248.5	0.3
298.15	0.0131	841.2	0.2
298.15	0.0999	1029.8	0.3
298.15	0.2004	1116.8	0.3
298.15	0.3	1160.9	0.3
298.15	0.4002	1188.2	0.3
298.15	0.4914	1205	0.3
298.15	0.6018	1219.8	0.3
298.15	0.7009	1229.7	0.3
298.15	0.7984	1237.1	0.3
298.15	0.9197	1244.4	0.3
303.15	0.0131	836.4	0.2
303.15	0.0999	1025.2	0.3
303.15	0.2004	1112.3	0.3
303.15	0.3	1156.5	0.3
303.15	0.4002	1183.9	0.3
303.15	0.4914	1200.7	0.3
303.15	0.6018	1215.5	0.3
303.15	0.7009	1225.6	0.3
303.15	0.7984	1233	0.3
303.15	0.9197	1240.3	0.3
308.15	0.0131	831.7	0.2
308.15	0.0999	1020.5	0.3
308.15	0.2004	1107.8	0.3
308.15	0.3	1152.1	0.3
308.15	0.4002	1179.5	0.3
308.15	0.4914	1196.4	0.3
308.15	0.6018	1211.3	0.3
308.15	0.7009	1221.4	0.3
308.15	0.7984	1228.9	0.3
308.15	0.9197	1236.3	0.3
313.15	0.0131	826.9	0.2
313.15	0.0999	1015.8	0.3
313.15	0.2004	1103.3	0.3
313.15	0.4002	1175.2	0.3
313.15	0.4914	1192.2	0.3
313.15	0.6018	1207.1	0.3
313.15	0.7984	1224.8	0.3
313.15	0.9197	1232.2	0.3
313.15	0.3	1147.7	0.3
313.15	0.7009	1217.2	0.3
318.15	0.0131	822	0.2
318.15	0.0999	1011.2	0.3
318.15	0.2004	1098.8	0.3
318.15	0.3	1143.3	0.3
318.15	0.4002	1170.9	0.3
318.15	0.4914	1187.9	0.3
318.15	0.6018	1202.9	0.3
318.15	0.7009	1213.1	0.3
318.15	0.7984	1220.7	0.3
318.15	0.9197	1228.1	0.3
323.15	0.0131	817.2	0.2
323.15	0.0999	1006.5	0.3
323.15	0.2004	1094.2	0.3
323.15	0.3	1138.9	0.3
323.15	0.4002	1166.6	0.3
323.15	0.4914	1183.6	0.3
323.15	0.6018	1198.7	0.3
323.15	0.7009	1209	0.3
323.15	0.7984	1216.6	0.3
323.15	0.9197	1224.1	0.3
328.15	0.0131	812.3	0.2
328.15	0.0999	1001.8	0.3
328.15	0.2004	1089.7	0.3
328.15	0.3	1134.5	0.3
328.15	0.4002	1162.2	0.3
328.15	0.4914	1179.4	0.3
328.15	0.6018	1194.6	0.3
328.15	0.7009	1204.8	0.3
328.15	0.7987	1212.5	0.3
328.15	0.9198	1220	0.3
333.15	0.0131	807.3	0.2
333.15	0.0999	997.1	0.3
333.15	0.2004	1085.2	0.3
333.15	0.3	1130.1	0.3
333.15	0.4002	1157.9	0.3
333.15	0.4914	1175.2	0.3
333.15	0.6018	1190.4	0.3
333.15	0.7009	1200.7	0.3
333.15	0.7984	1208.4	0.3
333.15	0.9197	1216	0.3
338.15	0.0131	802.4	0.2
338.15	0.0999	992.3	0.5
338.15	0.2004	1080.6	0.3
338.15	0.3	1125.7	0.3
338.15	0.4002	1153.6	0.3
338.15	0.4914	1170.9	0.3
338.15	0.6018	1186.2	0.3
338.15	0.7009	1196.6	0.3
338.15	0.7984	1204.3	0.3
338.15	0.9197	1212	0.3

System: methanol + N,N,N-triethyldodecan-1-aminium bis((trifluoromethyl)sulfonyl)amide; phases: Liquid
Fixed: Pressure, kPa = 101
Fixed: Temperature, K = 303.15
Property: Excess molar enthalpy (molar enthalpy of mixing), kJ/mol (Liquid); method: Calvet calorimetry
Mole fraction of N,N,N-triethyldodecan-1-aminium bis((trifluoromethyl)sulfonyl)amide	Excess molar enthalpy (molar enthalpy of mixing), kJ/mol	uncertainty
0.0555	0.691	0.056
0.1028	1.001	0.08
0.2152	1.809	0.145
0.3351	2.276	0.183
0.4405	2.246	0.18
0.5124	2.124	0.171
0.5532	2.209	0.177
0.6681	1.643	0.132
0.7516	1.208	0.097

System: methanol + N,N,N-triethyldodecan-1-aminium bis((trifluoromethyl)sulfonyl)amide; phases: Liquid
Fixed: Pressure, kPa = 101
Property: Mass density, kg/m3 (Liquid); method: Vibrating tube method
Temperature, K	Mole fraction of N,N,N-triethyldodecan-1-aminium bis((trifluoromethyl)sulfonyl)amide	Mass density, kg/m3	uncertainty
283.15	0.0108	846.8	0.2
283.15	0.0992	1025.5	0.5
283.15	0.2597	1121.6	0.3
283.15	0.4049	1154.7	0.2
283.15	0.5075	1168.6	0.2
283.15	0.5953	1177	0.2
283.15	0.7121	1185.8	0.3
283.15	0.8336	1192.4	0.3
283.15	0.9202	1196.1	0.3
283.15	0.9692	1198.2	0.3
288.15	0.0108	842.1	0.2
288.15	0.0992	1021.1	0.2
288.15	0.2597	1117.3	0.3
288.15	0.4049	1150.5	0.2
288.15	0.5075	1164.5	0.2
288.15	0.5953	1173	0.2
288.15	0.7121	1181.7	0.3
288.15	0.8336	1188.3	0.3
288.15	0.9202	1192	0.3
288.15	0.9692	1194.3	0.3
293.15	0.0108	837.4	0.2
293.15	0.0992	1016.6	0.2
293.15	0.2597	1113	0.3
293.15	0.4049	1146.3	0.2
293.15	0.5075	1160.4	0.2
293.15	0.5953	1168.9	0.2
293.15	0.7121	1177.6	0.2
293.15	0.8336	1184.3	0.3
293.15	0.9202	1188	0.3
293.15	0.9692	1190.2	0.3
298.15	0.0108	832.6	0.2
298.15	0.0992	1012.1	0.2
298.15	0.2597	1108.7	0.3
298.15	0.4049	1142.1	0.2
298.15	0.5075	1156.3	0.2
298.15	0.5953	1164.9	0.2
298.15	0.7121	1176.3	0.2
298.15	0.8336	1180.2	0.3
298.15	0.9202	1184	0.3
298.15	0.9692	1186.2	0.3
303.15	0.0108	827.9	0.2
303.15	0.0992	1007.6	0.2
303.15	0.2597	1104.4	0.3
303.15	0.4049	1138	0.2
303.15	0.5075	1152.2	0.2
303.15	0.5953	1160.8	0.2
303.15	0.7121	1169.6	0.3
303.15	0.8336	1176.3	0.3
303.15	0.9202	1180	0.3
303.15	0.9692	1182.2	0.3
308.15	0.0108	823.2	0.2
308.15	0.0992	1003.1	0.2
308.15	0.2597	1100.1	0.3
308.15	0.4049	1133.8	0.2
308.15	0.5075	1148.1	0.2
308.15	0.5953	1156.8	0.2
308.15	0.7121	1165.6	0.2
308.15	0.8336	1172.4	0.3
308.15	0.9202	1176.1	0.3
308.15	0.9692	1178.3	0.3
313.15	0.0108	818.4	0.2
313.15	0.0992	998.5	0.2
313.15	0.2597	1095.9	0.3
313.15	0.5075	1144	0.2
313.15	0.5953	1152.7	0.2
313.15	0.7121	1161.6	0.2
313.15	0.9202	1172.2	0.3
313.15	0.9692	1174.4	0.3
313.15	0.4049	1129.6	0.2
313.15	0.8336	1168.4	0.3
318.15	0.0108	813.6	0.2
318.15	0.0992	993.9	0.2
318.15	0.2597	1091.6	0.3
318.15	0.4049	1125.5	0.2
318.15	0.5075	1139.9	0.2
318.15	0.5953	1148.7	0.2
318.15	0.7121	1157.7	0.2
318.15	0.8336	1164.5	0.3
318.15	0.9202	1168.3	0.3
318.15	0.9692	1170.5	0.3
323.15	0.0108	808.8	0.2
323.15	0.0992	989.4	0.2
323.15	0.2597	1087.3	0.3
323.15	0.4049	1121.3	0.2
323.15	0.5075	1135.8	0.2
323.15	0.5953	1144.6	0.2
323.15	0.7121	1153.7	0.2
323.15	0.8336	1160.5	0.3
323.15	0.9202	1164.4	0.3
323.15	0.9692	1166.6	0.3
328.15	0.0108	803.9	0.2
328.15	0.0992	984.8	0.2
328.15	0.2597	1083	0.3
328.15	0.4049	1117.2	0.2
328.15	0.5075	1131.8	0.2
328.15	0.5953	1140.6	0.2
328.15	0.7121	1149.7	0.2
328.15	0.8336	1156.6	0.2
328.15	0.9202	1160.5	0.3
328.15	0.9692	1162.7	0.3
333.15	0.0108	799	0.2
333.15	0.0992	980.2	0.2
333.15	0.2597	1078.7	0.3
333.15	0.4049	1113.1	0.2
333.15	0.5075	1127.7	0.2
333.15	0.5953	1136.6	0.2
333.15	0.7121	1145.7	0.2
333.15	0.8336	1152.7	0.2
333.15	0.9202	1156.6	0.3
333.15	0.9692	1158.8	0.3
338.15	0.0108	794.1	0.2
338.15	0.0992	975.6	0.6
338.15	0.2597	1074.4	0.3
338.15	0.4049	1108.9	0.3
338.15	0.5075	1123.6	0.2
338.15	0.5953	1132.6	0.2
338.15	0.7121	1141.8	0.2
338.15	0.8336	1148.8	0.2
338.15	0.9202	1152.7	0.3
338.15	0.9692	1154.9	0.3
