Measured thermophysical data. Determination of excess molar enthalpies of the ternary system methyl tert-butyl ether + 1-pentanol + nonane at 298.15K Analysis and comparison with predicted values of the UNIFAC model and some empirical methods
Source: Fluid Phase Equilib., 2005, 10.1016/j.fluid.2004.12.013
Compound 1: 2-methoxy-2-methylpropane, C5H12O, InChI=1S/C5H12O/c1-5(2,3)6-4/h1-4H3, purity 99%
Compound 2: pentan-1-ol, C5H12O, InChI=1S/C5H12O/c1-2-3-4-5-6/h6H,2-5H2,1H3, purity 99%
Compound 3: nonane, C9H20, InChI=1S/C9H20/c1-3-5-7-9-8-6-4-2/h3-9H2,1-2H3, purity 99%

System: nonane + 2-methoxy-2-methylpropane; phases: Liquid
Fixed: Temperature, K = 298.15
Fixed: Pressure, kPa = 101.3
Property: Excess molar enthalpy (molar enthalpy of mixing), kJ/mol (Liquid); method: CALVET:UFactor:4
Mole fraction of 2-methoxy-2-methylpropane	Excess molar enthalpy (molar enthalpy of mixing), kJ/mol	uncertainty
0.0816	0.131	0.007
0.1472	0.225	0.01
0.1747	0.265	0.012
0.2383	0.345	0.014
0.2404	0.345	0.014
0.3312	0.428	0.017
0.3912	0.457	0.018
0.4867	0.486	0.019
0.6601	0.437	0.018
0.7157	0.392	0.016
0.7399	0.371	0.015
0.7773	0.337	0.014
0.8129	0.305	0.013
0.8723	0.231	0.01
0.895	0.2	0.009
0.9235	0.173	0.008
0.9285	0.141	0.007
0.9459	0.126	0.007
0.9573	0.104	0.006
0.9632	0.082	0.006

System: pentan-1-ol + nonane; phases: Liquid
Fixed: Temperature, K = 298.15
Fixed: Pressure, kPa = 101.3
Property: Excess molar enthalpy (molar enthalpy of mixing), kJ/mol (Liquid); method: CALVET:UFactor:4
Mole fraction of pentan-1-ol	Excess molar enthalpy (molar enthalpy of mixing), kJ/mol	uncertainty
0.0545	0.414	0.017
0.0997	0.516	0.02
0.1605	0.59	0.023
0.2245	0.648	0.025
0.2862	0.681	0.026
0.3535	0.694	0.026
0.4025	0.689	0.026
0.4455	0.687	0.026
0.4998	0.67	0.026
0.5489	0.637	0.024
0.6006	0.593	0.023
0.6527	0.541	0.021
0.7058	0.469	0.019
0.7524	0.41	0.017
0.7962	0.33	0.014
0.8478	0.257	0.011
0.8935	0.172	0.008
0.9382	0.086	0.006

System: pentan-1-ol + nonane + 2-methoxy-2-methylpropane; phases: Liquid
Fixed: Temperature, K = 298.15
Fixed: Pressure, kPa = 101.3
Property: Excess molar enthalpy (molar enthalpy of mixing), kJ/mol (Liquid); method: CALVET:UFactor:4
Mole fraction of 2-methoxy-2-methylpropane	Mole fraction of pentan-1-ol	Excess molar enthalpy (molar enthalpy of mixing), kJ/mol	uncertainty
0.0162	0.0492	0.397	0.016
0.031	0.0941	0.507	0.02
0.0416	0.0418	0.375	0.015
0.0522	0.1585	0.583	0.023
0.0593	0.0192	0.285	0.012
0.0681	0.2068	0.629	0.024
0.084	0.2549	0.652	0.025
0.1033	0.0336	0.405	0.016
0.1044	0.3167	0.649	0.025
0.1105	0.1107	0.567	0.022
0.1273	0.3862	0.616	0.024
0.1327	0.1331	0.586	0.023
0.1422	0.4315	0.592	0.023
0.1513	0.0491	0.482	0.019
0.168	0.5095	0.522	0.02
0.1759	0.1763	0.629	0.024
0.1871	0.5675	0.428	0.017
0.1945	0.0632	0.534	0.021
0.1953	0.5925	0.388	0.016
0.1988	0.1993	0.617	0.024
0.2095	0.6355	0.311	0.013
0.218	0.6615	0.246	0.011
0.2235	0.6782	0.205	0.01
0.2259	0.2265	0.647	0.025
0.2318	0.7033	0.141	0.007
0.2407	0.7303	0.065	0.005
0.2563	0.2569	0.622	0.024
0.258	0.0838	0.582	0.023
0.2811	0.2817	0.6	0.023
0.2975	0.2983	0.578	0.022
0.3297	0.107	0.603	0.023
0.3361	0.3369	0.527	0.021
0.3543	0.3552	0.494	0.019
0.3642	0.1183	0.62	0.024
0.3798	0.3808	0.431	0.017
0.3984	0.3994	0.375	0.015
0.4149	0.1347	0.602	0.023
0.419	0.4201	0.332	0.014
0.4193	0.1361	0.602	0.023
0.4354	0.4365	0.272	0.012
0.4546	0.4556	0.203	0.009
0.4637	0.1505	0.555	0.022
0.4745	0.4757	0.136	0.007
0.4832	0.4843	0.079	0.006
0.5013	0.1628	0.518	0.02
0.5182	0.1682	0.515	0.02
0.5536	0.1797	0.469	0.019
0.5844	0.1898	0.422	0.017
0.6316	0.2051	0.333	0.014
0.6411	0.2082	0.317	0.013
0.6848	0.2224	0.216	0.01
0.7101	0.2305	0.154	0.008
