Measured thermophysical data. PVTx measurements in the gas phase for binary mixtures of HFC-161 and HFC-227ea
Source: Fluid Phase Equilib., 2008, 10.1016/j.fluid.2008.04.022
Compound 1: fluoroethane, C2H5F, InChI=1S/C2H5F/c1-2-3/h2H2,1H3, purity 99.74%
Compound 2: 1,1,1,2,3,3,3-heptafluoropropane, C3HF7, InChI=1S/C3HF7/c4-1(2(5,6)7)3(8,9)10/h1H, purity 99.99%

System: fluoroethane + 1,1,1,2,3,3,3-heptafluoropropane; phases: Fluid (supercritical or subcritical phases)
Property: Mass density, kg/m3 (Fluid (supercritical or subcritical phases)); method: ISOCHOR
Temperature, K	Pressure, kPa	Mole fraction of fluoroethane	Mass density, kg/m3	uncertainty
318.18	961.3	0.8032	441.9	2.2
323.177	987.1	0.8032	441.8	2.2
323.192	1112.7	0.739	520.8	2.4
328.182	1011.6	0.8032	441.8	2.2
328.192	1144.3	0.739	520.7	2.4
333.176	1439.9	0.8036	671.6	2.6
333.183	1034.4	0.8032	441.7	2.2
333.189	1173.6	0.739	520.7	2.4
333.189	1516.7	0.811	717.6	2.9
338.176	1481.2	0.8036	671.6	2.7
338.178	1560.1	0.811	717.5	2.9
338.18	1369.5	0.44	660.6	3
338.182	1058.6	0.8032	441.7	2.1
338.185	1202.9	0.739	520.7	2.4
343.178	1231.3	0.739	520.6	2.4
343.18	1601.7	0.811	717.5	2.8
343.182	1519.5	0.8036	671.5	2.6
343.185	1413.6	0.44	660.5	3
343.186	1081.5	0.8032	441.7	2.1
343.189	1712.3	0.627	835.4	3.2
348.151	2241.8	0.8392	1112.1	3.9
348.178	1453.8	0.44	660.5	3
348.179	1557.8	0.8036	671.4	2.6
348.181	1104.1	0.8032	441.6	2
348.183	1260.2	0.739	520.6	2.4
348.188	1766.5	0.627	835.3	3.1
348.196	1643.2	0.811	717.4	2.8
353.155	2312	0.8392	1112	3.9
353.181	1127	0.8032	441.6	2
353.183	1287.6	0.739	520.5	2.3
353.185	1594.5	0.8036	671.4	2.6
353.187	1493.5	0.44	660.4	3
353.189	1683.4	0.811	717.3	2.7
353.191	1818	0.627	835.2	3.1
358.169	1314.9	0.739	520.5	2.3
358.173	1532	0.44	660.3	3
358.179	1631.3	0.8036	671.3	2.5
358.184	1148.5	0.8032	441.6	2
358.185	1722.8	0.811	717.3	2.7
358.189	1868.1	0.627	835.2	3
358.228	2381.4	0.8392	1111.9	3.8
363.137	2448.2	0.8392	1111.8	3.8
363.187	1171.1	0.8032	441.5	1.9
363.193	1761.7	0.811	717.2	2.7
363.193	1917	0.627	835.1	3
363.194	1569.8	0.44	660.3	3
363.201	2459.6	0.4954	1290.6	4.5
363.214	1667	0.8036	671.3	2.5
363.311	1342.8	0.739	520.4	2.2
368.138	1800.8	0.811	717.2	2.6
368.139	1369.4	0.739	520.4	2.2
368.159	1608	0.44	660.2	2.9
368.159	1966	0.627	835	3
368.166	1703	0.8036	671.2	2.5
368.175	2515	0.8392	1111.7	3.8
368.18	2548.7	0.4954	1290.5	4.4
368.292	1193.9	0.8032	441.5	1.9
373.038	1215	0.8032	441.5	1.9
373.154	1644.9	0.44	660.2	2.8
373.164	1839.4	0.811	717.1	2.6
373.175	1396.2	0.739	520.4	2.2
373.176	1738.7	0.8036	671.2	2.5
373.183	2580	0.8392	1111.6	3.8
373.184	2636.7	0.4954	1290.4	4.4
373.187	2014.5	0.627	835	2.9
376.183	2687.7	0.4954	1290.3	4.3
378.171	2644.8	0.8392	1111.5	3.8
378.228	1774.6	0.8036	671.1	2.4
378.232	2063.3	0.627	834.9	2.9
378.246	1876.9	0.811	717	2.6
378.248	1681.3	0.44	660.1	2.8
378.251	1422.5	0.739	520.3	2.1
378.285	1236.9	0.8032	441.4	1.8
379.232	2739.1	0.4954	1290.3	4.3
382.193	2788.4	0.4954	1290.2	4.3
383.08	1448.6	0.739	520.3	2.1
383.17	2708.3	0.8392	1111.4	3.7
383.204	2110.6	0.627	834.8	2.9
383.206	1809.6	0.8036	671.1	2.4
383.208	1718.2	0.44	660.1	2.7
383.214	1915.8	0.811	717	2.6
383.216	1259.2	0.8032	441.4	1.8
385.223	2838.9	0.4954	1290.1	4.3
388.174	2771	0.8392	1111.3	3.7
388.184	1279.7	0.8032	441.3	1.8
388.184	2156.7	0.627	834.8	2.9
388.186	2887.9	0.4954	1290.1	4.3
388.19	1844.5	0.8036	671	2.4
388.194	1953.2	0.811	716.9	2.5
388.195	1754.7	0.44	660	2.7
388.322	1475.8	0.739	520.2	2.1
391.217	2937.4	0.4954	1290	4.2
393.18	1879	0.8036	670.9	2.4
393.18	2203.2	0.627	834.7	2.8
393.182	1990.4	0.811	716.9	2.5
393.183	1790.2	0.44	660	2.6
393.184	1501.3	0.739	520.2	2
393.208	1301.7	0.8032	441.3	1.8
393.222	2834	0.8392	1111.2	3.7
394.18	2985.9	0.4954	1289.9	4.2
397.147	3033.4	0.4954	1289.9	4.2
398.159	1322.9	0.8032	441.3	1.8
398.161	1912.8	0.8036	670.9	2.4
398.164	2248.3	0.627	834.6	2.8
398.165	1527.2	0.739	520.1	2
398.165	2027.2	0.811	716.8	2.5
398.17	1825.4	0.44	659.9	2.6
398.21	2896	0.8392	1111.2	3.7
400.153	3082	0.4954	1289.8	4.2
403.143	1344.2	0.8032	441.2	1.8
403.147	1946.2	0.8036	670.8	2.3
403.156	1860.1	0.44	659.8	2.5
403.159	1553.2	0.739	520.1	1.9
403.169	2293.4	0.627	834.5	2.8
403.188	3129.8	0.4954	1289.8	4.2
403.189	2956.6	0.8392	1111.1	3.6
403.205	2063.9	0.811	716.8	2.5
