Measured thermophysical data. Solubility of (+)-Catechin in Water and Water-Ethanol Mixtures within the Temperature Range 277.6 to 331.2 K: Fundamental Data to Design Polyphenol Extraction Processes
Source: Fluid Phase Equilib., 2014, 10.1016/j.fluid.2014.09.013
Compound 1: (+)-catechin, C15H14O6, InChI=1S/C15H14O6/c16-8-4-11(18)9-6-13(20)15(21-14(9)5-8)7-1-2-10(17)12(19)3-7/h1-5,13,15-20H,6H2/t13-,15+/m0/s1, purity 99%
Compound 2: benzoic acid, C7H6O2, InChI=1S/C7H6O2/c8-7(9)6-4-2-1-3-5-6/h1-5H,(H,8,9), purity 99.9%
Compound 3: ethanol, C2H6O, InChI=1S/C2H6O/c1-2-3/h3H,2H2,1H3, purity 99.9%
Compound 4: water, H2O, InChI=1S/H2O/h1H2, purity 99.8%

System: benzoic acid + water; phases: Liquid, Crystal
Fixed: Pressure, kPa = 101.325
Property: Mole fraction of benzoic acid (Liquid); method: Phase equilibration
Temperature, K	Mole fraction of benzoic acid	uncertainty
278.4	0.00032394	1.16e-06
282.9	0.000331	5e-05
294.1	0.000533	0.000186
300.4	0.000586	9.4e-05
307.7	0.0007	0.000102
317.7	0.001167	3.7e-05
326.7	0.001473	0.000198
336.6	0.00224	0.00024
340.9	0.002552	0.000125

System: ethanol + benzoic acid + water; phases: Liquid, Crystal
Fixed: Pressure, kPa = 101.325
Property: Mole fraction of benzoic acid (Liquid); method: Phase equilibration
Temperature, K	Solvent: Mass fraction of ethanol	Mole fraction of benzoic acid	uncertainty
278.4	0.064	0.000389	5.4e-05
282.9	0.064	0.000385	6.4e-05
294.1	0.064	0.000629	0.000128
300.4	0.064	0.000783	2e-05
307.7	0.064	0.000888	0.000164
317.7	0.064	0.001428	3.5e-05
326.7	0.064	0.001794	0.000113
336.6	0.064	0.00297	0.00022
340.9	0.064	0.00318	0.00046
278.4	0.13	0.000492	2.4e-05
282.9	0.13	0.000533	9.2e-05
294.1	0.13	0.000861	3.7e-05
300.4	0.13	0.00116	0.000122
307.7	0.13	0.001558	8.7e-05
317.7	0.13	0.00239	0.0004
326.7	0.13	0.003945	7.1e-05
336.6	0.13	0.00668	0.00092
340.9	0.13	0.00953	0.00067

System: ethanol + (+)-catechin + water; phases: Liquid, Crystal of intercomponent compound 1
Fixed: Pressure, kPa = 101
Property: Mole fraction of (+)-catechin (Liquid); method: Phase equilibration
Temperature, K	Solvent: Mass fraction of ethanol	Mole fraction of (+)-catechin	uncertainty
277.6	0	0.000224	2.4e-05
282.7	0	0.0001465	1.24e-05
297.7	0	0.000282	5.8e-05
308.4	0	0.000683	3.7e-05
324.9	0	0.00206	0.0002
331.2	0	0.002914	0.000147
277.6	0.032	0.00029	3.8e-05
282.7	0.032	0.000215	3.6e-05
297.7	0.032	0.000364	5.8e-05
308.4	0.032	0.00099	0.000173
324.9	0.032	0.00286	0.00062
331.2	0.032	0.00405	0.00025
277.6	0.064	0.000453	7.8e-05
282.7	0.064	0.0003174	1.8e-05
297.7	0.064	0.00064	0.000118
308.4	0.064	0.001348	0.000111
324.9	0.064	0.003679	0.000122
331.2	0.064	0.006278	9.7e-05
277.6	0.13	0.000745	0.000142
282.7	0.13	0.000625	2.8e-05
297.7	0.13	0.000758	0.000136
308.4	0.13	0.0019	0.000184
324.9	0.13	0.00551	0.00038
331.2	0.13	0.00927	0.00023
