Measured thermophysical data. Vapour-liquid equilibrium measurements and correlation for the pentafluoroethane (R125) + n-butane (R600) system
Source: Fluid Phase Equilib., 2005, 10.1016/j.fluid.2004.11.023
Compound 1: pentafluoroethane, C2HF5, InChI=1S/C2HF5/c3-1(4)2(5,6)7/h1H
Compound 2: butane, C4H10, InChI=1S/C4H10/c1-3-4-2/h3-4H2,1-2H3

System: butane + pentafluoroethane; phases: Liquid, Gas
Property: Vapor or sublimation pressure, kPa (Liquid); method: EBULLIO:UFactor:2
Mole fraction of pentafluoroethane	Temperature, K	Vapor or sublimation pressure, kPa	uncertainty
0	278.15	125	2.1
0	298.15	243.4	2.1
0.0241	278.15	199.2	10
0.0481	298.15	440.6	14.5
0.097	278.15	366.4	8.2
0.1057	298.15	624.4	10.2
0.187	278.15	494.7	5.2
0.1898	298.15	795.2	7.6
0.2603	298.15	895.1	6.1
0.2759	298.15	916.1	6.1
0.3911	298.15	1032	4.3
0.414	278.15	629.3	4.5
0.5921	278.15	685	4.1
0.6439	298.15	1197.5	4
0.7917	298.15	1280.9	3.9
0.8315	298.15	1303.7	3.9
0.8435	278.15	750.9	4.1
0.8551	278.15	754.8	4
0.8941	278.15	765.1	4
0.9101	298.15	1342.8	3.8
0.9392	278.15	774.8	4
0.9417	298.15	1356.1	3.7
0.9507	298.15	1358.9	3.7
0.969	278.15	779	3.9
1	278.15	781.6	2.6
1	298.15	1372.3	3.1

System: butane + pentafluoroethane; phases: Gas, Liquid
Property: Mole fraction of pentafluoroethane (Gas); method: Chromatography
Mole fraction of pentafluoroethane	Temperature, K	Mole fraction of pentafluoroethane	uncertainty
0	278.15	0	0.0001
0	298.15	0	0.0001
0.0241	278.15	0.3356	0.0258
0.0481	298.15	0.4262	0.0235
0.097	278.15	0.6565	0.0163
0.1057	298.15	0.6003	0.0101
0.187	278.15	0.7572	0.0092
0.1898	298.15	0.6898	0.0076
0.2603	298.15	0.7322	0.0066
0.2759	298.15	0.7329	0.0066
0.3911	298.15	0.7798	0.0066
0.414	278.15	0.8224	0.0081
0.5921	278.15	0.851	0.0076
0.6439	298.15	0.8383	0.0064
0.7917	298.15	0.8807	0.0063
0.8315	298.15	0.8975	0.0064
0.8435	278.15	0.9055	0.0074
0.8551	278.15	0.9112	0.0074
0.8941	278.15	0.927	0.0073
0.9101	298.15	0.9347	0.0064
0.9392	278.15	0.9544	0.0073
0.9417	298.15	0.956	0.0066
0.9507	298.15	0.9607	0.0064
0.969	278.15	0.9737	0.0072
1	278.15	1	0.0001
1	298.15	1	0.0001
