Measured thermophysical data. Solubilities of cefodizime disodium in aqueous alcohol mixtures at atmospheric pressure and different temperatures
Source: Fluid Phase Equilib., 2010, 10.1016/j.fluid.2010.08.006
Compound 1: sodium (6R,7R)-7-((Z)-2-(2-aminothiazol-4-yl)-2-(methoxyimino)acetamido)-3-(((5-(carboxylatomethyl)-4-methylthiazol-2-yl)thio)methyl)-8-oxo-5-thia-1-azabicyclo[4.2.0]oct-2-ene-2-carboxylate, C20H18N6Na2O7S4, InChI=1S/C20H20N6O7S4.2Na/c1-7-10(3-11(27)28)37-20(22-7)36-5-8-4-34-17-13(16(30)26(17)14(8)18(31)32)24-15(29)12(25-33-2)9-6-35-19(21)23-9;;/h6,13,17H,3-5H2,1-2H3,(H2,21,23)(H,24,29)(H,27,28)(H,31,32);;/q;2*+1/p-2/b25-12-;;/t13-,17-;;/m1../s1, purity 99%
Compound 2: ethanol, C2H6O, InChI=1S/C2H6O/c1-2-3/h3H,2H2,1H3, purity 99.8%
Compound 3: propan-1-ol, C3H8O, InChI=1S/C3H8O/c1-2-3-4/h4H,2-3H2,1H3, purity 99.8%
Compound 4: propan-2-ol, C3H8O, InChI=1S/C3H8O/c1-3(2)4/h3-4H,1-2H3, purity 99.8%
Compound 5: water, H2O, InChI=1S/H2O/h1H2, purity 99.8%

System: ethanol + water + sodium (6R,7R)-7-((Z)-2-(2-aminothiazol-4-yl)-2-(methoxyimino)acetamido)-3-(((5-(carboxylatomethyl)-4-methylthiazol-2-yl)thio)methyl)-8-oxo-5-thia-1-azabicyclo[4.2.0]oct-2-ene-2-carboxylate; phases: Liquid, Crystal
Fixed: Pressure, kPa = 101
Property: Mole fraction of sodium (6R,7R)-7-((Z)-2-(2-aminothiazol-4-yl)-2-(methoxyimino)acetamido)-3-(((5-(carboxylatomethyl)-4-methylthiazol-2-yl)thio)methyl)-8-oxo-5-thia-1-azabicyclo[4.2.0]oct-2-ene-2-carboxylate (Liquid); method: Synthetic and Laser Monitoring
Solvent: Mole fraction of ethanol	Temperature, K	Mole fraction of sodium (6R,7R)-7-((Z)-2-(2-aminothiazol-4-yl)-2-(methoxyimino)acetamido)-3-(((5-(carboxylatomethyl)-4-methylthiazol-2-yl)thio)methyl)-8-oxo-5-thia-1-azabicyclo[4.2.0]oct-2-ene-2-carboxylate	uncertainty
0	278.15	0.004219	0.001049
0	283.15	0.005401	0.001079
0	288.15	0.006651	0.001117
0	293.15	0.008211	0.001175
0	298.15	0.01008	0.00125
0	303.15	0.01212	0.00135
0	308.15	0.01518	0.00152
0.1009	278.15	0.003254	0.001022
0.1009	283.15	0.004157	0.001036
0.1009	288.15	0.005175	0.001055
0.1009	293.15	0.006448	0.001084
0.1009	298.15	0.008035	0.001129
0.1009	303.15	0.009912	0.001191
0.1009	308.15	0.01227	0.00128
0.2041	278.15	0.002336	0.001009
0.2041	283.15	0.002985	0.001015
0.2041	288.15	0.003791	0.001024
0.2041	293.15	0.004825	0.001038
0.2041	298.15	0.006018	0.001058
0.2041	303.15	0.007484	0.001089
0.2041	308.15	0.009326	0.001135
0.3004	278.15	0.001603	0.001004
0.3004	283.15	0.002087	0.001006
0.3004	288.15	0.002637	0.00101
0.3004	293.15	0.003363	0.001016
0.3004	298.15	0.004215	0.001024
0.3004	303.15	0.005343	0.001039
0.3004	308.15	0.006718	0.001061
0.4006	278.15	0.001032	0.001001
0.4006	283.15	0.001344	0.001002
0.4006	288.15	0.001728	0.001004
0.4006	293.15	0.002245	0.001006
0.4006	298.15	0.002857	0.00101
0.4006	303.15	0.003556	0.001016
0.4006	308.15	0.00458	0.001026
0.4941	278.15	0.0006611	0.0006611
0.4941	283.15	0.0008814	0.0008814
0.4941	288.15	0.001136	0.001002
0.4941	293.15	0.001477	0.001003
0.4941	298.15	0.001909	0.001004
0.4941	303.15	0.002396	0.001007
0.4941	308.15	0.003092	0.001011
0.6085	278.15	0.0003764	0.0003764
0.6085	283.15	0.0004975	0.0004975
0.6085	288.15	0.0006478	0.0006478
0.6085	293.15	0.000846	0.000846
0.6085	298.15	0.001084	0.001002
0.6085	303.15	0.001382	0.001003
0.6085	308.15	0.001822	0.001005
0.7006	278.15	0.0001851	0.0001851
0.7006	283.15	0.0002463	0.0002463
0.7006	288.15	0.0003233	0.0003233
0.7006	293.15	0.0004256	0.0004256
0.7006	298.15	0.0005542	0.0005542
0.7006	303.15	0.0007166	0.0007166
0.7006	308.15	0.0009359	0.0009359
0.7977	278.15	6.196e-05	6.196e-05
0.7977	283.15	8.381e-05	8.381e-05
0.7977	288.15	0.000112	0.000112
0.7977	293.15	0.0001497	0.0001497
0.7977	298.15	0.0001969	0.0001969
0.7977	303.15	0.0002576	0.0002576
0.7977	308.15	0.0003345	0.0003345
0.8973	278.15	1.542e-05	1.542e-05
0.8973	283.15	2.081e-05	2.081e-05
0.8973	288.15	2.809e-05	2.809e-05
0.8973	293.15	3.717e-05	3.717e-05
0.8973	298.15	4.923e-05	4.923e-05
0.8973	303.15	6.527e-05	6.527e-05
0.8973	308.15	8.601e-05	8.601e-05

System: propan-1-ol + water + sodium (6R,7R)-7-((Z)-2-(2-aminothiazol-4-yl)-2-(methoxyimino)acetamido)-3-(((5-(carboxylatomethyl)-4-methylthiazol-2-yl)thio)methyl)-8-oxo-5-thia-1-azabicyclo[4.2.0]oct-2-ene-2-carboxylate; phases: Liquid, Crystal
Fixed: Pressure, kPa = 101
Property: Mole fraction of sodium (6R,7R)-7-((Z)-2-(2-aminothiazol-4-yl)-2-(methoxyimino)acetamido)-3-(((5-(carboxylatomethyl)-4-methylthiazol-2-yl)thio)methyl)-8-oxo-5-thia-1-azabicyclo[4.2.0]oct-2-ene-2-carboxylate (Liquid); method: Synthetic and Laser Monitoring
Solvent: Mole fraction of propan-1-ol	Temperature, K	Mole fraction of sodium (6R,7R)-7-((Z)-2-(2-aminothiazol-4-yl)-2-(methoxyimino)acetamido)-3-(((5-(carboxylatomethyl)-4-methylthiazol-2-yl)thio)methyl)-8-oxo-5-thia-1-azabicyclo[4.2.0]oct-2-ene-2-carboxylate	uncertainty
0.1004	278.15	0.003174	0.001019
0.1004	283.15	0.004031	0.00103
0.1004	288.15	0.005082	0.001047
0.1004	293.15	0.006441	0.001075
0.1004	298.15	0.007917	0.001111
0.1004	303.15	0.009705	0.001163
0.1004	308.15	0.01187	0.00124
0.2002	278.15	0.002401	0.001008
0.2002	283.15	0.003012	0.001012
0.2002	288.15	0.003876	0.00102
0.2002	293.15	0.004849	0.001031
0.2002	298.15	0.00606	0.001048
0.2002	303.15	0.007469	0.001072
0.2002	308.15	0.009224	0.001108
0.3003	278.15	0.001583	0.001003
0.3003	283.15	0.001993	0.001004
0.3003	288.15	0.002534	0.001007
0.3003	293.15	0.003218	0.001011
0.3003	298.15	0.004083	0.001018
0.3003	303.15	0.005103	0.001028
0.3003	308.15	0.006257	0.001041
0.4011	278.15	0.0008779	0.0008779
0.4011	283.15	0.001125	0.001001
0.4011	288.15	0.001465	0.001002
0.4011	293.15	0.001838	0.001004
0.4011	298.15	0.002351	0.001006
0.4011	303.15	0.002935	0.001009
0.4011	308.15	0.003679	0.001015
0.4996	278.15	0.0004036	0.0004036
0.4996	283.15	0.0005266	0.0005266
0.4996	288.15	0.0006816	0.0006816
0.4996	293.15	0.0008788	0.0008788
0.4996	298.15	0.001116	0.001002
0.4996	303.15	0.001422	0.001003
0.4996	308.15	0.001771	0.001005
0.6004	278.15	0.0001322	0.0001322
0.6004	283.15	0.0001755	0.0001755
0.6004	288.15	0.0002331	0.0002331
0.6004	293.15	0.0003008	0.0003008
0.6004	298.15	0.0003859	0.0003859
0.6004	303.15	0.0004886	0.0004886
0.6004	308.15	0.000618	0.000618
0.7004	278.15	2.983e-05	2.983e-05
0.7004	283.15	3.947e-05	3.947e-05
0.7004	288.15	5.243e-05	5.243e-05
0.7004	293.15	6.889e-05	6.889e-05
0.7004	298.15	8.863e-05	8.863e-05
0.7004	303.15	0.0001136	0.0001136
0.7004	308.15	0.0001441	0.0001441

System: propan-2-ol + water + sodium (6R,7R)-7-((Z)-2-(2-aminothiazol-4-yl)-2-(methoxyimino)acetamido)-3-(((5-(carboxylatomethyl)-4-methylthiazol-2-yl)thio)methyl)-8-oxo-5-thia-1-azabicyclo[4.2.0]oct-2-ene-2-carboxylate; phases: Liquid, Crystal
Fixed: Pressure, kPa = 101
Property: Mole fraction of sodium (6R,7R)-7-((Z)-2-(2-aminothiazol-4-yl)-2-(methoxyimino)acetamido)-3-(((5-(carboxylatomethyl)-4-methylthiazol-2-yl)thio)methyl)-8-oxo-5-thia-1-azabicyclo[4.2.0]oct-2-ene-2-carboxylate (Liquid); method: Synthetic and Laser Monitoring
Solvent: Mole fraction of propan-2-ol	Temperature, K	Mole fraction of sodium (6R,7R)-7-((Z)-2-(2-aminothiazol-4-yl)-2-(methoxyimino)acetamido)-3-(((5-(carboxylatomethyl)-4-methylthiazol-2-yl)thio)methyl)-8-oxo-5-thia-1-azabicyclo[4.2.0]oct-2-ene-2-carboxylate	uncertainty
0.08	278.15	0.002915	0.001001
0.08	283.15	0.003632	0.001002
0.08	288.15	0.004576	0.001003
0.08	293.15	0.005656	0.001004
0.08	298.15	0.00695	0.001007
0.08	303.15	0.00854	0.00101
0.08	308.15	0.01058	0.00102
0.1602	278.15	0.001868	0.001001
0.1602	283.15	0.002337	0.001001
0.1602	288.15	0.002953	0.001002
0.1602	293.15	0.003702	0.001002
0.1602	298.15	0.004557	0.001004
0.1602	303.15	0.005673	0.001006
0.1602	308.15	0.006978	0.001009
0.2405	278.15	0.001144	0.001
0.2405	283.15	0.001413	0.001001
0.2405	288.15	0.001763	0.001001
0.2405	293.15	0.002234	0.001001
0.2405	298.15	0.002784	0.001002
0.2405	303.15	0.003431	0.001003
0.2405	308.15	0.004322	0.001005
0.3203	278.15	0.0006085	0.0006085
0.3203	283.15	0.0007724	0.0007724
0.3203	288.15	0.0009839	0.0009839
0.3203	293.15	0.001255	0.001001
0.3203	298.15	0.001573	0.001001
0.3203	303.15	0.001952	0.001002
0.3203	308.15	0.002432	0.001003
0.4021	278.15	0.000281	0.000281
0.4021	283.15	0.0003548	0.0003548
0.4021	288.15	0.0004569	0.0004569
0.4021	293.15	0.0005739	0.0005739
0.4021	298.15	0.0007238	0.0007238
0.4021	303.15	0.0009073	0.0009073
0.4021	308.15	0.001149	0.001002
0.4824	278.15	7.652e-05	7.652e-05
0.4824	283.15	9.786e-05	9.786e-05
0.4824	288.15	0.0001257	0.0001257
0.4824	293.15	0.0001589	0.0001589
0.4824	298.15	0.000201	0.000201
0.4824	303.15	0.0002558	0.0002558
0.4824	308.15	0.0003223	0.0003223
0.5615	278.15	1.142e-05	1.142e-05
0.5615	283.15	1.481e-05	1.481e-05
0.5615	288.15	1.98e-05	1.98e-05
0.5615	293.15	2.517e-05	2.517e-05
0.5615	298.15	3.199e-05	3.199e-05
0.5615	303.15	4.108e-05	4.108e-05
0.5615	308.15	5.103e-05	5.103e-05
0.6395	278.15	1.907e-06	1.907e-06
0.6395	283.15	2.498e-06	2.498e-06
0.6395	288.15	3.272e-06	3.272e-06
0.6395	293.15	4.16e-06	4.16e-06
0.6395	298.15	5.395e-06	5.395e-06
0.6395	303.15	6.928e-06	6.928e-06
0.6395	308.15	8.719e-06	8.719e-06
