Measured thermophysical data. Vapor-liquid equilibrium and interfacial tensions of the system ethanol + hexane + tetrahydro-2H-Pyran
Source: Fluid Phase Equilib., 2014, 10.1016/j.fluid.2013.10.060
Compound 1: ethanol, C2H6O, InChI=1S/C2H6O/c1-2-3/h3H,2H2,1H3, purity 99.9%
Compound 2: hexane, C6H14, InChI=1S/C6H14/c1-3-5-6-4-2/h3-6H2,1-2H3, purity 99.9%
Compound 3: tetrahydropyran, C5H10O, InChI=1S/C5H10O/c1-2-4-6-5-3-1/h1-5H2, purity 99.9%

System: ethanol; phases: Liquid
Property: Refractive index (Na D-line) (Liquid); method: Standard Abbe refractometry
Temperature, K	Pressure, kPa	Refractive index (Na D-line)	uncertainty
298.15	101.325	1.36068	0.00031

System: ethanol; phases: Liquid
Property: Mass density, kg/m3 (Liquid); method: Vibrating tube method
Temperature, K	Pressure, kPa	Mass density, kg/m3	uncertainty
298.15	101.325	785.09	0.15

System: ethanol; phases: Liquid, Gas
Property: Boiling temperature at pressure P, K (Liquid); method: Ebulliometric method (Recirculating still)
Pressure, kPa	Boiling temperature at pressure P, K	uncertainty
101.33	351.45	0.02

System: ethanol; phases: Liquid, Air at 1 atmosphere
Property: Surface tension liquid-gas, N/m (Liquid); method: Maximal bubble pressure
Temperature, K	Surface tension liquid-gas, N/m	uncertainty
303.15	0.0217	0.00018

System: hexane; phases: Liquid
Property: Refractive index (Na D-line) (Liquid); method: Standard Abbe refractometry
Temperature, K	Pressure, kPa	Refractive index (Na D-line)	uncertainty
298.15	101.325	1.37374	0.00031

System: hexane; phases: Liquid
Property: Mass density, kg/m3 (Liquid); method: Vibrating tube method
Temperature, K	Pressure, kPa	Mass density, kg/m3	uncertainty
298.15	101.325	655.19	0.18

System: hexane; phases: Liquid, Gas
Property: Boiling temperature at pressure P, K (Liquid); method: Ebulliometric method (Recirculating still)
Pressure, kPa	Boiling temperature at pressure P, K	uncertainty
101.33	341.94	0.02

System: hexane; phases: Liquid, Air at 1 atmosphere
Property: Surface tension liquid-gas, N/m (Liquid); method: Maximal bubble pressure
Temperature, K	Surface tension liquid-gas, N/m	uncertainty
303.15	0.0174	0.00016

System: tetrahydropyran; phases: Liquid
Property: Refractive index (Na D-line) (Liquid); method: Standard Abbe refractometry
Temperature, K	Pressure, kPa	Refractive index (Na D-line)	uncertainty
298.15	101.325	1.42	0.00031

System: tetrahydropyran; phases: Liquid
Property: Mass density, kg/m3 (Liquid); method: Vibrating tube method
Temperature, K	Pressure, kPa	Mass density, kg/m3	uncertainty
298.15	101.325	879.03	0.13

System: tetrahydropyran; phases: Liquid, Gas
Property: Boiling temperature at pressure P, K (Liquid); method: Ebulliometric method (Recirculating still)
Pressure, kPa	Boiling temperature at pressure P, K	uncertainty
101.33	361.36	0.02

System: tetrahydropyran; phases: Liquid, Air at 1 atmosphere
Property: Surface tension liquid-gas, N/m (Liquid); method: Maximal bubble pressure
Temperature, K	Surface tension liquid-gas, N/m	uncertainty
303.15	0.0271	0.0002

System: ethanol + hexane + tetrahydropyran; phases: Liquid, Gas
Fixed: Pressure, kPa = 94
Property: Boiling temperature at pressure P, K (Liquid); method: Ebulliometric method (Recirculating still)
Mole fraction of ethanol	Mole fraction of hexane	Boiling temperature at pressure P, K	uncertainty
0.114	0.773	332.11	0.11
0.114	0.664	334.13	0.11
0.113	0.563	336.14	0.11
0.112	0.467	338.16	0.11
0.11	0.375	340.22	0.12
0.104	0.28	342.88	0.12
0.101	0.192	345.56	0.13
0.097	0.105	348.85	0.13
0.182	0.103	346.28	0.13
0.186	0.184	343.12	0.12
0.193	0.271	340.31	0.11
0.198	0.361	337.82	0.11
0.201	0.463	335.51	0.11
0.199	0.571	333.37	0.11
0.195	0.686	331.45	0.11
0.295	0.587	331.36	0.1
0.292	0.488	333.27	0.1
0.29	0.389	335.39	0.1
0.288	0.295	337.74	0.11
0.285	0.2	340.63	0.11
0.283	0.109	344.05	0.12
0.38	0.102	342.88	0.12
0.387	0.19	339.33	0.12
0.393	0.284	336.29	0.11
0.388	0.396	333.65	0.1
0.393	0.497	331.51	0.1
0.493	0.399	331.72	0.11
0.468	0.282	335.08	0.12
0.47	0.194	337.95	0.12
0.463	0.108	341.56	0.12
0.565	0.104	340.57	0.13
0.577	0.196	336.16	0.12
0.586	0.295	332.3	0.12
0.689	0.193	334.01	0.14
0.68	0.103	338.7	0.14
0.795	0.147	334.09	0.16
0.828	0.074	338.68	0.16

System: ethanol + hexane + tetrahydropyran; phases: Gas, Liquid
Fixed: Pressure, kPa = 94
Property: Mole fraction of ethanol (Gas); method: Chromatography
Mole fraction of ethanol	Mole fraction of hexane	Mole fraction of ethanol	uncertainty
0.114	0.773	0.274	0.003
0.114	0.664	0.252	0.003
0.113	0.563	0.236	0.003
0.112	0.467	0.223	0.003
0.11	0.375	0.212	0.003
0.104	0.28	0.201	0.003
0.101	0.192	0.197	0.003
0.097	0.105	0.199	0.004
0.182	0.103	0.298	0.004
0.186	0.184	0.285	0.003
0.193	0.271	0.279	0.003
0.198	0.361	0.28	0.003
0.201	0.463	0.283	0.003
0.199	0.571	0.288	0.003
0.195	0.686	0.299	0.003
0.295	0.587	0.319	0.003
0.292	0.488	0.317	0.003
0.29	0.389	0.318	0.003
0.288	0.295	0.325	0.004
0.285	0.2	0.34	0.004
0.283	0.109	0.367	0.004
0.38	0.102	0.413	0.004
0.387	0.19	0.377	0.004
0.393	0.284	0.356	0.004
0.388	0.396	0.341	0.004
0.393	0.497	0.337	0.004
0.493	0.399	0.351	0.004
0.468	0.282	0.368	0.004
0.47	0.194	0.394	0.004
0.463	0.108	0.435	0.004
0.565	0.104	0.464	0.005
0.577	0.196	0.408	0.004
0.586	0.295	0.374	0.004
0.689	0.193	0.413	0.004
0.68	0.103	0.483	0.005
0.795	0.147	0.444	0.005
0.828	0.074	0.547	0.005

System: ethanol + hexane + tetrahydropyran; phases: Gas, Liquid
Fixed: Pressure, kPa = 94
Property: Mole fraction of hexane (Gas); method: Chromatography
Mole fraction of ethanol	Mole fraction of hexane	Mole fraction of hexane	uncertainty
0.114	0.773	0.675	0.004
0.114	0.664	0.641	0.004
0.113	0.563	0.599	0.004
0.112	0.467	0.551	0.004
0.11	0.375	0.497	0.005
0.104	0.28	0.422	0.005
0.101	0.192	0.332	0.004
0.097	0.105	0.213	0.004
0.182	0.103	0.216	0.004
0.186	0.184	0.331	0.004
0.193	0.271	0.418	0.005
0.198	0.361	0.491	0.005
0.201	0.463	0.555	0.004
0.199	0.571	0.607	0.004
0.195	0.686	0.649	0.004
0.295	0.587	0.631	0.004
0.292	0.488	0.586	0.004
0.29	0.389	0.529	0.005
0.288	0.295	0.458	0.005
0.285	0.2	0.365	0.004
0.283	0.109	0.24	0.004
0.38	0.102	0.252	0.004
0.387	0.19	0.38	0.005
0.393	0.284	0.478	0.005
0.388	0.396	0.558	0.005
0.393	0.497	0.616	0.004
0.493	0.399	0.599	0.004
0.468	0.282	0.503	0.005
0.47	0.194	0.416	0.005
0.463	0.108	0.287	0.004
0.565	0.104	0.31	0.005
0.577	0.196	0.459	0.005
0.586	0.295	0.566	0.005
0.689	0.193	0.517	0.006
0.68	0.103	0.361	0.005
0.795	0.147	0.519	0.007
0.828	0.074	0.37	0.006

System: ethanol + hexane + tetrahydropyran; phases: Liquid, Air at 1 atmosphere
Fixed: Temperature, K = 303.15
Property: Surface tension liquid-gas, N/m (Liquid); method: Maximal bubble pressure
Mole fraction of ethanol	Mole fraction of hexane	Surface tension liquid-gas, N/m	uncertainty
0.089	0.796	0.01978	0.00017
0.086	0.688	0.01876	0.00017
0.086	0.578	0.02129	0.00018
0.085	0.471	0.02087	0.00018
0.085	0.365	0.02323	0.00019
0.084	0.257	0.02246	0.00018
0.083	0.155	0.02394	0.00019
0.089	0.068	0.02358	0.00019
0.196	0.069	0.02336	0.00019
0.194	0.18	0.02336	0.00019
0.194	0.294	0.02186	0.00018
0.196	0.409	0.0207	0.00018
0.191	0.526	0.01974	0.00017
0.192	0.639	0.01797	0.00016
0.19	0.745	0.01823	0.00017
0.317	0.615	0.01692	0.00016
0.308	0.477	0.01959	0.00018
0.303	0.349	0.02097	0.00018
0.297	0.221	0.02232	0.00018
0.377	0.07	0.0226	0.00018
0.269	0.037	0.02397	0.00019
0.403	0.049	0.02444	0.00019
0.401	0.2	0.02198	0.00018
0.403	0.353	0.01925	0.00017
0.405	0.482	0.0173	0.00016
0.404	0.577	0.0168	0.00016
0.555	0.39	0.01725	0.00017
0.527	0.225	0.02185	0.00018
0.5	0.1	0.02438	0.00019
0.478	0.019	0.02473	0.00019
0.622	0.05	0.02477	0.0002
0.616	0.229	0.02107	0.00018
0.601	0.37	0.01831	0.00017
0.734	0.164	0.02076	0.00018
0.676	0.043	0.02455	0.0002
0.792	0.077	0.02188	0.00019
