Measured thermophysical data. Liquid-liquid equilibria for the pseudo-ternary system {aqueous sulfuric acid solution + methyl ethyl ketone or methyl isopropyl ketone + phosphonium-based ionic liquids} at 298.15 K and atmospheric pressure
Source: Fluid Phase Equilib., 2013, 10.1016/j.fluid.2013.07.054
Compound 1: butanone, C4H8O, InChI=1S/C4H8O/c1-3-4(2)5/h3H2,1-2H3
Compound 2: 3-methyl-2-butanone, C5H10O, InChI=1S/C5H10O/c1-4(2)5(3)6/h4H,1-3H3
Compound 3: 4-methylpentan-2-one, C6H12O, InChI=1S/C6H12O/c1-5(2)4-6(3)7/h5H,4H2,1-3H3
Compound 4: water, H2O, InChI=1S/H2O/h1H2

System: butanone; phases: Liquid
Property: Mass density, kg/m3 (Liquid); method: Vibrating tube method
Pressure, kPa	Temperature, K	Mass density, kg/m3	uncertainty
101	298.15	800.3	0.11

System: 3-methyl-2-butanone; phases: Liquid
Property: Mass density, kg/m3 (Liquid); method: Vibrating tube method
Pressure, kPa	Temperature, K	Mass density, kg/m3	uncertainty
101	298.15	800.63	0.11

System: 4-methylpentan-2-one; phases: Liquid
Property: Mass density, kg/m3 (Liquid); method: Vibrating tube method
Pressure, kPa	Temperature, K	Mass density, kg/m3	uncertainty
101	298.15	796.23	0.11

System: water; phases: Liquid
Property: Mass density, kg/m3 (Liquid); method: Vibrating tube method
Pressure, kPa	Temperature, K	Mass density, kg/m3	uncertainty
101	298.15	997.1	0.04
