Measured thermophysical data. A simple apparatus for data solubility determination
Source: Fluid Phase Equilib., 2007, 10.1016/j.fluid.2007.03.032
Compound 1: 1,2-dichloroethane, C2H4Cl2, InChI=1S/C2H4Cl2/c3-1-2-4/h1-2H2
Compound 2: dichloromethane, CH2Cl2, InChI=1S/CH2Cl2/c2-1-3/h1H2
Compound 3: toluene, C7H8, InChI=1S/C7H8/c1-7-5-3-2-4-6-7/h2-6H,1H3
Compound 4: pentane, C5H12, InChI=1S/C5H12/c1-3-5-4-2/h3-5H2,1-2H3
Compound 5: water, H2O, InChI=1S/H2O/h1H2

System: 1,2-dichloroethane + water; phases: Liquid mixture 1, Liquid mixture 2
Fixed: Pressure, kPa = 101
Property: Mole fraction of 1,2-dichloroethane (Liquid mixture 1); method: Chromatography
Temperature, K	Mole fraction of 1,2-dichloroethane	uncertainty
283.6	0.00138	4e-05
292.6	0.00137	4e-05
302.3	0.00133	2e-05

System: dichloromethane + water; phases: Liquid mixture 1, Liquid mixture 2
Fixed: Pressure, kPa = 101
Property: Mole fraction of dichloromethane (Liquid mixture 1); method: Chromatography
Temperature, K	Mole fraction of dichloromethane	uncertainty
283.9	0.00323	0.0004
293.1	0.00313	0.00018
302.1	0.00234	0.00046

System: toluene + water; phases: Liquid mixture 1, Liquid mixture 2
Fixed: Pressure, kPa = 101
Property: Mole fraction of toluene (Liquid mixture 1); method: Chromatography
Temperature, K	Mole fraction of toluene	uncertainty
288.5	0.000137	8e-06
292.6	0.000138	6e-06
301.8	0.000151	1.2e-05

System: pentane + water; phases: Liquid mixture 1, Liquid mixture 2
Fixed: Pressure, kPa = 101
Property: Mole fraction of pentane (Liquid mixture 1); method: Chromatography
Temperature, K	Mole fraction of pentane	uncertainty
285.1	7.52e-05	8.4e-06
293.2	6.66e-05	6.6e-06
300.2	6.28e-05	7.8e-06
