Measured thermophysical data. Experimental and predicted vapour liquid equilibrium of 1,4-dioxane with cycloalkanes and benzene
Source: Fluid Phase Equilib., 2005, 10.1016/j.fluid.2005.09.010
Compound 1: 1,4-dioxane, C4H8O2, InChI=1S/C4H8O2/c1-2-6-4-3-5-1/h1-4H2
Compound 2: cyclopentane, C5H10, InChI=1S/C5H10/c1-2-4-5-3-1/h1-5H2
Compound 3: cyclohexane, C6H12, InChI=1S/C6H12/c1-2-4-6-5-3-1/h1-6H2
Compound 4: benzene, C6H6, InChI=1S/C6H6/c1-2-4-6-5-3-1/h1-6H

System: 1,4-dioxane; phases: Liquid
Property: Mass density, kg/m3 (Liquid); method: VIBTUB:UFactor:4
Temperature, K	Pressure, kPa	Mass density, kg/m3	uncertainty
298.15	101.325	1027.85	0.23

System: 1,4-dioxane; phases: Liquid, Gas
Property: Vapor or sublimation pressure, kPa (Liquid); method: EBULLIO:UFactor:8
Temperature, K	Vapor or sublimation pressure, kPa	uncertainty
375.52	101.3	4.1

System: cyclopentane; phases: Liquid
Property: Mass density, kg/m3 (Liquid); method: VIBTUB:UFactor:4
Temperature, K	Pressure, kPa	Mass density, kg/m3	uncertainty
298.15	101.325	739.74	0.79

System: cyclopentane; phases: Liquid, Gas
Property: Vapor or sublimation pressure, kPa (Liquid); method: EBULLIO:UFactor:8
Temperature, K	Vapor or sublimation pressure, kPa	uncertainty
322.4	101.3	4.1

System: cyclohexane; phases: Liquid
Property: Mass density, kg/m3 (Liquid); method: VIBTUB:UFactor:2
Temperature, K	Pressure, kPa	Mass density, kg/m3	uncertainty
298.15	101.325	773.65	0.32

System: cyclohexane; phases: Liquid, Gas
Property: Vapor or sublimation pressure, kPa (Liquid); method: EBULLIO:UFactor:8
Temperature, K	Vapor or sublimation pressure, kPa	uncertainty
353.85	101.3	4.1

System: benzene; phases: Liquid
Property: Mass density, kg/m3 (Liquid); method: VIBTUB:UFactor:2
Temperature, K	Pressure, kPa	Mass density, kg/m3	uncertainty
298.15	101.325	873.55	0.22

System: benzene; phases: Liquid, Gas
Property: Vapor or sublimation pressure, kPa (Liquid); method: EBULLIO:UFactor:8
Temperature, K	Vapor or sublimation pressure, kPa	uncertainty
353.2	101.3	4.1

System: 1,4-dioxane + cyclopentane; phases: Liquid, Gas
Property: Boiling temperature at pressure P, K (Liquid); method: EBULLIO:UFactor:8
Mole fraction of 1,4-dioxane	Pressure, kPa	Boiling temperature at pressure P, K	uncertainty
0	101.3	322.4	0.45
0.0518	101.3	323.32	0.45
0.0521	66.6	311.08	0.44
0.0585	40	298	0.44
0.1024	101.3	324.13	0.45
0.1051	66.6	311.83	0.44
0.1066	40	298.41	0.45
0.2029	40	299.71	0.46
0.2033	101.3	325.5	0.45
0.2077	66.6	313.29	0.44
0.3097	101.3	327.13	0.46
0.3163	66.6	314.81	0.44
0.3294	40	301.27	0.46
0.4187	66.6	316.24	0.46
0.4213	101.3	329.06	0.47
0.4317	40	302.36	0.46
0.5183	101.3	330.82	0.48
0.5225	66.6	318.13	0.46
0.53	40	304.02	0.47
0.6106	40	305.78	0.46
0.636	101.3	334	0.51
0.6378	66.6	320.64	0.46
0.72	101.3	337.67	0.52
0.7285	66.6	324.01	0.49
0.7359	40	309.63	0.46
0.8144	101.3	342.63	0.55
0.8231	66.6	329.7	0.48
0.8303	40	315.27	0.48
0.8851	40	320.28	0.5
0.8944	66.6	336.55	0.47
0.9	101.3	351.55	0.52
0.9094	40	323.31	0.5
0.9098	66.6	338.81	0.51
0.9206	101.3	354.51	0.52
0.943	66.6	344.91	0.5
0.9439	40	330.05	0.49
0.9617	101.3	362.84	0.5
0.9698	66.6	351.41	0.48
0.976	40	338.06	0.49
0.977	101.3	366.85	0.5
0.9892	40	342.24	0.51
0.9914	66.6	358.09	0.49
0.9914	101.3	371.58	0.5

System: 1,4-dioxane + cyclopentane; phases: Gas, Liquid
Property: Mole fraction of 1,4-dioxane (Gas); method: Density calibration data
Mole fraction of 1,4-dioxane	Pressure, kPa	Mole fraction of 1,4-dioxane	uncertainty
0.0518	101.3	0.0244	0.0107
0.0521	66.6	0.023	0.0107
0.0585	40	0.021	0.0112
0.1024	101.3	0.0442	0.0105
0.1051	66.6	0.042	0.0104
0.1066	40	0.0453	0.0103
0.2029	40	0.0605	0.0101
0.2033	101.3	0.074	0.0103
0.2077	66.6	0.068	0.0103
0.3097	101.3	0.0989	0.0102
0.3163	66.6	0.0899	0.0102
0.3294	40	0.0836	0.0101
0.4187	66.6	0.1063	0.0102
0.4213	101.3	0.1219	0.0102
0.4317	40	0.0971	0.0101
0.5183	101.3	0.1449	0.0104
0.5225	66.6	0.1293	0.0103
0.53	40	0.114	0.0102
0.6106	40	0.1315	0.0104
0.636	101.3	0.1794	0.0108
0.6378	66.6	0.159	0.0105
0.72	101.3	0.2283	0.0117
0.7285	66.6	0.1952	0.0117
0.7359	40	0.1707	0.0111
0.8144	101.3	0.2862	0.0149
0.8231	66.6	0.2696	0.0143
0.8303	40	0.2413	0.0137
0.8851	40	0.3135	0.0189
0.8944	66.6	0.3706	0.0282
0.9	101.3	0.4279	0.0308
0.9094	40	0.3728	0.034
0.9098	66.6	0.4111	0.0364
0.9206	101.3	0.4878	0.0412
0.943	66.6	0.5351	0.0474
0.9439	40	0.5021	0.0526
0.9617	101.3	0.6697	0.051
0.9698	66.6	0.7018	0.0725
0.976	40	0.7179	0.076
0.977	101.3	0.778	0.0843
0.9892	40	0.8516	0.1018
0.9914	66.6	0.8958	0.0769
0.9914	101.3	0.9186	0.0814

System: cyclohexane + 1,4-dioxane; phases: Liquid, Gas
Property: Boiling temperature at pressure P, K (Liquid); method: EBULLIO:UFactor:8
Mole fraction of 1,4-dioxane	Pressure, kPa	Boiling temperature at pressure P, K	uncertainty
0	101.3	353.85	0.49
0.048	101.3	353.39	0.49
0.0484	66.6	340.03	0.47
0.0491	40	325.57	0.48
0.1433	40	325.16	0.48
0.1456	101.3	352.54	0.48
0.1458	66.6	339.56	0.46
0.1822	101.3	352.64	0.48
0.1847	40	325.16	0.48
0.1847	66.6	339.53	0.47
0.252	40	325.29	0.47
0.2535	101.3	352.62	0.48
0.2556	66.6	339.57	0.46
0.3395	101.3	352.89	0.48
0.3437	66.6	339.75	0.46
0.3521	40	325.84	0.47
0.4079	101.3	353.19	0.47
0.4187	40	326.04	0.48
0.4192	66.6	340.36	0.46
0.4826	101.3	353.73	0.48
0.4999	66.6	341.09	0.46
0.5029	40	326.68	0.48
0.5339	40	327	0.48
0.5549	101.3	355.13	0.49
0.5593	66.6	341.48	0.47
0.6053	101.3	355.17	0.49
0.6328	40	327.9	0.48
0.6359	66.6	342.58	0.47
0.6833	101.3	356.97	0.49
0.6865	66.6	343.74	0.47
0.6924	40	329.22	0.48
0.8212	66.6	347.42	0.47
0.8263	101.3	360.99	0.5
0.8372	40	333.64	0.48
0.8713	40	334.82	0.48
0.8771	66.6	350.07	0.47
0.8831	101.3	363.27	0.49
0.9219	66.6	353.28	0.47
0.9221	101.3	366.23	0.48
0.9267	40	338.66	0.49
0.9527	40	341.2	0.49
0.9564	66.6	356.11	0.47
0.957	101.3	369.18	0.47

System: cyclohexane + 1,4-dioxane; phases: Gas, Liquid
Property: Mole fraction of 1,4-dioxane (Gas); method: Density calibration data
Mole fraction of 1,4-dioxane	Pressure, kPa	Mole fraction of 1,4-dioxane	uncertainty
0.048	101.3	0.0625	0.0137
0.0484	66.6	0.0643	0.0136
0.0491	40	0.0644	0.0135
0.1433	40	0.1492	0.013
0.1456	101.3	0.154	0.0134
0.1458	66.6	0.153	0.0132
0.1822	101.3	0.1804	0.0119
0.1847	40	0.1762	0.0115
0.1847	66.6	0.1795	0.0117
0.252	40	0.2119	0.011
0.2535	101.3	0.2235	0.0114
0.2556	66.6	0.2196	0.0112
0.3395	101.3	0.2662	0.0111
0.3437	66.6	0.26	0.0109
0.3521	40	0.2547	0.0108
0.4079	101.3	0.2989	0.011
0.4187	40	0.2794	0.0106
0.4192	66.6	0.2919	0.0109
0.4826	101.3	0.3333	0.0111
0.4999	66.6	0.327	0.0108
0.5029	40	0.3097	0.0107
0.5339	40	0.3231	0.011
0.5549	101.3	0.3689	0.011
0.5593	66.6	0.3506	0.0107
0.6053	101.3	0.3884	0.0113
0.6328	40	0.3703	0.011
0.6359	66.6	0.3792	0.0116
0.6833	101.3	0.4345	0.0127
0.6865	66.6	0.4268	0.0127
0.6924	40	0.3942	0.0126
0.8212	66.6	0.5241	0.0133
0.8263	101.3	0.5589	0.0143
0.8372	40	0.5221	0.0205
0.8713	40	0.5833	0.0213
0.8771	66.6	0.6063	0.0208
0.8831	101.3	0.6445	0.0205
0.9219	66.6	0.7097	0.027
0.9221	101.3	0.7328	0.0265
0.9267	40	0.6896	0.0258
0.9527	40	0.7843	0.0378
0.9564	66.6	0.8088	0.0302
0.957	101.3	0.8264	0.0286

System: benzene + 1,4-dioxane; phases: Liquid, Gas
Property: Boiling temperature at pressure P, K (Liquid); method: EBULLIO:UFactor:8
Mole fraction of 1,4-dioxane	Pressure, kPa	Boiling temperature at pressure P, K	uncertainty
0	101.3	353.2	0.46
0.0481	101.3	353.63	0.47
0.0516	66.6	340.91	0.47
0.0527	40	326.27	0.49
0.1135	101.3	354.55	0.47
0.1141	40	327.17	0.48
0.1166	66.6	341.67	0.46
0.2051	101.3	356.12	0.48
0.2169	66.6	343.08	0.46
0.219	40	329.01	0.47
0.3043	40	330.29	0.47
0.3129	66.6	344.58	0.47
0.3149	101.3	358.08	0.49
0.4085	40	332.27	0.48
0.415	101.3	359.97	0.48
0.4209	66.6	346.75	0.47
0.5008	101.3	361.54	0.48
0.5137	66.6	348.75	0.47
0.5191	40	334.36	0.48
0.599	40	336.06	0.48
0.6086	66.6	350.66	0.46
0.6106	101.3	363.77	0.48
0.7002	40	338.32	0.48
0.7083	101.3	365.96	0.48
0.7093	66.6	352.9	0.46
0.7973	101.3	368.27	0.49
0.8016	66.6	355.14	0.47
0.8106	40	340.65	0.48
0.8839	66.6	357.56	0.47
0.8868	101.3	370.86	0.49
0.8925	40	343.11	0.49
0.9217	101.3	372.26	0.5
0.9368	66.6	359.19	0.47
0.9404	40	344.78	0.49
1	101.3	375.52	0.5

System: benzene + 1,4-dioxane; phases: Gas, Liquid
Property: Mole fraction of 1,4-dioxane (Gas); method: Density calibration data
Mole fraction of 1,4-dioxane	Pressure, kPa	Mole fraction of 1,4-dioxane	uncertainty
0.0481	101.3	0.0274	0.0116
0.0516	66.6	0.0291	0.0114
0.0527	40	0.0265	0.0111
0.1135	101.3	0.0658	0.0118
0.1141	40	0.0562	0.0115
0.1166	66.6	0.064	0.0116
0.2051	101.3	0.1248	0.0119
0.2169	66.6	0.1236	0.0118
0.219	40	0.1209	0.0117
0.3043	40	0.1714	0.012
0.3129	66.6	0.1861	0.0122
0.3149	101.3	0.1969	0.0123
0.4085	40	0.2459	0.0127
0.415	101.3	0.2754	0.0128
0.4209	66.6	0.2643	0.0127
0.5008	101.3	0.3461	0.0132
0.5137	66.6	0.342	0.0135
0.5191	40	0.3385	0.0132
0.599	40	0.4112	0.0142
0.6086	66.6	0.4339	0.0142
0.6106	101.3	0.445	0.0139
0.7002	40	0.5204	0.0155
0.7083	101.3	0.5459	0.0152
0.7093	66.6	0.5394	0.0154
0.7973	101.3	0.6596	0.0173
0.8016	66.6	0.6589	0.0171
0.8106	40	0.6621	0.0167
0.8839	66.6	0.7827	0.0186
0.8868	101.3	0.7976	0.0191
0.8925	40	0.7793	0.0191
0.9217	101.3	0.8645	0.0216
0.9368	66.6	0.874	0.0205
0.9404	40	0.8772	0.0228
