Measured thermophysical data. Liquid liquid equilibria of lactam containing binary systems
Source: Fluid Phase Equilib., 2008, 10.1016/j.fluid.2008.02.008
Compound 1: N-methylpyrrolidone, C5H9NO, InChI=1S/C5H9NO/c1-6-4-2-3-5(6)7/h2-4H2,1H3
Compound 2: hexane, C6H14, InChI=1S/C6H14/c1-3-5-6-4-2/h3-6H2,1-2H3
Compound 3: octane, C8H18, InChI=1S/C8H18/c1-3-5-7-8-6-4-2/h3-8H2,1-2H3
Compound 4: decane, C10H22, InChI=1S/C10H22/c1-3-5-7-9-10-8-6-4-2/h3-10H2,1-2H3
Compound 5: cyclohexane, C6H12, InChI=1S/C6H12/c1-2-4-6-5-3-1/h1-6H2
Compound 6: cyclooctane, C8H16, InChI=1S/C8H16/c1-2-4-6-8-7-5-3-1/h1-8H2
Compound 7: 2,2,4-trimethylpentane, C8H18, InChI=1S/C8H18/c1-7(2)6-8(3,4)5/h7H,6H2,1-5H3
Compound 8: 2-methylpentane, C6H14, InChI=1S/C6H14/c1-4-5-6(2)3/h6H,4-5H2,1-3H3
Compound 9: 3-methylpentane, C6H14, InChI=1S/C6H14/c1-4-6(3)5-2/h6H,4-5H2,1-3H3
Compound 10: 2,2-dimethylbutane, C6H14, InChI=1S/C6H14/c1-5-6(2,3)4/h5H2,1-4H3
Compound 11: 2,3-dimethylbutane, C6H14, InChI=1S/C6H14/c1-5(2)6(3)4/h5-6H,1-4H3
Compound 12: N-cyclohexylpyrrolidinone, C10H17NO, InChI=1S/C10H17NO/c12-10-7-4-8-11(10)9-5-2-1-3-6-9/h9H,1-8H2
Compound 13: water, H2O, InChI=1S/H2O/h1H2

System: N-methylpyrrolidone; phases: Liquid
Property: Refractive index (Na D-line) (Liquid); method: Standard Abbe refractometry
Temperature, K	Pressure, kPa	Refractive index (Na D-line)	uncertainty
298.15	101.325	1.46876	0.00075

System: N-methylpyrrolidone; phases: Liquid
Property: Mass density, kg/m3 (Liquid); method: Pycnometric method
Temperature, K	Pressure, kPa	Mass density, kg/m3	uncertainty
298.15	101.325	1027.878	1.056

System: N-methylpyrrolidone; phases: Liquid
Property: Speed of sound, m/s (Liquid); method: Sing-around technique in a fixed-path interferometer
Temperature, K	Pressure, kPa	Speed of sound, m/s	uncertainty
298.15	101.325	1545	1.5

System: hexane; phases: Liquid
Property: Refractive index (Na D-line) (Liquid); method: Standard Abbe refractometry
Temperature, K	Pressure, kPa	Refractive index (Na D-line)	uncertainty
298.15	101.325	1.37237	0.00075

System: hexane; phases: Liquid
Property: Mass density, kg/m3 (Liquid); method: Pycnometric method
Temperature, K	Pressure, kPa	Mass density, kg/m3	uncertainty
298.15	101.325	654.961	0.625

System: hexane; phases: Liquid
Property: Speed of sound, m/s (Liquid); method: Sing-around technique in a fixed-path interferometer
Temperature, K	Pressure, kPa	Speed of sound, m/s	uncertainty
298.15	101.325	1077.57	1.34

System: octane; phases: Liquid
Property: Refractive index (Na D-line) (Liquid); method: Standard Abbe refractometry
Temperature, K	Pressure, kPa	Refractive index (Na D-line)	uncertainty
298.15	101.325	1.39538	0.00073

System: octane; phases: Liquid
Property: Mass density, kg/m3 (Liquid); method: Pycnometric method
Temperature, K	Pressure, kPa	Mass density, kg/m3	uncertainty
298.15	101.325	698.638	0.634

System: octane; phases: Liquid
Property: Speed of sound, m/s (Liquid); method: Sing-around technique in a fixed-path interferometer
Temperature, K	Pressure, kPa	Speed of sound, m/s	uncertainty
298.15	101.325	1170.38	1.06

System: decane; phases: Liquid
Property: Refractive index (Na D-line) (Liquid); method: Standard Abbe refractometry
Temperature, K	Pressure, kPa	Refractive index (Na D-line)	uncertainty
298.15	101.325	1.4099	0.00075

System: decane; phases: Liquid
Property: Mass density, kg/m3 (Liquid); method: Pycnometric method
Temperature, K	Pressure, kPa	Mass density, kg/m3	uncertainty
298.15	101.325	726.176	0.704

System: decane; phases: Liquid
Property: Speed of sound, m/s (Liquid); method: Sing-around technique in a fixed-path interferometer
Temperature, K	Pressure, kPa	Speed of sound, m/s	uncertainty
298.15	101.325	1232.47	1.38

System: cyclohexane; phases: Liquid
Property: Refractive index (Na D-line) (Liquid); method: Standard Abbe refractometry
Temperature, K	Pressure, kPa	Refractive index (Na D-line)	uncertainty
298.15	101.325	1.42378	0.00072

System: cyclohexane; phases: Liquid
Property: Mass density, kg/m3 (Liquid); method: Pycnometric method
Temperature, K	Pressure, kPa	Mass density, kg/m3	uncertainty
298.15	101.325	773.948	0.694

System: cyclohexane; phases: Liquid
Property: Speed of sound, m/s (Liquid); method: Sing-around technique in a fixed-path interferometer
Temperature, K	Pressure, kPa	Speed of sound, m/s	uncertainty
298.15	101.325	1254.9	0.97

System: cyclooctane; phases: Liquid
Property: Refractive index (Na D-line) (Liquid); method: Standard Abbe refractometry
Temperature, K	Pressure, kPa	Refractive index (Na D-line)	uncertainty
298.15	101.325	1.45624	0.00075

System: cyclooctane; phases: Liquid
Property: Mass density, kg/m3 (Liquid); method: Pycnometric method
Temperature, K	Pressure, kPa	Mass density, kg/m3	uncertainty
298.15	101.325	830.967	0.823

System: cyclooctane; phases: Liquid
Property: Speed of sound, m/s (Liquid); method: Sing-around technique in a fixed-path interferometer
Temperature, K	Pressure, kPa	Speed of sound, m/s	uncertainty
298.15	101.325	1387.82	1.43

System: 2,2,4-trimethylpentane; phases: Liquid
Property: Refractive index (Na D-line) (Liquid); method: Standard Abbe refractometry
Temperature, K	Pressure, kPa	Refractive index (Na D-line)	uncertainty
298.15	101.325	1.38917	0.00073

System: 2,2,4-trimethylpentane; phases: Liquid
Property: Mass density, kg/m3 (Liquid); method: Pycnometric method
Temperature, K	Pressure, kPa	Mass density, kg/m3	uncertainty
298.15	101.325	687.817	0.624

System: 2,2,4-trimethylpentane; phases: Liquid
Property: Speed of sound, m/s (Liquid); method: Sing-around technique in a fixed-path interferometer
Temperature, K	Pressure, kPa	Speed of sound, m/s	uncertainty
298.15	101.325	1082.58	1.02

System: 2-methylpentane; phases: Liquid
Property: Refractive index (Na D-line) (Liquid); method: Standard Abbe refractometry
Temperature, K	Pressure, kPa	Refractive index (Na D-line)	uncertainty
298.15	101.325	1.36893	0.00075

System: 2-methylpentane; phases: Liquid
Property: Mass density, kg/m3 (Liquid); method: Pycnometric method
Temperature, K	Pressure, kPa	Mass density, kg/m3	uncertainty
298.15	101.325	648.614	0.619

System: 2-methylpentane; phases: Liquid
Property: Speed of sound, m/s (Liquid); method: Sing-around technique in a fixed-path interferometer
Temperature, K	Pressure, kPa	Speed of sound, m/s	uncertainty
298.15	101.325	1082.58	1.34

System: 3-methylpentane; phases: Liquid
Property: Refractive index (Na D-line) (Liquid); method: Standard Abbe refractometry
Temperature, K	Pressure, kPa	Refractive index (Na D-line)	uncertainty
298.15	101.325	1.37399	0.00075

System: 3-methylpentane; phases: Liquid
Property: Mass density, kg/m3 (Liquid); method: Pycnometric method
Temperature, K	Pressure, kPa	Mass density, kg/m3	uncertainty
298.15	101.325	659.806	0.631

System: 3-methylpentane; phases: Liquid
Property: Speed of sound, m/s (Liquid); method: Sing-around technique in a fixed-path interferometer
Temperature, K	Pressure, kPa	Speed of sound, m/s	uncertainty
298.15	101.325	1072.06	1.34

System: 2,2-dimethylbutane; phases: Liquid
Property: Refractive index (Na D-line) (Liquid); method: Standard Abbe refractometry
Temperature, K	Pressure, kPa	Refractive index (Na D-line)	uncertainty
298.15	101.325	1.36608	0.00075

System: 2,2-dimethylbutane; phases: Liquid
Property: Mass density, kg/m3 (Liquid); method: Pycnometric method
Temperature, K	Pressure, kPa	Mass density, kg/m3	uncertainty
298.15	101.325	644.43	0.614

System: 2,2-dimethylbutane; phases: Liquid
Property: Speed of sound, m/s (Liquid); method: Sing-around technique in a fixed-path interferometer
Temperature, K	Pressure, kPa	Speed of sound, m/s	uncertainty
298.15	101.325	999.69	1.32

System: 2,3-dimethylbutane; phases: Liquid
Property: Refractive index (Na D-line) (Liquid); method: Standard Abbe refractometry
Temperature, K	Pressure, kPa	Refractive index (Na D-line)	uncertainty
298.15	101.325	1.37275	0.00094

System: 2,3-dimethylbutane; phases: Liquid
Property: Mass density, kg/m3 (Liquid); method: Pycnometric method
Temperature, K	Pressure, kPa	Mass density, kg/m3	uncertainty
298.15	101.325	658.562	1.338

System: 2,3-dimethylbutane; phases: Liquid
Property: Speed of sound, m/s (Liquid); method: Sing-around technique in a fixed-path interferometer
Temperature, K	Pressure, kPa	Speed of sound, m/s	uncertainty
298.15	101.325	1047.1	3.1

System: N-cyclohexylpyrrolidinone; phases: Liquid
Property: Refractive index (Na D-line) (Liquid); method: Standard Abbe refractometry
Temperature, K	Pressure, kPa	Refractive index (Na D-line)	uncertainty
298.15	101.325	1.4975	0.00082

System: N-cyclohexylpyrrolidinone; phases: Liquid
Property: Mass density, kg/m3 (Liquid); method: Pycnometric method
Temperature, K	Pressure, kPa	Mass density, kg/m3	uncertainty
298.15	101.325	1025.559	1.666

System: N-cyclohexylpyrrolidinone; phases: Liquid
Property: Speed of sound, m/s (Liquid); method: Sing-around technique in a fixed-path interferometer
Temperature, K	Pressure, kPa	Speed of sound, m/s	uncertainty
298.15	101.325	1555.69	2.28

System: water; phases: Liquid
Property: Refractive index (Na D-line) (Liquid); method: Standard Abbe refractometry
Temperature, K	Pressure, kPa	Refractive index (Na D-line)	uncertainty
298.15	101.325	1.3325	0.00075

System: water; phases: Liquid
Property: Mass density, kg/m3 (Liquid); method: Pycnometric method
Temperature, K	Pressure, kPa	Mass density, kg/m3	uncertainty
298.15	101.325	997.04	1.019

System: water; phases: Liquid
Property: Speed of sound, m/s (Liquid); method: Sing-around technique in a fixed-path interferometer
Temperature, K	Pressure, kPa	Speed of sound, m/s	uncertainty
298.15	101.325	1497	1.5

System: hexane + N-methylpyrrolidone; phases: Liquid mixture 1, Liquid mixture 2
Fixed: Pressure, kPa = 101
Property: Liquid-liquid equilibrium temperature, K (Liquid mixture 1); method: VISOBS:UFactor:2
Mole fraction of N-methylpyrrolidone	Liquid-liquid equilibrium temperature, K	uncertainty
0.0559	284.92	0.43
0.0727	291.08	0.39
0.1076	300.87	0.36
0.1592	310.61	0.33
0.211	316.61	0.32
0.2757	320.93	0.31
0.3373	322.55	0.31
0.3991	322.98	0.31
0.4578	323.53	0.31
0.5165	322.94	0.31
0.5663	322.34	0.31
0.6255	320.36	0.31
0.7051	315.36	0.32
0.7304	312.54	0.33
0.7568	308.89	0.34
0.8028	300.41	0.35
0.831	293.67	0.38
0.8542	286.23	0.4

System: octane + N-methylpyrrolidone; phases: Liquid mixture 1, Liquid mixture 2
Fixed: Pressure, kPa = 101
Property: Liquid-liquid equilibrium temperature, K (Liquid mixture 1); method: VISOBS:UFactor:2
Mole fraction of N-methylpyrrolidone	Liquid-liquid equilibrium temperature, K	uncertainty
0.133	304.98	0.35
0.1723	312.76	0.34
0.2112	317.92	0.32
0.2502	321.71	0.32
0.2863	324.97	0.31
0.3578	327.25	0.31
0.4224	329.18	0.31
0.4835	329.32	0.31
0.5435	329.54	0.31
0.5992	329.14	0.31
0.6524	328.48	0.31
0.7014	326.89	0.31
0.7597	323.06	0.32
0.7928	319.45	0.32
0.8146	316.45	0.33
0.8345	312.81	0.35
0.855	308.27	0.37
0.8753	302.85	0.39
0.894	296.49	0.44
0.9127	288.51	0.49
0.93	279.4	0.52

System: decane + N-methylpyrrolidone; phases: Liquid mixture 1, Liquid mixture 2
Fixed: Pressure, kPa = 101
Property: Liquid-liquid equilibrium temperature, K (Liquid mixture 1); method: VISOBS:UFactor:2
Mole fraction of N-methylpyrrolidone	Liquid-liquid equilibrium temperature, K	uncertainty
0.1068	309.35	0.33
0.1404	314.62	0.33
0.1888	321.13	0.33
0.2338	326.31	0.32
0.3167	333.13	0.31
0.4021	336.54	0.31
0.5023	338.62	0.31
0.5622	338.65	0.31
0.6185	338.59	0.31
0.6927	337.07	0.31
0.7594	334.89	0.31
0.8121	331.73	0.32
0.8404	328.1	0.33
0.8574	324.94	0.35
0.8769	320.7	0.36
0.8941	316.12	0.4
0.9109	310.2	0.44
0.9268	303.27	0.52
0.9424	293.88	0.57

System: cyclohexane + N-methylpyrrolidone; phases: Liquid mixture 1, Liquid mixture 2
Fixed: Pressure, kPa = 101
Property: Liquid-liquid equilibrium temperature, K (Liquid mixture 1); method: VISOBS:UFactor:2
Mole fraction of N-methylpyrrolidone	Liquid-liquid equilibrium temperature, K	uncertainty
0.1216	280.79	0.37
0.1339	283.93	0.34
0.1511	286.33	0.32
0.1672	287.3	0.32
0.1818	288.52	0.31
0.211	289.12	0.31
0.2844	289.26	0.31
0.327	289.36	0.31
0.3842	289.32	0.31
0.4399	289.1	0.31
0.4977	288.59	0.31
0.5536	287.73	0.31
0.5815	286.38	0.31
0.6097	284.81	0.31
0.6352	283.21	0.31
0.6625	281.51	0.31

System: cyclooctane + N-methylpyrrolidone; phases: Liquid mixture 1, Liquid mixture 2
Fixed: Pressure, kPa = 101
Property: Liquid-liquid equilibrium temperature, K (Liquid mixture 1); method: VISOBS:UFactor:2
Mole fraction of N-methylpyrrolidone	Liquid-liquid equilibrium temperature, K	uncertainty
0.1308	279.89	0.32
0.1826	285.17	0.32
0.2512	288.66	0.31
0.3173	289.9	0.31
0.3805	290.24	0.31
0.4404	290.35	0.31
0.4986	290.01	0.31
0.5548	289.65	0.31
0.6089	288.72	0.31
0.6619	287.03	0.31
0.7109	284.07	0.32
0.7587	279.68	0.32

System: 2-methylpentane + N-methylpyrrolidone; phases: Liquid mixture 1, Liquid mixture 2
Fixed: Pressure, kPa = 101
Property: Liquid-liquid equilibrium temperature, K (Liquid mixture 1); method: VISOBS:UFactor:2
Mole fraction of N-methylpyrrolidone	Liquid-liquid equilibrium temperature, K	uncertainty
0.0758	288.04	0.49
0.0968	298.09	0.45
0.1181	305.05	0.38
0.1441	310.69	0.34
0.1936	318.28	0.32
0.2464	322.72	0.31
0.2993	324.89	0.31
0.3503	325.81	0.31
0.4006	325.89	0.31
0.4469	325.87	0.31
0.4687	325.71	0.31
0.508	325.41	0.31
0.5483	324.87	0.31
0.5965	323.56	0.31
0.6496	321.12	0.31
0.7059	316.84	0.32
0.7512	310.5	0.34
0.7991	301.32	0.35
0.8253	295.02	0.37
0.8495	288.19	0.39
0.8712	281.03	0.41

System: 3-methylpentane + N-methylpyrrolidone; phases: Liquid mixture 1, Liquid mixture 2
Fixed: Pressure, kPa = 101
Property: Liquid-liquid equilibrium temperature, K (Liquid mixture 1); method: VISOBS:UFactor:2
Mole fraction of N-methylpyrrolidone	Liquid-liquid equilibrium temperature, K	uncertainty
0.0987	289.34	0.49
0.1182	298.73	0.41
0.1466	306.06	0.35
0.175	310.32	0.33
0.2081	314.06	0.32
0.2467	316.52	0.31
0.2964	318.47	0.31
0.3193	318.88	0.31
0.3469	319.24	0.31
0.395	319.4	0.31
0.4458	319.42	0.31
0.495	319.12	0.31
0.5428	318.71	0.31
0.5947	317.53	0.31
0.6481	314.81	0.31
0.7019	310.41	0.32
0.7529	303.57	0.33
0.7908	296.36	0.35
0.8219	289.01	0.37
0.8465	282.36	0.38

System: 2,2,4-trimethylpentane + N-methylpyrrolidone; phases: Liquid mixture 1, Liquid mixture 2
Fixed: Pressure, kPa = 101
Property: Liquid-liquid equilibrium temperature, K (Liquid mixture 1); method: VISOBS:UFactor:2
Mole fraction of N-methylpyrrolidone	Liquid-liquid equilibrium temperature, K	uncertainty
0.0675	286.52	0.4
0.0995	296.66	0.38
0.1365	305.16	0.35
0.1804	312.39	0.33
0.2148	316.99	0.32
0.2799	322.64	0.32
0.3199	324.76	0.31
0.3589	326.08	0.31
0.3962	326.93	0.31
0.4386	326.96	0.31
0.4595	327.06	0.31
0.4794	327	0.31
0.4999	327.15	0.31
0.5497	326.95	0.31
0.604	326.65	0.31
0.6485	325.96	0.31
0.7038	323.66	0.31
0.761	319.4	0.32
0.795	315.01	0.33
0.8305	308.42	0.36
0.8616	299.57	0.39
0.8952	288.75	0.4

System: 2,2-dimethylbutane + N-methylpyrrolidone; phases: Liquid mixture 1, Liquid mixture 2
Fixed: Pressure, kPa = 101
Property: Liquid-liquid equilibrium temperature, K (Liquid mixture 1); method: VISOBS:UFactor:2
Mole fraction of N-methylpyrrolidone	Liquid-liquid equilibrium temperature, K	uncertainty
0.069	281.15	0.64
0.0817	290.06	0.5
0.1031	298.37	0.42
0.1219	304.12	0.36
0.1485	309.34	0.33
0.2001	316.14	0.32
0.2501	320.03	0.31
0.2974	321.94	0.31
0.3497	322.74	0.31
0.3972	322.87	0.31
0.4495	322.71	0.31
0.4911	322.4	0.31
0.5549	321.48	0.31
0.6011	319.87	0.31
0.6509	317.18	0.32
0.7121	310.72	0.33
0.7616	303.02	0.34
0.8053	293.98	0.36
0.8293	287.06	0.38
0.855	279.88	0.38

System: 2,3-dimethylbutane + N-methylpyrrolidone; phases: Liquid mixture 1, Liquid mixture 2
Fixed: Pressure, kPa = 101
Property: Liquid-liquid equilibrium temperature, K (Liquid mixture 1); method: VISOBS:UFactor:2
Mole fraction of N-methylpyrrolidone	Liquid-liquid equilibrium temperature, K	uncertainty
0.0736	283.2	0.4
0.0969	290.65	0.38
0.1189	296.08	0.36
0.146	301.74	0.34
0.1944	308.39	0.32
0.2436	312.44	0.31
0.2951	314.64	0.31
0.3439	315.45	0.31
0.3897	315.78	0.31
0.418	315.97	0.31
0.4432	315.97	0.31
0.4846	316.03	0.31
0.5432	315.7	0.31
0.5964	314.27	0.31
0.6493	311.45	0.31
0.6992	307.22	0.32
0.7509	300.37	0.33
0.7878	293.83	0.35
0.8205	286.23	0.36

System: N-cyclohexylpyrrolidinone + water; phases: Liquid mixture 1, Liquid mixture 2
Fixed: Pressure, kPa = 101
Property: Liquid-liquid equilibrium temperature, K (Liquid mixture 1); method: VISOBS:UFactor:2
Mole fraction of N-cyclohexylpyrrolidinone	Liquid-liquid equilibrium temperature, K	uncertainty
0.007	346.56	2.31
0.0072	341.78	4.79
0.008	335.11	0.84
0.0099	330.37	0.42
0.0138	326.65	0.33
0.0198	324.83	0.31
0.028	324.24	0.31
0.0333	323.99	0.31
0.0363	323.87	0.31
0.0452	324.05	0.31
0.0506	324.13	0.31
0.055	324.28	0.31
0.0609	324.57	0.31
0.0647	324.94	0.31
0.0687	325.25	0.31
0.072	325.59	0.31
0.0774	326.22	0.31
0.0857	327.39	0.31
0.0998	329.98	0.31
0.1113	332.53	0.31
0.1227	335.75	0.32
0.1382	341.07	0.32
0.1564	348.89	0.32
