Measured thermophysical data. Separation of CO2 and H2S using room-temperature ionic liquid [bmim][PF6]
Source: Fluid Phase Equilib., 2010, 10.1016/j.fluid.2010.01.013
Compound 1: hydrogen sulfide, H2S, InChI=1S/H2S/h1H2, purity 99.5%
Compound 2: carbon dioxide, CO2, InChI=1S/CO2/c2-1-3, purity 99.99%
Compound 3: 1-butyl-3-methylimidazolium hexafluorophosphate, C8H15F6N2P, InChI=1S/C8H15N2.F6P/c1-3-4-5-10-7-6-9(2)8-10;1-7(2,3,4,5)6/h6-8H,3-5H2,1-2H3;/q+1;-1, purity 99%

System: carbon dioxide + 1-butyl-3-methylimidazolium hexafluorophosphate; phases: Liquid mixture 1, Liquid mixture 2, Gas
Property: Mole fraction of carbon dioxide (Liquid mixture 1); method: volumetric method
Temperature, K	Mole fraction of carbon dioxide	uncertainty
283.1	0.611	0.002
293	0.597	0.002

System: hydrogen sulfide + 1-butyl-3-methylimidazolium hexafluorophosphate; phases: Liquid mixture 1, Liquid mixture 2, Gas
Property: Mole fraction of hydrogen sulfide (Liquid mixture 1); method: volumetric method
Temperature, K	Mole fraction of hydrogen sulfide	uncertainty
273.6	0.923	0.005
282.8	0.892	0.005
294.6	0.885	0.005
309.6	0.858	0.004
325.2	0.84	0.004
342.2	0.821	0.004

System: carbon dioxide + hydrogen sulfide + 1-butyl-3-methylimidazolium hexafluorophosphate; phases: Gas, Liquid
Property: Mole fraction of hydrogen sulfide (Gas); method: volumetric method
Temperature, K	Mole fraction of hydrogen sulfide	Mole fraction of 1-butyl-3-methylimidazolium hexafluorophosphate	Mole fraction of hydrogen sulfide	uncertainty
294.8	0.253	0.738	0.869	0.131
296	0.141	0.812	0.388	0.042
296	0.307	0.683	0.877	0.123
296	0.342	0.649	0.9	0.03
296.1	0.029	0.893	0.088	0.024
296.1	0.032	0.889	0.092	0.024
296.1	0.339	0.651	0.895	0.039
296.2	0.187	0.765	0.43	0.073
296.3	0.112	0.84	0.334	0.026
296.4	0.026	0.897	0.083	0.024
322.3	0.162	0.833	0.893	0.107
322.4	0.209	0.785	0.887	0.021
322.5	0.081	0.885	0.376	0.021
322.7	0.017	0.932	0.089	0.027
322.7	0.092	0.875	0.412	0.021
