Measured thermophysical data. Screening solvents to extract phenol from aqueous solutions by the COSMO-SAC model and extraction process simulation
Source: Fluid Phase Equilib., 2017, 10.1016/j.fluid.2017.08.007
Compound 1: 4-methyl-3-penten-2-one, C6H10O, InChI=1S/C6H10O/c1-5(2)4-6(3)7/h4H,1-3H3, purity 99%
Compound 2: 3,3-dimethyl-2-butanone, C6H12O, InChI=1S/C6H12O/c1-5(7)6(2,3)4/h1-4H3, purity 98%
Compound 3: 3-methyl-2-butanone, C5H10O, InChI=1S/C5H10O/c1-4(2)5(3)6/h4H,1-3H3, purity 99%
Compound 4: phenol, C6H6O, InChI=1S/C6H6O/c7-6-4-2-1-3-5-6/h1-5,7H, purity 99%
Compound 5: water, H2O, InChI=1S/H2O/h1H2, purity 99.8%

System: 3-methyl-2-butanone + phenol + water; phases: Liquid mixture 2, Liquid mixture 1
Fixed: Pressure, kPa = 101.3
Property: Mole fraction of phenol (Liquid mixture 2); method: Chromatography
Property: Mole fraction of 3-methyl-2-butanone (Liquid mixture 1); method: Chromatography
Property: Mole fraction of phenol (Liquid mixture 1); method: Chromatography
Temperature, K	Mole fraction of 3-methyl-2-butanone	Mole fraction of phenol	uncertainty	Mole fraction of 3-methyl-2-butanone	uncertainty	Mole fraction of phenol	uncertainty
333.2	0.69442	0.04816	0.00067	0.00428	0.00041	8e-05	
333.2	0.60029	0.09481	0.00084	0.00418	0.00044	0.00021	
333.2	0.5056	0.15783	0.00125	0.00386	0.00052	0.0006	
333.2	0.43542	0.19685	0.00155	0.0033	0.00051	0.00128	
333.2	0.36358	0.24535	0.00192	0.00275	0.00046	0.00202	
333.2	0.30429	0.2785	0.00217	0.00242	0.00046	0.00287	
333.2	0.23243	0.31338	0.00245	0.00151	0.00048	0.00435	
333.2	0.18241	0.33518	0.00262	0.00105	0.0005	0.00495	
343.2	0.65251	0.05101	0.00081	0.00495	0.00041	9e-05	
343.2	0.58573	0.09838	0.00086	0.00481	0.00047	0.00027	
343.2	0.52458	0.13737	0.0011	0.00461	0.00054	0.00051	
343.2	0.44368	0.19767	0.00155	0.00352	0.0005	0.00171	
343.2	0.28883	0.28647	0.00224	0.00225	0.00046	0.0037	
343.2	0.20493	0.31058	0.00246	0.00092	0.00053	0.00636	
343.2	0.12174	0.32154	0.00253	0.00055	0.0004	0.00679	
343.2	0.08294	0.3125	0.00242	0.00068	0.00041	0.00798	

System: 3,3-dimethyl-2-butanone + phenol + water; phases: Liquid mixture 2, Liquid mixture 1
Fixed: Pressure, kPa = 101.3
Property: Mole fraction of phenol (Liquid mixture 2); method: Chromatography
Property: Mole fraction of 3,3-dimethyl-2-butanone (Liquid mixture 1); method: Chromatography
Property: Mole fraction of phenol (Liquid mixture 1); method: Chromatography
Temperature, K	Mole fraction of 3,3-dimethyl-2-butanone	Mole fraction of phenol	uncertainty	Mole fraction of 3,3-dimethyl-2-butanone	uncertainty	Mole fraction of phenol	uncertainty
333.2	0.75377	0.05862	0.00065	0.00178	0.0004	8e-05	
333.2	0.61388	0.12968	0.00106	0.00149	0.00041	0.00038	
333.2	0.53176	0.17084	0.00138	0.00165	0.00043	0.00074	
333.2	0.46949	0.21436	0.00173	0.00132	0.00044	0.00125	
333.2	0.41413	0.24456	0.00194	0.0011	0.0004	0.00197	
333.2	0.34635	0.27081	0.00214	0.00115	0.0004	0.00292	
333.2	0.28994	0.29865	0.00234	0.00082	0.00041	0.00376	
333.2	0.23813	0.32366	0.00255	0.00065	0.00041	0.00479	
353.2	0.72314	0.0527	0.00061	0.0014	0.0004	0.0001	
353.2	0.57675	0.11932	0.00099	0.00139	0.00041	0.00038	
353.2	0.46952	0.16983	0.0014	0.00128	0.00041	0.00081	
353.2	0.37722	0.21955	0.00175	0.00106	0.0004	0.00187	
353.2	0.30836	0.25687	0.00203	0.00098	0.0004	0.00336	
353.2	0.2466	0.27653	0.00219	0.00066	0.0004	0.0058	
353.2	0.17483	0.29434	0.00233	0.00061	0.0004	0.00684	
353.2	0.13807	0.30638	0.00242	0.0005	0.0004	0.00836	

System: 4-methyl-3-penten-2-one + phenol + water; phases: Liquid mixture 2, Liquid mixture 1
Fixed: Pressure, kPa = 101.3
Property: Mole fraction of phenol (Liquid mixture 2); method: Chromatography
Property: Mole fraction of 4-methyl-3-penten-2-one (Liquid mixture 1); method: Chromatography
Property: Mole fraction of phenol (Liquid mixture 1); method: Chromatography
Temperature, K	Mole fraction of 4-methyl-3-penten-2-one	Mole fraction of phenol	uncertainty	Mole fraction of 4-methyl-3-penten-2-one	uncertainty	Mole fraction of phenol	uncertainty
333.2	0.80937	0.05636	0.00065	0.00216	0.00041	9e-05	
333.2	0.75061	0.08552	0.00081	0.00207	0.00044	0.0002	
333.2	0.61587	0.16337	0.00134	0.00169	0.00046	0.0006	
333.2	0.54187	0.21042	0.00169	0.0016	0.00046	0.00097	
333.2	0.45528	0.25438	0.00204	0.00132	0.00048	0.00148	
333.2	0.36456	0.29479	0.00234	0.00093	0.00042	0.002	
333.2	0.2893	0.32596	0.0026	0.00076	0.0004	0.00311	
333.2	0.21475	0.35882	0.00289	0.00057	0.0004	0.00532	
353.2	0.7957	0.03692	0.00059	0.00224	0.00041	7e-05	
353.2	0.72137	0.07688	0.00075	0.00215	0.00043	0.00018	
353.2	0.57788	0.14956	0.00126	0.002	0.00053	0.00038	
353.2	0.42023	0.2215	0.0018	0.00126	0.00046	0.00118	
353.2	0.29396	0.26706	0.00216	0.00103	0.00041	0.00202	
353.2	0.20846	0.28492	0.00233	0.00077	0.00041	0.00382	
353.2	0.15783	0.29582	0.0024	0.0004	0.0004	0.00436	
353.2	0.09779	0.29512	0.00337	0.00032	0.00032	0.00641	
