Measured thermophysical data. Thermodynamic study of (sodium bromide + monosodium aspartate + water) system based on potentiometric measurements at T = (298.2 and 310.2) K
Source: Fluid Phase Equilib., 2017, 10.1016/j.fluid.2017.04.016
Compound 1: sodium (S)-2-amino-3-carboxypropanoate, C4H6NNaO4, InChI=1S/C4H7NO4.Na/c5-2(4(8)9)1-3(6)7;/h2H,1,5H2,(H,6,7)(H,8,9);/q;+1/p-1/t2-;/m0./s1, purity 99%
Compound 2: sodium bromide, BrNa, InChI=1S/BrH.Na/h1H;/q;+1/p-1, purity 98%
Compound 3: water, H2O, InChI=1S/H2O/h1H2, purity 99.8%

System: sodium (S)-2-amino-3-carboxypropanoate + sodium bromide + water; phases: Liquid
Fixed: Pressure, kPa = 101
Property: Mean ionic activity coefficient of sodium bromide (Liquid); method: galvanic cell
Temperature, K	Molality, mol/kg of sodium bromide	Molality, mol/kg of sodium (S)-2-amino-3-carboxypropanoate	Mean ionic activity coefficient of sodium bromide	uncertainty
298.2	0.01	0	0.875	0.039
298.2	0.0508	0	0.835	0.039
298.2	0.1009	0	0.777	0.039
298.2	0.2509	0	0.799	0.039
298.2	0.5004	0	0.699	0.039
298.2	0.75	0	0.637	0.039
298.2	1.0001	0	0.612	0.039
298.2	1.25	0	0.587	0.039
298.2	1.5004	0	0.57	0.039
298.2	1.7502	0	0.575	0.039
298.2	2	0	0.642	0.039
298.2	2.25	0	0.633	0.039
298.2	2.5	0	0.644	0.039
298.2	2.7501	0	0.584	0.039
298.2	3.0001	0	0.616	0.039
298.2	0.0459	0.00459	0.836	0.039
298.2	0.0918	0.00918	0.763	0.039
298.2	0.2294	0.02294	0.732	0.039
298.2	0.4589	0.04589	0.716	0.039
298.2	0.6883	0.06883	0.711	0.039
298.2	0.9178	0.09178	0.661	0.039
298.2	1.1472	0.11472	0.653	0.039
298.2	1.3767	0.13767	0.642	0.039
298.2	1.6061	0.16061	0.644	0.039
298.2	1.8356	0.18356	0.656	0.039
298.2	2.065	0.2065	0.651	0.039
298.2	2.2944	0.22944	0.658	0.039
298.2	2.5239	0.25239	0.722	0.039
298.2	2.7533	0.27533	0.728	0.039
298.2	0.0089	0.00119	0.828	0.039
298.2	0.0482	0.00643	0.888	0.039
298.2	0.0908	0.01211	0.842	0.039
298.2	0.2205	0.0294	0.768	0.039
298.2	0.4425	0.059	0.686	0.039
298.2	0.663	0.0884	0.634	0.039
298.2	0.8817	0.11756	0.627	0.039
298.2	1.1011	0.14681	0.592	0.039
298.2	1.2761	0.17015	0.6	0.039
298.2	1.4957	0.19943	0.539	0.039
298.2	1.762	0.23493	0.59	0.039
298.2	2.1985	0.29313	0.504	0.039
298.2	2.413	0.32173	0.513	0.039
298.2	2.6367	0.35156	0.523	0.039
298.2	0.0439	0.00878	0.804	0.039
298.2	0.0836	0.01672	0.8	0.039
298.2	0.2095	0.0419	0.753	0.039
298.2	0.4229	0.08458	0.714	0.039
298.2	0.6251	0.12502	0.685	0.039
298.2	0.8398	0.16796	0.673	0.039
298.2	1.0378	0.20756	0.658	0.039
298.2	1.2451	0.24902	0.628	0.039
298.2	1.451	0.2902	0.612	0.039
298.2	1.6604	0.33208	0.583	0.046
298.2	1.8626	0.37252	0.575	0.039
298.2	2.0682	0.41364	0.574	0.039
298.2	2.2731	0.45462	0.571	0.039
298.2	0.0075	0.0015	0.886	0.039
298.2	0.0368	0.00736	0.852	0.039
298.2	0.0736	0.01472	0.769	0.039
298.2	0.184	0.0368	0.817	0.039
298.2	0.3681	0.07362	0.704	0.039
298.2	0.5521	0.11042	0.652	0.039
298.2	0.7362	0.14724	0.668	0.039
298.2	0.9202	0.18404	0.647	0.039
298.2	1.1043	0.22086	0.65	0.039
298.2	1.2883	0.25766	0.649	0.039
298.2	1.4724	0.29448	0.647	0.039
298.2	1.6564	0.33128	0.659	0.046
298.2	1.8405	0.3681	0.656	0.04
298.2	2.0245	0.4049	0.657	0.039
298.2	2.2086	0.44172	0.664	0.039
298.2	0.0053	0.0053	0.92	0.039
298.2	0.0264	0.0264	0.877	0.039
298.2	0.0527	0.0527	0.756	0.039
298.2	0.1319	0.1319	0.712	0.039
298.2	0.2637	0.2637	0.7	0.039
298.2	0.3956	0.3956	0.741	0.039
298.2	0.5274	0.5274	0.719	0.039
298.2	0.6593	0.6593	0.86	0.039
298.2	0.7911	0.7911	0.874	0.039
298.2	0.923	0.923	0.852	0.039
298.2	1.0549	1.0549	0.87	0.039
298.2	1.1867	1.1867	0.855	0.039
298.2	1.3186	1.3186	0.835	0.039
298.2	1.4504	1.4504	0.845	0.039
298.2	1.5823	1.5823	0.853	0.039
310.2	0.0508	0	0.714	0.039
310.2	0.1	0	0.631	0.039
310.2	0.25	0	0.669	0.039
310.2	0.5731	0	0.579	0.039
310.2	0.7503	0	0.559	0.039
310.2	1	0	0.547	0.039
310.2	1.2502	0	0.553	0.039
310.2	1.5002	0	0.576	0.039
310.2	1.75	0	0.61	0.039
310.2	2	0	0.635	0.039
310.2	2.25	0	0.643	0.039
310.2	2.5	0	0.646	0.039
310.2	2.7501	0	0.711	0.039
310.2	3.0001	0	0.846	0.039
310.2	0.0092	0.00092	0.919	0.039
310.2	0.0461	0.00461	0.74	0.039
310.2	0.0918	0.00918	0.729	0.039
310.2	0.2294	0.02294	0.631	0.039
310.2	0.4589	0.04589	0.578	0.039
310.2	0.6813	0.06813	0.557	0.039
310.2	0.9178	0.09178	0.541	0.039
310.2	1.1344	0.11344	0.525	0.039
310.2	1.3605	0.13605	0.606	0.039
310.2	1.6061	0.16061	0.615	0.039
310.2	1.8356	0.18356	0.567	0.039
310.2	2.065	0.2065	0.539	0.039
310.2	2.2635	0.22635	0.555	0.039
310.2	2.4888	0.24888	0.569	0.039
310.2	2.6854	0.26854	0.618	0.039
310.2	0.0089	0.00119	0.975	0.039
310.2	0.0447	0.00596	0.712	0.039
310.2	0.0883	0.01177	0.67	0.039
310.2	0.2205	0.0294	0.637	0.039
310.2	0.4409	0.05879	0.628	0.039
310.2	0.6609	0.08812	0.595	0.039
310.2	0.8808	0.11744	0.579	0.039
310.2	1.1002	0.14669	0.567	0.039
310.2	1.3196	0.17595	0.566	0.039
310.2	1.5386	0.20515	0.566	0.039
310.2	1.7578	0.23437	0.559	0.039
310.2	1.9761	0.26348	0.577	0.039
310.2	2.1943	0.29257	0.578	0.039
310.2	2.4126	0.32168	0.581	0.039
310.2	2.6305	0.35073	0.603	0.039
310.2	0.0102	0.00204	0.853	0.039
310.2	0.0507	0.01014	0.804	0.039
310.2	0.1006	0.02012	0.708	0.039
310.2	0.2502	0.05004	0.633	0.039
310.2	0.4998	0.09996	0.583	0.039
310.2	0.7488	0.14976	0.558	0.039
310.2	0.9972	0.19944	0.542	0.039
310.2	1.2456	0.24912	0.539	0.039
310.2	1.4933	0.29866	0.526	0.039
310.2	1.7408	0.34816	0.513	0.039
310.2	1.9881	0.39762	0.511	0.039
310.2	2.2348	0.44696	0.508	0.039
310.2	2.4813	0.49626	0.501	0.039
310.2	2.7275	0.5455	0.503	0.039
310.2	2.9731	0.59462	0.605	0.039
310.2	0.0075	0.0015	0.894	0.039
310.2	0.0368	0.00736	0.804	0.039
310.2	0.0736	0.01472	0.7	0.039
310.2	0.184	0.0368	0.676	0.039
310.2	0.3566	0.07132	0.57	0.039
310.2	0.534	0.1068	0.549	0.039
310.2	0.7105	0.1421	0.536	0.039
310.2	0.9202	0.18404	0.53	0.039
310.2	1.0631	0.21262	0.516	0.039
310.2	1.2389	0.24778	0.492	0.039
310.2	1.4142	0.28284	0.471	0.039
310.2	1.5888	0.31776	0.451	0.039
310.2	1.763	0.3526	0.431	0.04
310.2	1.9369	0.38738	0.408	0.039
310.2	2.2085	0.4417	0.468	0.039
310.2	0.01	0.01	0.929	0.039
310.2	0.0504	0.0504	0.772	0.039
310.2	0.1001	0.1001	0.713	0.039
310.2	0.2637	0.2637	0.665	0.039
310.2	0.4981	0.4981	0.605	0.039
310.2	0.7453	0.7453	0.549	0.039
310.2	0.9913	0.9913	0.508	0.039
310.2	1.3186	1.3186	0.428	0.039
310.2	1.5824	1.5824	0.4	0.039
310.2	1.8461	1.8461	0.378	0.039
310.2	2.1098	2.1098	0.36	0.041
310.2	2.2053	2.2053	0.369	0.041
310.2	2.4452	2.4452	0.354	0.039
310.2	2.901	2.901	0.319	0.06
310.2	2.9211	2.9211	0.334	0.06

System: sodium bromide + water; phases: Liquid
Fixed: Pressure, kPa = 101
Property: Mean ionic activity coefficient of sodium bromide (Liquid); method: galvanic cell
Temperature, K	Molality, mol/kg of sodium bromide	Mean ionic activity coefficient of sodium bromide	uncertainty
298.2	0.01	0.875	0.039
298.2	0.0508	0.835	0.039
298.2	0.1009	0.777	0.039
298.2	0.2509	0.799	0.039
298.2	0.5004	0.699	0.039
298.2	0.75	0.637	0.039
298.2	1.0001	0.612	0.039
298.2	1.25	0.587	0.039
298.2	1.5004	0.57	0.039
298.2	1.7502	0.575	0.039
298.2	2	0.642	0.039
298.2	2.25	0.633	0.039
298.2	2.5	0.644	0.039
298.2	2.7501	0.584	0.039
298.2	3.0001	0.616	0.039
310.2	0.0508	0.714	0.039
310.2	0.1	0.631	0.039
310.2	0.25	0.669	0.039
310.2	0.5731	0.579	0.039
310.2	0.7503	0.559	0.039
310.2	1	0.547	0.039
310.2	1.2502	0.553	0.039
310.2	1.5002	0.576	0.039
310.2	1.75	0.61	0.039
310.2	2	0.635	0.039
310.2	2.25	0.643	0.039
310.2	2.5	0.646	0.039
310.2	2.7501	0.711	0.039
310.2	3.0001	0.846	0.039
