Measured thermophysical data. Vapor pressure measurement for water, methanol, ethanol, and their binary mixtures in the presence of an ionic liquid 1-ethyl-3-methylimidazolium dimethylphosphate
Source: Fluid Phase Equilib., 2007, 10.1016/j.fluid.2007.04.010
Compound 1: 1-ethyl-3-methylimidazolium dimethylphosphate, C8H17N2O4P, InChI=1S/C6H11N2.C2H7O4P/c1-3-8-5-4-7(2)6-8;1-5-7(3,4)6-2/h4-6H,3H2,1-2H3;1-2H3,(H,3,4)/q+1;/p-1
Compound 2: water, H2O, InChI=1S/H2O/h1H2
Compound 3: methanol, CH4O, InChI=1S/CH4O/c1-2/h2H,1H3
Compound 4: ethanol, C2H6O, InChI=1S/C2H6O/c1-2-3/h3H,2H2,1H3

System: water + 1-ethyl-3-methylimidazolium dimethylphosphate; phases: Liquid, Gas
Property: Vapor or sublimation pressure, kPa (Liquid); method: TWINEBU:UFactor:16
Mole fraction of water	Temperature, K	Vapor or sublimation pressure, kPa	uncertainty
0.8489	338.84	15.216	1.362
0.8489	343.48	18.825	1.393
0.8489	347.73	22.775	1.434
0.8489	351.54	26.726	1.476
0.8489	356.93	33.494	1.542
0.8489	363.48	43.556	1.674
0.8489	367.26	50.463	1.722
0.9291	331.82	15.082	1.356
0.9291	337.61	19.715	1.394
0.9291	342.89	24.888	1.439
0.9291	347.54	30.483	1.488
0.9291	351.65	36.194	1.549
0.9291	356.18	43.556	1.626
0.9291	360.46	51.763	1.724
0.9291	363.71	58.804	1.77
0.9683	329.14	15.383	1.342
0.9683	338.86	24.089	1.421
0.9683	342.95	28.84	1.466
0.9683	345.87	32.706	1.506
0.9683	349.44	38.006	1.514
0.9683	353.59	45.046	1.575
0.9683	356.92	51.484	1.682
0.9683	360.27	58.781	1.743
0.9915	323.76	12.609	1.336
0.9915	331.49	18.256	1.376
0.9915	337.42	23.924	1.42
0.9915	341.67	28.972	1.462
0.9915	346.27	35.221	1.509
0.9915	349.73	40.683	1.554
0.9915	354.06	48.559	1.626
0.9915	357.98	56.785	1.68

System: methanol + 1-ethyl-3-methylimidazolium dimethylphosphate; phases: Liquid, Gas
Property: Vapor or sublimation pressure, kPa (Liquid); method: TWINEBU:UFactor:16
Mole fraction of methanol	Temperature, K	Vapor or sublimation pressure, kPa	uncertainty
0.7597	314.99	16.761	1.382
0.7597	318.98	20.289	1.416
0.7597	324.41	26.098	1.504
0.7597	327.59	30.28	1.529
0.7597	332.42	37.434	1.638
0.7597	336.61	44.663	1.684
0.7597	340.4	52.36	1.752
0.7597	343.86	60.419	1.82
0.8806	304.51	15.969	1.366
0.8806	309.18	20.307	1.405
0.8806	313.42	25.144	1.444
0.8806	317.39	30.28	1.488
0.8806	321.86	37.098	1.568
0.8806	326.01	44.681	1.64
0.8806	329.69	52.477	1.686
0.8806	333.06	60.419	1.767
0.9451	300.94	17.001	1.361
0.9451	303.56	19.448	1.385
0.9451	306.15	22.184	1.404
0.9451	309.9	26.684	1.445
0.9451	315.14	34.161	1.504
0.9451	319.87	42.447	1.601
0.9451	323.49	49.844	1.655
0.9451	326.99	58.025	1.728
0.9851	299.2	17.46	1.366
0.9851	303.04	21.243	1.396
0.9851	306.8	25.597	1.428
0.9851	310.45	30.556	1.468
0.9851	313.84	35.819	1.521
0.9851	317.74	42.854	1.583
0.9851	321.12	49.87	1.629
0.9851	324.5	57.859	1.697

System: ethanol + 1-ethyl-3-methylimidazolium dimethylphosphate; phases: Liquid, Gas
Property: Vapor or sublimation pressure, kPa (Liquid); method: TWINEBU:UFactor:16
Mole fraction of ethanol	Temperature, K	Vapor or sublimation pressure, kPa	uncertainty
0.6881	320.08	14.187	1.336
0.6881	323.71	17.108	1.358
0.6881	332.3	25.652	1.426
0.6881	334.95	29.013	1.448
0.6881	340.75	37.546	1.518
0.6881	344.88	45.188	1.579
0.6881	347.49	50.755	1.619
0.6881	350.67	58.368	1.67
0.8368	313.46	14.187	1.333
0.8368	319.68	19.458	1.37
0.8368	325.34	25.652	1.412
0.8368	329.31	30.948	1.455
0.8368	333.55	37.546	1.499
0.8368	337.28	44.529	1.548
0.8368	340.29	50.755	1.602
0.8368	343.58	58.368	1.655
0.9229	310.5	14.165	1.33
0.9229	316.95	19.761	1.37
0.9229	320.67	23.785	1.395
0.9229	325.84	30.469	1.445
0.9229	330.66	38.08	1.494
0.9229	333.9	44.095	1.538
0.9229	337.47	51.571	1.593
0.9229	340.98	60.003	1.649
0.9787	309.95	14.808	1.334
0.9787	314	18.301	1.36
0.9787	320.12	24.953	1.403
0.9787	323.38	29.189	1.434
0.9787	328.35	36.872	1.483
0.9787	330.72	41.146	1.513
0.9787	334.42	48.576	1.568
0.9787	339.27	60.073	1.642

System: methanol + water + 1-ethyl-3-methylimidazolium dimethylphosphate; phases: Liquid, Gas
Property: Vapor or sublimation pressure, kPa (Liquid); method: TWINEBU:UFactor:16
Mole fraction of water	Mole fraction of methanol	Temperature, K	Vapor or sublimation pressure, kPa	uncertainty
0.1569	0.792	302.15	16.221	1.342
0.1569	0.792	307.6	21.319	1.374
0.1569	0.792	313.64	28.527	1.419
0.1569	0.792	318.17	35.166	1.46
0.1569	0.792	321.81	41.387	1.499
0.1569	0.792	325.54	48.635	1.544
0.1569	0.792	328.78	55.795	1.589
0.1569	0.792	331.88	63.7	1.639
0.5196	0.438	308.83	17.519	1.351
0.5196	0.438	312.59	21.001	1.373
0.5196	0.438	317.11	26.274	1.408
0.5196	0.438	320.53	30.774	1.438
0.5196	0.438	324.92	37.529	1.483
0.5196	0.438	328.56	43.882	1.525
0.5196	0.438	331.92	50.661	1.571
0.5196	0.438	336.47	61.268	1.64
0.696	0.2685	310.9	15.628	1.339
0.696	0.2685	317.91	21.984	1.38
0.696	0.2685	321.9	26.594	1.41
0.696	0.2685	326.37	32.585	1.45
0.696	0.2685	329.48	37.406	1.482
0.696	0.2685	333.48	44.506	1.529
0.696	0.2685	336.79	51.1	1.576
0.696	0.2685	340.04	58.425	1.622

System: ethanol + water + 1-ethyl-3-methylimidazolium dimethylphosphate; phases: Liquid, Gas
Property: Vapor or sublimation pressure, kPa (Liquid); method: TWINEBU:UFactor:16
Mole fraction of water	Mole fraction of ethanol	Temperature, K	Vapor or sublimation pressure, kPa	uncertainty
0.2062	0.7263	316.09	19.076	1.358
0.2062	0.7263	318.88	21.888	1.376
0.2062	0.7263	322.27	25.687	1.399
0.2062	0.7263	325.4	29.809	1.425
0.2062	0.7263	330.02	36.96	1.469
0.2062	0.7263	334.39	44.991	1.519
0.2062	0.7263	337.83	52.303	1.565
0.2062	0.7263	340.89	59.676	1.611
0.5993	0.3518	316.63	18.392	1.354
0.5993	0.3518	319.92	21.652	1.375
0.5993	0.3518	324.54	27.061	1.409
0.5993	0.3518	329.3	33.784	1.451
0.5993	0.3518	333.1	40.192	1.492
0.5993	0.3518	336.87	47.425	1.537
0.5993	0.3518	340.27	54.897	1.585
0.5993	0.3518	343.81	63.675	1.64
0.7601	0.1985	315.36	15.93	1.339
0.7601	0.1985	320.71	20.822	1.369
0.7601	0.1985	324.7	25.264	1.402
0.7601	0.1985	328.62	30.386	1.438
0.7601	0.1985	333.15	37.291	1.488
0.7601	0.1985	337.18	44.559	1.539
0.7601	0.1985	340.87	52.241	1.594
0.7601	0.1985	344.34	60.504	1.65
0.8782	0.0859	317.84	15.234	1.338
0.8782	0.0859	323.2	19.936	1.369
0.8782	0.0859	328.15	25.172	1.404
0.8782	0.0859	333.29	31.397	1.447
0.8782	0.0859	337.69	38.182	1.495
0.8782	0.0859	341.56	45.076	1.544
0.8782	0.0859	345.3	52.965	1.601
0.8782	0.0859	349.11	62.117	1.66

System: ethanol + methanol + 1-ethyl-3-methylimidazolium dimethylphosphate; phases: Liquid, Gas
Property: Vapor or sublimation pressure, kPa (Liquid); method: TWINEBU:UFactor:16
Mole fraction of ethanol	Mole fraction of methanol	Temperature, K	Vapor or sublimation pressure, kPa	uncertainty
0.0717	0.872	303.51	18.507	1.355
0.0717	0.872	305.22	20.237	1.366
0.0717	0.872	309.17	24.599	1.394
0.0717	0.872	313.75	30.657	1.432
0.0717	0.872	318.5	37.97	1.479
0.0717	0.872	323.25	46.729	1.535
0.0717	0.872	327.31	55.658	1.592
0.0717	0.872	331.07	65.19	1.652
0.2974	0.6405	303.95	16.079	1.34
0.2974	0.6405	305.8	17.729	1.351
0.2974	0.6405	309.2	21.053	1.372
0.2974	0.6405	313.82	26.381	1.406
0.2974	0.6405	318.7	33.153	1.449
0.2974	0.6405	323.6	41.204	1.5
0.2974	0.6405	327.77	49.41	1.553
0.2974	0.6405	331.23	57.252	1.601
0.4767	0.4569	308.08	17.277	1.348
0.4767	0.4569	311.55	20.569	1.369
0.4767	0.4569	315.85	25.394	1.399
0.4767	0.4569	320.48	31.624	1.438
0.4767	0.4569	325.16	39.143	1.486
0.4767	0.4569	329.39	47.135	1.537
0.4767	0.4569	333.1	55.259	1.589
0.6831	0.2455	309.93	16.265	1.341
0.6831	0.2455	312.42	18.516	1.355
0.6831	0.2455	316.61	22.84	1.383
0.6831	0.2455	320.34	27.38	1.411
0.6831	0.2455	324.33	33.033	1.447
0.6831	0.2455	328.62	40.075	1.492
0.6831	0.2455	332.6	47.781	1.541
0.6831	0.2455	336.84	57.34	1.601
