Measured thermophysical data. Study on solid liquid phase equilibria in ionic liquid 1. The solubility of alkali chloride (MCl) in ionic liquid EMISE
Source: Fluid Phase Equilib., 2007, 10.1016/j.fluid.2006.10.018
Compound 1: potassium chloride, ClK, InChI=1S/ClH.K/h1H;/q;+1/p-1
Compound 2: sodium chloride, ClNa, InChI=1S/ClH.Na/h1H;/q;+1/p-1
Compound 3: lithium chloride, ClLi, InChI=1S/ClH.Li/h1H;/q;+1/p-1
Compound 4: 1-ethyl-3-methylimidazolium ethyl sulfate, C8H16N2O4S, InChI=1S/C6H11N2.C2H6O4S/c1-3-8-5-4-7(2)6-8;1-2-6-7(3,4)5/h4-6H,3H2,1-2H3;2H2,1H3,(H,3,4,5)/q+1;/p-1

System: lithium chloride + 1-ethyl-3-methylimidazolium ethyl sulfate; phases: Liquid, Crystal
Fixed: Pressure, kPa = 101
Property: Molality, mol/kg (Liquid); method: Mohr method
Temperature, K	Molality, mol/kg	uncertainty
293.15	0.3687	0.0061
298.15	0.3861	0.0061
303.15	0.404	0.0061
308.15	0.4271	0.0061
313.15	0.4453	0.0061
318.15	0.4685	0.0061
323.15	0.4951	0.0061
328.15	0.522	0.0061
333.15	0.5459	0.0061
338.15	0.5722	0.0062
343.15	0.6056	0.0062

System: potassium chloride + 1-ethyl-3-methylimidazolium ethyl sulfate; phases: Liquid, Crystal
Fixed: Pressure, kPa = 101
Property: Molality, mol/kg (Liquid); method: Mohr method
Temperature, K	Molality, mol/kg	uncertainty
293.15	0.2282	0.004
298.15	0.2304	0.004
303.15	0.2322	0.004
308.15	0.2334	0.004
313.15	0.2358	0.004
318.15	0.2388	0.004
323.15	0.2416	0.004
328.15	0.2444	0.004
333.15	0.2479	0.004
338.15	0.2507	0.004
343.15	0.2535	0.004

System: sodium chloride + 1-ethyl-3-methylimidazolium ethyl sulfate; phases: Liquid, Crystal
Fixed: Pressure, kPa = 101
Property: Molality, mol/kg (Liquid); method: Mohr method
Temperature, K	Molality, mol/kg	uncertainty
293.15	0.2351	0.004
298.15	0.2375	0.004
303.15	0.2399	0.004
308.15	0.2421	0.004
313.15	0.2445	0.004
318.15	0.2469	0.004
323.15	0.2491	0.004
328.15	0.2515	0.004
333.15	0.2539	0.004
338.15	0.2567	0.004
343.15	0.2594	0.004
