Measured thermophysical data. Experimental and e-NRTL model predicted VLE of CO2 in aqueous solutions of 2-((2-aminoethyl)-amino)-ethanol and speciation study
Source: Fluid Phase Equilib., 2019, 10.1016/j.fluid.2019.112284
Compound 1: N-(2-aminoethyl)ethanolamine, C4H12N2O, InChI=1S/C4H12N2O/c5-1-2-6-3-4-7/h6-7H,1-5H2, purity 99%
Compound 2: carbon dioxide, CO2, InChI=1S/CO2/c2-1-3, purity 99.9%
Compound 3: water, H2O, InChI=1S/H2O/h1H2, purity 99.9%

System: N-(2-aminoethyl)ethanolamine + carbon dioxide + water; phases: Liquid, Gas
Property: Mole fraction of carbon dioxide (Liquid); method: Phase equilibration
Temperature, K	Pressure, kPa of carbon dioxide	Solvent: Molality, mol/kg of N-(2-aminoethyl)ethanolamine	Mole fraction of carbon dioxide	uncertainty
303.15	0.941	4.11	0.309	0.108
303.15	1.08	4.11	0.521	0.07
303.15	1.255	4.11	0.685	0.039
303.15	2.265	4.11	0.886	0.03
303.15	24.424	4.11	1.04	0.01
303.15	75.043	4.11	1.088	0.019
303.15	117.96	4.11	1.11	0.02
303.15	1.986	2.4	0.491	0.203
303.15	4.878	2.4	0.919	0.158
303.15	37.665	2.4	1.043	0.009
303.15	59.372	2.4	1.065	0.01
303.15	81.344	2.4	1.08	0.011
303.15	102.54	2.4	1.094	0.011
303.15	126.571	2.4	1.107	0.012
303.15	155.707	2.4	1.121	0.01
303.15	183.476	2.4	1.131	0.01
303.15	214.957	2.4	1.142	0.011
303.15	0.488	1.07	0.503	0.113
303.15	10.347	1.07	1.071	0.097
303.15	51.6	1.07	1.151	0.013
303.15	86.019	1.07	1.175	0.014
303.15	108.491	1.07	1.187	0.014
303.15	125.983	1.07	1.195	0.014
303.15	179.26	1.07	1.217	0.016
303.15	2.374	0.51	0.892	0.026
303.15	35.44	0.51	1.119	0.013
303.15	70.786	0.51	1.161	0.011
303.15	92.086	0.51	1.185	0.013
303.15	112.171	0.51	1.202	0.014
303.15	130.857	0.51	1.213	0.016
303.15	147.908	0.51	1.224	0.016
303.15	168.552	0.51	1.227	0.017
303.15	204.281	0.51	1.262	0.02
313.15	1.3	4.11	0.753	0.136
313.15	7.618	4.11	0.885	0.018
313.15	26.572	4.11	0.943	0.013
313.15	53.331	4.11	0.975	0.003
313.15	81.737	4.11	0.996	0.011
313.15	108.885	4.11	1.012	0.011
313.15	124.129	4.11	1.019	0.008
313.15	146.608	4.11	1.029	0.003
313.15	173.929	4.11	1.041	0.004
313.15	221.681	4.11	1.059	0.005
313.15	1.812	2.4	0.534	0.058
313.15	2.021	2.4	0.716	0.049
313.15	3.798	2.4	0.888	0.022
313.15	19.446	2.4	0.99	0.009
313.15	35.909	2.4	1.017	0.006
313.15	55.573	2.4	1.035	0.007
313.15	79.539	2.4	1.053	0.008
313.15	101.804	2.4	1.065	0.008
313.15	124.663	2.4	1.077	0.007
313.15	172.256	2.4	1.096	0.01
313.15	2.084	1.07	0.46	0.055
313.15	3.373	1.07	0.879	0.038
313.15	20.8	1.07	1.02	0.015
313.15	35.009	1.07	1.057	0.01
313.15	52.401	1.07	1.088	0.013
313.15	70.152	1.07	1.11	0.013
313.15	75.919	1.07	1.117	0.014
313.15	93.756	1.07	1.131	0.014
313.15	109.772	1.07	1.146	0.013
313.15	169.214	1.07	1.164	0.014
313.15	199.812	1.07	1.176	0.014
313.15	2.264	0.51	0.785	0.032
313.15	29.058	0.51	1.062	0.018
313.15	45.991	0.51	1.117	0.018
313.15	60.971	0.51	1.131	0.013
313.15	81.636	0.51	1.15	0.02
313.15	105.55	0.51	1.167	0.016
313.15	122.745	0.51	1.17	0.016
313.15	148.459	0.51	1.181	0.017
313.15	166.434	0.51	1.189	0.017
313.15	188.21	0.51	1.213	0.023
313.15	214.828	0.51	1.222	0.023
323.15	2.099	4.11	0.299	0.159
323.15	2.3	4.11	0.34	0.147
323.15	2.439	4.11	0.498	0.135
323.15	2.926	4.11	0.641	0.084
323.15	2.962	4.11	0.649	0.083
323.15	5.126	4.11	0.791	0.096
323.15	14.738	4.11	0.885	0.016
323.15	25.644	4.11	0.922	0.009
323.15	53.703	4.11	0.961	0.005
323.15	78.602	4.11	0.979	0.004
323.15	111.117	4.11	0.999	0.004
323.15	136.762	4.11	1.011	0.006
323.15	158.882	4.11	1.022	0.007
323.15	197.895	4.11	1.037	0.008
323.15	243.253	4.11	1.054	0.004
323.15	2.578	2.4	0.613	0.261
323.15	4.835	2.4	0.817	0.139
323.15	15.017	2.4	0.936	0.016
323.15	39.267	2.4	0.996	0.011
323.15	67.905	2.4	1.023	0.009
323.15	90.688	2.4	1.037	0.009
323.15	119.347	2.4	1.049	0.007
323.15	141.074	2.4	1.058	0.01
323.15	168.354	2.4	1.066	0.008
323.15	208.981	2.4	1.076	0.008
323.15	2.515	1.07	0.552	0.209
323.15	5.442	1.07	0.839	0.173
323.15	27.661	1.07	0.995	0.014
323.15	48.088	1.07	1.032	0.01
323.15	67.003	1.07	1.051	0.015
323.15	85.192	1.07	1.068	0.011
323.15	104.63	1.07	1.088	0.012
323.15	123.867	1.07	1.1	0.01
323.15	2.644	0.51	0.691	0.063
323.15	12.156	0.51	0.966	0.021
323.15	31.305	0.51	1.02	0.011
323.15	49.008	0.51	1.035	0.01
323.15	73.751	0.51	1.058	0.013
323.15	89.188	0.51	1.068	0.014
323.15	113.371	0.51	1.085	0.015
323.15	131.484	0.51	1.092	0.012
323.15	181.622	0.51	1.109	0.021
323.15	220.304	0.51	1.132	0.015
333.15	1.773	4.11	0.401	0.264
333.15	2.433	4.11	0.578	0.281
333.15	5.013	4.11	0.733	0.09
333.15	17.173	4.11	0.864	0.018
333.15	45.747	4.11	0.93	0.01
333.15	80.618	4.11	0.96	0.008
333.15	113.74	4.11	0.976	0.008
333.15	146.083	4.11	0.988	0.01
333.15	196.828	4.11	0.998	0.008
333.15	3.232	2.4	0.584	0.094
333.15	10.235	2.4	0.828	0.034
333.15	22.011	2.4	0.902	0.016
333.15	49.185	2.4	0.957	0.014
333.15	72.809	2.4	0.98	0.011
333.15	95.592	2.4	0.996	0.01
333.15	123.223	2.4	1.01	0.01
333.15	159.422	2.4	1.025	0.007
333.15	193.047	2.4	1.036	0.007
333.15	230.253	2.4	1.045	0.008
333.15	2.718	1.07	0.442	0.104
333.15	9.651	1.07	0.845	0.043
333.15	24.773	1.07	0.935	0.019
333.15	42.054	1.07	0.978	0.017
333.15	55.292	1.07	0.995	0.017
333.15	79.054	1.07	1.019	0.016
333.15	101.037	1.07	1.035	0.017
333.15	125.157	1.07	1.05	0.017
333.15	138.214	1.07	1.064	0.023
333.15	175.668	1.07	1.079	0.01
333.15	213.715	1.07	1.097	0.011
333.15	3.2	0.51	0.617	0.055
333.15	18.461	0.51	0.931	0.03
333.15	35.638	0.51	0.976	0.009
333.15	58.414	0.51	1.012	0.009
333.15	76.713	0.51	1.017	0.007
333.15	98.316	0.51	1.024	0.008
333.15	116.567	0.51	1.036	0.009
333.15	145.109	0.51	1.041	0.008
333.15	162.981	0.51	1.055	0.008
333.15	199.634	0.51	1.068	0.011
343.15	3.45	4.11	0.195	0.223
343.15	3.798	4.11	0.351	0.159
343.15	4.913	4.11	0.542	0.095
343.15	8.32	4.11	0.682	0.064
343.15	12.962	4.11	0.75	0.03
343.15	24.411	4.11	0.817	0.022
343.15	44.071	4.11	0.865	0.017
343.15	71.737	4.11	0.899	0.014
343.15	105.749	4.11	0.921	0.012
343.15	153.542	4.11	0.94	0.011
343.15	195.59	4.11	0.953	0.009
343.15	4.019	2.4	0.387	0.202
343.15	6.284	2.4	0.58	0.127
343.15	8.406	2.4	0.67	0.055
343.15	13.009	2.4	0.748	0.034
343.15	23.81	2.4	0.825	0.025
343.15	39.21	2.4	0.875	0.017
343.15	56.139	2.4	0.901	0.017
343.15	81.681	2.4	0.926	0.015
343.15	100.746	2.4	0.941	0.014
343.15	130.633	2.4	0.953	0.012
343.15	4.461	1.07	0.473	0.069
343.15	6.063	1.07	0.598	0.051
343.15	12.335	1.07	0.73	0.035
343.15	24.982	1.07	0.811	0.026
343.15	40.1	1.07	0.854	0.022
343.15	59.261	1.07	0.884	0.021
343.15	79.436	1.07	0.906	0.019
343.15	96.163	1.07	0.917	0.02
343.15	116.676	1.07	0.927	0.02
343.15	149.681	1.07	0.942	0.026
343.15	2.195	0.51	0.46	0.112
343.15	8.362	0.51	0.786	0.037
343.15	26.482	0.51	0.926	0.019
343.15	46.718	0.51	0.966	0.008
343.15	70.149	0.51	0.986	0.007
343.15	92.987	0.51	0.992	0.006
343.15	117.031	0.51	1.004	0.007
343.15	153.582	0.51	1.01	0.006
343.15	210.01	0.51	1.021	0.01
