Measured thermophysical data. Experimental study and thermodynamic modeling of solid-liquid equilibrium of binary systems: Dodecane-tetradedcane and tridecane-pentadecane for cryogenic thermal energy storage
Source: Fluid Phase Equilib., 2019, 10.1016/j.fluid.2019.04.023
Compound 1: dodecane, C12H26, InChI=1S/C12H26/c1-3-5-7-9-11-12-10-8-6-4-2/h3-12H2,1-2H3, purity 98%
Compound 2: tridecane, C13H28, InChI=1S/C13H28/c1-3-5-7-9-11-13-12-10-8-6-4-2/h3-13H2,1-2H3, purity 98%
Compound 3: tetradecane, C14H30, InChI=1S/C14H30/c1-3-5-7-9-11-13-14-12-10-8-6-4-2/h3-14H2,1-2H3, purity 98%
Compound 4: pentadecane, C15H32, InChI=1S/C15H32/c1-3-5-7-9-11-13-15-14-12-10-8-6-4-2/h3-15H2,1-2H3, purity 99%

System: tridecane; phases: Crystal 2, Crystal 1, Air at 1 atmosphere
Property: Triple point temperature, K (Crystal 2); method: DSC:UFactor:2
Triple point temperature, K	uncertainty
252.25	3.3

System: tridecane; phases: Crystal 2, Crystal 1, Air at 1 atmosphere
Property: Triple point temperature, K (Crystal 2); method: DSC:UFactor:2
Triple point temperature, K	uncertainty
254.25	1.6

System: tridecane; phases: Crystal 1, Liquid, Air at 1 atmosphere
Property: Normal melting temperature, K (Crystal 1); method: DTA:UFactor:2
Normal melting temperature, K	uncertainty
265.25	3.1

System: tridecane; phases: Crystal 1, Liquid, Air at 1 atmosphere
Property: Normal melting temperature, K (Crystal 1); method: DTA:UFactor:2
Normal melting temperature, K	uncertainty
268.15	0.8

System: tridecane; phases: Crystal 2, Crystal 1, Crystal
Property: Molar enthalpy of transition or fusion, kJ/mol (Crystal 2); method: DSC:UFactor:2
Molar enthalpy of transition or fusion, kJ/mol	uncertainty
7.171659238	0.442467408

System: tridecane; phases: Crystal 2, Crystal 1, Crystal
Property: Molar enthalpy of transition or fusion, kJ/mol (Crystal 2); method: DSC:UFactor:2
Molar enthalpy of transition or fusion, kJ/mol	uncertainty
7.55881822	0.46090355

System: tridecane; phases: Crystal 1, Liquid, Air at 1 atmosphere
Property: Molar enthalpy of transition or fusion, kJ/mol (Crystal 1); method: DSC:UFactor:2
Molar enthalpy of transition or fusion, kJ/mol	uncertainty
28.741945378	1.272093798

System: tridecane; phases: Crystal 1, Liquid, Air at 1 atmosphere
Property: Molar enthalpy of transition or fusion, kJ/mol (Crystal 1); method: DSC:UFactor:2
Molar enthalpy of transition or fusion, kJ/mol	uncertainty
28.170424976	1.253657656

System: dodecane + tetradecane; phases: Crystal, Crystal, Liquid, Air at 1 atmosphere
Property: Eutectic temperature, K (Crystal); method: PHASDIA:UFactor:2
Eutectic temperature, K	uncertainty
260.55	0.8

System: dodecane + tetradecane; phases: Crystal, Crystal, Liquid, Air at 1 atmosphere
Property: Eutectic composition: mass fraction of tetradecane (Crystal); method: PHASDIA:UFactor:2
Eutectic composition: mass fraction of tetradecane	uncertainty
0.19	0.01

System: dodecane + tetradecane; phases: Liquid, Crystal
Fixed: Pressure, kPa = 101
Property: Solid-liquid equilibrium temperature, K (Liquid); method: DTA:UFactor:2
Mass fraction of tetradecane	Solid-liquid equilibrium temperature, K	uncertainty
0	262.35	0.8
0.05	262.15	0.8
0.1	261.75	0.8
0.15	261.35	0.8
0.18	260.45	0.8

System: dodecane + tetradecane; phases: Liquid, Crystal
Fixed: Pressure, kPa = 101
Property: Solid-liquid equilibrium temperature, K (Liquid); method: DTA:UFactor:2
Mass fraction of tetradecane	Solid-liquid equilibrium temperature, K	uncertainty
0.2	260.65	0.8
0.21	261.05	0.8
0.25	260.65	0.8
0.3	261.15	0.8
0.4	263.05	0.8
0.5	265.75	0.8
0.55	265.95	0.8
0.6	266.15	0.8
0.7	267.75	0.8
0.75	270.95	0.8
0.8	271.95	0.8
0.9	273.85	0.8
1	277.55	0.8

System: tridecane + pentadecane; phases: Crystal, Crystal, Liquid, Air at 1 atmosphere
Property: Eutectic temperature, K (Crystal); method: PHASDIA:UFactor:2
Eutectic temperature, K	uncertainty
267.45	0.8

System: tridecane + pentadecane; phases: Crystal, Crystal, Liquid, Air at 1 atmosphere
Property: Eutectic composition: mass fraction of pentadecane (Crystal); method: PHASDIA:UFactor:2
Eutectic composition: mass fraction of pentadecane	uncertainty
0.1	0.01

System: tridecane + pentadecane; phases: Liquid, Crystal
Fixed: Pressure, kPa = 101
Property: Solid-liquid equilibrium temperature, K (Liquid); method: DTA:UFactor:2
Mass fraction of pentadecane	Solid-liquid equilibrium temperature, K	uncertainty
0	268.15	0.8
0.05	267.45	0.8
0.09	267.55	0.8
0.1	267.45	0.8

System: tridecane + pentadecane; phases: Liquid, Crystal
Fixed: Pressure, kPa = 101
Property: Solid-liquid equilibrium temperature, K (Liquid); method: DTA:UFactor:2
Mass fraction of pentadecane	Solid-liquid equilibrium temperature, K	uncertainty
0.1	267.45	0.8
0.11	267.55	0.8
0.15	267.75	0.8
0.2	267.85	0.8
0.25	268.35	0.8
0.29	268.65	0.8
0.4	270.25	0.8
0.5	273.35	0.8
0.6	275.05	0.8
0.7	276.75	0.8
0.85	280.05	0.8
0.9	281.25	0.8
1	283.75	0.8
