Measured thermophysical data. Vapor-liquid equilibria and excess enthalpies of the binary systems 1- pentanol or 2-pentanol and 1-hexene or 1,2,4-trimethylbenzene for the development of biofuels
Source: Fluid Phase Equilib., 2018, 10.1016/j.fluid.2017.12.031
Compound 1: pentan-1-ol, C5H12O, InChI=1S/C5H12O/c1-2-3-4-5-6/h6H,2-5H2,1H3, purity 99.7%
Compound 2: hex-1-ene, C6H12, InChI=1S/C6H12/c1-3-5-6-4-2/h3H,1,4-6H2,2H3, purity 99.7%
Compound 3: pentan-2-ol, C5H12O, InChI=1S/C5H12O/c1-3-4-5(2)6/h5-6H,3-4H2,1-2H3, purity 99.7%
Compound 4: 1,2,4-trimethylbenzene, C9H12, InChI=1S/C9H12/c1-7-4-5-8(2)9(3)6-7/h4-6H,1-3H3, purity 99.7%

System: pentan-1-ol; phases: Liquid, Gas
Fixed: Temperature, K = 313.15
Property: Vapor or sublimation pressure, kPa (Liquid); method: Closed cell (Static) method
Vapor or sublimation pressure, kPa	uncertainty
0.913	0.018
0.918	0.018

System: hex-1-ene; phases: Liquid, Gas
Fixed: Temperature, K = 313.15
Property: Vapor or sublimation pressure, kPa (Liquid); method: Closed cell (Static) method
Vapor or sublimation pressure, kPa	uncertainty
44.914	0.163
44.954	0.163

System: pentan-2-ol; phases: Liquid, Gas
Fixed: Temperature, K = 313.15
Property: Vapor or sublimation pressure, kPa (Liquid); method: Closed cell (Static) method
Vapor or sublimation pressure, kPa	uncertainty
2.281	0.023
2.268	0.023

System: 1,2,4-trimethylbenzene; phases: Liquid, Gas
Property: Vapor or sublimation pressure, kPa (Liquid); method: Closed cell (Static) method
Temperature, K	Vapor or sublimation pressure, kPa	uncertainty
313.15	0.73	0.016

System: pentan-1-ol + hex-1-ene; phases: Gas, Liquid
Fixed: Temperature, K = 313.15
Property: Mole fraction of pentan-1-ol (Gas); method: Calculated using Barker's Method
Mole fraction of pentan-1-ol	Mole fraction of pentan-1-ol	uncertainty
0	0	
0.0492	0.0075	0.001
0.0995	0.0096	0.001
0.1503	0.0106	0.001
0.2007	0.0115	0.001
0.2511	0.0124	0.001
0.3014	0.0133	0.001
0.3516	0.0142	0.001
0.4014	0.0151	0.001
0.4016	0.0151	0.001
0.4517	0.0161	0.001
0.4518	0.0161	0.001
0.5017	0.0171	0.001
0.5019	0.0171	0.001
0.5517	0.0184	0.001
0.5521	0.0184	0.001
0.6021	0.02	0.001
0.6024	0.02	0.001
0.6527	0.022	0.001
0.7025	0.0247	0.0011
0.7528	0.0284	0.0011
0.8028	0.0338	0.0011
0.8526	0.0428	0.0012
0.8999	0.0593	0.0015
0.9493	0.1072	0.0096
1	1	

System: pentan-1-ol + hex-1-ene; phases: Gas, Liquid
Fixed: Temperature, K = 313.15
Property: Vapor or sublimation pressure, kPa (Gas); method: Closed cell (Static) method
Mole fraction of pentan-1-ol	Vapor or sublimation pressure, kPa	uncertainty
0	44.914	0.163
0.0492	43.855	0.161
0.0995	43.191	0.158
0.1503	42.546	0.156
0.2007	41.892	0.154
0.2511	41.184	0.152
0.3014	40.452	0.149
0.3516	39.624	0.147
0.4014	38.751	0.144
0.4016	38.713	0.144
0.4517	37.717	0.141
0.4518	37.672	0.141
0.5017	36.487	0.138
0.5019	36.529	0.138
0.5517	35.097	0.134
0.5521	35.144	0.135
0.6021	33.446	0.13
0.6024	33.498	0.131
0.6527	31.526	0.127
0.7025	29.174	0.123
0.7528	26.304	0.12
0.8028	22.866	0.118
0.8526	18.716	0.119
0.8999	14.05	0.125
0.9493	8.159	0.138
1	0.913	0.018

System: pentan-1-ol + hex-1-ene; phases: Liquid
Fixed: Pressure, kPa = 101
Property: Excess molar enthalpy (molar enthalpy of mixing), kJ/mol (Liquid); method: Flow calorimetry
Temperature, K	Mole fraction of pentan-1-ol	Excess molar enthalpy (molar enthalpy of mixing), kJ/mol	uncertainty
298.15	0	0	0.001
298.15	0.0507	0.3974	0.0054
298.15	0.1006	0.4978	0.0065
298.15	0.1522	0.5602	0.0073
298.15	0.203	0.5981	0.0078
298.15	0.2531	0.6196	0.008
298.15	0.3022	0.6303	0.0082
298.15	0.353	0.6266	0.0081
298.15	0.403	0.6108	0.0079
298.15	0.4523	0.5794	0.0075
298.15	0.503	0.5404	0.0071
298.15	0.5529	0.4952	0.0065
298.15	0.604	0.4437	0.0059
298.15	0.6523	0.3817	0.0051
298.15	0.7019	0.3248	0.0044
298.15	0.7526	0.2633	0.0037
298.15	0.8008	0.1999	0.0029
298.15	0.8482	0.1458	0.0023
298.15	0.902	0.0871	0.0016
298.15	0.9513	0.038	0.0011
298.15	1	0	0.001
313.15	0	0	0.001
313.15	0.0506	0.5076	0.0068
313.15	0.1005	0.664	0.0086
313.15	0.152	0.7493	0.0096
313.15	0.2027	0.8024	0.0103
313.15	0.2528	0.8159	0.0104
313.15	0.3021	0.829	0.0106
313.15	0.3526	0.8072	0.0103
313.15	0.4026	0.7948	0.0102
313.15	0.4519	0.7639	0.0098
313.15	0.5026	0.7179	0.0092
313.15	0.5524	0.6664	0.0086
313.15	0.6035	0.6032	0.0078
313.15	0.6519	0.5314	0.007
313.15	0.7019	0.4568	0.006
313.15	0.7526	0.3716	0.005
313.15	0.8025	0.2848	0.004
313.15	0.8517	0.2114	0.0031
313.15	0.9019	0.1323	0.0021
313.15	0.9513	0.0581	0.0013
313.15	1	0	0.001

System: pentan-2-ol + hex-1-ene; phases: Gas, Liquid
Fixed: Temperature, K = 313.15
Property: Mole fraction of pentan-2-ol (Gas); method: Calculated using Barker's Method
Mole fraction of pentan-2-ol	Mole fraction of pentan-2-ol	uncertainty
0	0	
0.0498	0.0147	0.001
0.1004	0.0203	0.001
0.1502	0.0235	0.0011
0.2007	0.0263	0.0011
0.2521	0.029	0.0011
0.3011	0.0316	0.0011
0.3513	0.0344	0.0011
0.4013	0.0372	0.0011
0.4015	0.0372	0.0011
0.4514	0.0401	0.0012
0.4516	0.0401	0.0012
0.5016	0.0434	0.0012
0.5018	0.0434	0.0012
0.5514	0.0471	0.0012
0.5519	0.0471	0.0012
0.6014	0.0515	0.0012
0.6022	0.0516	0.0012
0.6522	0.0571	0.0013
0.7024	0.0641	0.0014
0.7523	0.0736	0.0015
0.8022	0.0872	0.0016
0.852	0.1088	0.0019
0.9018	0.1497	0.0028
0.9509	0.2531	0.0095
1	1	

System: pentan-2-ol + hex-1-ene; phases: Gas, Liquid
Fixed: Temperature, K = 313.15
Property: Vapor or sublimation pressure, kPa (Gas); method: Closed cell (Static) method
Mole fraction of pentan-2-ol	Vapor or sublimation pressure, kPa	uncertainty
0	44.954	0.163
0.0498	43.919	0.161
0.1004	43.129	0.158
0.1502	42.445	0.156
0.2007	41.709	0.153
0.2521	40.857	0.151
0.3011	39.951	0.148
0.3513	38.94	0.145
0.4013	37.85	0.142
0.4015	37.838	0.142
0.4514	36.671	0.138
0.4516	36.656	0.138
0.5016	35.363	0.135
0.5018	35.35	0.135
0.5514	33.891	0.131
0.5519	33.874	0.131
0.6014	32.194	0.127
0.6022	32.175	0.127
0.6522	30.22	0.122
0.7024	27.937	0.118
0.7523	25.288	0.114
0.8022	22.18	0.111
0.852	18.481	0.112
0.9018	14	0.117
0.9509	8.634	0.127
1	2.281	0.023

System: pentan-2-ol + hex-1-ene; phases: Liquid
Fixed: Pressure, kPa = 101
Property: Excess molar enthalpy (molar enthalpy of mixing), kJ/mol (Liquid); method: Flow calorimetry
Temperature, K	Mole fraction of pentan-2-ol	Excess molar enthalpy (molar enthalpy of mixing), kJ/mol	uncertainty
298.15	0	0	0.001
298.15	0.0503	0.4887	0.0066
298.15	0.0999	0.6592	0.0085
298.15	0.1511	0.7665	0.0098
298.15	0.2015	0.8453	0.0108
298.15	0.2513	0.9017	0.0115
298.15	0.3027	0.9404	0.0119
298.15	0.3512	0.9634	0.0122
298.15	0.4032	0.9792	0.0124
298.15	0.4525	0.9788	0.0124
298.15	0.503	0.9622	0.0122
298.15	0.5529	0.9282	0.0118
298.15	0.6018	0.8769	0.0112
298.15	0.6523	0.8108	0.0104
298.15	0.702	0.7311	0.0094
298.15	0.751	0.6306	0.0082
298.15	0.8004	0.5139	0.0067
298.15	0.85	0.3914	0.0053
298.15	0.9007	0.24	0.0034
298.15	0.9507	0.1123	0.0019
298.15	1	0	0.001
313.15	0	0	0.001
313.15	0.05	0.5895	0.0078
313.15	0.0999	0.821	0.0105
313.15	0.1512	0.957	0.0122
313.15	0.2017	1.0608	0.0134
313.15	0.2516	1.1136	0.0141
313.15	0.3028	1.16	0.0146
313.15	0.3513	1.179	0.0149
313.15	0.4034	1.1817	0.0149
313.15	0.4509	1.163	0.0147
313.15	0.5014	1.1357	0.0143
313.15	0.5513	1.0947	0.0138
313.15	0.6005	1.0365	0.0131
313.15	0.6523	0.9499	0.0121
313.15	0.702	0.8598	0.011
313.15	0.751	0.7518	0.0096
313.15	0.8012	0.6225	0.0081
313.15	0.8506	0.4804	0.0064
313.15	0.9012	0.3104	0.0043
313.15	0.9509	0.1551	0.0025
313.15	1	0	0.001

System: pentan-1-ol + 1,2,4-trimethylbenzene; phases: Gas, Liquid
Fixed: Temperature, K = 313.15
Property: Vapor or sublimation pressure, kPa (Gas); method: Closed cell (Static) method
Mole fraction of pentan-1-ol	Vapor or sublimation pressure, kPa	uncertainty
0	0.73	0.016
0.05	1.076	0.02
0.0997	1.107	0.02
0.1499	1.135	0.021
0.1997	1.15	0.021
0.2498	1.16	0.021
0.2996	1.168	0.021
0.3498	1.175	0.021
0.3999	1.18	0.021
0.4002	1.171	0.021
0.4499	1.182	0.021
0.4502	1.171	0.021
0.5	1.182	0.021
0.5003	1.175	0.021
0.55	1.181	0.021
0.5502	1.173	0.021
0.6	1.176	0.021
0.6002	1.171	0.021
0.6503	1.166	0.021
0.6912	1.16	0.021
0.7503	1.144	0.021
0.8004	1.12	0.02
0.8505	1.091	0.02
0.9005	1.041	0.019
0.9503	0.989	0.019
1	0.918	0.018

System: pentan-1-ol + 1,2,4-trimethylbenzene; phases: Gas, Liquid
Fixed: Temperature, K = 313.15
Property: Mole fraction of pentan-1-ol (Gas); method: Calculated using Barker's Method
Mole fraction of pentan-1-ol	Mole fraction of pentan-1-ol	uncertainty
0	0	
0.05	0.3638	0.0069
0.0997	0.3928	0.0061
0.1499	0.4053	0.0063
0.1997	0.4184	0.0065
0.2498	0.4314	0.0067
0.2996	0.4427	0.0069
0.3498	0.4529	0.0071
0.3999	0.464	0.0073
0.4002	0.4641	0.0073
0.4499	0.4781	0.0075
0.4502	0.4782	0.0075
0.5	0.497	0.0078
0.5003	0.4971	0.0078
0.55	0.5214	0.0075
0.5502	0.5215	0.0075
0.6	0.5507	0.0071
0.6002	0.5508	0.0071
0.6503	0.5832	0.0066
0.6912	0.6102	0.0062
0.7503	0.6488	0.0056
0.8004	0.6823	0.0051
0.8505	0.7228	0.0045
0.9005	0.7825	0.0038
0.9503	0.8769	0.003
1	1	

System: pentan-1-ol + 1,2,4-trimethylbenzene; phases: Liquid
Fixed: Pressure, kPa = 101
Property: Excess molar enthalpy (molar enthalpy of mixing), kJ/mol (Liquid); method: Flow calorimetry
Temperature, K	Mole fraction of pentan-1-ol	Excess molar enthalpy (molar enthalpy of mixing), kJ/mol	uncertainty
298.15	0	0	0.001
298.15	0.0503	0.52	0.007
298.15	0.0995	0.7339	0.0094
298.15	0.15	0.855	0.0109
298.15	0.1995	0.9186	0.0117
298.15	0.2501	0.9749	0.0124
298.15	0.2997	1.0066	0.0128
298.15	0.3481	1.015	0.0129
298.15	0.3998	1.0051	0.0127
298.15	0.4481	0.979	0.0124
298.15	0.4995	0.9342	0.0119
298.15	0.5495	0.8804	0.0112
298.15	0.5985	0.8118	0.0104
298.15	0.6482	0.7332	0.0094
298.15	0.6985	0.6414	0.0083
298.15	0.7494	0.5394	0.0071
298.15	0.7991	0.4345	0.0058
298.15	0.8492	0.3253	0.0045
298.15	0.8997	0.2206	0.0032
298.15	0.9505	0.1058	0.0019
298.15	1	0	0.001
313.15	0	0	0.001
313.15	0.0503	0.5815	0.0078
313.15	0.0995	0.864	0.011
313.15	0.15	1.0363	0.0131
313.15	0.1995	1.1412	0.0144
313.15	0.2502	1.2074	0.0152
313.15	0.2997	1.2417	0.0156
313.15	0.3481	1.2572	0.0158
313.15	0.3998	1.2546	0.0158
313.15	0.4482	1.2326	0.0155
313.15	0.4995	1.1825	0.0149
313.15	0.5496	1.122	0.0142
313.15	0.5986	1.0469	0.0133
313.15	0.6482	0.9514	0.0121
313.15	0.6986	0.8475	0.0108
313.15	0.7495	0.7233	0.0093
313.15	0.7991	0.5937	0.0077
313.15	0.8492	0.4523	0.006
313.15	0.8997	0.3051	0.0042
313.15	0.9505	0.148	0.0024
313.15	1	0	0.001

System: pentan-2-ol + 1,2,4-trimethylbenzene; phases: Gas, Liquid
Fixed: Temperature, K = 313.15
Property: Vapor or sublimation pressure, kPa (Gas); method: Closed cell (Static) method
Mole fraction of pentan-2-ol	Vapor or sublimation pressure, kPa	uncertainty
0	0.73	0.016
0.0504	1.227	0.023
0.1002	1.477	0.021
0.1504	1.624	0.021
0.2	1.715	0.022
0.2509	1.802	0.022
0.301	1.864	0.022
0.3512	1.932	0.022
0.4	1.966	0.023
0.4015	1.976	0.023
0.4499	2.024	0.024
0.4515	2.011	0.024
0.5	2.067	0.024
0.5016	2.079	0.024
0.55	2.086	0.033
0.5517	2.127	0.033
0.5999	2.127	0.026
0.6016	2.148	0.026
0.6499	2.167	0.023
0.7	2.212	0.023
0.7501	2.238	0.023
0.8	2.244	0.023
0.8501	2.265	0.023
0.9003	2.283	0.023
0.9504	2.278	0.023
1	2.268	0.023

System: pentan-2-ol + 1,2,4-trimethylbenzene; phases: Gas, Liquid
Fixed: Temperature, K = 313.15
Property: Mole fraction of pentan-2-ol (Gas); method: Calculated using Barker's Method
Mole fraction of pentan-2-ol	Mole fraction of pentan-2-ol	uncertainty
0	0	
0.0504	0.4515	0.009
0.1002	0.5566	0.0071
0.1504	0.6065	0.0062
0.2	0.6378	0.0057
0.2509	0.6619	0.0054
0.301	0.6816	0.005
0.3512	0.6993	0.0048
0.4	0.7154	0.0045
0.4015	0.7159	0.0045
0.4499	0.7313	0.0043
0.4515	0.7318	0.0043
0.5	0.747	0.004
0.5016	0.7475	0.004
0.55	0.7626	0.0038
0.5517	0.7631	0.0038
0.5999	0.7781	0.0035
0.6016	0.7787	0.0035
0.6499	0.7939	0.0033
0.7	0.8103	0.003
0.7501	0.8282	0.0028
0.8	0.8489	0.0025
0.8501	0.8747	0.0022
0.9003	0.9079	0.0018
0.9504	0.9506	0.0015
1	1	

System: pentan-2-ol + 1,2,4-trimethylbenzene; phases: Liquid
Fixed: Pressure, kPa = 101
Property: Excess molar enthalpy (molar enthalpy of mixing), kJ/mol (Liquid); method: Flow calorimetry
Temperature, K	Mole fraction of pentan-2-ol	Excess molar enthalpy (molar enthalpy of mixing), kJ/mol	uncertainty
298.15	0	0	0.001
298.15	0.0499	0.60123	0.008
298.15	0.1012	0.91108	0.01163
298.15	0.149	1.10321	0.01395
298.15	0.2006	1.24085	0.01563
298.15	0.2487	1.3457	0.0169
298.15	0.298	1.41552	0.01776
298.15	0.3485	1.46622	0.01838
298.15	0.3979	1.49647	0.01875
298.15	0.4482	1.50798	0.01889
298.15	0.4996	1.48956	0.01866
298.15	0.5496	1.45897	0.01829
298.15	0.6006	1.39639	0.01752
298.15	0.6502	1.31022	0.01647
298.15	0.6988	1.20805	0.01522
298.15	0.748	1.08249	0.01369
298.15	0.7979	0.9217	0.01173
298.15	0.8482	0.73434	0.00945
298.15	0.899	0.51943	0.00686
298.15	0.9502	0.2709	0.00391
298.15	1	0	0.001
313.15	0	0	0.001
313.15	0.0499	0.6219	0.0083
313.15	0.0987	0.9919	0.0126
313.15	0.149	1.2352	0.0156
313.15	0.1982	1.3956	0.0175
313.15	0.2509	1.5084	0.0189
313.15	0.3002	1.5981	0.02
313.15	0.3507	1.641	0.0205
313.15	0.3979	1.668	0.0208
313.15	0.4504	1.6728	0.0209
313.15	0.4996	1.6601	0.0207
313.15	0.5476	1.6156	0.0202
313.15	0.6005	1.5454	0.0193
313.15	0.6482	1.4496	0.0182
313.15	0.6987	1.3319	0.0167
313.15	0.7479	1.1914	0.015
313.15	0.7978	1.0162	0.0129
313.15	0.8481	0.8112	0.0104
313.15	0.8989	0.578	0.0076
313.15	0.9501	0.3003	0.0043
313.15	1	0	0.001
