Measured thermophysical data. Stereoisomeric effects on volumetric properties under pressure for the system cis- + trans-decalin
Source: Fluid Phase Equilib., 2007, 10.1016/j.fluid.2006.12.011
Compound 1: cis-decahydronaphthalene, C10H18, InChI=1S/C10H18/c1-2-6-10-8-4-3-7-9(10)5-1/h9-10H,1-8H2/t9-,10+
Compound 2: trans-decahydronaphthalene, C10H18, InChI=1S/C10H18/c1-2-6-10-8-4-3-7-9(10)5-1/h9-10H,1-8H2/t9-,10-

System: cis-decahydronaphthalene; phases: Liquid
Property: Mass density, kg/m3 (Liquid); method: Vibrating tube method
Temperature, K	Pressure, kPa	Mass density, kg/m3	uncertainty
303.15	100	888.5	1.2
303.15	5000	891.4	1.2
303.15	10000	894.4	1.2
303.15	15000	897.3	1.2
303.15	20000	899.9	1.2
303.15	25000	902.8	1.3
303.15	30000	905.5	1.3
303.15	35000	908	1.3
303.15	40000	910.6	1.3
303.15	45000	913	1.3
303.15	50000	915.3	1.3
303.15	55000	917.6	1.3
303.15	60000	919.9	1.3
303.15	65000	922.1	1.3
323.15	100	873.2	1.2
323.15	5000	876.5	1.2
323.15	10000	879.8	1.2
323.15	15000	883	1.2
323.15	20000	886	1.2
323.15	25000	889	1.3
323.15	30000	891.8	1.3
323.15	35000	894.6	1.3
323.15	40000	897.3	1.3
323.15	45000	899.9	1.3
323.15	50000	902.4	1.3
323.15	55000	904.8	1.3
323.15	60000	907.3	1.3
323.15	65000	909.6	1.3
343.15	100	857.8	1.2
343.15	5000	861.5	1.2
343.15	10000	865.1	1.2
343.15	15000	868.6	1.2
343.15	20000	871.9	1.2
343.15	25000	875.1	1.3
343.15	30000	878.3	1.3
343.15	35000	881.2	1.3
343.15	40000	884.1	1.3
343.15	45000	887	1.3
343.15	50000	889.7	1.3
343.15	55000	892.3	1.3
343.15	60000	894.9	1.3
343.15	65000	897.4	1.3

System: trans-decahydronaphthalene; phases: Liquid
Property: Mass density, kg/m3 (Liquid); method: Vibrating tube method
Temperature, K	Pressure, kPa	Mass density, kg/m3	uncertainty
303.15	100	862.1	1
303.15	5000	865.4	1
303.15	10000	868.7	1
303.15	15000	871.6	1
303.15	20000	874.6	1
303.15	25000	877.6	1.1
303.15	30000	880.3	1.1
303.15	35000	882.9	1.1
303.15	40000	885.6	1.1
303.15	45000	888.2	1.1
303.15	50000	890.6	1.1
303.15	55000	893	1.1
303.15	60000	895.3	1.1
303.15	65000	897.6	1.1
323.15	100	847.1	1
323.15	5000	850.9	1
323.15	10000	854.4	1
323.15	15000	857.8	1
323.15	20000	861	1
323.15	25000	864.1	1.1
323.15	30000	867.1	1.1
323.15	35000	870	1.1
323.15	40000	872.8	1.1
323.15	45000	875.6	1.1
323.15	50000	878.3	1.1
323.15	55000	880.8	1.1
323.15	60000	883.4	1.1
323.15	65000	885.8	1.1
343.15	100	832	1
343.15	5000	836.2	1
343.15	10000	840.1	1
343.15	15000	843.9	1
343.15	20000	847.4	1.1
343.15	25000	850.8	1.1
343.15	30000	854.1	1.1
343.15	35000	857.2	1.1
343.15	40000	860.3	1.1
343.15	45000	863.2	1.1
343.15	50000	866.1	1.1
343.15	55000	868.8	1.1
343.15	60000	871.5	1.1
343.15	65000	874.2	1.1

System: cis-decahydronaphthalene + trans-decahydronaphthalene; phases: Liquid
Property: Mass density, kg/m3 (Liquid); method: Vibrating tube method
Temperature, K	Pressure, kPa	Mole fraction of cis-decahydronaphthalene	Mass density, kg/m3	uncertainty
303.15	100	0	862.1	1
303.15	100	0.2	867.4	1
303.15	100	0.35	871.5	1.1
303.15	100	0.5	875.5	1.1
303.15	100	0.65	879.2	1.1
303.15	100	0.8	883.4	1.1
303.15	100	1	888.5	1.2
303.15	5000	0	865.4	1
303.15	5000	0.2	870.6	1
303.15	5000	0.35	874.6	1.1
303.15	5000	0.5	878.5	1.1
303.15	5000	0.65	882.3	1.1
303.15	5000	0.8	886.3	1.1
303.15	5000	1	891.4	1.2
303.15	10000	0	868.7	1
303.15	10000	0.2	873.8	1.1
303.15	10000	0.35	877.7	1.1
303.15	10000	0.5	881.6	1.1
303.15	10000	0.65	885.3	1.1
303.15	10000	0.8	889.4	1.2
303.15	10000	1	894.4	1.2
303.15	15000	0	871.6	1
303.15	15000	0.2	876.8	1.1
303.15	15000	0.35	880.7	1.1
303.15	15000	0.5	884.5	1.1
303.15	15000	0.65	888.3	1.1
303.15	15000	0.8	892.3	1.2
303.15	15000	1	897.3	1.2
303.15	20000	0	874.6	1
303.15	20000	0.2	879.7	1.1
303.15	20000	0.35	883.6	1.1
303.15	20000	0.5	887.5	1.1
303.15	20000	0.65	891.2	1.1
303.15	20000	0.8	895.2	1.2
303.15	20000	1	899.9	1.2
303.15	25000	0	877.6	1.1
303.15	25000	0.2	882.6	1.1
303.15	25000	0.35	886.4	1.1
303.15	25000	0.5	890.3	1.1
303.15	25000	0.65	894	1.1
303.15	25000	0.8	897.9	1.2
303.15	25000	1	902.8	1.3
303.15	30000	0	880.3	1.1
303.15	30000	0.2	885.3	1.1
303.15	30000	0.35	889.2	1.1
303.15	30000	0.5	893	1.1
303.15	30000	0.65	896.7	1.2
303.15	30000	0.8	900.6	1.2
303.15	30000	1	905.5	1.3
303.15	35000	0	882.9	1.1
303.15	35000	0.2	888	1.1
303.15	35000	0.35	891.8	1.1
303.15	35000	0.5	895.6	1.1
303.15	35000	0.65	899.3	1.2
303.15	35000	0.8	903.2	1.2
303.15	35000	1	908	1.3
303.15	40000	0	885.6	1.1
303.15	40000	0.2	890.7	1.1
303.15	40000	0.35	894.5	1.1
303.15	40000	0.5	898.2	1.1
303.15	40000	0.65	901.9	1.2
303.15	40000	0.8	905.7	1.2
303.15	40000	1	910.6	1.3
303.15	45000	0	888.2	1.1
303.15	45000	0.2	893.2	1.1
303.15	45000	0.35	896.9	1.1
303.15	45000	0.5	900.7	1.1
303.15	45000	0.65	904.4	1.2
303.15	45000	0.8	908.1	1.2
303.15	45000	1	913	1.3
303.15	50000	0	890.6	1.1
303.15	50000	0.2	895.6	1.1
303.15	50000	0.35	899.4	1.1
303.15	50000	0.5	903	1.2
303.15	50000	0.65	906.7	1.2
303.15	50000	0.8	910.5	1.2
303.15	50000	1	915.3	1.3
303.15	55000	0	893	1.1
303.15	55000	0.2	898	1.1
303.15	55000	0.35	901.7	1.1
303.15	55000	0.5	905.4	1.2
303.15	55000	0.65	909	1.2
303.15	55000	0.8	912.8	1.2
303.15	55000	1	917.6	1.3
303.15	60000	0	895.3	1.1
303.15	60000	0.2	900.3	1.1
303.15	60000	0.35	904	1.1
303.15	60000	0.5	907.7	1.2
303.15	60000	0.65	911.3	1.2
303.15	60000	0.8	915.1	1.2
303.15	60000	1	919.9	1.3
303.15	65000	0	897.6	1.1
303.15	65000	0.2	902.6	1.1
303.15	65000	0.35	906.3	1.1
303.15	65000	0.5	909.9	1.2
303.15	65000	0.65	913.6	1.2
303.15	65000	0.8	917.3	1.3
303.15	65000	1	922.1	1.3
323.15	100	0	847.1	1
323.15	100	0.2	852.1	1
323.15	100	0.35	856.3	1.1
323.15	100	0.5	860.2	1.1
323.15	100	0.65	864.2	1.1
323.15	100	0.8	868.1	1.1
323.15	100	1	873.2	1.2
323.15	5000	0	850.9	1
323.15	5000	0.2	855.9	1
323.15	5000	0.35	859.9	1.1
323.15	5000	0.5	863.7	1.1
323.15	5000	0.65	867.6	1.1
323.15	5000	0.8	871.6	1.1
323.15	5000	1	876.5	1.2
323.15	10000	0	854.4	1
323.15	10000	0.2	859.4	1.1
323.15	10000	0.35	863.3	1.1
323.15	10000	0.5	867.1	1.1
323.15	10000	0.65	870.9	1.1
323.15	10000	0.8	874.9	1.2
323.15	10000	1	879.8	1.2
323.15	15000	0	857.8	1
323.15	15000	0.2	862.7	1.1
323.15	15000	0.35	866.6	1.1
323.15	15000	0.5	870.4	1.1
323.15	15000	0.65	874.2	1.1
323.15	15000	0.8	878.1	1.2
323.15	15000	1	883	1.2
323.15	20000	0	861	1
323.15	20000	0.2	865.9	1.1
323.15	20000	0.35	869.8	1.1
323.15	20000	0.5	873.5	1.1
323.15	20000	0.65	877.3	1.1
323.15	20000	0.8	881.2	1.2
323.15	20000	1	886	1.2
323.15	25000	0	864.1	1.1
323.15	25000	0.2	869	1.1
323.15	25000	0.35	872.9	1.1
323.15	25000	0.5	876.5	1.1
323.15	25000	0.65	880.3	1.1
323.15	25000	0.8	884.2	1.2
323.15	25000	1	889	1.3
323.15	30000	0	867.1	1.1
323.15	30000	0.2	872	1.1
323.15	30000	0.35	875.8	1.1
323.15	30000	0.5	879.4	1.1
323.15	30000	0.65	883.2	1.2
323.15	30000	0.8	887	1.2
323.15	30000	1	891.8	1.3
323.15	35000	0	870	1.1
323.15	35000	0.2	874.9	1.1
323.15	35000	0.35	878.7	1.1
323.15	35000	0.5	882.3	1.1
323.15	35000	0.65	886.1	1.2
323.15	35000	0.8	889.8	1.2
323.15	35000	1	894.6	1.3
323.15	40000	0	872.8	1.1
323.15	40000	0.2	877.6	1.1
323.15	40000	0.35	881.5	1.1
323.15	40000	0.5	885.1	1.1
323.15	40000	0.65	888.7	1.2
323.15	40000	0.8	892.6	1.2
323.15	40000	1	897.3	1.3
323.15	45000	0	875.6	1.1
323.15	45000	0.2	880.4	1.1
323.15	45000	0.35	884.2	1.1
323.15	45000	0.5	887.7	1.2
323.15	45000	0.65	891.4	1.2
323.15	45000	0.8	895.2	1.2
323.15	45000	1	899.9	1.3
323.15	50000	0	878.3	1.1
323.15	50000	0.2	882.9	1.1
323.15	50000	0.35	886.7	1.1
323.15	50000	0.5	890.3	1.2
323.15	50000	0.65	894	1.2
323.15	50000	0.8	897.7	1.2
323.15	50000	1	902.4	1.3
323.15	55000	0	880.8	1.1
323.15	55000	0.2	885.5	1.1
323.15	55000	0.35	889.2	1.1
323.15	55000	0.5	892.8	1.2
323.15	55000	0.65	896.4	1.2
323.15	55000	0.8	900.2	1.2
323.15	55000	1	904.8	1.3
323.15	60000	0	883.4	1.1
323.15	60000	0.2	888	1.1
323.15	60000	0.35	891.8	1.2
323.15	60000	0.5	895.3	1.2
323.15	60000	0.65	899	1.2
323.15	60000	0.8	902.7	1.3
323.15	60000	1	907.3	1.3
323.15	65000	0	885.8	1.1
323.15	65000	0.2	890.5	1.1
323.15	65000	0.35	894.2	1.2
323.15	65000	0.5	897.7	1.2
323.15	65000	0.65	901.3	1.2
323.15	65000	0.8	905	1.3
323.15	65000	1	909.6	1.3
343.15	100	0	832	1
343.15	100	0.2	837.2	1
343.15	100	0.35	841.1	1.1
343.15	100	0.5	844.9	1.1
343.15	100	0.65	849	1.1
343.15	100	0.8	853.2	1.1
343.15	100	1	857.8	1.2
343.15	5000	0	836.2	1
343.15	5000	0.2	841.2	1
343.15	5000	0.35	845	1.1
343.15	5000	0.5	848.8	1.1
343.15	5000	0.65	852.7	1.1
343.15	5000	0.8	857	1.1
343.15	5000	1	861.5	1.2
343.15	10000	0	840.1	1
343.15	10000	0.2	845	1.1
343.15	10000	0.35	848.9	1.1
343.15	10000	0.5	852.5	1.1
343.15	10000	0.65	856.5	1.1
343.15	10000	0.8	860.6	1.2
343.15	10000	1	865.1	1.2
343.15	15000	0	843.9	1
343.15	15000	0.2	848.8	1.1
343.15	15000	0.35	852.5	1.1
343.15	15000	0.5	856.2	1.1
343.15	15000	0.65	860	1.1
343.15	15000	0.8	864.2	1.2
343.15	15000	1	868.6	1.2
343.15	20000	0	847.4	1.1
343.15	20000	0.2	852.2	1.1
343.15	20000	0.35	855.9	1.1
343.15	20000	0.5	859.6	1.1
343.15	20000	0.65	863.4	1.1
343.15	20000	0.8	867.5	1.2
343.15	20000	1	871.9	1.2
343.15	25000	0	850.8	1.1
343.15	25000	0.2	855.6	1.1
343.15	25000	0.35	859.3	1.1
343.15	25000	0.5	862.9	1.1
343.15	25000	0.65	866.7	1.2
343.15	25000	0.8	870.7	1.2
343.15	25000	1	875.1	1.3
343.15	30000	0	854.1	1.1
343.15	30000	0.2	858.8	1.1
343.15	30000	0.35	862.6	1.1
343.15	30000	0.5	866.2	1.1
343.15	30000	0.65	870	1.2
343.15	30000	0.8	873.9	1.2
343.15	30000	1	878.3	1.3
343.15	35000	0	857.2	1.1
343.15	35000	0.2	862	1.1
343.15	35000	0.35	865.6	1.1
343.15	35000	0.5	869.2	1.1
343.15	35000	0.65	873	1.2
343.15	35000	0.8	876.9	1.2
343.15	35000	1	881.2	1.3
343.15	40000	0	860.3	1.1
343.15	40000	0.2	865	1.1
343.15	40000	0.35	868.6	1.1
343.15	40000	0.5	872.2	1.2
343.15	40000	0.65	875.9	1.2
343.15	40000	0.8	879.8	1.2
343.15	40000	1	884.1	1.3
343.15	45000	0	863.2	1.1
343.15	45000	0.2	867.9	1.1
343.15	45000	0.35	871.6	1.1
343.15	45000	0.5	875.1	1.2
343.15	45000	0.65	878.8	1.2
343.15	45000	0.8	882.6	1.2
343.15	45000	1	887	1.3
343.15	50000	0	866.1	1.1
343.15	50000	0.2	870.8	1.1
343.15	50000	0.35	874.4	1.1
343.15	50000	0.5	878	1.2
343.15	50000	0.65	881.6	1.2
343.15	50000	0.8	885.4	1.2
343.15	50000	1	889.7	1.3
343.15	55000	0	868.8	1.1
343.15	55000	0.2	873.6	1.1
343.15	55000	0.35	877.1	1.2
343.15	55000	0.5	880.6	1.2
343.15	55000	0.65	884.3	1.2
343.15	55000	0.8	888	1.3
343.15	55000	1	892.3	1.3
343.15	60000	0	871.5	1.1
343.15	60000	0.2	876.2	1.1
343.15	60000	0.35	879.7	1.2
343.15	60000	0.5	883.1	1.2
343.15	60000	0.65	886.9	1.2
343.15	60000	0.8	890.6	1.3
343.15	60000	1	894.9	1.3
343.15	65000	0	874.2	1.1
343.15	65000	0.2	878.9	1.2
343.15	65000	0.35	882.4	1.2
343.15	65000	0.5	885.8	1.2
343.15	65000	0.65	889.5	1.2
343.15	65000	0.8	893.2	1.3
343.15	65000	1	897.4	1.3
