Measured thermophysical data. Gas liquid partition coefficients and Henry s law constants of methyl mercaptan in aqueous solutions of Fe(II) CDTA chelate complex
Source: Fluid Phase Equilib., 2007, 10.1016/j.fluid.2007.02.008
Compound 1: methanethiol, CH4S, InChI=1S/CH4S/c1-2/h2H,1H3, purity 95%
Compound 2: water, H2O, InChI=1S/H2O/h1H2, purity 99.5%
Compound 3: 1,2-cyclohexylenedinitrilotetraacetic acid, C14H22N2O8, InChI=1S/C14H22N2O8/c17-11(18)5-15(6-12(19)20)9-3-1-2-4-10(9)16(7-13(21)22)8-14(23)24/h9-10H,1-8H2,(H,17,18)(H,19,20)(H,21,22)(H,23,24), purity 99.3%

System: methanethiol + water; phases: Liquid, Gas
Fixed: Amount concentration (molarity), mol/dm3 of methanethiol = 0
Property: Henry's Law constant (amount concentration scale), kPa*dm3/mol of methanethiol (Liquid); method: Chromatography
Temperature, K	Henry's Law constant (amount concentration scale), kPa*dm3/mol of methanethiol	uncertainty
298.15	267.6	14.5
303.15	322.6	17.4
308.15	387.4	20.9
313.15	450.2	24.3
318.15	520.4	28.1
323.15	608.9	32.9
328.15	712	38.4
333.15	849.3	45.9

System: methanethiol + water + 1,2-cyclohexylenedinitrilotetraacetic acid; phases: Liquid, Gas
Fixed: Amount concentration (molarity), mol/dm3 of methanethiol = 0
Property: Henry's Law constant (amount concentration scale), kPa*dm3/mol of methanethiol (Liquid); method: Chromatography
Temperature, K	Solvent: Amount concentration (molarity), mol/dm3 of 1,2-cyclohexylenedinitrilotetraacetic acid	Henry's Law constant (amount concentration scale), kPa*dm3/mol of methanethiol	uncertainty
298.15	0.038	314.6	17
298.15	0.06	331	17.9
298.15	0.124	376.7	20.3
298.15	0.3	478.5	25.8
303.15	0.038	364.7	19.7
303.15	0.06	390.8	21.1
303.15	0.124	438.3	23.7
303.15	0.3	536.3	29
308.15	0.038	443.2	23.9
308.15	0.06	477.1	25.8
308.15	0.124	515.5	27.8
308.15	0.3	608.5	32.9
313.15	0.038	521.7	28.2
313.15	0.06	555.1	30
313.15	0.124	602.7	32.5
313.15	0.3	701.8	37.9
318.15	0.038	595.7	32.2
318.15	0.06	634.3	34.3
318.15	0.124	683.5	36.9
318.15	0.3	778	42
323.15	0.038	688.9	37.2
323.15	0.06	732.1	39.5
323.15	0.124	781	42.2
323.15	0.3	875.1	47.3
328.15	0.038	786.2	42.5
328.15	0.06	831.8	44.9
328.15	0.124	918.6	49.6
328.15	0.3	1010.5	54.6
333.15	0.038	917.2	49.5
333.15	0.06	929.5	50.2
333.15	0.124	1010.9	54.6
333.15	0.3	1130.5	61
