Measured thermophysical data. Thermodynamic modeling of quaternary (CaCl2+Ca(NO3)2+L-alanine+water) system at T = (298.2, 303.2 and 308.2) K: Experimental measurements and thermodynamic modeling
Source: Fluid Phase Equilib., 2017, 10.1016/j.fluid.2017.01.014
Compound 1: (S)-2-aminopropanoic acid, C3H7NO2, InChI=1S/C3H7NO2/c1-2(4)3(5)6/h2H,4H2,1H3,(H,5,6)/t2-/m0/s1, purity 99%
Compound 2: water, H2O, InChI=1S/H2O/h1H2
Compound 3: calcium nitrate, CaN2O6, InChI=1S/Ca.2NO3/c;2*2-1(3)4/q+2;2*-1, purity 99%

System: (S)-2-aminopropanoic acid + water + calcium nitrate; phases: Liquid
Fixed: Pressure, kPa = 101
Property: Mean ionic activity coefficient of calcium nitrate (Liquid); method: Calculated from EMF cell potential
Temperature, K	Molality, mol/kg of calcium nitrate	Solvent: Molality, mol/kg of (S)-2-aminopropanoic acid	Mean ionic activity coefficient of calcium nitrate	uncertainty
298.2	0.0033	0.2	0.8424	0.022
298.2	0.0164	0.1998	0.7432	0.0241
298.2	0.0332	0.1995	0.7014	0.0233
298.2	0.0826	0.1988	0.6557	0.0237
298.2	0.1649	0.1977	0.6212	0.0241
298.2	0.2457	0.1965	0.5951	0.0243
298.2	0.3256	0.1954	0.5718	0.0245
298.2	0.4045	0.1943	0.5509	0.0247
298.2	0.4828	0.1933	0.5324	0.0249
298.2	0.56	0.1922	0.5164	0.0251
298.2	0.6362	0.1912	0.5027	0.0252
298.2	0.7861	0.1893	0.4818	0.0254
298.2	0.9328	0.1874	0.4686	0.0255
298.2	1.0762	0.1856	0.4621	0.0256
298.2	1.215	0.1839	0.4616	0.0256
303.2	0.0034	0.2	0.8396	0.022
303.2	0.0168	0.1998	0.7395	0.0237
303.2	0.0334	0.1995	0.6985	0.0231
303.2	0.0828	0.1988	0.6514	0.024
303.2	0.1651	0.1976	0.6138	0.0239
303.2	0.2459	0.1965	0.5848	0.0242
303.2	0.3256	0.1954	0.5593	0.0247
303.2	0.4046	0.1943	0.5367	0.0248
303.2	0.4826	0.1933	0.5172	0.025
303.2	0.5607	0.1922	0.5004	0.0252
303.2	0.6363	0.1912	0.4867	0.0321
303.2	0.7863	0.1893	0.4668	0.0256
303.2	0.9328	0.1874	0.4561	0.0257
303.2	1.0763	0.1856	0.4535	0.0257
303.2	1.2166	0.1839	0.4583	0.0257
308.2	0.0033	0.2	0.8406	0.022
308.2	0.0164	0.1998	0.7422	0.0241
308.2	0.0332	0.1995	0.7015	0.0233
308.2	0.0826	0.1988	0.6571	0.0237
308.2	0.1649	0.1977	0.6215	0.0241
308.2	0.2457	0.1965	0.5928	0.0243
308.2	0.3256	0.1954	0.5667	0.0246
308.2	0.4045	0.1943	0.5433	0.0248
308.2	0.4828	0.1933	0.5227	0.025
308.2	0.56	0.1922	0.5051	0.0252
308.2	0.6362	0.1912	0.4904	0.0253
308.2	0.7861	0.1893	0.4688	0.0255
308.2	0.9328	0.1874	0.4566	0.0257
308.2	1.0762	0.1856	0.4528	0.0257
308.2	1.215	0.1839	0.4565	0.0257
