Measured thermophysical data. Experimental solid-liquid equilibria of the ternary system Co(NO3)2 + Mn(NO3)2 + H2O at 20 .deg.C, 0 .deg.C and -15 .deg.C
Source: Fluid Phase Equilib., 2019, 10.1016/j.fluid.2019.01.006
Compound 1: manganese nitrate, MnN2O6, InChI=1S/Mn.2NO3/c;2*2-1(3)4/q+2;2*-1, purity 99.9%
Compound 2: cobalt(II) nitrate, CoN2O6, InChI=1S/Co.2NO3/c;2*2-1(3)4/q+2;2*-1, purity 99.9%
Compound 3: water, H2O, InChI=1S/H2O/h1H2, purity 99.9%

System: manganese nitrate + cobalt(II) nitrate + water; phases: Liquid, Crystal of intercomponent compound 1
Fixed: Pressure, kPa = 101.3
Property: Mass fraction of cobalt(II) nitrate (Liquid); method: Conductivity measurement method
Temperature, K	Mass fraction of manganese nitrate	Mass fraction of cobalt(II) nitrate	uncertainty
293.15	0	0.497	0.002
293.15	0.0209	0.4704	0.0018
293.15	0.0687	0.4256	0.0017
293.15	0.0991	0.392	0.002
293.15	0.1336	0.3571	0.0016
293.15	0.1714	0.3252	0.0016
293.15	0.1991	0.2967	0.0016
293.15	0.2344	0.2651	0.0015
293.15	0.2718	0.2362	0.0014
293.15	0.3052	0.2109	0.0013
293.15	0.3481	0.1835	0.0013
293.15	0.3897	0.1541	0.0013
273.15	0	0.452	0.002
273.15	0.041	0.4117	0.0017
273.15	0.0744	0.3806	0.0016
273.15	0.1039	0.3518	0.0016
273.15	0.1336	0.3221	0.0016
273.15	0.1637	0.2923	0.0016
273.15	0.1975	0.2588	0.0015
273.15	0.2277	0.2327	0.0014
273.15	0.267	0.2011	0.0014
273.15	0.2987	0.1838	0.0013
273.15	0.3236	0.1627	0.0013
273.15	0.3497	0.1445	0.0013
258.15	0	0.4186	0.0014
258.15	0.036	0.3775	0.0018
258.15	0.0621	0.3505	0.0016
258.15	0.1027	0.3148	0.0016
258.15	0.143	0.2776	0.0016
258.15	0.1753	0.2433	0.0015
258.15	0.2068	0.2174	0.0014
258.15	0.2417	0.1909	0.0014
258.15	0.2743	0.1662	0.0013
258.15	0.3019	0.1478	0.0013
258.15	0.3209	0.1354	0.0013

System: manganese nitrate + cobalt(II) nitrate + water; phases: Liquid, Crystal of intercomponent compound 2
Fixed: Pressure, kPa = 101.3
Property: Mass fraction of cobalt(II) nitrate (Liquid); method: Conductivity measurement method
Temperature, K	Mass fraction of manganese nitrate	Mass fraction of cobalt(II) nitrate	uncertainty
293.15	0.3897	0.1541	0.0015
293.15	0.3922	0.1517	0.0015
293.15	0.4103	0.1248	0.0017
293.15	0.4383	0.0936	0.0015
293.15	0.4743	0.0624	0.0014
293.15	0.5121	0.0341	0.0013
293.15	0.5343	0.0189	0.0012
293.15	0.5761	0	
273.15	0.3497	0.1445	0.0013
273.15	0.3553	0.1426	0.002
273.15	0.368	0.1176	0.0018
273.15	0.3848	0.0996	0.0015
273.15	0.4153	0.0709	0.0015
273.15	0.446	0.0443	0.0014
273.15	0.4709	0.0212	0.0013
273.15	0.503	0	
258.15	0.3209	0.1354	0.0021
258.15	0.3302	0.1199	0.002
258.15	0.3437	0.0992	0.0017
258.15	0.3708	0.0731	0.0016
258.15	0.3949	0.0449	0.0015
258.15	0.4255	0.0209	0.0013
258.15	0.4594	0	

System: manganese nitrate + cobalt(II) nitrate + water; phases: Liquid, Crystal
Fixed: Pressure, kPa = 101.3
Fixed: Temperature, K = 258.15
Property: Mass fraction of cobalt(II) nitrate (Liquid); method: Conductivity measurement method
Mass fraction of manganese nitrate	Mass fraction of cobalt(II) nitrate	uncertainty
0	0.2536	0.0011
0.0205	0.2381	0.0015
0.0593	0.1953	0.0016
0.0851	0.1644	0.0015
0.1226	0.1275	0.0014
0.1579	0.1012	0.0014
0.1848	0.0676	0.0014
0.2306	0.0258	0.0014
0.2568	0	

System: cobalt(II) nitrate + water; phases: Liquid, Crystal of intercomponent compound 1
Fixed: Pressure, kPa = 101.3
Property: Mass fraction of cobalt(II) nitrate (Liquid); method: Conductivity measurement method
Temperature, K	Mass fraction of cobalt(II) nitrate	uncertainty
293.15	0.497	0.002
273.15	0.452	0.002
258.15	0.4186	0.0014

System: cobalt(II) nitrate + water; phases: Liquid, Crystal
Property: Mass fraction of cobalt(II) nitrate (Liquid); method: Conductivity measurement method
Pressure, kPa	Temperature, K	Mass fraction of cobalt(II) nitrate	uncertainty
101.3	258.15	0.2536	0.0011

System: manganese nitrate + water; phases: Liquid, Crystal of intercomponent compound 2
Fixed: Pressure, kPa = 101.3
Property: Mass fraction of manganese nitrate (Liquid); method: Conductivity measurement method
Temperature, K	Mass fraction of manganese nitrate	uncertainty
293.15	0.5761	0.0017
273.15	0.503	0.002
258.15	0.4594	0.0015

System: manganese nitrate + water; phases: Liquid, Crystal
Property: Mass fraction of manganese nitrate (Liquid); method: Conductivity measurement method
Pressure, kPa	Temperature, K	Mass fraction of manganese nitrate	uncertainty
101.3	258.15	0.2568	
