Measured thermophysical data. Measurement and PC-SAFT modeling of solid-liquid equilibrium of deep eutectic solvents of quaternary ammonium chlorides and carboxylic acids
Source: Fluid Phase Equilib., 2017, 10.1016/j.fluid.2017.04.007
Compound 1: tetramethylammonium chloride, C4H12ClN, InChI=1S/C4H12N.ClH/c1-5(2,3)4;/h1-4H3;1H/q+1;/p-1, purity 97%
Compound 2: tetraethylammonium chloride, C8H20ClN, InChI=1S/C8H20N.ClH/c1-5-9(6-2,7-3)8-4;/h5-8H2,1-4H3;1H/q+1;/p-1, purity 98%
Compound 3: tetrapropylammonium chloride, C12H28ClN, InChI=1S/C12H28N.ClH/c1-5-9-13(10-6-2,11-7-3)12-8-4;/h5-12H2,1-4H3;1H/q+1;/p-1, purity 98%
Compound 4: decanoic acid, C10H20O2, InChI=1S/C10H20O2/c1-2-3-4-5-6-7-8-9-10(11)12/h2-9H2,1H3,(H,11,12), purity 99%
Compound 5: dodecanoic acid, C12H24O2, InChI=1S/C12H24O2/c1-2-3-4-5-6-7-8-9-10-11-12(13)14/h2-11H2,1H3,(H,13,14), purity 99%
Compound 6: tetradecanoic acid, C14H28O2, InChI=1S/C14H28O2/c1-2-3-4-5-6-7-8-9-10-11-12-13-14(15)16/h2-13H2,1H3,(H,15,16), purity 95%
Compound 7: hexadecanoic acid, C16H32O2, InChI=1S/C16H32O2/c1-2-3-4-5-6-7-8-9-10-11-12-13-14-15-16(17)18/h2-15H2,1H3,(H,17,18), purity 98%
Compound 8: octadecanoic acid, C18H36O2, InChI=1S/C18H36O2/c1-2-3-4-5-6-7-8-9-10-11-12-13-14-15-16-17-18(19)20/h2-17H2,1H3,(H,19,20), purity 97%
Compound 9: water, H2O, InChI=1S/H2O/h1H2, purity 99.8%

System: tetramethylammonium chloride; phases: Crystal, Liquid, Air at 1 atmosphere
Property: Normal melting temperature, K (Crystal); method: DTA
Normal melting temperature, K	uncertainty
612.87	12.33

System: tetraethylammonium chloride; phases: Crystal, Liquid, Air at 1 atmosphere
Property: Normal melting temperature, K (Crystal); method: DTA
Normal melting temperature, K	uncertainty
526.78	2.09

System: tetraethylammonium chloride; phases: Crystal, Liquid, Air at 1 atmosphere
Property: Molar enthalpy of transition or fusion, kJ/mol (Crystal); method: DSC
Molar enthalpy of transition or fusion, kJ/mol	uncertainty
51.24	1.07

System: tetrapropylammonium chloride; phases: Crystal, Liquid, Air at 1 atmosphere
Property: Normal melting temperature, K (Crystal); method: DTA
Normal melting temperature, K	uncertainty
503.07	5.13

System: tetrapropylammonium chloride; phases: Crystal, Liquid, Air at 1 atmosphere
Property: Molar enthalpy of transition or fusion, kJ/mol (Crystal); method: DSC
Molar enthalpy of transition or fusion, kJ/mol	uncertainty
66.58	4.38

System: decanoic acid; phases: Crystal, Liquid, Air at 1 atmosphere
Property: Normal melting temperature, K (Crystal); method: DTA
Normal melting temperature, K	uncertainty
304.75	0.41

System: decanoic acid; phases: Crystal, Liquid, Air at 1 atmosphere
Property: Molar enthalpy of transition or fusion, kJ/mol (Crystal); method: DSC
Molar enthalpy of transition or fusion, kJ/mol	uncertainty
27.5	2.64

System: dodecanoic acid; phases: Crystal, Liquid, Air at 1 atmosphere
Property: Normal melting temperature, K (Crystal); method: DTA
Normal melting temperature, K	uncertainty
317.48	0.66

System: dodecanoic acid; phases: Crystal, Liquid, Air at 1 atmosphere
Property: Molar enthalpy of transition or fusion, kJ/mol (Crystal); method: DSC
Molar enthalpy of transition or fusion, kJ/mol	uncertainty
37.83	0.84

System: tetradecanoic acid; phases: Crystal, Liquid, Air at 1 atmosphere
Property: Normal melting temperature, K (Crystal); method: DTA
Normal melting temperature, K	uncertainty
327.03	0.39

System: tetradecanoic acid; phases: Crystal, Liquid, Air at 1 atmosphere
Property: Molar enthalpy of transition or fusion, kJ/mol (Crystal); method: DSC
Molar enthalpy of transition or fusion, kJ/mol	uncertainty
41.29	1.13

System: hexadecanoic acid; phases: Crystal, Liquid, Air at 1 atmosphere
Property: Normal melting temperature, K (Crystal); method: DTA
Normal melting temperature, K	uncertainty
336.84	0.53

System: hexadecanoic acid; phases: Crystal, Liquid, Air at 1 atmosphere
Property: Molar enthalpy of transition or fusion, kJ/mol (Crystal); method: DSC
Molar enthalpy of transition or fusion, kJ/mol	uncertainty
51.02	1.07

System: octadecanoic acid; phases: Crystal, Liquid, Air at 1 atmosphere
Property: Normal melting temperature, K (Crystal); method: DTA
Normal melting temperature, K	uncertainty
343.67	0.45

System: octadecanoic acid; phases: Crystal, Liquid, Air at 1 atmosphere
Property: Molar enthalpy of transition or fusion, kJ/mol (Crystal); method: DSC
Molar enthalpy of transition or fusion, kJ/mol	uncertainty
61.36	1.44

System: tetramethylammonium chloride + decanoic acid; phases: Liquid, Crystal
Fixed: Pressure, kPa = 101
Property: Solid-liquid equilibrium temperature, K (Liquid); method: There were three separate methods used - please see original paper for them.
Mole fraction of decanoic acid	Solid-liquid equilibrium temperature, K	uncertainty
0.1	573.35	2.43
0.189	544.65	2.44
0.308	497.45	2.47
0.399	463.25	2.5
0.501	423.75	2.53
0.598	390.85	2.61
0.69	347.75	2.75

System: tetramethylammonium chloride + decanoic acid; phases: Liquid, Crystal
Fixed: Pressure, kPa = 101
Property: Solid-liquid equilibrium temperature, K (Liquid); method: There were three separate methods used - please see original paper for them.
Mole fraction of decanoic acid	Solid-liquid equilibrium temperature, K	uncertainty
0.802	303.83	2.43
0.891	304.94	2.43
0.901	304.55	2.43
0.794	303.75	2.43

System: tetramethylammonium chloride + dodecanoic acid; phases: Liquid, Crystal
Fixed: Pressure, kPa = 101
Property: Solid-liquid equilibrium temperature, K (Liquid); method: There were three separate methods used - please see original paper for them.
Mole fraction of dodecanoic acid	Solid-liquid equilibrium temperature, K	uncertainty
0.1	573.45	2.44
0.202	518.85	2.46
0.299	478.45	2.48
0.402	433.35	2.55
0.498	381.95	2.73
0.59	315.95	2.53
0.597	313.85	2.53

System: tetramethylammonium chloride + dodecanoic acid; phases: Liquid, Crystal
Fixed: Pressure, kPa = 101
Property: Solid-liquid equilibrium temperature, K (Liquid); method: There were three separate methods used - please see original paper for them.
Mole fraction of dodecanoic acid	Solid-liquid equilibrium temperature, K	uncertainty
0.704	312.55	2.43
0.799	315.65	2.5
0.805	314.52	2.5
0.891	316.95	2.43
0.906	317.39	2.43
0.657	312.86	2.43

System: tetramethylammonium chloride + tetradecanoic acid; phases: Liquid, Crystal
Fixed: Pressure, kPa = 101
Property: Solid-liquid equilibrium temperature, K (Liquid); method: There were three separate methods used - please see original paper for them.
Mole fraction of tetradecanoic acid	Solid-liquid equilibrium temperature, K	uncertainty
0.097	573.65	2.43
0.199	537.55	2.44
0.304	503.85	2.47
0.397	459.25	2.53
0.496	415.05	2.61
0.602	360.25	2.71

System: tetramethylammonium chloride + tetradecanoic acid; phases: Liquid, Crystal
Fixed: Pressure, kPa = 101
Property: Solid-liquid equilibrium temperature, K (Liquid); method: There were three separate methods used - please see original paper for them.
Mole fraction of tetradecanoic acid	Solid-liquid equilibrium temperature, K	uncertainty
0.786	317.45	2.45
0.795	318.4	2.45
0.88	323.85	2.5
0.901	327.5	2.51
0.685	321.25	2.44
0.697	322.28	2.44
0.747	319.65	2.43

System: hexadecanoic acid + tetramethylammonium chloride; phases: Liquid, Crystal
Fixed: Pressure, kPa = 101
Property: Solid-liquid equilibrium temperature, K (Liquid); method: There were three separate methods used - please see original paper for them.
Mole fraction of hexadecanoic acid	Solid-liquid equilibrium temperature, K	uncertainty
0.103	573.25	2.44
0.194	525.25	2.45
0.316	473.75	2.49
0.408	429.25	2.53
0.51	387.95	2.63

System: hexadecanoic acid + tetramethylammonium chloride; phases: Liquid, Crystal
Fixed: Pressure, kPa = 101
Property: Solid-liquid equilibrium temperature, K (Liquid); method: There were three separate methods used - please see original paper for them.
Mole fraction of hexadecanoic acid	Solid-liquid equilibrium temperature, K	uncertainty
0.598	331.46	5.34
0.683	334.25	2.48
0.699	331.36	2.48
0.796	332.4	2.48
0.812	335.05	2.48
0.891	335.05	2.43
0.896	335.15	2.43
0.597	333.45	5.34

System: octadecanoic acid + tetramethylammonium chloride; phases: Liquid, Crystal
Fixed: Pressure, kPa = 101
Property: Solid-liquid equilibrium temperature, K (Liquid); method: There were three separate methods used - please see original paper for them.
Mole fraction of octadecanoic acid	Solid-liquid equilibrium temperature, K	uncertainty
0.101	574.55	2.44
0.201	513.15	2.47
0.299	461.55	2.48
0.423	415.95	2.51
0.514	378.15	2.57

System: octadecanoic acid + tetramethylammonium chloride; phases: Liquid, Crystal
Fixed: Pressure, kPa = 101
Property: Solid-liquid equilibrium temperature, K (Liquid); method: VISOBS
Mole fraction of octadecanoic acid	Solid-liquid equilibrium temperature, K	uncertainty
0.624	337.95	2.4
0.686	339.45	2.41
0.805	342.65	2.4
0.898	343.25	2.4

System: tetraethylammonium chloride + decanoic acid; phases: Liquid, Crystal
Fixed: Pressure, kPa = 101
Property: Solid-liquid equilibrium temperature, K (Liquid); method: There were three separate methods used - please see original paper for them.
Mole fraction of decanoic acid	Solid-liquid equilibrium temperature, K	uncertainty
0.098	495.25	2.43
0.192	465.25	2.44
0.283	435.85	2.45
0.301	431	2.5
0.35	403.28	2.54
0.41	373.45	2.52
0.492	344.22	2.48
0.5	346.25	2.48
0.599	312.28	2.56

System: tetraethylammonium chloride + decanoic acid; phases: Liquid, Crystal
Fixed: Pressure, kPa = 101
Property: Solid-liquid equilibrium temperature, K (Liquid); method: There were three separate methods used - please see original paper for them.
Mole fraction of decanoic acid	Solid-liquid equilibrium temperature, K	uncertainty
0.804	304.18	2.43
0.903	305.05	2.43
0.903	304.79	2.43
0.697	301.66	2.44

System: tetraethylammonium chloride + dodecanoic acid; phases: Liquid, Crystal
Fixed: Pressure, kPa = 101
Property: Solid-liquid equilibrium temperature, K (Liquid); method: There were three separate methods used - please see original paper for them.
Mole fraction of dodecanoic acid	Solid-liquid equilibrium temperature, K	uncertainty
0.107	493.45	2.43
0.202	467.35	2.44
0.298	436.25	2.46
0.416	393.45	2.52
0.511	348.85	2.6
0.549	333.62	2.52
0.599	320.68	2.46
0.605	319.62	2.43
0.608	321.45	2.84

System: tetraethylammonium chloride + dodecanoic acid; phases: Liquid, Crystal
Fixed: Pressure, kPa = 101
Property: Solid-liquid equilibrium temperature, K (Liquid); method: There were three separate methods used - please see original paper for them.
Mole fraction of dodecanoic acid	Solid-liquid equilibrium temperature, K	uncertainty
0.702	303.82	4.1
0.782	310.43	2.43
0.8	310.35	2.43
0.901	316.97	4.11
0.902	316.05	4.11
0.698	308.52	4.08

System: tetraethylammonium chloride + tetradecanoic acid; phases: Liquid, Crystal
Fixed: Pressure, kPa = 101
Property: Solid-liquid equilibrium temperature, K (Liquid); method: There were three separate methods used - please see original paper for them.
Mole fraction of tetradecanoic acid	Solid-liquid equilibrium temperature, K	uncertainty
0.1	488.45	2.43
0.198	463.65	2.43
0.316	433.45	2.46
0.407	392.65	2.52
0.489	361.95	2.55
0.536	341.4	2.48
0.596	335.02	2.59
0.6	336.52	2.43
0.61	336.25	2.43

System: tetraethylammonium chloride + tetradecanoic acid; phases: Liquid, Crystal
Fixed: Pressure, kPa = 101
Property: Solid-liquid equilibrium temperature, K (Liquid); method: There were three separate methods used - please see original paper for them.
Mole fraction of tetradecanoic acid	Solid-liquid equilibrium temperature, K	uncertainty
0.699	311.71	2.48
0.702	312.25	2.48
0.794	321.06	2.43
0.812	320.35	2.43
0.894	324.35	2.67
0.896	324.97	2.67

System: tetraethylammonium chloride + hexadecanoic acid; phases: Liquid, Crystal
Fixed: Pressure, kPa = 101
Property: Solid-liquid equilibrium temperature, K (Liquid); method: There were three separate methods used - please see original paper for them.
Mole fraction of hexadecanoic acid	Solid-liquid equilibrium temperature, K	uncertainty
0.698	326.01	2.46
0.796	332.75	2.43
0.801	332.69	2.43
0.9	335.79	5.02
0.902	333.35	5.03
0.591	323.35	3.63
0.594	319.93	3.64
0.69	327.25	2.46

System: tetraethylammonium chloride + hexadecanoic acid; phases: Liquid, Crystal
Fixed: Pressure, kPa = 101
Property: Solid-liquid equilibrium temperature, K (Liquid); method: There were three separate methods used - please see original paper for them.
Mole fraction of hexadecanoic acid	Solid-liquid equilibrium temperature, K	uncertainty
0.093	483.65	2.43
0.218	442.25	2.45
0.301	407.25	2.47
0.413	362.95	2.51
0.497	330.98	2.44
0.516	333.05	2.43
0.591	323.35	3.63
0.594	319.93	3.64
0.69	327.25	2.44

System: tetraethylammonium chloride + octadecanoic acid; phases: Liquid, Crystal
Fixed: Pressure, kPa = 101
Property: Solid-liquid equilibrium temperature, K (Liquid); method: There were three separate methods used - please see original paper for them.
Mole fraction of octadecanoic acid	Solid-liquid equilibrium temperature, K	uncertainty
0.089	493.55	2.43
0.206	447.45	2.45
0.299	411.75	2.47
0.406	373.35	2.48
0.495	349.85	2.48

System: tetraethylammonium chloride + octadecanoic acid; phases: Liquid, Crystal
Fixed: Pressure, kPa = 101
Property: Solid-liquid equilibrium temperature, K (Liquid); method: There were three separate methods used - please see original paper for them.
Mole fraction of octadecanoic acid	Solid-liquid equilibrium temperature, K	uncertainty
0.691	332.78	2.43
0.712	333.35	2.43
0.774	338.21	2.43
0.811	339.45	2.43
0.883	342.25	2.43
0.897	342.52	2.43
0.588	321.65	2.44

System: decanoic acid + tetrapropylammonium chloride; phases: Liquid, Crystal
Fixed: Pressure, kPa = 101
Property: Solid-liquid equilibrium temperature, K (Liquid); method: There were three separate methods used - please see original paper for them.
Mole fraction of decanoic acid	Solid-liquid equilibrium temperature, K	uncertainty
0.1	483.45	2.43
0.201	444.45	2.45
0.3	404.05	2.46
0.4	375.55	2.47
0.5	346.25	2.5
0.599	316.91	4.06
0.6	315.55	4.07
0.704	300.3	2.46

System: decanoic acid + tetrapropylammonium chloride; phases: Liquid, Crystal
Fixed: Pressure, kPa = 101
Property: Solid-liquid equilibrium temperature, K (Liquid); method: There were three separate methods used - please see original paper for them.
Mole fraction of decanoic acid	Solid-liquid equilibrium temperature, K	uncertainty
0.9	304.36	2.45
0.9	305.05	2.45
0.798	295.57	2.44

System: dodecanoic acid + tetrapropylammonium chloride; phases: Liquid, Crystal
Fixed: Pressure, kPa = 101
Property: Solid-liquid equilibrium temperature, K (Liquid); method: There were three separate methods used - please see original paper for them.
Mole fraction of dodecanoic acid	Solid-liquid equilibrium temperature, K	uncertainty
0	503.07	2.43
0.092	481.25	2.43
0.205	443.25	2.43
0.287	419.55	2.43
0.396	380.75	2.43
0.497	358.35	2.43
0.553	334.28	2.43

System: dodecanoic acid + tetrapropylammonium chloride; phases: Liquid, Crystal
Fixed: Pressure, kPa = 101
Property: Solid-liquid equilibrium temperature, K (Liquid); method: There were three separate methods used - please see original paper for them.
Mole fraction of dodecanoic acid	Solid-liquid equilibrium temperature, K	uncertainty
0.701	300.72	14.28
0.702	295.7	14.3
0.801	311.59	2.63
0.804	310.65	2.63
0.882	316.65	2.44
0.903	316.74	2.43
0.599	292.76	2.44
0.599	298.86	2.43
0.636	296.26	2.43

System: tetradecanoic acid + tetrapropylammonium chloride; phases: Liquid, Crystal
Fixed: Pressure, kPa = 101
Property: Solid-liquid equilibrium temperature, K (Liquid); method: There were three separate methods used - please see original paper for them.
Mole fraction of tetradecanoic acid	Solid-liquid equilibrium temperature, K	uncertainty
0	503.07	2.43
0.1	473.35	2.43
0.2	439.35	2.44
0.3	398.05	2.48
0.4	353.75	2.51
0.5	315.25	2.51
0.55	307.62	2.45

System: tetradecanoic acid + tetrapropylammonium chloride; phases: Liquid, Crystal
Fixed: Pressure, kPa = 101
Property: Solid-liquid equilibrium temperature, K (Liquid); method: There were three separate methods used - please see original paper for them.
Mole fraction of tetradecanoic acid	Solid-liquid equilibrium temperature, K	uncertainty
0.7	311.35	2.51
0.708	313.15	2.51
0.8	323.45	2.65
0.803	322.45	2.65
0.9	326.35	2.61
0.901	326.62	2.61
0.6	303.65	2.44
0.6	305.68	2.43
0.65	308.55	2.43

System: hexadecanoic acid + tetrapropylammonium chloride; phases: Liquid, Crystal
Fixed: Pressure, kPa = 101
Property: Solid-liquid equilibrium temperature, K (Liquid); method: There were three separate methods used - please see original paper for them.
Mole fraction of hexadecanoic acid	Solid-liquid equilibrium temperature, K	uncertainty
0.1	444.22	2.43
0.2	398.65	2.45
0.3	363.05	2.47
0.4	324.55	2.47
0.496	306.67	2.64
0.501	304.02	2.5
0.505	304.08	2.43

System: hexadecanoic acid + tetrapropylammonium chloride; phases: Liquid, Crystal
Fixed: Pressure, kPa = 101
Property: Solid-liquid equilibrium temperature, K (Liquid); method: There were three separate methods used - please see original paper for them.
Mole fraction of hexadecanoic acid	Solid-liquid equilibrium temperature, K	uncertainty
0.689	323.75	2.43
0.704	323.95	2.43
0.799	330.81	2.44
0.818	329.25	2.44
0.896	335.55	2.51
0.901	336.45	2.51
0.594	321.91	2.98
0.6	317.55	2.72
0.605	316.35	2.49

System: octadecanoic acid + tetrapropylammonium chloride; phases: Liquid, Crystal
Fixed: Pressure, kPa = 101
Property: Solid-liquid equilibrium temperature, K (Liquid); method: There were three separate methods used - please see original paper for them.
Mole fraction of octadecanoic acid	Solid-liquid equilibrium temperature, K	uncertainty
0.132	473.35	2.43
0.222	458.55	2.43
0.299	424.75	2.43
0.407	392.85	2.43
0.499	337.22	2.43
0.554	329.18	2.43

System: octadecanoic acid + tetrapropylammonium chloride; phases: Liquid, Crystal
Fixed: Pressure, kPa = 101
Property: Solid-liquid equilibrium temperature, K (Liquid); method: There were three separate methods used - please see original paper for them.
Mole fraction of octadecanoic acid	Solid-liquid equilibrium temperature, K	uncertainty
0.701	332.47	2.43
0.798	339.86	3.55
0.799	339.05	3.55
0.89	342.43	2.55
0.9	340.25	2.55
0.6	327.92	2.56
0.602	327.25	2.56
0.693	332.15	2.43

System: tetramethylammonium chloride + water; phases: Liquid
Fixed: Pressure, kPa = 101
Fixed: Temperature, K = 298.15
Property: (Relative) activity of water (Liquid); method: Calculated from EMF cell potential
Mole fraction of water	(Relative) activity of water	uncertainty
0.7169	0.268	0.028
0.8269	0.549	0.025
0.8937	0.754	0.022
0.94	0.879	0.021
0.974	0.954	0.02

System: tetramethylammonium chloride + water; phases: Liquid
Fixed: Pressure, kPa = 101
Property: Mass density, kg/m3 (Liquid); method: Vibrating tube method
Mole fraction of tetramethylammonium chloride	Temperature, K	Mass density, kg/m3	uncertainty
0.2831	298.15	1034.1	0.3
0.2831	308.15	1029.5	0.3
0.2831	318.15	1025	0.3
0.2831	328.15	1020.3	0.3
0.2831	338.15	1015.7	0.2
0.2831	348.15	1010.9	0.2
0.2831	358.15	1006.1	0.2
0.1731	298.15	1022.5	0.2
0.1731	308.15	1018.1	0.2
0.1731	318.15	1013.5	0.2
0.1731	328.15	1008.9	0.2
0.1731	338.15	1004	0.2
0.1731	348.15	998.9	0.2
0.1731	358.15	993	0.2
0.1062	298.15	1012.8	0.1
0.1062	308.15	1008.6	0.1
0.1062	318.15	1004.1	0.1
0.1062	328.15	999.5	0.1
0.1062	338.15	993.1	0.1
0.1062	348.15	986.6	0.1
0.1062	358.15	977.1	0.2
0.06	298.15	1005.7	0.1
0.06	308.15	1001.7	0.1
0.06	318.15	997.5	0.1
0.06	328.15	991.3	0.1
0.06	338.15	985.1	0.1
0.06	348.15	975.6	0.1
0.06	358.15	959.5	0.1
0.026	298.15	1001.5	0.1
0.026	308.15	998.1	0.1

System: tetrapropylammonium chloride + water; phases: Liquid
Fixed: Pressure, kPa = 101
Fixed: Temperature, K = 298.15
Property: (Relative) activity of water (Liquid); method: Calculated from EMF cell potential
Mole fraction of water	(Relative) activity of water	uncertainty
0.8426	0.539	0.025
0.9066	0.721	0.023
0.9444	0.854	0.021
0.9694	0.938	0.02
0.987	0.975	0.02

System: tetrapropylammonium chloride + water; phases: Liquid
Fixed: Pressure, kPa = 101
Property: Mass density, kg/m3 (Liquid); method: Vibrating tube method
Mole fraction of tetrapropylammonium chloride	Temperature, K	Mass density, kg/m3	uncertainty
0.1574	298.15	990.1	0.1
0.1574	308.15	983.3	0.1
0.1574	318.15	976.4	0.1
0.1574	328.15	969.6	0.1
0.1574	338.15	962.6	0.1
0.1574	348.15	955.6	0.1
0.1574	358.15	948.6	0.1
0.0934	298.15	997.2	0.1
0.0934	308.15	990	0.1
0.0934	318.15	982.8	0.1
0.0934	328.15	975.5	0.1
0.0934	338.15	968.2	0.1
0.0934	348.15	960.8	0.1
0.0934	358.15	953.3	0.1
0.0556	298.15	998.5	0.1
0.0556	308.15	991.9	0.1
0.0556	318.15	985.1	0.1
0.0556	328.15	978.2	0.1
0.0556	338.15	971.1	0.1
0.0556	348.15	963.9	0.1
0.0306	298.15	996.2	0.1
0.0306	308.15	991	0.1
0.0306	318.15	985.4	0.1
0.0306	328.15	979.3	0.1
0.0306	338.15	972.6	0.1
0.0306	348.15	963.5	0.1
0.0306	358.15	941.1	0.2
0.013	298.15	995.5	0.1
0.013	308.15	991.5	0.1
0.013	318.15	986.9	0.1
0.013	328.15	979.4	0.1

System: tetraethylammonium chloride + water; phases: Liquid
Fixed: Pressure, kPa = 101
Property: Mass density, kg/m3 (Liquid); method: Vibrating tube method
Mole fraction of tetraethylammonium chloride	Temperature, K	Mass density, kg/m3	uncertainty
0.1994	298.15	1035.4	0.2
0.1994	308.15	1029.1	0.2
0.1994	318.15	1022.8	0.2
0.1994	328.15	1016.4	0.2
0.1994	338.15	1010	0.1
0.1994	348.15	1003.4	0.1
0.1994	358.15	997.2	0.1
0.1213	298.15	1027	0.1
0.1213	308.15	1020.8	0.1
0.1213	318.15	1014.4	0.1
0.1213	328.15	1008	0.1
0.1213	338.15	1001.5	0.1
0.1213	348.15	995.1	0.1
0.1213	358.15	988.4	0.1
0.0727	298.15	1014.9	0.1
0.0727	308.15	1009.5	0.1
0.0727	318.15	1003.9	0.1
0.0727	328.15	998.3	0.1
0.0727	338.15	992.2	0.1
0.0727	348.15	985.7	0.1
0.0727	358.15	977.1	0.1
0.0403	298.15	1005.7	0.1
0.0403	308.15	1001.1	0.1
0.0403	318.15	996.5	0.1
0.0403	328.15	990.9	0.1
0.0403	338.15	982.8	0.1
0.0403	348.15	971.4	0.1
0.0403	358.15	953.1	0.2
0.0173	298.15	1000.2	0.1
0.0173	308.15	996.7	0.1
0.0173	318.15	992.3	0.1
