Measured thermophysical data. Study and prediction of alkylbenzenes vapour pressures
Source: Fluid Phase Equilib., 2008, 10.1016/j.fluid.2008.04.016
Compound 1: 1,4-bis(1,1-dimethylethyl)benzene, C14H22, InChI=1S/C14H22/c1-13(2,3)11-7-9-12(10-8-11)14(4,5)6/h7-10H,1-6H3
Compound 2: 1,3,5-tri-tert-butylbenzene, C18H30, InChI=1S/C18H30/c1-16(2,3)13-10-14(17(4,5)6)12-15(11-13)18(7,8)9/h10-12H,1-9H3
Compound 3: 3,5-di-tert-butyltoluene, C15H24, InChI=1S/C15H24/c1-11-8-12(14(2,3)4)10-13(9-11)15(5,6)7/h8-10H,1-7H3
Compound 4: (1,2,2-trimethylpropyl)benzene, C12H18, InChI=1S/C12H18/c1-10(12(2,3)4)11-8-6-5-7-9-11/h5-10H,1-4H3

System: 1,4-bis(1,1-dimethylethyl)benzene; phases: Liquid, Gas
Property: Vapor or sublimation pressure, kPa (Liquid); method: Transpiration method
Temperature, K	Vapor or sublimation pressure, kPa	uncertainty
354.15	0.3792	0.019
356.45	0.4257	0.0213
358.95	0.4877	0.0244
361.75	0.5742	0.0287
364.25	0.6537	0.0327
366.45	0.7231	0.0362
366.55	0.7158	0.0358
369.15	0.8057	0.0403
372.05	0.9399	0.047
374.15	1.0359	0.0518
376.45	1.171	0.0586
379.75	1.3757	0.0688
381.75	1.5071	0.0754
383.25	1.6469	0.0824

System: 1,3,5-tri-tert-butylbenzene; phases: Liquid, Gas
Property: Vapor or sublimation pressure, kPa (Liquid); method: Transpiration method
Temperature, K	Vapor or sublimation pressure, kPa	uncertainty
352.15	0.1311	0.0066
354.45	0.1544	0.0077
356.65	0.1766	0.0088
358.95	0.2039	0.0102
359.15	0.2029	0.0101
361.35	0.2292	0.0115
362.05	0.2407	0.012
363.45	0.2577	0.0129
365.15	0.2888	0.0144
367.45	0.3257	0.0163
370.15	0.3801	0.019
372.65	0.4354	0.0218
374.95	0.4944	0.0247
377.35	0.5671	0.0284
379.55	0.6317	0.0316
382.65	0.7387	0.0369

System: 3,5-di-tert-butyltoluene; phases: Liquid, Gas
Property: Vapor or sublimation pressure, kPa (Liquid); method: Transpiration method
Temperature, K	Vapor or sublimation pressure, kPa	uncertainty
308.25	0.01666	0.00083
310.65	0.01931	0.00097
313.35	0.02366	0.00118
315.45	0.02884	0.00144
317.95	0.03401	0.0017
320.45	0.04037	0.00202
323.05	0.04906	0.00245
325.55	0.05841	0.00292
327.95	0.06909	0.00346
330.55	0.08097	0.00405
333.05	0.09656	0.00483
335.55	0.1131	0.0057
338.15	0.1302	0.0065
340.65	0.1549	0.0077
343.05	0.1773	0.0089
345.55	0.2067	0.0103
348.1	0.2475	0.0124
350.45	0.2845	0.0142
353.05	0.3277	0.0164
355.65	0.3743	0.0187
358.15	0.4358	0.0218

System: 3,5-di-tert-butyltoluene; phases: Liquid, Gas
Property: Vapor or sublimation pressure, kPa (Liquid); method: EBULLIO:UFactor:2
Temperature, K	Vapor or sublimation pressure, kPa	uncertainty
379.62	1.318	0.02
379.86	1.338	0.02
380.13	1.358	0.02
393.09	2.478	0.021
393.16	2.483	0.021
393.19	2.483	0.021
393.25	2.488	0.021
402.75	3.746	0.021
402.76	3.746	0.021
402.77	3.746	0.021
410.74	5.173	0.022
410.74	5.173	0.022
410.81	5.179	0.022
410.83	5.184	0.022
410.85	5.189	0.022
428.47	10.046	0.023
428.47	10.046	0.023
428.48	10.046	0.023
439.99	14.94	0.025
440	14.94	0.025
440	14.94	0.025
449.13	20.062	0.027
449.13	20.062	0.027
449.13	20.067	0.027
449.14	20.062	0.027
449.15	20.066	0.027
449.2	20.095	0.027
449.21	20.095	0.027
449.22	20.099	0.027
456.12	24.888	0.03
456.13	24.889	0.03
456.13	24.888	0.03
456.14	24.893	0.03
462.5	30.112	0.032
462.52	30.115	0.032
462.52	30.115	0.032
467.98	35.237	0.034
467.98	35.237	0.034
472.54	40.018	0.037
472.54	40.017	0.037
472.54	40.017	0.037
478.05	46.498	0.039
478.05	46.503	0.039
478.06	46.499	0.039
482.73	52.541	0.043
482.73	52.65	0.043
482.73	52.654	0.043
482.73	52.66	0.043
482.76	52.687	0.043
482.77	52.7	0.043
487.56	59.652	0.046
487.56	59.652	0.046
487.57	59.667	0.046
487.57	59.671	0.046
487.58	59.687	0.046
491.67	66.201	0.049
491.67	66.19	0.049
491.68	66.206	0.049
495.5	72.783	0.052
495.53	72.828	0.052
495.53	72.828	0.052
495.53	72.832	0.052
498.98	79.213	0.055
498.98	79.212	0.055
498.99	79.219	0.055
503.36	87.925	0.058
503.36	87.923	0.058
503.36	87.927	0.058
505.71	92.906	0.061
505.71	92.91	0.061
505.72	92.907	0.061
508.06	98.133	0.063
508.07	98.132	0.063
508.08	98.172	0.063
508.09	98.177	0.063
509.38	101.13	0.065
509.38	101.139	0.065
509.38	101.148	0.065
509.93	102.444	0.065
509.93	102.445	0.065
509.94	102.448	0.065
510.55	103.88	0.066
510.55	103.88	0.066
510.56	103.873	0.065
510.56	103.878	0.065

System: (1,2,2-trimethylpropyl)benzene; phases: Liquid, Gas
Property: Vapor or sublimation pressure, kPa (Liquid); method: Transpiration method
Temperature, K	Vapor or sublimation pressure, kPa	uncertainty
296	0.04082	0.00207
298.5	0.04885	0.00248
301	0.05923	0.00301
303.5	0.07018	0.00356
305.9	0.08326	0.00423
308.4	0.09874	0.00501
310.9	0.1175	0.006
313.4	0.1378	0.007
315.9	0.1579	0.008
318.3	0.185	0.0094
320.8	0.2193	0.0111
323.3	0.2551	0.013
325.8	0.292	0.0148
