Measured thermophysical data. Measurement on vapor pressure, density and viscosity for binary mixtures of JP-10 and methylcyclohexane
Source: Fluid Phase Equilib., 2011, 10.1016/j.fluid.2011.03.030
Compound 1: exo-tetrahydrodicyclopentadiene, C10H16, InChI=1S/C10H16/c1-2-9-7-4-5-8(6-7)10(9)3-1/h7-10H,1-6H2/t7-,8+,9+,10-, purity 98.5%
Compound 2: methylcyclohexane, C7H14, InChI=1S/C7H14/c1-7-5-3-2-4-6-7/h7H,2-6H2,1H3, purity 99.2%

System: exo-tetrahydrodicyclopentadiene; phases: Liquid, Gas
Property: Normal boiling temperature, K (Liquid); method: Ebulliometric method (Recirculating still)
Normal boiling temperature, K	uncertainty
458.09	0.04

System: exo-tetrahydrodicyclopentadiene; phases: Liquid
Property: Mass density, kg/m3 (Liquid); method: Vibrating tube method
Temperature, K	Pressure, kPa	Mass density, kg/m3	uncertainty
298.15	101.325	931.4	0.5

System: exo-tetrahydrodicyclopentadiene; phases: Liquid
Property: Viscosity, Pa*s (Liquid); method: Capillary tube (Ostwald; Ubbelohde) method
Temperature, K	Pressure, kPa	Viscosity, Pa*s	uncertainty
298.15	101.325	0.002739	2.9e-05

System: exo-tetrahydrodicyclopentadiene; phases: Liquid, Gas
Property: Vapor or sublimation pressure, kPa (Liquid); method: Ebulliometric method (Recirculating still)
Temperature, K	Vapor or sublimation pressure, kPa	uncertainty
396	16.64	0.23
401.4	20.62	0.24
413.8	30.3	0.26
418.3	34.79	0.28
426.8	44.86	0.31
431.2	50.7	0.33
434.5	55.76	0.35
436.6	59.2	0.36
439	63.22	0.38
441.1	66.63	0.39
442.7	69.49	0.4
442.8	69.77	0.41
444.3	72.58	0.42
445.7	75.11	0.43
446.1	75.89	0.43
450	83.92	0.46
457.3	101.1	0.5

System: exo-tetrahydrodicyclopentadiene; phases: Liquid
Fixed: Pressure, kPa = 101
Property: Viscosity, Pa*s (Liquid); method: Capillary tube (Ostwald; Ubbelohde) method
Temperature, K	Viscosity, Pa*s	uncertainty
303.15	0.002522	3.4e-05
308.15	0.002298	3.1e-05
313.15	0.002107	2.9e-05

System: exo-tetrahydrodicyclopentadiene; phases: Liquid
Fixed: Pressure, kPa = 101
Property: Mass density, kg/m3 (Liquid); method: Vibrating tube method
Temperature, K	Mass density, kg/m3	uncertainty
303.15	927.41	0.45
308.15	923.48	0.44
313.15	919.58	0.44

System: methylcyclohexane; phases: Liquid, Gas
Property: Normal boiling temperature, K (Liquid); method: Ebulliometric method (Recirculating still)
Normal boiling temperature, K	uncertainty
372.13	0.03

System: methylcyclohexane; phases: Liquid
Property: Mass density, kg/m3 (Liquid); method: Vibrating tube method
Temperature, K	Pressure, kPa	Mass density, kg/m3	uncertainty
298.15	101.325	765	0.21

System: methylcyclohexane; phases: Liquid
Property: Viscosity, Pa*s (Liquid); method: Capillary tube (Ostwald; Ubbelohde) method
Temperature, K	Pressure, kPa	Viscosity, Pa*s	uncertainty
298.15	101.325	0.000678	7e-06

System: methylcyclohexane; phases: Liquid, Gas
Property: Vapor or sublimation pressure, kPa (Liquid); method: Ebulliometric method (Recirculating still)
Temperature, K	Vapor or sublimation pressure, kPa	uncertainty
321.9	17.91	0.23
331.5	25.77	0.24
336.8	31.22	0.25
342.3	37.99	0.27
346.9	44.45	0.29
350.7	50.35	0.31
355.2	58.09	0.33
359.1	65.61	0.35
362.3	72.29	0.37
364.8	79.09	0.4
366.4	85.13	0.42
369.8	92.76	0.44
373.9	100.7	0.5

System: methylcyclohexane; phases: Liquid
Fixed: Pressure, kPa = 101
Property: Viscosity, Pa*s (Liquid); method: Capillary tube (Ostwald; Ubbelohde) method
Temperature, K	Viscosity, Pa*s	uncertainty
303.15	0.000627	8e-06
308.15	0.000581	7e-06
313.15	0.000554	7e-06

System: methylcyclohexane; phases: Liquid
Fixed: Pressure, kPa = 101
Property: Mass density, kg/m3 (Liquid); method: Vibrating tube method
Temperature, K	Mass density, kg/m3	uncertainty
303.15	760.65	0.21
308.15	756.29	0.21
313.15	751.93	0.21

System: methylcyclohexane + exo-tetrahydrodicyclopentadiene; phases: Liquid
Fixed: Pressure, kPa = 101
Property: Viscosity, Pa*s (Liquid); method: Capillary tube (Ostwald; Ubbelohde) method
Temperature, K	Mole fraction of methylcyclohexane	Viscosity, Pa*s	uncertainty
303.15	0	0.002522	3.4e-05
303.15	0.1404	0.002047	2.7e-05
303.15	0.2593	0.001754	2.3e-05
303.15	0.3693	0.001502	1.9e-05
303.15	0.4981	0.001258	1.6e-05
303.15	0.5813	0.001113	1.4e-05
303.15	0.6745	0.000975	1.2e-05
303.15	0.763	0.000866	1.1e-05
303.15	0.8469	0.000772	1e-05
303.15	0.9245	0.000693	9e-06
303.15	1	0.000627	8e-06
308.15	0	0.002298	3.1e-05
308.15	0.1404	0.001891	2.5e-05
308.15	0.2593	0.001616	2.1e-05
308.15	0.3693	0.001386	1.8e-05
308.15	0.4981	0.001163	1.5e-05
308.15	0.5813	0.00102	1.3e-05
308.15	0.6745	0.000897	1.1e-05
308.15	0.763	0.000798	1e-05
308.15	0.8469	0.000711	9e-06
308.15	0.9245	0.000644	8e-06
308.15	1	0.000581	7e-06
313.15	0	0.002107	2.9e-05
313.15	0.1404	0.001736	2.3e-05
313.15	0.2593	0.001475	1.9e-05
313.15	0.3693	0.001275	1.7e-05
313.15	0.4981	0.001078	1.4e-05
313.15	0.5813	0.000963	1.2e-05
313.15	0.6745	0.000862	1.1e-05
313.15	0.763	0.000754	9e-06
313.15	0.8469	0.000675	8e-06
313.15	0.9245	0.000612	8e-06
313.15	1	0.000554	7e-06

System: methylcyclohexane + exo-tetrahydrodicyclopentadiene; phases: Liquid, Gas
Property: Vapor or sublimation pressure, kPa (Liquid); method: Ebulliometric method (Recirculating still)
Mole fraction of methylcyclohexane	Temperature, K	Vapor or sublimation pressure, kPa	uncertainty
0	396	16.64	0.23
0	401.4	20.62	0.24
0	413.8	30.3	0.26
0	418.3	34.79	0.28
0	426.8	44.86	0.31
0	431.2	50.7	0.33
0	434.5	55.76	0.35
0	436.6	59.2	0.36
0	439	63.22	0.38
0	441.1	66.63	0.39
0	442.7	69.49	0.4
0	442.8	69.77	0.41
0	444.3	72.58	0.42
0	445.7	75.11	0.43
0	446.1	75.89	0.43
0	450	83.92	0.46
0	457.3	101.1	0.5
0.0287	384.8	13.78	0.22
0.0287	393.5	19.94	0.24
0.0287	404.2	31.94	0.27
0.0287	406.5	35.01	0.28
0.0287	407.4	36.47	0.29
0.0287	413	44.42	0.33
0.0287	418.4	53.57	0.35
0.0287	425.6	65.64	0.39
0.0287	427.1	68.04	0.41
0.0287	429.2	73.55	0.42
0.0287	430.7	76.33	0.44
0.0287	433.8	82.52	0.49
0.0287	437	87.46	0.52
0.0287	443.6	101.4	0.6
0.1341	372.4	13.96	0.22
0.1341	380.8	21.89	0.24
0.1341	387.6	30.49	0.26
0.1341	390.6	35.24	0.28
0.1341	399	47.42	0.32
0.1341	403.4	53.68	0.34
0.1341	408.5	62.47	0.37
0.1341	415.5	73.44	0.42
0.1341	416.8	76.1	0.43
0.1341	422.3	85.6	0.46
0.1341	422.4	85.46	0.46
0.1341	426.2	92	0.49
0.1341	429.2	101.1	0.5
0.3728	345.2	11.44	0.22
0.3728	357.3	18.19	0.23
0.3728	365.7	26.29	0.25
0.3728	372.4	33.77	0.27
0.3728	379.8	42.29	0.29
0.3728	383.9	50.34	0.32
0.3728	386.9	55.65	0.34
0.3728	391.3	64.37	0.37
0.3728	393.6	69.55	0.39
0.3728	397.9	78.45	0.42
0.3728	401	85.05	0.45
0.3728	403.6	90.28	0.47
0.3728	405.4	96.15	0.49
0.3728	407.6	101.6	0.5
0.4804	338.7	11.53	0.22
0.4804	351.4	19.16	0.23
0.4804	359.9	27.57	0.25
0.4804	365.1	33.03	0.26
0.4804	372.4	41.66	0.29
0.4804	375.6	46.79	0.31
0.4804	379.9	54.24	0.33
0.4804	381.3	59.04	0.35
0.4804	384.2	64.89	0.37
0.4804	388	71.69	0.39
0.4804	391.5	79.9	0.42
0.4804	395.9	89.82	0.46
0.4804	398.7	95.87	0.59
0.4804	399.1	100.1	0.6
0.5813	335.2	11.95	0.22
0.5813	348.2	19.63	0.23
0.5813	357	27.5	0.25
0.5813	364.6	35.9	0.27
0.5813	370.2	43.55	0.29
0.5813	374.3	50.54	0.32
0.5813	378.9	57.81	0.34
0.5813	383	65.53	0.37
0.5813	388.4	77.45	0.41
0.5813	389.5	80.86	0.42
0.5813	391.9	85.56	0.44
0.5813	395	93.63	0.47
0.5813	399.2	102.1	0.5
0.677	328.7	11.7	0.22
0.677	340.8	19.52	0.23
0.677	347.9	25.48	0.24
0.677	354.4	33.11	0.26
0.677	362.4	43.27	0.29
0.677	368.3	51.99	0.32
0.677	373	59.96	0.34
0.677	376.2	65.28	0.36
0.677	379.2	70.99	0.38
0.677	384	79.89	0.41
0.677	386.6	86.09	0.44
0.677	390.2	93.57	0.46
0.677	394.2	102.8	0.5
0.7697	320.2	11.97	0.22
0.7697	332	19.57	0.23
0.7697	340.5	26.92	0.25
0.7697	347.6	34.74	0.26
0.7697	351.6	39.85	0.28
0.7697	355.8	45.78	0.3
0.7697	358.9	50.69	0.31
0.7697	363.3	58.13	0.34
0.7697	367.1	65.46	0.36
0.7697	370.1	72.82	0.38
0.7697	373.9	79.74	0.41
0.7697	377.1	87.61	0.44
0.7697	380.3	95.84	0.47
0.7697	382.8	102.8	0.5
0.8473	318.1	12.02	0.22
0.8473	329	19.09	0.23
0.8473	338.5	27.5	0.25
0.8473	345.4	35.32	0.27
0.8473	351.3	43.36	0.29
0.8473	356.5	51.48	0.31
0.8473	360.6	58.71	0.33
0.8473	364.9	66.88	0.36
0.8473	368.5	74.77	0.39
0.8473	371.2	81.01	0.41
0.8473	374.1	87.91	0.43
0.8473	376.4	93.98	0.46
0.8473	379.6	102.7	0.5
1	321.9	17.91	0.23
1	331.5	25.77	0.24
1	336.8	31.22	0.25
1	342.3	37.99	0.27
1	346.9	44.45	0.29
1	350.7	50.35	0.31
1	355.2	58.09	0.33
1	359.1	65.61	0.35
1	362.3	72.29	0.37
1	364.8	79.09	0.4
1	366.4	85.13	0.42
1	369.8	92.76	0.44
1	373.9	100.7	0.5

System: methylcyclohexane + exo-tetrahydrodicyclopentadiene; phases: Liquid
Fixed: Pressure, kPa = 101
Property: Mass density, kg/m3 (Liquid); method: Vibrating tube method
Temperature, K	Mole fraction of methylcyclohexane	Mass density, kg/m3	uncertainty
303.15	0	927.41	0.45
303.15	0.1404	907.42	0.39
303.15	0.2593	889.67	0.35
303.15	0.3693	872.78	0.32
303.15	0.4981	851.85	0.28
303.15	0.5813	837.98	0.26
303.15	0.6745	821.76	0.25
303.15	0.763	805.84	0.23
303.15	0.8469	790.22	0.22
303.15	0.9245	775.47	0.22
303.15	1	760.65	0.21
308.15	0	923.48	0.44
308.15	0.1404	903.45	0.39
308.15	0.2593	885.65	0.35
308.15	0.3693	868.72	0.32
308.15	0.4981	847.73	0.28
308.15	0.5813	833.82	0.26
308.15	0.6745	817.58	0.25
308.15	0.763	801.58	0.23
308.15	0.8469	785.95	0.22
308.15	0.9245	771.16	0.22
308.15	1	756.29	0.21
313.15	0	919.58	0.44
313.15	0.1404	899.48	0.39
313.15	0.2593	881.63	0.35
313.15	0.3693	864.67	0.31
313.15	0.4981	843.61	0.28
313.15	0.5813	829.66	0.26
313.15	0.6745	813.38	0.25
313.15	0.763	797.33	0.23
313.15	0.8469	781.66	0.22
313.15	0.9245	766.83	0.22
313.15	1	751.93	0.21
