Measured thermophysical data. Vapor-liquid equilibrium and excess Gibbs energies of some binary mixtures of acrylonitrile at 95.5 kPa
Source: Fluid Phase Equilib., 2008, 10.1016/j.fluid.2008.03.020
Compound 1: acrylonitrile, C3H3N, InChI=1S/C3H3N/c1-2-3-4/h2H,1H2
Compound 2: 1,2-dichloroethane, C2H4Cl2, InChI=1S/C2H4Cl2/c3-1-2-4/h1-2H2
Compound 3: 1,1,2,2-tetrachloroethane, C2H2Cl4, InChI=1S/C2H2Cl4/c3-1(4)2(5)6/h1-2H
Compound 4: chlorobenzene, C6H5Cl, InChI=1S/C6H5Cl/c7-6-4-2-1-3-5-6/h1-5H
Compound 5: nitrobenzene, C6H5NO2, InChI=1S/C6H5NO2/c8-7(9)6-4-2-1-3-5-6/h1-5H

System: acrylonitrile; phases: Liquid, Gas
Property: Vapor or sublimation pressure, kPa (Liquid); method: EBULLIO:UFactor:4
Temperature, K	Vapor or sublimation pressure, kPa	uncertainty
348.75	95.5	2

System: acrylonitrile; phases: Liquid, Gas
Property: Refractive index (Na D-line) (Liquid); method: Standard Abbe refractometry
Temperature, K	Refractive index (Na D-line)	uncertainty
298.15	1.3887	0.0007

System: acrylonitrile; phases: Liquid, Gas
Property: Mass density, kg/m3 (Liquid); method: PYCNOM:UFactor:8
Temperature, K	Mass density, kg/m3	uncertainty
298.15	800.3	2

System: 1,2-dichloroethane; phases: Liquid, Gas
Property: Vapor or sublimation pressure, kPa (Liquid); method: EBULLIO:UFactor:4
Temperature, K	Vapor or sublimation pressure, kPa	uncertainty
355.15	95.5	2

System: 1,2-dichloroethane; phases: Liquid, Gas
Property: Refractive index (Na D-line) (Liquid); method: Standard Abbe refractometry
Temperature, K	Refractive index (Na D-line)	uncertainty
293.15	1.4196	0.0007

System: 1,2-dichloroethane; phases: Liquid, Gas
Property: Mass density, kg/m3 (Liquid); method: PYCNOM:UFactor:8
Temperature, K	Mass density, kg/m3	uncertainty
293.15	1252.9	3.4

System: 1,1,2,2-tetrachloroethane; phases: Liquid, Gas
Property: Vapor or sublimation pressure, kPa (Liquid); method: EBULLIO:UFactor:4
Temperature, K	Vapor or sublimation pressure, kPa	uncertainty
417.25	95.5	2

System: 1,1,2,2-tetrachloroethane; phases: Liquid, Gas
Property: Refractive index (Na D-line) (Liquid); method: Standard Abbe refractometry
Temperature, K	Refractive index (Na D-line)	uncertainty
293.15	1.494	0.0007

System: 1,1,2,2-tetrachloroethane; phases: Liquid, Gas
Property: Mass density, kg/m3 (Liquid); method: PYCNOM:UFactor:8
Temperature, K	Mass density, kg/m3	uncertainty
293.15	1593	4.5

System: chlorobenzene; phases: Liquid, Gas
Property: Vapor or sublimation pressure, kPa (Liquid); method: EBULLIO:UFactor:4
Temperature, K	Vapor or sublimation pressure, kPa	uncertainty
402.85	95.5	2

System: chlorobenzene; phases: Liquid, Gas
Property: Refractive index (Na D-line) (Liquid); method: Standard Abbe refractometry
Temperature, K	Refractive index (Na D-line)	uncertainty
298.15	1.5218	0.0007

System: chlorobenzene; phases: Liquid, Gas
Property: Mass density, kg/m3 (Liquid); method: PYCNOM:UFactor:8
Temperature, K	Mass density, kg/m3	uncertainty
298.15	1101	3

System: nitrobenzene; phases: Liquid, Gas
Property: Vapor or sublimation pressure, kPa (Liquid); method: EBULLIO:UFactor:4
Temperature, K	Vapor or sublimation pressure, kPa	uncertainty
481.45	95.5	2

System: nitrobenzene; phases: Liquid, Gas
Property: Refractive index (Na D-line) (Liquid); method: Standard Abbe refractometry
Temperature, K	Refractive index (Na D-line)	uncertainty
298.15	1.55	0.0007

System: nitrobenzene; phases: Liquid, Gas
Property: Mass density, kg/m3 (Liquid); method: PYCNOM:UFactor:8
Temperature, K	Mass density, kg/m3	uncertainty
298.15	1198.3	3.3

System: 1,2-dichloroethane + acrylonitrile; phases: Liquid, Gas
Fixed: Pressure, kPa = 95.5
Property: Boiling temperature at pressure P, K (Liquid); method: EBULLIO:UFactor:4
Mole fraction of acrylonitrile	Boiling temperature at pressure P, K	uncertainty
0	355.15	0.34
0.1001	354.05	0.34
0.1935	353.15	0.34
0.3142	352.15	0.34
0.4035	351.55	0.34
0.4662	351.15	0.34
0.5002	350.95	0.34
0.5503	350.65	0.34
0.605	350.35	0.34
0.62	350.25	0.34
0.7	349.95	0.34
0.7505	349.75	0.34
0.8002	349.55	0.34
0.8602	349.25	0.34
0.9002	349.15	0.34
1	348.75	0.34

System: 1,1,2,2-tetrachloroethane + acrylonitrile; phases: Liquid, Gas
Fixed: Pressure, kPa = 95.5
Property: Boiling temperature at pressure P, K (Liquid); method: EBULLIO:UFactor:4
Mole fraction of acrylonitrile	Boiling temperature at pressure P, K	uncertainty
0	417.25	0.34
0.0505	410.45	0.36
0.1201	402.35	0.36
0.2202	392.25	0.36
0.3003	385.45	0.35
0.3603	380.85	0.35
0.4004	377.95	0.35
0.4602	373.95	0.35
0.5003	371.45	0.35
0.5902	366.25	0.35
0.6802	361.55	0.35
0.7502	358.25	0.35
0.8102	355.65	0.34
0.91	351.75	0.34
0.94	350.75	0.34
1	348.75	0.34

System: acrylonitrile + chlorobenzene; phases: Liquid, Gas
Fixed: Pressure, kPa = 95.5
Property: Boiling temperature at pressure P, K (Liquid); method: EBULLIO:UFactor:4
Mole fraction of acrylonitrile	Boiling temperature at pressure P, K	uncertainty
0	402.85	0.34
0.123	384.55	0.37
0.2104	376.15	0.35
0.3002	369.65	0.35
0.358	366.45	0.35
0.4002	364.35	0.35
0.4675	361.45	0.34
0.5293	359.15	0.34
0.6002	356.95	0.34
0.6581	355.45	0.34
0.7002	354.55	0.34
0.7612	353.15	0.34
0.8002	352.35	0.34
0.85	351.45	0.34
0.9239	350.15	0.34
1	348.75	0.34

System: nitrobenzene + acrylonitrile; phases: Liquid, Gas
Fixed: Pressure, kPa = 95.5
Property: Boiling temperature at pressure P, K (Liquid); method: EBULLIO:UFactor:4
Mole fraction of acrylonitrile	Boiling temperature at pressure P, K	uncertainty
0	481.45	0.34
0.1001	423.15	0.52
0.2202	394.75	0.41
0.2503	390.25	0.37
0.278	386.65	0.36
0.3613	377.65	0.36
0.4004	374.35	0.35
0.459	370.05	0.35
0.5308	365.65	0.35
0.6087	361.85	0.35
0.7097	357.75	0.34
0.81	354.35	0.34
0.8502	353.15	0.34
0.9002	351.75	0.34
0.9447	350.45	0.34
1	348.75	0.34
