Measured thermophysical data. Isobaric vapor liquid equilibria for water + propylene glycol monomethyl ether (PGME), water + propyleneglycol monomethyl ether acetate (PGMEA), and PGME+PGMEA at reduced pressures
Source: Fluid Phase Equilib., 2007, 10.1016/j.fluid.2007.06.006
Compound 1: water, H2O, InChI=1S/H2O/h1H2
Compound 2: 1-methoxy-2-propanol, C4H10O2, InChI=1S/C4H10O2/c1-4(5)3-6-2/h4-5H,3H2,1-2H3
Compound 3: 1-methoxy-2-propyl acetate, C6H12O3, InChI=1S/C6H12O3/c1-5(4-8-3)9-6(2)7/h5H,4H2,1-3H3

System: 1-methoxy-2-propanol; phases: Liquid, Gas
Property: Vapor or sublimation pressure, kPa (Liquid); method: EBULLIO:UFactor:16
Temperature, K	Vapor or sublimation pressure, kPa	uncertainty
355.83	26.7	0.2
365.99	40	0.2
373.87	53.3	0.2
380.27	66.7	0.2
385.71	80	0.2
390.45	93.3	0.3
392.2	98.7	0.3

System: 1-methoxy-2-propyl acetate; phases: Liquid, Gas
Property: Vapor or sublimation pressure, kPa (Liquid); method: EBULLIO:UFactor:16
Temperature, K	Vapor or sublimation pressure, kPa	uncertainty
377.95	26.7	0.2
389.37	40	0.2
398.01	53.3	0.2
405.04	66.7	0.2
411.02	80	0.2
416.25	93.3	0.3
418.18	98.7	0.3

System: 1-methoxy-2-propanol + water; phases: Liquid, Gas
Property: Boiling temperature at pressure P, K (Liquid); method: EBULLIO:UFactor:2
Mole fraction of water	Pressure, kPa	Boiling temperature at pressure P, K	uncertainty
0.088	26.7	349.7	0.21
0.092	93.3	383	0.35
0.113	53.3	365.57	0.25
0.162	93.3	378.92	0.34
0.177	26.7	345.67	0.19
0.19	53.3	361.9	0.25
0.211	53.3	361.08	0.22
0.24	93.3	375.51	0.33
0.276	26.7	342.68	0.18
0.288	53.3	358.65	0.23
0.323	93.3	372.8	0.31
0.37	26.7	340.81	0.17
0.391	53.3	356.41	0.23
0.414	93.3	370.68	0.3
0.419	53.3	355.95	0.22
0.485	26.7	339.34	0.17
0.487	53.3	355.07	0.22
0.511	93.3	369.19	0.3
0.599	26.7	338.51	0.17
0.601	53.3	354.16	0.22
0.606	93.3	368.31	0.29
0.696	93.3	367.89	0.29
0.697	53.3	353.78	0.22
0.698	26.7	338.13	0.17
0.787	53.3	353.65	0.26
0.802	53.3	353.64	0.26
0.809	93.3	367.72	0.29
0.85	26.7	338.02	0.17
0.902	93.3	367.99	0.29
0.904	53.3	353.97	0.21
0.935	26.7	338.52	0.18
0.946	26.7	338.66	0.18
0.952	26.7	338.74	0.18
0.954	93.3	368.75	0.29
0.955	53.3	354.68	0.22
0.96	26.7	338.87	0.18
0.974	53.3	355.18	0.32
0.974	93.3	369.37	0.3
0.976	26.7	339.2	0.18
0.983	93.3	369.78	0.29
0.99	26.7	339.56	0.18

System: 1-methoxy-2-propanol + water; phases: Gas, Liquid
Property: Mole fraction of water (Gas); method: Chromatography
Mole fraction of water	Pressure, kPa	Mole fraction of water	uncertainty
0.088	26.7	0.297	0.01
0.092	93.3	0.311	0.01
0.113	53.3	0.346	0.01
0.162	93.3	0.449	0.01
0.177	26.7	0.468	0.009
0.19	53.3	0.492	0.01
0.211	53.3	0.524	0.008
0.24	93.3	0.556	0.008
0.276	26.7	0.562	0.008
0.288	53.3	0.583	0.008
0.323	93.3	0.61	0.007
0.37	26.7	0.632	0.007
0.391	53.3	0.662	0.007
0.414	93.3	0.667	0.007
0.419	53.3	0.674	0.007
0.485	26.7	0.703	0.007
0.487	53.3	0.711	0.007
0.511	93.3	0.714	0.007
0.599	26.7	0.743	0.007
0.601	53.3	0.754	0.007
0.606	93.3	0.757	0.007
0.696	93.3	0.785	0.007
0.697	53.3	0.783	0.006
0.698	26.7	0.78	0.007
0.787	53.3	0.808	0.007
0.802	53.3	0.815	0.007
0.809	93.3	0.819	0.006
0.85	26.7	0.836	0.007
0.902	93.3	0.86	0.007
0.904	53.3	0.859	0.007
0.935	26.7	0.893	0.009
0.946	26.7	0.91	0.007
0.952	26.7	0.91	0.007
0.954	93.3	0.896	0.007
0.955	53.3	0.906	0.007
0.96	26.7	0.922	0.009
0.974	53.3	0.931	0.009
0.974	93.3	0.924	0.009
0.976	26.7	0.952	0.009
0.983	93.3	0.944	0.006
0.99	26.7	0.973	0.009

System: 1-methoxy-2-propyl acetate + water; phases: Liquid, Gas
Property: Boiling temperature at pressure P, K (Liquid); method: EBULLIO:UFactor:2
Pressure, kPa	Mole fraction of water	Boiling temperature at pressure P, K	uncertainty
26.7	0.048	366	0.37
26.7	0.098	358.22	0.29
26.7	0.2	347.96	0.22
26.7	0.298	343.19	0.18
26.7	0.398	339.47	0.18
26.7	0.499	336.93	0.17
26.7	0.599	336.54	0.17
26.7	0.699	336.36	0.18
26.7	0.799	336.4	0.18
26.7	0.85	336.22	0.18
26.7	0.9	336.38	0.18
26.7	0.95	336.33	0.18
26.7	0.975	336.33	0.18
26.7	0.99	336.53	0.18
53.3	0.048	384.45	0.35
53.3	0.098	376.04	0.35
53.3	0.198	364.01	0.29
53.3	0.298	358.41	0.23
53.3	0.398	354.91	0.22
53.3	0.499	352.97	0.22
53.3	0.599	352.51	0.22
53.3	0.699	352.45	0.22
53.3	0.799	352.53	0.22
53.3	0.85	352.38	0.22
53.3	0.9	352.45	0.22
53.3	0.95	352.45	0.22
53.3	0.975	352.45	0.23
53.3	0.99	352.53	0.38
93.3	0.048	402.43	0.53
93.3	0.098	392.58	0.47
93.3	0.198	379.53	0.41
93.3	0.298	372.33	0.32
93.3	0.398	369.54	0.3
93.3	0.499	367.68	0.31
93.3	0.599	367.07	0.3
93.3	0.699	367.05	0.29
93.3	0.799	367.09	0.29
93.3	0.85	367.01	0.3
93.3	0.9	367.04	0.29
93.3	0.95	367.05	0.3
93.3	0.975	367.09	0.3
93.3	0.99	367.78	0.32

System: 1-methoxy-2-propanol + 1-methoxy-2-propyl acetate; phases: Liquid, Gas
Property: Boiling temperature at pressure P, K (Liquid); method: EBULLIO:UFactor:2
Mole fraction of 1-methoxy-2-propanol	Pressure, kPa	Boiling temperature at pressure P, K	uncertainty
0.05	53.3	395.34	0.29
0.073	26.7	374.63	0.23
0.079	93.3	411.89	0.37
0.101	53.3	392.99	0.28
0.112	26.7	373.03	0.23
0.13	93.3	409.48	0.37
0.163	53.3	391.04	0.29
0.174	93.3	407.92	0.35
0.195	26.7	369.87	0.23
0.209	93.3	406.75	0.36
0.217	53.3	389.06	0.27
0.243	93.3	405.44	0.35
0.257	26.7	367.95	0.22
0.268	53.3	387.53	0.27
0.322	26.7	366.17	0.22
0.337	93.3	402.26	0.35
0.35	53.3	384.95	0.27
0.357	26.7	365.22	0.22
0.364	93.3	401.47	0.34
0.41	26.7	364.26	0.21
0.411	53.3	383.37	0.28
0.426	93.3	399.98	0.35
0.44	26.7	363.75	0.21
0.44	53.3	382.56	0.26
0.46	93.3	399.08	0.34
0.473	53.3	381.89	0.27
0.504	26.7	362.22	0.21
0.507	53.3	381.18	0.28
0.536	93.3	397.55	0.34
0.539	53.3	380.49	0.27
0.563	26.7	361.13	0.21
0.571	53.3	379.8	0.26
0.574	93.3	396.68	0.34
0.608	93.3	395.93	0.34
0.618	53.3	378.9	0.26
0.623	26.7	360.18	0.21
0.665	93.3	395	0.34
0.679	26.7	359.32	0.2
0.704	93.3	394.56	0.34
0.72	53.3	377.3	0.26
0.746	93.3	393.78	0.34
0.769	53.3	376.62	0.26
0.773	93.3	393.32	0.34
0.775	26.7	358.05	0.2
0.818	26.7	357.5	0.2
0.818	53.3	375.91	0.26
0.826	93.3	392.4	0.34
0.854	53.3	375.44	0.26
0.868	26.7	356.92	0.2
0.871	93.3	391.85	0.33
0.896	53.3	374.95	0.25
0.911	93.3	391.28	0.33
0.935	26.7	356.03	0.2
0.937	93.3	390.95	0.33
0.947	93.3	390.76	0.33
0.963	53.3	374.13	0.26

System: 1-methoxy-2-propanol + 1-methoxy-2-propyl acetate; phases: Gas, Liquid
Property: Mole fraction of 1-methoxy-2-propanol (Gas); method: Chromatography
Mole fraction of 1-methoxy-2-propanol	Pressure, kPa	Mole fraction of 1-methoxy-2-propanol	uncertainty
0.05	53.3	0.127	0.009
0.073	26.7	0.186	0.009
0.079	93.3	0.171	0.009
0.101	53.3	0.232	0.009
0.112	26.7	0.265	0.008
0.13	93.3	0.265	0.008
0.163	53.3	0.334	0.008
0.174	93.3	0.334	0.008
0.195	26.7	0.403	0.008
0.209	93.3	0.378	0.007
0.217	53.3	0.41	0.008
0.243	93.3	0.427	0.007
0.257	26.7	0.483	0.007
0.268	53.3	0.475	0.007
0.322	26.7	0.553	0.007
0.337	93.3	0.534	0.007
0.35	53.3	0.562	0.007
0.357	26.7	0.587	0.006
0.364	93.3	0.563	0.007
0.41	26.7	0.63	0.006
0.411	53.3	0.618	0.006
0.426	93.3	0.622	0.006
0.44	26.7	0.655	0.006
0.44	53.3	0.642	0.006
0.46	93.3	0.653	0.006
0.473	53.3	0.668	0.006
0.504	26.7	0.706	0.006
0.507	53.3	0.699	0.006
0.536	93.3	0.713	0.006
0.539	53.3	0.724	0.006
0.563	26.7	0.746	0.005
0.571	53.3	0.745	0.005
0.574	93.3	0.739	0.005
0.608	93.3	0.765	0.005
0.618	53.3	0.778	0.005
0.623	26.7	0.785	0.005
0.665	93.3	0.803	0.005
0.679	26.7	0.82	0.005
0.704	93.3	0.829	0.005
0.72	53.3	0.841	0.005
0.746	93.3	0.856	0.005
0.769	53.3	0.869	0.005
0.773	93.3	0.873	0.005
0.775	26.7	0.875	0.005
0.818	26.7	0.899	0.005
0.818	53.3	0.899	0.005
0.826	93.3	0.904	0.005
0.854	53.3	0.92	0.005
0.868	26.7	0.927	0.005
0.871	93.3	0.929	0.005
0.896	53.3	0.943	0.005
0.911	93.3	0.951	0.005
0.935	26.7	0.964	0.005
0.937	93.3	0.965	0.005
0.947	93.3	0.971	0.005
0.963	53.3	0.98	0.005
