Measured thermophysical data. Measurements of gas phase PVTx properties for the ternary HFC-161/125/32 system
Source: Fluid Phase Equilib., 2006, 10.1016/j.fluid.2006.09.008
Compound 1: fluoroethane, C2H5F, InChI=1S/C2H5F/c1-2-3/h2H2,1H3, purity 99.74%
Compound 2: pentafluoroethane, C2HF5, InChI=1S/C2HF5/c3-1(4)2(5,6)7/h1H, purity 99.98%
Compound 3: difluoromethane, CH2F2, InChI=1S/CH2F2/c2-1-3/h1H2, purity 99.98%

System: difluoromethane + fluoroethane + pentafluoroethane; phases: Gas
Fixed: Mole fraction of fluoroethane = 0.3418
Fixed: Mole fraction of pentafluoroethane = 0.138
Property: Amount density, mol/m3 (Gas); method: ISOCHOR
Temperature, K	Pressure, kPa	Amount density, mol/m3	uncertainty
323.16	2119.9	1086.4	3.3
328.16	2187.2	1086.1	3.3
333.16	2251.9	1085.9	3.3
338.16	2315.9	1085.6	3.6
343.16	2379	1085.3	3.6
348.16	2440.9	1085	3.3
353.16	2502.2	1084.8	3.3
358.19	2562.9	1084.5	3.3
363.15	2622.8	1084.2	3.3
368.14	2682.6	1084	3.3
373.15	2742.1	1083.7	3.3
378.14	2800.2	1083.4	3.3
383.22	2858.8	1083.2	3.3
388.2	2916.3	1082.9	3.5
393.18	2973.5	1082.6	3.3
398.17	3030.3	1082.4	3.3
403.16	3086.6	1082.1	3.3

System: difluoromethane + fluoroethane + pentafluoroethane; phases: Gas
Fixed: Mole fraction of fluoroethane = 0.5882
Fixed: Mole fraction of pentafluoroethane = 0.1445
Property: Amount density, mol/m3 (Gas); method: ISOCHOR
Temperature, K	Pressure, kPa	Amount density, mol/m3	uncertainty
348.17	3259.2	1836.8	5.5
353.16	3382.2	1836.4	5.5
358.18	3502.9	1835.9	5.5
363.16	3621.1	1835.5	5.6
368.13	3737.9	1835	5.5
373.15	3853.5	1834.6	5.5
376.13	3921.4	1834.3	5.5
379.19	3990.1	1834	5.5
382.14	4056.6	1833.7	5.6
385.24	4125.6	1833.5	5.5
388.21	4191.1	1833.2	5.5
391.17	4256.6	1832.9	5.6
394.18	4322.5	1832.7	5.6
397.19	4388.1	1832.4	5.5
400.2	4453.7	1832.1	5.5
403.16	4517.8	1831.8	5.5

System: difluoromethane + fluoroethane + pentafluoroethane; phases: Gas
Fixed: Mole fraction of fluoroethane = 0.2428
Fixed: Mole fraction of pentafluoroethane = 0.4332
Property: Amount density, mol/m3 (Gas); method: ISOCHOR
Temperature, K	Pressure, kPa	Amount density, mol/m3	uncertainty
338.19	2621.8	1347.5	4.1
343.17	2706.6	1347.2	4.1
348.18	2790.2	1346.9	4.1
353.18	2872.6	1346.5	4.1
358.16	2953.5	1346.2	4.1
363.14	3033.8	1345.9	4.1
368.14	3113.2	1345.5	4.1
373.16	3192.2	1345.2	4.1
378.23	3271.3	1344.9	4.1
383.2	3347.8	1344.5	4.1
388.19	3424.1	1344.2	4.1
393.17	3500	1343.9	4.1
398.16	3575.3	1343.5	4.1
403.15	3650	1343.2	4.1

System: difluoromethane + fluoroethane + pentafluoroethane; phases: Gas
Fixed: Mole fraction of fluoroethane = 0.4025
Fixed: Mole fraction of pentafluoroethane = 0.1798
Property: Amount density, mol/m3 (Gas); method: ISOCHOR
Temperature, K	Pressure, kPa	Amount density, mol/m3	uncertainty
356.14	3904.4	2162.2	6.5
359.15	3991.7	2161.8	6.5
363.15	4106.4	2161.4	6.5
366.17	4191.9	2161.1	6.7
369.21	4277.8	2160.8	6.5
373.15	4387.9	2160.3	6.5
376.21	4472.6	2160	6.5
379.18	4553.7	2159.7	6.5
383.21	4663.4	2159.3	6.5
386.18	4743.7	2158.9	6.5
389.2	4825.4	2158.6	6.5
393.18	4931.6	2158.2	6.5
396.17	5011.3	2157.9	6.5
399.15	5090.1	2157.6	6.5
403.17	5196	2157.1	6.5

System: difluoromethane + fluoroethane + pentafluoroethane; phases: Gas
Fixed: Mole fraction of fluoroethane = 0.4139
Fixed: Mole fraction of pentafluoroethane = 0.2368
Property: Amount density, mol/m3 (Gas); method: ISOCHOR
Temperature, K	Pressure, kPa	Amount density, mol/m3	uncertainty
298.18	917.8	442	1.3
303.18	942.4	441.9	1.3
308.19	966.4	441.8	1.3
313.18	989.9	441.7	1.9
318.17	1013	441.6	1.3
323.18	1035.9	441.5	1.3
328.16	1058.4	441.4	1.3
333.17	1080.8	441.3	1.3
338.16	1102.8	441.2	1.8
343.16	1124.8	441.1	1.8
348.16	1146.6	441	1.8
353.17	1168.2	440.8	1.3
358.16	1189.7	440.7	1.3
363.13	1211.2	440.6	1.7
368.14	1232.8	440.5	1.3
373.13	1254	440.4	1.3
378.21	1275.4	440.3	1.3
383.22	1296.4	440.2	1.3
388.18	1317	440.1	1.3
393.16	1337.7	440	1.7
398.15	1358.4	439.9	1.3
403.15	1379	439.8	1.3

System: difluoromethane + fluoroethane + pentafluoroethane; phases: Gas
Fixed: Mole fraction of fluoroethane = 0.2903
Fixed: Mole fraction of pentafluoroethane = 0.5504
Property: Amount density, mol/m3 (Gas); method: ISOCHOR
Temperature, K	Pressure, kPa	Amount density, mol/m3	uncertainty
328.16	2094	1089.3	3.3
333.17	2163.2	1089	3.3
338.17	2230.8	1088.8	3.3
343.16	2297	1088.5	3.3
348.16	2362.4	1088.2	3.3
353.17	2426.9	1088	3.3
358.2	2490.7	1087.7	3.3
363.14	2553.2	1087.4	3.3
368.15	2616	1087.2	3.3
373.14	2677.8	1086.9	3.3
378.21	2739.7	1086.6	3.3
383.2	2799.9	1086.3	3.5
388.18	2859.8	1086.1	3.4
393.17	2919.4	1085.8	3.3
398.17	2978.6	1085.5	3.4
403.2	3037.8	1085.3	3.3

System: difluoromethane + fluoroethane + pentafluoroethane; phases: Gas
Fixed: Mole fraction of fluoroethane = 0.2911
Fixed: Mole fraction of pentafluoroethane = 0.3441
Property: Amount density, mol/m3 (Gas); method: ISOCHOR
Temperature, K	Pressure, kPa	Amount density, mol/m3	uncertainty
333.15	2463.6	1276.8	3.9
338.17	2544.5	1276.5	3.9
343.17	2622.8	1276.1	4.1
348.17	2700.9	1275.8	4.1
353.17	2777.2	1275.5	3.9
358.18	2852.7	1275.2	3.9
363.16	2927.8	1274.9	3.9
368.19	3002.3	1274.6	3.9
373.16	3075.4	1274.3	3.9
378.15	3147.3	1273.9	3.9
383.22	3219.6	1273.6	3.8
388.21	3290.9	1273.3	3.8
393.19	3361.4	1273	4
398.17	3431	1272.7	4
403.16	3500.7	1272.4	3.8

System: difluoromethane + fluoroethane + pentafluoroethane; phases: Gas
Fixed: Mole fraction of fluoroethane = 0.2799
Fixed: Mole fraction of pentafluoroethane = 0.4072
Property: Amount density, mol/m3 (Gas); method: ISOCHOR
Temperature, K	Pressure, kPa	Amount density, mol/m3	uncertainty
348.18	3053	1561.9	4.7
353.17	3152.2	1561.5	4.9
358.16	3249.4	1561.1	4.9
363.14	3346.3	1560.7	4.7
368.15	3441.8	1560.3	4.7
373.13	3536.2	1559.9	4.7
378.21	3631.4	1559.5	4.7
383.19	3723.3	1559.2	4.7
388.17	3814.6	1558.8	4.7
393.2	3905.7	1558.4	4.7
398.16	3995.3	1558	4.7
403.15	4084.6	1557.6	4.7

System: difluoromethane + fluoroethane + pentafluoroethane; phases: Gas
Fixed: Mole fraction of fluoroethane = 0.2381
Fixed: Mole fraction of pentafluoroethane = 0.3993
Property: Amount density, mol/m3 (Gas); method: ISOCHOR
Temperature, K	Pressure, kPa	Amount density, mol/m3	uncertainty
343.17	2713.9	1343.3	4.1
348.18	2796.8	1343	4.1
353.17	2878.3	1342.6	4.1
358.16	2958.3	1342.3	4.3
363.14	3037.9	1342	4.1
368.15	3117.2	1341.7	4.1
373.14	3195.2	1341.3	4.1
378.21	3273.4	1341	4.1
383.19	3349.7	1340.7	4.1
388.18	3425.4	1340.3	4.1
393.16	3500.4	1340	4
398.15	3575.1	1339.7	4.1
403.16	3649.4	1339.3	4
