Measured thermophysical data. Solid-liquid phase equilibrium of glyphosate in selected solvents
Source: Fluid Phase Equilib., 2012, 10.1016/j.fluid.2012.05.003
Compound 1: (phosphonomethyl)glycine, C3H8NO5P, InChI=1S/C3H8NO5P/c5-3(6)1-4-2-10(7,8)9/h4H,1-2H2,(H,5,6)(H2,7,8,9)
Compound 2: methanol, CH4O, InChI=1S/CH4O/c1-2/h2H,1H3, purity 99.5%
Compound 3: ethanol, C2H6O, InChI=1S/C2H6O/c1-2-3/h3H,2H2,1H3, purity 99.5%
Compound 4: propan-1-ol, C3H8O, InChI=1S/C3H8O/c1-2-3-4/h4H,2-3H2,1H3, purity 99.5%
Compound 5: propan-2-ol, C3H8O, InChI=1S/C3H8O/c1-3(2)4/h3-4H,1-2H3, purity 99.5%
Compound 6: acetone, C3H6O, InChI=1S/C3H6O/c1-3(2)4/h1-2H3, purity 99.5%
Compound 7: benzene, C6H6, InChI=1S/C6H6/c1-2-4-6-5-3-1/h1-6H, purity 99.5%
Compound 8: ethyl acetate, C4H8O2, InChI=1S/C4H8O2/c1-3-6-4(2)5/h3H2,1-2H3, purity 99.5%
Compound 9: water, H2O, InChI=1S/H2O/h1H2, purity 99.5%
Compound 10: sodium chloride, ClNa, InChI=1S/ClH.Na/h1H;/q;+1/p-1, purity 99.8%

System: (phosphonomethyl)glycine; phases: Crystal, Liquid, Air at 1 atmosphere
Property: Normal melting temperature, K (Crystal); method: DTA
Normal melting temperature, K	uncertainty
487.8	0.5

System: methanol + (phosphonomethyl)glycine; phases: Liquid, Crystal
Fixed: Pressure, kPa = 101
Property: Mole fraction of (phosphonomethyl)glycine (Liquid); method: gravimetric method
Temperature, K	Mole fraction of (phosphonomethyl)glycine	uncertainty
283.54	3.795e-06	4.7e-08
288.71	5.655e-06	6.9e-08
293.13	7.165e-06	8.8e-08
297.99	1.0216e-05	1.25e-07
303.02	1.4085e-05	1.73e-07
308.02	1.8334e-05	2.25e-07
312.9	2.5067e-05	3.07e-07
317.86	3.4097e-05	4.18e-07
323.1	4.6242e-05	5.67e-07

System: ethanol + (phosphonomethyl)glycine; phases: Liquid, Crystal
Fixed: Pressure, kPa = 101
Property: Mole fraction of (phosphonomethyl)glycine (Liquid); method: gravimetric method
Temperature, K	Mole fraction of (phosphonomethyl)glycine	uncertainty
283.87	8.64e-06	1.69e-07
288.47	1.2105e-05	2.5e-07
293.16	1.9147e-05	3.68e-07
298.16	2.7958e-05	4.43e-07
302.93	3.7175e-05	5.67e-07
307.91	5.0557e-05	8.57e-07
317.67	9.0279e-05	1.208e-06
322.54	0.00011866	1.71e-06
327.61	0.0001577	2.67e-06
331.83	0.00022575	3.53e-06
336.56	0.00028898	4.08e-06
341.21	0.00037567	4.97e-06

System: propan-1-ol + (phosphonomethyl)glycine; phases: Liquid, Crystal
Fixed: Pressure, kPa = 101
Property: Mole fraction of (phosphonomethyl)glycine (Liquid); method: gravimetric method
Temperature, K	Mole fraction of (phosphonomethyl)glycine	uncertainty
291.24	3.562e-05	8.84e-07
297.76	6.32e-05	1.145e-06
302.7	9.651e-05	1.384e-06
308.04	0.00012485	2.33e-06
308.05	0.00013816	2.38e-06
312.55	0.00020424	4.03e-06
312.6	0.00020815	4.04e-06
318.2	0.00032734	9.18e-06
318.25	0.00040539	9.45e-06
322.56	0.00066125	1.808e-05
322.75	0.00050525	1.794e-05
328.04	0.00125	3.3e-05
328.2	0.00067886	3.141e-05
332.78	0.0021012	6.39e-05

System: propan-2-ol + (phosphonomethyl)glycine; phases: Liquid, Crystal
Fixed: Pressure, kPa = 101
Property: Mole fraction of (phosphonomethyl)glycine (Liquid); method: gravimetric method
Temperature, K	Mole fraction of (phosphonomethyl)glycine	uncertainty
292.06	1.389e-05	6.04e-07
297.77	3.09e-05	8.22e-07
302.65	5.607e-05	1.886e-06
308.04	0.00012485	3.11e-06
312.55	0.00020424	5.75e-06
318.25	0.00040539	9.48e-06
322.56	0.00066125	1.808e-05
328.04	0.00125	2.94e-05
332.78	0.0021012	3.9e-05

System: acetone + (phosphonomethyl)glycine; phases: Liquid, Crystal
Fixed: Pressure, kPa = 101
Property: Mole fraction of (phosphonomethyl)glycine (Liquid); method: gravimetric method
Temperature, K	Mole fraction of (phosphonomethyl)glycine	uncertainty
283.71	4.787e-06	1.69e-07
288.27	8.551e-06	2.68e-07
293.36	1.7279e-05	3.82e-07
298.05	2.6153e-05	6.85e-07
303.1	4.9123e-05	1.197e-06
308.1	8.3523e-05	1.829e-06
312.75	0.00013246	3.67e-06
317.82	0.00025452	5.65e-06
323	0.00040576	6.56e-06

System: benzene + (phosphonomethyl)glycine; phases: Liquid, Crystal
Fixed: Pressure, kPa = 101
Property: Mole fraction of (phosphonomethyl)glycine (Liquid); method: gravimetric method
Temperature, K	Mole fraction of (phosphonomethyl)glycine	uncertainty
288.61	0.00018623	1.47e-06
293.24	0.00020798	1.63e-06
298.23	0.00023521	1.85e-06
302.94	0.00026484	1.93e-06
307.83	0.00028592	2.01e-06
312.87	0.00031485	2.33e-06
317.64	0.00035091	2.7e-06
322.65	0.00039512	2.82e-06
327.91	0.00042675	2.92e-06
332.74	0.00046217	3.17e-06
337.77	0.00049878	3.53e-06
342.23	0.00054773	3.99e-06

System: ethyl acetate + (phosphonomethyl)glycine; phases: Liquid, Crystal
Fixed: Pressure, kPa = 101
Property: Mole fraction of (phosphonomethyl)glycine (Liquid); method: gravimetric method
Temperature, K	Mole fraction of (phosphonomethyl)glycine	uncertainty
292.25	4.3884e-05	2.048e-06
297.85	0.00010081	3e-06
302.74	0.00019929	5.98e-06
308.04	0.0003988	1.034e-05
312.34	0.00068812	2.01e-05
317.83	0.0013534	5.12e-05
328.27	0.0045818	8.31e-05
332.64	0.0074727	0.0001391

System: (phosphonomethyl)glycine + water; phases: Liquid, Crystal
Fixed: Pressure, kPa = 101
Property: Mole fraction of (phosphonomethyl)glycine (Liquid); method: gravimetric method
Temperature, K	Mole fraction of (phosphonomethyl)glycine	uncertainty
283.14	7.614e-05	1.788e-06
293.15	0.0001093	2.46e-06
303.17	0.00013602	3.05e-06
313.15	0.00018046	4.06e-06
323.17	0.000234	5.25e-06
332.85	0.00030002	6.74e-06
342.41	0.00038897	8.72e-06
352.55	0.00049857	1.109e-05

System: (phosphonomethyl)glycine + sodium chloride + water; phases: Liquid, Crystal
Fixed: Pressure, kPa = 101
Property: Mole fraction of (phosphonomethyl)glycine (Liquid); method: gravimetric
Solvent: Molality, mol/kg of sodium chloride	Temperature, K	Mole fraction of (phosphonomethyl)glycine	uncertainty
0	283.14	0.0007614	7.8e-06
0	293.15	0.001093	8.4e-06
0	303.17	0.0013602	1.02e-05
0	313.15	0.0018046	1.38e-05
0	323.17	0.00234	1.75e-05
0	332.85	0.0030002	2.11e-05
0.5133	283.11	0.0010449	9.1e-06
0.5133	293.15	0.0013886	1.01e-05
0.5133	303.14	0.0017208	1.25e-05
0.5133	313.18	0.0022248	1.7e-05
0.5133	323.16	0.0029247	2.08e-05
0.5133	332.95	0.0035683	2.29e-05
1.0267	283.04	0.0012775	9.4e-06
1.0267	292.91	0.0016379	1.17e-05
1.0267	302.9	0.0020371	1.46e-05
1.0267	312.84	0.0026015	1.89e-05
1.0267	322.97	0.0033139	2.28e-05
1.0267	332.87	0.0040241	2.71e-05
1.54	282.87	0.0016291	9.5e-06
1.54	292.75	0.0020376	1.44e-05
1.54	302.84	0.0025645	1.81e-05
1.54	312.65	0.0031988	2.21e-05
1.54	322.73	0.0039434	2.64e-05
1.54	332.25	0.0047347	3.23e-05
2.0534	284.39	0.0023322	1.6e-05
2.0534	293.15	0.0027691	1.88e-05
2.0534	303.07	0.0034113	2.3e-05
2.0534	312.79	0.0041375	2.73e-05
2.0534	322.29	0.0049295	3.23e-05
2.0534	333.07	0.0059973	3.73e-05
2.5667	283.54	0.0034772	1.96e-05
2.5667	293.23	0.0039971	2.47e-05
2.5667	302.87	0.0046599	2.88e-05
2.5667	313.15	0.0054151	3.27e-05
2.5667	322.17	0.0060923	3.64e-05
2.5667	332.47	0.0069354	4.17e-05
3.0801	283.39	0.0053876	3.19e-05
3.0801	293.04	0.0058207	3.31e-05
3.0801	302.64	0.0064073	3.68e-05
3.0801	312.17	0.0070447	4e-05
3.0801	321.83	0.007622	4.28e-05
3.0801	332.13	0.0082264	4.87e-05
3.5934	283.51	0.0066821	3.88e-05
3.5934	293.19	0.0073797	4.26e-05
3.5934	302.83	0.0081464	4.69e-05
3.5934	312.21	0.0089511	5.14e-05
3.5934	322.01	0.0098328	5.62e-05
3.5934	332.41	0.0108312	6.15e-05
