Measured thermophysical data. Measurement and correlation of the solubilities of luteolin and rutin in five imidazole-based ionic liquids
Source: Fluid Phase Equilib., 2013, 10.1016/j.fluid.2013.01.026
Compound 1: rutin, C27H30O16, InChI=1S/C27H30O16/c1-8-17(32)20(35)22(37)26(40-8)39-7-15-18(33)21(36)23(38)27(42-15)43-25-19(34)16-13(31)5-10(28)6-14(16)41-24(25)9-2-3-11(29)12(30)4-9/h2-6,8,15,17-18,20-23,26-33,35-38H,7H2,1H3/t8-,15+,17-,18+,20+,21-,22+,23+,26+,27-/m0/s1, purity 98%
Compound 2: 5,7,3',4'-tetrahydroxyflavone, C15H10O6, InChI=1S/C15H10O6/c16-8-4-11(19)15-12(20)6-13(21-14(15)5-8)7-1-2-9(17)10(18)3-7/h1-6,16-19H, purity 98%
Compound 3: 1-butyl-3-methylimidazolium tetrafluoroborate, C8H15BF4N2, InChI=1S/C8H15N2.BF4/c1-3-4-5-10-7-6-9(2)8-10;2-1(3,4)5/h6-8H,3-5H2,1-2H3;/q+1;-1, purity 99.5%
Compound 4: 1-hexyl-3-methylimidazolium tetrafluoroborate, C10H19BF4N2, InChI=1S/C10H19N2.BF4/c1-3-4-5-6-7-12-9-8-11(2)10-12;2-1(3,4)5/h8-10H,3-7H2,1-2H3;/q+1;-1, purity 99.5%
Compound 5: 1-butyl-3-methylimidazolium hexafluorophosphate, C8H15F6N2P, InChI=1S/C8H15N2.F6P/c1-3-4-5-10-7-6-9(2)8-10;1-7(2,3,4,5)6/h6-8H,3-5H2,1-2H3;/q+1;-1, purity 99.5%
Compound 6: 1-hexyl-3-methylimidazolium hexafluorophosphate, C10H19F6N2P, InChI=1S/C10H19N2.F6P/c1-3-4-5-6-7-12-9-8-11(2)10-12;1-7(2,3,4,5)6/h8-10H,3-7H2,1-2H3;/q+1;-1, purity 99.5%
Compound 7: 1-butyl-3-methylimidazolium bis(trifluoromethylsulfonyl)imide, C10H15F6N3O4S2, InChI=1S/C8H15N2.C2F6NO4S2/c1-3-4-5-10-7-6-9(2)8-10;3-1(4,5)14(10,11)9-15(12,13)2(6,7)8/h6-8H,3-5H2,1-2H3;/q+1;-1, purity 99.5%

System: rutin; phases: Crystal, Liquid, Air at 1 atmosphere
Property: Normal melting temperature, K (Crystal); method: Melting Point Apparatus
Normal melting temperature, K	uncertainty
450.35	0.2

System: 5,7,3',4'-tetrahydroxyflavone; phases: Crystal, Liquid, Air at 1 atmosphere
Property: Normal melting temperature, K (Crystal); method: Melting Point Apparatus
Normal melting temperature, K	uncertainty
610.53	0.2

System: 5,7,3',4'-tetrahydroxyflavone + 1-butyl-3-methylimidazolium tetrafluoroborate; phases: Liquid, Crystal
Fixed: Pressure, kPa = 101
Property: Mole fraction of 5,7,3',4'-tetrahydroxyflavone (Liquid); method: Phase equilibration
Temperature, K	Mole fraction of 5,7,3',4'-tetrahydroxyflavone	uncertainty
311.7	0.0088973	0.0001028
312.8	0.0094327	8.8e-05
315.3	0.010397	8.44e-05
318.9	0.0118252	9.12e-05
321.1	0.0128512	8.97e-05
325.2	0.0144043	9.23e-05
328.2	0.015764	9.74e-05
332.5	0.017525	9.73e-05

System: 5,7,3',4'-tetrahydroxyflavone + 1-hexyl-3-methylimidazolium tetrafluoroborate; phases: Liquid, Crystal
Fixed: Pressure, kPa = 101
Property: Mole fraction of 5,7,3',4'-tetrahydroxyflavone (Liquid); method: Phase equilibration
Temperature, K	Mole fraction of 5,7,3',4'-tetrahydroxyflavone	uncertainty
308.6	0.0102051	0.0001873
309.5	0.011039	0.0001822
310.5	0.01191	0.000177
317.8	0.0198662	0.0002364
322.1	0.025359	0.0002611
323.8	0.027404	0.0002584
326.3	0.030552	0.0002929
328.1	0.0334891	0.0002935
329.8	0.0354282	0.0003069
331.5	0.038444	0.0003049
334.9	0.0428462	0.0003085
336.9	0.0462328	0.0003449
339.3	0.049913	0.000336

System: 5,7,3',4'-tetrahydroxyflavone + 1-butyl-3-methylimidazolium hexafluorophosphate; phases: Liquid, Crystal
Fixed: Pressure, kPa = 101
Property: Mole fraction of 5,7,3',4'-tetrahydroxyflavone (Liquid); method: Phase equilibration
Temperature, K	Mole fraction of 5,7,3',4'-tetrahydroxyflavone	uncertainty
305.5	0.0002062	1.99e-05
317.7	0.000425	8.9e-06
321.6	0.000519	1.4e-05
331.5	0.0008389	1.26e-05
335.9	0.0010154	2.16e-05
340.3	0.0012064	1.34e-05
343.9	0.0013681	1.51e-05
347.1	0.0015737	1.74e-05
350.8	0.0017676	1.35e-05

System: 5,7,3',4'-tetrahydroxyflavone + 1-hexyl-3-methylimidazolium hexafluorophosphate; phases: Liquid, Crystal
Fixed: Pressure, kPa = 101
Property: Mole fraction of 5,7,3',4'-tetrahydroxyflavone (Liquid); method: Phase equilibration
Temperature, K	Mole fraction of 5,7,3',4'-tetrahydroxyflavone	uncertainty
320.8	0.00012164	9.1e-06
331.3	0.00024326	6.74e-06
339.3	0.00036484	1.395e-05
346.1	0.00046614	2.099e-05
350.4	0.00058767	1.43e-05
354.4	0.00070917	1.046e-05

System: 5,7,3',4'-tetrahydroxyflavone + 1-butyl-3-methylimidazolium bis(trifluoromethylsulfonyl)imide; phases: Liquid, Crystal
Fixed: Pressure, kPa = 101
Property: Mole fraction of 5,7,3',4'-tetrahydroxyflavone (Liquid); method: Phase equilibration
Temperature, K	Mole fraction of 5,7,3',4'-tetrahydroxyflavone	uncertainty
338.5	0.0005979	1.63e-05
341	0.00074	2.05e-05
346.9	0.0012084	1.72e-05
350.8	0.0014471	2.57e-05
352.4	0.0016989	2.32e-05
356.6	0.0019373	1.31e-05

System: rutin + 1-butyl-3-methylimidazolium tetrafluoroborate; phases: Liquid, Crystal
Fixed: Pressure, kPa = 101
Property: Mole fraction of rutin (Liquid); method: Phase equilibration
Temperature, K	Mole fraction of rutin	uncertainty
323.1	0.0005106	1.99e-05
326.4	0.0006696	1.43e-05
328.6	0.0007822	2.24e-05
331.2	0.0009346	2.46e-05
333.8	0.00112	2.53e-05
336.2	0.0013546	2.67e-05
338.3	0.001581	2.69e-05
340.1	0.0018005	3e-05
341.8	0.0020261	3.48e-05
343.6	0.00233	4.01e-05

System: rutin + 1-hexyl-3-methylimidazolium tetrafluoroborate; phases: Liquid, Crystal
Fixed: Pressure, kPa = 101
Property: Mole fraction of rutin (Liquid); method: Phase equilibration
Temperature, K	Mole fraction of rutin	uncertainty
327.5	0.0007237	1.44e-05
331.9	0.00082	1.74e-05
335.6	0.0009662	2.15e-05
338.8	0.001165	2.37e-05
340.9	0.0013608	2.41e-05
342.2	0.0014925	2.63e-05
343.9	0.001697	3.68e-05
345.3	0.0019379	3.96e-05
346.8	0.0022152	4.3e-05
348.1	0.0024923	4.76e-05
