Measured thermophysical data. Thermodynamic study of 1,1,2,2-tetrachloroethane + hydrocarbon mixtures I. Excess and solvation enthalpies
Source: Fluid Phase Equilib., 2006, 10.1016/j.fluid.2006.10.013
Compound 1: 1,1,2,2-tetrachloroethane, C2H2Cl4, InChI=1S/C2H2Cl4/c3-1(4)2(5)6/h1-2H, purity 98%
Compound 2: benzene, C6H6, InChI=1S/C6H6/c1-2-4-6-5-3-1/h1-6H, purity 99.9%
Compound 3: toluene, C7H8, InChI=1S/C7H8/c1-7-5-3-2-4-6-7/h2-6H,1H3, purity 99.8%
Compound 4: ethylbenzene, C8H10, InChI=1S/C8H10/c1-2-8-6-4-3-5-7-8/h3-7H,2H2,1H3, purity 99%
Compound 5: propylbenzene, C9H12, InChI=1S/C9H12/c1-2-6-9-7-4-3-5-8-9/h3-5,7-8H,2,6H2,1H3, purity 98%
Compound 6: isopropylbenzene, C9H12, InChI=1S/C9H12/c1-8(2)9-6-4-3-5-7-9/h3-8H,1-2H3, purity 99%
Compound 7: butylbenzene, C10H14, InChI=1S/C10H14/c1-2-3-7-10-8-5-4-6-9-10/h4-6,8-9H,2-3,7H2,1H3, purity 99%
Compound 8: (1-methylpropyl)benzene, C10H14, InChI=1S/C10H14/c1-3-9(2)10-7-5-4-6-8-10/h4-9H,3H2,1-2H3, purity 99%
Compound 9: (1,1-dimethylethyl)benzene, C10H14, InChI=1S/C10H14/c1-10(2,3)9-7-5-4-6-8-9/h4-8H,1-3H3, purity 99%
Compound 10: heptane, C7H16, InChI=1S/C7H16/c1-3-5-7-6-4-2/h3-7H2,1-2H3, purity 99.5%
Compound 11: cyclohexane, C6H12, InChI=1S/C6H12/c1-2-4-6-5-3-1/h1-6H2, purity 99.9%

System: 1,1,2,2-tetrachloroethane; phases: Liquid
Property: Mass density, kg/m3 (Liquid); method: VIBTUB:UFactor:12
Temperature, K	Pressure, kPa	Mass density, kg/m3	uncertainty
298.15	101.325	1586.22	6.73

System: benzene; phases: Liquid
Property: Mass density, kg/m3 (Liquid); method: VIBTUB:UFactor:2
Temperature, K	Pressure, kPa	Mass density, kg/m3	uncertainty
298.15	101.325	873.58	0.3

System: toluene; phases: Liquid
Property: Mass density, kg/m3 (Liquid); method: VIBTUB:UFactor:2
Temperature, K	Pressure, kPa	Mass density, kg/m3	uncertainty
298.15	101.325	862.19	0.31

System: ethylbenzene; phases: Liquid
Property: Mass density, kg/m3 (Liquid); method: VIBTUB:UFactor:8
Temperature, K	Pressure, kPa	Mass density, kg/m3	uncertainty
298.15	101.325	862.55	1.1

System: propylbenzene; phases: Liquid
Property: Mass density, kg/m3 (Liquid); method: VIBTUB:UFactor:12
Temperature, K	Pressure, kPa	Mass density, kg/m3	uncertainty
298.15	101.325	857.62	2.14

System: isopropylbenzene; phases: Liquid
Property: Mass density, kg/m3 (Liquid); method: VIBTUB:UFactor:8
Temperature, K	Pressure, kPa	Mass density, kg/m3	uncertainty
298.15	101.325	857.51	1.11

System: butylbenzene; phases: Liquid
Property: Mass density, kg/m3 (Liquid); method: VIBTUB:UFactor:8
Temperature, K	Pressure, kPa	Mass density, kg/m3	uncertainty
298.15	101.325	856.29	1.12

System: (1-methylpropyl)benzene; phases: Liquid
Property: Mass density, kg/m3 (Liquid); method: VIBTUB:UFactor:8
Temperature, K	Pressure, kPa	Mass density, kg/m3	uncertainty
298.15	101.325	857.95	1.11

System: (1,1-dimethylethyl)benzene; phases: Liquid
Property: Mass density, kg/m3 (Liquid); method: VIBTUB:UFactor:8
Temperature, K	Pressure, kPa	Mass density, kg/m3	uncertainty
298.15	101.325	862.23	1.1

System: heptane; phases: Liquid
Property: Mass density, kg/m3 (Liquid); method: VIBTUB:UFactor:4
Temperature, K	Pressure, kPa	Mass density, kg/m3	uncertainty
298.15	101.325	679.54	0.86

System: cyclohexane; phases: Liquid
Property: Mass density, kg/m3 (Liquid); method: VIBTUB:UFactor:2
Temperature, K	Pressure, kPa	Mass density, kg/m3	uncertainty
298.15	101.325	773.86	0.37

System: benzene + 1,1,2,2-tetrachloroethane; phases: Liquid
Fixed: Temperature, K = 298.15
Fixed: Pressure, kPa = 101
Property: Excess molar enthalpy (molar enthalpy of mixing), kJ/mol (Liquid); method: Flow calorimetry
Mole fraction of 1,1,2,2-tetrachloroethane	Excess molar enthalpy (molar enthalpy of mixing), kJ/mol	uncertainty
0.0955	-0.189	0.008
0.1744	-0.311	0.013
0.2406	-0.406	0.017
0.297	-0.479	0.02
0.3879	-0.562	0.023
0.458	-0.599	0.024
0.5298	-0.597	0.024
0.559	-0.576	0.024
0.6283	-0.557	0.023
0.6926	-0.511	0.021
0.7171	-0.478	0.02
0.7717	-0.397	0.016
0.8942	-0.208	0.009

System: 1,1,2,2-tetrachloroethane + toluene; phases: Liquid
Fixed: Temperature, K = 298.15
Fixed: Pressure, kPa = 101
Property: Excess molar enthalpy (molar enthalpy of mixing), kJ/mol (Liquid); method: Flow calorimetry
Mole fraction of 1,1,2,2-tetrachloroethane	Excess molar enthalpy (molar enthalpy of mixing), kJ/mol	uncertainty
0.0776	-0.274	0.011
0.1592	-0.505	0.021
0.2519	-0.709	0.029
0.3355	-0.853	0.035
0.4024	-0.912	0.037
0.431	-0.938	0.038
0.5025	-0.955	0.039
0.5738	-0.927	0.038
0.6689	-0.815	0.033
0.8016	-0.571	0.023
0.8707	-0.395	0.016
0.9099	-0.281	0.012

System: 1,1,2,2-tetrachloroethane + ethylbenzene; phases: Liquid
Fixed: Temperature, K = 298.15
Fixed: Pressure, kPa = 101
Property: Excess molar enthalpy (molar enthalpy of mixing), kJ/mol (Liquid); method: Flow calorimetry
Mole fraction of 1,1,2,2-tetrachloroethane	Excess molar enthalpy (molar enthalpy of mixing), kJ/mol	uncertainty
0.1042	-0.317	0.013
0.179	-0.49	0.02
0.2794	-0.682	0.028
0.3677	-0.798	0.033
0.4368	-0.843	0.034
0.4659	-0.858	0.035
0.5377	-0.845	0.034
0.6357	-0.763	0.031
0.6994	-0.694	0.028
0.8231	-0.463	0.019
0.8858	-0.309	0.013

System: 1,1,2,2-tetrachloroethane + propylbenzene; phases: Liquid
Fixed: Temperature, K = 298.15
Fixed: Pressure, kPa = 101
Property: Excess molar enthalpy (molar enthalpy of mixing), kJ/mol (Liquid); method: Flow calorimetry
Mole fraction of 1,1,2,2-tetrachloroethane	Excess molar enthalpy (molar enthalpy of mixing), kJ/mol	uncertainty
0.0994	-0.261	0.011
0.1657	-0.39	0.016
0.2487	-0.516	0.021
0.3063	-0.583	0.024
0.3984	-0.662	0.027
0.4689	-0.678	0.028
0.4983	-0.701	0.029
0.5698	-0.68	0.028
0.6385	-0.63	0.026
0.6652	-0.598	0.024
0.7259	-0.515	0.021
0.8412	-0.342	0.014
0.8983	-0.224	0.009

System: 1,1,2,2-tetrachloroethane + isopropylbenzene; phases: Liquid
Fixed: Temperature, K = 298.15
Fixed: Pressure, kPa = 101
Property: Excess molar enthalpy (molar enthalpy of mixing), kJ/mol (Liquid); method: Flow calorimetry
Mole fraction of 1,1,2,2-tetrachloroethane	Excess molar enthalpy (molar enthalpy of mixing), kJ/mol	uncertainty
0.0994	-0.267	0.011
0.1658	-0.403	0.017
0.2488	-0.547	0.022
0.3319	-0.657	0.027
0.3984	-0.692	0.028
0.469	-0.733	0.03
0.4984	-0.736	0.03
0.5698	-0.719	0.029
0.6385	-0.675	0.028
0.726	-0.568	0.023
0.7989	-0.435	0.018
0.876	-0.29	0.012
0.9298	-0.17	0.007

System: 1,1,2,2-tetrachloroethane + butylbenzene; phases: Liquid
Fixed: Temperature, K = 298.15
Fixed: Pressure, kPa = 101
Property: Excess molar enthalpy (molar enthalpy of mixing), kJ/mol (Liquid); method: FLOW:UFactor:4
Mole fraction of 1,1,2,2-tetrachloroethane	Excess molar enthalpy (molar enthalpy of mixing), kJ/mol	uncertainty
0.1099	-0.227	0.013
0.1741	-0.294	0.016
0.1818	-0.335	0.018
0.2702	-0.455	0.024
0.3305	-0.509	0.027
0.4255	-0.554	0.029
0.4969	-0.544	0.028
0.5263	-0.551	0.029
0.597	-0.499	0.026
0.6896	-0.416	0.022
0.7476	-0.35	0.019
0.798	-0.26	0.015
0.8556	-0.233	0.013
0.908	-0.107	0.007

System: 1,1,2,2-tetrachloroethane + (1-methylpropyl)benzene; phases: Liquid
Fixed: Temperature, K = 298.15
Fixed: Pressure, kPa = 101
Property: Excess molar enthalpy (molar enthalpy of mixing), kJ/mol (Liquid); method: Flow calorimetry
Mole fraction of 1,1,2,2-tetrachloroethane	Excess molar enthalpy (molar enthalpy of mixing), kJ/mol	uncertainty
0.1288	-0.231	0.01
0.1977	-0.326	0.013
0.2699	-0.407	0.017
0.3072	-0.422	0.017
0.3567	-0.442	0.018
0.425	-0.478	0.02
0.4964	-0.497	0.02
0.5965	-0.45	0.018
0.6634	-0.402	0.016
0.7473	-0.321	0.013
0.7977	-0.273	0.011
0.8554	-0.203	0.008
0.922	-0.113	0.005

System: 1,1,2,2-tetrachloroethane + (1,1-dimethylethyl)benzene; phases: Liquid
Fixed: Temperature, K = 298.15
Fixed: Pressure, kPa = 101
Property: Excess molar enthalpy (molar enthalpy of mixing), kJ/mol (Liquid); method: Flow calorimetry
Mole fraction of 1,1,2,2-tetrachloroethane	Excess molar enthalpy (molar enthalpy of mixing), kJ/mol	uncertainty
0.0893	-0.232	0.01
0.1092	-0.276	0.011
0.1969	-0.458	0.019
0.2689	-0.564	0.023
0.3555	-0.6484	0.0265
0.4238	-0.696	0.028
0.4951	-0.694	0.028
0.5953	-0.631	0.026
0.6881	-0.549	0.022
0.7463	-0.476	0.0195
0.7969	-0.34	0.014
0.8153	-0.334	0.014
0.8547	-0.277	0.011
0.9217	-0.126	0.005

System: 1,1,2,2-tetrachloroethane + heptane; phases: Liquid
Fixed: Temperature, K = 298.15
Fixed: Pressure, kPa = 101
Property: Excess molar enthalpy (molar enthalpy of mixing), kJ/mol (Liquid); method: Flow calorimetry
Mole fraction of 1,1,2,2-tetrachloroethane	Excess molar enthalpy (molar enthalpy of mixing), kJ/mol	uncertainty
0.104	0.521	0.021
0.2071	0.876	0.036
0.2583	1.036	0.042
0.3171	1.176	0.048
0.3579	1.28	0.052
0.4106	1.313	0.053
0.4816	1.332	0.054
0.511	1.358	0.055
0.5822	1.311	0.053
0.6501	1.237	0.05
0.7359	1.082	0.044
0.8069	0.892	0.036
0.8814	0.603	0.025
0.933	0.358	0.015

System: 1,1,2,2-tetrachloroethane + cyclohexane; phases: Liquid
Fixed: Temperature, K = 298.15
Fixed: Pressure, kPa = 101
Property: Excess molar enthalpy (molar enthalpy of mixing), kJ/mol (Liquid); method: Flow calorimetry
Mole fraction of 1,1,2,2-tetrachloroethane	Excess molar enthalpy (molar enthalpy of mixing), kJ/mol	uncertainty
0.0932	0.458	0.019
0.1336	0.589	0.024
0.2044	0.81	0.033
0.2782	0.982	0.04
0.3394	1.107	0.045
0.4353	1.147	0.047
0.5068	1.154	0.047
0.6727	1.001	0.041
0.8726	0.452	0.019
