Measured thermophysical data. Efficient separation of curcumin using tetra butyl phosphonium bromide / carbohydrates (sorbitol, fructose) aqueous two-phase system
Source: Fluid Phase Equilib., 2019, 10.1016/j.fluid.2019.06.015
Compound 1: water, H2O, InChI=1S/H2O/h1H2, purity 99.9%
Compound 2: tetrabutylphosphonium bromide, C16H36BrP, InChI=1S/C16H36P.BrH/c1-5-9-13-17(14-10-6-2,15-11-7-3)16-12-8-4;/h5-16H2,1-4H3;1H/q+1;/p-1, purity 98%
Compound 3: D-sorbitol, C6H14O6, InChI=1S/C6H14O6/c7-1-3(9)5(11)6(12)4(10)2-8/h3-12H,1-2H2/t3-,4+,5-,6-/m1/s1, purity 99%
Compound 4: D-fructose, C6H12O6, InChI=1S/C6H12O6/c7-1-3(9)5(11)6(12)4(10)2-8/h3,5-9,11-12H,1-2H2/t3-,5-,6-/m1/s1, purity 99%

System: D-sorbitol + tetrabutylphosphonium bromide + water; phases: Liquid mixture 1, Liquid mixture 2
Fixed: Pressure, kPa = 101
Fixed: Temperature, K = 298
Property: Mass fraction of D-sorbitol (Liquid mixture 1); method: Cloud Point Method
Mass fraction of tetrabutylphosphonium bromide	Mass fraction of D-sorbitol	uncertainty
0.3737	0.2249	0.0052
0.341	0.2524	0.0059
0.2939	0.293	0.0068
0.2833	0.3028	0.007
0.2673	0.3162	0.0073
0.2556	0.3256	0.0076
0.231	0.3499	0.0081
0.2214	0.3575	0.0083
0.2054	0.3739	0.0087
0.1841	0.397	0.0092
0.1705	0.4131	0.0096
0.1551	0.4305	0.01
0.1402	0.4486	0.0104

System: D-sorbitol + tetrabutylphosphonium bromide + water; phases: Liquid mixture 2, Liquid mixture 1
Fixed: Temperature, K = 298
Fixed: Pressure, kPa = 101
Property: Mass fraction of tetrabutylphosphonium bromide (Liquid mixture 2); method: Index of refraction calibration data
Property: Mass fraction of D-sorbitol (Liquid mixture 1); method: Index of refraction calibration data
Property: Mass fraction of tetrabutylphosphonium bromide (Liquid mixture 1); method: Index of refraction calibration data
Mass fraction of D-sorbitol	Mass fraction of tetrabutylphosphonium bromide	uncertainty	Mass fraction of D-sorbitol	uncertainty	Mass fraction of tetrabutylphosphonium bromide	uncertainty
0.483	0.119	0.003	0.101	0.002	0.667	
0.633	0.067	0.002	0.061	0.002	0.792	
0.661	0.062	0.002	0.064	0.002	0.806	
0.523	0.101	0.002	0.102	0.002	0.673	
0.599	0.066	0.003	0.073	0.002	0.757	
0.582	0.078	0.002	0.079	0.002	0.728	
0.607	0.074	0.002	0.07	0.002	0.768	
0.592	0.079	0.002	0.074	0.002	0.763	
0.638	0.063	0.002	0.064	0.002	0.79	
0.598	0.071	0.003	0.075	0.002	0.753	

System: D-fructose + tetrabutylphosphonium bromide + water; phases: Liquid mixture 1, Liquid mixture 2
Fixed: Pressure, kPa = 101
Fixed: Temperature, K = 298
Property: Mass fraction of D-fructose (Liquid mixture 1); method: Cloud Point Method
Mass fraction of tetrabutylphosphonium bromide	Mass fraction of D-fructose	uncertainty
0.6473	0.1422	0.0033
0.6267	0.1496	0.0035
0.5952	0.1625	0.0038
0.5699	0.1674	0.0039
0.5585	0.1738	0.004
0.5451	0.1776	0.0041
0.5333	0.1822	0.0042
0.5189	0.1902	0.0044
0.5047	0.1953	0.0045
0.4947	0.1993	0.0046
0.4849	0.2033	0.0047
0.4728	0.2147	0.005
0.4531	0.2228	0.0052
0.4356	0.2305	0.0054
0.4214	0.2385	0.0055
0.4099	0.245	0.0057
0.3998	0.2513	0.0058
0.3905	0.2565	0.006

System: D-fructose + tetrabutylphosphonium bromide + water; phases: Liquid mixture 2, Liquid mixture 1
Fixed: Temperature, K = 298
Fixed: Pressure, kPa = 101
Property: Mass fraction of tetrabutylphosphonium bromide (Liquid mixture 2); method: Index of refraction calibration data
Property: Mass fraction of D-fructose (Liquid mixture 1); method: Index of refraction calibration data
Property: Mass fraction of tetrabutylphosphonium bromide (Liquid mixture 1); method: Index of refraction calibration data
Mass fraction of D-fructose	Mass fraction of tetrabutylphosphonium bromide	uncertainty	Mass fraction of D-fructose	uncertainty	Mass fraction of tetrabutylphosphonium bromide	uncertainty
0.505	0.135	0.003	0.154	0.004	0.618	
0.64	0.068	0.002	0.085	0.002	0.829	
0.662	0.058	0.002	0.08	0.002	0.848	
0.623	0.082	0.002	0.097	0.002	0.765	
0.645	0.071	0.002	0.091	0.002	0.79	
0.653	0.067	0.002	0.086	0.002	0.811	
0.678	0.063	0.002	0.08	0.002	0.833	
0.558	0.103	0.003	0.124	0.004	0.694	
0.595	0.087	0.002	0.111	0.003	0.744	
0.627	0.074	0.002	0.092	0.002	0.805	
0.562	0.106	0.003	0.13	0.004	0.692	
0.59	0.089	0.002	0.108	0.003	0.739	
0.617	0.079	0.003	0.105	0.003	0.751	
0.657	0.064	0.002	0.091	0.002	0.815	
0.604	0.079	0.002	0.105	0.003	0.754	
0.62	0.074	0.002	0.091	0.002	0.797	
