Measured thermophysical data. High-pressure phase equilibrium for ethylene + 1-butanol at 283.65 K and 290.80 K
Source: Fluid Phase Equilib., 2007, 10.1016/j.fluid.2007.07.017
Compound 1: ethene, C2H4, InChI=1S/C2H4/c1-2/h1-2H2, purity 99.9%
Compound 2: butan-1-ol, C4H10O, InChI=1S/C4H10O/c1-2-3-4-5/h5H,2-4H2,1H3, purity 99.9%

System: butan-1-ol + ethene; phases: Gas, Liquid mixture 2, Liquid mixture 1
Property: Vapor or sublimation pressure, kPa (Gas); method: Ebulliometric method (Recirculating still)
Temperature, K	Vapor or sublimation pressure, kPa	uncertainty
283.65	5039	20

System: butan-1-ol + ethene; phases: Liquid, Gas
Fixed: Temperature, K = 283.65
Property: Vapor or sublimation pressure, kPa (Liquid); method: Closed cell (Static) method
Mole fraction of ethene	Vapor or sublimation pressure, kPa	uncertainty
0.842	5968	25
0.881	5923	24

System: butan-1-ol + ethene; phases: Liquid, Gas
Fixed: Temperature, K = 283.65
Property: Mass density, kg/m3 (Liquid); method: Derived from cell volume vs pressure
Mole fraction of ethene	Mass density, kg/m3	uncertainty
0.842	489	0.2
0.881	446.5	0.1

System: butan-1-ol + ethene; phases: Liquid mixture 1, Liquid mixture 2, Gas
Property: Mass density, kg/m3 (Liquid mixture 1); method: Vibrating tube method
Mole fraction of ethene	Mass density, kg/m3	uncertainty
0.691	579.7	1.2

System: butan-1-ol + ethene; phases: Liquid mixture 2, Liquid mixture 1, Gas
Property: Mass density, kg/m3 (Liquid mixture 2); method: Vibrating tube method
Mole fraction of ethene	Mass density, kg/m3	uncertainty
0.973	347	0.8

System: butan-1-ol + ethene; phases: Gas, Liquid mixture 1, Liquid mixture 2
Property: Mass density, kg/m3 (Gas); method: Vibrating tube method
Mole fraction of ethene	Mass density, kg/m3	uncertainty
0.999	148.7	0.3

System: butan-1-ol + ethene; phases: Liquid mixture 1, Liquid mixture 2, Gas
Property: Mole fraction of ethene (Liquid mixture 1); method: Chromatography
Temperature, K	Mole fraction of ethene	uncertainty
283.65	0.691	0.003

System: butan-1-ol + ethene; phases: Liquid mixture 2, Liquid mixture 1, Gas
Property: Mole fraction of ethene (Liquid mixture 2); method: Chromatography
Temperature, K	Mole fraction of ethene	uncertainty
283.65	0.973	0.002

System: butan-1-ol + ethene; phases: Gas, Liquid mixture 1, Liquid mixture 2
Property: Mole fraction of ethene (Gas); method: Chromatography
Temperature, K	Mole fraction of ethene	uncertainty
283.65	0.999	0.001

System: butan-1-ol + ethene; phases: Liquid, Gas
Property: Vapor or sublimation pressure, kPa (Liquid); method: EBULLIO:UFactor:8
Mole fraction of ethene	Temperature, K	Vapor or sublimation pressure, kPa	uncertainty
0.17	283.65	1585	53
0.206	290.8	2104	69
0.224	283.65	2117	68
0.265	290.8	2760	88
0.322	283.65	2912	92
0.339	290.8	3471	109
0.401	283.65	3573	112
0.43	290.8	4195	131
0.47	283.65	4060	127
0.528	290.8	5118	160
0.545	283.65	4588	143
0.622	290.8	5678	177
0.655	290.8	5962	186
0.691	290.8	6278	196
0.745	290.8	6771	211
0.98	283.65	5048	157
0.99	283.65	5069	158
0.994	283.65	5079	158

System: butan-1-ol + ethene; phases: Liquid, Gas
Property: Mass density, kg/m3 (Liquid); method: Vibrating tube method
Temperature, K	Mole fraction of ethene	Mass density, kg/m3	uncertainty
283.65	0.17	781.4	0.6
283.65	0.224	767.7	0.5
283.65	0.322	743.7	0.6
283.65	0.401	718.9	0.7
283.65	0.47	695.8	0.8
283.65	0.545	660.9	1
283.65	0.98	323.2	1.2
283.65	0.99	296.6	1.2
283.65	0.994	287	1.2
290.8	0.206	768.3	0.6
290.8	0.265	752.1	0.6
290.8	0.339	732	0.6
290.8	0.43	707.5	0.8
290.8	0.528	664.6	0.9
290.8	0.622	624.4	1
290.8	0.655	601.6	1.2
290.8	0.691	585	1.8
290.8	0.745	527.5	2.4

System: butan-1-ol + ethene; phases: Gas, Liquid
Property: Mass density, kg/m3 (Gas); method: Vibrating tube method
Temperature, K	Mole fraction of ethene	Mass density, kg/m3	uncertainty
283.65	0.987	104.6	18.4
283.65	0.995	31	14.3
283.65	0.999	22.6	2.1
283.65	0.999	46.8	4
283.65	0.999	62.5	7.9
283.65	0.999	78	11.8
283.65	0.999	152.2	30.3
283.65	0.999	159.6	32.2
283.65	0.999	164.9	33.5
290.8	0.932	383.1	3
290.8	0.967	332.3	3.9
290.8	0.985	276.6	17.2
290.8	0.994	74.7	38.6
290.8	0.995	41.4	37.6
290.8	0.996	167.6	31.2
290.8	0.997	55.9	12.5
290.8	0.999	29.1	46.2
290.8	0.994	113.4	36.7

System: butan-1-ol + ethene; phases: Gas, Liquid
Property: Mole fraction of ethene (Gas); method: Chromatography
Mole fraction of ethene	Temperature, K	Mole fraction of ethene	uncertainty
0.17	283.65	0.999	0.001
0.206	290.8	0.999	0.001
0.224	283.65	0.995	0.005
0.265	290.8	0.995	0.005
0.322	283.65	0.999	0.001
0.339	290.8	0.997	0.003
0.401	283.65	0.999	0.001
0.43	290.8	0.994	0.006
0.47	283.65	0.999	0.001
0.528	290.8	0.994	0.006
0.545	283.65	0.987	0.01
0.622	290.8	0.996	0.004
0.655	290.8	0.985	0.01
0.691	290.8	0.967	0.01
0.745	290.8	0.932	0.01
0.98	283.65	0.999	0.001
0.99	283.65	0.999	0.001
0.994	283.65	0.999	0.001

System: butan-1-ol + ethene; phases: Liquid mixture 1, Liquid mixture 2
Fixed: Temperature, K = 283.65
Property: Mole fraction of ethene (Liquid mixture 1); method: Chromatography
Pressure, kPa	Mole fraction of ethene	uncertainty
5379	0.72	0.003
5750	0.796	0.003

System: butan-1-ol + ethene; phases: Liquid mixture 2, Liquid mixture 1
Fixed: Temperature, K = 283.65
Property: Mole fraction of ethene (Liquid mixture 2); method: Chromatography
Pressure, kPa	Mole fraction of ethene	uncertainty
5379	0.937	0.002
5750	0.906	0.002
