Measured thermophysical data. Enthalpy and solubility data of CO2 in water and NaCl(aq) at conditions of interest for geological sequestration
Source: Fluid Phase Equilib., 2006, 10.1016/j.fluid.2006.06.006
Compound 1: carbon dioxide, CO2, InChI=1S/CO2/c2-1-3
Compound 2: sodium chloride, ClNa, InChI=1S/ClH.Na/h1H;/q;+1/p-1
Compound 3: water, H2O, InChI=1S/H2O/h1H2

System: carbon dioxide + water; phases: Liquid, Gas
Property: Mole fraction of carbon dioxide (Liquid); method: derived from enthalpy of mixing data
Temperature, K	Pressure, kPa	Mole fraction of carbon dioxide	uncertainty
323.1	2060	0.0064	0.0006
323.1	5100	0.0142	0.002
323.1	10530	0.02	0.0022
323.1	14200	0.0214	0.0026
323.1	20200	0.0227	0.0024
373.1	5050	0.0079	0.0004
373.1	10080	0.0136	0.0016
373.1	19470	0.0201	0.0024

System: carbon dioxide + water; phases: Liquid
Property: Excess molar enthalpy (molar enthalpy of mixing), kJ/mol (Liquid); method: OTHER:UFactor:2:sMethod:flow mixing unit adapted to a Setaram BT 2.15D heat conduction differential calorimeter
Temperature, K	Pressure, kPa	Mole fraction of carbon dioxide	Excess molar enthalpy (molar enthalpy of mixing), kJ/mol	uncertainty
323.1	2060	0.0032	-0.0474	0.003
323.1	2060	0.0037	-0.0547	0.0031
323.1	2060	0.004	-0.0579	0.0032
323.1	2060	0.0042	-0.0638	0.0033
323.1	2060	0.0048	-0.0701	0.0034
323.1	2060	0.0058	-0.0833	0.0037
323.1	2060	0.006	-0.092	0.0039
323.1	2060	0.0064	-0.0903	0.0038
323.1	2060	0.0079	-0.093	0.0039
323.1	2060	0.0106	-0.0954	0.0039
323.1	2060	0.0126	-0.0939	0.0039
323.1	2060	0.0158	-0.0955	0.0039
323.1	2060	0.021	-0.0932	0.0039
323.1	2060	0.0311	-0.094	0.0039
323.1	5100	0.0052	-0.0676	0.0034
323.1	5100	0.0064	-0.0835	0.0037
323.1	5100	0.0084	-0.1091	0.0042
323.1	5100	0.0092	-0.1214	0.0045
323.1	5100	0.0101	-0.1353	0.0047
323.1	5100	0.0105	-0.1385	0.0048
323.1	5100	0.011	-0.1439	0.0049
323.1	5100	0.012	-0.1561	0.0051
323.1	5100	0.0125	-0.1649	0.0053
323.1	5100	0.0136	-0.1722	0.0055
323.1	5100	0.0138	-0.1746	0.0055
323.1	5100	0.0147	-0.1793	0.0056
323.1	5100	0.0151	-0.1846	0.0057
323.1	5100	0.0155	-0.1833	0.0057
323.1	5100	0.0156	-0.1876	0.0058
323.1	5100	0.0172	-0.1833	0.0057
323.1	5100	0.0181	-0.1846	0.0057
323.1	5100	0.019	-0.1899	0.0058
323.1	5100	0.0201	-0.1832	0.0057
323.1	5100	0.0208	-0.1896	0.0058
323.1	5100	0.0254	-0.1852	0.0057
323.1	10530	0.01	-0.0743	0.0035
323.1	10530	0.012	-0.0869	0.0038
323.1	10530	0.0132	-0.1016	0.0041
323.1	10530	0.0165	-0.1259	0.0045
323.1	10530	0.0197	-0.1343	0.0047
323.1	10530	0.023	-0.1456	0.0049
323.1	10530	0.0249	-0.1453	0.0049
323.1	10530	0.026	-0.1549	0.0051
323.1	10530	0.0323	-0.1539	0.0051
323.1	10530	0.0324	-0.1538	0.0051
323.1	10530	0.0446	-0.151	0.005
323.1	10530	0.0508	-0.15	0.005
323.1	10530	0.0625	-0.1481	0.005
323.1	10530	0.0627	-0.149	0.005
323.1	14200	0.0105	-0.0594	0.0032
323.1	14200	0.0125	-0.0701	0.0034
323.1	14200	0.0139	-0.0789	0.0036
323.1	14200	0.0173	-0.0943	0.0039
323.1	14200	0.0207	-0.1048	0.0041
323.1	14200	0.0241	-0.1122	0.0043
323.1	14200	0.0248	-0.1131	0.0043
323.1	14200	0.0261	-0.1159	0.0043
323.1	14200	0.0274	-0.1167	0.0044
323.1	14200	0.0287	-0.1204	0.0044
323.1	14200	0.0307	-0.1212	0.0045
323.1	14200	0.034	-0.1188	0.0044
323.1	14200	0.047	-0.1182	0.0044
323.1	14200	0.0658	-0.1168	0.0044
323.1	20200	0.011	-0.0534	0.0031
323.1	20200	0.0147	-0.07	0.0034
323.1	20200	0.0183	-0.0864	0.0038
323.1	20200	0.0197	-0.0902	0.0038
323.1	20200	0.021	-0.0989	0.004
323.1	20200	0.0239	-0.0986	0.004
323.1	20200	0.0253	-0.0994	0.004
323.1	20200	0.0274	-0.1031	0.0041
323.1	20200	0.0288	-0.1039	0.0041
323.1	20200	0.0359	-0.1041	0.0041
323.1	20200	0.0427	-0.1053	0.0041
323.1	20200	0.0461	-0.104	0.0041
323.1	20200	0.0494	-0.1052	0.0041
323.1	20200	0.0692	-0.1033	0.0041
323.1	2060	0.0079	-0.0925	0.0039
373.1	5050	0.002	-0.0129	0.0023
373.1	5050	0.0025	-0.0175	0.0024
373.1	5050	0.003	-0.0199	0.0025
373.1	5050	0.004	-0.0257	0.0026
373.1	5050	0.0045	-0.0287	0.0026
373.1	5050	0.005	-0.0321	0.0027
373.1	5050	0.006	-0.0377	0.0028
373.1	5050	0.007	-0.0419	0.0029
373.1	5050	0.0075	-0.0456	0.003
373.1	5050	0.008	-0.0467	0.003
373.1	5050	0.009	-0.047	0.003
373.1	5050	0.01	-0.0461	0.003
373.1	5050	0.011	-0.0471	0.003
373.1	5050	0.0125	-0.0456	0.003
373.1	5050	0.014	-0.0459	0.003
373.1	5050	0.0149	-0.0431	0.0029
373.1	5050	0.0154	-0.0445	0.0029
373.1	5050	0.0174	-0.0417	0.0029
373.1	5050	0.0179	-0.0406	0.0029
373.1	5050	0.0198	-0.0393	0.0028
373.1	10080	0.0068	-0.0335	0.0027
373.1	10080	0.0081	-0.0368	0.0028
373.1	10080	0.0094	-0.0436	0.0029
373.1	10080	0.0101	-0.0478	0.003
373.1	10080	0.0108	-0.0512	0.0031
373.1	10080	0.0134	-0.0613	0.0033
373.1	10080	0.0135	-0.0606	0.0033
373.1	10080	0.02	-0.0631	0.0033
373.1	10080	0.0201	-0.0621	0.0033
373.1	10080	0.0228	-0.0594	0.0032
373.1	10080	0.0263	-0.0588	0.0032
373.1	10080	0.0265	-0.0605	0.0032
373.1	10080	0.0294	-0.056	0.0032
373.1	10080	0.039	-0.056	0.0032
373.1	10080	0.0516	-0.0512	0.0031
373.1	19500	0.0037	-0.0067	0.0022
373.1	19500	0.0044	-0.0076	0.0022
373.1	19500	0.0051	-0.0083	0.0022
373.1	19500	0.0059	-0.0094	0.0022
373.1	19500	0.0066	-0.0105	0.0023
373.1	19500	0.0081	-0.0123	0.0023
373.1	19500	0.0087	-0.014	0.0023
373.1	19500	0.0088	-0.0137	0.0023
373.1	19500	0.0095	-0.0141	0.0023
373.1	19500	0.011	-0.0172	0.0024
373.1	19500	0.0123	-0.019	0.0024
373.1	19500	0.0145	-0.0194	0.0024
373.1	19500	0.0146	-0.0206	0.0025
373.1	19500	0.0159	-0.0211	0.0025
373.1	19500	0.0167	-0.0206	0.0025
373.1	19500	0.0181	-0.0232	0.0025
373.1	19500	0.0182	-0.0224	0.0025
373.1	19500	0.0195	-0.0236	0.0025
373.1	19500	0.0217	-0.0226	0.0025
373.1	19500	0.0218	-0.0226	0.0025
373.1	19500	0.0251	-0.0222	0.0025
373.1	19500	0.0253	-0.0225	0.0025
373.1	19500	0.0265	-0.022	0.0025
373.1	19500	0.03	-0.0204	0.0025
373.1	19500	0.0521	-0.0108	0.0023
373.1	19500	0.0603	-0.0078	0.0022
373.1	19500	0.0688	-0.0036	0.0021
373.1	19500	0.0691	-0.0054	0.0022
373.1	19500	0.0771	-0.002	0.0021
373.1	5050	0.01	-0.0474	0.003

System: carbon dioxide + sodium chloride + water; phases: Liquid
Fixed: Temperature, K = 373.1
Property: Excess molar enthalpy (molar enthalpy of mixing), kJ/mol (Liquid); method: mixing flow unit adapted to a Setaram BT 2.15D heat conduction differential calorimeter
Solvent: Molality, mol/kg of sodium chloride	Pressure, kPa	Mole fraction of carbon dioxide	Excess molar enthalpy (molar enthalpy of mixing), kJ/mol	uncertainty
1	5070	0.0021	-0.0137	0.0012
1	5070	0.0025	-0.0187	0.0013
1	5070	0.0032	-0.0204	0.0013
1	5070	0.0036	-0.0259	0.0014
1	5070	0.0042	-0.0277	0.0014
1	5070	0.0047	-0.0328	0.0014
1	5070	0.0054	-0.0366	0.0015
1	5070	0.0057	-0.0376	0.0015
1	5070	0.0059	-0.0366	0.0015
1	5070	0.0063	-0.0398	0.0015
1	5070	0.0075	-0.039	0.0015
1	5070	0.0083	-0.0396	0.0015
1	5070	0.0093	-0.0373	0.0015
1	5070	0.0103	-0.0372	0.0015
1	5070	0.0111	-0.0378	0.0015
1	5070	0.0123	-0.0357	0.0014
1	5070	0.0133	-0.0343	0.0014
1	5070	0.0143	-0.0338	0.0014
1	5070	0.0153	-0.0323	0.0014
1	10400	0.0032	-0.0175	0.0013
1	10400	0.0048	-0.022	0.0013
1	10400	0.0051	-0.0253	0.0014
1	10400	0.0064	-0.0307	0.0014
1	10400	0.0076	-0.0335	0.0014
1	10400	0.0094	-0.043	0.0015
1	10400	0.0096	-0.0425	0.0015
1	10400	0.0128	-0.05	0.0016
1	10400	0.0156	-0.0499	0.0016
1	10400	0.0159	-0.0486	0.0016
1	10400	0.016	-0.0499	0.0016
1	10400	0.019	-0.0473	0.0016
1	10400	0.0221	-0.0471	0.0016
1	10400	0.025	-0.0453	0.0015
1	10400	0.0253	-0.0467	0.0016
1	10400	0.028	-0.0439	0.0015
1	10400	0.0308	-0.0437	0.0015
1	10400	0.0311	-0.0437	0.0015
1	10400	0.0314	-0.0436	0.0015
1	10400	0.0341	-0.043	0.0015
1	10400	0.0371	-0.0415	0.0015
1	10400	0.0428	-0.038	0.0015
1	10400	0.0429	-0.0389	0.0015
1	10400	0.0487	-0.0375	0.0015
1	10400	0.0546	-0.0343	0.0014
1	19400	0.0036	-0.0055	0.0012
1	19400	0.005	-0.0078	0.0012
1	19400	0.0072	-0.0113	0.0012
1	19400	0.0086	-0.0131	0.0012
1	19400	0.0128	-0.0177	0.0013
1	19400	0.0178	-0.0204	0.0013
1	19400	0.0247	-0.0177	0.0013
1	19400	0.0315	-0.0148	0.0013
1	19400	0.0415	-0.0116	0.0012
1	10400	0.0064	-0.0304	0.0014
1	10400	0.0371	-0.0412	0.0015
3	5040	0.0018	-0.0126	0.0012
3	5040	0.0022	-0.0137	0.0012
3	5040	0.0025	-0.0149	0.0013
3	5040	0.0027	-0.0185	0.0013
3	5040	0.003	-0.02	0.0013
3	5040	0.0032	-0.0212	0.0013
3	5040	0.0034	-0.0238	0.0013
3	5040	0.0035	-0.0236	0.0013
3	5040	0.0037	-0.0253	0.0014
3	5040	0.0045	-0.0295	0.0014
3	5040	0.0049	-0.0294	0.0014
3	5040	0.0061	-0.0275	0.0014
3	5040	0.0069	-0.0265	0.0014
3	5040	0.0079	-0.026	0.0014
3	5040	0.0089	-0.0251	0.0013
3	5040	0.0099	-0.0248	0.0013
3	5040	0.0109	-0.0242	0.0013
3	5040	0.0119	-0.0234	0.0013
3	5040	0.0128	-0.0234	0.0013
3	5040	0.0138	-0.0208	0.0013
3	10030	0.0032	-0.0141	0.0012
3	10030	0.0038	-0.0175	0.0013
3	10030	0.0042	-0.0184	0.0013
3	10030	0.0044	-0.0207	0.0013
3	10030	0.0051	-0.0247	0.0013
3	10030	0.0063	-0.0307	0.0014
3	10030	0.0069	-0.031	0.0014
3	10030	0.0075	-0.0321	0.0014
3	10030	0.0089	-0.0365	0.0015
3	10030	0.0094	-0.0346	0.0014
3	10030	0.0095	-0.035	0.0014
3	10030	0.0099	-0.0344	0.0014
3	10030	0.0107	-0.0354	0.0014
3	10030	0.0112	-0.0366	0.0015
3	10030	0.0124	-0.0354	0.0014
3	10030	0.0126	-0.034	0.0014
3	10030	0.0133	-0.0353	0.0014
3	10030	0.0145	-0.0348	0.0014
3	10030	0.0157	-0.0354	0.0014
3	10030	0.0158	-0.0327	0.0014
3	10030	0.0186	-0.0332	0.0014
3	10030	0.0217	-0.0321	0.0014
3	10030	0.0219	-0.0296	0.0014
3	10030	0.0245	-0.0313	0.0014
3	10030	0.0251	-0.0287	0.0014
3	10030	0.0307	-0.0261	0.0014
3	10030	0.0312	-0.0278	0.0014
3	19020	0.0035	-0.006	0.0012
3	19020	0.0049	-0.0078	0.0012
3	19020	0.007	-0.0118	0.0012
3	19020	0.0083	-0.0129	0.0012
3	19020	0.0104	-0.0145	0.0013
3	19020	0.0118	-0.0148	0.0013
3	19020	0.0139	-0.0138	0.0012
3	19020	0.0153	-0.0138	0.0012
3	19020	0.0173	-0.0134	0.0012
3	19020	0.0187	-0.0128	0.0012
3	10030	0.0251	-0.0289	0.0014

System: carbon dioxide + sodium chloride + water; phases: Liquid
Fixed: Temperature, K = 323.1
Property: Excess molar enthalpy (molar enthalpy of mixing), kJ/mol (Liquid); method: OTHER:UFactor:2:sMethod:mixing flow unit adapted to a Setaram BT 2.15D heat conduction differential calorimeter
Solvent: Molality, mol/kg of sodium chloride	Pressure, kPa	Mole fraction of carbon dioxide	Excess molar enthalpy (molar enthalpy of mixing), kJ/mol	uncertainty
1	5100	0.0039	-0.0528	0.0031
1	5100	0.005	-0.0677	0.0034
1	5100	0.0062	-0.0825	0.0037
1	5100	0.0089	-0.1169	0.0044
1	5100	0.0112	-0.1394	0.0048
1	5100	0.0219	-0.1443	0.0049
1	5100	0.022	-0.1457	0.0049
1	5100	0.0255	-0.1462	0.0049
1	5100	0.0428	-0.1426	0.0049
1	5100	0.0529	-0.1392	0.0048
1	5100	0.0839	-0.1365	0.0048
1	10300	0.008	-0.0655	0.0033
1	10300	0.01	-0.0792	0.0036
1	10300	0.0107	-0.0861	0.0038
1	10300	0.0113	-0.0929	0.0039
1	10300	0.0132	-0.1046	0.0041
1	10300	0.0146	-0.1123	0.0043
1	10300	0.0165	-0.119	0.0044
1	10300	0.0197	-0.1225	0.0045
1	10300	0.023	-0.126	0.0045
1	10300	0.0324	-0.1297	0.0046
1	10300	0.0388	-0.1259	0.0045
1	10300	0.0448	-0.129	0.0046
1	10300	0.045	-0.128	0.0046
1	10300	0.051	-0.1281	0.0046
1	10300	0.0705	-0.1236	0.0045
1	10300	0.0747	-0.1212	0.0045
1	10300	0.0803	-0.1205	0.0044
1	14380	0.0071	-0.0387	0.0028
1	14380	0.0078	-0.0417	0.0029
1	14380	0.0085	-0.0456	0.003
1	14380	0.0107	-0.0544	0.0031
1	14380	0.0121	-0.0603	0.0032
1	14380	0.0142	-0.07	0.0034
1	14380	0.0156	-0.0728	0.0035
1	14380	0.0176	-0.0815	0.0037
1	14380	0.0177	-0.0796	0.0036
1	14380	0.0189	-0.0834	0.0037
1	14380	0.0193	-0.0853	0.0037
1	14380	0.0204	-0.0862	0.0038
1	14380	0.021	-0.0852	0.0037
1	14380	0.0211	-0.0842	0.0037
1	14380	0.0231	-0.0889	0.0038
1	14380	0.0252	-0.0897	0.0038
1	14380	0.0278	-0.0894	0.0038
1	14380	0.028	-0.0875	0.0038
1	14380	0.0312	-0.0911	0.0039
1	14380	0.0414	-0.0891	0.0038
1	14380	0.0477	-0.0886	0.0038
1	14380	0.0542	-0.087	0.0038
1	14380	0.0545	-0.0879	0.0038
1	14380	0.0637	-0.0861	0.0038
1	20240	0.006	-0.0278	0.0026
1	20240	0.0068	-0.0298	0.0026
1	20240	0.0074	-0.0347	0.0027
1	20240	0.0112	-0.0485	0.003
1	20240	0.0149	-0.065	0.0033
1	20240	0.0185	-0.0697	0.0034
1	20240	0.0199	-0.0706	0.0034
1	20240	0.0221	-0.0733	0.0035
1	20240	0.0243	-0.0761	0.0036
1	20240	0.0257	-0.077	0.0036
1	20240	0.0292	-0.0796	0.0036
1	20240	0.0432	-0.0785	0.0036
1	20240	0.0569	-0.0783	0.0036
1	20240	0.0701	-0.0772	0.0036
1	20240	0.0221	-0.0743	0.0035
3	5000	0.0032	-0.0379	0.0028
3	5000	0.0039	-0.0398	0.0028
3	5000	0.0045	-0.0498	0.003
3	5000	0.0053	-0.0627	0.0033
3	5000	0.0056	-0.0656	0.0033
3	5000	0.0064	-0.0715	0.0035
3	5000	0.0074	-0.0834	0.0037
3	5000	0.0078	-0.0883	0.0038
3	5000	0.0084	-0.0902	0.0038
3	5000	0.0086	-0.0952	0.0039
3	5000	0.0089	-0.0922	0.0039
3	5000	0.0095	-0.0965	0.004
3	5000	0.01	-0.098	0.004
3	5000	0.0111	-0.0939	0.0039
3	5000	0.013	-0.0961	0.004
3	5000	0.0148	-0.0946	0.0039
3	5000	0.0155	-0.0952	0.0039
3	5000	0.0165	-0.0965	0.004
3	10040	0.0048	-0.0348	0.0027
3	10040	0.0055	-0.0408	0.0029
3	10040	0.0062	-0.0437	0.0029
3	10040	0.0069	-0.0507	0.0031
3	10040	0.0082	-0.0565	0.0032
3	10040	0.0089	-0.0605	0.0032
3	10040	0.0095	-0.0664	0.0034
3	10040	0.0102	-0.0673	0.0034
3	10040	0.0109	-0.0722	0.0035
3	10040	0.0122	-0.0751	0.0035
3	10040	0.0136	-0.0779	0.0036
3	10040	0.015	-0.0798	0.0036
3	10040	0.0169	-0.0796	0.0036
3	10040	0.0203	-0.0833	0.0037
3	10040	0.0235	-0.083	0.0037
3	10040	0.0269	-0.0827	0.0037
3	14410	0.0037	-0.0159	0.0024
3	14410	0.0045	-0.0189	0.0024
3	14410	0.0052	-0.0229	0.0025
3	14410	0.006	-0.0258	0.0026
3	14410	0.0067	-0.0288	0.0026
3	14410	0.0074	-0.0298	0.0026
3	14410	0.0111	-0.0405	0.0029
3	14410	0.0147	-0.0473	0.003
3	14410	0.0169	-0.0511	0.0031
3	14410	0.0183	-0.0511	0.0031
3	14410	0.0211	-0.0538	0.0031
3	14410	0.0218	-0.0518	0.0031
3	14410	0.0232	-0.0547	0.0031
3	14410	0.0289	-0.0524	0.0031
3	14410	0.029	-0.0524	0.0031
3	14410	0.036	-0.053	0.0031
3	14410	0.0378	-0.052	0.0031
3	20240	0.0039	-0.0139	0.0023
3	20240	0.0055	-0.0189	0.0024
3	20240	0.0063	-0.0219	0.0025
3	20240	0.0078	-0.0248	0.0025
3	20240	0.0117	-0.0346	0.0027
3	20240	0.0155	-0.0404	0.0029
3	20240	0.0192	-0.0432	0.0029
3	20240	0.0231	-0.0459	0.003
3	20240	0.0268	-0.0457	0.003
3	20240	0.0304	-0.0456	0.003
3	20240	0.0338	-0.0464	0.003
3	20240	0.0378	-0.0462	0.003
3	14410	0.029	-0.0524	0.0031
3	20240	0.0231	-0.0459	0.003

System: carbon dioxide + sodium chloride + water; phases: Liquid, Gas
Property: Mole fraction of carbon dioxide (Liquid); method: derived from enthalpy of mixing data
Solvent: Molality, mol/kg of sodium chloride	Temperature, K	Pressure, kPa	Mole fraction of carbon dioxide	uncertainty
1	323.1	5100	0.0111	0.0014
1	323.1	10030	0.0164	0.0016
1	323.1	14380	0.0177	0.002
1	323.1	20240	0.0181	0.0018
1	373.1	5070	0.006	0.0008
1	373.1	10400	0.0112	0.0014
1	373.1	19140	0.0161	0.0026
3	323.1	5000	0.0083	0.0014
3	323.1	10040	0.0114	0.0014
3	323.1	14410	0.0124	0.0016
3	323.1	20240	0.0137	0.0018
3	373.1	5040	0.0043	0.0006
3	373.1	10290	0.008	0.001
3	373.1	19020	0.0112	0.0014
