Measured thermophysical data. Vapour pressure measurements of ammonia/ionic liquids mixtures as suitable alternative working fluids for absorption refrigeration technology
Source: Fluid Phase Equilib., 2018, 10.1016/j.fluid.2018.01.006
Compound 1: ammonia, H3N, InChI=1S/H3N/h1H3, purity 99.98%
Compound 2: 1-(2-hydroxyethyl)-3-methylimidazolium tetrafluoroborate, C6H11BF4N2O, InChI=1S/C6H11N2O.BF4/c1-7-2-3-8(6-7)4-5-9;2-1(3,4)5/h2-3,6,9H,4-5H2,1H3;/q+1;-1, purity 98%
Compound 3: 1-(2-hydroxyethyl)-3-methylimidazolium bis[(trifluoromethyl)sulfonyl]imide, C8H11F6N3O5S2, InChI=1S/C6H11N2O.C2F6NO4S2/c1-7-2-3-8(6-7)4-5-9;3-1(4,5)14(10,11)9-15(12,13)2(6,7)8/h2-3,6,9H,4-5H2,1H3;/q+1;-1, purity 99%
Compound 4: choline bis(trifluoromethylsulfonyl)imide, C7H14F6N2O5S2, InChI=1S/C5H14NO.C2F6NO4S2/c1-6(2,3)4-5-7;3-1(4,5)14(10,11)9-15(12,13)2(6,7)8/h7H,4-5H2,1-3H3;/q+1;-1, purity 99%
Compound 5: N,N,N-trimethylpropanaminium bis((trifluoromethyl)sulfonyl)amide, C8H16F6N2O4S2, InChI=1S/C6H16N.C2F6NO4S2/c1-5-6-7(2,3)4;3-1(4,5)14(10,11)9-15(12,13)2(6,7)8/h5-6H2,1-4H3;/q+1;-1, purity 99.5%

System: ammonia + 1-(2-hydroxyethyl)-3-methylimidazolium tetrafluoroborate; phases: Gas, Liquid
Property: Vapor or sublimation pressure, kPa (Gas); method: Closed cell (Static) method
Mole fraction of ammonia	Temperature, K	Vapor or sublimation pressure, kPa	uncertainty
0.233	303.15	9.6	7.5
0.592	303.15	187.2	14.3
0.767	303.15	558.5	36.9
0.857	303.15	852.6	49.3
0.948	303.15	1151.3	49.6
0.232	313.15	11.8	8.4
0.587	313.15	212.8	17.1
0.762	313.15	691.1	48.4
0.852	313.15	1087.6	68.7
0.947	313.15	1537.4	76.8
0.227	323.15	21.1	14.7
0.565	323.15	353.6	24.1
0.747	323.15	899.6	53
0.842	323.15	1368.3	85.4
0.946	323.15	2026.8	98.1
0.22	333.15	34.2	17.4
0.552	333.15	428.8	29.7
0.734	333.15	1150.7	65.6
0.832	333.15	1678.9	102.1
0.944	333.15	2566	125
0.203	343.15	63.2	21.9
0.532	343.15	534.9	35.7
0.72	343.15	1412.4	75.4
0.82	343.15	2008.5	124.9
0.942	343.15	3230.5	150.6
0.195	353.15	79.9	26.2
0.513	353.15	638.5	44.7
0.704	353.15	1655.6	85.5
0.807	353.15	2340	145
0.94	353.15	3888.2	185.1
0.183	363.15	101.1	32.2
0.49	363.15	757.4	51.3
0.689	363.15	1888.1	92.2
0.794	363.15	2673.7	180.8
0.936	363.15	4784	223.8
0.173	373.15	122	37
0.471	373.15	856.7	56
0.674	373.15	2035.2	100.4
0.786	373.15	2994.6	129

System: ammonia + 1-(2-hydroxyethyl)-3-methylimidazolium bis[(trifluoromethyl)sulfonyl]imide; phases: Gas, Liquid
Property: Vapor or sublimation pressure, kPa (Gas); method: Closed cell (Static) method
Mole fraction of ammonia	Temperature, K	Vapor or sublimation pressure, kPa	uncertainty
0.217	293.15	9.9	2.5
0.427	293.15	45.3	5.1
0.576	293.15	135.4	15.1
0.747	293.15	360	26.7
0.925	293.15	738.2	34.4
0.216	303.15	12.8	3.6
0.428	303.15	63.1	6.8
0.577	303.15	182.7	20
0.745	303.15	473.7	36.3
0.924	303.15	996.7	48.8
0.215	313.15	15.8	5
0.423	313.15	86.7	9
0.569	313.15	237.4	25.7
0.738	313.15	611.1	47.3
0.923	313.15	1317.2	63.6
0.213	323.15	21.7	7
0.419	323.15	117.7	11.8
0.564	323.15	306.8	32.3
0.733	323.15	775.1	60.9
0.922	323.15	1711.7	82.1
0.211	333.15	29.1	9.2
0.414	333.15	154.6	15.1
0.558	333.15	389.5	40.1
0.727	333.15	967.1	77
0.921	333.15	2185.9	103.8
0.208	343.15	40.9	12
0.408	343.15	201.9	19
0.551	343.15	487	48.8
0.72	343.15	1185.8	95.6
0.92	343.15	2750.2	129
0.204	353.15	57.1	15.2
0.401	353.15	258.1	23.4
0.543	353.15	597.8	58.5
0.713	353.15	1434	117
0.919	353.15	3412	158.3
0.2	363.15	77.8	19
0.393	363.15	324.5	28.7
0.533	363.15	724.9	69.2
0.704	363.15	1710.2	140.9
0.917	363.15	4178.7	190.7
0.193	373.15	104.4	23.3
0.384	373.15	399.9	34.6
0.524	373.15	866.7	79.8
0.695	373.15	2005.7	166.6
0.915	373.15	5051.8	225.4

System: ammonia + choline bis(trifluoromethylsulfonyl)imide; phases: Gas, Liquid
Property: Vapor or sublimation pressure, kPa (Gas); method: Closed cell (Static) method
Mole fraction of ammonia	Temperature, K	Vapor or sublimation pressure, kPa	uncertainty
0.343	293.15	15.7	6.3
0.613	293.15	128.6	14.5
0.77	293.15	456.5	29.8
0.923	293.15	742.3	28.2
0.497	303.15	73.2	12.4
0.601	303.15	159.1	29.1
0.76	303.15	556.8	39.4
0.92	303.15	996.1	43.1
0.324	313.15	37.1	6.2
0.485	313.15	104.8	8.1
0.59	313.15	184.9	33.8
0.753	313.15	673.9	51.5
0.916	313.15	1301.8	59.3
0.313	323.15	50.9	8.6
0.472	323.15	142.6	9.8
0.577	323.15	224.6	38.3
0.742	323.15	805.2	63.9
0.912	323.15	1647.7	77.1
0.301	333.15	67.1	10.9
0.454	333.15	177.5	13.1
0.559	333.15	288.9	43.5
0.726	333.15	937.7	77.4
0.907	333.15	2073	96.1
0.282	343.15	90.5	12.9
0.434	343.15	220.5	14.6
0.541	343.15	344.9	47.8
0.712	343.15	1073.5	92.9
0.899	343.15	2541.3	118.2
0.266	353.15	108.6	16.5
0.415	353.15	272.3	17.2
0.522	353.15	402.9	52.1
0.696	353.15	1210.7	106.9
0.891	353.15	3012.6	138.9
0.245	363.15	136.4	18.4
0.391	363.15	315.2	19.2
0.503	363.15	467.3	55.6
0.679	363.15	1344.8	120
0.883	363.15	3476.3	157.2
0.224	373.15	160.4	21.7
0.363	373.15	361.2	23.8
0.477	373.15	562.6	58.5
0.659	373.15	1478.7	75.7

System: ammonia + N,N,N-trimethylpropanaminium bis((trifluoromethyl)sulfonyl)amide; phases: Gas, Liquid
Property: Vapor or sublimation pressure, kPa (Gas); method: Closed cell (Static) method
Mole fraction of ammonia	Temperature, K	Vapor or sublimation pressure, kPa	uncertainty
0.173	303.15	112.3	9.5
0.368	303.15	234.8	14.8
0.73	303.15	649.3	36.8
0.809	303.15	842.5	34.6
0.869	303.15	967.4	31.5
0.152	313.15	129.6	11.7
0.345	313.15	279.6	18.5
0.722	313.15	812.7	48.4
0.802	313.15	1078.6	48.5
0.865	313.15	1270.2	50.3
0.133	323.15	147.4	14.1
0.32	323.15	322	22.5
0.71	323.15	987.2	68
0.791	323.15	1356.9	64.8
0.858	323.15	1620.5	63.5
0.118	333.15	164.6	18
0.289	333.15	370.1	27.2
0.698	333.15	1170.5	89.9
0.78	333.15	1660.6	84.6
0.851	333.15	2026.8	81.5
0.102	343.15	181.3	18
0.688	343.15	1363.3	113.2
0.771	343.15	2005.6	108.3
0.844	343.15	2485.6	103.7
0.088	353.15	197.1	22.5
0.25	353.15	438.6	36.8
0.673	353.15	1566.2	60.8
0.831	353.15	2975	134
0.076	363.15	212.7	25.5
0.23	363.15	473.9	59.2
0.739	363.15	2656.6	156.8
0.82	363.15	3487.1	155.6
0.065	373.15	227.6	28.1
0.213	373.15	505	64.9
0.725	373.15	2968.1	188.6
0.808	373.15	4009.8	188.8
