Measured thermophysical data. Impact of configuration and fluorination on the solubility of octyl ester benzoate dimers in CO2
Source: Fluid Phase Equilib., 2005, 10.1016/j.fluid.2005.09.019
Compound 1: carbon dioxide, CO2, InChI=1S/CO2/c2-1-3
Compound 2: dioctyl [1,1'-biphenyl]-2,2'-dicarboxylate, C30H42O4, InChI=1S/C30H42O4/c1-3-5-7-9-11-17-23-33-29(31)27-21-15-13-19-25(27)26-20-14-16-22-28(26)30(32)34-24-18-12-10-8-6-4-2/h13-16,19-22H,3-12,17-18,23-24H2,1-2H3
Compound 3: bis(3,3,4,4,5,5,6,6,7,7,8,8,8-tridecafluorooctyl) [1,1'-biphenyl]-2,2'-dicarboxylate, C30H16F26O4, InChI=1S/C30H16F26O4/c31-19(32,21(35,36)23(39,40)25(43,44)27(47,48)29(51,52)53)9-11-59-17(57)15-7-3-1-5-13(15)14-6-2-4-8-16(14)18(58)60-12-10-20(33,34)22(37,38)24(41,42)26(45,46)28(49,50)30(54,55)56/h1-8H,9-12H2
Compound 4: dioctyl [1,1'-biphenyl]-3,3'-dicarboxylate, C30H42O4, InChI=1S/C30H42O4/c1-3-5-7-9-11-13-21-33-29(31)27-19-15-17-25(23-27)26-18-16-20-28(24-26)30(32)34-22-14-12-10-8-6-4-2/h15-20,23-24H,3-14,21-22H2,1-2H3
Compound 5: bis(3,3,4,4,5,5,6,6,7,7,8,8,8-tridecafluorooctyl) [1,1'-biphenyl]-3,3'-dicarboxylate, C30H16F26O4, InChI=1S/C30H16F26O4/c31-19(32,21(35,36)23(39,40)25(43,44)27(47,48)29(51,52)53)7-9-59-17(57)15-5-1-3-13(11-15)14-4-2-6-16(12-14)18(58)60-10-8-20(33,34)22(37,38)24(41,42)26(45,46)28(49,50)30(54,55)56/h1-6,11-12H,7-10H2

System: dioctyl [1,1'-biphenyl]-3,3'-dicarboxylate; phases: Crystal, Liquid, Air at 1 atmosphere
Property: Normal melting temperature, K (Crystal); method: VISOBS
Normal melting temperature, K	uncertainty
302.15	1

System: bis(3,3,4,4,5,5,6,6,7,7,8,8,8-tridecafluorooctyl) [1,1'-biphenyl]-3,3'-dicarboxylate; phases: Crystal, Liquid, Air at 1 atmosphere
Property: Normal melting temperature, K (Crystal); method: VISOBS
Normal melting temperature, K	uncertainty
345.15	1

System: carbon dioxide + dioctyl [1,1'-biphenyl]-3,3'-dicarboxylate; phases: Gas, Liquid
Property: Vapor or sublimation pressure, kPa (Gas); method: Closed cell (Static) method
Temperature, K	Mass fraction of dioctyl [1,1'-biphenyl]-3,3'-dicarboxylate	Vapor or sublimation pressure, kPa	uncertainty
294.95	0.018	21410	300
305.75	0.018	24000	300
329.05	0.018	28170	330
348.95	0.018	30720	310
365.85	0.018	33690	310
366.65	0.286	59450	570
372.25	0.201	62000	360
352.95	0.286	63190	630
369.85	0.256	63240	370
365.65	0.092	63550	470
358.75	0.201	65550	370
352.15	0.092	66720	390
366.35	0.131	67000	380
360.85	0.388	67830	430
353.95	0.256	69790	1050
341.95	0.286	70540	750
340.55	0.092	73510	750
350.05	0.131	74160	870
345.15	0.201	74500	760
344.35	0.256	77850	850
344.15	0.388	77990	1010
332.25	0.286	83280	880
328.15	0.092	89190	1250
329.05	0.286	90730	980
333.65	0.201	93770	920
324.55	0.092	104370	1700
330.85	0.388	105390	2060
331.25	0.131	106210	1810
324.65	0.286	110660	1500
330.85	0.256	114070	3870
329.35	0.201	116320	1570
329.15	0.388	121350	2370
329.05	0.256	137790	1000
326.85	0.131	148080	1760

System: carbon dioxide + dioctyl [1,1'-biphenyl]-3,3'-dicarboxylate; phases: Liquid, Gas
Property: Vapor or sublimation pressure, kPa (Liquid); method: Closed cell (Static) method
Mass fraction of dioctyl [1,1'-biphenyl]-3,3'-dicarboxylate	Temperature, K	Vapor or sublimation pressure, kPa	uncertainty
0.62	295.55	15470	290
0.62	306.05	15930	290
0.62	312.65	17610	290
0.62	332.65	20710	290
0.62	353.95	24450	290
0.62	370.45	27030	300
0.496	363.25	57830	350
0.496	347.45	60100	360
0.496	333.45	68210	400
0.496	318.65	92710	790
0.496	313.75	126200	840

System: carbon dioxide + dioctyl [1,1'-biphenyl]-3,3'-dicarboxylate; phases: Gas
Property: Mass density, kg/m3 (Gas); method: Other PVT measurement
Mass fraction of dioctyl [1,1'-biphenyl]-3,3'-dicarboxylate	Temperature, K	Pressure, kPa	Mass density, kg/m3	uncertainty
0.018	294.95	21200	883	27
0.018	305.75	23790	856	26
0.018	329.05	27960	804	24
0.018	348.95	30510	760	23
0.018	365.85	33480	726	22
0.092	365.65	63340	979	29
0.092	352.15	66510	1019	31
0.092	340.55	73300	1062	32
0.092	328.15	88980	1124	34
0.092	324.55	104160	1160	35
0.131	366.35	66790	1002	30
0.131	350.05	73950	1054	32
0.131	331.25	106000	1160	35
0.131	326.85	147870	1240	37
0.201	372.25	61790	968	29
0.201	358.75	65340	1005	30
0.201	345.15	74290	1048	31
0.201	333.65	93560	1111	33
0.201	329.35	116110	1141	34
0.256	369.85	63030	969	29
0.256	353.95	69580	1015	30
0.256	344.35	77640	1045	31
0.256	330.85	113860	1125	34
0.256	329.05	137580	1150	35
0.286	366.65	59240	976	29
0.286	352.95	62980	1010	30
0.286	341.95	70330	1044	31
0.286	332.25	83070	1083	33
0.286	329.05	90520	1097	33
0.286	324.65	110450	1131	34
0.388	360.85	67620	876	26
0.388	344.15	77780	1077	32
0.388	330.85	105180	1139	34
0.388	329.15	121140	1178	35
0.496	363.25	57970	997	30
0.496	347.45	60240	1049	31
0.496	333.45	68350	1075	32
0.496	318.65	92850	1121	34
0.496	313.75	126340	1150	35
0.62	312.65	17750	1052	32
0.62	332.65	20850	1031	31
0.62	353.95	24590	1013	30
0.62	370.45	27170	997	30
0.62	306.05	16070	1076	32
0.62	295.55	15610	1089	33

System: carbon dioxide + dioctyl [1,1'-biphenyl]-3,3'-dicarboxylate; phases: Liquid mixture 1, Liquid mixture 2, Gas
Property: Vapor or sublimation pressure, kPa (Liquid mixture 1); method: Closed cell (Static) method
Temperature, K	Vapor or sublimation pressure, kPa	uncertainty
296.05	6100	280
298.55	6480	280
302.15	7070	280
304.15	7450	280

System: carbon dioxide + dioctyl [1,1'-biphenyl]-3,3'-dicarboxylate; phases: Fluid (supercritical or subcritical phases)
Fixed: Mass fraction of dioctyl [1,1'-biphenyl]-3,3'-dicarboxylate = 0.277
Property: Mass density, kg/m3 (Fluid (supercritical or subcritical phases)); method: Other PVT measurement
Temperature, K	Pressure, kPa	Mass density, kg/m3	uncertainty
296.05	6100	750	23
298.55	6480	734	22
302.15	7070	701	21
304.15	7450	682	20

System: carbon dioxide + bis(3,3,4,4,5,5,6,6,7,7,8,8,8-tridecafluorooctyl) [1,1'-biphenyl]-3,3'-dicarboxylate; phases: Gas, Liquid
Property: Vapor or sublimation pressure, kPa (Gas); method: Closed cell (Static) method
Mass fraction of bis(3,3,4,4,5,5,6,6,7,7,8,8,8-tridecafluorooctyl) [1,1'-biphenyl]-3,3'-dicarboxylate	Temperature, K	Vapor or sublimation pressure, kPa	uncertainty
0.279	301.95	7280	290
0.334	303.15	7450	290
0.116	303.35	7520	290
0.135	303.35	7550	290
0.206	303.35	7760	290
0.016	305.95	7830	290
0.279	304.75	8480	290
0.116	312.75	10450	290
0.016	322.65	11720	290
0.135	318.45	12480	290
0.334	321.05	13100	290
0.279	320.65	13410	290
0.206	321.05	13480	290
0.405	330.05	15210	290
0.135	332.45	16170	290
0.016	347.75	17000	290
0.116	338.55	17590	290
0.334	344.35	18970	290
0.206	342.75	19000	290
0.405	345.35	19030	290
0.016	363.75	19590	290
0.135	348.55	19830	290
0.279	346.15	19930	290
0.116	363.55	22590	290
0.405	360.65	22900	300
0.334	363.65	23210	300
0.206	362.85	23210	290
0.135	369.65	24240	300
0.279	368.05	24340	300

System: carbon dioxide + bis(3,3,4,4,5,5,6,6,7,7,8,8,8-tridecafluorooctyl) [1,1'-biphenyl]-3,3'-dicarboxylate; phases: Liquid, Gas
Property: Vapor or sublimation pressure, kPa (Liquid); method: Closed cell (Static) method
Mass fraction of bis(3,3,4,4,5,5,6,6,7,7,8,8,8-tridecafluorooctyl) [1,1'-biphenyl]-3,3'-dicarboxylate	Temperature, K	Vapor or sublimation pressure, kPa	uncertainty
0.135	294.55	5840	280
0.116	295.05	5930	280
0.016	295.15	6030	280
0.279	295.55	6100	280
0.405	295.95	6140	280
0.334	296.45	6170	280
0.206	296.55	6240	280
0.116	298.75	6450	280
0.206	298.35	6480	280
0.405	299.15	6590	280
0.279	299.95	6720	280
0.135	299.75	6760	280
0.334	300.55	6790	280
0.016	302.75	7380	280
0.405	327.85	14520	290

System: carbon dioxide + bis(3,3,4,4,5,5,6,6,7,7,8,8,8-tridecafluorooctyl) [1,1'-biphenyl]-3,3'-dicarboxylate; phases: Fluid (supercritical or subcritical phases)
Property: Mass density, kg/m3 (Fluid (supercritical or subcritical phases)); method: Other PVT measurement
Mass fraction of bis(3,3,4,4,5,5,6,6,7,7,8,8,8-tridecafluorooctyl) [1,1'-biphenyl]-3,3'-dicarboxylate	Temperature, K	Pressure, kPa	Mass density, kg/m3	uncertainty
0.135	294.55	5980	744	22
0.116	295.05	6070	768	23
0.016	295.15	6170	745	22
0.279	295.55	6240	976	29
0.405	295.95	6280	1054	32
0.334	296.45	6310	950	29
0.206	296.55	6380	904	27
0.206	298.35	6620	900	27
0.116	298.75	6590	782	23
0.405	299.15	6730	1049	31
0.135	299.75	6900	737	22
0.279	299.95	6860	962	29
0.334	300.55	6930	967	29
0.279	301.95	7070	954	29
0.016	302.75	7520	689	21
0.334	303.15	7240	957	29
0.116	303.35	7310	763	23
0.135	303.35	7340	723	22
0.206	303.35	7550	880	26
0.279	304.75	8270	952	29
0.016	305.95	7620	654	20
0.116	312.75	10240	752	23
0.135	318.45	12270	711	22
0.279	320.65	13200	925	28
0.334	321.05	12890	931	28
0.206	321.05	13270	856	26
0.016	322.65	11510	622	19
0.405	327.85	14660	1001	30
0.405	330.05	15000	999	30
0.135	332.45	15960	688	22
0.116	338.55	17380	719	26
0.206	342.75	18790	816	24
0.334	344.35	18760	898	27
0.405	345.35	18820	969	29
0.279	346.15	19720	879	26
0.016	347.75	16790	585	18
0.135	348.55	19620	665	26
0.405	360.65	22690	949	28
0.206	362.85	23000	777	23
0.116	363.55	22380	673	22
0.334	363.65	23000	862	26
0.016	363.75	19380	554	24
0.279	368.05	24130	835	25
0.135	369.65	24030	639	21

System: carbon dioxide + bis(3,3,4,4,5,5,6,6,7,7,8,8,8-tridecafluorooctyl) [1,1'-biphenyl]-3,3'-dicarboxylate; phases: Liquid mixture 1, Liquid mixture 2, Gas
Property: Vapor or sublimation pressure, kPa (Liquid mixture 1); method: Closed cell (Static) method
Temperature, K	Vapor or sublimation pressure, kPa	uncertainty
299.75	6610	280
301.15	6900	280
303.45	7240	280
305.35	7520	280
305.85	7660	290

System: carbon dioxide + bis(3,3,4,4,5,5,6,6,7,7,8,8,8-tridecafluorooctyl) [1,1'-biphenyl]-3,3'-dicarboxylate; phases: Fluid (supercritical or subcritical phases)
Fixed: Mass fraction of bis(3,3,4,4,5,5,6,6,7,7,8,8,8-tridecafluorooctyl) [1,1'-biphenyl]-3,3'-dicarboxylate = 0.273
Property: Mass density, kg/m3 (Fluid (supercritical or subcritical phases)); method: Other PVT measurement
Temperature, K	Pressure, kPa	Mass density, kg/m3	uncertainty
299.75	6610	933	28
301.15	6900	932	28
303.45	7240	887	27
305.35	7520	827	25
305.85	7660	782	24

System: carbon dioxide + dioctyl [1,1'-biphenyl]-2,2'-dicarboxylate; phases: Gas, Liquid
Property: Vapor or sublimation pressure, kPa (Gas); method: Closed cell (Static) method
Mass fraction of dioctyl [1,1'-biphenyl]-2,2'-dicarboxylate	Temperature, K	Vapor or sublimation pressure, kPa	uncertainty
0.019	294.75	7280	330
0.019	299.45	9210	320
0.019	317.25	14970	310
0.019	334.85	19830	300
0.019	359.75	25450	300
0.019	375.95	27930	300
0.069	342.75	39790	330
0.069	356.55	40660	330
0.069	371.55	41660	330
0.069	327.05	41830	350
0.274	337.75	42930	330
0.274	352.95	43140	330
0.094	354.35	44030	320
0.274	367.25	44030	320
0.069	320.25	44280	390
0.094	339.35	44590	320
0.094	370.25	44720	320
0.274	323.45	44830	350
0.206	351.75	45170	330
0.206	359.75	45310	320
0.206	369.85	45620	320
0.206	340.95	45660	330
0.171	353.95	45900	320
0.171	340.95	46380	320
0.171	369.25	46410	320
0.206	331.25	47280	330
0.094	324.25	48210	420
0.171	329.65	48450	340
0.206	322.55	49930	370
0.274	311.55	50720	400
0.171	319.45	53380	340
0.094	316.95	53450	450
0.274	303.75	60410	540
0.094	308.05	69340	560

System: carbon dioxide + dioctyl [1,1'-biphenyl]-2,2'-dicarboxylate; phases: Liquid, Gas
Property: Vapor or sublimation pressure, kPa (Liquid); method: Closed cell (Static) method
Mass fraction of dioctyl [1,1'-biphenyl]-2,2'-dicarboxylate	Temperature, K	Vapor or sublimation pressure, kPa	uncertainty
0.628	297.05	11410	1310
0.628	301.15	12520	1310
0.628	318.45	16030	850
0.628	334.65	19480	840
0.628	353.55	23380	750
0.628	371.05	26590	680
0.55	313.45	26620	610
0.55	322.45	26900	820
0.55	298.55	27720	980
0.55	330.85	28380	500
0.55	294.15	29590	1100
0.55	353.85	31900	460
0.55	371.85	34340	450
0.374	334.65	39590	410
0.374	342.45	40070	370
0.374	355.95	41000	370
0.374	312.35	42310	530
0.374	371.45	42450	360
0.374	296.95	55760	850
0.374	294.95	61790	1010

System: carbon dioxide + dioctyl [1,1'-biphenyl]-2,2'-dicarboxylate; phases: Fluid (supercritical or subcritical phases)
Property: Mass density, kg/m3 (Fluid (supercritical or subcritical phases)); method: Other PVT measurement
Mass fraction of dioctyl [1,1'-biphenyl]-2,2'-dicarboxylate	Temperature, K	Pressure, kPa	Mass density, kg/m3	uncertainty
0.019	294.75	7070	786	24
0.019	299.45	9000	784	24
0.019	317.25	14760	750	23
0.019	334.85	19620	716	21
0.019	359.75	25240	671	20
0.019	375.95	27720	638	19
0.069	371.55	41450	788	24
0.069	356.55	40450	821	25
0.069	342.75	39580	852	26
0.069	327.05	41620	899	27
0.069	320.25	44070	922	28
0.094	370.25	44510	779	24
0.094	354.35	43820	811	25
0.094	339.35	44380	845	26
0.094	324.25	48000	883	27
0.094	316.95	53240	911	27
0.094	308.05	69130	953	29
0.171	369.25	46200	970	29
0.171	353.95	45690	1013	30
0.171	340.95	46170	1048	32
0.171	329.65	48240	1085	33
0.171	319.45	53170	1122	34
0.206	369.85	45410	955	29
0.206	351.75	44960	1005	30
0.206	340.95	45450	1040	31
0.206	359.75	45100	994	30
0.206	331.25	47070	1071	32
0.206	322.55	49720	1098	33
0.274	367.25	43820	849	26
0.274	352.95	42930	879	27
0.274	337.75	42720	903	27
0.274	323.45	44620	934	28
0.274	311.55	50510	965	29
0.274	303.75	60200	984	30
0.374	294.95	61930	942	28
0.374	296.95	55900	931	28
0.374	312.35	42450	882	26
0.374	334.65	39730	852	26
0.374	355.95	41140	830	25
0.374	342.45	40210	857	26
0.374	371.45	42590	816	25
0.55	294.15	29730	926	28
0.55	298.55	27860	917	28
0.55	313.45	26760	896	27
0.55	330.85	28520	882	26
0.55	353.85	32040	866	26
0.55	371.85	34480	851	26
0.55	322.45	27040	895	27
0.628	301.15	12660	862	26
0.628	318.45	16170	848	25
0.628	334.65	19620	838	25
0.628	353.55	23520	828	25
0.628	371.05	26730	821	25
0.628	297.05	11550	870	26

System: carbon dioxide + dioctyl [1,1'-biphenyl]-2,2'-dicarboxylate; phases: Liquid mixture 1, Liquid mixture 2, Gas
Property: Vapor or sublimation pressure, kPa (Liquid mixture 1); method: Closed cell (Static) method
Temperature, K	Vapor or sublimation pressure, kPa	uncertainty
295.95	6090	280
298.05	6430	280
300.95	6830	280
304.85	7480	280
306.75	7690	280

System: carbon dioxide + bis(3,3,4,4,5,5,6,6,7,7,8,8,8-tridecafluorooctyl) [1,1'-biphenyl]-2,2'-dicarboxylate; phases: Gas, Liquid
Property: Vapor or sublimation pressure, kPa (Gas); method: Closed cell (Static) method
Mass fraction of bis(3,3,4,4,5,5,6,6,7,7,8,8,8-tridecafluorooctyl) [1,1'-biphenyl]-2,2'-dicarboxylate	Temperature, K	Vapor or sublimation pressure, kPa	uncertainty
0.063	309.95	8240	290
0.021	309.35	8410	280
0.13	311.95	8790	290
0.288	318.85	9720	290
0.202	321.05	11080	290
0.021	327.05	11760	290
0.13	323.85	11790	290
0.36	331.85	12740	290
0.288	332.75	13100	290
0.063	330.25	13210	290
0.202	336.45	14790	290
0.36	341.45	15480	290
0.021	349.25	15520	290
0.13	346.35	16720	290
0.063	349.95	17210	290
0.288	352.75	17310	290
0.021	368.25	17720	290
0.36	354.95	17860	290
0.202	354.55	18380	290
0.36	369.25	20030	290
0.288	369.05	20380	290
0.063	371.85	20520	290
0.13	367.35	20590	290
0.202	371.85	21450	290

System: carbon dioxide + bis(3,3,4,4,5,5,6,6,7,7,8,8,8-tridecafluorooctyl) [1,1'-biphenyl]-2,2'-dicarboxylate; phases: Liquid, Gas
Property: Vapor or sublimation pressure, kPa (Liquid); method: Closed cell (Static) method
Mass fraction of bis(3,3,4,4,5,5,6,6,7,7,8,8,8-tridecafluorooctyl) [1,1'-biphenyl]-2,2'-dicarboxylate	Temperature, K	Vapor or sublimation pressure, kPa	uncertainty
0.652	294.65	4860	280
0.652	297.75	5030	280
0.36	294.65	5480	280
0.063	294.85	5790	280
0.515	298.65	5790	280
0.13	295.15	5900	280
0.36	297.45	5970	280
0.021	295.55	6030	280
0.288	298.75	6170	280
0.13	297.35	6240	280
0.063	298.85	6450	280
0.021	299.15	6550	280
0.13	303.05	6970	280
0.652	314.35	7000	290
0.515	307.95	7070	280
0.288	304.65	7070	280
0.063	303.35	7070	280
0.021	303.35	7240	280
0.36	309.75	7830	280
0.288	309.95	7930	280
0.515	317.85	8720	290
0.652	333.95	9660	300
0.36	320.05	10070	290
0.515	334.55	12030	300
0.652	353.75	12660	320
0.652	370.45	15070	340
0.515	350.65	15380	310
0.515	368.45	18690	330

System: carbon dioxide + bis(3,3,4,4,5,5,6,6,7,7,8,8,8-tridecafluorooctyl) [1,1'-biphenyl]-2,2'-dicarboxylate; phases: Fluid (supercritical or subcritical phases)
Property: Mass density, kg/m3 (Fluid (supercritical or subcritical phases)); method: Other PVT measurement
Mass fraction of bis(3,3,4,4,5,5,6,6,7,7,8,8,8-tridecafluorooctyl) [1,1'-biphenyl]-2,2'-dicarboxylate	Temperature, K	Pressure, kPa	Mass density, kg/m3	uncertainty
0.652	294.65	5000	892	27
0.652	297.75	5170	896	27
0.36	294.65	5620	681	24
0.063	294.85	5930	606	19
0.515	298.65	5930	968	29
0.13	295.15	6040	668	20
0.36	297.45	6110	690	23
0.021	295.55	6170	663	20
0.288	298.75	6310	798	26
0.13	297.35	6380	688	21
0.063	298.85	6590	640	20
0.021	299.15	6690	643	19
0.13	303.05	7110	662	20
0.652	314.35	7140	966	29
0.063	303.35	7210	617	19
0.288	304.65	7210	781	23
0.515	307.95	7210	949	28
0.021	303.35	7380	601	18
0.36	309.75	7970	739	22
0.288	309.95	8070	771	22
0.063	309.95	8030	579	17
0.021	309.35	8200	558	17
0.515	317.85	8860	929	28
0.13	311.95	8580	630	19
0.652	333.95	9800	940	28
0.288	318.85	9510	750	23
0.36	320.05	10210	724	22
0.202	321.05	10870	594	18
0.021	327.05	11550	518	16
0.13	323.85	11580	613	18
0.515	334.55	12170	899	27
0.652	353.75	12800	918	28
0.36	331.85	12530	712	21
0.288	332.75	12890	728	22
0.063	330.25	13000	561	17
0.202	336.45	14580	578	17
0.652	370.45	15210	900	27
0.515	350.65	15520	870	26
0.36	341.45	15270	701	21
0.021	349.25	15310	490	15
0.13	346.35	16510	581	17
0.063	349.95	17000	536	16
0.288	352.75	17100	697	21
0.021	368.25	17510	458	14
0.36	354.95	17650	681	20
0.202	354.55	18170	565	17
0.515	368.45	18830	840	25
0.36	369.25	19820	659	20
0.288	369.05	20170	675	27
0.063	371.85	20310	503	15
0.13	367.35	20380	553	17
0.202	371.85	21240	542	16
