Measured thermophysical data. Thermodynamic properties of glycerol: experimental and theoretical study
Source: Fluid Phase Equilib., 2015, 10.1016/j.fluid.2015.03.038
Compound 1: glycerol, C3H8O3, InChI=1S/C3H8O3/c4-1-3(6)2-5/h3-6H,1-2H2, purity 99.5%

System: glycerol; phases: Liquid, Gas
Property: Vapor or sublimation pressure, kPa (Liquid); method: static (had to override TRC unc)
Temperature, K	Vapor or sublimation pressure, kPa	uncertainty
352.6	0.00528	7.4e-05
357.42	0.00782	8.6e-05
362.66	0.01179	0.00011
367.48	0.01696	0.00014
372.29	0.02415	0.00017
377.11	0.03408	0.0002
382.59	0.04972	0.0003
377.77	0.03569	0.00021
382.59	0.0496	0.0003
387.39	0.06861	0.00041
392.2	0.09367	0.00056
397.02	0.12656	0.00063
401.83	0.16943	0.00085
406.64	0.22507	0.00113
412.11	0.30891	0.00154
416.92	0.40331	0.00202
421.73	0.52244	0.00261
426.53	0.6725	0.00336
431.34	0.85826	0.00429
436.13	1.08735	0.00544
433.73	0.96709	0.00484
428.91	0.75864	0.00379
424.11	0.59225	0.00296
419.3	0.45853	0.00229
414.48	0.35259	0.00176
409.68	0.26875	0.00134
404.23	0.1952	0.001
399.42	0.1462	0.00073
394.61	0.1087	0.00054
389.8	0.07986	0.00048
384.99	0.0582	0.00035
380.17	0.04186	0.00025
374.7	0.0286	0.0002
369.89	0.0202	0.00014
365.07	0.0141	0.00013
359.8	0.00938	9.4e-05
354.98	0.00639	8.3e-05
352.57	0.00526	7.9e-05
357.39	0.00777	8.6e-05
362.63	0.0117	0.00011
367.45	0.01686	0.00013
372.27	0.024	0.00017
377.08	0.03379	0.0002
382.55	0.04942	0.0003
387.37	0.06807	0.00041
392.18	0.09311	0.00056
397	0.12585	0.00063
401.81	0.16876	0.00084
406.62	0.22422	0.00112
401.81	0.16869	0.00084
406.62	0.22404	0.00112
412.08	0.30801	0.00154
416.89	0.40226	0.00201
421.7	0.52095	0.0026
426.5	0.6698	0.00335
431.31	0.85646	0.00428
436.11	1.0859	0.0054
433.72	0.96525	0.00483
428.91	0.75836	0.00379
424.1	0.59195	0.00296
419.3	0.45835	0.00229
414.49	0.35263	0.00176
409.69	0.26896	0.00134
404.26	0.19523	0.00098
399.45	0.14643	0.00073
394.64	0.10866	0.00054
389.83	0.07998	0.00048
385.01	0.05821	0.00035
380.19	0.04192	0.00025
374.73	0.0286	0.0002
369.91	0.02016	0.00014
365.08	0.01409	0.00013
359.82	0.00939	9.4e-05
354.99	0.00641	8.3e-05
352.58	0.00527	7.4e-05
303.59	4.15e-05	7e-07
308.43	7.28e-05	9e-07
313.29	0.000125	1.1e-06
318.12	0.0002107	1.5e-06
322.95	0.0003472	2.1e-06
327.82	0.0005644	3.4e-06
332.72	0.0009037	5.4e-06
338.25	0.0015021	7.5e-06
343.08	0.0023202	1.16e-05
347.91	0.0035293	1.76e-05
352.73	0.0053181	2.66e-05
357.57	0.0078629	3.93e-05
362.42	0.011457	5.7e-05
364.82	0.0138	0.00012
360.01	0.009523	4.8e-05
355.18	0.006488	3.2e-05
350.34	0.00436	2.18e-05
345.51	0.0028755	1.44e-05
340.68	0.0018722	9.4e-06
335.14	0.0011323	5.7e-06
330.3	0.0007165	4.3e-06
325.42	0.0004428	2.7e-06
320.57	0.0002701	1.9e-06
315.71	0.0001634	1.3e-06
310.89	9.63e-05	1e-06
306.03	5.56e-05	8e-07
303.61	4.19e-05	7e-07
304.56	4.68e-05	7e-07

System: glycerol; phases: Liquid, Gas
Property: Vapor or sublimation pressure, kPa (Liquid); method: transpiration (had to override TRC unc)
Temperature, K	Vapor or sublimation pressure, kPa	uncertainty
338.2	0.00151	4e-05
341.7	0.0021	6e-05
347.7	0.00355	9e-05
351.5	0.00503	0.00013
354.5	0.00631	0.00018
357.5	0.00831	0.00023
360.1	0.00989	0.00027
363.2	0.01274	0.00034
365.9	0.01529	0.00041
370.3	0.0208	0.00054
