Measured thermophysical data. Physicochemical Investigation on the bulk and surface properties of the binary mixtures of N-methyl- N-dodecanoyl sodium glycinate (SDDS) and N-methyl-N-decanoyl glucamine (MEGA 10) in aqueous medium
Source: Fluid Phase Equilib., 2015, 10.1016/j.fluid.2015.07.028
Compound 1: water, H2O, InChI=1S/H2O/h1H2, purity 99.9%
Compound 2: N-methyl-N-decanoyl glucamine, C17H35NO6, InChI=1S/C17H35NO6/c1-3-4-5-6-7-8-9-10-15(22)18(2)11-13(20)16(23)17(24)14(21)12-19/h13-14,16-17,19-21,23-24H,3-12H2,1-2H3, purity 99.5%
Compound 3: sodium [dodecanoyl(methyl)amino]acetate, C15H28NNaO3, InChI=1S/C15H29NO3.Na/c1-3-4-5-6-7-8-9-10-11-12-14(17)16(2)13-15(18)19;/h3-13H2,1-2H3,(H,18,19);/q;+1/p-1, purity 99%

System: sodium [dodecanoyl(methyl)amino]acetate + water + N-methyl-N-decanoyl glucamine; phases: Liquid
Fixed: Temperature, K = 303
Fixed: Pressure, kPa = 101
Property: Electrical conductivity, S/m (Liquid); method: Direct current cell with electrodes
Solvent: Mole fraction of sodium [dodecanoyl(methyl)amino]acetate	Amount concentration (molarity), mol/dm3 of N-methyl-N-decanoyl glucamine	Electrical conductivity, S/m	uncertainty
0.3	0.00076	0.0108	0.0006
0.3	0.00152	0.0216	0.0006
0.3	0.00228	0.0324	0.0006
0.3	0.00304	0.0486	0.0006
0.3	0.0038	0.0594	0.0006
0.3	0.00456	0.0702	0.0006
0.3	0.00532	0.0864	0.0006
0.3	0.00608	0.0972	0.0006
0.3	0.00684	0.108	0.0006
0.3	0.0076	0.1188	0.0006
0.5	0.000868	0.027	0.0006
0.5	0.001736	0.054	0.0006
0.5	0.002604	0.081	0.0006
0.5	0.003472	0.108	0.0006
0.5	0.00434	0.1296	0.0006
0.5	0.005208	0.1566	0.0006
0.5	0.006076	0.1836	0.0006
0.5	0.006944	0.2052	0.0006
0.5	0.007812	0.2227	0.0006
0.5	0.00868	0.2484	0.0006
0.7	0.00092	0.0432	0.0006
0.7	0.00184	0.0864	0.0006
0.7	0.00276	0.1296	0.0006
0.7	0.00368	0.162	0.0006
0.7	0.0046	0.2052	0.0006
0.7	0.00552	0.2484	0.0006
0.7	0.00644	0.2808	0.0006
0.7	0.00736	0.3312	0.0006
0.7	0.00828	0.3456	0.0006
0.7	0.0092	0.378	0.0006
0.9	0.00103	0.054	0.0006
0.9	0.00206	0.1188	0.0006
0.9	0.00309	0.1728	0.0006
0.9	0.00412	0.2376	0.0006
0.9	0.00515	0.2916	0.0006
0.9	0.00618	0.3348	0.0006
0.9	0.00721	0.378	0.0006
0.9	0.00824	0.432	0.0006
0.9	0.00927	0.4752	0.0006
0.9	0.0103	0.5184	0.0006

System: sodium [dodecanoyl(methyl)amino]acetate + water + N-methyl-N-decanoyl glucamine; phases: Liquid, Air at 1 atmosphere
Fixed: Temperature, K = 303
Property: Surface tension liquid-gas, N/m (Liquid); method: Kruss tensiometer with du Nuoy ring
Solvent: Mole fraction of sodium [dodecanoyl(methyl)amino]acetate	Amount concentration (molarity), mol/dm3 of N-methyl-N-decanoyl glucamine	Surface tension liquid-gas, N/m	uncertainty
0.3	0.00044	0.0591	0.0003
0.3	0.00068	0.0579	0.0003
0.3	0.00098	0.0554	0.0003
0.3	0.0013	0.0522	0.0002
0.3	0.0021	0.0473	0.0002
0.3	0.0037	0.0411	0.0002
0.3	0.0055	0.0366	0.0002
0.3	0.0061	0.0358	0.0002
0.7	0.00026	0.0628	0.0003
0.7	0.00062	0.0604	0.0003
0.7	0.0011	0.055	0.0003
0.7	0.002	0.0497	0.0002
0.7	0.0037	0.0448	0.0002
0.7	0.0058	0.0411	0.0002
0.7	0.0078	0.037	0.0002
0.7	0.0091	0.036	0.0002

System: sodium [dodecanoyl(methyl)amino]acetate + water + N-methyl-N-decanoyl glucamine; phases: Liquid
Fixed: Temperature, K = 303
Fixed: Pressure, kPa = 101
Property: Molar enthalpy of mixing with solvent, kJ/mol of N-methyl-N-decanoyl glucamine (Liquid); method: Omega ITC microcalorimeter
Solvent: Mole fraction of sodium [dodecanoyl(methyl)amino]acetate	Amount concentration (molarity), mol/dm3 of N-methyl-N-decanoyl glucamine	Molar enthalpy of mixing with solvent, kJ/mol of N-methyl-N-decanoyl glucamine	uncertainty
0	0.00044	-3.22	0.03
0	0.00088	-3.2	0.03
0	0.00132	-3.18	0.03
0	0.00176	-3.16	0.03
0	0.0022	-3.14	0.03
0	0.00264	-3.12	0.03
0	0.00308	-3.1	0.03
0	0.00352	-3.08	0.03
0	0.00369	-3.06	0.03
0	0.0044	-3.04	0.02
0	0.00484	-2.96	0.02
0	0.00528	-2.88	0.02
0	0.00572	-2.79	0.02
0	0.00616	-2.46	0.02
0	0.0066	-1.92	0.02
0.5	0.00051	-2.12	0.02
0.5	0.00102	-1.96	0.02
0.5	0.00153	-1.89	0.02
0.5	0.00204	-1.81	0.02
0.5	0.00255	-1.73	0.02
0.5	0.00306	-1.65	0.02
0.5	0.00357	-1.62	0.02
0.5	0.00408	-1.58	0.02
0.5	0.00459	-1.5	0.02
0.5	0.0051	-1.39	0.02
0.5	0.00561	-1.04	0.01
0.5	0.00612	-0.58	0.01
0.5	0.00663	-0.27	0.01
0.5	0.00714	-0.12	0.01
0.5	0.00765	0.04	0.01
0.5	0.00816	0.11	0.01
0.5	0.00867	0.12	0.01
1	0.00086	-1.77	0.02
1	0.00172	-1.65	0.02
1	0.00258	-1.5	0.02
1	0.00344	-1.42	0.02
1	0.0043	-1.35	0.02
1	0.00516	-1.27	0.01
1	0.00602	-1.23	0.01
1	0.00688	-1.15	0.01
1	0.00774	-1.08	0.01
1	0.0086	-0.96	0.01
1	0.00946	-0.89	0.01
1	0.01032	-0.81	0.01
1	0.01118	-0.65	0.01
1	0.01204	-0.42	0.01
