Measured thermophysical data. Measurements of the solubilities of derivatized amino acids  in supercritical carbon dioxide
Source: Fluid Phase Equilib., 2007, 10.1016/j.fluid.2007.01.032
Compound 1: N-acetyl-L-phenylalanine, ethyl ester, C13H17NO3, InChI=1S/C13H17NO3/c1-3-17-13(16)12(14-10(2)15)9-11-7-5-4-6-8-11/h4-8,12H,3,9H2,1-2H3,(H,14,15)/t12-/m0/s1
Compound 2: acetyl-L-phenylalanine, C11H13NO3, InChI=1S/C11H13NO3/c1-8(13)12-10(11(14)15)7-9-5-3-2-4-6-9/h2-6,10H,7H2,1H3,(H,12,13)(H,14,15)/t10-/m0/s1
Compound 3: ((benzyloxy)carbonyl)-L-phenylalanine, C17H17NO4, InChI=1S/C17H17NO4/c19-16(20)15(11-13-7-3-1-4-8-13)18-17(21)22-12-14-9-5-2-6-10-14/h1-10,15H,11-12H2,(H,18,21)(H,19,20)/t15-/m0/s1
Compound 4: N-acetyl-L-tyrosine, ethyl ester, C13H17NO4, InChI=1S/C13H17NO4/c1-3-18-13(17)12(14-9(2)15)8-10-4-6-11(16)7-5-10/h4-7,12,16H,3,8H2,1-2H3,(H,14,15)/t12-/m0/s1
Compound 5: acetyl-L-tyrosine, C11H13NO4, InChI=1S/C11H13NO4/c1-7(13)12-10(11(15)16)6-8-2-4-9(14)5-3-8/h2-5,10,14H,6H2,1H3,(H,12,13)(H,15,16)/t10-/m0/s1
Compound 6: N-[(phenylmethoxy)carbonyl]-L-tyrosine, C17H17NO5, InChI=1S/C17H17NO5/c19-14-8-6-12(7-9-14)10-15(16(20)21)18-17(22)23-11-13-4-2-1-3-5-13/h1-9,15,19H,10-11H2,(H,18,22)(H,20,21)/t15-/m0/s1
Compound 7: carbon dioxide, CO2, InChI=1S/CO2/c2-1-3
Compound 8: water, H2O, InChI=1S/H2O/h1H2

System: carbon dioxide + N-acetyl-L-phenylalanine, ethyl ester; phases: Fluid (supercritical or subcritical phases), Crystal
Property: Mole fraction of N-acetyl-L-phenylalanine, ethyl ester (Fluid (supercritical or subcritical phases)); method: Chromatography
Temperature, K	Pressure, kPa	Mole fraction of N-acetyl-L-phenylalanine, ethyl ester	uncertainty
308.2	7800	0.00066	0.00013
308.2	11800	0.001	0.0002
308.2	15700	0.0011	0.0002
308.2	19600	0.0013	0.0003
308.2	23500	0.0019	0.0004
318.2	7800	0.00039	8e-05
318.2	15700	0.0015	0.0003
318.2	23500	0.003	0.0006
328.2	7800	2.2e-05	4e-06
328.2	15700	0.002	0.0004
328.2	23500	0.0039	0.0008

System: carbon dioxide + acetyl-L-phenylalanine; phases: Fluid (supercritical or subcritical phases), Crystal
Fixed: Temperature, K = 308.2
Property: Mole fraction of acetyl-L-phenylalanine (Fluid (supercritical or subcritical phases)); method: Chromatography
Pressure, kPa	Mole fraction of acetyl-L-phenylalanine	uncertainty
7800	2.8e-05	6e-06
11800	3.1e-05	6e-06
15700	3.2e-05	6e-06
19600	4e-05	8e-06
23500	4e-05	8e-06

System: carbon dioxide + ((benzyloxy)carbonyl)-L-phenylalanine; phases: Fluid (supercritical or subcritical phases), Crystal
Fixed: Temperature, K = 308.2
Property: Mole fraction of ((benzyloxy)carbonyl)-L-phenylalanine (Fluid (supercritical or subcritical phases)); method: Chromatography
Pressure, kPa	Mole fraction of ((benzyloxy)carbonyl)-L-phenylalanine	uncertainty
7800	3.7e-05	7e-06
11800	5.2e-05	1e-05
15700	5.9e-05	1.2e-05
19600	8.7e-05	1.7e-05
23500	9.3e-05	1.9e-05

System: carbon dioxide + N-acetyl-L-tyrosine, ethyl ester; phases: Fluid (supercritical or subcritical phases), Crystal
Property: Mole fraction of N-acetyl-L-tyrosine, ethyl ester (Fluid (supercritical or subcritical phases)); method: Chromatography
Temperature, K	Pressure, kPa	Mole fraction of N-acetyl-L-tyrosine, ethyl ester	uncertainty
308.2	7800	7.1e-06	1.4e-06
308.2	11800	2.8e-05	6e-06
308.2	15700	3e-05	6e-06
308.2	19600	3.3e-05	7e-06
308.2	23500	5.2e-05	1e-05
318.2	7800	2.5e-06	5e-07
318.2	15700	3.2e-05	6e-06
318.2	23500	5.5e-05	1.1e-05
328.2	7800	9.5e-07	1.9e-07
328.2	15700	3.4e-05	7e-06
328.2	23500	5.8e-05	1.2e-05

System: carbon dioxide + acetyl-L-tyrosine; phases: Fluid (supercritical or subcritical phases), Crystal
Fixed: Temperature, K = 308.2
Property: Mole fraction of acetyl-L-tyrosine (Fluid (supercritical or subcritical phases)); method: Chromatography
Pressure, kPa	Mole fraction of acetyl-L-tyrosine	uncertainty
7800	3e-06	6e-07
11800	3.1e-06	6e-07
15700	3.2e-06	6e-07
19600	3.4e-06	7e-07
23500	3.4e-06	7e-07

System: carbon dioxide + N-[(phenylmethoxy)carbonyl]-L-tyrosine; phases: Fluid (supercritical or subcritical phases), Crystal
Fixed: Temperature, K = 308.2
Property: Mole fraction of N-[(phenylmethoxy)carbonyl]-L-tyrosine (Fluid (supercritical or subcritical phases)); method: Chromatography
Pressure, kPa	Mole fraction of N-[(phenylmethoxy)carbonyl]-L-tyrosine	uncertainty
7800	3.5e-06	7e-07
11800	4.9e-06	1e-06
15700	5.2e-06	1e-06
19600	5.6e-06	1.1e-06
23500	7.4e-06	1.5e-06

System: N-acetyl-L-phenylalanine, ethyl ester + water; phases: Liquid, Crystal
Fixed: Pressure, kPa = 101
Property: Mole fraction of N-acetyl-L-phenylalanine, ethyl ester (Liquid); method: Chromatography
Temperature, K	Mole fraction of N-acetyl-L-phenylalanine, ethyl ester	uncertainty
308.2	0.00037	2e-05
318.2	0.00048	2e-05
328.2	0.00054	2e-05

System: N-acetyl-L-tyrosine, ethyl ester + water; phases: Liquid, Crystal
Fixed: Pressure, kPa = 101
Property: Mole fraction of N-acetyl-L-tyrosine, ethyl ester (Liquid); method: Chromatography
Temperature, K	Mole fraction of N-acetyl-L-tyrosine, ethyl ester	uncertainty
308.2	0.00035	2e-05
318.2	0.00067	3e-05
328.2	0.00105	5e-05
