Measured thermophysical data. Hydrogen bond interactions in the blends of 1,4-dioxane with some 1, 2- disubstituted ethanes at T = (298.15, 308.15 and 318.15) K
Source: Fluid Phase Equilib., 2015, 10.1016/j.fluid.2015.06.041
Compound 1: 1,4-dioxane, C4H8O2, InChI=1S/C4H8O2/c1-2-6-4-3-5-1/h1-4H2, purity 99.8%
Compound 2: ethane-1,2-diamine, C2H8N2, InChI=1S/C2H8N2/c3-1-2-4/h1-4H2, purity 99%
Compound 3: 1,2-dichloroethane, C2H4Cl2, InChI=1S/C2H4Cl2/c3-1-2-4/h1-2H2, purity 99.8%
Compound 4: 2-aminoethan-1-ol, C2H7NO, InChI=1S/C2H7NO/c3-1-2-4/h4H,1-3H2, purity 99%

System: 1,4-dioxane; phases: Liquid
Fixed: Pressure, kPa = 101.325
Property: Mass density, kg/m3 (Liquid); method: Vibrating tube method
Temperature, K	Mass density, kg/m3	uncertainty
298.15	1027.79	0.11
308.15	1016.78	0.11
318.15	1005.24	0.11

System: 1,4-dioxane; phases: Liquid
Fixed: Pressure, kPa = 101.325
Property: Viscosity, Pa*s (Liquid); method: Capillary tube (Ostwald; Ubbelohde) method
Temperature, K	Viscosity, Pa*s	uncertainty
298.15	0.0011777	3.59e-05
308.15	0.0010094	3.08e-05
318.15	0.0008896	2.72e-05

System: ethane-1,2-diamine; phases: Liquid
Fixed: Pressure, kPa = 101.325
Property: Mass density, kg/m3 (Liquid); method: Vibrating tube method
Temperature, K	Mass density, kg/m3	uncertainty
298.15	894.79	0.23
308.15	885.63	0.24
318.15	867.62	0.24

System: ethane-1,2-diamine; phases: Liquid
Fixed: Pressure, kPa = 101.325
Property: Viscosity, Pa*s (Liquid); method: Capillary tube (Ostwald; Ubbelohde) method
Temperature, K	Viscosity, Pa*s	uncertainty
298.15	0.0012758	3.94e-05
308.15	0.0011072	3.42e-05
318.15	0.0009445	2.92e-05

System: 1,2-dichloroethane; phases: Liquid
Fixed: Pressure, kPa = 101.325
Property: Mass density, kg/m3 (Liquid); method: Vibrating tube method
Temperature, K	Mass density, kg/m3	uncertainty
298.15	1246.37	0.17
308.15	1231.21	0.16
318.15	1214.55	0.16

System: 1,2-dichloroethane; phases: Liquid
Fixed: Pressure, kPa = 101.325
Property: Viscosity, Pa*s (Liquid); method: Capillary tube (Ostwald; Ubbelohde) method
Temperature, K	Viscosity, Pa*s	uncertainty
298.15	0.0007804	2.39e-05
308.15	0.0006744	2.06e-05
318.15	0.0005719	1.75e-05

System: 2-aminoethan-1-ol; phases: Liquid
Fixed: Pressure, kPa = 101.325
Property: Mass density, kg/m3 (Liquid); method: Vibrating tube method
Temperature, K	Mass density, kg/m3	uncertainty
298.15	1011.79	0.24
308.15	1004.68	0.23
318.15	998.15	0.23

System: 2-aminoethan-1-ol; phases: Liquid
Fixed: Pressure, kPa = 101.325
Property: Viscosity, Pa*s (Liquid); method: Capillary tube (Ostwald; Ubbelohde) method
Temperature, K	Viscosity, Pa*s	uncertainty
298.15	0.0189538	0.0005814
308.15	0.011963	0.0003673
318.15	0.0079132	0.0002433

System: ethane-1,2-diamine + 1,4-dioxane; phases: Liquid
Fixed: Pressure, kPa = 101
Property: Mass density, kg/m3 (Liquid); method: Vibrating tube method
Temperature, K	Mole fraction of 1,4-dioxane	Mass density, kg/m3	uncertainty
298.15	0	894.79	0.23
298.15	0.08	907.17	0.22
298.15	0.1636	919.48	0.21
298.15	0.2511	931.76	0.19
298.15	0.3428	944.28	0.18
298.15	0.385	949.92	0.17
298.15	0.5399	970.35	0.15
298.15	0.6461	984.1	0.1
298.15	0.7578	998.37	0.13
298.15	0.8756	1013.03	0.12
298.15	1	1027.79	0.11
308.15	0	885.63	0.23
308.15	0.08	897.75	0.23
308.15	0.1636	909.85	0.21
308.15	0.2511	921.06	0.19
308.15	0.3428	934.33	0.18
308.15	0.385	939.89	0.17
308.15	0.5399	959.96	0.15
308.15	0.6461	973.48	0.14
308.15	0.7578	987.59	0.13
308.15	0.8756	1002.04	0.12
308.15	1	1016.78	0.11
318.15	0	867.62	0.24
318.15	0.08	880.1	0.23
318.15	0.1636	892.74	0.21
318.15	0.2511	905.51	0.2
318.15	0.3428	918.46	0.18
318.15	0.385	924.35	0.17
318.15	0.5399	945.42	0.15
318.15	0.6461	959.55	0.14
318.15	0.7578	974.27	0.13
318.15	0.8756	989.43	0.12
318.15	1	1005.24	0.11

System: ethane-1,2-diamine + 1,4-dioxane; phases: Liquid
Fixed: Pressure, kPa = 101
Property: Viscosity, Pa*s (Liquid); method: Capillary tube (Ostwald; Ubbelohde) method
Temperature, K	Mole fraction of 1,4-dioxane	Viscosity, Pa*s	uncertainty
298.18	0	0.0012758	3.94e-05
298.18	0.08	0.0012628	3.9e-05
298.18	0.1636	0.0012504	3.85e-05
298.18	0.2511	0.0012391	3.81e-05
298.18	0.3428	0.0012276	3.77e-05
298.18	0.385	0.0012227	3.75e-05
298.18	0.5399	0.0012064	3.7e-05
298.18	0.6461	0.0011973	3.66e-05
298.18	0.7578	0.0011892	3.64e-05
298.18	0.8756	0.0011824	3.61e-05
298.18	1	0.0011777	3.59e-05
308.15	0	0.0011072	3.42e-05
308.15	0.08	0.0010922	3.37e-05
308.15	0.1636	0.0010784	3.32e-05
308.15	0.2511	0.0010655	3.28e-05
308.15	0.3428	0.0010527	3.24e-05
308.15	0.385	0.001048	3.22e-05
308.15	0.5399	0.0010329	3.17e-05
308.15	0.6461	0.0010259	3.14e-05
308.15	0.7578	0.0010193	3.12e-05
308.15	0.8756	0.0010156	3.1e-05
308.15	1	0.0010094	3.08e-05
318.15	0	0.0009445	2.92e-05
318.15	0.08	0.0009318	2.88e-05
318.15	0.1636	0.0009205	2.84e-05
318.15	0.2511	0.0009111	2.81e-05
318.15	0.3428	0.0009021	2.77e-05
318.15	0.385	0.0008983	2.76e-05
318.15	0.5399	0.0008929	2.74e-05
318.15	0.6461	0.0008913	2.73e-05
318.15	0.7578	0.0008918	2.73e-05
318.15	0.8756	0.0008902	2.72e-05
318.15	1	0.0008896	2.72e-05

System: ethane-1,2-diamine + 1,4-dioxane; phases: Liquid
Fixed: Pressure, kPa = 101
Fixed: Temperature, K = 298.15
Fixed: Frequency, MHz = 2
Property: Speed of sound, m/s (Liquid); method: Linear variable-path acoustic interferometer
Mole fraction of 1,4-dioxane	Speed of sound, m/s	uncertainty
0	1670.8	2
0.08	1625.9	1.9
0.1636	1585.3	1.8
0.2511	1546.2	1.8
0.3428	1506.8	1.7
0.385	1488.8	1.7
0.5399	1428.4	1.6
0.6461	1395.1	1.6
0.7578	1369.6	1.5
0.8756	1353.7	1.5
1	1343.4	1.4

System: 1,2-dichloroethane + 1,4-dioxane; phases: Liquid
Fixed: Pressure, kPa = 101
Property: Mass density, kg/m3 (Liquid); method: Vibrating tube method
Temperature, K	Mole fraction of 1,4-dioxane	Mass density, kg/m3	uncertainty
298.15	0	1246.37	0.16
298.15	0.0934	1221.34	0.19
298.15	0.1881	1197.17	0.18
298.15	0.2843	1173.99	0.17
298.15	0.3819	1151.77	0.17
298.15	0.4258	1142.09	0.16
298.15	0.5816	1109.56	0.15
298.15	0.6838	1089.25	0.15
298.15	0.7875	1069.16	0.14
298.15	0.8929	1048.86	0.14
298.15	1	1027.79	0.11
308.15	0	1231.21	0.16
308.15	0.0934	1206.17	0.19
308.15	0.1881	1182.34	0.18
308.15	0.2843	1159.5	0.17
308.15	0.3819	1137.63	0.16
308.15	0.4258	1128.16	0.16
308.15	0.5816	1096.17	0.15
308.15	0.6838	1076.38	0.14
308.15	0.7875	1056.58	0.14
308.15	0.8929	1036.88	0.14
308.15	1	1016.78	0.11
318.15	0	1214.55	0.16
318.15	0.0934	1189.14	0.18
318.15	0.1881	1164.97	0.17
318.15	0.2843	1141.96	0.17
318.15	0.3819	1120	0.16
318.15	0.4258	1110.67	0.15
318.15	0.5816	1079.43	0.15
318.15	0.6838	1060.46	0.14
318.15	0.7875	1042.21	0.14
318.15	0.8929	1024.08	0.13
318.15	1	1005.24	0.11

System: 1,2-dichloroethane + 1,4-dioxane; phases: Liquid
Fixed: Pressure, kPa = 101
Property: Viscosity, Pa*s (Liquid); method: Capillary tube (Ostwald; Ubbelohde) method
Temperature, K	Mole fraction of 1,4-dioxane	Viscosity, Pa*s	uncertainty
298.15	0	0.0007804	2.39e-05
298.15	0.0934	0.0008045	2.46e-05
298.15	0.1881	0.0008332	2.55e-05
298.15	0.2843	0.000864	2.64e-05
298.15	0.3819	0.0008974	2.74e-05
298.15	0.4258	0.0009132	2.79e-05
298.15	0.5816	0.0009729	2.97e-05
298.15	0.6838	0.0010159	3.1e-05
298.15	0.7875	0.0010636	3.25e-05
298.15	0.8929	0.0011171	3.41e-05
298.15	1	0.0011777	3.59e-05
308.15	0	0.0006744	2.06e-05
308.15	0.0934	0.0006918	2.12e-05
308.15	0.1881	0.0007127	2.18e-05
308.15	0.2843	0.000737	2.25e-05
308.15	0.3819	0.0007628	2.33e-05
308.15	0.4258	0.0007747	2.37e-05
308.15	0.5816	0.0008211	2.51e-05
308.15	0.6838	0.0008551	2.61e-05
308.15	0.7875	0.0008949	2.73e-05
308.15	0.8929	0.0009435	2.88e-05
308.15	1	0.0010094	3.08e-05
318.15	0	0.0005719	1.75e-05
318.15	0.0934	0.0005856	1.79e-05
318.15	0.1881	0.0006042	1.85e-05
318.15	0.2843	0.0006266	1.92e-05
318.15	0.3819	0.0006499	1.99e-05
318.15	0.4258	0.0006611	2.02e-05
318.15	0.5816	0.000705	2.16e-05
318.15	0.6838	0.0007374	2.26e-05
318.15	0.7875	0.000775	2.37e-05
318.15	0.8929	0.0008234	2.52e-05
318.15	1	0.0008896	2.72e-05

System: 1,2-dichloroethane + 1,4-dioxane; phases: Liquid
Fixed: Pressure, kPa = 101
Fixed: Temperature, K = 298.15
Fixed: Frequency, MHz = 2
Property: Speed of sound, m/s (Liquid); method: Linear variable-path acoustic interferometer
Mole fraction of 1,4-dioxane	Speed of sound, m/s	uncertainty
0	1193.6	1.3
0.0934	1198.9	1.3
0.1881	1204.7	1.3
0.2843	1211.7	1.3
0.3819	1218.7	1.4
0.4258	1222.7	1.4
0.5816	1240.4	1.4
0.6838	1256.1	1.4
0.7875	1277.4	1.4
0.8929	1306.8	1.4
1	1343.4	1.4

System: 1,4-dioxane + 2-aminoethan-1-ol; phases: Liquid
Fixed: Pressure, kPa = 101
Property: Mass density, kg/m3 (Liquid); method: Vibrating tube method
Temperature, K	Mole fraction of 1,4-dioxane	Mass density, kg/m3	uncertainty
298.15	0	1011.79	0.24
298.15	0.0597	1015.53	0.23
298.15	0.1251	1018.05	0.21
298.15	0.1969	1020.39	0.2
298.15	0.276	1022.47	0.18
298.15	0.3639	1024.23	0.17
298.15	0.4618	1025.64	0.15
298.15	0.5716	1026.41	0.14
298.15	0.6958	1027.09	0.13
298.15	0.8373	1027.58	0.12
298.15	1	1027.79	0.11
308.15	0	1004.68	0.23
308.15	0.0597	1007.5	0.22
308.15	0.1251	1010.07	0.21
308.15	0.1969	1011.65	0.19
308.15	0.276	1013.21	0.18
308.15	0.3639	1014.47	0.16
308.15	0.4618	1015.23	0.15
308.15	0.5716	1015.49	0.14
308.15	0.6958	1015.74	0.12
308.15	0.8373	1016.22	0.12
308.15	1	1016.78	0.11
318.15	0	998.15	0.23
318.15	0.0597	1000.35	0.22
318.15	0.1251	1001.77	0.2
318.15	0.1969	1003.06	0.19
318.15	0.276	1004.08	0.17
318.15	0.3639	1004.75	0.16
318.15	0.4618	1004.92	0.14
318.15	0.5716	1005.06	0.13
318.15	0.6958	1004.96	0.12
318.15	0.8373	1005.1	0.11
318.15	1	1005.24	0.11

System: 1,4-dioxane + 2-aminoethan-1-ol; phases: Liquid
Fixed: Pressure, kPa = 101
Property: Viscosity, Pa*s (Liquid); method: Capillary tube (Ostwald; Ubbelohde) method
Temperature, K	Mole fraction of 1,4-dioxane	Viscosity, Pa*s	uncertainty
298.15	0	0.0189538	0.0005814
298.15	0.0597	0.016054	0.0004923
298.15	0.1251	0.0133865	0.0004101
298.15	0.1969	0.0109652	0.0003356
298.15	0.276	0.0087983	0.0002691
298.15	0.3639	0.0068921	0.0002107
298.15	0.4618	0.0052493	0.0001605
298.15	0.5716	0.0038676	0.0001182
298.15	0.6958	0.0027386	8.36e-05
298.15	0.8373	0.0018488	5.64e-05
298.15	1	0.0011777	3.59e-05
308.15	0	0.011963	0.0003673
308.15	0.0597	0.0103163	0.0003167
308.15	0.1251	0.0087723	0.0002691
308.15	0.1969	0.0073404	0.000225
308.15	0.276	0.0060311	0.0001848
308.15	0.3639	0.0048507	0.0001486
308.15	0.4618	0.0038043	0.0001164
308.15	0.5716	0.002898	8.86e-05
308.15	0.6958	0.0021319	6.51e-05
308.15	0.8373	0.0015061	4.6e-05
308.15	1	0.0010094	3.08e-05
318.15	0	0.0079132	0.0002433
318.15	0.0597	0.0069395	0.0002133
318.15	0.1251	0.0060097	0.0001846
318.15	0.1969	0.0051318	0.0001576
318.15	0.276	0.0043215	0.0001326
318.15	0.3639	0.0035555	0.000109
318.15	0.4618	0.0028675	8.78e-05
318.15	0.5716	0.0022547	6.9e-05
318.15	0.6958	0.0017194	5.25e-05
318.15	0.8373	0.0012664	3.87e-05
318.15	1	0.0008896	2.72e-05

System: 1,4-dioxane + 2-aminoethan-1-ol; phases: Liquid
Fixed: Pressure, kPa = 101
Fixed: Temperature, K = 298.15
Fixed: Frequency, MHz = 2
Property: Speed of sound, m/s (Liquid); method: Linear variable-path acoustic interferometer
Mole fraction of 1,4-dioxane	Speed of sound, m/s	uncertainty
0	1716.8	2
0.0597	1696.8	2
0.1251	1677.7	1.9
0.1969	1654.2	1.9
0.276	1626.7	1.8
0.3639	1593.6	1.8
0.4618	1557.5	1.7
0.5716	1517.9	1.7
0.6958	1471.8	1.6
0.8373	1417.1	1.5
1	1343.4	1.4
