Measured thermophysical data. Isobaric vapour liquid equilibria of binary 1-propoxy-2-propanol mixtures with water and alcohols at reduced pressure
Source: Fluid Phase Equilib., 2008, 10.1016/j.fluid.2008.06.022
Compound 1: methanol, CH4O, InChI=1S/CH4O/c1-2/h2H,1H3
Compound 2: butan-2-ol, C4H10O, InChI=1S/C4H10O/c1-3-4(2)5/h4-5H,3H2,1-2H3
Compound 3: 1-propoxy-2-propanol, C6H14O2, InChI=1S/C6H14O2/c1-3-4-8-5-6(2)7/h6-7H,3-5H2,1-2H3
Compound 4: hexan-1-ol, C6H14O, InChI=1S/C6H14O/c1-2-3-4-5-6-7/h7H,2-6H2,1H3
Compound 5: ethanol, C2H6O, InChI=1S/C2H6O/c1-2-3/h3H,2H2,1H3
Compound 6: water, H2O, InChI=1S/H2O/h1H2

System: 1-propoxy-2-propanol; phases: Liquid, Gas
Property: Vapor or sublimation pressure, kPa (Liquid); method: EBULLIO:UFactor:2
Temperature, K	Vapor or sublimation pressure, kPa	uncertainty
298.15	0.341	0.016
303.15	0.481	0.016
308.15	0.672	0.016
313.15	0.937	0.016
318.15	1.271	0.018
323.15	1.707	0.02
328.15	2.256	0.023
333.15	2.967	0.028
338.15	3.839	0.034
343.15	4.951	0.043
348.15	6.29	0.053
353.15	7.963	0.066
358.15	9.95	0.082
363.15	12.385	0.102
368.15	15.265	0.125
373.15	18.697	0.152
378.15	22.649	0.184
383.15	27.424	0.223
388.15	32.801	0.266
393.15	39.182	0.318
398.15	46.384	0.376
403.15	54.753	0.443
408.15	64.103	0.519
413.15	74.983	0.607

System: methanol + 1-propoxy-2-propanol; phases: Liquid, Gas
Fixed: Pressure, kPa = 20
Property: Boiling temperature at pressure P, K (Liquid); method: EBULLIO:UFactor:2
Mole fraction of 1-propoxy-2-propanol	Boiling temperature at pressure P, K	uncertainty
0	301.3	0.3
0.006	301.7	0.3
0.013	301.8	0.3
0.03	302.1	0.3
0.055	302.6	0.3
0.089	303.2	0.3
0.122	304.1	0.3
0.162	304.8	0.3
0.197	305.6	0.3
0.241	306.5	0.3
0.284	307.4	0.3
0.354	309.2	0.3
0.413	311	0.4
0.461	312.8	0.4
0.509	314.6	0.4
0.559	317	0.4
0.575	317.7	0.4
0.596	318.9	0.4
0.626	320.3	0.5
0.685	324.3	0.5
0.697	325	0.5
0.736	328.1	0.6
0.787	333	0.6
0.815	334.7	0.9
0.903	347.9	1
0.932	353.8	1.7
0.999	374.4	0.4
1	374.9	0.3

System: methanol + 1-propoxy-2-propanol; phases: Gas, Liquid
Fixed: Pressure, kPa = 20
Property: Mole fraction of 1-propoxy-2-propanol (Gas); method: Chromatography
Mole fraction of 1-propoxy-2-propanol	Mole fraction of 1-propoxy-2-propanol	uncertainty
0.006	0.0003	0.0003
0.013	0.001	0.001
0.03	0.001	0.001
0.055	0.001	0.001
0.089	0.002	0.002
0.122	0.003	0.003
0.162	0.004	0.004
0.197	0.005	0.005
0.241	0.007	0.006
0.284	0.009	0.006
0.354	0.012	0.006
0.413	0.017	0.006
0.461	0.02	0.006
0.509	0.024	0.006
0.559	0.028	0.006
0.575	0.03	0.006
0.596	0.033	0.006
0.626	0.041	0.006
0.685	0.059	0.008
0.697	0.068	0.007
0.736	0.081	0.007
0.787	0.11	0.007
0.815	0.13	0.011
0.903	0.288	0.014
0.932	0.38	0.046
0.999	0.983	0.011

System: ethanol + 1-propoxy-2-propanol; phases: Liquid, Gas
Fixed: Pressure, kPa = 20
Property: Boiling temperature at pressure P, K (Liquid); method: EBULLIO:UFactor:2
Mole fraction of 1-propoxy-2-propanol	Boiling temperature at pressure P, K	uncertainty
0	315.4	0.3
0.032	315.8	0.3
0.062	316.4	0.3
0.094	317	0.3
0.129	317.6	0.3
0.154	317.9	0.3
0.164	318.1	0.3
0.194	318.8	0.3
0.317	321.2	0.3
0.329	321.4	0.3
0.37	322.5	0.3
0.372	322.7	0.3
0.437	324.1	0.3
0.509	326.5	0.4
0.556	328.2	0.4
0.621	330.7	0.4
0.693	334.4	0.5
0.768	339	0.5
0.832	344.3	0.7
0.9	351.9	1
0.979	368.2	1.8
0.98	369.1	1.5
0.992	372.1	1.7
1	374.8	0.3

System: ethanol + 1-propoxy-2-propanol; phases: Gas, Liquid
Fixed: Pressure, kPa = 20
Property: Mole fraction of 1-propoxy-2-propanol (Gas); method: Chromatography
Mole fraction of 1-propoxy-2-propanol	Mole fraction of 1-propoxy-2-propanol	uncertainty
0.032	0.002	0.002
0.062	0.004	0.004
0.094	0.007	0.006
0.129	0.009	0.006
0.154	0.011	0.006
0.164	0.012	0.006
0.194	0.015	0.006
0.317	0.028	0.006
0.329	0.029	0.006
0.37	0.034	0.006
0.372	0.035	0.006
0.437	0.043	0.006
0.509	0.057	0.006
0.556	0.068	0.006
0.621	0.087	0.006
0.693	0.117	0.007
0.768	0.164	0.008
0.832	0.224	0.011
0.9	0.351	0.022
0.979	0.744	0.064
0.98	0.757	0.062
0.992	0.881	0.062

System: butan-2-ol + 1-propoxy-2-propanol; phases: Liquid, Gas
Fixed: Pressure, kPa = 20
Property: Boiling temperature at pressure P, K (Liquid); method: EBULLIO:UFactor:2
Mole fraction of 1-propoxy-2-propanol	Boiling temperature at pressure P, K	uncertainty
0	335.2	0.3
0.007	335.3	0.3
0.026	335.6	0.3
0.064	336.2	0.3
0.114	337.1	0.3
0.174	338.2	0.3
0.233	339.4	0.3
0.284	340.5	0.3
0.341	341.8	0.3
0.392	343.4	0.3
0.439	344.4	0.3
0.48	345.6	0.4
0.578	349.6	0.4
0.654	352.3	0.4
0.709	354.6	0.4
0.754	356.6	0.4
0.813	359.7	0.5
0.88	364.4	0.5
0.899	365.7	0.6
0.925	367.9	0.7
0.94	369.7	0.7
0.975	372.9	0.6
0.991	374.1	0.6
0.998	374.8	0.4
1	374.9	0.3

System: butan-2-ol + 1-propoxy-2-propanol; phases: Gas, Liquid
Fixed: Pressure, kPa = 20
Property: Mole fraction of 1-propoxy-2-propanol (Gas); method: Chromatography
Mole fraction of 1-propoxy-2-propanol	Mole fraction of 1-propoxy-2-propanol	uncertainty
0.007	0.001	0.001
0.026	0.003	0.003
0.064	0.009	0.006
0.114	0.017	0.006
0.174	0.029	0.006
0.233	0.043	0.006
0.284	0.057	0.006
0.341	0.075	0.006
0.392	0.094	0.007
0.439	0.114	0.007
0.48	0.133	0.007
0.578	0.191	0.007
0.654	0.249	0.008
0.709	0.303	0.009
0.754	0.355	0.011
0.813	0.444	0.013
0.88	0.578	0.014
0.899	0.622	0.018
0.925	0.699	0.019
0.94	0.746	0.022
0.975	0.871	0.024
0.991	0.948	0.031
0.998	0.991	0.009

System: hexan-1-ol + 1-propoxy-2-propanol; phases: Liquid, Gas
Fixed: Pressure, kPa = 20
Property: Boiling temperature at pressure P, K (Liquid); method: EBULLIO:UFactor:2
Mole fraction of 1-propoxy-2-propanol	Boiling temperature at pressure P, K	uncertainty
0	386.1	0.3
0.029	386	0.3
0.058	385.7	0.3
0.091	385.5	0.3
0.138	385	0.3
0.191	384.5	0.3
0.241	384.1	0.3
0.278	383.7	0.3
0.316	383.3	0.3
0.381	382.6	0.3
0.439	381.9	0.3
0.499	381.2	0.3
0.554	380.5	0.3
0.615	379.8	0.3
0.685	378.8	0.3
0.73	378.2	0.3
0.779	377.6	0.3
0.832	376.9	0.3
0.884	376.3	0.3
0.917	375.9	0.3
0.945	375.5	0.3
1	374.9	0.3

System: hexan-1-ol + 1-propoxy-2-propanol; phases: Gas, Liquid
Fixed: Pressure, kPa = 20
Property: Mole fraction of 1-propoxy-2-propanol (Gas); method: Chromatography
Mole fraction of 1-propoxy-2-propanol	Mole fraction of 1-propoxy-2-propanol	uncertainty
0.029	0.039	0.01
0.058	0.078	0.01
0.091	0.123	0.01
0.138	0.186	0.01
0.191	0.255	0.01
0.241	0.318	0.01
0.278	0.365	0.01
0.316	0.412	0.01
0.381	0.488	0.011
0.439	0.555	0.01
0.499	0.619	0.01
0.554	0.673	0.009
0.615	0.733	0.009
0.685	0.794	0.008
0.73	0.829	0.008
0.779	0.866	0.008
0.832	0.903	0.007
0.884	0.936	0.007
0.917	0.955	0.007
0.945	0.974	0.007

System: 1-propoxy-2-propanol + water; phases: Liquid, Gas
Fixed: Pressure, kPa = 20
Property: Boiling temperature at pressure P, K (Liquid); method: EBULLIO:UFactor:2
Mole fraction of 1-propoxy-2-propanol	Boiling temperature at pressure P, K	uncertainty
0	333.3	0.3
0.009	332.4	0.6
0.016	331.9	0.4
0.022	331.8	0.3
0.028	331.7	0.3
0.035	331.7	0.3
0.038	331.7	0.3
0.039	331.7	0.3
0.042	331.7	0.3
0.042	331.7	0.3
0.072	331.7	0.3
0.449	331.7	0.3
0.525	331.7	0.3
0.656	332.9	0.3
0.769	335.8	0.4
0.814	339	0.6
0.897	346.2	1.2
0.915	349.6	1.2
0.94	354.8	1.6
0.956	360.3	2
1	374.9	0.3

System: 1-propoxy-2-propanol + water; phases: Gas, Liquid
Fixed: Pressure, kPa = 20
Property: Mole fraction of 1-propoxy-2-propanol (Gas); method: Chromatography
Mole fraction of 1-propoxy-2-propanol	Mole fraction of 1-propoxy-2-propanol	uncertainty
0.009	0.087	0.021
0.016	0.11	0.015
0.022	0.123	0.012
0.028	0.131	0.01
0.035	0.133	0.006
0.038	0.133	0.006
0.039	0.133	0.006
0.042	0.133	0.006
0.042	0.134	0.006
0.072	0.134	0.006
0.449	0.135	0.006
0.525	0.136	0.006
0.656	0.137	0.006
0.769	0.165	0.007
0.814	0.198	0.007
0.897	0.252	0.012
0.915	0.282	0.013
0.94	0.334	0.026
0.956	0.462	0.049
