Measured thermophysical data. Liquid-liquid equilibria for the extraction of phenols from alkane using ethylene glycol
Source: Fluid Phase Equilib., 2016, 10.1016/j.fluid.2016.03.003
Compound 1: heptane, C7H16, InChI=1S/C7H16/c1-3-5-7-6-4-2/h3-7H2,1-2H3, purity 99.97%
Compound 2: phenol, C6H6O, InChI=1S/C6H6O/c7-6-4-2-1-3-5-6/h1-5,7H, purity 99.9%
Compound 3: 2-methylphenol, C7H8O, InChI=1S/C7H8O/c1-6-4-2-3-5-7(6)8/h2-5,8H,1H3, purity 99.26%
Compound 4: 3-methylphenol, C7H8O, InChI=1S/C7H8O/c1-6-3-2-4-7(8)5-6/h2-5,8H,1H3, purity 99.19%
Compound 5: 4-methylphenol, C7H8O, InChI=1S/C7H8O/c1-6-2-4-7(8)5-3-6/h2-5,8H,1H3, purity 99.37%
Compound 6: 1,2-ethanediol, C2H6O2, InChI=1S/C2H6O2/c3-1-2-4/h3-4H,1-2H2, purity 99.59%

System: 1,2-ethanediol + phenol + heptane; phases: Liquid mixture 1, Liquid mixture 2
Fixed: Pressure, kPa = 101
Property: Mass fraction of heptane (Liquid mixture 1); method: Chromatography
Property: Mass fraction of heptane (Liquid mixture 2); method: Chromatography
Property: Mass fraction of phenol (Liquid mixture 2); method: Chromatography
Temperature, K	Mass fraction of phenol	Mass fraction of heptane	uncertainty	Mass fraction of heptane	uncertainty	Mass fraction of phenol	uncertainty
323.15	0.0018	0.9979	0.0021	0.0026	0.0026	0.0538	
343.15	0.0042	0.9958	0.0042	0.0124	0.006	0.1574	
343.15	0.007	0.9929	0.0071	0.0182	0.006	0.2248	
343.15	0.0112	0.9888	0.0085	0.0217	0.006	0.329	
343.15	0.0146	0.9852	0.0085	0.0308	0.006	0.3981	
343.15	0.0212	0.9786	0.0085	0.0395	0.0061	0.4779	
343.15	0.0283	0.9715	0.0087	0.0522	0.0062	0.5406	
343.15	0.0405	0.9585	0.0087	0.0714	0.0061	0.5938	
343.15	0.0599	0.9386	0.0086	0.0716	0.006	0.6616	
323.15	0.0039	0.9959	0.0041	0.0057	0.0057	0.1712	
323.15	0.0063	0.9934	0.0066	0.0084	0.006	0.2497	
323.15	0.009	0.9908	0.0085	0.0125	0.006	0.3195	
323.15	0.0121	0.9877	0.0085	0.0174	0.006	0.3892	
323.15	0.0184	0.9813	0.0086	0.0263	0.0061	0.5027	
323.15	0.0316	0.9678	0.0085	0.0486	0.0062	0.6263	
323.15	0.0404	0.9591	0.0084	0.0673	0.0063	0.6835	
343.15	0.0018	0.998	0.002	0.0033	0.0033	0.0383	

System: 2-methylphenol + 1,2-ethanediol + heptane; phases: Liquid mixture 1, Liquid mixture 2
Fixed: Pressure, kPa = 101
Property: Mass fraction of heptane (Liquid mixture 1); method: Chromatography
Property: Mass fraction of heptane (Liquid mixture 2); method: Chromatography
Property: Mass fraction of 2-methylphenol (Liquid mixture 2); method: Chromatography
Temperature, K	Mass fraction of 2-methylphenol	Mass fraction of heptane	uncertainty	Mass fraction of heptane	uncertainty	Mass fraction of 2-methylphenol	uncertainty
323.15	0.002	0.998	0.002	0.0021	0.0021	0.0294	
343.15	0.0168	0.9829	0.0085	0.0059	0.0059	0.1522	
343.15	0.022	0.9779	0.0085	0.0103	0.006	0.2347	
343.15	0.0295	0.9703	0.0085	0.0166	0.006	0.309	
343.15	0.0371	0.9628	0.0086	0.0229	0.0061	0.3693	
343.15	0.0478	0.9515	0.0086	0.0315	0.0061	0.4205	
343.15	0.0609	0.9385	0.0086	0.0458	0.0062	0.4842	
343.15	0.0754	0.9231	0.0087	0.0624	0.0065	0.527	
343.15	0.0928	0.9049	0.0087	0.0778	0.0066	0.5613	
323.15	0.0058	0.9941	0.0059	0.0038	0.0038	0.1053	
323.15	0.0106	0.9892	0.0085	0.0065	0.006	0.1834	
323.15	0.0151	0.9847	0.0085	0.0122	0.006	0.2834	
323.15	0.0231	0.9768	0.0085	0.0225	0.0061	0.3821	
323.15	0.0324	0.9675	0.0085	0.0351	0.0061	0.4525	
323.15	0.0446	0.9553	0.0085	0.0537	0.0064	0.524	
323.15	0.073	0.9268	0.0085	0.0913	0.0067	0.599	
343.15	0.0041	0.9958	0.0042	0.003	0.003	0.0462	

System: 1,2-ethanediol + 3-methylphenol + heptane; phases: Liquid mixture 1, Liquid mixture 2
Fixed: Pressure, kPa = 101
Property: Mass fraction of heptane (Liquid mixture 1); method: Chromatography
Property: Mass fraction of heptane (Liquid mixture 2); method: Chromatography
Property: Mass fraction of 3-methylphenol (Liquid mixture 2); method: Chromatography
Temperature, K	Mass fraction of 3-methylphenol	Mass fraction of heptane	uncertainty	Mass fraction of heptane	uncertainty	Mass fraction of 3-methylphenol	uncertainty
323.15	0.0021	0.9968	0.0032	0.0027	0.0027	0.0415	
343.15	0.0086	0.9909	0.0086	0.0062	0.006	0.1366	
343.15	0.0156	0.9837	0.0086	0.0102	0.006	0.2203	
343.15	0.0169	0.9829	0.0086	0.0156	0.006	0.2889	
343.15	0.0234	0.9758	0.0087	0.0229	0.0061	0.3582	
343.15	0.03	0.9693	0.0083	0.0344	0.0061	0.4135	
343.15	0.0344	0.9649	0.0086	0.0465	0.0062	0.4693	
343.15	0.0381	0.9617	0.0086	0.0616	0.0067	0.513	
343.15	0.0632	0.9353	0.0087	0.0974	0.007	0.5752	
323.15	0.0053	0.9939	0.0061	0.0055	0.0055	0.1454	
323.15	0.0064	0.9935	0.0065	0.0113	0.006	0.2352	
323.15	0.0078	0.9921	0.0079	0.0185	0.006	0.323	
323.15	0.0163	0.9836	0.0085	0.0314	0.0061	0.4186	
323.15	0.0171	0.9828	0.0085	0.0425	0.0062	0.4728	
323.15	0.0215	0.9784	0.0085	0.056	0.0064	0.5131	
323.15	0.0301	0.9698	0.0085	0.0736	0.0065	0.5588	
343.15	0.0035	0.9964	0.0036	0.0032	0.0032	0.044	

System: 4-methylphenol + 1,2-ethanediol + heptane; phases: Liquid mixture 1, Liquid mixture 2
Fixed: Pressure, kPa = 101
Property: Mass fraction of heptane (Liquid mixture 1); method: Chromatography
Property: Mass fraction of heptane (Liquid mixture 2); method: Chromatography
Property: Mass fraction of 4-methylphenol (Liquid mixture 2); method: Chromatography
Temperature, K	Mass fraction of 4-methylphenol	Mass fraction of heptane	uncertainty	Mass fraction of heptane	uncertainty	Mass fraction of 4-methylphenol	uncertainty
323.15	0.0019	0.9979	0.0021	0.0025	0.0025	0.0328	
343.15	0.0071	0.9925	0.0075	0.0061	0.006	0.1365	
343.15	0.0109	0.9887	0.0085	0.0075	0.006	0.1702	
343.15	0.0152	0.9847	0.0085	0.0116	0.006	0.2419	
343.15	0.0216	0.9781	0.0085	0.0189	0.006	0.3142	
343.15	0.0252	0.9741	0.0085	0.0273	0.0061	0.3735	
343.15	0.0283	0.9715	0.0084	0.0528	0.0063	0.4769	
343.15	0.0397	0.9602	0.0085	0.085	0.0066	0.5464	
323.15	0.0041	0.9958	0.0042	0.0047	0.0047	0.1202	
323.15	0.006	0.9937	0.0063	0.0072	0.006	0.1963	
323.15	0.0072	0.9926	0.0074	0.0131	0.006	0.2673	
323.15	0.0099	0.99	0.0085	0.0224	0.0061	0.3443	
323.15	0.0116	0.9882	0.0085	0.0327	0.0061	0.416	
323.15	0.0197	0.98	0.0087	0.0462	0.0063	0.4743	
323.15	0.028	0.9709	0.0089	0.0716	0.0064	0.547	
343.15	0.0025	0.9974	0.0026	0.0034	0.0034	0.045	
