Measured thermophysical data. High pressure phase behavior of the binary system (ethyl lactate + carbon dioxide)
Source: Fluid Phase Equilib., 2013, 10.1016/j.fluid.2013.09.024
Compound 1: DL-ethyl lactate, C5H10O3, InChI=1S/C5H10O3/c1-3-8-5(7)4(2)6/h4,6H,3H2,1-2H3, purity 98%
Compound 2: carbon dioxide, CO2, InChI=1S/CO2/c2-1-3, purity 99.998%

System: DL-ethyl lactate + carbon dioxide; phases: Liquid, Gas
Property: Boiling temperature at pressure P, K (Liquid); method: Closed cell (Static) method
Pressure, kPa	Mole fraction of carbon dioxide	Boiling temperature at pressure P, K	uncertainty
3610	0.4098	313.2	4.9
4180	0.4595	313.2	4.2
4980	0.5331	313.2	3.6
6380	0.7049	313.2	1.9
6810	0.7942	313.2	1.5
7800	0.952	313.2	1.3
7860	0.9637	313.2	1.3
8040	0.9744	313.2	1.4
8100	0.9861	313.2	1.4
4550	0.4098	333.2	3.8
6350	0.5331	333.2	3.3
6830	0.5659	333.2	3.1
7420	0.6153	333.2	2.2
8340	0.6881	333.2	2.2
9610	0.7942	333.2	1.8
10930	0.952	333.2	1.5
6100	0.4098	353.2	3.5
6830	0.4595	353.2	3.4
8210	0.5331	353.2	3.4
9530	0.6153	353.2	2.4
10670	0.6885	353.2	2.9
12480	0.7942	353.2	1.7
13590	0.952	353.2	2
13390	0.9637	353.2	2
7380	0.4098	373.2	5
8260	0.4595	373.2	3.8
9910	0.5331	373.2	3.9
11620	0.6153	373.2	3.6
13880	0.7049	373.2	3.2
14550	0.7942	373.2	2
7910	0.4098	393.2	10.1
9720	0.4595	393.2	4.1
11100	0.5331	393.2	4.9
13500	0.6153	393.2	2.4
13620	0.6277	393.2	3.6
15950	0.7049	393.2	2.2
16860	0.7942	393.2	2

System: DL-ethyl lactate + carbon dioxide; phases: Gas, Liquid
Property: Vapor or sublimation pressure, kPa (Gas); method: Closed cell (Static) method
Temperature, K	Mole fraction of carbon dioxide	Vapor or sublimation pressure, kPa	uncertainty
313.2	0.9937	8170	140
313.2	0.9949	8040	140
313.2	0.9955	7970	140
313.2	0.9965	7790	140
333.2	0.9744	10900	140
333.2	0.9861	10680	140
333.2	0.9901	10460	170
333.2	0.9934	8920	140
333.2	0.9951	7380	140
353.2	0.9637	13390	150
353.2	0.9744	12150	140
353.2	0.9861	12060	140
353.2	0.9901	10830	140
373.2	0.9637	14550	150
373.2	0.9744	12000	140
373.2	0.9861	12340	140
373.2	0.9901	11590	140
393.2	0.952	15860	150
393.2	0.9861	12620	140
393.2	0.9744	12520	140

System: DL-ethyl lactate + carbon dioxide; phases: Liquid, Gas
Property: Critical pressure, kPa (Liquid); method: Direct measurement
Mole fraction of carbon dioxide	Critical pressure, kPa	uncertainty
0.9637	10810	140
0.952	15450	140

System: DL-ethyl lactate + carbon dioxide; phases: Liquid, Gas
Property: Critical temperature, K (Liquid); method: Visual observation in a stirred cell
Mole fraction of carbon dioxide	Critical temperature, K	uncertainty
0.9637	333.2	0.2
0.952	373.2	0.2
