Measured thermophysical data. Solubility of CO in the ionic liquid [bmim][PF6]
Source: Fluid Phase Equilib., 2005, 10.1016/j.fluid.2004.07.015
Compound 1: 1-butyl-3-methylimidazolium hexafluorophosphate, C8H15F6N2P, InChI=1S/C8H15N2.F6P/c1-3-4-5-10-7-6-9(2)8-10;1-7(2,3,4,5)6/h6-8H,3-5H2,1-2H3;/q+1;-1, purity 99%
Compound 2: carbon monoxide, CO, InChI=1S/CO/c1-2, purity 99.97%

System: 1-butyl-3-methylimidazolium hexafluorophosphate; phases: Liquid
Fixed: Pressure, kPa = 101.325
Property: Mass density, kg/m3 (Liquid); method: VIBTUB:UFactor:16
Temperature, K	Mass density, kg/m3	uncertainty
289.1	1372.6	3
291.1	1370.8	2.9
293.1	1369.1	2.9
295.1	1367.4	2.9
297.05	1365.8	2.9
299.1	1364.1	2.9
301.05	1362.4	2.9
303.15	1360.6	2.9
305.1	1359	2.9
307.15	1357.3	2.9
309.15	1355.6	2.9

System: carbon monoxide + 1-butyl-3-methylimidazolium hexafluorophosphate; phases: Liquid, Gas
Property: Vapor or sublimation pressure, kPa (Liquid); method: CCELL:UFactor:8
Temperature, K	Molality, mol/kg of carbon monoxide	Vapor or sublimation pressure, kPa	uncertainty
293.2	0.02223	1247	31
293.2	0.03469	1960	49
293.2	0.04839	2763	69
293.2	0.06144	3530	88
293.2	0.08323	4885	122
293.2	0.105	6258	156
293.2	0.12686	7653	190
293.2	0.14879	9167	228
313.8	0.02851	1611	40
313.8	0.04275	2477	62
313.8	0.05696	3298	82
313.8	0.07117	4147	103
313.8	0.08693	5081	126
313.8	0.10725	6268	156
313.8	0.12392	7317	182
313.8	0.14092	8515	212
334.05	0.01612	887	22
334.05	0.04165	2357	59
334.05	0.07678	4438	110
334.05	0.09645	5678	141
334.05	0.12046	7251	180
334.05	0.14156	8612	214
354.35	0.02686	1533	38
354.35	0.04487	2556	64
354.35	0.07014	4118	103
354.35	0.09529	5543	138
354.35	0.12495	7398	184
354.35	0.14783	8820	219
373.15	0.01365	768	19
373.15	0.02942	1690	42
373.15	0.03785	2137	53
373.15	0.05541	3165	79
373.15	0.07275	4199	105
373.15	0.09017	5173	129
373.15	0.12464	7262	181
373.15	0.15337	9023	225
