Measured thermophysical data. Liquid liquid equlibria of the mixture linalool + ethanol +water at different temperatures
Source: Fluid Phase Equilib., 2005, 10.1016/j.fluid.2005.09.009
Compound 1: 3,7-dimethyl-1,6-octadien-3-ol, C10H18O, InChI=1S/C10H18O/c1-5-10(4,11)8-6-7-9(2)3/h5,7,11H,1,6,8H2,2-4H3, purity 97%
Compound 2: ethanol, C2H6O, InChI=1S/C2H6O/c1-2-3/h3H,2H2,1H3, purity 99.9%
Compound 3: water, H2O, InChI=1S/H2O/h1H2, purity 99%

System: 3,7-dimethyl-1,6-octadien-3-ol; phases: Liquid
Property: Refractive index (Na D-line) (Liquid); method: Standard Abbe refractometry
Temperature, K	Pressure, kPa	Refractive index (Na D-line)	uncertainty
298.15	101.325	1.4595	0.0009

System: 3,7-dimethyl-1,6-octadien-3-ol; phases: Liquid
Property: Mass density, kg/m3 (Liquid); method: VIBTUB:UFactor:16
Temperature, K	Pressure, kPa	Mass density, kg/m3	uncertainty
298.15	101.325	858.08	2.24

System: ethanol; phases: Liquid
Property: Refractive index (Na D-line) (Liquid); method: Standard Abbe refractometry
Temperature, K	Pressure, kPa	Refractive index (Na D-line)	uncertainty
298.15	101.325	1.3593	0.0007

System: ethanol; phases: Liquid
Property: Mass density, kg/m3 (Liquid); method: VIBTUB:UFactor:2
Temperature, K	Pressure, kPa	Mass density, kg/m3	uncertainty
298.15	101.325	785.12	0.31

System: water; phases: Liquid
Property: Refractive index (Na D-line) (Liquid); method: Standard Abbe refractometry
Temperature, K	Pressure, kPa	Refractive index (Na D-line)	uncertainty
298.15	101.325	1.3325	0.0008

System: water; phases: Liquid
Property: Mass density, kg/m3 (Liquid); method: VIBTUB:UFactor:8
Temperature, K	Pressure, kPa	Mass density, kg/m3	uncertainty
298.15	101.325	997.06	0.61

System: ethanol + 3,7-dimethyl-1,6-octadien-3-ol + water; phases: Liquid mixture 1, Liquid mixture 2
Fixed: Pressure, kPa = 101.32
Property: Mole fraction of ethanol (Liquid mixture 1); method: CHROM:UFactor:8
Property: Mole fraction of 3,7-dimethyl-1,6-octadien-3-ol (Liquid mixture 2); method: CHROM:UFactor:8
Property: Mole fraction of ethanol (Liquid mixture 2); method: CHROM:UFactor:8
Temperature, K	Mole fraction of 3,7-dimethyl-1,6-octadien-3-ol	Mole fraction of ethanol	uncertainty	Mole fraction of 3,7-dimethyl-1,6-octadien-3-ol	uncertainty	Mole fraction of ethanol	uncertainty
293.15	0.118	0.352	0.022	0.01	0.002	0.223	
293.15	0.184	0.364	0.023	0.001	0.001	0.19	
293.15	0.303	0.344	0.021	0.001	0.001	0.144	
293.15	0.368	0.302	0.019	0.001	0.001	0.113	
293.15	0.419	0.268	0.017	0.001	0.001	0.103	
293.15	0.48	0.226	0.014	0.001	0.001	0.089	
293.15	0.562	0.165	0.01	0.001	0.001	0.057	
293.15	0.601	0.132	0.008	0.001	0.001	0.042	
293.15	0.666	0.079	0.005	0.001	0.001	0.025	
293.15	0.745	0	0.001	0.001	0.001	0	
303.15	0.109	0.328	0.02	0.011	0.002	0.215	
303.15	0.198	0.342	0.021	0.001	0.001	0.171	
303.15	0.238	0.335	0.021	0.001	0.001	0.156	
303.15	0.319	0.321	0.02	0.001	0.001	0.143	
303.15	0.379	0.299	0.019	0.001	0.001	0.133	
303.15	0.484	0.238	0.015	0.001	0.001	0.088	
303.15	0.578	0.173	0.011	0.001	0.001	0.06	
303.15	0.678	0.084	0.005	0.001	0.001	0.025	
303.15	0.785	0	0.001	0.001	0.001	0	
313.15	0.106	0.309	0.019	0.013	0.002	0.212	
313.15	0.235	0.328	0.02	0.001	0.001	0.168	
313.15	0.326	0.307	0.019	0.001	0.001	0.117	
313.15	0.462	0.24	0.015	0.001	0.001	0.086	
313.15	0.558	0.177	0.011	0.001	0.001	0.058	
313.15	0.656	0.093	0.006	0.001	0.001	0.028	
313.15	0.756	0	0.001	0.001	0.001	0	
323.15	0.126	0.298	0.018	0.011	0.002	0.198	
323.15	0.231	0.316	0.02	0.001	0.001	0.164	
323.15	0.34	0.292	0.018	0.001	0.001	0.123	
323.15	0.442	0.249	0.015	0.001	0.001	0.084	
323.15	0.544	0.172	0.011	0.001	0.001	0.051	
323.15	0.621	0.101	0.007	0.001	0.001	0.024	
323.15	0.741	0	0.001	0.001	0.001	0	
