Measured thermophysical data. Thermophysical properties of dimethylsulfoxide with ionic liquids at various temperatures
Source: Fluid Phase Equilib., 2011, 10.1016/j.fluid.2011.02.010
Compound 1: dimethyl sulfoxide, C2H6OS, InChI=1S/C2H6OS/c1-4(2)3/h1-2H3, purity 99%
Compound 2: 1-butyl-3-methylimidazolium chloride, C8H15ClN2, InChI=1S/C8H15N2.ClH/c1-3-4-5-10-7-6-9(2)8-10;/h6-8H,3-5H2,1-2H3;1H/q+1;/p-1, purity 98%
Compound 3: diethylammonium hydrogen sulfate, C4H13NO4S, InChI=1S/C4H11N.H2O4S/c1-3-5-4-2;1-5(2,3)4/h5H,3-4H2,1-2H3;(H2,1,2,3,4)

System: dimethyl sulfoxide; phases: Liquid
Fixed: Pressure, kPa = 101
Property: Viscosity, Pa*s (Liquid); method: VIBWIR:UFactor:16
Temperature, K	Viscosity, Pa*s	uncertainty
298.15	0.00199	0.00019
303.15	0.0018	0.00017
308.15	0.00165	0.00016
318.15	0.00138	0.00015
328.15	0.00104	0.00013

System: dimethyl sulfoxide; phases: Liquid
Fixed: Pressure, kPa = 101
Fixed: Frequency, MHz = 2
Property: Speed of sound, m/s (Liquid); method: FPINT:UFactor:12
Temperature, K	Speed of sound, m/s	uncertainty
298.15	1496	9
303.15	1472	9
308.15	1460	9
318.15	1428	9
328.15	1412	8

System: dimethyl sulfoxide; phases: Liquid
Fixed: Pressure, kPa = 101
Property: Mass density, kg/m3 (Liquid); method: VIBTUB:UFactor:8
Temperature, K	Mass density, kg/m3	uncertainty
298.15	1095.37	10.03
303.15	1092.41	10.02
308.15	1086.07	10.02
318.15	1076.22	10.02
328.15	1066.09	10.02

System: 1-butyl-3-methylimidazolium chloride; phases: Liquid
Fixed: Pressure, kPa = 101
Property: Viscosity, Pa*s (Liquid); method: VIBWIR:UFactor:16
Temperature, K	Viscosity, Pa*s	uncertainty
298.15	0.02921	0.00189
303.15	0.02572	0.00168
308.15	0.02121	0.00139
318.15	0.01897	0.00125
328.15	0.01674	0.00111

System: 1-butyl-3-methylimidazolium chloride; phases: Liquid
Fixed: Pressure, kPa = 101
Fixed: Frequency, MHz = 2
Property: Speed of sound, m/s (Liquid); method: FPINT:UFactor:12
Temperature, K	Speed of sound, m/s	uncertainty
298.15	1868	11
303.15	1860	11
308.15	1848	11
318.15	1820	11
328.15	1804	10

System: 1-butyl-3-methylimidazolium chloride; phases: Liquid
Fixed: Pressure, kPa = 101
Property: Mass density, kg/m3 (Liquid); method: VIBTUB:UFactor:8
Temperature, K	Mass density, kg/m3	uncertainty
298.15	1074.43	10.08
303.15	1071.38	10.08
308.15	1068.32	10.08
318.15	1062.14	10.08
328.15	1055.89	10.07

System: diethylammonium hydrogen sulfate; phases: Crystal, Liquid, Air at 1 atmosphere
Property: Normal melting temperature, K (Crystal); method: VISOBS
Normal melting temperature, K	uncertainty
354.15	1

System: diethylammonium hydrogen sulfate; phases: Metastable liquid
Fixed: Pressure, kPa = 101
Property: Mass density, kg/m3 (Metastable liquid); method: VIBTUB:UFactor:12
Temperature, K	Mass density, kg/m3	uncertainty
298.15	1028.39	10.08
303.15	1023.97	10.07
308.15	1020.54	10.07
318.15	1012.68	10.07
328.15	1004.83	10.06

System: diethylammonium hydrogen sulfate; phases: Metastable liquid
Fixed: Pressure, kPa = 101
Fixed: Frequency, MHz = 2
Property: Speed of sound, m/s (Metastable liquid); method: FPINT:UFactor:12
Temperature, K	Speed of sound, m/s	uncertainty
298.15	1432	9
303.15	1408	9
308.15	1392	9
318.15	1356	8
328.15	1324	8

System: diethylammonium hydrogen sulfate; phases: Metastable liquid
Fixed: Pressure, kPa = 101
Property: Viscosity, Pa*s (Metastable liquid); method: VIBWIR:UFactor:16
Temperature, K	Viscosity, Pa*s	uncertainty
298.15	0.0258	0.00168
303.15	0.0213	0.0014
308.15	0.0181	0.0012
318.15	0.01361	0.00092
328.15	0.0102	0.0007

System: dimethyl sulfoxide + 1-butyl-3-methylimidazolium chloride; phases: Liquid
Fixed: Pressure, kPa = 101
Property: Viscosity, Pa*s (Liquid); method: VIBWIR:UFactor:16
Temperature, K	Mole fraction of 1-butyl-3-methylimidazolium chloride	Viscosity, Pa*s	uncertainty
298.15	0	0.00199	0.00019
298.15	0.0111	0.00213	0.00019
298.15	0.0341	0.00262	0.00022
298.15	0.0713	0.00343	0.00028
298.15	0.1122	0.00435	0.00033
298.15	0.1731	0.00583	0.00042
298.15	0.2433	0.00762	0.00054
298.15	0.3032	0.00917	0.00063
298.15	0.3705	0.01099	0.00075
298.15	0.4746	0.01386	0.00093
298.15	0.5997	0.01736	0.00115
298.15	0.7115	0.0205	0.00134
298.15	0.843	0.02428	0.00158
298.15	0.9445	0.02739	0.00178
298.15	1	0.02921	0.00189
303.15	0	0.0018	0.00017
303.15	0.0111	0.00193	0.00018
303.15	0.0341	0.00235	0.00021
303.15	0.0713	0.00304	0.00025
303.15	0.1122	0.00386	0.0003
303.15	0.1731	0.00512	0.00038
303.15	0.2433	0.00666	0.00048
303.15	0.3032	0.00804	0.00056
303.15	0.3705	0.00963	0.00066
303.15	0.4746	0.01214	0.00082
303.15	0.5997	0.01522	0.00101
303.15	0.7115	0.01799	0.00119
303.15	0.843	0.02134	0.0014
303.15	0.9445	0.02412	0.00157
303.15	1	0.02572	0.00168
308.15	0	0.00165	0.00016
308.15	0.0111	0.00177	0.00017
308.15	0.0341	0.00212	0.00019
308.15	0.0713	0.00268	0.00023
308.15	0.1122	0.00331	0.00027
308.15	0.1731	0.00434	0.00033
308.15	0.2433	0.00553	0.00041
308.15	0.3032	0.00663	0.00047
308.15	0.3705	0.00791	0.00055
308.15	0.4746	0.00996	0.00068
308.15	0.5997	0.0125	0.00084
308.15	0.7115	0.01479	0.00099
308.15	0.843	0.01757	0.00116
308.15	0.9445	0.01984	0.00131
308.15	1	0.02121	0.00139
318.15	0	0.00138	0.00015
318.15	0.0111	0.00151	0.00016
318.15	0.0341	0.00182	0.00018
318.15	0.0713	0.0023	0.0002
318.15	0.1122	0.00287	0.00024
318.15	0.1731	0.00376	0.0003
318.15	0.2433	0.00481	0.00036
318.15	0.3032	0.00578	0.00042
318.15	0.3705	0.00693	0.00049
318.15	0.4746	0.00879	0.00061
318.15	0.5997	0.0111	0.00076
318.15	0.7115	0.01318	0.00089
318.15	0.843	0.0157	0.00104
318.15	0.9445	0.01776	0.00118
318.15	1	0.01897	0.00125
328.15	0	0.00104	0.00013
328.15	0.0111	0.00117	0.00013
328.15	0.0341	0.00144	0.00015
328.15	0.0713	0.00189	0.00018
328.15	0.1122	0.00237	0.00021
328.15	0.1731	0.00314	0.00026
328.15	0.2433	0.00406	0.00031
328.15	0.3032	0.00489	0.00037
328.15	0.3705	0.00592	0.00043
328.15	0.4746	0.0076	0.00054
328.15	0.5997	0.00968	0.00067
328.15	0.7115	0.01156	0.00078
328.15	0.843	0.01382	0.00093
328.15	0.9445	0.01565	0.00104
328.15	1	0.01674	0.00111

System: dimethyl sulfoxide + 1-butyl-3-methylimidazolium chloride; phases: Liquid
Fixed: Pressure, kPa = 101
Fixed: Frequency, MHz = 2
Property: Speed of sound, m/s (Liquid); method: FPINT:UFactor:12
Temperature, K	Mole fraction of 1-butyl-3-methylimidazolium chloride	Speed of sound, m/s	uncertainty
298.15	0	1496	9
298.15	0.0111	1514	9
298.15	0.0341	1544	9
298.15	0.0713	1582	9
298.15	0.1122	1618	9
298.15	0.1731	1658	10
298.15	0.2433	1694	10
298.15	0.3032	1718	10
298.15	0.3705	1742	10
298.15	0.4746	1778	10
298.15	0.5997	1810	10
298.15	0.7115	1834	11
298.15	0.843	1848	11
298.15	0.9445	1856	11
298.15	1	1868	11
303.15	0	1472	9
303.15	0.0111	1490	9
303.15	0.0341	1522	9
303.15	0.0713	1562	9
303.15	0.1122	1598	9
303.15	0.1731	1638	10
303.15	0.2433	1672	10
303.15	0.3032	1698	10
303.15	0.3705	1718	10
303.15	0.4746	1752	10
303.15	0.5997	1792	10
303.15	0.7115	1820	10
303.15	0.843	1844	11
303.15	0.9445	1852	11
303.15	1	1860	11
308.15	0	1460	9
308.15	0.0111	1478	9
308.15	0.0341	1510	9
308.15	0.0713	1550	9
308.15	0.1122	1586	9
308.15	0.1731	1630	10
308.15	0.2433	1664	10
308.15	0.3032	1690	10
308.15	0.3705	1712	10
308.15	0.4746	1748	10
308.15	0.5997	1786	10
308.15	0.7115	1812	10
308.15	0.843	1832	11
308.15	0.9445	1840	11
308.15	1	1848	11
318.15	0	1428	9
318.15	0.0111	1450	9
318.15	0.0341	1484	9
318.15	0.0713	1520	9
318.15	0.1122	1550	9
318.15	0.1731	1592	9
318.15	0.2433	1634	10
318.15	0.3032	1662	10
318.15	0.3705	1688	10
318.15	0.4746	1720	10
318.15	0.5997	1758	10
318.15	0.7115	1788	10
318.15	0.843	1808	10
318.15	0.9445	1814	10
318.15	1	1820	11
328.15	0	1412	8
328.15	0.0111	1422	9
328.15	0.0341	1454	9
328.15	0.0713	1490	9
328.15	0.1122	1520	9
328.15	0.1731	1564	9
328.15	0.2433	1604	9
328.15	0.3032	1630	10
328.15	0.3705	1658	10
328.15	0.4746	1694	10
328.15	0.5997	1730	10
328.15	0.7115	1760	10
328.15	0.843	1788	10
328.15	0.9445	1796	10
328.15	1	1804	10

System: dimethyl sulfoxide + 1-butyl-3-methylimidazolium chloride; phases: Liquid
Fixed: Pressure, kPa = 101
Property: Mass density, kg/m3 (Liquid); method: VIBTUB:UFactor:8
Temperature, K	Mole fraction of 1-butyl-3-methylimidazolium chloride	Mass density, kg/m3	uncertainty
298.15	0	1095.37	10.03
298.15	0.0111	1096.4	10.03
298.15	0.0341	1096.96	10.03
298.15	0.0713	1097.81	10.03
298.15	0.1122	1098.51	10.03
298.15	0.1731	1098.36	10.03
298.15	0.2433	1097.41	10.04
298.15	0.3032	1095.8	10.04
298.15	0.3705	1093.86	10.04
298.15	0.4746	1090.52	10.05
298.15	0.5997	1086.4	10.05
298.15	0.7115	1083.11	10.06
298.15	0.843	1079.14	10.07
298.15	0.9445	1076.25	10.08
298.15	1	1074.43	10.08
303.15	0	1092.41	10.02
303.15	0.0111	1093.12	10.03
303.15	0.0341	1094.05	10.03
303.15	0.0713	1094.88	10.03
303.15	0.1122	1095.16	10.03
303.15	0.1731	1095.51	10.03
303.15	0.2433	1094.39	10.03
303.15	0.3032	1092.84	10.04
303.15	0.3705	1090.91	10.04
303.15	0.4746	1087.56	10.04
303.15	0.5997	1083.53	10.05
303.15	0.7115	1080.09	10.06
303.15	0.843	1076.19	10.07
303.15	0.9445	1073.27	10.08
303.15	1	1071.38	10.08
308.15	0	1086.07	10.02
308.15	0.0111	1087.12	10.02
308.15	0.0341	1088.6	10
308.15	0.0713	1089.65	10.03
308.15	0.1122	1090.4	10
308.15	0.1731	1090.8	10
308.15	0.2433	1089.91	10.03
308.15	0.3032	1088.61	10.04
308.15	0.3705	1086.93	10.04
308.15	0.4746	1083.87	10.04
308.15	0.5997	1080.1	10.1
308.15	0.7115	1076.93	10.06
308.15	0.843	1072.98	10.07
308.15	0.9445	1070.09	10.07
308.15	1	1068.32	10.08
318.15	0	1076.22	10.02
318.15	0.0111	1077.1	10.02
318.15	0.0341	1078.9	10.02
318.15	0.0713	1080.54	10.02
318.15	0.1122	1081.62	10.03
318.15	0.1731	1082.42	10.03
318.15	0.2433	1081.92	10.03
318.15	0.3032	1080.89	10.03
318.15	0.3705	1079.44	10.04
318.15	0.4746	1076.76	10.04
318.15	0.5997	1073.27	10.05
318.15	0.7115	1070.22	10.05
318.15	0.843	1066.58	10.06
318.15	0.9445	1063.76	10.07
318.15	1	1062.14	10.08
328.15	0	1066.09	10.02
328.15	0.0111	1067.04	10.02
328.15	0.0341	1069.24	10.02
328.15	0.0713	1071.41	10.02
328.15	0.1122	1072.82	10.02
328.15	0.1731	1074.01	10.03
328.15	0.2433	1073.91	10.03
328.15	0.3032	1073.16	10.03
328.15	0.3705	1071.9	10.03
328.15	0.4746	1069.49	10.04
328.15	0.5997	1066.39	10.04
328.15	0.7115	1063.48	10.05
328.15	0.843	1060.06	10.06
328.15	0.9445	1057.44	10.07
328.15	1	1055.89	10.07

System: dimethyl sulfoxide + diethylammonium hydrogen sulfate; phases: Liquid
Fixed: Pressure, kPa = 101
Property: Mass density, kg/m3 (Liquid); method: VIBTUB:UFactor:12
Temperature, K	Mole fraction of diethylammonium hydrogen sulfate	Mass density, kg/m3	uncertainty
298.15	0	1095.37	10.05
298.15	0.0569	1089.68	10.05
298.15	0.1196	1084.01	10.05
298.15	0.189	1078.01	10.05
298.15	0.2461	1073.31	10.05
298.15	0.308	1068.46	10.05
298.15	0.3756	1063.4	10.05
298.15	0.4494	1058.24	10.05
298.15	0.5306	1052.92	10.05
298.15	0.6201	1047.51	10.06
298.15	0.6852	1043.83	10.06
298.15	0.7552	1040.12	10.06
298.15	0.8306	1036.34	10.07
298.15	0.912	1032.43	10.07
298.15	1	1028.39	10.08
303.15	0	1092.41	10.05
303.15	0.0569	1086.57	10.04
303.15	0.1196	1080.74	10.05
303.15	0.189	1074.61	10.05
303.15	0.2461	1069.88	10.05
303.15	0.308	1064.87	10.05
303.15	0.3756	1059.73	10.05
303.15	0.4494	1054.44	10.05
303.15	0.5306	1048.99	10.05
303.15	0.6201	1043.47	10.05
303.15	0.6852	1039.76	10.06
303.15	0.7552	1035.97	10.06
303.15	0.8306	1032.14	10.06
303.15	0.9121	1028.21	10.07
303.15	1	1023.97	10.07
308.15	0	1086.07	10.04
308.15	0.0569	1080.56	10.04
308.15	0.1196	1074.98	10.04
308.15	0.189	1069.1	10.04
308.15	0.2461	1064.56	10.04
308.15	0.308	1059.9	10.04
308.15	0.3756	1054.93	10.05
308.15	0.4494	1049.89	10.05
308.15	0.5306	1044.72	10.05
308.15	0.6201	1039.39	10.05
308.15	0.6852	1035.79	10.06
308.15	0.7552	1032.08	10.06
308.15	0.8306	1028.35	10.06
308.15	0.9121	1024.54	10.07
308.15	1	1020.54	10.07
318.15	0	1076.22	10.04
318.15	0.0569	1070.99	10.04
318.15	0.1196	1065.63	10.04
318.15	0.189	1059.91	10.04
318.15	0.2461	1055.43	10.04
318.15	0.308	1050.89	10.04
318.15	0.3756	1046.15	10.04
318.15	0.4494	1041.31	10.04
318.15	0.5306	1036.26	10.05
318.15	0.6201	1031.12	10.05
318.15	0.6852	1027.61	10.05
318.15	0.7552	1023.97	10.05
318.15	0.8306	1020.34	10.06
318.15	0.9121	1016.61	10.06
318.15	1	1012.68	10.07
328.15	0	1066.09	10.03
328.15	0.0569	1061.05	10.03
328.15	0.1196	1055.97	10.03
328.15	0.189	1050.57	10.04
328.15	0.2461	1046.35	10.04
328.15	0.308	1041.96	10.04
328.15	0.3756	1037.43	10.04
328.15	0.4494	1032.72	10.04
328.15	0.5306	1027.87	10.04
328.15	0.6201	1022.85	10.04
328.15	0.6852	1019.45	10.05
328.15	0.7552	1015.91	10.05
328.15	0.8306	1012.32	10.05
328.15	0.9121	1008.63	10.06
328.15	1	1004.83	10.06

System: dimethyl sulfoxide + diethylammonium hydrogen sulfate; phases: Liquid
Fixed: Pressure, kPa = 101
Fixed: Frequency, MHz = 2
Property: Speed of sound, m/s (Liquid); method: FPINT:UFactor:12
Temperature, K	Mole fraction of diethylammonium hydrogen sulfate	Speed of sound, m/s	uncertainty
298.15	0	1496	9
298.15	0.0569	1486	9
298.15	0.1196	1476	9
298.15	0.189	1466	9
298.15	0.2461	1460	9
298.15	0.308	1450	9
298.15	0.3756	1444	9
298.15	0.4494	1434	9
298.15	0.5306	1428	9
298.15	0.6201	1424	9
298.15	0.6852	1420	9
298.15	0.7552	1420	9
298.15	0.8306	1426	9
298.15	0.912	1428	9
298.15	1	1432	9
303.15	0	1472	9
303.15	0.0569	1462	9
303.15	0.1196	1452	9
303.15	0.189	1442	9
303.15	0.2461	1434	9
303.15	0.308	1426	9
303.15	0.3756	1418	9
303.15	0.4494	1410	9
303.15	0.5306	1404	9
303.15	0.6201	1400	9
303.15	0.6852	1398	9
303.15	0.7552	1398	9
303.15	0.8306	1400	9
303.15	0.9121	1404	9
303.15	1	1408	9
308.15	0	1460	9
308.15	0.0569	1446	9
308.15	0.1196	1436	9
308.15	0.189	1428	9
308.15	0.2461	1418	9
308.15	0.308	1410	9
308.15	0.3756	1402	9
308.15	0.4494	1396	8
308.15	0.5306	1388	8
308.15	0.6201	1384	8
308.15	0.6852	1384	8
308.15	0.7552	1382	8
308.15	0.8306	1384	9
308.15	0.9121	1388	9
308.15	1	1392	9
318.15	0	1428	9
318.15	0.0569	1414	9
318.15	0.1196	1404	8
318.15	0.189	1392	8
318.15	0.2461	1386	8
318.15	0.308	1378	8
318.15	0.3756	1370	8
318.15	0.4494	1362	8
318.15	0.5306	1356	8
318.15	0.6201	1350	8
318.15	0.6852	1348	8
318.15	0.7552	1346	8
318.15	0.8306	1348	8
318.15	0.9121	1352	8
318.15	1	1356	8
328.15	0	1412	8
328.15	0.0569	1400	8
328.15	0.1196	1406	8
328.15	0.189	1392	8
328.15	0.2461	1382	8
328.15	0.308	1372	8
328.15	0.3756	1362	8
328.15	0.4494	1352	8
328.15	0.5306	1342	8
328.15	0.6201	1332	8
328.15	0.6852	1326	8
328.15	0.7552	1322	8
328.15	0.8306	1320	8
328.15	0.9121	1322	8
328.15	1	1324	8

System: dimethyl sulfoxide + diethylammonium hydrogen sulfate; phases: Liquid
Fixed: Pressure, kPa = 101
Property: Viscosity, Pa*s (Liquid); method: VIBWIR:UFactor:16
Temperature, K	Mole fraction of diethylammonium hydrogen sulfate	Viscosity, Pa*s	uncertainty
298.15	0	0.00199	0.00019
298.15	0.0569	0.00294	0.00024
298.15	0.1196	0.00413	0.00032
298.15	0.189	0.00555	0.00041
298.15	0.2461	0.00677	0.00048
298.15	0.308	0.00815	0.00057
298.15	0.3756	0.00966	0.00066
298.15	0.4494	0.01138	0.00077
298.15	0.5306	0.01331	0.00089
298.15	0.6201	0.01549	0.00103
298.15	0.6852	0.01712	0.00113
298.15	0.7552	0.01887	0.00124
298.15	0.8306	0.02088	0.00137
298.15	0.912	0.0231	0.00151
298.15	1	0.0258	0.00168
303.15	0	0.0018	0.00017
303.15	0.0569	0.00253	0.00022
303.15	0.1196	0.00348	0.00028
303.15	0.189	0.00464	0.00035
303.15	0.2461	0.00562	0.00041
303.15	0.308	0.00674	0.00048
303.15	0.3756	0.00801	0.00056
303.15	0.4494	0.00941	0.00065
303.15	0.5306	0.01102	0.00075
303.15	0.6201	0.01283	0.00086
303.15	0.6852	0.01418	0.00095
303.15	0.7552	0.01565	0.00104
303.15	0.8306	0.01727	0.00114
303.15	0.9121	0.01914	0.00126
303.15	1	0.0213	0.0014
308.15	0	0.00165	0.00016
308.15	0.0569	0.00233	0.00021
308.15	0.1196	0.00316	0.00026
308.15	0.189	0.00412	0.00032
308.15	0.2461	0.00494	0.00037
308.15	0.308	0.00585	0.00043
308.15	0.3756	0.00686	0.00049
308.15	0.4494	0.00802	0.00056
308.15	0.5306	0.00935	0.00065
308.15	0.6201	0.01089	0.00074
308.15	0.6852	0.01206	0.00082
308.15	0.7552	0.01339	0.0009
308.15	0.8306	0.01484	0.00099
308.15	0.9121	0.01638	0.00109
308.15	1	0.0181	0.0012
318.15	0	0.00138	0.00015
318.15	0.0569	0.002	0.00019
318.15	0.1196	0.00263	0.00023
318.15	0.189	0.00333	0.00027
318.15	0.2461	0.00393	0.00031
318.15	0.308	0.00459	0.00035
318.15	0.3756	0.00534	0.00039
318.15	0.4494	0.00622	0.00045
318.15	0.5306	0.00719	0.00051
318.15	0.6201	0.00832	0.00058
318.15	0.6852	0.00916	0.00063
318.15	0.7552	0.0101	0.00069
318.15	0.8306	0.0111	0.00076
318.15	0.9121	0.0123	0.00083
318.15	1	0.01361	0.00092
328.15	0	0.00104	0.00013
328.15	0.0569	0.0016	0.00016
328.15	0.1196	0.00224	0.0002
328.15	0.189	0.00295	0.00025
328.15	0.2461	0.00351	0.00028
328.15	0.308	0.00412	0.00032
328.15	0.3756	0.00477	0.00036
328.15	0.4494	0.00546	0.0004
328.15	0.5306	0.00621	0.00045
328.15	0.6201	0.00702	0.0005
328.15	0.6852	0.00757	0.00053
328.15	0.7552	0.00817	0.00057
328.15	0.8306	0.0088	0.00061
328.15	0.9121	0.00948	0.00066
328.15	1	0.0102	0.0007
