Measured thermophysical data. Studies on the properties of ionic liquid EMIInCl4
Source: Fluid Phase Equilib., 2005, 10.1016/j.fluid.2005.02.012
Compound 1: 1-ethyl-3-methylimidazolium tetrachloroindate, C6H11Cl4InN2, InChI=1S/C6H11N2.4ClH.In/c1-3-8-5-4-7(2)6-8;;;;;/h4-6H,3H2,1-2H3;4*1H;/q+1;;;;;+3/p-4

System: 1-ethyl-3-methylimidazolium tetrachloroindate; phases: Liquid, Air at 1 atmosphere
Property: Surface tension liquid-gas, N/m (Liquid); method: Forced bubble method
Temperature, K	Surface tension liquid-gas, N/m	uncertainty
293.15	0.05278	0.00133
298.15	0.05262	0.00133
303.15	0.05232	0.00132
308.15	0.05187	0.00131
313.15	0.05159	0.00131
318.15	0.05131	0.0013
323.15	0.05091	0.00129
328.15	0.05055	0.00128
333.15	0.05011	0.00127
338.15	0.04993	0.00126
343.15	0.04949	0.00125

System: 1-ethyl-3-methylimidazolium tetrachloroindate; phases: Liquid
Fixed: Pressure, kPa = 101.325
Property: Mass density, kg/m3 (Liquid); method: BUOYAN
Temperature, K	Mass density, kg/m3	uncertainty
293.15	1641.3	17
298.15	1639.2	17
303.15	1634.7	16.9
308.15	1628.2	16.8
313.15	1623.1	16.8
318.15	1617.4	16.7
323.15	1612	16.7
328.15	1606.5	16.6
333.15	1600.9	16.6
338.15	1595.6	16.5
343.15	1591.2	16.5
