Measured thermophysical data. Study on the separation of 1-hexene and trans-3-hexene using ionic liquids
Source: Fluid Phase Equilib., 2006, 10.1016/j.fluid.2006.06.020
Compound 1: hex-1-ene, C6H12, InChI=1S/C6H12/c1-3-5-6-4-2/h3H,1,4-6H2,2H3
Compound 2: (E)-3-hexene, C6H12, InChI=1S/C6H12/c1-3-5-6-4-2/h5-6H,3-4H2,1-2H3/b6-5+
Compound 3: 1-butyl-3-methylimidazolium hexafluorophosphate, C8H15F6N2P, InChI=1S/C8H15N2.F6P/c1-3-4-5-10-7-6-9(2)8-10;1-7(2,3,4,5)6/h6-8H,3-5H2,1-2H3;/q+1;-1
Compound 4: 1-isobutenyl-3-methylimidazolium tetrafluoroborate, C8H13BF4N2, InChI=1S/C8H13N2.BF4/c1-8(2)6-10-5-4-9(3)7-10;2-1(3,4)5/h4-7H,1-3H3;/q+1;-1
Compound 5: silver tetrafluoroborate, AgBF4, InChI=1S/Ag.BF4/c;2-1(3,4)5/q+1;-1

System: hex-1-ene + 1-butyl-3-methylimidazolium hexafluorophosphate; phases: Liquid mixture 1, Liquid mixture 2
Fixed: Pressure, kPa = 101
Property: Mole fraction of hex-1-ene (Liquid mixture 1); method: Analysis of headspace GC VLE data
Temperature, K	Mole fraction of hex-1-ene	uncertainty
283.15	0.07888	0.0079
293.15	0.1008	0.0101
303.15	0.1189	0.0119

System: hex-1-ene + 1-butyl-3-methylimidazolium hexafluorophosphate; phases: Liquid, Gas
Property: Vapor or sublimation pressure, kPa (Liquid); method: Headspace gas chromatography
Temperature, K	Mole fraction of hex-1-ene	Vapor or sublimation pressure, kPa	uncertainty
283.15	0.001882	0.4317	0.0349
283.15	0.004559	1.006	0.0813
283.15	0.008411	1.775	0.1435
283.15	0.01309	2.605	0.2107
283.15	0.0191	3.589	0.2905
283.15	0.02162	3.972	0.3216
283.15	0.02586	4.502	0.3647
283.15	0.03547	5.847	0.4739
283.15	0.0427	6.702	0.5435
283.15	0.05004	7.565	0.6134
283.15	0.0574	8.557	0.6934
283.15	0.05971	8.793	0.7123
283.15	0.06744	9.746	0.7896
283.15	0.07879	10.55	0.8558
293.15	0.00187	0.5456	0.0441
293.15	0.004537	1.275	0.103
293.15	0.008379	2.303	0.1859
293.15	0.01304	3.448	0.2784
293.15	0.01902	4.886	0.3945
293.15	0.02154	5.444	0.4396
293.15	0.02578	6.345	0.5124
293.15	0.03536	8.317	0.6716
293.15	0.04259	9.759	0.788
293.15	0.04991	11.05	0.8922
293.15	0.05725	12.26	0.9895
293.15	0.05956	12.57	1.0146
293.15	0.06727	13.8	1.1138
293.15	0.07856	15.65	1.2634
293.15	0.08472	16.59	1.3388
293.15	0.09018	17.4	1.4033
293.15	0.09356	17.8	1.4355
303.15	0.001857	0.6867	0.0554
303.15	0.004504	1.596	0.1288
303.15	0.008321	2.803	0.2262
303.15	0.01295	4.242	0.3423
303.15	0.01889	5.92	0.4776
303.15	0.02141	6.649	0.5365
303.15	0.02563	7.756	0.6257
303.15	0.03516	10.14	0.8179
303.15	0.04236	11.78	0.9501
303.15	0.04967	13.34	1.0757
303.15	0.05697	14.54	1.1723
303.15	0.05929	15.02	1.211
303.15	0.06697	16.65	1.3424
303.15	0.07821	19.09	1.539
303.15	0.08436	20.23	1.6308
303.15	0.08982	21.17	1.7065
303.15	0.09321	21.77	1.7548
303.15	0.1035	23.66	1.9066

System: (E)-3-hexene + 1-butyl-3-methylimidazolium hexafluorophosphate; phases: Liquid mixture 1, Liquid mixture 2
Fixed: Pressure, kPa = 101
Property: Mole fraction of (E)-3-hexene (Liquid mixture 1); method: Analysis of headspace GC VLE data
Temperature, K	Mole fraction of (E)-3-hexene	uncertainty
283.15	0.03729	0.00374
293.15	0.05183	0.00519
303.15	0.06801	0.00681

System: (E)-3-hexene + 1-butyl-3-methylimidazolium hexafluorophosphate; phases: Liquid, Gas
Property: Vapor or sublimation pressure, kPa (Liquid); method: Headspace gas chromatography
Temperature, K	Mole fraction of (E)-3-hexene	Vapor or sublimation pressure, kPa	uncertainty
283.15	0.004494	1.284	0.104
283.15	0.00894	2.513	0.203
283.15	0.01741	4.848	0.392
283.15	0.02557	7.052	0.569
283.15	0.03447	9.385	0.757
293.15	0.004489	1.65	0.133
293.15	0.008931	3.203	0.259
293.15	0.0174	6.096	0.492
293.15	0.02557	8.732	0.705
293.15	0.03441	11.44	0.923
293.15	0.04153	13.32	1.075
293.15	0.05031	15.58	1.257
303.15	0.004464	2.143	0.173
303.15	0.008897	4.079	0.329
303.15	0.01735	7.562	0.61
303.15	0.0255	10.73	0.866
303.15	0.03432	13.79	1.112
303.15	0.04141	16.22	1.308
303.15	0.05016	19.3	1.557
303.15	0.06042	22.61	1.823
303.15	0.06669	24.44	1.97

System: hex-1-ene + silver tetrafluoroborate + 1-isobutenyl-3-methylimidazolium tetrafluoroborate; phases: Liquid mixture 1, Liquid mixture 2
Fixed: Pressure, kPa = 101
Fixed: Solvent: Mole fraction of silver tetrafluoroborate = 0.5
Property: Mole fraction of hex-1-ene (Liquid mixture 1); method: Analysis of headspace GC VLE data
Temperature, K	Mole fraction of hex-1-ene	uncertainty
283.15	0.02616	0.00262
293.15	0.03168	0.00317
303.15	0.03473	0.00347

System: hex-1-ene + silver tetrafluoroborate + 1-isobutenyl-3-methylimidazolium tetrafluoroborate; phases: Liquid, Gas
Fixed: Solvent: Mole fraction of 1-isobutenyl-3-methylimidazolium tetrafluoroborate = 0.5
Property: Vapor or sublimation pressure, kPa (Liquid); method: Headspace gas chromatography
Temperature, K	Mole fraction of hex-1-ene	Vapor or sublimation pressure, kPa	uncertainty
283.15	0.003833	1.826	0.147
283.15	0.008064	3.741	0.3
283.15	0.01113	5.046	0.405
283.15	0.01526	6.792	0.545
283.15	0.01871	8.229	0.661
283.15	0.02368	10.1	0.811
283.15	0.02494	10.49	0.843
293.15	0.003801	2.322	0.186
293.15	0.007998	4.735	0.38
293.15	0.01104	6.426	0.516
293.15	0.01514	8.695	0.698
293.15	0.01857	10.49	0.842
293.15	0.02349	13.02	1.046
293.15	0.02476	13.62	1.094
293.15	0.02951	15.83	1.273
303.15	0.003761	3.15	0.253
303.15	0.00791	6.477	0.52
303.15	0.01094	8.759	0.703
303.15	0.015	11.7	0.939
303.15	0.01842	14.04	1.127
303.15	0.02329	17.42	1.398
303.15	0.02458	18.24	1.464
303.15	0.02929	21.15	1.697
303.15	0.03418	23.87	1.915

System: (E)-3-hexene + silver tetrafluoroborate + 1-isobutenyl-3-methylimidazolium tetrafluoroborate; phases: Liquid mixture 1, Liquid mixture 2
Fixed: Pressure, kPa = 101
Fixed: Solvent: Mole fraction of silver tetrafluoroborate = 0.5
Property: Mole fraction of (E)-3-hexene (Liquid mixture 1); method: Analysis of headspace GC VLE data
Temperature, K	Mole fraction of (E)-3-hexene	uncertainty
283.15	0.01569	0.00157
293.15	0.01986	0.00199
303.15	0.02246	0.00225

System: (E)-3-hexene + silver tetrafluoroborate + 1-isobutenyl-3-methylimidazolium tetrafluoroborate; phases: Liquid, Gas
Fixed: Solvent: Mole fraction of 1-isobutenyl-3-methylimidazolium tetrafluoroborate = 0.5
Property: Vapor or sublimation pressure, kPa (Liquid); method: Headspace gas chromatography
Temperature, K	Mole fraction of (E)-3-hexene	Vapor or sublimation pressure, kPa	uncertainty
283.15	0.004017	3.182	0.255
283.15	0.007839	5.664	0.455
283.15	0.01157	7.716	0.62
293.15	0.004	3.838	0.308
293.15	0.007791	7.134	0.572
293.15	0.01148	9.973	0.799
293.15	0.01599	12.84	1.029
293.15	0.01974	14.31	1.147
303.15	0.003953	4.025	0.322
303.15	0.00772	7.286	0.584
303.15	0.01139	10.23	0.819
303.15	0.01586	13.32	1.067
303.15	0.01948	15.63	1.252

System: hex-1-ene + (E)-3-hexene + 1-butyl-3-methylimidazolium hexafluorophosphate; phases: Gas, Liquid
Property: Mole fraction of hex-1-ene (Gas); method: CHROM:UFactor:6
Mole fraction of hex-1-ene	Mole fraction of (E)-3-hexene	Temperature, K	Mole fraction of hex-1-ene	uncertainty
0.003465	0.03144	283.15	0.07435	0.00536
0.003465	0.03144	293.15	0.07787	0.00561
0.003465	0.03144	303.15	0.08154	0.00588
0.00692	0.02791	283.15	0.1833	0.01327
0.00692	0.02791	293.15	0.1894	0.01371
0.00692	0.02791	303.15	0.1914	0.01386
0.01039	0.02444	283.15	0.287	0.02093
0.01039	0.02444	293.15	0.2889	0.02107
0.01039	0.02444	303.15	0.292	0.0213
0.01395	0.0211	283.15	0.3781	0.02782
0.01395	0.0211	293.15	0.3816	0.02809
0.01395	0.0211	303.15	0.3873	0.02852
0.01717	0.01731	283.15	0.4641	0.03451
0.01717	0.01731	293.15	0.4713	0.03508
0.01717	0.01731	303.15	0.4811	0.03586
0.02092	0.01406	283.15	0.5545	0.03356
0.02092	0.01406	293.15	0.5701	0.03247
0.02092	0.01406	303.15	0.5786	0.03187
0.02444	0.01056	283.15	0.6457	0.0271
0.02444	0.01056	293.15	0.6602	0.02606
0.02444	0.01056	303.15	0.674	0.02507
0.02772	0.00699	283.15	0.7239	0.02143
0.02772	0.00699	293.15	0.7342	0.02067
0.02772	0.00699	303.15	0.7441	0.01994
0.0311	0.00348	283.15	0.8046	0.01541
0.0311	0.00348	293.15	0.8108	0.01494
0.0311	0.00348	303.15	0.8111	0.01492
