Measured thermophysical data. Vapor pressures and apparent molal volumes of the solutions of ZnCl2 in ethanol at 298.15 K
Source: Fluid Phase Equilib., 2005, 10.1016/j.fluid.2004.11.022
Compound 1: zinc chloride, Cl2Zn, InChI=1S/2ClH.Zn/h2*1H;/q;;+2/p-2
Compound 2: ethanol, C2H6O, InChI=1S/C2H6O/c1-2-3/h3H,2H2,1H3, purity 99.8%

System: ethanol + zinc chloride; phases: Liquid, Gas
Fixed: Temperature, K = 298.15
Property: Osmotic coefficient (Liquid); method: ISOPIE
Molality, mol/kg of zinc chloride	Osmotic coefficient	uncertainty
0.219	0.359	0.032
0.4046	0.332	0.033
0.4882	0.352	0.032
0.5854	0.358	0.032
0.7111	0.36	0.032
0.7875	0.379	0.031
0.8946	0.383	0.031
1.0573	0.405	0.03
1.0873	0.403	0.03
1.2051	0.416	0.029
1.2268	0.422	0.029
1.3527	0.441	0.028
1.4455	0.443	0.028
1.5675	0.458	0.027
1.6657	0.472	0.026
1.765	0.482	0.026
1.8886	0.494	0.025
1.9726	0.506	0.025
2.115	0.519	0.024
2.2333	0.542	0.023
2.4075	0.56	0.022
2.4552	0.571	0.021
2.6095	0.594	0.02
2.7118	0.616	0.019

System: ethanol + zinc chloride; phases: Liquid, Gas
Fixed: Temperature, K = 298.15
Property: Vapor or sublimation pressure, kPa (Liquid); method: CCELL:UFactor:2
Molality, mol/kg of zinc chloride	Vapor or sublimation pressure, kPa	uncertainty
0.219	7.773	0.103
0.4046	7.724	0.102
0.4882	7.684	0.102
0.5854	7.644	0.102
0.7111	7.594	0.101
0.7875	7.549	0.101
0.8946	7.503	0.1
1.0573	7.414	0.1
1.0873	7.404	0.1
1.2051	7.339	0.099
1.2268	7.322	0.099
1.3527	7.242	0.098
1.4455	7.198	0.098
1.5675	7.121	0.098
1.6657	7.053	0.097
1.765	6.989	0.096
1.8886	6.911	0.096
1.9726	6.848	0.095
2.115	6.754	0.095
2.2333	6.649	0.094
2.4075	6.522	0.093
2.4552	6.474	0.092
2.6095	6.342	0.091
2.7118	6.236	0.091

System: ethanol + zinc chloride; phases: Liquid
Fixed: Temperature, K = 298.15
Fixed: Pressure, kPa = 101.3
Property: Mass density, kg/m3 (Liquid); method: VIBTUB:UFactor:4
Molality, mol/kg of zinc chloride	Mass density, kg/m3	uncertainty
0.0018	785.28	0.61
0.0035	785.46	0.61
0.0053	785.67	0.61
0.0087	786.03	0.61
0.0106	786.24	0.61
0.0127	786.47	0.61
0.0167	786.9	0.6
0.0185	787.09	0.61
0.0227	787.56	0.61
0.033	788.63	0.6
0.0394	789.3	0.6
0.0471	790.1	0.6
0.051	790.5	0.6
0.0551	790.94	0.6
0.0624	791.69	0.6
0.0691	792.36	0.6
0.0734	792.8	0.6
0.0781	793.28	0.59
0.0825	793.72	0.59
0.0921	794.68	0.59
0.1035	795.81	0.59
0.1713	802.4	0.58
0.2776	812.39	0.56
0.4056	824.04	0.54
0.5788	839.34	0.51
0.6875	848.7	0.5
0.8432	861.8	0.48
1.0862	881.52	0.45
1.1317	885.11	0.45
1.3123	899.05	0.43
1.3459	901.59	0.43
1.5422	916.09	0.41
1.6886	926.54	0.41
1.8829	940	0.4
2.0407	950.61	0.39
2.2041	961.4	0.4
2.4022	974.29	0.39
2.5406	983.29	0.39
2.7756	998.74	0.39
