Measured thermophysical data. Determination and correlation of solubility of thiamine nitrate in water + ethanol mixtures and aqueous solution with different pH values from 278.15 K to 303.15 K
Source: Fluid Phase Equilib., 2015, 10.1016/j.fluid.2015.04.027
Compound 1: thiamine nitrate, C12H17N5O4S, InChI=1S/C12H17N4OS.NO3/c1-8-11(3-4-17)18-7-16(8)6-10-5-14-9(2)15-12(10)13;2-1(3)4/h5,7,17H,3-4,6H2,1-2H3,(H2,13,14,15);/q+1;-1, purity 99.5%
Compound 2: water, H2O, InChI=1S/H2O/h1H2, purity 99.9%
Compound 3: ethanol, C2H6O, InChI=1S/C2H6O/c1-2-3/h3H,2H2,1H3, purity 99.5%

System: ethanol + thiamine nitrate + water; phases: Liquid, Crystal
Fixed: Pressure, kPa = 100
Property: Mole fraction of thiamine nitrate (Liquid); method: visual
Temperature, K	Solvent: Mole fraction of water	Mole fraction of thiamine nitrate	uncertainty
278.15	0	4.63e-06	6.5e-07
278.15	0.3898	0.00017416	3.436e-05
278.15	0.6301	0.0002816	6.917e-05
278.15	0.7931	0.00043939	0.00012844
278.15	0.9109	0.00056716	0.00010445
278.15	1	0.00059261	8.31e-05
283.15	0	6.06e-06	8.5e-07
283.15	0.3898	0.00026147	5.232e-05
283.15	0.6301	0.0004392	9.55e-05
283.15	0.7931	0.00059585	0.00013155
283.15	0.9109	0.00069159	0.00010923
283.15	1	0.00070496	9.885e-05
288.15	0	7.84e-06	1.1e-06
288.15	0.3898	0.00034843	7.236e-05
288.15	0.6301	0.00063578	0.00013188
288.15	0.7931	0.00078848	0.00014087
288.15	0.9109	0.0008522	0.00012387
288.15	1	0.0008589	0.00012046
293.15	0	9.98e-06	1.4e-06
293.15	0.3898	0.00044406	9.174e-05
293.15	0.6301	0.00080391	0.00016292
293.15	0.7931	0.00096435	0.00016578
293.15	0.9109	0.00103623	0.00015142
293.15	1	0.00105526	0.00014806
298.15	0	1.283e-05	1.8e-06
298.15	0.3898	0.00053368	0.00011474
298.15	0.6301	0.00104783	0.00021367
298.15	0.7931	0.00122009	0.0001988
298.15	0.9109	0.00129715	0.00018859
298.15	1	0.0013314	0.00018676
303.15	0	1.604e-05	2.25e-06
303.15	0.3898	0.00064702	0.00014055
303.15	0.6301	0.00127607	0.00025997
303.15	0.7931	0.00149426	0.00024374
303.15	0.9109	0.00158728	0.00022921
303.15	1	0.00161999	0.00022712
