Measured thermophysical data. Activity coefficients of glycine, d-alanine and l-valine in aqueous solutions containing MgSO4 at 298.15 K; experimental determination and correlation
Source: Fluid Phase Equilib., 2012, 10.1016/j.fluid.2011.10.015
Compound 1: 2-aminoacetic acid, C2H5NO2, InChI=1S/C2H5NO2/c3-1-2(4)5/h1,3H2,(H,4,5), purity 99%
Compound 2: (R)-2-aminopropanoic acid, C3H7NO2, InChI=1S/C3H7NO2/c1-2(4)3(5)6/h2H,4H2,1H3,(H,5,6)/t2-/m1/s1, purity 99%
Compound 3: L-valine, C5H11NO2, InChI=1S/C5H11NO2/c1-3(2)4(6)5(7)8/h3-4H,6H2,1-2H3,(H,7,8)/t4-/m0/s1, purity 99%
Compound 4: magnesium sulfate (MgSO4) heptahydrate, H14MgO11S, InChI=1S/Mg.H2O4S.7H2O/c;1-5(2,3)4;;;;;;;/h;(H2,1,2,3,4);7*1H2/q+2;;;;;;;;/p-2, purity 99.5%
Compound 5: water, H2O, InChI=1S/H2O/h1H2, purity 99.9%

System: 2-aminoacetic acid + water + magnesium sulfate (MgSO4) heptahydrate; phases: Liquid
Fixed: Temperature, K = 298.15
Fixed: Pressure, kPa = 101
Property: (Relative) activity of water (Liquid); method: Chromatography
Mass fraction of magnesium sulfate (MgSO4) heptahydrate	Mass fraction of 2-aminoacetic acid	(Relative) activity of water	uncertainty
0.0557	0.0377	0.9981	0.0194
0.1153	0.0575	0.9965	0.0194
0.1504	0.09	0.9954	0.0194
0.2143	0.1185	0.9938	0.0194
0.2775	0.1355	0.9924	0.0195
0.3366	0.205	0.99	0.0195
0.485	0.2537	0.9864	0.0195
0.5257	0.2401	0.986	0.0195
0.596	0.3025	0.9835	0.0196

System: (R)-2-aminopropanoic acid + water + magnesium sulfate (MgSO4) heptahydrate; phases: Liquid
Fixed: Temperature, K = 298.15
Fixed: Pressure, kPa = 101
Property: (Relative) activity of water (Liquid); method: Chromatography
Mass fraction of magnesium sulfate (MgSO4) heptahydrate	Mass fraction of (R)-2-aminopropanoic acid	(Relative) activity of water	uncertainty
0.0815	0.0445	0.9975	0.0194
0.1138	0.0684	0.9964	0.0194
0.1903	0.0932	0.9945	0.0194
0.2336	0.1732	0.9926	0.0195
0.3085	0.176	0.9906	0.0195
0.4218	0.2235	0.9881	0.0195
0.509	0.2471	0.986	0.0195
0.5787	0.2435	0.9849	0.0195
0.6118	0.3332	0.9827	0.0196

System: L-valine + water + magnesium sulfate (MgSO4) heptahydrate; phases: Liquid
Fixed: Temperature, K = 298.15
Fixed: Pressure, kPa = 101
Property: (Relative) activity of water (Liquid); method: Chromatography
Mass fraction of magnesium sulfate (MgSO4) heptahydrate	Mass fraction of L-valine	(Relative) activity of water	uncertainty
0.0706	0.0301	0.9979	0.0194
0.0845	0.0484	0.9973	0.0194
0.1037	0.0652	0.9967	0.0194
0.1258	0.073	0.9961	0.0194
0.1524	0.0823	0.9954	0.0194
0.1766	0.1056	0.9945	0.0194
0.1907	0.1546	0.9934	0.0194
0.2391	0.1334	0.9928	0.0194
