Measured thermophysical data. Thermal conductivities of solid and liquid phases for pure Al, pure Sn and their binary alloys
Source: Fluid Phase Equilib., 2010, 10.1016/j.fluid.2010.07.015
Compound 1: tin, Sn, InChI=1S/Sn
Compound 2: aluminum, Al, InChI=1S/Al

System: aluminum + tin; phases: Liquid
Fixed: Pressure, kPa = 101
Property: Thermal conductivity, W/m/K (Liquid); method: Radial Heat Flow Method
Mass fraction of aluminum	Temperature, K	Thermal conductivity, W/m/K	uncertainty
0	504	67.2	178
0.005	501	73.8	177.1
1	933	235	78

System: aluminum + tin; phases: Crystal
Fixed: Pressure, kPa = 101
Property: Thermal conductivity, W/m/K (Crystal); method: Radial Heat Flow Method
Mass fraction of aluminum	Temperature, K	Thermal conductivity, W/m/K	uncertainty
0	373	67.2	27.6
0	393	65.2	24.9
0	413	63.3	26
0	433	61.7	22.5
0	453	62.5	22.9
0	473	60.6	21.3
0.005	363	83.5	21.7
0.005	383	79.5	19
0.005	403	78.7	17.4
0.005	423	78.5	17.3
0.005	443	77.8	17.6
0.005	463	76.3	17.2
0.005	483	75.8	22.3
0.005	493	69.7	50.5
0.022	323	98.8	22
0.022	343	97.4	22.7
0.022	363	93.3	21.6
0.022	383	92.7	20.4
0.022	403	92.9	20.7
0.022	423	90.5	21.4
0.022	443	88.2	20.8
0.022	463	86.3	21.5
0.022	483	82.7	23.7
0.022	493	80.3	25.9
0.25	323	139.3	33.3
0.25	343	136.8	30.5
0.25	363	135.9	30.6
0.25	383	132.3	30.3
0.25	403	130.5	30.8
0.25	423	125.4	29.8
0.25	443	123.9	30.2
0.25	463	118	29.4
0.25	483	116.5	28.6
0.25	493	112.3	52.8
0.5	323	191.7	43.2
0.5	343	185.3	43.5
0.5	363	180.6	41.5
0.5	383	177	40
0.5	403	174.6	39.8
0.5	423	170.6	39.9
0.5	443	166.6	41.1
0.5	463	160.1	43.7
0.5	483	152.6	52.1
0.5	493	142	50.3
0.75	323	235.5	52
0.75	343	233.7	52.4
0.75	363	228.2	52
0.75	383	224.4	50.6
0.75	403	220.9	48.9
0.75	423	217.6	50.5
0.75	443	211.4	59.7
0.75	463	207	48.5
0.75	483	196.2	69.2
0.75	493	188.5	165.7
1	423	302.9	69.5
1	473	288.3	64
1	523	278.6	62
1	573	261.8	66.1
1	623	255.7	80
1	673	244.8	83.9
1	723	241.4	77.9
1	773	238.6	64.1
1	823	227.4	67.8
1	873	226.1	64.5
1	923	208.8	68.7
