Measured thermophysical data. Heat capacity of dowanols within a temperature range of (275.15 to 339.15) K. Measurements and prediction.
Source: Fluid Phase Equilib., 2016, 10.1016/j.fluid.2016.09.002
Compound 1: 1-propoxy-2-propanol, C6H14O2, InChI=1S/C6H14O2/c1-3-4-8-5-6(2)7/h6-7H,3-5H2,1-2H3, purity 99%
Compound 2: 1-butoxy-2-propanol, C7H16O2, InChI=1S/C7H16O2/c1-3-4-5-9-6-7(2)8/h7-8H,3-6H2,1-2H3, purity 99%
Compound 3: dipropylene glycol monomethyl ether, C7H16O3, InChI=1S/C7H16O3/c1-6(4-8)10-5-7(2)9-3/h6-8H,4-5H2,1-3H3, purity 99%
Compound 4: 2-propanol, 1-(2-butoxy-1-methylethoxy)-, C10H22O3, InChI=1S/C10H22O3/c1-4-5-6-12-8-10(3)13-7-9(2)11/h9-11H,4-8H2,1-3H3, purity 99%
Compound 5: 1-[2-(2-methoxy-1-methylethoxy)-1-methylethoxy]-2-propanol, C10H22O4, InChI=1S/C10H22O4/c1-8(11)5-13-10(3)7-14-9(2)6-12-4/h8-11H,5-7H2,1-4H3, purity 97.5%
Compound 6: 1,2-dimethoxypropane, C5H12O2, InChI=1S/C5H12O2/c1-5(7-3)4-6-2/h5H,4H2,1-3H3, purity 99%
Compound 7: 2-methoxy-1-(2-methoxy-1-methylethoxy)propane, C8H18O3, InChI=1S/C8H18O3/c1-7(10-4)6-11-8(2)5-9-3/h7-8H,5-6H2,1-4H3, purity 99.1%
Compound 8: 1-(1-methyl-2-propoxyethoxy)-2-propanol, C9H20O3, InChI=1S/C9H20O3/c1-4-5-11-7-9(3)12-6-8(2)10/h8-10H,4-7H2,1-3H3, purity 98.5%
Compound 9: 1-[1-methyl-2-(1-methyl-2-propoxyethoxy)ethoxy]-2-propanol, C12H26O4, InChI=1S/C12H26O4/c1-5-6-14-8-11(3)16-9-12(4)15-7-10(2)13/h10-13H,5-9H2,1-4H3, purity 99.5%

System: 1-propoxy-2-propanol; phases: Liquid
Fixed: Pressure, kPa = 101.325
Property: Molar heat capacity at constant pressure, J/K/mol (Liquid); method: DSC
Temperature, K	Molar heat capacity at constant pressure, J/K/mol	uncertainty
275.15	271.6	10.5
276.65	272.4	10.6
278.15	273.2	10.6
279.65	274	10.6
281.15	274.8	10.6
282.65	275.6	10.7
284.15	276.4	10.7
285.65	277.2	10.7
287.15	278	10.8
288.65	278.8	10.8
290.15	279.6	10.8
291.65	280.3	10.9
293.15	281.1	10.9
294.65	281.9	10.9
296.15	282.6	10.9
297.65	283.4	11
298.15	283.6	11
299.15	284.1	11
300.65	284.9	11
302.15	285.6	11.1
303.65	286.4	11.1
305.15	287.1	11.1
306.65	287.8	11.1
308.15	288.5	11.2
309.65	289.2	11.2
311.15	290	11.2
312.65	290.7	11.3
314.15	291.4	11.3
315.65	292.1	11.3
317.15	292.8	11.3
318.65	293.4	11.4
320.15	294.1	11.4
321.65	294.8	11.4
323.15	295.5	11.4
324.65	296.1	11.5
326.15	296.8	11.5
327.65	297.5	11.5
329.15	298.1	11.5
330.65	298.8	11.6
332.15	299.4	11.6
333.65	300	11.6
335.15	300.7	11.6
336.65	301.3	11.7
338.15	301.9	11.7
339.15	302.4	11.7

System: 1-butoxy-2-propanol; phases: Liquid
Fixed: Pressure, kPa = 101.325
Property: Molar heat capacity at constant pressure, J/K/mol (Liquid); method: DSC
Temperature, K	Molar heat capacity at constant pressure, J/K/mol	uncertainty
275.15	302.3	11.7
276.65	303.2	11.7
278.15	304.1	11.8
279.65	305	11.8
281.15	305.9	11.8
282.65	306.8	11.9
284.15	307.6	11.9
285.65	308.5	11.9
287.15	309.3	12
288.65	310.2	12
290.15	311	12
291.65	311.9	12.1
293.15	312.7	12.1
294.65	313.5	12.1
296.15	314.4	12.2
297.65	315.2	12.2
298.15	315.5	12.2
299.15	316	12.2
300.65	316.8	12.3
302.15	317.6	12.3
303.65	318.4	12.3
305.15	319.2	12.4
306.65	320	12.4
308.15	320.7	12.4
309.65	321.5	12.5
311.15	322.3	12.5
312.65	323	12.5
314.15	323.8	12.5
315.65	324.5	12.6
317.15	325.3	12.6
318.65	326	12.6
320.15	326.8	12.7
321.65	327.5	12.7
323.15	328.2	12.7
324.65	328.9	12.7
326.15	329.6	12.8
327.65	330.3	12.8
329.15	331	12.8
330.65	331.7	12.8
332.15	332.4	12.9
333.65	333.1	12.9
335.15	333.8	12.9
336.65	334.4	13
338.15	335.1	13
339.15	335.5	13

System: dipropylene glycol monomethyl ether; phases: Liquid
Fixed: Pressure, kPa = 101.325
Property: Molar heat capacity at constant pressure, J/K/mol (Liquid); method: DSC
Temperature, K	Molar heat capacity at constant pressure, J/K/mol	uncertainty
275.15	317.5	12.3
276.65	318.2	12.3
278.15	318.9	12.4
279.65	319.6	12.4
281.15	320.3	12.4
282.65	321	12.4
284.15	321.8	12.5
285.65	322.5	12.5
287.15	323.2	12.5
288.65	323.9	12.5
290.15	324.6	12.6
291.65	325.4	12.6
293.15	326.1	12.6
294.65	326.8	12.7
296.15	327.5	12.7
297.65	328.2	12.7
298.15	328.5	12.7
299.15	329	12.7
300.65	329.7	12.8
302.15	330.4	12.8
303.65	331.1	12.8
305.15	331.9	12.9
306.65	332.6	12.9
308.15	333.3	12.9
309.65	334	12.9
311.15	334.8	13
312.65	335.5	13
314.15	336.2	13
315.65	337	13.1
317.15	337.7	13.1
318.65	338.4	13.1
320.15	339.1	13.1
321.65	339.9	13.2
323.15	340.6	13.2
324.65	341.3	13.2
326.15	342.1	13.2
327.65	342.8	13.3
329.15	343.5	13.3
330.65	344.3	13.3
332.15	345	13.4
333.65	345.7	13.4
335.15	346.5	13.4
336.65	347.2	13.4
338.15	347.9	13.5
339.15	348.4	13.5

System: 2-propanol, 1-(2-butoxy-1-methylethoxy)-; phases: Liquid
Fixed: Pressure, kPa = 101.325
Property: Molar heat capacity at constant pressure, J/K/mol (Liquid); method: DSC
Temperature, K	Molar heat capacity at constant pressure, J/K/mol	uncertainty
275.15	403.9	15.6
276.65	404.9	15.7
278.15	405.9	15.7
279.65	406.8	15.8
281.15	407.8	15.8
282.65	408.7	15.8
284.15	409.7	15.9
285.65	410.6	15.9
287.15	411.6	15.9
288.65	412.6	16
290.15	413.5	16
291.65	414.5	16.1
293.15	415.4	16.1
294.65	416.4	16.1
296.15	417.3	16.2
297.65	418.3	16.2
298.15	418.6	16.2
299.15	419.2	16.2
300.65	420.1	16.3
302.15	421.1	16.3
303.65	422	16.3
305.15	423	16.4
306.65	423.9	16.4
308.15	424.8	16.5
309.65	425.8	16.5
311.15	426.7	16.5
312.65	427.6	16.6
314.15	428.6	16.6
315.65	429.5	16.6
317.15	430.4	16.7
318.65	431.3	16.7
320.15	432.3	16.7
321.65	433.2	16.8
323.15	434.1	16.8
324.65	435	16.8
326.15	436	16.9
327.65	436.9	16.9
329.15	437.8	17
330.65	438.7	17
332.15	439.6	17
333.65	440.5	17.1
335.15	441.4	17.1
336.65	442.4	17.1
338.15	443.3	17.2
339.15	443.9	17.2

System: 1-[2-(2-methoxy-1-methylethoxy)-1-methylethoxy]-2-propanol; phases: Liquid
Fixed: Pressure, kPa = 101.325
Property: Molar heat capacity at constant pressure, J/K/mol (Liquid); method: DSC
Temperature, K	Molar heat capacity at constant pressure, J/K/mol	uncertainty
275.15	420.9	16.3
276.65	421.8	16.3
278.15	422.7	16.4
279.65	423.6	16.4
281.15	424.5	16.4
282.65	425.4	16.5
284.15	426.3	16.5
285.65	427.2	16.5
287.15	428.1	16.6
288.65	429	16.6
290.15	429.9	16.7
291.65	430.8	16.7
293.15	431.7	16.7
294.65	432.7	16.8
296.15	433.6	16.8
297.65	434.5	16.8
298.15	434.8	16.8
299.15	435.4	16.9
300.65	436.3	16.9
302.15	437.2	16.9
303.65	438.2	17
305.15	439.1	17
306.65	440	17
308.15	440.9	17.1
309.65	441.9	17.1
311.15	442.8	17.1
312.65	443.7	17.2
314.15	444.7	17.2
315.65	445.6	17.3
317.15	446.5	17.3
318.65	447.5	17.3
320.15	448.4	17.4
321.65	449.4	17.4
323.15	450.3	17.4
324.65	451.2	17.5
326.15	452.2	17.5
327.65	453.1	17.5
329.15	454.1	17.6
330.65	455	17.6
332.15	456	17.7
333.65	456.9	17.7
335.15	457.9	17.7
336.65	458.9	17.8
338.15	459.8	17.8
339.15	460.5	17.8

System: 1,2-dimethoxypropane; phases: Liquid
Fixed: Pressure, kPa = 101.325
Property: Molar heat capacity at constant pressure, J/K/mol (Liquid); method: DSC
Temperature, K	Molar heat capacity at constant pressure, J/K/mol	uncertainty
275.15	210.9	8.2
276.65	211.3	8.2
278.15	211.6	8.2
279.65	212	8.2
281.15	212.3	8.2
282.65	212.7	8.2
284.15	213.1	8.3
285.65	213.4	8.3
287.15	213.8	8.3
288.65	214.1	8.3
290.15	214.5	8.3
291.65	214.9	8.3
293.15	215.2	8.3
294.65	215.6	8.4
296.15	216	8.4
297.65	216.3	8.4
298.15	216.5	8.4
299.15	216.7	8.4
300.65	217.1	8.4
302.15	217.4	8.4
303.65	217.8	8.4
305.15	218.2	8.5
306.65	218.5	8.5
308.15	218.9	8.5
309.65	219.3	8.5
311.15	219.7	8.5
312.65	220	8.5
314.15	220.4	8.5
315.65	220.8	8.6
317.15	221.2	8.6
318.65	221.5	8.6
320.15	221.9	8.6
321.65	222.3	8.6
323.15	222.7	8.6
324.65	223	8.6
326.15	223.4	8.7
327.65	223.8	8.7
329.15	224.2	8.7
330.65	224.5	8.7
332.15	224.9	8.7
333.65	225.3	8.7
335.15	225.7	8.7
336.65	226.1	8.8
338.15	226.4	8.8
339.15	226.7	8.8

System: 2-methoxy-1-(2-methoxy-1-methylethoxy)propane; phases: Liquid
Fixed: Pressure, kPa = 101.325
Property: Molar heat capacity at constant pressure, J/K/mol (Liquid); method: DSC
Temperature, K	Molar heat capacity at constant pressure, J/K/mol	uncertainty
275.15	313.9	12.2
276.65	314.4	12.2
278.15	314.9	12.2
279.65	315.4	12.2
281.15	315.9	12.2
282.65	316.4	12.3
284.15	316.9	12.3
285.65	317.4	12.3
287.15	317.9	12.3
288.65	318.4	12.3
290.15	319	12.4
291.65	319.5	12.4
293.15	320	12.4
294.65	320.6	12.4
296.15	321.1	12.4
297.65	321.6	12.5
298.15	321.8	12.5
299.15	322.2	12.5
300.65	322.7	12.5
302.15	323.3	12.5
303.65	323.8	12.5
305.15	324.4	12.6
306.65	324.9	12.6
308.15	325.5	12.6
309.65	326.1	12.6
311.15	326.6	12.6
312.65	327.2	12.7
314.15	327.8	12.7
315.65	328.4	12.7
317.15	328.9	12.7
318.65	329.5	12.8
320.15	330.1	12.8
321.65	330.7	12.8
323.15	331.3	12.8
324.65	331.9	12.9
326.15	332.5	12.9
327.65	333.1	12.9
329.15	333.8	12.9
330.65	334.4	13
332.15	335	13
333.65	335.6	13
335.15	336.2	13
336.65	336.9	13
338.15	337.5	13.1
339.15	337.9	13.1

System: 1-(1-methyl-2-propoxyethoxy)-2-propanol; phases: Liquid
Fixed: Pressure, kPa = 101.325
Property: Molar heat capacity at constant pressure, J/K/mol (Liquid); method: DSC
Temperature, K	Molar heat capacity at constant pressure, J/K/mol	uncertainty
275.15	374.4	14.5
276.65	375.3	14.5
278.15	376.2	14.6
279.65	377.1	14.6
281.15	378	14.6
282.65	378.9	14.7
284.15	379.8	14.7
285.65	380.7	14.7
287.15	381.6	14.8
288.65	382.5	14.8
290.15	383.3	14.8
291.65	384.2	14.9
293.15	385.1	14.9
294.65	386	14.9
296.15	386.9	15
297.65	387.8	15
298.15	388.1	15
299.15	388.6	15.1
300.65	389.5	15.1
302.15	390.4	15.1
303.65	391.3	15.2
305.15	392.2	15.2
306.65	393	15.2
308.15	393.9	15.3
309.65	394.8	15.3
311.15	395.7	15.3
312.65	396.5	15.4
314.15	397.4	15.4
315.65	398.3	15.4
317.15	399.2	15.5
318.65	400	15.5
320.15	400.9	15.5
321.65	401.8	15.6
323.15	402.6	15.6
324.65	403.5	15.6
326.15	404.4	15.7
327.65	405.2	15.7
329.15	406.1	15.7
330.65	406.9	15.8
332.15	407.8	15.8
333.65	408.7	15.8
335.15	409.5	15.9
336.65	410.4	15.9
338.15	411.2	15.9
339.15	411.8	15.9

System: 1-[1-methyl-2-(1-methyl-2-propoxyethoxy)ethoxy]-2-propanol; phases: Liquid
Fixed: Pressure, kPa = 101.325
Property: Molar heat capacity at constant pressure, J/K/mol (Liquid); method: DSC
Temperature, K	Molar heat capacity at constant pressure, J/K/mol	uncertainty
275.15	478.3	18.5
276.65	479.4	18.6
278.15	480.4	18.6
279.65	481.5	18.6
281.15	482.5	18.7
282.65	483.6	18.7
284.15	484.6	18.8
285.65	485.7	18.8
287.15	486.7	18.8
288.65	487.8	18.9
290.15	488.8	18.9
291.65	489.9	19
293.15	490.9	19
294.65	492	19.1
296.15	493	19.1
297.65	494.1	19.1
298.15	494.5	19.2
299.15	495.2	19.2
300.65	496.2	19.2
302.15	497.3	19.3
303.65	498.4	19.3
305.15	499.4	19.3
306.65	500.5	19.4
308.15	501.5	19.4
309.65	502.6	19.5
311.15	503.7	19.5
312.65	504.8	19.6
314.15	505.8	19.6
315.65	506.9	19.6
317.15	508	19.7
318.65	509	19.7
320.15	510.1	19.8
321.65	511.2	19.8
323.15	512.3	19.8
324.65	513.3	19.9
326.15	514.4	19.9
327.65	515.5	20
329.15	516.6	20
330.65	517.6	20
332.15	518.7	20.1
333.65	519.8	20.1
335.15	520.9	20.2
336.65	522	20.2
338.15	523.1	20.3
339.15	523.8	20.3
