Measured thermophysical data. Phase equilibria in the ternary systems:KBr-MgBr2-H2O and NaBr-MgBr2-H2O at 348.15 K
Source: Fluid Phase Equilib., 2015, 10.1016/j.fluid.2015.02.015
Compound 1: water, H2O, InChI=1S/H2O/h1H2, purity 99.9%
Compound 2: potassium bromide, BrK, InChI=1S/BrH.K/h1H;/q;+1/p-1, purity 99%
Compound 3: magnesium bromide (MgBr2), Br2Mg, InChI=1S/2BrH.Mg/h2*1H;/q;;+2/p-2, purity 98%
Compound 4: sodium bromide, BrNa, InChI=1S/BrH.Na/h1H;/q;+1/p-1, purity 99%

System: water + potassium bromide + magnesium bromide (MgBr2); phases: Liquid
Fixed: Pressure, kPa = 101
Fixed: Temperature, K = 348.15
Property: Mass density, kg/m3 (Liquid); method: Pycnometric method
Mass fraction of potassium bromide	Mass fraction of magnesium bromide (MgBr2)	Mass density, kg/m3	uncertainty
0.484	0	1486.4	3.1
0.474	0.013	1487.1	3.1
0.365	0.101	1488.4	3.1
0.331	0.136	1493	3.6
0.262	0.193	1493.1	3.1
0.252	0.205	1494.3	3.1
0.201	0.244	1495.8	3.1
0.168	0.279	1496.6	3.5
0.122	0.322	1501.6	4.7
0.089	0.357	1511.5	4.8
0.0624	0.393	1531.6	5
0.0457	0.464	1621.8	5.6
0.024	0.501	1650.4	6.3
0.0196	0.509	1659.1	6.2
0.0174	0.514	1664.3	6.3
0.0168	0.518	1670.2	6.4
0.0168	0.519	1671.9	6.4
0.0162	0.523	1677.7	6.3
0.0112	0.526	1675.5	6.4
0.0083	0.527	1673	6.4
0.0033	0.531	1673.7	4.3
0	0.535	1674.4	4.6

System: water + potassium bromide + magnesium bromide (MgBr2); phases: Liquid, Crystal
Fixed: Pressure, kPa = 101
Fixed: Temperature, K = 348.15
Property: Mass fraction of magnesium bromide (MgBr2) (Liquid); method: Titration method
Mass fraction of potassium bromide	Mass fraction of magnesium bromide (MgBr2)	uncertainty
0.484	0	
0.474	0.013	0.0062
0.365	0.101	0.003
0.331	0.136	0.003
0.262	0.193	0.003
0.252	0.205	0.003
0.201	0.244	0.002
0.168	0.279	0.002
0.122	0.322	0.002
0.089	0.357	0.003
0.0624	0.393	0.003
0.0457	0.464	0.004

System: water + potassium bromide + magnesium bromide (MgBr2); phases: Liquid, Crystal of intercomponent compound 1
Fixed: Pressure, kPa = 101
Fixed: Temperature, K = 348.15
Property: Mass fraction of magnesium bromide (MgBr2) (Liquid); method: Titration method
Mass fraction of potassium bromide	Mass fraction of magnesium bromide (MgBr2)	uncertainty
0.024	0.501	0.003
0.0196	0.509	0.003
0.0174	0.514	0.003
0.0168	0.518	0.004
0.0168	0.519	0.004
0.0162	0.523	0.004
0.0457	0.464	0.003

System: water + potassium bromide + magnesium bromide (MgBr2); phases: Liquid, Crystal of intercomponent compound 2
Fixed: Temperature, K = 348.15
Fixed: Pressure, kPa = 101
Property: Mass fraction of magnesium bromide (MgBr2) (Liquid); method: Titration method
Mass fraction of potassium bromide	Mass fraction of magnesium bromide (MgBr2)	uncertainty
0.0162	0.523	0.003
0.0112	0.526	0.003
0.0083	0.527	0.003
0.0033	0.531	0.003
0	0.535	0.003

System: water + potassium bromide + magnesium bromide (MgBr2); phases: Liquid, Crystal, Crystal of intercomponent compound 1
Property: Mass fraction of magnesium bromide (MgBr2) (Liquid); method: Titration method
Temperature, K	Pressure, kPa	Mass fraction of magnesium bromide (MgBr2)	uncertainty
348.15	101	0.464	0.003

System: water + potassium bromide + magnesium bromide (MgBr2); phases: Liquid, Crystal of intercomponent compound 2, Crystal of intercomponent compound 1
Property: Mass fraction of magnesium bromide (MgBr2) (Liquid); method: Titration method
Temperature, K	Pressure, kPa	Mass fraction of magnesium bromide (MgBr2)	uncertainty
348.15	101	0.523	0.003

System: water + potassium bromide + magnesium bromide (MgBr2); phases: Liquid, Crystal of intercomponent compound 2, Crystal of intercomponent compound 1
Property: Mass fraction of potassium bromide (Liquid); method: Titration method
Temperature, K	Pressure, kPa	Mass fraction of potassium bromide	uncertainty
348.15	101	0.0162	0.0002

System: water + potassium bromide + magnesium bromide (MgBr2); phases: Liquid, Crystal of intercomponent compound 1, Crystal
Property: Mass fraction of potassium bromide (Liquid); method: Titration method
Temperature, K	Pressure, kPa	Mass fraction of potassium bromide	uncertainty
348.15	101	0.0457	0.0005

System: sodium bromide + water + magnesium bromide (MgBr2); phases: Liquid
Fixed: Pressure, kPa = 101
Fixed: Temperature, K = 348.15
Property: Mass density, kg/m3 (Liquid); method: Pycnometric method
Mass fraction of sodium bromide	Mass fraction of magnesium bromide (MgBr2)	Mass density, kg/m3	uncertainty
0.544	0	1616.8	3.3
0.496	0.0357	1616.2	3.4
0.452	0.0692	1617.5	3.5
0.399	0.119	1615.7	3.4
0.323	0.192	1615.6	3.4
0.159	0.353	1620.8	4.2
0.104	0.456	1676.2	5.2
0.0928	0.482	1694.8	5.4
0.0757	0.486	1674.5	5.4
0.0565	0.498	1664.1	5.1
0.0395	0.508	1653.9	5.2
0.0278	0.516	1648.7	6
0.0214	0.519	1643.7	6.1
0.0185	0.524	1647.2	6.1
0	0.535	1636.4	6.2

System: sodium bromide + water + magnesium bromide (MgBr2); phases: Liquid, Crystal
Fixed: Pressure, kPa = 101
Fixed: Temperature, K = 348.15
Property: Mass fraction of magnesium bromide (MgBr2) (Liquid); method: Titration method
Mass fraction of sodium bromide	Mass fraction of magnesium bromide (MgBr2)	uncertainty
0.544	0	
0.496	0.0357	0.0023
0.452	0.0692	0.0024
0.399	0.119	0.002
0.323	0.192	0.002
0.159	0.353	0.003
0.104	0.456	0.003
0.0928	0.482	0.003

System: sodium bromide + water + magnesium bromide (MgBr2); phases: Liquid, Crystal of intercomponent compound 1
Fixed: Pressure, kPa = 101
Fixed: Temperature, K = 348.15
Property: Mass fraction of magnesium bromide (MgBr2) (Liquid); method: Titration method
Mass fraction of sodium bromide	Mass fraction of magnesium bromide (MgBr2)	uncertainty
0.0757	0.486	0.003
0.0565	0.498	0.003
0.0395	0.508	0.003
0.0278	0.516	0.003
0.0214	0.519	0.003
0.0185	0.524	0.003
0	0.535	0.003
0.0928	0.482	0.003

System: sodium bromide + water + magnesium bromide (MgBr2); phases: Liquid, Crystal, Crystal of intercomponent compound 1
Property: Mass fraction of magnesium bromide (MgBr2) (Liquid); method: Titration method
Temperature, K	Pressure, kPa	Mass fraction of magnesium bromide (MgBr2)	uncertainty
348.12	101	0.482	0.003

System: sodium bromide + water + magnesium bromide (MgBr2); phases: Liquid, Crystal, Crystal of intercomponent compound 1
Property: Mass fraction of sodium bromide (Liquid); method: Titration method
Temperature, K	Pressure, kPa	Mass fraction of sodium bromide	uncertainty
348.15	101	0.0928	0.0006
