Measured thermophysical data. The influence of cation, anion and temperature on the liquid-liquid equilibrium of some pentanols-water system
Source: Fluid Phase Equilib., 2011, 10.1016/j.fluid.2011.03.018
Compound 1: pentan-2-ol, C5H12O, InChI=1S/C5H12O/c1-3-4-5(2)6/h5-6H,3-4H2,1-2H3, purity 98.9%
Compound 2: water, H2O, InChI=1S/H2O/h1H2
Compound 3: 3-pentanol, C5H12O, InChI=1S/C5H12O/c1-3-5(6)4-2/h5-6H,3-4H2,1-2H3, purity 99.5%
Compound 4: 2-methyl-1-butanol, C5H12O, InChI=1S/C5H12O/c1-3-5(2)4-6/h5-6H,3-4H2,1-2H3, purity 99.6%
Compound 5: 2-methylbutan-2-ol, C5H12O, InChI=1S/C5H12O/c1-4-5(2,3)6/h6H,4H2,1-3H3, purity 99.5%
Compound 6: pentan-1-ol, C5H12O, InChI=1S/C5H12O/c1-2-3-4-5-6/h6H,2-5H2,1H3, purity 99.5%
Compound 7: sodium nitrate, NNaO3, InChI=1S/NO3.Na/c2-1(3)4;/q-1;+1, purity 99.5%
Compound 8: potassium nitrate, KNO3, InChI=1S/K.NO3/c;2-1(3)4/q+1;-1, purity 99.5%

System: pentan-2-ol + water; phases: Liquid mixture 2, Liquid mixture 1
Fixed: Pressure, kPa = 101
Fixed: Temperature, K = 298
Property: Mass fraction of pentan-2-ol (Liquid mixture 2); method: Chromatography
Mass fraction of pentan-2-ol	uncertainty
0.798	0.002
0.028	0.001

System: 3-pentanol + water; phases: Liquid mixture 1, Liquid mixture 2
Property: Mass fraction of 3-pentanol (Liquid mixture 1); method: Chromatography
Temperature, K	Pressure, kPa	Mass fraction of 3-pentanol	uncertainty
298	101	0.102	0.001

System: 3-pentanol + water; phases: Liquid mixture 2, Liquid mixture 1
Property: Mass fraction of 3-pentanol (Liquid mixture 2); method: Chromatography
Pressure, kPa	Temperature, K	Mass fraction of 3-pentanol	uncertainty
101	298	0.882	0.001

System: 2-methyl-1-butanol + water; phases: Liquid mixture 2, Liquid mixture 1
Fixed: Pressure, kPa = 101
Fixed: Temperature, K = 298
Property: Mass fraction of 2-methyl-1-butanol (Liquid mixture 2); method: Chromatography
Mass fraction of 2-methyl-1-butanol	uncertainty
0.897	0.001
0.022	0.0002

System: 2-methylbutan-2-ol + water; phases: Liquid mixture 2, Liquid mixture 1
Fixed: Pressure, kPa = 101
Fixed: Temperature, K = 298
Property: Mass fraction of 2-methylbutan-2-ol (Liquid mixture 2); method: Chromatography
Mass fraction of 2-methylbutan-2-ol	uncertainty
0.915	0.001
0.028	0.001

System: pentan-1-ol + water; phases: Liquid mixture 2, Liquid mixture 1
Fixed: Pressure, kPa = 101.3
Fixed: Temperature, K = 298
Property: Mass fraction of pentan-1-ol (Liquid mixture 2); method: Chromatography
Mass fraction of pentan-1-ol	uncertainty
0.8973	0.001
0.0215	0.0002

System: pentan-1-ol + sodium nitrate + water; phases: Liquid mixture 1, Liquid mixture 2
Fixed: Temperature, K = 298
Fixed: Pressure, kPa = 101.3
Property: Mass fraction of pentan-1-ol (Liquid mixture 1); method: Chromatography
Property: Mass fraction of pentan-1-ol (Liquid mixture 2); method: Chromatography
Property: Mass fraction of water (Liquid mixture 2); method: Chromatography
Mass fraction of water	Mass fraction of pentan-1-ol	uncertainty	Mass fraction of pentan-1-ol	uncertainty	Mass fraction of water	uncertainty
0.9795	0.0215	0.0002	0.8973	0.0008	0.1027	
0.889	0.0144	0.0001	0.915	0.0007	0.0842	
0.8565	0.0133	0.0001	0.9162	0.0007	0.0833	
0.802	0.0084	0.0001	0.9246	0.0006	0.0745	
0.7574	0.0075	0.0001	0.93	0.0005	0.069	
0.7282	0.0048	0.0001	0.9333	0.0005	0.0655	
0.6919	0.0033	0.0001	0.9386	0.0005	0.0602	
0.6382	0.003	0.0001	0.9408	0.0005	0.0572	
0.607	0.0027	0.0001	0.945	0.0004	0.0533	
0.5777	0.0022	0.0001	0.9486	0.0004	0.0498	
0.5589	0.0011	0.0001	0.9503	0.0004	0.0482	
0.5404	0.001	0.0001	0.9556	0.0004	0.0426	

System: pentan-2-ol + sodium nitrate + water; phases: Liquid mixture 1, Liquid mixture 2
Fixed: Temperature, K = 298
Fixed: Pressure, kPa = 101
Property: Mass fraction of pentan-2-ol (Liquid mixture 1); method: Chromatography
Property: Mass fraction of pentan-2-ol (Liquid mixture 2); method: Chromatography
Property: Mass fraction of water (Liquid mixture 2); method: Chromatography
Mass fraction of water	Mass fraction of pentan-2-ol	uncertainty	Mass fraction of pentan-2-ol	uncertainty	Mass fraction of water	uncertainty
0.972	0.0279	0.0002	0.798	0.002	0.202	
0.956	0.0233	0.0002	0.832	0.001	0.168	
0.894	0.0121	0.0001	0.845	0.001	0.155	
0.83	0.007	0.0001	0.862	0.001	0.138	
0.773	0.0048	0.0001	0.89	0.001	0.109	
0.721	0.0031	0.0001	0.893	0.001	0.107	
0.667	0.0023	0.0001	0.893	0.001	0.106	
0.623	0.0015	0.0001	0.901	0.001	0.0978	
0.579	0.0013	0.0001	0.916	0.001	0.083	
0.546	0.001	0.0001	0.935	0.001	0.063	

System: 3-pentanol + sodium nitrate + water; phases: Liquid mixture 1, Liquid mixture 2
Fixed: Temperature, K = 298
Fixed: Pressure, kPa = 101
Property: Mass fraction of 3-pentanol (Liquid mixture 1); method: Chromatography
Property: Mass fraction of 3-pentanol (Liquid mixture 2); method: Chromatography
Property: Mass fraction of water (Liquid mixture 2); method: Chromatography
Mass fraction of water	Mass fraction of 3-pentanol	uncertainty	Mass fraction of 3-pentanol	uncertainty	Mass fraction of water	uncertainty
0.898	0.102	0.001	0.882	0.001	0.118	
0.891	0.0853	0.0008	0.908	0.001	0.0914	
0.854	0.0447	0.0004	0.918	0.001	0.0815	
0.809	0.0269	0.0002	0.925	0.001	0.0744	
0.758	0.0152	0.0001	0.94	0.001	0.0597	
0.704	0.0124	0.0001	0.948	0.001	0.0515	
0.656	0.0065	0.0001	0.958	0.001	0.0417	
0.608	0.004	0.0001	0.96	0.001	0.0398	
0.563	0.003	0.0001	0.964	0.001	0.0352	

System: 2-methyl-1-butanol + sodium nitrate + water; phases: Liquid mixture 1, Liquid mixture 2
Fixed: Temperature, K = 298
Fixed: Pressure, kPa = 101
Property: Mass fraction of 2-methyl-1-butanol (Liquid mixture 1); method: Chromatography
Property: Mass fraction of 2-methyl-1-butanol (Liquid mixture 2); method: Chromatography
Property: Mass fraction of water (Liquid mixture 2); method: Chromatography
Mass fraction of water	Mass fraction of 2-methyl-1-butanol	uncertainty	Mass fraction of 2-methyl-1-butanol	uncertainty	Mass fraction of water	uncertainty
0.979	0.022	0.0002	0.897	0.0008	0.103	
0.857	0.0128	0.0001	0.9165	0.0006	0.083	
0.802	0.0084	0.0001	0.9246	0.0006	0.0747	
0.757	0.0075	0.0001	0.9301	0.0005	0.0691	
0.7284	0.0046	0.0001	0.9333	0.0005	0.0655	
0.638	0.003	0.0001	0.9408	0.0005	0.0572	
0.607	0.0027	0.0001	0.9448	0.0004	0.0535	
0.5777	0.0022	0.0001	0.9486	0.0004	0.0498	
0.54	0.001	0.0001	0.9556	0.0004	0.0428	

System: 2-methylbutan-2-ol + sodium nitrate + water; phases: Liquid mixture 1, Liquid mixture 2
Fixed: Temperature, K = 298
Fixed: Pressure, kPa = 101
Property: Mass fraction of 2-methylbutan-2-ol (Liquid mixture 1); method: Chromatography
Property: Mass fraction of 2-methylbutan-2-ol (Liquid mixture 2); method: Chromatography
Property: Mass fraction of water (Liquid mixture 2); method: Chromatography
Mass fraction of water	Mass fraction of 2-methylbutan-2-ol	uncertainty	Mass fraction of 2-methylbutan-2-ol	uncertainty	Mass fraction of water	uncertainty
0.972	0.0279	0.0002	0.915	0.001	0.0849	
0.956	0.0234	0.0002	0.922	0.001	0.0784	
0.923	0.018	0.0002	0.922	0.001	0.078	
0.89	0.0139	0.0001	0.924	0.001	0.0755	
0.858	0.0105	0.0001	0.934	0.001	0.0655	
0.826	0.0083	0.0001	0.936	0.001	0.0637	
0.799	0.0067	0.0001	0.941	0.001	0.059	
0.766	0.0051	0.0001	0.944	0.001	0.0557	
0.733	0.0039	0.0001	0.949	0.001	0.051	

System: pentan-1-ol + water + potassium nitrate; phases: Liquid mixture 1, Liquid mixture 2
Fixed: Temperature, K = 298
Fixed: Pressure, kPa = 101
Property: Mass fraction of pentan-1-ol (Liquid mixture 1); method: Chromatography
Property: Mass fraction of pentan-1-ol (Liquid mixture 2); method: Chromatography
Property: Mass fraction of water (Liquid mixture 2); method: Chromatography
Mass fraction of water	Mass fraction of pentan-1-ol	uncertainty	Mass fraction of pentan-1-ol	uncertainty	Mass fraction of water	uncertainty
0.9789	0.0201	0.0002	0.892	0.001	0.106	
0.9188	0.0124	0.0001	0.9079	0.0007	0.0914	
0.8627	0.011	0.0001	0.905	0.001	0.0903	
0.8169	0.0087	0.0001	0.9129	0.0007	0.0858	
0.7695	0.0075	0.0001	0.9162	0.0007	0.0823	
0.7191	0.0046	0.0001	0.9287	0.0006	0.0698	
0.7007	0.0037	0.0001	0.9302	0.0005	0.0683	
0.6416	0.003	0.0001	0.9341	0.0005	0.0641	
0.6062	0.0028	0.0001	0.9411	0.0005	0.057	
0.585	0.002	0.0001	0.9424	0.0005	0.0556	
0.58	0.0014	0.0001	0.9443	0.0004	0.0539	
0.5248	0.0009	0.0001	0.9524	0.0004	0.0456	

System: pentan-2-ol + water + potassium nitrate; phases: Liquid mixture 1, Liquid mixture 2
Fixed: Temperature, K = 298
Fixed: Pressure, kPa = 101
Property: Mass fraction of pentan-2-ol (Liquid mixture 1); method: Chromatography
Property: Mass fraction of pentan-2-ol (Liquid mixture 2); method: Chromatography
Property: Mass fraction of water (Liquid mixture 2); method: Chromatography
Mass fraction of water	Mass fraction of pentan-2-ol	uncertainty	Mass fraction of pentan-2-ol	uncertainty	Mass fraction of water	uncertainty
0.979	0.0211	0.0002	0.798	0.002	0.202	
0.961	0.0176	0.0001	0.823	0.001	0.175	
0.895	0.0095	0.0001	0.825	0.001	0.173	
0.832	0.0057	0.0001	0.842	0.001	0.154	
0.774	0.0037	0.0001	0.872	0.001	0.122	
0.726	0.0026	0.0001	0.876	0.001	0.118	
0.678	0.0019	0.0001	0.876	0.001	0.118	
0.63	0.0017	0.0001	0.879	0.001	0.115	
0.583	0.0009	0.0001	0.905	0.001	0.0885	
0.55	0.0006	0.0001	0.905	0.001	0.0879	

System: 3-pentanol + water + potassium nitrate; phases: Liquid mixture 1, Liquid mixture 2
Fixed: Temperature, K = 298
Fixed: Pressure, kPa = 101
Property: Mass fraction of 3-pentanol (Liquid mixture 1); method: Chromatography
Property: Mass fraction of 3-pentanol (Liquid mixture 2); method: Chromatography
Property: Mass fraction of water (Liquid mixture 2); method: Chromatography
Mass fraction of water	Mass fraction of 3-pentanol	uncertainty	Mass fraction of 3-pentanol	uncertainty	Mass fraction of water	uncertainty
0.972	0.0279	0.0002	0.915	0.001	0.0849	
0.956	0.0234	0.0002	0.922	0.001	0.0784	
0.923	0.018	0.0002	0.922	0.001	0.078	
0.89	0.0139	0.0001	0.924	0.001	0.0755	
0.858	0.0105	0.0001	0.934	0.001	0.0655	
0.826	0.0083	0.0001	0.936	0.001	0.0637	
0.799	0.0067	0.0001	0.941	0.001	0.059	
0.766	0.0051	0.0001	0.944	0.001	0.0557	
0.733	0.0039	0.0001	0.949	0.001	0.051	

System: 2-methyl-1-butanol + water + potassium nitrate; phases: Liquid mixture 1, Liquid mixture 2
Fixed: Temperature, K = 298
Fixed: Pressure, kPa = 101
Property: Mass fraction of 2-methyl-1-butanol (Liquid mixture 1); method: Chromatography
Property: Mass fraction of 2-methyl-1-butanol (Liquid mixture 2); method: Chromatography
Property: Mass fraction of water (Liquid mixture 2); method: Chromatography
Mass fraction of water	Mass fraction of 2-methyl-1-butanol	uncertainty	Mass fraction of 2-methyl-1-butanol	uncertainty	Mass fraction of water	uncertainty
0.927	0.0729	0.0006	0.798	0.002	0.202	
0.883	0.0522	0.0004	0.823	0.001	0.175	
0.88	0.051	0.0004	0.825	0.001	0.173	
0.833	0.0414	0.0003	0.842	0.001	0.154	
0.736	0.0212	0.0002	0.872	0.001	0.122	
0.715	0.0203	0.0002	0.876	0.001	0.118	
0.712	0.0191	0.0002	0.876	0.001	0.118	
0.695	0.0157	0.0001	0.879	0.001	0.115	
0.598	0.0114	0.0001	0.905	0.001	0.0885	
0.595	0.0108	0.0001	0.905	0.001	0.0879	

System: 2-methylbutan-2-ol + water + potassium nitrate; phases: Liquid mixture 2, Liquid mixture 1
Fixed: Temperature, K = 298
Fixed: Pressure, kPa = 101
Property: Mass fraction of 2-methylbutan-2-ol (Liquid mixture 2); method: Chromatography
Property: Mass fraction of 2-methylbutan-2-ol (Liquid mixture 1); method: Chromatography
Property: Mass fraction of water (Liquid mixture 1); method: Chromatography
Mass fraction of water	Mass fraction of 2-methylbutan-2-ol	uncertainty	Mass fraction of 2-methylbutan-2-ol	uncertainty	Mass fraction of water	uncertainty
0.104	0.894	0.001	0.0215	0.0002	0.9798	
0.0916	0.9078	0.0007	0.0144	0.0001	0.8888	
0.0903	0.905	0.001	0.013	0.0001	0.8568	
0.0854	0.9131	0.0007	0.0084	0.0001	0.802	
0.0823	0.9162	0.0007	0.0076	0.0001	0.7575	
0.0696	0.9288	0.0006	0.0048	0.0001	0.7282	
0.0683	0.9302	0.0005	0.0033	0.0001	0.6921	
0.0641	0.9341	0.0005	0.003	0.0001	0.6382	
0.057	0.9411	0.0005	0.0024	0.0001	0.6073	
0.056	0.9422	0.0005	0.0022	0.0001	0.5777	
0.0539	0.9443	0.0004	0.0011	0.0001	0.5589	
0.0452	0.9526	0.0004	0.0008	0.0001	0.5408	
