Measured thermophysical data. Thermodynamics of mixtures containing amines VI. Liquid liquid equilibria for mixtures of o-toluidine + selected alkanes
Source: Fluid Phase Equilib., 2007, 10.1016/j.fluid.2007.01.022
Compound 1: 2-methylaniline, C7H9N, InChI=1S/C7H9N/c1-6-4-2-3-5-7(6)8/h2-5H,8H2,1H3
Compound 2: heptane, C7H16, InChI=1S/C7H16/c1-3-5-7-6-4-2/h3-7H2,1-2H3
Compound 3: octane, C8H18, InChI=1S/C8H18/c1-3-5-7-8-6-4-2/h3-8H2,1-2H3
Compound 4: nonane, C9H20, InChI=1S/C9H20/c1-3-5-7-9-8-6-4-2/h3-9H2,1-2H3
Compound 5: decane, C10H22, InChI=1S/C10H22/c1-3-5-7-9-10-8-6-4-2/h3-10H2,1-2H3
Compound 6: dodecane, C12H26, InChI=1S/C12H26/c1-3-5-7-9-11-12-10-8-6-4-2/h3-12H2,1-2H3

System: 2-methylaniline; phases: Liquid
Property: Mass density, kg/m3 (Liquid); method: VIBTUB:UFactor:4
Temperature, K	Pressure, kPa	Mass density, kg/m3	uncertainty
298.15	101.325	994.343	0.24

System: heptane; phases: Liquid
Property: Mass density, kg/m3 (Liquid); method: VIBTUB:UFactor:4
Temperature, K	Pressure, kPa	Mass density, kg/m3	uncertainty
298.15	101.325	679.627	0.85

System: octane; phases: Liquid
Property: Mass density, kg/m3 (Liquid); method: VIBTUB:UFactor:6
Temperature, K	Pressure, kPa	Mass density, kg/m3	uncertainty
298.15	101.325	698.636	1.296

System: nonane; phases: Liquid
Property: Mass density, kg/m3 (Liquid); method: VIBTUB:UFactor:6
Temperature, K	Pressure, kPa	Mass density, kg/m3	uncertainty
298.15	101.325	714.064	1.254

System: decane; phases: Liquid
Property: Mass density, kg/m3 (Liquid); method: VIBTUB:UFactor:6
Temperature, K	Pressure, kPa	Mass density, kg/m3	uncertainty
298.15	101.325	726.412	1.635

System: dodecane; phases: Liquid
Property: Mass density, kg/m3 (Liquid); method: VIBTUB:UFactor:6
Temperature, K	Pressure, kPa	Mass density, kg/m3	uncertainty
298.15	101.325	741.54	1.612

System: 2-methylaniline + heptane; phases: Liquid mixture 1, Liquid mixture 2
Fixed: Pressure, kPa = 101
Property: Liquid-liquid equilibrium temperature, K (Liquid mixture 1); method: VISOBS
Mole fraction of 2-methylaniline	Liquid-liquid equilibrium temperature, K	uncertainty
0.2395	286.9	0.25
0.2685	288.83	0.25
0.2711	288.97	0.25
0.3062	290.38	0.25
0.3262	291.12	0.25
0.353	291.81	0.25
0.3537	291.74	0.25
0.3693	292.13	0.25
0.3987	292.47	0.25
0.4119	292.54	0.25
0.4247	292.75	0.25
0.4481	292.85	0.25
0.4825	292.9	0.25
0.4968	292.87	0.25
0.5048	292.91	0.25
0.5321	292.88	0.25
0.5476	292.84	0.25
0.5478	292.89	0.25
0.5678	292.82	0.25
0.5941	292.65	0.25
0.6153	292.46	0.25
0.6186	292.44	0.25
0.6242	292.44	0.25
0.6496	292.01	0.25
0.6896	290.89	0.25
0.6934	290.85	0.25
0.7074	290.28	0.25
0.7262	289.37	0.25
0.7634	286.83	0.25

System: 2-methylaniline + octane; phases: Liquid mixture 1, Liquid mixture 2
Fixed: Pressure, kPa = 101
Property: Liquid-liquid equilibrium temperature, K (Liquid mixture 1); method: VISOBS
Mole fraction of 2-methylaniline	Liquid-liquid equilibrium temperature, K	uncertainty
0.2306	286.05	0.25
0.2382	286.57	0.26
0.2507	287.51	0.26
0.2566	287.87	0.25
0.2841	289.68	0.25
0.3104	291	0.25
0.3651	292.91	0.25
0.3879	293.46	0.25
0.4711	294.46	0.25
0.4857	294.54	0.25
0.5011	294.71	0.25
0.5276	294.73	0.25
0.5293	294.78	0.25
0.5296	294.73	0.25
0.5685	294.69	0.25
0.5851	294.71	0.25
0.6063	294.64	0.25
0.6189	294.61	0.25
0.6409	294.57	0.25
0.6518	294.36	0.25
0.6974	293.61	0.25
0.7096	293.29	0.25
0.7259	292.7	0.25
0.7404	292.11	0.25
0.7524	291.42	0.25
0.7857	289.17	0.26
0.8198	285.94	0.26

System: 2-methylaniline + nonane; phases: Liquid mixture 1, Liquid mixture 2
Fixed: Pressure, kPa = 101
Property: Liquid-liquid equilibrium temperature, K (Liquid mixture 1); method: VISOBS
Mole fraction of 2-methylaniline	Liquid-liquid equilibrium temperature, K	uncertainty
0.289	290.4	0.25
0.3488	293.76	0.25
0.3625	294.26	0.25
0.3914	295.29	0.25
0.4224	296.13	0.25
0.4473	296.52	0.25
0.4577	296.67	0.25
0.4857	297.02	0.25
0.4921	297.1	0.25
0.5342	297.17	0.25
0.5399	297.24	0.25
0.5568	297.33	0.25
0.5635	297.28	0.25
0.5941	297.32	0.25
0.6191	297.2	0.25
0.6231	297.24	0.25
0.6522	297.04	0.25
0.6852	296.79	0.25
0.7429	295.61	0.25
0.7654	294.54	0.25
0.772	294.37	0.25
0.8174	291.33	0.27
0.8202	291.04	0.27

System: 2-methylaniline + decane; phases: Liquid mixture 1, Liquid mixture 2
Fixed: Pressure, kPa = 101
Property: Liquid-liquid equilibrium temperature, K (Liquid mixture 1); method: VISOBS
Mole fraction of 2-methylaniline	Liquid-liquid equilibrium temperature, K	uncertainty
0.3424	294.89	0.25
0.3563	295.66	0.25
0.3643	295.96	0.25
0.3899	296.93	0.25
0.433	298.37	0.25
0.4568	298.95	0.25
0.4801	299.35	0.25
0.5157	299.65	0.25
0.532	299.87	0.25
0.5611	300.06	0.25
0.6118	300.12	0.25
0.6553	300.08	0.25
0.6717	299.99	0.25
0.7086	299.72	0.25
0.7347	299.43	0.25
0.7462	299.18	0.25
0.7749	298.35	0.25
0.7893	297.78	0.25
0.8082	296.73	0.26
0.8412	293.97	0.26

System: 2-methylaniline + dodecane; phases: Liquid mixture 1, Liquid mixture 2
Fixed: Pressure, kPa = 101
Property: Liquid-liquid equilibrium temperature, K (Liquid mixture 1); method: VISOBS
Mole fraction of 2-methylaniline	Liquid-liquid equilibrium temperature, K	uncertainty
0.4546	303	0.25
0.4762	303.69	0.25
0.49	304.14	0.25
0.5159	304.74	0.25
0.5446	305.33	0.25
0.5699	305.58	0.25
0.5864	305.76	0.25
0.6034	305.91	0.25
0.6195	305.97	0.25
0.6532	305.99	0.25
0.6886	306.02	0.25
0.7097	305.96	0.25
0.717	305.93	0.25
0.7499	305.79	0.25
0.7613	305.7	0.25
0.7807	305.45	0.25
0.8113	304.5	0.25
0.836	303.25	0.25
0.8406	302.95	0.25
