Measured thermophysical data. Thermal conductivity of liquid 1,1,1,3,3,3-hexafluoropropane (HFC-236fa) from 253 K to 373 K and pressure up to 30 MPa
Source: Fluid Phase Equilib., 2011, 10.1016/j.fluid.2011.02.015
Compound 1: 1,1,1,3,3,3-hexafluoropropane, C3H2F6, InChI=1S/C3H2F6/c4-2(5,6)1-3(7,8)9/h1H2, purity 99.5%

System: 1,1,1,3,3,3-hexafluoropropane; phases: Liquid
Property: Thermal conductivity, W/m/K (Liquid); method: HOTW:elcondl
Temperature, K	Pressure, kPa	Thermal conductivity, W/m/K	uncertainty
252.57	10000	0.0912	0.0045
252.8	5000	0.0891	0.0045
252.87	100	0.0873	0.0044
252.92	10000	0.0914	0.0046
253.16	5000	0.0887	0.0044
253.24	20000	0.0955	0.0047
253.38	100	0.0872	0.0044
253.41	30000	0.0972	0.0048
253.47	20000	0.0949	0.0047
253.51	20000	0.0952	0.0047
253.6	10000	0.0911	0.0045
253.65	5000	0.0891	0.0045
253.66	100	0.0872	0.0044
253.86	30000	0.0971	0.0048
255.05	30000	0.0973	0.0048
272.91	30000	0.0926	0.0046
273.36	10000	0.0847	0.0043
273.45	20000	0.0896	0.0045
273.49	1000	0.0814	0.0041
273.66	10000	0.0851	0.0043
273.82	5000	0.0833	0.0042
273.85	1000	0.081	0.004
273.86	1000	0.0812	0.0041
273.95	30000	0.0929	0.0046
274.06	20000	0.0895	0.0045
274.16	5000	0.0832	0.0042
274.27	10000	0.0855	0.0043
274.33	30000	0.0927	0.0046
274.57	20000	0.0892	0.0045
274.63	5000	0.0835	0.0042
293.15	10000	0.0802	0.0041
293.22	1000	0.0762	0.0039
293.42	30000	0.0894	0.0045
293.49	1000	0.0767	0.004
293.61	5000	0.0782	0.004
293.65	10000	0.0805	0.0041
293.76	5000	0.0781	0.004
293.76	30000	0.0891	0.0045
293.85	10000	0.0802	0.0041
293.95	5000	0.0783	0.004
294.47	1000	0.0764	0.0039
294.54	30000	0.0893	0.0045
312.5	5000	0.0705	0.0037
312.59	1000	0.0682	0.0036
312.89	5000	0.0709	0.0037
313.01	1000	0.0683	0.0036
313.28	5000	0.0706	0.0037
313.39	1000	0.068	0.0036
313.53	20000	0.0809	0.0041
313.55	10000	0.0757	0.0039
313.85	10000	0.0761	0.0039
313.86	30000	0.0853	0.0043
314.04	10000	0.0758	0.0039
314.06	30000	0.085	0.004
314.2	20000	0.0809	0.0041
315.13	20000	0.0815	0.0042
315.13	30000	0.0852	0.0043
332.48	10000	0.0699	0.0037
332.49	5000	0.0654	0.0035
332.51	1000	0.0623	0.0034
332.72	30000	0.0805	0.0041
332.79	20000	0.0756	0.0039
332.84	30000	0.0813	0.0041
332.85	10000	0.0695	0.0037
332.87	1000	0.0624	0.0034
332.89	5000	0.0651	0.0035
333.2	10000	0.0695	0.0037
333.24	1000	0.0623	0.0034
333.26	5000	0.0648	0.0035
333.48	30000	0.0802	0.0041
333.59	20000	0.0755	0.0039
334.42	20000	0.0761	0.0039
353.02	30000	0.0749	0.0039
353.17	10000	0.0636	0.0034
353.29	20000	0.0705	0.0037
353.35	2000	0.0565	0.0032
353.35	5000	0.0593	0.0033
353.57	30000	0.0744	0.0039
353.68	2000	0.0564	0.0032
353.74	5000	0.0592	0.0033
353.74	20000	0.0701	0.0037
353.82	10000	0.0635	0.0034
353.95	30000	0.0741	0.0039
354.09	20000	0.0699	0.0037
354.12	2000	0.056	0.0032
354.24	10000	0.0633	0.0034
354.4	5000	0.0594	0.0033
373.08	10000	0.0597	0.0033
373.15	30000	0.0726	0.0038
373.22	5000	0.0554	0.0031
373.4	20000	0.0672	0.0036
373.46	3000	0.0525	0.003
373.56	10000	0.0596	0.0033
373.72	5000	0.0559	0.0031
373.8	30000	0.0727	0.0038
373.84	3000	0.0524	0.003
373.87	20000	0.0677	0.0036
374.1	10000	0.0601	0.0033
374.21	30000	0.0724	0.0038
374.24	5000	0.0557	0.0031
374.26	3000	0.0526	0.003
374.57	20000	0.0672	0.0036
