Measured thermophysical data. Solubility of L-phenylalanine in water and different binary mixtures from 288.15 to 318.15 K
Source: Fluid Phase Equilib., 2012, 10.1016/j.fluid.2011.08.029
Compound 1: L-phenylalanine, C9H11NO2, InChI=1S/C9H11NO2/c10-8(9(11)12)6-7-4-2-1-3-5-7/h1-5,8H,6,10H2,(H,11,12)/t8-/m0/s1
Compound 2: methanol, CH4O, InChI=1S/CH4O/c1-2/h2H,1H3, purity 99.5%
Compound 3: ethanol, C2H6O, InChI=1S/C2H6O/c1-2-3/h3H,2H2,1H3, purity 99.7%
Compound 4: water, H2O, InChI=1S/H2O/h1H2, purity 99.8%

System: L-phenylalanine + methanol + water; phases: Liquid, Crystal
Fixed: Pressure, kPa = 101
Property: Mole fraction of L-phenylalanine (Liquid); method: UV-vis spectrophotometry
Temperature, K	Solvent: Mole fraction of water	Mole fraction of L-phenylalanine	uncertainty
288.15	0	0.000323	2e-05
288.15	0.3597	0.000844	5.2e-05
288.15	0.5997	0.001196	7.4e-05
288.15	0.6921	0.001313	8.2e-05
288.15	0.7378	0.001308	8.2e-05
288.15	0.8176	0.001421	8.9e-05
288.15	0.8827	0.001503	9.5e-05
288.15	1	0.002243	0.000142
293.15	0	0.000415	2.6e-05
293.15	0.3597	0.001012	6.2e-05
293.15	0.5997	0.001364	8.5e-05
293.15	0.6921	0.001582	9.8e-05
293.15	0.7378	0.001654	0.000103
293.15	0.8176	0.001724	0.000108
293.15	0.8827	0.001889	0.000119
293.15	1	0.002513	0.000159
298.15	0	0.000567	3.5e-05
298.15	0.3597	0.001124	6.9e-05
298.15	0.5997	0.001554	9.6e-05
298.15	0.6921	0.001707	0.000106
298.15	0.7378	0.001879	0.000117
298.15	0.8176	0.002046	0.000128
298.15	0.8827	0.00218	0.000137
298.15	1	0.002745	0.000174
303.15	0	0.000589	3.6e-05
303.15	0.3597	0.00132	8.1e-05
303.15	0.5997	0.001821	0.000113
303.15	0.6921	0.00196	0.000122
303.15	0.7378	0.002146	0.000134
303.15	0.8176	0.002283	0.000143
303.15	0.8827	0.002428	0.000152
303.15	1	0.003055	0.000193
308.15	0	0.000618	3.8e-05
308.15	0.3597	0.001523	9.4e-05
308.15	0.5997	0.002086	0.000129
308.15	0.6921	0.002353	0.000146
308.15	0.7378	0.002494	0.000155
308.15	0.8176	0.002474	0.000155
308.15	0.8827	0.002659	0.000167
308.15	1	0.003196	0.000202
313.15	0	0.000775	4.7e-05
313.15	0.3597	0.001753	0.000108
313.15	0.5997	0.002403	0.000149
313.15	0.6921	0.002535	0.000157
313.15	0.7378	0.002681	0.000167
313.15	0.8176	0.002708	0.000169
313.15	0.8827	0.002819	0.000177
313.15	1	0.003415	0.000216
318.15	0	0.00082	5e-05
318.15	0.3597	0.001899	0.000117
318.15	0.5997	0.002682	0.000166
318.15	0.6921	0.00278	0.000173
318.15	0.7378	0.002903	0.000181
318.15	0.8176	0.002988	0.000187
318.15	0.8827	0.003085	0.000194
318.15	1	0.003667	0.000232

System: L-phenylalanine + ethanol + water; phases: Liquid, Crystal
Fixed: Pressure, kPa = 101
Property: Mole fraction of L-phenylalanine (Liquid); method: UV-vis spectrophotometry
Temperature, K	Solvent: Mole fraction of water	Mole fraction of L-phenylalanine	uncertainty
288.15	0	8.4e-05	5e-06
288.15	0.4475	0.000489	3e-05
288.15	0.6835	0.000731	4.6e-05
288.15	0.7641	0.000886	5.6e-05
288.15	0.8023	0.001124	7.1e-05
288.15	0.866	0.001304	8.2e-05
288.15	0.9156	0.001466	9.2e-05
288.15	1	0.002243	0.000142
293.15	0	9.6e-05	6e-06
293.15	0.4475	0.000642	4e-05
293.15	0.6835	0.001026	6.4e-05
293.15	0.7641	0.001249	7.8e-05
293.15	0.8023	0.001428	8.9e-05
293.15	0.866	0.001668	0.000104
293.15	0.9156	0.001774	0.000111
293.15	1	0.002513	0.000159
298.15	0	0.000113	7e-06
298.15	0.4475	0.00082	5.1e-05
298.15	0.6835	0.001165	7.3e-05
298.15	0.7641	0.001517	9.4e-05
298.15	0.8023	0.001595	9.9e-05
298.15	0.866	0.001775	0.000111
298.15	0.9156	0.00199	0.000125
298.15	1	0.002745	0.000174
303.15	0	0.000135	8e-06
303.15	0.4475	0.001078	6.6e-05
303.15	0.6835	0.001624	0.000101
303.15	0.7641	0.00188	0.000117
303.15	0.8023	0.001948	0.000121
303.15	0.866	0.002092	0.000131
303.15	0.9156	0.002256	0.000141
303.15	1	0.003055	0.000193
308.15	0	0.000152	9e-06
308.15	0.4475	0.001239	7.6e-05
308.15	0.6835	0.001975	0.000122
308.15	0.7641	0.002143	0.000133
308.15	0.8023	0.002315	0.000144
308.15	0.866	0.00245	0.000153
308.15	0.9156	0.002586	0.000162
308.15	1	0.003196	0.000202
313.15	0	0.000187	1.1e-05
313.15	0.4475	0.001549	9.5e-05
313.15	0.6835	0.002284	0.000141
313.15	0.7641	0.002423	0.00015
313.15	0.8023	0.002537	0.000157
313.15	0.866	0.002659	0.000165
313.15	0.9156	0.002743	0.000171
313.15	1	0.003415	0.000216
318.15	0	0.000218	1.3e-05
318.15	0.4475	0.001705	0.000104
318.15	0.6835	0.00242	0.000149
318.15	0.7641	0.002649	0.000164
318.15	0.8023	0.00273	0.000169
318.15	0.866	0.002839	0.000177
318.15	0.9156	0.002908	0.000182
318.15	1	0.003667	0.000232
