Measured thermophysical data. Vapor liquid equilibrium for binary system of diethyl sulfide + cyclohexane at 353.15 and 343.15 K and diethyl sulfide + 2-ethoxy-2-methylpropane at 343.15 and 333.15 K
Source: Fluid Phase Equilib., 2007, 10.1016/j.fluid.2006.12.015
Compound 1: 3-thiapentane, C4H10S, InChI=1S/C4H10S/c1-3-5-4-2/h3-4H2,1-2H3
Compound 2: cyclohexane, C6H12, InChI=1S/C6H12/c1-2-4-6-5-3-1/h1-6H2
Compound 3: toluene, C7H8, InChI=1S/C7H8/c1-7-5-3-2-4-6-7/h2-6H,1H3
Compound 4: 2-ethoxy-2-methylpropane, C6H14O, InChI=1S/C6H14O/c1-5-7-6(2,3)4/h5H2,1-4H3

System: 3-thiapentane; phases: Liquid
Property: Refractive index (Na D-line) (Liquid); method: Standard Abbe refractometry
Temperature, K	Pressure, kPa	Refractive index (Na D-line)	uncertainty
298.15	101.325	1.44	0.0007

System: 3-thiapentane; phases: Liquid, Gas
Property: Vapor or sublimation pressure, kPa (Liquid); method: Ebulliometric method (Recirculating still)
Temperature, K	Vapor or sublimation pressure, kPa	uncertainty
333.15	34.97	0.41
343.15	50.14	0.45
353.15	70.15	0.49

System: cyclohexane; phases: Liquid
Property: Refractive index (Na D-line) (Liquid); method: Standard Abbe refractometry
Temperature, K	Pressure, kPa	Refractive index (Na D-line)	uncertainty
298.15	101.325	1.4235	0.0007

System: cyclohexane; phases: Liquid, Gas
Property: Vapor or sublimation pressure, kPa (Liquid); method: Ebulliometric method (Recirculating still)
Temperature, K	Vapor or sublimation pressure, kPa	uncertainty
318.47	30.51	0.37
326.06	40.65	0.37
331.63	49.56	0.38
337.52	60.6	0.39
342.21	70.8	0.41
343.15	72.66	0.52
346.25	80.64	0.43
350.08	90.89	0.44
353.15	99.41	0.58
353.32	100.38	0.45

System: toluene; phases: Liquid
Property: Refractive index (Na D-line) (Liquid); method: Standard Abbe refractometry
Temperature, K	Pressure, kPa	Refractive index (Na D-line)	uncertainty
298.15	101.325	1.4939	0.0007

System: 2-ethoxy-2-methylpropane; phases: Liquid
Property: Refractive index (Na D-line) (Liquid); method: Standard Abbe refractometry
Temperature, K	Pressure, kPa	Refractive index (Na D-line)	uncertainty
298.15	101.325	1.373	0.0007

System: 2-ethoxy-2-methylpropane; phases: Liquid, Gas
Property: Vapor or sublimation pressure, kPa (Liquid); method: Ebulliometric method (Recirculating still)
Temperature, K	Vapor or sublimation pressure, kPa	uncertainty
312.51	30.76	0.37
318.88	39.54	0.37
326.24	52.05	0.39
331.11	62.01	0.4
333.15	66.52	0.51
335.04	71.06	0.42
339.18	81.64	0.43
342.53	91.06	0.45
343.15	92.96	0.56
345.9	101.41	0.46

System: cyclohexane + 3-thiapentane; phases: Liquid, Gas
Property: Vapor or sublimation pressure, kPa (Liquid); method: Ebulliometric method (Recirculating still)
Mole fraction of 3-thiapentane	Temperature, K	Vapor or sublimation pressure, kPa	uncertainty
0	343.15	72.66	0.52
0	353.15	99.41	0.58
0.032	343.15	72.55	0.52
0.037	353.15	99.13	0.58
0.084	343.15	72.33	0.52
0.086	353.15	98.79	0.58
0.14	353.15	98.24	0.58
0.147	343.15	71.91	0.52
0.204	353.15	97.43	0.57
0.222	343.15	71.17	0.52
0.291	353.15	95.96	0.57
0.301	343.15	70.16	0.51
0.375	353.15	94.25	0.56
0.388	343.15	68.83	0.51
0.464	353.15	92.07	0.56
0.473	343.15	67.19	0.5
0.549	353.15	89.63	0.55
0.593	343.15	64.28	0.49
0.635	353.15	86.9	0.54
0.742	343.15	60.07	0.48
0.746	353.15	82.85	0.53
0.812	343.15	57.77	0.48
0.814	353.15	79.88	0.52
0.875	343.15	55.45	0.47
0.877	353.15	76.85	0.52
0.928	343.15	53.29	0.47
0.931	353.15	74	0.51
0.972	343.15	51.38	0.46
1	343.15	50.14	0.45
1	353.15	70.15	0.49

System: cyclohexane + 3-thiapentane; phases: Gas, Liquid
Property: Mole fraction of 3-thiapentane (Gas); method: Chromatography
Mole fraction of 3-thiapentane	Temperature, K	Mole fraction of 3-thiapentane	uncertainty
0	343.15	0	0.001
0	353.15	0	0.001
0.032	343.15	0.03	0.003
0.037	353.15	0.035	0.003
0.084	343.15	0.077	0.003
0.086	353.15	0.079	0.003
0.14	353.15	0.125	0.003
0.147	343.15	0.129	0.003
0.204	353.15	0.178	0.003
0.222	343.15	0.189	0.003
0.291	353.15	0.247	0.003
0.301	343.15	0.251	0.003
0.375	353.15	0.313	0.004
0.388	343.15	0.319	0.004
0.464	353.15	0.386	0.004
0.473	343.15	0.385	0.004
0.549	353.15	0.456	0.005
0.593	343.15	0.484	0.005
0.635	353.15	0.533	0.005
0.742	343.15	0.629	0.004
0.746	353.15	0.643	0.004
0.812	343.15	0.712	0.004
0.814	353.15	0.721	0.004
0.875	343.15	0.795	0.004
0.877	353.15	0.803	0.004
0.928	343.15	0.875	0.004
0.931	353.15	0.882	0.004
0.972	343.15	0.948	0.004
1	343.15	1	0.001
1	353.15	1	0.001

System: 3-thiapentane + 2-ethoxy-2-methylpropane; phases: Liquid, Gas
Property: Vapor or sublimation pressure, kPa (Liquid); method: Ebulliometric method (Recirculating still)
Mole fraction of 3-thiapentane	Temperature, K	Vapor or sublimation pressure, kPa	uncertainty
0	333.15	66.52	0.51
0	343.15	92.96	0.56
0.046	333.15	65.19	0.51
0.1	333.15	63.71	0.5
0.103	343.15	88.96	0.56
0.168	333.15	61.85	0.49
0.177	343.15	86.23	0.55
0.254	333.15	59.5	0.49
0.258	343.15	83.19	0.54
0.34	333.15	57.07	0.48
0.344	343.15	79.87	0.52
0.429	333.15	54.47	0.47
0.431	343.15	76.42	0.51
0.515	343.15	72.96	0.51
0.628	333.15	48.39	0.45
0.643	343.15	67.61	0.49
0.707	333.15	45.76	0.44
0.723	343.15	64.06	0.48
0.845	333.15	40.92	0.43
0.85	343.15	57.95	0.46
0.898	333.15	38.97	0.42
0.902	343.15	55.32	0.45
0.944	343.15	53.14	0.45
0.945	333.15	37.19	0.42
0.979	333.15	35.84	0.42
0.979	343.15	51.32	0.45
1	333.15	34.97	0.41
1	343.15	50.14	0.43

System: 3-thiapentane + 2-ethoxy-2-methylpropane; phases: Gas, Liquid
Property: Mole fraction of 3-thiapentane (Gas); method: Chromatography
Mole fraction of 3-thiapentane	Temperature, K	Mole fraction of 3-thiapentane	uncertainty
0	333.15	0	0.001
0	343.15	0	0.001
0.046	333.15	0.028	0.002
0.1	333.15	0.063	0.002
0.103	343.15	0.065	0.003
0.168	333.15	0.106	0.003
0.177	343.15	0.115	0.003
0.254	333.15	0.163	0.003
0.258	343.15	0.171	0.003
0.34	333.15	0.225	0.003
0.344	343.15	0.232	0.003
0.429	333.15	0.29	0.004
0.431	343.15	0.3	0.004
0.515	343.15	0.371	0.004
0.628	333.15	0.467	0.005
0.643	343.15	0.49	0.005
0.707	333.15	0.55	0.005
0.723	343.15	0.574	0.005
0.845	333.15	0.724	0.004
0.85	343.15	0.738	0.004
0.898	333.15	0.807	0.004
0.902	343.15	0.818	0.004
0.944	343.15	0.891	0.004
0.945	333.15	0.888	0.004
0.979	333.15	0.956	0.005
0.979	343.15	0.957	0.004
1	333.15	1	0.001
1	343.15	1	0.001
