Measured thermophysical data. Solid-liquid equilibrium of some polycyclic aromatic hydrocarbons in wash oil
Source: Fluid Phase Equilib., 2012, 10.1016/j.fluid.2012.01.031
Compound 1: dibenzo[bd]furan, C12H8O, InChI=1S/C12H8O/c1-3-7-11-9(5-1)10-6-2-4-8-12(10)13-11/h1-8H
Compound 2: fluorene, C13H10, InChI=1S/C13H10/c1-3-7-12-10(5-1)9-11-6-2-4-8-13(11)12/h1-8H,9H2
Compound 3: acenaphthene, C12H10, InChI=1S/C12H10/c1-3-9-4-2-6-11-8-7-10(5-1)12(9)11/h1-6H,7-8H2
Compound 4: 9H-carbazole, C12H9N, InChI=1S/C12H9N/c1-3-7-11-9(5-1)10-6-2-4-8-12(10)13-11/h1-8,13H
Compound 5: anthracene, C14H10, InChI=1S/C14H10/c1-2-6-12-10-14-8-4-3-7-13(14)9-11(12)5-1/h1-10H

System: dibenzo[bd]furan; phases: Crystal, Liquid, Air at 1 atmosphere
Property: Normal melting temperature, K (Crystal); method: DTA
Normal melting temperature, K	uncertainty
355.66	0.41

System: fluorene; phases: Crystal, Liquid, Air at 1 atmosphere
Property: Normal melting temperature, K (Crystal); method: DTA
Normal melting temperature, K	uncertainty
387.53	0.41

System: anthracene + dibenzo[bd]furan; phases: Liquid, Crystal
Fixed: Pressure, kPa = 101
Property: Solid-liquid equilibrium temperature, K (Liquid); method: DTA
Mole fraction of dibenzo[bd]furan	Solid-liquid equilibrium temperature, K	uncertainty
0.8558	368.51	0.42
0.8171	379.51	0.42
0.7334	399.17	0.41
0.5911	425.61	0.41
0.4745	441.88	0.41
0.4438	447.82	0.41
0.3142	461.02	0.41
0.1582	475.99	0.41
0.0831	486.91	0.41
0	489.76	0.41

System: anthracene + dibenzo[bd]furan; phases: Liquid, Crystal
Fixed: Pressure, kPa = 101
Property: Solid-liquid equilibrium temperature, K (Liquid); method: DTA
Mole fraction of dibenzo[bd]furan	Solid-liquid equilibrium temperature, K	uncertainty
1	355.66	0.41
0.9707	353.33	0.41
0.9338	352.12	0.41

System: anthracene + dibenzo[bd]furan; phases: Liquid, Crystal
Property: Eutectic temperature, K (Liquid); method: plot extrapolation (enthalpy of fusion vs. molar fractions)
Mole fraction of dibenzo[bd]furan	Pressure, kPa	Eutectic temperature, K	uncertainty
0.9005	101	350.01	0.2

System: anthracene + dibenzo[bd]furan; phases: Liquid, Crystal
Property: Eutectic composition: mole fraction of dibenzo[bd]furan (Liquid); method: plot extrapolation (enthalpy of fusion vs. molar fractions)
Temperature, K	Pressure, kPa	Eutectic composition: mole fraction of dibenzo[bd]furan	uncertainty
350.01	101	0.9005	0.0008

System: 9H-carbazole + dibenzo[bd]furan; phases: Liquid, Crystal
Property: Solid-liquid equilibrium temperature, K (Liquid); method: DTA
Mole fraction of dibenzo[bd]furan	Pressure, kPa	Solid-liquid equilibrium temperature, K	uncertainty
1	101	355.66	0.41

System: 9H-carbazole + dibenzo[bd]furan; phases: Liquid, Crystal
Fixed: Pressure, kPa = 101
Property: Solid-liquid equilibrium temperature, K (Liquid); method: DTA
Mole fraction of dibenzo[bd]furan	Solid-liquid equilibrium temperature, K	uncertainty
0.9014	363.13	0.41
0.8424	386.51	0.41
0.7924	402.63	0.41
0.7114	419.19	0.41
0.6074	442.51	0.41
0.5109	455.51	0.41
0.4289	471.95	0.41
0.3653	478.14	0.41
0.2468	490.97	0.41
0.108	506.81	0.41
0.0616	512.22	0.41
0	518.97	0.41

System: 9H-carbazole + dibenzo[bd]furan; phases: Liquid, Crystal
Property: Eutectic temperature, K (Liquid); method: decreasing molar fraction of carbazole until a min ethalpy of fusion was found
Mole fraction of dibenzo[bd]furan	Pressure, kPa	Eutectic temperature, K	uncertainty
0.9129	101	354.75	0.2

System: 9H-carbazole + dibenzo[bd]furan; phases: Liquid, Crystal
Property: Eutectic composition: mole fraction of dibenzo[bd]furan (Liquid); method: decreasing molar fraction of carbazole until a min ethalpy of fusion was found
Temperature, K	Pressure, kPa	Eutectic composition: mole fraction of dibenzo[bd]furan	uncertainty
354.75	101	0.9129	0.0007

System: acenaphthene + 9H-carbazole; phases: Liquid, Crystal
Fixed: Pressure, kPa = 101
Property: Solid-liquid equilibrium temperature, K (Liquid); method: DTA
Mole fraction of 9H-carbazole	Solid-liquid equilibrium temperature, K	uncertainty
0.8972	385.15	0.41
0.8274	412.57	0.41
0.7884	423.83	0.41
0.685	441.18	0.41
0.6002	456.51	0.41
0.4807	471.17	0.41
0.3664	483.07	0.41
0.2663	494.21	0.41
0.1583	502.63	0.41
0.0893	508.96	0.41
0	518.97	0.41

System: acenaphthene + 9H-carbazole; phases: Liquid, Crystal
Fixed: Pressure, kPa = 101
Property: Solid-liquid equilibrium temperature, K (Liquid); method: DTA
Mole fraction of 9H-carbazole	Solid-liquid equilibrium temperature, K	uncertainty
1	366.37	0.41
0.9718	364.42	0.41
0.9607	362.89	0.41

System: acenaphthene + 9H-carbazole; phases: Liquid, Crystal
Property: Eutectic temperature, K (Liquid); method: plot extrapolation (enthalpy of fusion vs. molar fractions)
Mole fraction of acenaphthene	Pressure, kPa	Eutectic temperature, K	uncertainty
0.9543	101	354.66	0.2

System: acenaphthene + 9H-carbazole; phases: Liquid, Crystal
Property: Eutectic composition: mole fraction of acenaphthene (Liquid); method: plot extrapolation (enthalpy of fusion vs. molar fractions)
Temperature, K	Pressure, kPa	Eutectic composition: mole fraction of acenaphthene	uncertainty
354.66	101	0.9543	0.0005

System: acenaphthene + anthracene; phases: Liquid, Crystal
Fixed: Pressure, kPa = 101
Property: Solid-liquid equilibrium temperature, K (Liquid); method: DTA
Mole fraction of anthracene	Solid-liquid equilibrium temperature, K	uncertainty
0.8391	379.13	0.41
0.7816	396.94	0.41
0.7067	409.01	0.41
0.6166	422.33	0.41
0.5266	437.04	0.41
0.4953	440.47	0.41
0.4487	446.36	0.41
0.3476	458.06	0.41
0.2302	472.16	0.41
0.093	481.85	0.41
0	489.76	0.41

System: acenaphthene + anthracene; phases: Liquid, Crystal
Fixed: Pressure, kPa = 101
Property: Solid-liquid equilibrium temperature, K (Liquid); method: DTA
Mole fraction of anthracene	Solid-liquid equilibrium temperature, K	uncertainty
1	366.37	0.41
0.9541	363.21	0.41
0.9167	361.13	0.41

System: acenaphthene + anthracene; phases: Liquid, Crystal
Property: Eutectic temperature, K (Liquid); method: plot extrapolation (enthalpy of fusion vs. molar fractions)
Mole fraction of acenaphthene	Pressure, kPa	Eutectic temperature, K	uncertainty
0.8934	101	359.91	0.2

System: acenaphthene + anthracene; phases: Liquid, Crystal
Property: Eutectic composition: mole fraction of acenaphthene (Liquid); method: plot extrapolation (enthalpy of fusion vs. molar fractions)
Temperature, K	Pressure, kPa	Eutectic composition: mole fraction of acenaphthene	uncertainty
359.91	101	0.8934	0.0009

System: fluorene + anthracene; phases: Liquid, Crystal
Fixed: Pressure, kPa = 101
Property: Solid-liquid equilibrium temperature, K (Liquid); method: DTA
Mole fraction of fluorene	Solid-liquid equilibrium temperature, K	uncertainty
0.714	396.54	0.41
0.6529	409.12	0.41
0.5779	421.56	0.41
0.5018	432.43	0.41
0.4359	442.6	0.4
0.3751	453.77	0.41
0.3016	464.83	0.41
0.2032	470.12	0.41
0.1135	478.32	0.41
0.0521	485.78	0.41
0	489.76	0.41

System: fluorene + anthracene; phases: Liquid, Crystal
Fixed: Pressure, kPa = 101
Property: Solid-liquid equilibrium temperature, K (Liquid); method: DTA
Mole fraction of fluorene	Solid-liquid equilibrium temperature, K	uncertainty
1	387.53	0.41
0.9756	386.79	0.41
0.9177	382.01	0.41
0.8716	379.49	0.41

System: fluorene + anthracene; phases: Liquid, Crystal
Property: Eutectic temperature, K (Liquid); method: plot extrapolation (enthalpy of fusion vs. molar fractions)
Mole fraction of fluorene	Pressure, kPa	Eutectic temperature, K	uncertainty
0.7851	101	377.51	0.2

System: fluorene + anthracene; phases: Liquid, Crystal
Property: Eutectic composition: mole fraction of fluorene (Liquid); method: plot extrapolation (enthalpy of fusion vs. molar fractions)
Temperature, K	Pressure, kPa	Eutectic composition: mole fraction of fluorene	uncertainty
377.51	101	0.7851	0.0017

System: fluorene + 9H-carbazole; phases: Liquid, Crystal
Fixed: Pressure, kPa = 101
Property: Solid-liquid equilibrium temperature, K (Liquid); method: DTA
Mole fraction of fluorene	Solid-liquid equilibrium temperature, K	uncertainty
1	387.53	0.41
0.9346	388.66	0.41
0.8035	391.92	0.41
0.7468	397.15	0.41
0.6867	402.64	0.41
0.6201	415.15	0.41
0.5324	424.15	0.41
0.4317	439.15	0.41
0.3597	448.32	0.41
0.2994	452.86	0.41
0.2277	469.85	0.41
0.1103	486.15	0.41
0.0827	492.15	0.41
0	518.97	0.41

System: fluorene + 9H-carbazole; phases: Liquid, Crystal
Fixed: Pressure, kPa = 101
Property: Solid-liquid equilibrium temperature, K (Liquid); method: DTA
Mole fraction of fluorene	Solid-liquid equilibrium temperature, K	uncertainty
1	387.53	0.41
0.9346	393.45	0.41
0.8035	404.74	0.41
0.7468	414.15	0.41
0.6867	420.34	0.41
0.6201	436.15	0.41
0.5324	445.15	0.41
0.4317	465.15	0.41
0.3597	475.67	0.41
0.2994	479.13	0.41
0.2277	491.35	0.41
0.1103	503.15	0.41
0.0827	509.15	0.41
0	518.97	0.41
