Measured thermophysical data. Liquid density of 1-butanol at pressures up to 140MPa and from 293.15K to 403.15K
Source: Fluid Phase Equilib., 2011, 10.1016/j.fluid.2010.11.020
Compound 1: butan-1-ol, C4H10O, InChI=1S/C4H10O/c1-2-3-4-5/h5H,2-4H2,1H3, purity 99.9%

System: butan-1-ol; phases: Liquid
Property: Mass density, kg/m3 (Liquid); method: Vibrating tube method
Temperature, K	Pressure, kPa	Mass density, kg/m3	uncertainty
293.15	100	809.5	0.5
293.15	10000	816.4	0.5
293.15	20000	822.9	0.5
293.15	30000	828.9	0.6
293.15	40000	834.5	0.6
293.15	50000	839.8	0.6
293.15	60000	844.7	0.7
293.15	70000	849.6	0.7
293.15	80000	854.2	0.7
293.15	90000	858.5	0.8
293.15	100000	862.9	0.8
293.15	110000	866.7	0.8
293.15	120000	870.8	0.9
293.15	130000	874.4	0.9
293.15	140000	878.1	1
303.15	100	802	0.5
303.15	10000	809.4	0.5
303.15	20000	816	0.6
303.15	30000	822.3	0.6
303.15	40000	828	0.6
303.15	50000	833.6	0.6
303.15	60000	838.7	0.7
303.15	70000	843.6	0.7
303.15	80000	848.3	0.7
303.15	90000	852.7	0.8
303.15	100000	857	0.8
303.15	110000	861.2	0.9
303.15	120000	865	0.9
303.15	130000	868.9	0.9
303.15	140000	872.6	1
313.15	100	794.1	0.5
313.15	10000	801.6	0.5
313.15	20000	809.1	0.6
313.15	30000	815.4	0.6
313.15	40000	821.4	0.6
313.15	50000	827.2	0.6
313.15	60000	832.6	0.7
313.15	70000	837.8	0.7
313.15	80000	842.6	0.8
313.15	90000	847.3	0.8
313.15	100000	851.6	0.8
313.15	110000	856	0.9
313.15	120000	860.1	0.9
313.15	130000	864	1
313.15	140000	867.9	1
323.15	100	786.5	0.5
323.15	10000	794.5	0.5
323.15	20000	801.7	0.6
323.15	30000	808.5	0.6
323.15	40000	815	0.6
323.15	50000	821	0.7
323.15	60000	826.5	0.7
323.15	70000	831.5	0.7
323.15	80000	836.3	0.8
323.15	90000	841.1	0.8
323.15	100000	845.8	0.9
323.15	110000	850.1	0.9
323.15	120000	854.3	0.9
323.15	130000	858.3	1
323.15	140000	862.1	1
333.15	100	778.3	0.5
333.15	10000	786.8	0.5
333.15	20000	794.6	0.6
333.15	30000	801.7	0.6
333.15	40000	808.4	0.6
333.15	50000	814.6	0.7
333.15	60000	820.3	0.7
333.15	70000	825.6	0.7
333.15	80000	830.8	0.8
333.15	90000	836	0.8
333.15	100000	840.5	0.9
333.15	110000	844.9	0.9
333.15	120000	849	1
333.15	130000	853.2	1
333.15	140000	857	1
343.15	100	769.9	0.5
343.15	10000	779	0.5
343.15	20000	787.1	0.6
343.15	30000	794.4	0.6
343.15	40000	801.3	0.6
343.15	50000	807.8	0.7
343.15	60000	813.6	0.7
343.15	70000	819.3	0.8
343.15	80000	824.6	0.8
343.15	90000	829.5	0.8
343.15	100000	834.4	0.9
343.15	110000	838.9	0.9
343.15	120000	843.3	1
343.15	130000	847.5	1
343.15	140000	851.6	1.1
353.15	100	760.9	0.5
353.15	10000	770.6	0.5
353.15	20000	779.2	0.6
353.15	30000	787.1	0.6
353.15	40000	794.3	0.6
353.15	50000	800.9	0.7
353.15	60000	807.7	0.7
353.15	70000	813.2	0.8
353.15	80000	818.9	0.8
353.15	90000	823.9	0.9
353.15	100000	828.8	0.9
353.15	110000	833.5	1
353.15	120000	838.1	1
353.15	130000	842.1	1.1
353.15	140000	846.5	1.1
363.15	100	751.9	0.5
363.15	10000	762.6	0.5
363.15	20000	771.7	0.6
363.15	30000	780.1	0.6
363.15	40000	787.4	0.7
363.15	50000	794.3	0.7
363.15	60000	800.9	0.7
363.15	70000	807	0.8
363.15	80000	812.5	0.8
363.15	90000	817.9	0.9
363.15	100000	822.9	0.9
363.15	110000	827.7	1
363.15	120000	832.4	1
363.15	130000	836.8	1.1
363.15	140000	841	1.1
373.15	100	742.4	0.5
373.15	10000	753.4	0.5
373.15	20000	763.3	0.6
373.15	30000	772.2	0.6
373.15	40000	780	0.7
373.15	50000	787.2	0.7
373.15	60000	793.8	0.8
373.15	70000	800.2	0.8
373.15	80000	805.8	0.9
373.15	90000	811.5	0.9
373.15	100000	817	1
373.15	110000	821.9	1
373.15	120000	826.3	1.1
373.15	130000	831	1.1
373.15	140000	835.3	1.2
383.15	100	732.2	0.5
383.15	10000	744.7	0.5
383.15	20000	754.6	0.6
383.15	30000	764.3	0.6
383.15	40000	772.2	0.7
383.15	50000	779.6	0.7
383.15	60000	786.6	0.8
383.15	70000	793.2	0.8
383.15	80000	799.1	0.9
383.15	90000	804.9	0.9
383.15	100000	810.3	1
383.15	110000	815.4	1
383.15	120000	820.4	1.1
383.15	130000	825	1.1
383.15	140000	829.6	1.2
393.15	10000	735.3	0.6
393.15	20000	746.4	0.6
393.15	30000	755.9	0.6
393.15	40000	764.9	0.7
393.15	50000	772.3	0.7
393.15	60000	779.6	0.8
393.15	70000	786.3	0.8
393.15	80000	792.8	0.9
393.15	90000	798.8	0.9
393.15	100000	804.3	1
393.15	110000	809.7	1.1
393.15	120000	814.7	1.1
393.15	130000	819.3	1.2
393.15	140000	823.9	1.3
403.15	10000	725.6	0.6
403.15	20000	737.3	0.6
403.15	30000	747.7	0.6
403.15	40000	756.9	0.7
403.15	50000	765.4	0.7
403.15	60000	772.8	0.8
403.15	70000	779.9	0.9
403.15	80000	786.5	0.9
403.15	90000	792.6	1
403.15	100000	798.5	1
403.15	110000	803.9	1.1
403.15	120000	809.1	1.1
403.15	130000	814.1	1.2
403.15	140000	819.3	1.3
