Measured thermophysical data. PVTx properties in the gas phase for binary HFC-161/125 system
Source: Fluid Phase Equilib., 2006, 10.1016/j.fluid.2005.12.005
Compound 1: fluoroethane, C2H5F, InChI=1S/C2H5F/c1-2-3/h2H2,1H3, purity 99.74%
Compound 2: pentafluoroethane, C2HF5, InChI=1S/C2HF5/c3-1(4)2(5,6)7/h1H, purity 99.98%

System: fluoroethane + pentafluoroethane; phases: Gas
Property: Amount density, mol/m3 (Gas); method: ISOCHOR
Temperature, K	Pressure, kPa	Mole fraction of fluoroethane	Amount density, mol/m3	uncertainty
308.151	1127.1	0.8452	556.2	2.2
308.163	1131.9	0.6948	561.3	2.3
313.148	1084.3	0.9061	504.1	2.1
313.164	1166.8	0.6948	561.2	2.2
313.17	1165.5	0.8452	556.1	2.2
318.152	1112.3	0.9061	504	2
318.157	1197.6	0.8452	556	2.2
318.159	1199.5	0.6948	561	2.2
318.163	1464	0.592	737	2.7
323.15	1229	0.8452	555.8	2.2
323.152	1509.9	0.592	736.9	2.7
323.155	1935.5	0.3819	1073.3	3.6
323.156	1139.4	0.9061	503.8	2
323.159	1231.1	0.6948	560.9	2.2
324.15	1913.6	0.4334	1057.2	3.6
325.159	1921.6	0.4146	1039.3	3.5
328.143	1963.8	0.4146	1039.2	3.5
328.149	1166.2	0.9061	503.7	2
328.152	1259.2	0.8452	555.7	2.1
328.155	1971.1	0.4334	1057	3.6
328.155	2008.3	0.3819	1073.1	3.6
328.156	1262.2	0.6948	560.8	2.2
328.158	1553.9	0.592	736.7	2.6
331.145	2011.7	0.4334	1056.8	3.6
333.138	2028.6	0.4146	1038.9	3.5
333.141	1192.3	0.9061	503.6	2
333.143	2077.4	0.3819	1072.8	3.6
333.146	2038.7	0.4334	1056.7	3.5
333.147	1288.9	0.8452	555.5	2.1
333.15	1596.9	0.592	736.5	2.6
333.152	1292.6	0.6948	560.6	2.1
335.144	2057.1	0.4146	1038.8	3.5
335.149	2104.6	0.3819	1072.7	3.6
336.147	2078.2	0.4334	1056.6	3.5
337.139	2083	0.4146	1038.7	3.5
337.146	2131.5	0.3819	1072.6	3.6
338.148	1318	0.8452	555.4	2.1
338.149	1322.7	0.6948	560.5	2.1
338.154	1638.8	0.592	736.3	2.6
338.155	1218.4	0.9061	503.5	2
339.146	2108.9	0.4146	1038.6	3.5
339.151	2117.9	0.4334	1056.4	3.5
339.158	2158.7	0.3819	1072.5	3.6
343.141	2160.1	0.4146	1038.4	3.4
343.146	2169.9	0.4334	1056.2	3.5
343.15	2211.9	0.3819	1072.3	3.5
343.151	1346.8	0.8452	555.3	2.1
343.153	1680.4	0.592	736.1	2.6
343.154	1243.9	0.9061	503.3	1.9
343.156	1352.2	0.6948	560.3	2.1
346.149	2197.5	0.4146	1038.2	3.4
348.15	1375.8	0.8452	555.1	2.1
348.152	1721.1	0.592	736	2.6
348.155	1268.8	0.9061	503.2	1.9
348.155	2277.3	0.3819	1072	3.5
348.159	2233.2	0.4334	1056	3.5
348.161	1381.5	0.6948	560.2	2.1
349.145	2235.3	0.4146	1038.1	3.4
352.146	2272.4	0.4146	1037.9	3.4
353.145	1410.6	0.6948	560.1	2.1
353.149	2341.4	0.3819	1071.7	3.5
353.153	1404	0.8452	555	2.1
353.153	1761.9	0.592	735.8	2.5
353.154	1294.1	0.9061	503.1	1.9
353.159	2296.1	0.4334	1055.7	3.5
355.15	2367.2	0.3819	1071.6	3.5
355.151	2309.7	0.4146	1037.8	3.4
357.147	2392.7	0.3819	1071.5	3.5
357.147	2393.4	0.3819	1071.5	3.5
357.158	3883.2	0.5744	2894.1	9
358.154	2346.5	0.4146	1037.6	3.4
358.157	3927.8	0.5744	2893.9	9
358.195	1432.6	0.8452	554.9	2
358.196	2358.9	0.4334	1055.4	3.4
358.198	1803.3	0.592	735.6	2.5
358.204	1440.1	0.6948	559.9	2.1
358.206	1319.4	0.9061	503	1.9
359.154	3972.9	0.5744	2893.8	9
359.228	2419.9	0.3819	1071.4	3.5
361.158	4061.9	0.5744	2893.5	9
361.2	2445	0.3819	1071.3	3.5
363.154	4150.1	0.5744	2893.2	9
363.17	1460.8	0.8452	554.7	2
363.171	2419.6	0.4334	1055.2	3.4
363.175	1842.4	0.592	735.4	2.5
363.179	1468.7	0.6948	559.8	2
363.183	2407	0.4146	1037.3	3.4
364.158	2481.3	0.3819	1071.1	3.5
365.144	4236.6	0.5744	2892.9	8.9
367.167	4323.8	0.5744	2892.7	8.9
368.151	2467.2	0.4146	1037.1	3.4
368.152	2480.5	0.4334	1054.9	3.4
368.153	1497.6	0.6948	559.7	2
368.154	1882.5	0.592	735.2	2.5
368.182	1488.9	0.8452	554.6	2
368.192	2531.7	0.3819	1070.9	3.5
369.154	4410.1	0.5744	2892.4	8.9
371.198	4498	0.5744	2892.1	8.9
373.16	2540.6	0.4334	1054.6	3.4
373.174	2527.2	0.4146	1036.8	3.4
373.175	1921.9	0.592	735	2.5
373.176	2593.1	0.3819	1070.7	3.5
373.181	4583.3	0.5744	2891.8	8.9
373.189	1526	0.6948	559.5	2
378.135	2585.7	0.4146	1036.6	3.3
378.149	4793.2	0.5744	2891.1	8.9
378.152	1554.1	0.6948	559.4	2
378.157	2653.9	0.3819	1070.4	3.4
378.171	2599.8	0.4334	1054.4	3.4
378.189	1960.5	0.592	734.9	2.5
383.168	5003.5	0.5744	2890.4	8.9
383.217	2644	0.4146	1036.3	3.3
383.222	1581.6	0.6948	559.2	2
383.226	1998.7	0.592	734.7	2.5
383.226	2659.1	0.4334	1054.1	3.4
383.264	2715.4	0.3819	1070.1	3.4
388.202	1608.8	0.6948	559.1	2
388.202	2775.1	0.3819	1069.9	3.4
388.203	2701.5	0.4146	1036.1	3.3
388.208	2716.6	0.4334	1053.9	3.4
388.212	2037.2	0.592	734.5	2.5
388.245	5213.4	0.5744	2889.6	8.9
393.182	2757.9	0.4146	1035.8	3.3
393.19	2074.6	0.592	734.3	2.5
393.19	2834.2	0.3819	1069.6	3.4
393.196	1636.3	0.6948	559	2
393.196	2774.1	0.4334	1053.6	3.4
393.228	5416.5	0.5744	2888.9	8.8
