Measured thermophysical data. Solvation behavior of monosaccharides in aqueous protic ionic liquid solutions: Volumetric, calorimetric and NMR spectroscopic studies
Source: Fluid Phase Equilib., 2016, 10.1016/j.fluid.2016.03.016
Compound 1: D-xylose, C5H10O5, InChI=1S/C5H10O5/c6-1-3(8)5(10)4(9)2-7/h1,3-5,7-10H,2H2/t3-,4+,5+/m0/s1, purity 98%
Compound 2: D-glucose, C6H12O6, InChI=1S/C6H12O6/c7-1-3(9)5(11)6(12)4(10)2-8/h1,3-6,8-12H,2H2/t3-,4+,5+,6+/m0/s1, purity 98%
Compound 3: N-methyl-2-oxopyrrolidinium formate, C6H11NO3, InChI=1S/C5H9NO.CH2O2/c1-6-4-2-3-5(6)7;2-1-3/h2-4H2,1H3;1H,(H,2,3), purity 98%
Compound 4: N-methyl-2-oxopyrrolidinium propionate, C8H15NO3, InChI=1S/C5H9NO.C3H6O2/c1-6-4-2-3-5(6)7;1-2-3(4)5/h2-4H2,1H3;2H2,1H3,(H,4,5), purity 98%
Compound 5: water, H2O, InChI=1S/H2O/h1H2, purity 99.8%

System: water; phases: Liquid
Fixed: Pressure, kPa = 100
Property: Mass density, kg/m3 (Liquid); method: Vibrating tube method
Temperature, K	Mass density, kg/m3	uncertainty
288.15	999.129	0.039
298.15	997.047	0.04
308.15	994.063	0.042
318.15	990.244	0.043

System: D-glucose + water; phases: Liquid
Fixed: Pressure, kPa = 100
Property: Mass density, kg/m3 (Liquid); method: Vibrating tube method
Temperature, K	Molality, mol/kg of D-glucose	Mass density, kg/m3	uncertainty
288.15	0	999.129	0.039
288.15	0.04761	1002.392	0.041
288.15	0.08797	1005.114	0.043
288.15	0.09893	1005.846	0.044
288.15	0.12764	1007.753	0.046
288.15	0.15546	1009.578	0.047
288.15	0.1767	1010.96	0.048
288.15	0.20076	1012.514	0.05
298.15	0	997.047	0.04
298.15	0.04761	1000.275	0.04
298.15	0.08797	1002.972	0.043
298.15	0.09893	1003.697	0.043
298.15	0.12764	1005.584	0.045
298.15	0.15546	1007.393	0.046
298.15	0.1767	1008.763	0.048
298.15	0.20076	1010.308	0.049
308.15	0	994.063	0.042
308.15	0.04761	997.256	0.042
308.15	0.08797	999.92	0.042
308.15	0.09893	1000.637	0.042
308.15	0.12764	1002.504	0.044
308.15	0.15546	1004.292	0.045
308.15	0.1767	1005.64	0.047
308.15	0.20076	1007.162	0.048
318.15	0	990.244	0.043
318.15	0.04761	993.41	0.043
318.15	0.08797	996.056	0.043
318.15	0.09893	996.767	0.043
318.15	0.12764	998.624	0.043
318.15	0.15546	1000.403	0.044
318.15	0.1767	1001.75	0.045
318.15	0.20076	1003.261	0.046

System: D-glucose + water; phases: Liquid
Fixed: Initial molality of solute, mol/kg = 0.171
Fixed: Pressure, kPa = 100
Fixed: Final molality of solute, mol/kg = 0.00184
Property: Molar enthalpy of dilution, kJ/mol (Liquid); method: isothermal titration calorimetry
Temperature, K	Molar enthalpy of dilution, kJ/mol	uncertainty
288.15	-0.07	0.002
298.15	-0.063	0.002
308.15	-0.058	0.002
318.15	-0.055	0.002

System: D-glucose + water + N-methyl-2-oxopyrrolidinium formate; phases: Liquid
Fixed: Pressure, kPa = 100
Property: Mass density, kg/m3 (Liquid); method: Vibrating tube method
Solvent: Molality, mol/kg of N-methyl-2-oxopyrrolidinium formate	Temperature, K	Molality, mol/kg of D-glucose	Mass density, kg/m3	uncertainty
0.1	288.15	0	1000.873	0.428
0.1	288.15	0.05796	1005.012	0.433
0.1	288.15	0.07344	1006.106	0.434
0.1	288.15	0.0905	1007.305	0.436
0.1	288.15	0.11955	1009.337	0.438
0.1	288.15	0.13113	1010.14	0.439
0.1	288.15	0.15898	1012.067	0.441
0.1	288.15	0.21662	1016.004	0.446
0.1	298.15	0	998.697	0.428
0.1	298.15	0.05796	1002.777	0.43
0.1	298.15	0.07344	1003.854	0.432
0.1	298.15	0.0905	1005.037	0.433
0.1	298.15	0.11955	1007.04	0.435
0.1	298.15	0.13113	1007.834	0.437
0.1	298.15	0.15898	1009.732	0.438
0.1	298.15	0.21662	1013.617	0.442
0.1	308.15	0	995.571	0.426
0.1	308.15	0.05796	999.586	0.427
0.1	308.15	0.07344	1000.644	0.428
0.1	308.15	0.0905	1001.804	0.429
0.1	308.15	0.11955	1003.765	0.431
0.1	308.15	0.13113	1004.538	0.432
0.1	308.15	0.15898	1006.389	0.434
0.1	308.15	0.21662	1010.166	0.438
0.1	318.15	0	991.633	0.424
0.1	318.15	0.05796	995.596	0.425
0.1	318.15	0.07344	996.642	0.426
0.1	318.15	0.0905	997.791	0.426
0.1	318.15	0.11955	999.732	0.427
0.1	318.15	0.13113	1000.5	0.427
0.1	318.15	0.15898	1002.339	0.429
0.1	318.15	0.21662	1006.099	0.434
0.15	288.15	0	1001.645	0.429
0.15	288.15	0.04688	1004.99	0.433
0.15	288.15	0.06914	1006.562	0.435
0.15	288.15	0.10045	1008.755	0.438
0.15	288.15	0.10366	1008.977	0.438
0.15	288.15	0.10863	1009.322	0.438
0.15	288.15	0.1331	1011.018	0.44
0.15	288.15	0.16867	1013.457	0.443
0.15	298.15	0	999.401	0.428
0.15	298.15	0.04688	1002.699	0.43
0.15	298.15	0.06914	1004.249	0.432
0.15	298.15	0.10045	1006.411	0.451
0.15	298.15	0.10366	1006.629	0.433
0.15	298.15	0.10863	1006.97	0.437
0.15	298.15	0.1331	1008.641	0.437
0.15	298.15	0.16867	1011.048	0.439
0.15	308.15	0	996.217	0.426
0.15	308.15	0.04688	999.46	0.427
0.15	308.15	0.06914	1000.983	0.428
0.15	308.15	0.10045	1003.109	0.443
0.15	308.15	0.10366	1003.325	0.43
0.15	308.15	0.10863	1003.659	0.432
0.15	308.15	0.1331	1005.305	0.433
0.15	308.15	0.16867	1007.673	0.435
0.15	318.15	0	992.225	0.424
0.15	318.15	0.04688	995.424	0.425
0.15	318.15	0.06914	996.927	0.426
0.15	318.15	0.10045	999.023	0.427
0.15	318.15	0.10366	999.235	0.426
0.15	318.15	0.10863	999.564	0.426
0.15	318.15	0.1331	1001.184	0.428
0.15	318.15	0.16867	1003.513	0.431
0.2	288.15	0	1002.416	0.43
0.2	288.15	0.04597	1005.659	0.434
0.2	288.15	0.06837	1007.224	0.436
0.2	288.15	0.07904	1007.966	0.436
0.2	288.15	0.1107	1010.155	0.439
0.2	288.15	0.12094	1010.858	0.44
0.2	288.15	0.16174	1013.643	0.443
0.2	288.15	0.17249	1014.37	0.444
0.2	298.15	0	1000.104	0.428
0.2	298.15	0.04597	1003.301	0.431
0.2	298.15	0.06837	1004.844	0.432
0.2	298.15	0.07904	1005.575	0.434
0.2	298.15	0.1107	1007.731	0.435
0.2	298.15	0.12094	1008.424	0.437
0.2	298.15	0.16174	1011.163	0.439
0.2	298.15	0.17249	1011.88	0.437
0.2	308.15	0	996.862	0.426
0.2	308.15	0.04597	1000.017	0.427
0.2	308.15	0.06837	1001.539	0.428
0.2	308.15	0.07904	1002.26	0.43
0.2	308.15	0.1107	1004.387	0.431
0.2	308.15	0.12094	1005.07	0.433
0.2	308.15	0.16174	1007.775	0.435
0.2	308.15	0.17249	1008.481	0.433
0.2	318.15	0	992.816	0.424
0.2	318.15	0.04597	995.932	0.425
0.2	318.15	0.06837	997.437	0.426
0.2	318.15	0.07904	998.15	0.426
0.2	318.15	0.1107	1000.253	0.427
0.2	318.15	0.12094	1000.93	0.428
0.2	318.15	0.16174	1003.606	0.431
0.2	318.15	0.17249	1004.308	0.432
0.25	288.15	0	1003.188	0.431
0.25	288.15	0.05943	1007.368	0.436
0.25	288.15	0.06443	1007.716	0.436
0.25	288.15	0.09185	1009.618	0.438
0.25	288.15	0.09278	1009.68	0.438
0.25	288.15	0.12554	1011.934	0.441
0.25	288.15	0.13117	1012.318	0.441
0.25	288.15	0.24734	1020.136	0.45
0.25	298.15	0	1000.808	0.429
0.25	298.15	0.05943	1004.92	0.446
0.25	298.15	0.06443	1005.26	0.428
0.25	298.15	0.09185	1007.129	0.582
0.25	298.15	0.09278	1007.19	0.504
0.25	298.15	0.12554	1009.399	0.449
0.25	298.15	0.13117	1009.776	0.433
0.25	298.15	0.24734	1017.414	0.446
0.25	308.15	0	997.508	0.427
0.25	308.15	0.05943	1001.558	0.44
0.25	308.15	0.06443	1001.894	0.424
0.25	308.15	0.09185	1003.73	0.544
0.25	308.15	0.09278	1003.785	0.478
0.25	308.15	0.12554	1005.95	0.442
0.25	308.15	0.13117	1006.32	0.429
0.25	308.15	0.24734	1013.776	0.442
0.25	318.15	0	993.408	0.424
0.25	318.15	0.05943	997.406	0.426
0.25	318.15	0.06443	997.737	0.426
0.25	318.15	0.09185	999.552	0.426
0.25	318.15	0.09278	999.609	0.426
0.25	318.15	0.12554	1001.756	0.429
0.25	318.15	0.13117	1002.123	0.429
0.25	318.15	0.24734	1009.514	0.437

System: D-glucose + water + N-methyl-2-oxopyrrolidinium formate; phases: Liquid
Fixed: Solvent: Molality, mol/kg of N-methyl-2-oxopyrrolidinium formate = 0.251
Fixed: Initial molality of solute, mol/kg = 0.171
Fixed: Pressure, kPa = 100
Fixed: Final molality of solute, mol/kg = 0.00184
Property: Molar enthalpy of dilution, kJ/mol (Liquid); method: isothermal titration calorimetry
Temperature, K	Molar enthalpy of dilution, kJ/mol	uncertainty
288.15	5.299	0.042
298.15	4.756	0.038
308.15	4.726	0.037
318.15	4.555	0.036

System: D-glucose + water + N-methyl-2-oxopyrrolidinium propionate; phases: Liquid
Fixed: Pressure, kPa = 100
Property: Mass density, kg/m3 (Liquid); method: Vibrating tube method
Solvent: Molality, mol/kg of N-methyl-2-oxopyrrolidinium propionate	Temperature, K	Molality, mol/kg of D-glucose	Mass density, kg/m3	uncertainty
0.1	288.15	0	1000.276	0.428
0.1	288.15	0.05909	1004.48	0.432
0.1	288.15	0.06393	1004.821	0.433
0.1	288.15	0.0839	1006.226	0.434
0.1	288.15	0.11271	1008.236	0.437
0.1	288.15	0.1297	1009.414	0.438
0.1	288.15	0.15748	1011.328	0.44
0.1	288.15	0.1912	1013.632	0.443
0.1	298.15	0	998.097	0.427
0.1	298.15	0.05909	1002.228	0.444
0.1	298.15	0.06393	1002.563	0.424
0.1	298.15	0.0839	1003.943	0.432
0.1	298.15	0.11271	1005.92	0.433
0.1	298.15	0.1297	1007.076	0.435
0.1	298.15	0.15748	1008.96	0.437
0.1	298.15	0.1912	1011.227	0.438
0.1	308.15	0	994.976	0.426
0.1	308.15	0.05909	999.046	0.44
0.1	308.15	0.06393	999.376	0.421
0.1	308.15	0.0839	1000.73	0.428
0.1	308.15	0.11271	1002.667	0.43
0.1	308.15	0.1297	1003.796	0.431
0.1	308.15	0.15748	1005.631	0.433
0.1	308.15	0.1912	1007.841	0.435
0.1	318.15	0	990.978	0.424
0.1	318.15	0.05909	995.009	0.425
0.1	318.15	0.06393	995.336	0.425
0.1	318.15	0.0839	996.68	0.425
0.1	318.15	0.11271	998.607	0.426
0.1	318.15	0.1297	999.736	0.427
0.1	318.15	0.15748	1001.569	0.428
0.1	318.15	0.1912	1003.776	0.431
0.15	288.15	0	1000.814	0.428
0.15	288.15	0.04606	1004.085	0.432
0.15	288.15	0.06542	1005.447	0.434
0.15	288.15	0.09299	1007.374	0.436
0.15	288.15	0.10903	1008.488	0.437
0.15	288.15	0.13198	1010.072	0.439
0.15	288.15	0.15021	1011.323	0.44
0.15	288.15	0.16916	1012.618	0.442
0.15	298.15	0	998.566	0.427
0.15	298.15	0.04606	1001.781	0.429
0.15	298.15	0.06542	1003.118	0.431
0.15	298.15	0.09299	1005.012	0.433
0.15	298.15	0.10903	1006.106	0.434
0.15	298.15	0.13198	1007.663	0.436
0.15	298.15	0.15021	1008.891	0.438
0.15	298.15	0.16916	1010.164	0.436
0.15	308.15	0	995.384	0.426
0.15	308.15	0.04606	998.559	0.426
0.15	308.15	0.06542	999.882	0.427
0.15	308.15	0.09299	1001.753	0.429
0.15	308.15	0.10903	1002.835	0.43
0.15	308.15	0.13198	1004.374	0.432
0.15	308.15	0.15021	1005.588	0.433
0.15	308.15	0.16916	1006.847	0.433
0.15	318.15	0	991.337	0.424
0.15	318.15	0.04606	994.475	0.425
0.15	318.15	0.06542	995.782	0.425
0.15	318.15	0.09299	997.63	0.426
0.15	318.15	0.10903	998.699	0.426
0.15	318.15	0.13198	1000.219	0.427
0.15	318.15	0.15021	1001.417	0.428
0.15	318.15	0.16916	1002.658	0.43
0.2	288.15	0	1001.352	0.429
0.2	288.15	0.04221	1004.337	0.432
0.2	288.15	0.06171	1005.704	0.434
0.2	288.15	0.07585	1006.691	0.435
0.2	288.15	0.101	1008.436	0.437
0.2	288.15	0.13411	1010.717	0.439
0.2	288.15	0.16076	1012.535	0.441
0.2	288.15	0.17563	1013.545	0.443
0.2	298.15	0	999.034	0.427
0.2	298.15	0.04221	1001.967	0.429
0.2	298.15	0.06171	1003.309	0.431
0.2	298.15	0.07585	1004.278	0.432
0.2	298.15	0.101	1005.992	0.434
0.2	298.15	0.13411	1008.228	0.436
0.2	298.15	0.16076	1010.012	0.438
0.2	298.15	0.17563	1011.002	0.437
0.2	308.15	0	995.792	0.426
0.2	308.15	0.04221	998.69	0.426
0.2	308.15	0.06171	1000.017	0.427
0.2	308.15	0.07585	1000.974	0.428
0.2	308.15	0.101	1002.666	0.43
0.2	308.15	0.13411	1004.877	0.432
0.2	308.15	0.16076	1006.639	0.434
0.2	308.15	0.17563	1007.618	0.433
0.2	318.15	0	991.696	0.424
0.2	318.15	0.04221	994.551	0.425
0.2	318.15	0.06171	995.86	0.425
0.2	318.15	0.07585	996.804	0.425
0.2	318.15	0.101	998.475	0.426
0.2	318.15	0.13411	1000.657	0.427
0.2	318.15	0.16076	1002.4	0.429
0.2	318.15	0.17563	1003.366	0.43
0.25	288.15	0	1001.89	0.429
0.25	288.15	0.05234	1005.574	0.434
0.25	288.15	0.06619	1006.54	0.435
0.25	288.15	0.10184	1009.01	0.438
0.25	288.15	0.11846	1010.154	0.439
0.25	288.15	0.15527	1012.669	0.442
0.25	288.15	0.15904	1012.925	0.442
0.25	288.15	0.17336	1013.897	0.443
0.25	298.15	0	999.503	0.428
0.25	298.15	0.05234	1003.124	0.43
0.25	298.15	0.06619	1004.072	0.432
0.25	298.15	0.10184	1006.498	0.434
0.25	298.15	0.11846	1007.619	0.436
0.25	298.15	0.15527	1010.086	0.458
0.25	298.15	0.15904	1010.335	0.44
0.25	298.15	0.17336	1011.287	0.437
0.25	308.15	0	996.2	0.426
0.25	308.15	0.05234	999.762	0.426
0.25	308.15	0.06619	1000.694	0.428
0.25	308.15	0.10184	1003.073	0.43
0.25	308.15	0.11846	1004.171	0.432
0.25	308.15	0.15527	1006.579	0.448
0.25	308.15	0.15904	1006.824	0.436
0.25	308.15	0.17336	1007.75	0.433
0.25	318.15	0	992.055	0.424
0.25	318.15	0.05234	995.575	0.425
0.25	318.15	0.06619	996.497	0.425
0.25	318.15	0.10184	998.851	0.426
0.25	318.15	0.11846	999.942	0.426
0.25	318.15	0.15527	1002.338	0.429
0.25	318.15	0.15904	1002.58	0.429
0.25	318.15	0.17336	1003.503	0.43

System: D-glucose + water + N-methyl-2-oxopyrrolidinium propionate; phases: Liquid
Fixed: Solvent: Molality, mol/kg of N-methyl-2-oxopyrrolidinium propionate = 0.251
Fixed: Initial molality of solute, mol/kg = 0.171
Fixed: Pressure, kPa = 100
Fixed: Final molality of solute, mol/kg = 0.00184
Property: Molar enthalpy of dilution, kJ/mol (Liquid); method: isothermal titration calorimetry
Temperature, K	Molar enthalpy of dilution, kJ/mol	uncertainty
288.15	0.902	0.008
298.15	0.643	0.007
308.15	0.515	0.006
318.15	0.327	0.005

System: D-xylose + water + N-methyl-2-oxopyrrolidinium formate; phases: Liquid
Fixed: Pressure, kPa = 100
Property: Mass density, kg/m3 (Liquid); method: Vibrating tube method
Solvent: Molality, mol/kg of N-methyl-2-oxopyrrolidinium formate	Temperature, K	Molality, mol/kg of D-xylose	Mass density, kg/m3	uncertainty
0	288.15	0.05973	1002.394	0.424
0	288.15	0.06763	1002.823	0.425
0	288.15	0.09347	1004.217	0.426
0	288.15	0.13761	1006.579	0.429
0	288.15	0.15007	1007.241	0.43
0	288.15	0.16984	1008.284	0.431
0	288.15	0.1873	1009.205	0.432
0	298.15	0.05973	1000.284	0.422
0	298.15	0.06763	1000.709	0.422
0	298.15	0.09347	1002.091	0.424
0	298.15	0.13761	1004.431	0.427
0	298.15	0.15007	1005.087	0.427
0	298.15	0.16984	1006.121	0.429
0	298.15	0.1873	1007.03	0.43
0	308.15	0.05973	997.274	0.42
0	308.15	0.06763	997.695	0.421
0	308.15	0.09347	999.067	0.421
0	308.15	0.13761	1001.39	0.423
0	308.15	0.15007	1002.042	0.424
0	308.15	0.16984	1003.069	0.425
0	308.15	0.1873	1003.971	0.426
0	318.15	0.05973	993.436	0.419
0	318.15	0.06763	993.851	0.419
0	318.15	0.09347	995.213	0.42
0	318.15	0.13761	997.518	0.421
0	318.15	0.15007	998.164	0.421
0	318.15	0.16984	999.183	0.421
0	318.15	0.1873	1000.08	0.422
0.1	288.15	0.04781	1003.633	0.426
0.1	288.15	0.06786	1004.78	0.427
0.1	288.15	0.09381	1006.257	0.429
0.1	288.15	0.1185	1007.65	0.43
0.1	288.15	0.13285	1008.459	0.431
0.1	288.15	0.15296	1009.583	0.433
0.1	288.15	0.17423	1010.765	0.434
0.1	298.15	0.04781	1001.424	0.423
0.1	298.15	0.06786	1002.557	0.424
0.1	298.15	0.09381	1004.015	0.426
0.1	298.15	0.1185	1005.39	0.428
0.1	298.15	0.13285	1006.188	0.429
0.1	298.15	0.15296	1007.299	0.43
0.1	298.15	0.17423	1008.466	0.431
0.1	308.15	0.04781	998.259	0.421
0.1	308.15	0.06786	999.375	0.421
0.1	308.15	0.09381	1000.814	0.422
0.1	308.15	0.1185	1002.17	0.424
0.1	308.15	0.13285	1002.957	0.425
0.1	308.15	0.15296	1004.053	0.426
0.1	308.15	0.17423	1005.203	0.428
0.1	318.15	0.04781	994.28	0.419
0.1	318.15	0.06786	995.379	0.42
0.1	318.15	0.09381	996.794	0.42
0.1	318.15	0.1185	998.129	0.421
0.1	318.15	0.13285	998.903	0.421
0.1	318.15	0.15296	999.98	0.421
0.1	318.15	0.17423	1001.112	0.423
0.15	288.15	0.05386	1004.744	0.427
0.15	288.15	0.0677	1005.533	0.428
0.15	288.15	0.08998	1006.798	0.429
0.15	288.15	0.10553	1007.675	0.43
0.15	288.15	0.12088	1008.538	0.431
0.15	288.15	0.15568	1010.48	0.434
0.15	288.15	0.1851	1012.107	0.436
0.15	298.15	0.05386	1002.457	0.424
0.15	298.15	0.0677	1003.235	0.425
0.15	298.15	0.08998	1004.482	0.427
0.15	298.15	0.10553	1005.347	0.428
0.15	298.15	0.12088	1006.197	0.429
0.15	298.15	0.15568	1008.114	0.431
0.15	298.15	0.1851	1009.716	0.433
0.15	308.15	0.05386	999.228	0.421
0.15	308.15	0.0677	999.995	0.421
0.15	308.15	0.08998	1001.225	0.423
0.15	308.15	0.10553	1002.076	0.424
0.15	308.15	0.12088	1002.914	0.425
0.15	308.15	0.15568	1004.807	0.427
0.15	308.15	0.1851	1006.39	0.429
0.15	318.15	0.05386	995.197	0.42
0.15	318.15	0.0677	995.953	0.42
0.15	318.15	0.08998	997.166	0.42
0.15	318.15	0.10553	998.008	0.421
0.15	318.15	0.12088	998.834	0.421
0.15	318.15	0.15568	1000.695	0.422
0.15	318.15	0.1851	1002.256	0.424
0.2	288.15	0.04585	1005.025	0.427
0.2	288.15	0.07054	1006.416	0.429
0.2	288.15	0.08935	1007.468	0.43
0.2	288.15	0.11263	1008.762	0.432
0.2	288.15	0.11601	1008.948	0.432
0.2	288.15	0.1367	1010.092	0.433
0.2	288.15	0.16995	1011.913	0.435
0.2	298.15	0.04585	1002.676	0.425
0.2	298.15	0.07054	1004.046	0.426
0.2	298.15	0.08935	1005.082	0.427
0.2	298.15	0.11263	1006.36	0.429
0.2	298.15	0.11601	1006.543	0.429
0.2	298.15	0.1367	1007.67	0.43
0.2	298.15	0.16995	1009.464	0.433
0.2	308.15	0.04585	999.399	0.421
0.2	308.15	0.07054	1000.75	0.422
0.2	308.15	0.08935	1001.771	0.424
0.2	308.15	0.11263	1003.03	0.425
0.2	308.15	0.11601	1003.208	0.425
0.2	308.15	0.1367	1004.317	0.427
0.2	308.15	0.16995	1006.082	0.429
0.2	318.15	0.04585	995.327	0.42
0.2	318.15	0.07054	996.666	0.42
0.2	318.15	0.08935	997.68	0.421
0.2	318.15	0.11263	998.926	0.421
0.2	318.15	0.11601	999.105	0.421
0.2	318.15	0.1367	1000.207	0.422
0.2	318.15	0.16995	1001.96	0.424
0.25	288.15	0.05701	1006.414	0.429
0.25	288.15	0.06789	1007.023	0.43
0.25	288.15	0.07038	1007.161	0.43
0.25	288.15	0.1045	1009.061	0.432
0.25	288.15	0.12029	1009.936	0.433
0.25	288.15	0.15665	1011.934	0.435
0.25	288.15	0.17132	1012.734	0.436
0.25	298.15	0.05701	1003.987	0.426
0.25	298.15	0.06789	1004.588	0.427
0.25	298.15	0.07038	1004.724	0.427
0.25	298.15	0.1045	1006.596	0.429
0.25	298.15	0.12029	1007.454	0.43
0.25	298.15	0.15665	1009.42	0.433
0.25	298.15	0.17132	1010.209	0.433
0.25	308.15	0.05701	1000.646	0.422
0.25	308.15	0.06789	1001.238	0.423
0.25	308.15	0.07038	1001.37	0.423
0.25	308.15	0.1045	1003.212	0.425
0.25	308.15	0.12029	1004.059	0.426
0.25	308.15	0.15665	1005.988	0.428
0.25	308.15	0.17132	1006.761	0.429
0.25	318.15	0.05701	996.512	0.42
0.25	318.15	0.06789	997.099	0.42
0.25	318.15	0.07038	997.232	0.42
0.25	318.15	0.1045	999.058	0.421
0.25	318.15	0.12029	999.897	0.421
0.25	318.15	0.15665	1001.817	0.424
0.25	318.15	0.17132	1002.583	0.425

System: D-xylose + water + N-methyl-2-oxopyrrolidinium formate; phases: Liquid
Fixed: Initial molality of solute, mol/kg = 0.171
Fixed: Pressure, kPa = 100
Fixed: Final molality of solute, mol/kg = 0.00184
Property: Molar enthalpy of dilution, kJ/mol (Liquid); method: isothermal titration calorimetry
Temperature, K	Solvent: Molality, mol/kg of N-methyl-2-oxopyrrolidinium formate	Molar enthalpy of dilution, kJ/mol	uncertainty
288.15	0.251	6.83	0.054
298.15	0.251	5.121	0.041
308.15	0.251	3.468	0.028
318.15	0.251	2.702	0.022
288.15	0	-0.295	0.005
298.15	0	-0.141	0.004
308.15	0	-0.005	0.004
318.15	0	0.122	0.004

System: D-xylose + water + N-methyl-2-oxopyrrolidinium propionate; phases: Liquid
Fixed: Pressure, kPa = 100
Property: Mass density, kg/m3 (Liquid); method: Vibrating tube method
Solvent: Molality, mol/kg of N-methyl-2-oxopyrrolidinium propionate	Temperature, K	Molality, mol/kg of D-xylose	Mass density, kg/m3	uncertainty
0.1	288.15	0.04636	1002.927	0.425
0.1	288.15	0.07185	1004.369	0.427
0.1	288.15	0.08814	1005.285	0.428
0.1	288.15	0.10358	1006.149	0.429
0.1	288.15	0.11593	1006.838	0.429
0.1	288.15	0.13462	1007.876	0.431
0.1	288.15	0.17392	1010.037	0.433
0.1	298.15	0.04636	1000.713	0.422
0.1	298.15	0.07185	1002.137	0.424
0.1	298.15	0.08814	1003.041	0.425
0.1	298.15	0.10358	1003.893	0.426
0.1	298.15	0.11593	1004.571	0.427
0.1	298.15	0.13462	1005.595	0.428
0.1	298.15	0.17392	1007.725	0.431
0.1	308.15	0.04636	997.563	0.421
0.1	308.15	0.07185	998.969	0.421
0.1	308.15	0.08814	999.86	0.421
0.1	308.15	0.10358	1000.701	0.422
0.1	308.15	0.11593	1001.372	0.423
0.1	308.15	0.13462	1002.382	0.424
0.1	308.15	0.17392	1004.484	0.427
0.1	318.15	0.04636	993.541	0.419
0.1	318.15	0.07185	994.935	0.42
0.1	318.15	0.08814	995.822	0.42
0.1	318.15	0.10358	996.658	0.42
0.1	318.15	0.11593	997.324	0.42
0.1	318.15	0.13462	998.329	0.421
0.1	318.15	0.17392	1000.423	0.422
0.15	288.15	0.05735	1004.082	0.426
0.15	288.15	0.07518	1005.088	0.427
0.15	288.15	0.08431	1005.6	0.428
0.15	288.15	0.10407	1006.707	0.429
0.15	288.15	0.1311	1008.211	0.431
0.15	288.15	0.15767	1009.677	0.433
0.15	288.15	0.17701	1010.74	0.434
0.15	298.15	0.05735	1001.781	0.424
0.15	298.15	0.07518	1002.769	0.425
0.15	298.15	0.08431	1003.274	0.425
0.15	298.15	0.10407	1004.362	0.427
0.15	298.15	0.1311	1005.842	0.428
0.15	298.15	0.15767	1007.284	0.43
0.15	298.15	0.17701	1008.328	0.431
0.15	308.15	0.05735	998.567	0.421
0.15	308.15	0.07518	999.548	0.421
0.15	308.15	0.08431	1000.047	0.422
0.15	308.15	0.10407	1001.124	0.423
0.15	308.15	0.1311	1002.592	0.424
0.15	308.15	0.15767	1004.024	0.426
0.15	308.15	0.17701	1005.059	0.427
0.15	318.15	0.05735	994.494	0.419
0.15	318.15	0.07518	995.465	0.42
0.15	318.15	0.08431	995.959	0.42
0.15	318.15	0.10407	997.028	0.42
0.15	318.15	0.1311	998.479	0.421
0.15	318.15	0.15767	999.895	0.421
0.15	318.15	0.17701	1000.92	0.423
0.2	288.15	0.05885	1004.682	0.427
0.2	288.15	0.07912	1005.815	0.428
0.2	288.15	0.10812	1007.424	0.43
0.2	288.15	0.11668	1007.898	0.431
0.2	288.15	0.13371	1008.834	0.432
0.2	288.15	0.15087	1009.775	0.433
0.2	288.15	0.16454	1010.519	0.434
0.2	298.15	0.05885	1002.31	0.42
0.2	298.15	0.07912	1003.425	0.425
0.2	298.15	0.10812	1005.009	0.427
0.2	298.15	0.11668	1005.472	0.428
0.2	298.15	0.13371	1006.396	0.429
0.2	298.15	0.15087	1007.321	0.43
0.2	298.15	0.16454	1008.052	0.431
0.2	308.15	0.05885	999.025	0.421
0.2	308.15	0.07912	1000.125	0.422
0.2	308.15	0.10812	1001.687	0.423
0.2	308.15	0.11668	1002.141	0.424
0.2	308.15	0.13371	1003.051	0.425
0.2	308.15	0.15087	1003.961	0.426
0.2	308.15	0.16454	1004.68	0.427
0.2	318.15	0.05885	994.892	0.419
0.2	318.15	0.07912	995.981	0.42
0.2	318.15	0.10812	997.526	0.421
0.2	318.15	0.11668	997.98	0.421
0.2	318.15	0.13371	998.881	0.421
0.2	318.15	0.15087	999.783	0.421
0.2	318.15	0.16454	1000.498	0.422
0.25	288.15	0.04012	1004.162	0.426
0.25	288.15	0.08837	1006.861	0.429
0.25	288.15	0.09915	1007.46	0.43
0.25	288.15	0.13756	1009.581	0.433
0.25	288.15	0.15007	1010.268	0.433
0.25	288.15	0.16346	1011.001	0.434
0.25	288.15	0.17813	1011.798	0.435
0.25	298.15	0.04012	1001.733	0.423
0.25	298.15	0.08837	1004.381	0.427
0.25	298.15	0.09915	1004.968	0.427
0.25	298.15	0.13756	1007.045	0.43
0.25	298.15	0.15007	1007.717	0.431
0.25	298.15	0.16346	1008.429	0.431
0.25	298.15	0.17813	1009.211	0.432
0.25	308.15	0.04012	998.394	0.421
0.25	308.15	0.08837	1000.997	0.423
0.25	308.15	0.09915	1001.571	0.423
0.25	308.15	0.13756	1003.605	0.426
0.25	308.15	0.15007	1004.263	0.426
0.25	308.15	0.16346	1004.96	0.427
0.25	308.15	0.17813	1005.724	0.428
0.25	318.15	0.04012	994.224	0.419
0.25	318.15	0.08837	996.799	0.42
0.25	318.15	0.09915	997.37	0.42
0.25	318.15	0.13756	999.39	0.421
0.25	318.15	0.15007	1000.04	0.422
0.25	318.15	0.16346	1000.737	0.422
0.25	318.15	0.17813	1001.494	0.423

System: D-xylose + water + N-methyl-2-oxopyrrolidinium propionate; phases: Liquid
Fixed: Solvent: Molality, mol/kg of N-methyl-2-oxopyrrolidinium propionate = 0.251
Fixed: Initial molality of solute, mol/kg = 0.171
Fixed: Pressure, kPa = 100
Fixed: Final molality of solute, mol/kg = 0.00184
Property: Molar enthalpy of dilution, kJ/mol (Liquid); method: isothermal titration calorimetry
Temperature, K	Molar enthalpy of dilution, kJ/mol	uncertainty
288.15	0.866	0.008
298.15	0.603	0.006
308.15	0.452	0.006
318.15	0.315	0.005

System: water + N-methyl-2-oxopyrrolidinium formate; phases: Liquid
Fixed: Pressure, kPa = 100
Property: Mass density, kg/m3 (Liquid); method: Vibrating tube method
Molality, mol/kg of N-methyl-2-oxopyrrolidinium formate	Temperature, K	Mass density, kg/m3	uncertainty
0.1	288.15	1000.873	0.041
0.1	298.15	998.697	0.042
0.1	308.15	995.571	0.043
0.1	318.15	991.633	0.045
0.15	288.15	1001.645	0.043
0.15	298.15	999.401	0.043
0.15	308.15	996.217	0.044
0.15	318.15	992.225	0.046
0.2	288.15	1002.416	0.044
0.2	298.15	1000.104	0.044
0.2	308.15	996.862	0.045
0.2	318.15	992.816	0.047
0.25	288.15	1003.188	0.046
0.25	298.15	1000.808	0.045
0.25	308.15	997.508	0.046
0.25	318.15	993.408	0.048

System: water + N-methyl-2-oxopyrrolidinium propionate; phases: Liquid
Fixed: Pressure, kPa = 100
Property: Mass density, kg/m3 (Liquid); method: Vibrating tube method
Molality, mol/kg of N-methyl-2-oxopyrrolidinium propionate	Temperature, K	Mass density, kg/m3	uncertainty
0.1	288.15	1000.276	0.042
0.1	298.15	998.097	0.042
0.1	308.15	994.976	0.044
0.1	318.15	990.978	0.045
0.15	288.15	1000.814	0.043
0.15	298.15	998.566	0.044
0.15	308.15	995.384	0.045
0.15	318.15	991.337	0.047
0.2	288.15	1001.352	0.045
0.2	298.15	999.034	0.045
0.2	308.15	995.792	0.046
0.2	318.15	991.696	0.048
0.25	288.15	1001.89	0.047
0.25	298.15	999.503	0.046
0.25	308.15	996.2	0.048
0.25	318.15	992.055	0.049

System: D-xylose + water; phases: Liquid
Fixed: Pressure, kPa = 100
Property: Mass density, kg/m3 (Liquid); method: Vibrating tube method
Temperature, K	Molality, mol/kg of D-xylose	Mass density, kg/m3	uncertainty
288.15	0.05973	1002.394	1.208
288.15	0.06763	1002.823	1.21
288.15	0.09347	1004.217	1.213
288.15	0.13761	1006.579	1.22
288.15	0.15007	1007.241	1.222
288.15	0.16984	1008.284	1.225
288.15	0.1873	1009.205	1.227
298.15	0.05973	1000.284	1.203
298.15	0.06763	1000.709	1.204
298.15	0.09347	1002.091	1.208
298.15	0.13761	1004.431	1.214
298.15	0.15007	1005.087	1.216
298.15	0.16984	1006.121	1.219
298.15	0.1873	1007.03	1.221
308.15	0.05973	997.274	1.197
308.15	0.06763	997.695	1.197
308.15	0.09347	999.067	1.2
308.15	0.13761	1001.39	1.206
308.15	0.15007	1002.042	1.208
308.15	0.16984	1003.069	1.21
308.15	0.1873	1003.971	1.213
318.15	0.05973	993.436	1.189
318.15	0.06763	993.851	1.19
318.15	0.09347	995.213	1.193
318.15	0.13761	997.518	1.197
318.15	0.15007	998.164	1.198
318.15	0.16984	999.183	1.2
318.15	0.1873	1000.08	1.202

System: D-xylose + water; phases: Liquid
Fixed: Initial molality of solute, mol/kg = 0.171
Fixed: Pressure, kPa = 100
Fixed: Final molality of solute, mol/kg = 0.00184
Property: Molar enthalpy of dilution, kJ/mol (Liquid); method: isothermal titration calorimetry
Temperature, K	Molar enthalpy of dilution, kJ/mol	uncertainty
288.15	-0.295	0.012
298.15	-0.141	0.003
308.15	-0.005	0.002
318.15	0.122	0.006
