Measured thermophysical data. Influence of the aromatic ring substituents on phase equilibria of vanillins in binary systems with CO2
Source: Fluid Phase Equilib., 2005, 10.1016/j.fluid.2004.12.012
Compound 1: vanillin, C8H8O3, InChI=1S/C8H8O3/c1-11-8-4-6(5-9)2-3-7(8)10/h2-5,10H,1H3
Compound 2: 2-hydroxy-3-methoxybenzaldehyde, C8H8O3, InChI=1S/C8H8O3/c1-11-7-4-2-3-6(5-9)8(7)10/h2-5,10H,1H3
Compound 3: 3-ethoxy-4-hydroxybenzaldehyde, C9H10O3, InChI=1S/C9H10O3/c1-2-12-9-5-7(6-10)3-4-8(9)11/h3-6,11H,2H2,1H3
Compound 4: 3-ethoxysalicylaldehyde, C9H10O3, InChI=1S/C9H10O3/c1-2-12-8-5-3-4-7(6-10)9(8)11/h3-6,11H,2H2,1H3
Compound 5: carbon dioxide, CO2, InChI=1S/CO2/c2-1-3

System: vanillin; phases: Crystal, Liquid, Gas
Property: Molar enthalpy of transition or fusion, kJ/mol (Crystal); method: DSC
Molar enthalpy of transition or fusion, kJ/mol	uncertainty
23.964	0.701

System: vanillin; phases: Crystal, Liquid, Air at 1 atmosphere
Property: Normal melting temperature, K (Crystal); method: DTA
Normal melting temperature, K	uncertainty
355.5	0.5

System: 2-hydroxy-3-methoxybenzaldehyde; phases: Crystal, Liquid, Gas
Property: Molar enthalpy of transition or fusion, kJ/mol (Crystal); method: DSC
Molar enthalpy of transition or fusion, kJ/mol	uncertainty
20.686	0.619

System: 2-hydroxy-3-methoxybenzaldehyde; phases: Crystal, Liquid, Air at 1 atmosphere
Property: Normal melting temperature, K (Crystal); method: DTA
Normal melting temperature, K	uncertainty
313.6	0.5

System: 3-ethoxy-4-hydroxybenzaldehyde; phases: Crystal, Liquid, Gas
Property: Molar enthalpy of transition or fusion, kJ/mol (Crystal); method: DSC
Molar enthalpy of transition or fusion, kJ/mol	uncertainty
25.342	0.735

System: 3-ethoxy-4-hydroxybenzaldehyde; phases: Crystal, Liquid, Air at 1 atmosphere
Property: Normal melting temperature, K (Crystal); method: DTA
Normal melting temperature, K	uncertainty
349.8	0.5

System: 3-ethoxysalicylaldehyde; phases: Crystal, Liquid, Gas
Property: Molar enthalpy of transition or fusion, kJ/mol (Crystal); method: DSC
Molar enthalpy of transition or fusion, kJ/mol	uncertainty
25.429	0.751

System: 3-ethoxysalicylaldehyde; phases: Crystal, Liquid, Air at 1 atmosphere
Property: Normal melting temperature, K (Crystal); method: DTA
Normal melting temperature, K	uncertainty
337.2	0.5

System: vanillin + carbon dioxide; phases: Gas, Liquid, Crystal
Property: Vapor or sublimation pressure, kPa (Gas); method: modified capillary method
Temperature, K	Vapor or sublimation pressure, kPa	uncertainty
338.8	33100	5390
339.5	35050	4820
339.6	36900	3770
340.2	25550	2860
340.3	28550	2970
340.5	26950	2970
340.9	41800	5350
341.1	30850	5270
341.2	48350	4990
342.2	23000	6590
342.7	21000	11160
343.1	19130	11580
343.5	15000	4570
343.7	13280	4600
344.5	10900	4840
345.6	7150	1830
345.7	9400	1960
347.5	5130	1430
348.1	6380	1390
348.3	4200	1180
349.2	4430	1050
350.7	3580	920
351.4	2450	930
351.5	2450	940
351.7	1800	970
352.4	1500	970
352.5	1350	760
352.7	1100	1000
352.8	1000	610
353	500	530
353.2	800	550
353.4	1000	550
353.7	700	540
353.8	150	860
354	400	500
354.8	100	550

System: vanillin + carbon dioxide; phases: Fluid (supercritical or subcritical phases), Crystal
Property: Mole fraction of vanillin (Fluid (supercritical or subcritical phases)); method: UV spectra and CO2 gas volume
Temperature, K	Pressure, kPa	Mole fraction of vanillin	uncertainty
313.2	8700	0.0003	0.0003
313.2	11650	0.00126	0.00126
313.2	14600	0.00255	0.002
313.2	14900	0.00279	0.002
313.2	16350	0.00315	0.002
313.2	17400	0.00348	0.002
313.2	18650	0.00353	0.002
313.2	19780	0.00369	0.002
313.2	20450	0.00377	0.002
313.2	22700	0.0039	0.002
313.2	23500	0.0039	0.002
313.2	25930	0.00377	0.002
313.2	27330	0.00386	0.002
333.2	8430	0.00014	0.00014
333.2	10870	0.00053	0.00053
333.2	12730	0.0012	0.0012
333.2	14830	0.00188	0.00188
333.2	16150	0.00299	0.002
333.2	17250	0.00319	0.002
333.2	17800	0.00329	0.002
333.2	20010	0.00454	0.002
333.2	23290	0.00609	0.002
333.2	27650	0.00507	0.00201
353.2	8000	0.00015	0.00015
353.2	9480	0.00049	0.00049
353.2	11180	0.00042	0.00042
353.2	12830	0.00111	0.00111
353.2	14100	0.00211	0.002
353.2	16600	0.00333	0.002
353.2	17250	0.00345	0.002
353.2	19730	0.00547	0.002
353.2	22950	0.00773	0.002
353.2	25350	0.01046	0.0021
353.2	26830	0.01295	0.00263

System: carbon dioxide + 2-hydroxy-3-methoxybenzaldehyde; phases: Gas, Liquid, Crystal
Property: Vapor or sublimation pressure, kPa (Gas); method: modified capillary method
Temperature, K	Vapor or sublimation pressure, kPa	uncertainty
294	5500	160
299.2	4680	170
301.3	4250	210
304.2	3630	260
309.3	2230	290
313.2	1030	320
314.6	550	330
315.6	400	260
315.7	200	320
316.1	50	330
316.6	100	230

System: carbon dioxide + 2-hydroxy-3-methoxybenzaldehyde; phases: Fluid (supercritical or subcritical phases), Crystal
Property: Mole fraction of 2-hydroxy-3-methoxybenzaldehyde (Fluid (supercritical or subcritical phases)); method: UV spectra and CO2 gas volume
Temperature, K	Pressure, kPa	Mole fraction of 2-hydroxy-3-methoxybenzaldehyde	uncertainty
313.2	8900	0.00273	0.002
313.2	10650	0.00406	0.002
313.2	14650	0.01059	0.00212
313.2	16800	0.02021	0.00405
313.2	20380	0.03443	0.00689
313.2	22600	0.05199	0.01041
313.2	26450	0.06354	0.01273
313.2	29200	0.06505	0.01304
313.2	30200	0.06415	0.01286
333.2	7830	0.00051	0.00051
333.2	11600	0.00512	0.002
333.2	15200	0.0141	0.00282
333.2	17750	0.02717	0.00544
333.2	20100	0.03412	0.00683
333.2	21400	0.03922	0.00785
333.2	22980	0.04521	0.00905
333.2	25100	0.04574	0.00916
333.2	25650	0.04369	0.00875
333.2	27100	0.04017	0.00804
333.2	28430	0.03609	0.00723
333.2	30370	0.03255	0.00652
353.2	8130	0.00056	0.00056
353.2	11100	0.00176	0.00176
353.2	14500	0.0119	0.00238
353.2	17480	0.02363	0.00473
353.2	19830	0.03368	0.00674
353.2	22650	0.03705	0.00742
353.2	24200	0.04236	0.00848
353.2	25350	0.03862	0.00773
353.2	27650	0.04158	0.00832
353.2	30030	0.04401	0.00881

System: 3-ethoxy-4-hydroxybenzaldehyde + carbon dioxide; phases: Gas, Liquid, Crystal
Property: Vapor or sublimation pressure, kPa (Gas); method: modified capillary method
Temperature, K	Vapor or sublimation pressure, kPa	uncertainty
330.2	19750	13700
330.9	27950	11290
330.9	32700	15610
331.2	22850	9750
331.2	37600	23150
331.7	40300	3040
332	15530	5130
332.3	12130	4090
332.3	13650	4180
332.4	11100	4140
332.4	44050	5710
332.5	20800	4570
333	10030	12010
334.3	9080	770
335.5	8100	680
337.2	7080	550
339.4	5950	520
341.2	5000	490
342.9	4230	610
344.2	3130	670
345.4	2550	440
346.4	2100	450
347.7	1580	700
347.9	1130	630
348.8	400	430
349.4	200	370
350	580	150
350.3	50	230
350.7	100	80

System: 3-ethoxy-4-hydroxybenzaldehyde + carbon dioxide; phases: Fluid (supercritical or subcritical phases), Crystal
Property: Mole fraction of 3-ethoxy-4-hydroxybenzaldehyde (Fluid (supercritical or subcritical phases)); method: UV spectra and CO2 gas volume
Temperature, K	Pressure, kPa	Mole fraction of 3-ethoxy-4-hydroxybenzaldehyde	uncertainty
313.2	10050	0.00359	0.002
313.2	10500	0.00432	0.002
313.2	11650	0.00499	0.002
313.2	11980	0.00676	0.00202
313.2	14250	0.0068	0.00201
313.2	15950	0.00692	0.002
313.2	17850	0.00675	0.002
313.2	18700	0.00683	0.002
313.2	20100	0.00759	0.002
313.2	22900	0.00805	0.002
313.2	26800	0.00788	0.00201
313.2	30150	0.00869	0.00201
333.2	8100	0.00017	0.00017
333.2	10430	0.0005	0.0005
333.2	13100	0.00121	0.00121
333.2	15750	0.00553	0.002
333.2	18100	0.00656	0.002
333.2	21100	0.00967	0.002
333.2	24300	0.01256	0.00252
333.2	26650	0.01372	0.00277
333.2	29600	0.01745	0.0035
353.2	10450	0.00054	0.00054
353.2	13700	0.00224	0.002
353.2	17050	0.00425	0.002
353.2	20850	0.00819	0.002
353.2	23100	0.01738	0.00349
353.2	26550	0.03459	0.00695

System: carbon dioxide + 3-ethoxysalicylaldehyde; phases: Gas, Liquid, Crystal
Property: Vapor or sublimation pressure, kPa (Gas); method: modified capillary method
Temperature, K	Vapor or sublimation pressure, kPa	uncertainty
311.7	34350	6840
312.2	31050	5210
312.4	29400	4900
312.8	26830	5400
314.4	19600	3060
314.8	21580	4170
315.2	13280	4130
315.3	17330	3920
315.6	18500	1580
315.9	13230	900
315.9	13830	900
316	10980	4430
316	25550	4830
316.2	9900	4620
316.6	11850	3340
317	23550	2100
317.5	9230	430
317.7	9380	1040
319.7	8380	330
322.3	7850	380
326.2	5950	380
326.5	6500	350
327.9	5850	500
329.3	5100	400
331.5	4400	590
332.4	3700	550
333.3	2680	610
333.5	2650	540
335.1	2200	240
336.2	2000	820
336.5	900	770
337.3	400	770
337.7	200	320
338	50	570
338.4	300	90
338.5	750	290
339	100	80

System: carbon dioxide + 3-ethoxysalicylaldehyde; phases: Fluid (supercritical or subcritical phases), Crystal
Property: Mole fraction of 3-ethoxysalicylaldehyde (Fluid (supercritical or subcritical phases)); method: UV spectra and CO2 gas volume
Temperature, K	Pressure, kPa	Mole fraction of 3-ethoxysalicylaldehyde	uncertainty
313.2	10300	0.01556	0.00314
313.2	10900	0.01888	0.0038
313.2	12850	0.02125	0.00427
313.2	15230	0.02409	0.00482
313.2	17050	0.02591	0.00519
313.2	20130	0.02713	0.00543
313.2	22430	0.03237	0.00649
313.2	26150	0.03319	0.00665
313.2	28030	0.03506	0.00703
313.2	29150	0.03385	0.00679
333.2	10330	0.00142	0.00142
333.2	12250	0.00731	0.00202
333.2	14100	0.00869	0.00201
333.2	16150	0.0198	0.00397
333.2	17600	0.02362	0.00473
333.2	20750	0.03053	0.00611
333.2	23830	0.04248	0.0085
333.2	26800	0.04906	0.00982
333.2	29630	0.05273	0.01056
353.2	10300	0.00119	0.00119
353.2	13180	0.00254	0.002
353.2	15930	0.00949	0.00202
353.2	18700	0.01812	0.00363
353.2	20850	0.03317	0.00664
353.2	23780	0.04392	0.00879
353.2	26650	0.05014	0.01004
353.2	30200	0.05329	0.01067
