Measured thermophysical data. Prediction and experimental verification of the effect of salt on the vapour liquid equilibrium of ethanol/1-propanol/water mixture
Source: Fluid Phase Equilib., 2005, 10.1016/j.fluid.2005.05.019
Compound 1: ethanol, C2H6O, InChI=1S/C2H6O/c1-2-3/h3H,2H2,1H3
Compound 2: propan-1-ol, C3H8O, InChI=1S/C3H8O/c1-2-3-4/h4H,2-3H2,1H3
Compound 3: water, H2O, InChI=1S/H2O/h1H2

System: ethanol + propan-1-ol + water; phases: Gas, Liquid
Fixed: Pressure, kPa = 101
Property: Mole fraction of propan-1-ol (Gas); method: CHROM:UFactor:4
Property: Mole fraction of propan-1-ol (Liquid); method: CHROM:UFactor:4
Property: Mole fraction of ethanol (Liquid); method: CHROM:UFactor:4
Temperature, K	Mole fraction of ethanol	Mole fraction of propan-1-ol	uncertainty	Mole fraction of propan-1-ol	uncertainty	Mole fraction of ethanol	uncertainty
351.15	0.945	0.017	0.001	0.046	0.002	0.922	
351.35	0.924	0.025	0.001	0.062	0.003	0.894	
351.65	0.889	0.037	0.002	0.08	0.003	0.858	
351.85	0.858	0.045	0.002	0.102	0.004	0.812	
352.25	0.808	0.059	0.003	0.132	0.005	0.75	
352.55	0.926	0.052	0.003	0.134	0.005	0.851	
352.75	0.735	0.082	0.004	0.171	0.007	0.661	
353.05	0.896	0.074	0.004	0.175	0.007	0.803	
353.05	0.616	0.042	0.002	0.049	0.002	0.396	
353.35	0.91	0.084	0.004	0.206	0.008	0.79	
353.45	0.649	0.11	0.005	0.211	0.009	0.561	
353.55	0.857	0.101	0.005	0.218	0.009	0.752	
353.55	0.898	0.096	0.005	0.221	0.009	0.774	
353.65	0.834	0.108	0.005	0.231	0.009	0.726	
353.65	0.895	0.098	0.005	0.231	0.009	0.764	
353.75	0.582	0.048	0.002	0.038	0.002	0.294	
354.05	0.787	0.137	0.007	0.273	0.011	0.675	
354.15	0.561	0.139	0.007	0.25	0.01	0.454	
354.25	0.865	0.127	0.006	0.269	0.011	0.725	
354.45	0.56	0.056	0.003	0.03	0.001	0.216	
354.65	0.732	0.174	0.009	0.321	0.013	0.611	
354.75	0.698	0.179	0.009	0.331	0.014	0.579	
355.15	0.83	0.161	0.008	0.332	0.014	0.662	
355.15	0.646	0.206	0.01	0.373	0.016	0.519	
355.45	0.439	0.191	0.009	0.304	0.012	0.315	
355.65	0.578	0.234	0.012	0.408	0.017	0.453	
355.75	0.803	0.185	0.009	0.361	0.015	0.631	
355.75	0.578	0.247	0.012	0.417	0.017	0.457	
355.85	0.449	0.236	0.012	0.346	0.014	0.341	
355.85	0.52	0.26	0.013	0.474	0.02	0.383	
356.05	0.485	0.052	0.003	0.012	0.001	0.117	
356.25	0.775	0.206	0.01	0.412	0.017	0.578	
356.25	0.545	0.202	0.01	0.45	0.019	0.402	
356.55	0.374	0.232	0.012	0.243	0.01	0.235	
356.65	0.451	0.211	0.01	0.309	0.013	0.278	
356.75	0.519	0.303	0.016	0.492	0.021	0.391	
357.35	0.33	0.24	0.012	0.166	0.007	0.162	
357.45	0.247	0.263	0.013	0.255	0.01	0.137	
357.85	0.296	0.255	0.013	0.113	0.005	0.113	
358.25	0.657	0.297	0.015	0.54	0.02	0.438	
358.35	0.184	0.29	0.015	0.202	0.008	0.082	
358.35	0.328	0.434	0.024	0.632	0.016	0.222	
358.45	0.444	0.399	0.021	0.6002	0.0175	0.3103	
358.65	0.268	0.267	0.014	0.076	0.003	0.078	
358.85	0.122	0.318	0.016	0.141	0.006	0.039	
359.35	0.287	0.495	0.028	0.694	0.014	0.186	
359.85	0.067	0.346	0.018	0.076	0.003	0.013	
359.85	0.223	0.277	0.014	0.043	0.002	0.042	
359.85	0.385	0.476	0.027	0.679	0.014	0.252	
360.25	0.217	0.256	0.013	0.039	0.002	0.045	
360.55	0.249	0.558	0.026	0.753	0.011	0.153	
360.75	0.359	0.049	0.002	0.004	0.001	0.044	
361.25	0.07	0.285	0.015	0.029	0.001	0.009	
361.35	0.45	0.47	0.026	0.721	0.013	0.25	
361.55	0.214	0.618	0.023	0.798	0.009	0.127	
361.65	0.166	0.212	0.011	0.023	0.001	0.027	
362.65	0.083	0.612	0.023	0.834	0.008	0.046	
363.05	0.182	0.673	0.021	0.842	0.007	0.101	
363.65	0.128	0.162	0.008	0.013	0.001	0.017	
364.25	0.15	0.732	0.017	0.877	0.006	0.08	
364.45	0.063	0.712	0.019	0.889	0.005	0.032	
365.45	0.099	0.116	0.006	0.007	0.001	0.011	
365.75	0.048	0.776	0.015	0.921	0.004	0.023	
365.85	0.069	0.755	0.016	0.927	0.004	0.028	
366.55	0.039	0.826	0.012	0.946	0.003	0.017	
367.05	0.072	0.081	0.004	0.003	0.001	0.006	
367.35	0.029	0.877	0.009	0.964	0.002	0.012	
367.95	0.071	0.064	0.003	0.002	0.001	0.004	
367.95	0.066	0.08	0.004	0.002	0.001	0.004	
368.75	0.052	0.05	0.002	0.001	0.001	0.004	
