Measured thermophysical data. Excess specific volume of water + tert-butyl alcohol solvent mixtures: Experimental data, modeling and derived excess partial specific thermodynamic quantities.
Source: Fluid Phase Equilib., 2017, 10.1016/j.fluid.2017.02.002
Compound 1: 2-methylpropan-2-ol, C4H10O, InChI=1S/C4H10O/c1-4(2,3)5/h5H,1-3H3, purity 99%
Compound 2: water, H2O, InChI=1S/H2O/h1H2, purity 99.9%

System: 2-methylpropan-2-ol; phases: Liquid
Fixed: Pressure, kPa = 100
Property: Mass density, kg/m3 (Liquid); method: Vibrating tube method
Temperature, K	Mass density, kg/m3	uncertainty
299.15	779.477	0.238
303.15	775.378	0.239
308.15	770.168	0.239
313.15	764.863	0.24
318.15	759.472	0.24
323.15	754.012	0.241

System: water; phases: Liquid
Fixed: Pressure, kPa = 100
Property: Mass density, kg/m3 (Liquid); method: Vibrating tube method
Temperature, K	Mass density, kg/m3	uncertainty
293.15	998.205	0.034
299.15	996.784	0.035
303.15	995.647	0.035
308.15	994.031	0.036
313.15	992.213	0.037

System: 2-methylpropan-2-ol + water; phases: Liquid
Fixed: Pressure, kPa = 100
Property: Mass density, kg/m3 (Liquid); method: Vibrating tube method
Temperature, K	Mass fraction of 2-methylpropan-2-ol	Mass density, kg/m3	uncertainty
293.15	0.025	993.922	0.037
293.15	0.05	990.088	0.039
293.15	0.075	986.645	0.042
293.15	0.1	983.472	0.045
293.15	0.125	980.319	0.048
293.15	0.15	977.225	0.051
293.15	0.175	973.742	0.054
293.15	0.2	969.629	0.058
293.15	0.225	964.936	0.063
293.15	0.25	959.834	0.067
293.15	0.275	954.431	0.072
293.15	0.3	948.868	0.077
293.15	0.325	943.195	0.081
293.15	0.35	937.373	0.087
293.15	0.375	931.61	0.092
293.15	0.4	925.788	0.097
293.15	0.425	919.996	0.102
293.15	0.45	914.153	0.108
293.15	0.475	908.281	0.113
293.15	0.5	902.429	0.119
293.15	0.525	896.577	0.124
299.15	0.025	992.481	0.037
299.15	0.05	988.554	0.04
299.15	0.075	984.955	0.043
299.15	0.1	981.555	0.046
299.15	0.125	978.094	0.049
299.15	0.15	974.588	0.052
299.15	0.175	970.625	0.056
299.15	0.2	966.064	0.06
299.15	0.225	961.024	0.064
299.15	0.25	955.698	0.069
299.15	0.275	950.13	0.073
299.15	0.3	944.443	0.078
299.15	0.325	938.688	0.083
299.15	0.35	932.787	0.088
299.15	0.375	926.964	0.093
299.15	0.4	921.086	0.098
299.15	0.425	915.233	0.104
299.15	0.45	909.352	0.109
299.15	0.475	903.393	0.114
299.15	0.5	897.548	0.12
299.15	0.525	891.659	0.126
303.15	0.025	991.318	0.038
303.15	0.05	987.329	0.041
303.15	0.075	983.625	0.043
303.15	0.1	980.074	0.046
303.15	0.125	976.412	0.049
303.15	0.15	972.643	0.053
303.15	0.175	968.393	0.057
303.15	0.2	963.58	0.061
303.15	0.225	958.346	0.065
303.15	0.25	952.89	0.07
303.15	0.275	947.229	0.074
303.15	0.3	941.459	0.079
303.15	0.325	935.65	0.084
303.15	0.35	929.697	0.089
303.15	0.375	923.831	0.094
303.15	0.4	917.911	0.099
303.15	0.425	912.016	0.105
303.15	0.45	906.106	0.11
303.15	0.475	900.084	0.115
303.15	0.5	894.241	0.121
303.15	0.525	888.328	0.127
308.15	0.025	989.65	0.039
308.15	0.05	985.57	0.041
308.15	0.075	981.754	0.044
308.15	0.1	978.019	0.047
308.15	0.125	974.108	0.05
308.15	0.15	970.029	0.054
308.15	0.175	965.463	0.058
308.15	0.2	960.384	0.062
308.15	0.225	954.94	0.066
308.15	0.25	949.333	0.071
308.15	0.275	943.567	0.076
308.15	0.3	937.705	0.08
308.15	0.325	931.833	0.085
308.15	0.35	925.803	0.09
308.15	0.375	919.872	0.095
308.15	0.4	913.903	0.101
308.15	0.425	907.95	0.106
308.15	0.45	902.006	0.111
308.15	0.475	895.897	0.117
308.15	0.5	890.06	0.122
308.15	0.525	884.11	0.128
313.15	0.025	987.794	0.039
313.15	0.05	983.617	0.042
313.15	0.075	979.671	0.045
313.15	0.1	975.75	0.048
313.15	0.125	971.599	0.052
313.15	0.15	967.235	0.055
313.15	0.175	962.392	0.059
313.15	0.2	957.095	0.063
313.15	0.225	951.458	0.068
313.15	0.25	945.714	0.072
313.15	0.275	939.858	0.077
313.15	0.3	933.922	0.082
313.15	0.325	927.956	0.087
313.15	0.35	921.863	0.092
313.15	0.375	915.865	0.097
313.15	0.4	909.845	0.102
313.15	0.425	903.833	0.107
313.15	0.45	897.849	0.113
313.15	0.475	891.652	0.118
313.15	0.5	885.816	0.123
313.15	0.525	879.83	0.129
293.15	0.55	890.795	0.13
293.15	0.575	884.983	0.136
293.15	0.6	879.091	0.141
293.15	0.625	873.33	0.147
293.15	0.65	867.448	0.153
293.15	0.675	861.666	0.159
293.15	0.7	855.815	0.165
293.15	0.725	849.953	0.171
293.15	0.75	844.112	0.177
293.15	0.775	838.26	0.183
293.15	0.8	832.329	0.189
293.15	0.825	826.467	0.195
293.15	0.85	820.506	0.201
293.15	0.875	814.575	0.207
293.15	0.9	808.564	0.214
293.15	0.925	802.553	0.22
293.15	0.95	796.552	0.226
293.15	0.975	790.751	0.232
299.15	0.55	885.845	0.131
299.15	0.575	879.995	0.137
299.15	0.6	874.051	0.143
299.15	0.625	868.264	0.149
299.15	0.65	862.352	0.154
299.15	0.675	856.538	0.16
299.15	0.7	850.649	0.166
299.15	0.725	844.745	0.172
299.15	0.75	838.864	0.178
299.15	0.775	832.967	0.184
299.15	0.8	826.989	0.19
299.15	0.825	821.077	0.196
299.15	0.85	815.065	0.202
299.15	0.875	809.078	0.208
299.15	0.9	803.011	0.214
299.15	0.925	796.938	0.22
299.15	0.95	790.861	0.226
299.15	0.975	784.957	0.232
303.15	0.55	882.488	0.132
303.15	0.575	876.61	0.138
303.15	0.6	870.627	0.144
303.15	0.625	864.82	0.149
303.15	0.65	858.89	0.155
303.15	0.675	853.054	0.161
303.15	0.7	847.135	0.167
303.15	0.725	841.206	0.173
303.15	0.75	835.296	0.179
303.15	0.775	829.366	0.185
303.15	0.8	823.357	0.191
303.15	0.825	817.414	0.197
303.15	0.85	811.367	0.203
303.15	0.875	805.34	0.209
303.15	0.9	799.235	0.215
303.15	0.925	793.119	0.221
303.15	0.95	786.995	0.227
303.15	0.975	781.016	0.233
308.15	0.55	878.237	0.133
308.15	0.575	872.319	0.139
308.15	0.6	866.284	0.145
308.15	0.625	860.46	0.15
308.15	0.65	854.499	0.156
308.15	0.675	848.634	0.162
308.15	0.7	842.678	0.168
308.15	0.725	836.713	0.174
308.15	0.75	830.766	0.18
308.15	0.775	824.795	0.186
308.15	0.8	818.746	0.192
308.15	0.825	812.762	0.198
308.15	0.85	806.671	0.203
308.15	0.875	800.594	0.209
308.15	0.9	794.442	0.215
308.15	0.925	788.275	0.221
308.15	0.95	782.083	0.227
308.15	0.975	776.007	0.233
313.15	0.55	873.92	0.134
313.15	0.575	867.966	0.14
313.15	0.6	861.867	0.146
313.15	0.625	856.029	0.152
313.15	0.65	850.036	0.157
313.15	0.675	844.138	0.163
313.15	0.7	838.143	0.169
313.15	0.725	832.138	0.175
313.15	0.75	826.153	0.181
313.15	0.775	820.143	0.187
313.15	0.8	814.054	0.192
313.15	0.825	808.025	0.198
313.15	0.85	801.889	0.204
313.15	0.875	795.763	0.21
313.15	0.9	789.565	0.216
313.15	0.925	783.34	0.222
313.15	0.95	777.081	0.228
313.15	0.975	770.907	0.234
