Measured thermophysical data. Excess Gibbs energies and volumes of the ternary system chloroform + tetrahydrofuran + cyclohexane at 298.15 K
Source: Fluid Phase Equilib., 2010, 10.1016/j.fluid.2010.06.007
Compound 1: trichloromethane, CHCl3, InChI=1S/CHCl3/c2-1(3)4/h1H, purity 99.5%
Compound 2: tetrahydrofuran, C4H8O, InChI=1S/C4H8O/c1-2-4-5-3-1/h1-4H2
Compound 3: cyclohexane, C6H12, InChI=1S/C6H12/c1-2-4-6-5-3-1/h1-6H2, purity 99.5%

System: trichloromethane; phases: Liquid
Property: Molar volume, m3/mol (Liquid); method: Vibrating tube method
Temperature, K	Pressure, kPa	Molar volume, m3/mol	uncertainty
298.15	101.325	8.071e-05	4e-08

System: tetrahydrofuran; phases: Liquid
Property: Molar volume, m3/mol (Liquid); method: Vibrating tube method
Temperature, K	Pressure, kPa	Molar volume, m3/mol	uncertainty
298.15	101.325	8.174e-05	4e-08

System: cyclohexane; phases: Liquid
Property: Molar volume, m3/mol (Liquid); method: Vibrating tube method
Temperature, K	Pressure, kPa	Molar volume, m3/mol	uncertainty
298.15	101.325	0.00010875	5e-08

System: trichloromethane + tetrahydrofuran; phases: Liquid
Fixed: Temperature, K = 298.15
Fixed: Pressure, kPa = 101
Property: Excess molar volume, m3/mol (Liquid); method: Calculated with densities of this investigation
Mole fraction of trichloromethane	Excess molar volume, m3/mol	uncertainty
0.0767	-9.3e-08	8e-09
0.15	-1.57e-07	8e-09
0.1946	-1.88e-07	8e-09
0.2498	-2.34e-07	9e-09
0.3007	-2.69e-07	9e-09
0.3418	-2.96e-07	9e-09
0.4166	-3.3e-07	9e-09
0.5002	-3.53e-07	9e-09
0.5488	-3.51e-07	9e-09
0.6222	-3.41e-07	9e-09
0.6991	-2.98e-07	9e-09
0.7453	-2.63e-07	9e-09
0.7926	-2.26e-07	9e-09
0.8494	-1.68e-07	8e-09
0.8996	-1.05e-07	8e-09
0.9485	-5.3e-08	8e-09

System: trichloromethane + tetrahydrofuran; phases: Gas, Liquid
Fixed: Temperature, K = 298.15
Property: Mole fraction of trichloromethane (Gas); method: Chromatography
Mole fraction of trichloromethane	Mole fraction of trichloromethane	uncertainty
0.0209	0.0063	0.0001
0.0256	0.0083	0.0001
0.0295	0.0093	0.0001
0.0472	0.0154	0.0002
0.0491	0.0169	0.0002
0.0905	0.0358	0.0003
0.1034	0.0417	0.0004
0.1925	0.102	0.001
0.2087	0.1162	0.0011
0.2838	0.1971	0.002
0.3523	0.2842	0.0029
0.3609	0.295	0.003
0.4569	0.4601	0.0049
0.5024	0.5478	0.005
0.5542	0.6357	0.0042
0.6484	0.7816	0.0035
0.6499	0.7842	0.0035
0.697	0.8334	0.0027
0.8068	0.9268	0.0023
0.8213	0.937	0.0023
0.9045	0.9739	0.0021
0.9462	0.9864	0.0021

System: trichloromethane + cyclohexane; phases: Liquid
Fixed: Temperature, K = 298.15
Fixed: Pressure, kPa = 101
Property: Excess molar volume, m3/mol (Liquid); method: Calculated with densities of this investigation
Mole fraction of trichloromethane	Excess molar volume, m3/mol	uncertainty
0.0664	1.46e-07	8e-09
0.1275	2.74e-07	9e-09
0.1752	3.46e-07	9e-09
0.2563	4.49e-07	9e-09
0.2902	4.76e-07	9e-09
0.2986	4.83e-07	9e-09
0.3634	5.31e-07	9e-09
0.3643	5.29e-07	9e-09
0.4089	5.51e-07	9e-09
0.4583	5.52e-07	9e-09
0.5188	5.54e-07	9e-09
0.535	5.44e-07	9e-09
0.5494	5.43e-07	9e-09
0.567	5.44e-07	9e-09
0.5795	5.38e-07	9e-09
0.6667	4.91e-07	9e-09
0.7308	4.31e-07	9e-09
0.7775	3.73e-07	9e-09
0.8478	2.8e-07	9e-09
0.9336	1.3e-07	8e-09

System: trichloromethane + cyclohexane; phases: Gas, Liquid
Fixed: Temperature, K = 298.15
Property: Mole fraction of trichloromethane (Gas); method: Chromatography
Mole fraction of trichloromethane	Mole fraction of trichloromethane	uncertainty
0.0232	0.0682	0.0006
0.065	0.1708	0.0016
0.0704	0.1857	0.0018
0.1281	0.2933	0.0028
0.1542	0.3365	0.0033
0.1747	0.3659	0.0036
0.2637	0.4724	0.0048
0.3768	0.5806	0.0043
0.3779	0.5811	0.0043
0.4661	0.6469	0.0038
0.5486	0.706	0.0033
0.583	0.7174	0.0032
0.6802	0.7763	0.0029
0.7218	0.8103	0.0028
0.9078	0.9321	0.0023
0.9292	0.9458	0.0024
0.9621	0.9702	0.0024
0.9767	0.9815	0.0025

System: trichloromethane + tetrahydrofuran + cyclohexane; phases: Liquid
Fixed: Temperature, K = 298.15
Fixed: Pressure, kPa = 101.3
Property: Excess molar volume, m3/mol (Liquid); method: Calculated with densities of this investigation
Mole fraction of trichloromethane	Mole fraction of tetrahydrofuran	Excess molar volume, m3/mol	uncertainty
0.047	0.9053	3.9e-08	8e-09
0.0503	0.292	4.25e-07	9e-09
0.0556	0.0968	2.76e-07	9e-09
0.0569	0.8476	1.08e-07	8e-09
0.0721	0.4662	4.07e-07	9e-09
0.0934	0.8612	-2.3e-08	8e-09
0.1001	0.6304	2.7e-07	1e-08
0.1055	0.1883	3.62e-07	9e-09
0.108	0.8048	4.3e-08	8e-09
0.1174	0.8384	-4.4e-08	8e-09
0.1212	0.2674	3.73e-07	9e-09
0.1241	0.4401	3.38e-07	9e-09
0.1309	0.0891	3.25e-07	9e-09
0.1572	0.7584	-1.1e-08	8e-09
0.1728	0.5776	1.73e-07	9e-09
0.1922	0.1629	3.68e-07	9e-09
0.1985	0.7188	-5.9e-08	8e-09
0.2088	0.5542	1.3e-07	1e-08
0.2226	0.0768	3.73e-07	9e-09
0.2317	0.2282	3.27e-07	9e-09
0.2508	0.3769	2.22e-07	9e-09
0.276	0.5043	5.1e-08	8e-09
0.3096	0.0683	4.38e-07	9e-09
0.3114	0.1389	3.76e-07	9e-09
0.3158	0.2033	3.23e-07	9e-09
0.3432	0.589	-1.82e-07	9e-09
0.3985	0.3026	1.36e-07	8e-09
0.3992	0.4185	-4e-08	1e-08
0.4053	0.1793	2.83e-07	9e-09
0.4064	0.1186	3.67e-07	9e-09
0.4096	0.531	-2.24e-07	9e-09
0.4111	0.0589	4.55e-07	9e-09
0.4821	0.1035	3.74e-07	9e-09
0.4836	0.4644	-2.47e-07	9e-09
0.4956	0.2528	9.7e-08	8e-09
0.4964	0.3508	-7.8e-08	8e-09
0.5097	0.0498	4.58e-07	9e-09
0.5727	0.1288	2.6e-07	1e-08
0.5798	0.3772	-2.46e-07	9e-09
0.5824	0.0418	4.51e-07	9e-09
0.6115	0.1947	8.7e-08	8e-09
0.613	0.2699	-9.3e-08	8e-09
0.6508	0.1053	2.39e-07	9e-09
0.6761	0.2907	-2.21e-07	9e-09
0.6916	0.156	8.1e-08	8e-09
0.6947	0.2129	-7.8e-08	8e-09
0.7098	0.0294	3.74e-07	9e-09
0.7443	0.2295	-1.89e-07	9e-09
0.7617	0.1205	7.2e-08	8e-09
0.7951	0.0208	2.98e-07	9e-09
0.7973	0.1819	-1.65e-07	9e-09
0.798	0.1415	-5.9e-08	8e-09
0.8086	0.0973	4.8e-08	8e-09
0.8264	0.052	1.44e-07	9e-09
0.8433	0.1406	-1.29e-07	8e-09
0.8811	0.0604	3.7e-08	8e-09
0.9049	0.0483	3.1e-08	8e-09

System: trichloromethane + tetrahydrofuran + cyclohexane; phases: Gas, Liquid
Fixed: Temperature, K = 298.15
Property: Mole fraction of trichloromethane (Gas); method: Chromatography
Mole fraction of trichloromethane	Mole fraction of tetrahydrofuran	Mole fraction of trichloromethane	uncertainty
0.0256	0.049	0.0575	0.0007
0.6458	0.0373	0.7629	0.0034
0.0185	0.2	0.0211	0.0003
0.0542	0.1928	0.0651	0.0008
0.1014	0.1832	0.1309	0.0016
0.1566	0.1721	0.2144	0.0026
0.208	0.1617	0.2921	0.0036
0.2539	0.1523	0.3535	0.0044
0.5021	0.1017	0.6458	0.0048
0.6048	0.0807	0.7321	0.0038
0.8001	0.0409	0.8695	0.0019
0.0743	0.0466	0.1605	0.0019
0.6925	0.0629	0.7956	0.0029
0.0531	0.3821	0.0384	0.0005
0.1509	0.3428	0.1356	0.0016
0.2869	0.288	0.3212	0.004
0.4499	0.2222	0.5517	0.0059
0.0445	0.4812	0.0242	0.0003
0.0988	0.4539	0.0634	0.0008
0.207	0.3995	0.1768	0.0021
0.2965	0.3544	0.2988	0.0037
0.3984	0.3031	0.4524	0.0058
0.1743	0.0421	0.3323	0.0041
0.9507	0.0249	0.9742	0.0004
0.9063	0.0472	0.9502	0.0008
0.9508	0.0248	0.9747	0.0004
0.8668	0.0671	0.9284	0.0011
0.7958	0.1029	0.8815	0.0018
0.6604	0.171	0.772	0.0033
0.5477	0.2278	0.6505	0.0048
0.9401	0.0449	0.9768	0.0004
0.8272	0.1296	0.9188	0.0012
0.7018	0.2236	0.8202	0.0026
0.2755	0.037	0.4661	0.006
0.0503	0.7125	0.0207	0.0003
0.1494	0.6382	0.0814	0.001
0.2975	0.5272	0.2416	0.003
0.499	0.376	0.5608	0.0058
0.4163	0.1803	0.527	0.0062
0.3055	0.3988	0.2869	0.0035
0.2539	0.5005	0.1954	0.0024
0.0255	0.949	0.0082	0.0001
0.0755	0.8492	0.0279	0.0003
0.1496	0.7011	0.0757	0.0009
0.4404	0.0286	0.6202	0.0051
0.5965	0.2533	0.7038	0.0041
0.3593	0.5503	0.3062	0.0038
0.2722	0.6593	0.1818	0.0022
0.1587	0.8013	0.0771	0.0009
0.1581	0.802	0.0737	0.0009
0.487	0.4883	0.5155	0.0063
0.4614	0.4626	0.4791	0.0062
0.3828	0.3826	0.3922	0.005
0.1272	0.1266	0.1989	0.0024
0.2345	0.2334	0.2811	0.0035
0.0247	0.1023	0.0419	0.0005
0.0995	0.0946	0.1739	0.0021
0.1969	0.0845	0.3309	0.0041
0.3501	0.0684	0.5228	0.0062

System: trichloromethane + tetrahydrofuran + cyclohexane; phases: Gas, Liquid
Fixed: Temperature, K = 298.15
Property: Mole fraction of tetrahydrofuran (Gas); method: Chromatography
Mole fraction of trichloromethane	Mole fraction of tetrahydrofuran	Mole fraction of tetrahydrofuran	uncertainty
0.0256	0.049	0.1128	0.0014
0.6458	0.0373	0.0128	0.0002
0.0185	0.2	0.3522	0.0044
0.0542	0.1928	0.3113	0.0039
0.1014	0.1832	0.2629	0.0032
0.1566	0.1721	0.2117	0.0026
0.208	0.1617	0.1705	0.0021
0.2539	0.1523	0.1376	0.0017
0.5021	0.1017	0.0473	0.0006
0.6048	0.0807	0.0301	0.0004
0.8001	0.0409	0.0109	0.0001
0.0743	0.0466	0.0837	0.001
0.6925	0.0629	0.0201	0.0002
0.0531	0.3821	0.5087	0.0064
0.1509	0.3428	0.414	0.0053
0.2869	0.288	0.2732	0.0034
0.4499	0.2222	0.1418	0.0017
0.0445	0.4812	0.5927	0.0055
0.0988	0.4539	0.5509	0.0059
0.207	0.3995	0.4409	0.0056
0.2965	0.3544	0.3424	0.0043
0.3984	0.3031	0.2383	0.0029
0.1743	0.0421	0.0499	0.0006
0.9507	0.0249	0.0059	0.0001
0.9063	0.0472	0.0117	0.0002
0.9508	0.0248	0.0058	0.0001
0.8668	0.0671	0.0169	0.0002
0.7958	0.1029	0.0308	0.0004
0.6604	0.171	0.0708	0.0009
0.5477	0.2278	0.1264	0.0015
0.9401	0.0449	0.0109	0.0001
0.8272	0.1296	0.0411	0.0005
0.7018	0.2236	0.1003	0.0012
0.2755	0.037	0.0301	0.0004
0.0503	0.7125	0.7659	0.0033
0.1494	0.6382	0.7023	0.0041
0.2975	0.5272	0.5508	0.0059
0.499	0.376	0.2855	0.0035
0.4163	0.1803	0.1234	0.0015
0.3055	0.3988	0.4013	0.0051
0.2539	0.5005	0.5397	0.0061
0.0255	0.949	0.9652	0.0005
0.0755	0.8492	0.8933	0.0016
0.1496	0.7011	0.7661	0.0033
0.4404	0.0286	0.0147	0.0002
0.5965	0.2533	0.1409	0.0017
0.3593	0.5503	0.5751	0.0057
0.2722	0.6593	0.7316	0.0038
0.1587	0.8013	0.8771	0.0018
0.1581	0.802	0.8798	0.0018
0.487	0.4883	0.4481	0.0057
0.4614	0.4626	0.4171	0.0053
0.3828	0.3826	0.3468	0.0043
0.1272	0.1266	0.1849	0.0022
0.2345	0.2334	0.2521	0.0031
0.0247	0.1023	0.2114	0.0026
0.0995	0.0946	0.1467	0.0018
0.1969	0.0845	0.0913	0.0011
0.3501	0.0684	0.0447	0.0005
