Measured thermophysical data. High-pressure densities of n-decane+o-xylene mixtures: Measurement and modelling
Source: Fluid Phase Equilib., 2019, 10.1016/j.fluid.2019.06.014
Compound 1: decane, C10H22, InChI=1S/C10H22/c1-3-5-7-9-10-8-6-4-2/h3-10H2,1-2H3, purity 99%
Compound 2: 1,2-dimethylbenzene, C8H10, InChI=1S/C8H10/c1-7-5-3-4-6-8(7)2/h3-6H,1-2H3, purity 99%

System: 1,2-dimethylbenzene; phases: Liquid
Property: Mass density, kg/m3 (Liquid); method: Vibrating tube method
Temperature, K	Pressure, kPa	Mass density, kg/m3	uncertainty
283.15	100	890.5	1.8
283.15	1000	890.8	1.8
283.15	3000	892.4	1.8
283.15	5000	893.5	1.8
283.15	10000	896.7	1.8
283.15	15000	899	1.8
283.15	20000	902.6	1.8
283.15	25000	905.3	1.8
283.15	30000	908.1	1.8
283.15	35000	910.9	1.9
283.15	40000	913.3	1.9
283.15	50000	918.2	1.9
283.15	60000	923	1.9
293.15	100	879.7	1.8
293.15	1000	879.9	1.8
293.15	3000	881.4	1.8
293.15	5000	882.4	1.8
293.15	10000	885.9	1.8
293.15	15000	888.9	1.8
293.15	20000	892	1.8
293.15	25000	894.9	1.8
293.15	30000	897.8	1.8
293.15	35000	900.5	1.8
293.15	40000	903.1	1.8
293.15	50000	908.5	1.9
293.15	60000	913.1	1.9
303.15	100	870.9	1.8
303.15	1000	871.6	1.8
303.15	3000	873	1.8
303.15	5000	874.4	1.8
303.15	10000	877.8	1.8
303.15	15000	881.1	1.8
303.15	20000	884.2	1.8
303.15	25000	887.3	1.8
303.15	30000	890.3	1.8
303.15	35000	893.1	1.8
303.15	40000	895.9	1.8
303.15	50000	901.2	1.8
303.15	60000	906.4	1.9
313.15	100	862.7	1.7
313.15	1000	862.9	1.7
313.15	3000	864.5	1.7
313.15	5000	865.9	1.7
313.15	10000	869.6	1.8
313.15	15000	873	1.8
313.15	20000	876.3	1.8
313.15	25000	879.6	1.8
313.15	30000	882.7	1.8
313.15	35000	885.7	1.8
313.15	40000	888.4	1.8
313.15	50000	894.2	1.8
313.15	60000	899.2	1.8
323.15	100	853.8	1.7
323.15	1000	854.6	1.7
323.15	3000	856.1	1.7
323.15	5000	857.7	1.7
323.15	10000	861.5	1.7
323.15	15000	865.2	1.8
323.15	20000	868.8	1.8
323.15	25000	872	1.8
323.15	30000	875.3	1.8
323.15	35000	878.4	1.8
323.15	40000	881.5	1.8
323.15	50000	887.3	1.8
323.15	60000	892.8	1.8
333.15	100	845.1	1.7
333.15	1000	846	1.7
333.15	3000	847.8	1.7
333.15	5000	849.4	1.7
333.15	10000	853.3	1.7
333.15	15000	857.1	1.7
333.15	20000	860.9	1.8
333.15	25000	864.4	1.8
333.15	30000	867.8	1.8
333.15	35000	871	1.8
333.15	40000	874.3	1.8
333.15	50000	880.3	1.8
333.15	60000	886	1.8
343.15	100	836.3	1.7
343.15	1000	837.2	1.7
343.15	3000	839	1.7
343.15	5000	840.9	1.7
343.15	10000	844.9	1.7
343.15	15000	849	1.7
343.15	20000	853	1.7
343.15	25000	856.6	1.7
343.15	30000	860.2	1.8
343.15	35000	863.7	1.8
343.15	40000	866.8	1.8
343.15	50000	873.2	1.8
343.15	60000	878.9	1.8
353.15	100	827.8	1.7
353.15	1000	828.6	1.7
353.15	3000	830.6	1.7
353.15	5000	832.4	1.7
353.15	10000	836.9	1.7
353.15	15000	841.2	1.7
353.15	20000	845.1	1.7
353.15	25000	849.1	1.7
353.15	30000	852.8	1.7
353.15	35000	856.4	1.8
353.15	40000	859.8	1.8
353.15	50000	866.3	1.8
353.15	60000	872.5	1.8
363.15	100	819.3	1.7
363.15	1000	820.3	1.7
363.15	3000	822.4	1.7
363.15	5000	824.3	1.7
363.15	10000	828.7	1.7
363.15	15000	833.6	1.7
363.15	20000	837.6	1.7
363.15	25000	841.5	1.7
363.15	30000	845.5	1.7
363.15	35000	849.3	1.7
363.15	40000	853.1	1.8
363.15	50000	859.8	1.8
363.15	60000	866.3	1.8

System: decane + 1,2-dimethylbenzene; phases: Liquid
Property: Mass density, kg/m3 (Liquid); method: Vibrating tube method
Temperature, K	Pressure, kPa	Mole fraction of decane	Mass density, kg/m3	uncertainty
283.15	100	0	890.5	1.8
283.15	1000	0	890.8	1.8
283.15	3000	0	892.4	1.8
283.15	5000	0	893.5	1.8
283.15	10000	0	896.7	1.8
283.15	15000	0	899	1.8
283.15	20000	0	902.6	1.8
283.15	25000	0	905.3	1.8
283.15	30000	0	908.1	1.8
283.15	35000	0	910.9	1.9
283.15	40000	0	913.3	1.9
283.15	50000	0	918.2	1.9
283.15	60000	0	923	1.9
283.15	100	0.2001	843.5	1.7
283.15	1000	0.2001	843.9	1.7
283.15	3000	0.2001	845.4	1.7
283.15	5000	0.2001	846.5	1.7
283.15	10000	0.2001	850	1.7
283.15	15000	0.2001	853.2	1.7
283.15	20000	0.2001	856.2	1.7
283.15	25000	0.2001	859.2	1.8
283.15	30000	0.2001	862.1	1.8
283.15	35000	0.2001	864.9	1.8
283.15	40000	0.2001	867.5	1.8
283.15	50000	0.2001	872.7	1.8
283.15	60000	0.2001	877.5	1.8
283.15	100	0.4065	805.4	1.6
283.15	1000	0.4065	806.1	1.6
283.15	3000	0.4065	807.1	1.6
283.15	5000	0.4065	808.8	1.6
283.15	10000	0.4065	812.2	1.6
283.15	15000	0.4065	815.4	1.7
283.15	20000	0.4065	818.5	1.7
283.15	25000	0.4065	821.5	1.7
283.15	30000	0.4065	824.4	1.7
283.15	35000	0.4065	827.2	1.7
283.15	40000	0.4065	829.9	1.7
283.15	50000	0.4065	835.2	1.7
283.15	60000	0.4065	840	1.8
283.15	100	0.5835	779	1.6
283.15	1000	0.5835	779.6	1.6
283.15	3000	0.5835	780.9	1.6
283.15	5000	0.5835	782.2	1.6
283.15	10000	0.5835	785.8	1.6
283.15	15000	0.5835	789.2	1.6
283.15	20000	0.5835	792.4	1.6
283.15	25000	0.5835	795.4	1.6
283.15	30000	0.5835	798.3	1.7
283.15	35000	0.5835	800.9	1.7
283.15	40000	0.5835	803.6	1.7
283.15	50000	0.5835	809.1	1.7
283.15	60000	0.5835	813.8	1.7
283.15	100	0.8041	752.3	1.5
283.15	1000	0.8041	753	1.5
283.15	3000	0.8041	754.3	1.5
283.15	5000	0.8041	755.5	1.5
283.15	10000	0.8041	759.2	1.5
283.15	15000	0.8041	762.6	1.6
283.15	20000	0.8041	765.8	1.6
283.15	25000	0.8041	769	1.6
283.15	30000	0.8041	772.1	1.6
283.15	35000	0.8041	774.9	1.6
283.15	40000	0.8041	777.7	1.6
283.15	50000	0.8041	782.3	1.7
283.15	60000	0.8041	787.9	1.7
293.15	100	0	879.7	1.8
293.15	1000	0	879.9	1.8
293.15	3000	0	881.4	1.8
293.15	5000	0	882.4	1.8
293.15	10000	0	885.9	1.8
293.15	15000	0	888.9	1.8
293.15	20000	0	892	1.8
293.15	25000	0	894.9	1.8
293.15	30000	0	897.8	1.8
293.15	35000	0	900.5	1.8
293.15	40000	0	903.1	1.8
293.15	50000	0	908.5	1.9
293.15	60000	0	913.1	1.9
293.15	100	0.2001	835.6	1.7
293.15	1000	0.2001	835.9	1.7
293.15	3000	0.2001	837.3	1.7
293.15	5000	0.2001	838.5	1.7
293.15	10000	0.2001	842.1	1.7
293.15	15000	0.2001	845.3	1.7
293.15	20000	0.2001	848.4	1.7
293.15	25000	0.2001	851.5	1.7
293.15	30000	0.2001	854.4	1.7
293.15	35000	0.2001	857.2	1.8
293.15	40000	0.2001	859.9	1.8
293.15	50000	0.2001	865.4	1.8
293.15	60000	0.2001	870.1	1.8
293.15	100	0.4065	800.1	1.6
293.15	1000	0.4065	800.6	1.6
293.15	3000	0.4065	802	1.6
293.15	5000	0.4065	803.2	1.6
293.15	10000	0.4065	806.8	1.6
293.15	15000	0.4065	810.1	1.7
293.15	20000	0.4065	813.3	1.7
293.15	25000	0.4065	816.4	1.7
293.15	30000	0.4065	819.5	1.7
293.15	35000	0.4065	822.3	1.7
293.15	40000	0.4065	825	1.7
293.15	50000	0.4065	830.6	1.7
293.15	60000	0.4065	835.2	1.8
293.15	100	0.5835	775.4	1.6
293.15	1000	0.5835	775.9	1.6
293.15	3000	0.5835	777.2	1.6
293.15	5000	0.5835	778.4	1.6
293.15	10000	0.5835	782.2	1.6
293.15	15000	0.5835	785.5	1.6
293.15	20000	0.5835	788.7	1.6
293.15	25000	0.5835	791.8	1.6
293.15	30000	0.5835	794.9	1.6
293.15	35000	0.5835	797.7	1.7
293.15	40000	0.5835	800.4	1.7
293.15	50000	0.5835	806	1.7
293.15	60000	0.5835	810.7	1.7
293.15	100	0.8041	747.6	1.5
293.15	1000	0.8041	748.2	1.5
293.15	3000	0.8041	749.5	1.5
293.15	5000	0.8041	750.7	1.5
293.15	10000	0.8041	754.5	1.5
293.15	15000	0.8041	757.8	1.6
293.15	20000	0.8041	761.1	1.6
293.15	25000	0.8041	764.3	1.6
293.15	30000	0.8041	767.2	1.6
293.15	35000	0.8041	770.2	1.6
293.15	40000	0.8041	772.9	1.6
293.15	50000	0.8041	778.6	1.7
293.15	60000	0.8041	783.2	1.7
303.15	100	0	870.9	1.8
303.15	1000	0	871.6	1.8
303.15	3000	0	873	1.8
303.15	5000	0	874.4	1.8
303.15	10000	0	877.8	1.8
303.15	15000	0	881.1	1.8
303.15	20000	0	884.2	1.8
303.15	25000	0	887.3	1.8
303.15	30000	0	890.3	1.8
303.15	35000	0	893.1	1.8
303.15	40000	0	895.9	1.8
303.15	50000	0	901.2	1.8
303.15	60000	0	906.4	1.9
303.15	100	0.2001	826.6	1.7
303.15	1000	0.2001	827.6	1.7
303.15	3000	0.2001	829.1	1.7
303.15	5000	0.2001	830.6	1.7
303.15	10000	0.2001	834.1	1.7
303.15	15000	0.2001	837.6	1.7
303.15	20000	0.2001	840.8	1.7
303.15	25000	0.2001	844	1.7
303.15	30000	0.2001	847	1.7
303.15	35000	0.2001	850	1.7
303.15	40000	0.2001	852.8	1.8
303.15	50000	0.2001	858.4	1.8
303.15	60000	0.2001	863.5	1.8
303.15	100	0.4065	791.1	1.6
303.15	1000	0.4065	792.3	1.6
303.15	3000	0.4065	793.8	1.6
303.15	5000	0.4065	795.4	1.6
303.15	10000	0.4065	798.9	1.6
303.15	15000	0.4065	802.5	1.6
303.15	20000	0.4065	805.7	1.7
303.15	25000	0.4065	809	1.7
303.15	30000	0.4065	812.1	1.7
303.15	35000	0.4065	815.2	1.7
303.15	40000	0.4065	818	1.7
303.15	50000	0.4065	823.6	1.7
303.15	60000	0.4065	828.8	1.8
303.15	100	0.5835	766.3	1.5
303.15	1000	0.5835	767.6	1.6
303.15	3000	0.5835	769.1	1.6
303.15	5000	0.5835	770.7	1.6
303.15	10000	0.5835	774.3	1.6
303.15	15000	0.5835	778	1.6
303.15	20000	0.5835	781.2	1.6
303.15	25000	0.5835	784.5	1.6
303.15	30000	0.5835	787.6	1.6
303.15	35000	0.5835	790.7	1.7
303.15	40000	0.5835	793.5	1.7
303.15	50000	0.5835	799.2	1.7
303.15	60000	0.5835	804.3	1.7
303.15	100	0.8041	740.7	1.5
303.15	1000	0.8041	742.1	1.5
303.15	3000	0.8041	743.7	1.5
303.15	5000	0.8041	745.3	1.5
303.15	10000	0.8041	748.9	1.5
303.15	15000	0.8041	752.7	1.5
303.15	20000	0.8041	755.9	1.6
303.15	25000	0.8041	759.2	1.6
303.15	30000	0.8041	762.4	1.6
303.15	35000	0.8041	765.5	1.6
303.15	40000	0.8041	768.4	1.6
303.15	50000	0.8041	774	1.7
303.15	60000	0.8041	779.2	1.7
313.15	100	0	862.7	1.7
313.15	1000	0	862.9	1.7
313.15	3000	0	864.5	1.7
313.15	5000	0	865.9	1.7
313.15	10000	0	869.6	1.8
313.15	15000	0	873	1.8
313.15	20000	0	876.3	1.8
313.15	25000	0	879.6	1.8
313.15	30000	0	882.7	1.8
313.15	35000	0	885.7	1.8
313.15	40000	0	888.4	1.8
313.15	50000	0	894.2	1.8
313.15	60000	0	899.2	1.8
313.15	100	0.2001	818.7	1.7
313.15	1000	0.2001	819	1.7
313.15	3000	0.2001	820.6	1.7
313.15	5000	0.2001	822.2	1.7
313.15	10000	0.2001	826	1.7
313.15	15000	0.2001	829.6	1.7
313.15	20000	0.2001	833.1	1.7
313.15	25000	0.2001	836.4	1.7
313.15	30000	0.2001	839.6	1.7
313.15	35000	0.2001	842.7	1.7
313.15	40000	0.2001	845.5	1.7
313.15	50000	0.2001	851.4	1.8
313.15	60000	0.2001	856.5	1.8
313.15	100	0.4065	783.5	1.6
313.15	1000	0.4065	783.9	1.6
313.15	3000	0.4065	785.5	1.6
313.15	5000	0.4065	787.1	1.6
313.15	10000	0.4065	791.1	1.6
313.15	15000	0.4065	794.7	1.6
313.15	20000	0.4065	798.2	1.6
313.15	25000	0.4065	801.7	1.7
313.15	30000	0.4065	804.9	1.7
313.15	35000	0.4065	808	1.7
313.15	40000	0.4065	810.9	1.7
313.15	50000	0.4065	816.8	1.7
313.15	60000	0.4065	822	1.7
313.15	100	0.5835	758.9	1.5
313.15	1000	0.5835	759.4	1.5
313.15	3000	0.5835	761	1.5
313.15	5000	0.5835	762.6	1.5
313.15	10000	0.5835	766.6	1.6
313.15	15000	0.5835	770.3	1.6
313.15	20000	0.5835	773.8	1.6
313.15	25000	0.5835	777.4	1.6
313.15	30000	0.5835	780.6	1.6
313.15	35000	0.5835	783.8	1.6
313.15	40000	0.5835	786.7	1.7
313.15	50000	0.5835	792.6	1.7
313.15	60000	0.5835	797.8	1.7
313.15	100	0.8041	733.5	1.5
313.15	1000	0.8041	734.1	1.5
313.15	3000	0.8041	735.7	1.5
313.15	5000	0.8041	737.4	1.5
313.15	10000	0.8041	741.4	1.5
313.15	15000	0.8041	745.2	1.5
313.15	20000	0.8041	748.8	1.6
313.15	25000	0.8041	752.3	1.6
313.15	30000	0.8041	755.5	1.6
313.15	35000	0.8041	758.8	1.6
313.15	40000	0.8041	761.7	1.6
313.15	50000	0.8041	767.6	1.7
313.15	60000	0.8041	772.8	1.7
323.15	100	0	853.8	1.7
323.15	1000	0	854.6	1.7
323.15	3000	0	856.1	1.7
323.15	5000	0	857.7	1.7
323.15	10000	0	861.5	1.7
323.15	15000	0	865.2	1.8
323.15	20000	0	868.8	1.8
323.15	25000	0	872	1.8
323.15	30000	0	875.3	1.8
323.15	35000	0	878.4	1.8
323.15	40000	0	881.5	1.8
323.15	50000	0	887.3	1.8
323.15	60000	0	892.8	1.8
323.15	100	0.2001	810.1	1.6
323.15	1000	0.2001	810.8	1.6
323.15	3000	0.2001	812.5	1.6
323.15	5000	0.2001	814.2	1.6
323.15	10000	0.2001	818.2	1.7
323.15	15000	0.2001	822	1.7
323.15	20000	0.2001	825.8	1.7
323.15	25000	0.2001	829.1	1.7
323.15	30000	0.2001	832.4	1.7
323.15	35000	0.2001	835.6	1.7
323.15	40000	0.2001	838.8	1.7
323.15	50000	0.2001	844.7	1.8
323.15	60000	0.2001	850.4	1.8
323.15	100	0.4065	775.1	1.6
323.15	1000	0.4065	775.9	1.6
323.15	3000	0.4065	777.6	1.6
323.15	5000	0.4065	779.4	1.6
323.15	10000	0.4065	783.5	1.6
323.15	15000	0.4065	787.4	1.6
323.15	20000	0.4065	791.2	1.6
323.15	25000	0.4065	794.5	1.6
323.15	30000	0.4065	798	1.7
323.15	35000	0.4065	801.1	1.7
323.15	40000	0.4065	804.4	1.7
323.15	50000	0.4065	810.3	1.7
323.15	60000	0.4065	816.1	1.7
323.15	100	0.5835	750.7	1.5
323.15	1000	0.5835	751.5	1.5
323.15	3000	0.5835	753.2	1.5
323.15	5000	0.5835	755	1.5
323.15	10000	0.5835	759.2	1.5
323.15	15000	0.5835	763.2	1.6
323.15	20000	0.5835	767	1.6
323.15	25000	0.5835	770.4	1.6
323.15	30000	0.5835	773.9	1.6
323.15	35000	0.5835	777.1	1.6
323.15	40000	0.5835	780.3	1.6
323.15	50000	0.5835	786.3	1.7
323.15	60000	0.5835	792.1	1.7
323.15	100	0.8041	725.6	1.5
323.15	1000	0.8041	726.4	1.5
323.15	3000	0.8041	728.2	1.5
323.15	5000	0.8041	730	1.5
323.15	10000	0.8041	734.3	1.5
323.15	15000	0.8041	738.2	1.5
323.15	20000	0.8041	742.2	1.5
323.15	25000	0.8041	745.6	1.6
323.15	30000	0.8041	749.1	1.6
323.15	35000	0.8041	752.3	1.6
323.15	40000	0.8041	755.6	1.6
323.15	50000	0.8041	761.6	1.7
323.15	60000	0.8041	767.5	1.7
333.15	100	0	845.1	1.7
333.15	1000	0	846	1.7
333.15	3000	0	847.8	1.7
333.15	5000	0	849.4	1.7
333.15	10000	0	853.3	1.7
333.15	15000	0	857.1	1.7
333.15	20000	0	860.9	1.8
333.15	25000	0	864.4	1.8
333.15	30000	0	867.8	1.8
333.15	35000	0	871	1.8
333.15	40000	0	874.3	1.8
333.15	50000	0	880.3	1.8
333.15	60000	0	886	1.8
333.15	100	0.2001	801.6	1.6
333.15	1000	0.2001	802.5	1.6
333.15	3000	0.2001	804.3	1.6
333.15	5000	0.2001	806	1.6
333.15	10000	0.2001	810.1	1.6
333.15	15000	0.2001	814.1	1.7
333.15	20000	0.2001	818	1.7
333.15	25000	0.2001	821.6	1.7
333.15	30000	0.2001	825.1	1.7
333.15	35000	0.2001	828.4	1.7
333.15	40000	0.2001	831.8	1.7
333.15	50000	0.2001	838	1.8
333.15	60000	0.2001	843.8	1.8
333.15	100	0.4065	766.7	1.6
333.15	1000	0.4065	767.6	1.6
333.15	3000	0.4065	769.5	1.6
333.15	5000	0.4065	771.3	1.6
333.15	10000	0.4065	775.6	1.6
333.15	15000	0.4065	779.7	1.6
333.15	20000	0.4065	783.6	1.6
333.15	25000	0.4065	787.5	1.6
333.15	30000	0.4065	790.8	1.6
333.15	35000	0.4065	794.2	1.7
333.15	40000	0.4065	797.6	1.7
333.15	50000	0.4065	803.8	1.7
333.15	60000	0.4065	809.7	1.7
333.15	100	0.5835	742.6	1.5
333.15	1000	0.5835	743.4	1.5
333.15	3000	0.5835	745.4	1.5
333.15	5000	0.5835	747.2	1.5
333.15	10000	0.5835	751.5	1.5
333.15	15000	0.5835	755.7	1.6
333.15	20000	0.5835	759.6	1.6
333.15	25000	0.5835	763.3	1.6
333.15	30000	0.5835	766.9	1.6
333.15	35000	0.5835	770.3	1.6
333.15	40000	0.5835	773.8	1.6
333.15	50000	0.5835	780	1.7
333.15	60000	0.5835	785.9	1.7
333.15	100	0.8041	717.7	1.5
333.15	1000	0.8041	718.5	1.5
333.15	3000	0.8041	720.5	1.5
333.15	5000	0.8041	722.3	1.5
333.15	10000	0.8041	726.8	1.5
333.15	15000	0.8041	731	1.5
333.15	20000	0.8041	735	1.5
333.15	25000	0.8041	738.8	1.5
333.15	30000	0.8041	742.4	1.6
333.15	35000	0.8041	745.8	1.6
333.15	40000	0.8041	749.3	1.6
333.15	50000	0.8041	755.5	1.6
333.15	60000	0.8041	761.5	1.7
343.15	100	0	836.3	1.7
343.15	1000	0	837.2	1.7
343.15	3000	0	839	1.7
343.15	5000	0	840.9	1.7
343.15	10000	0	844.9	1.7
343.15	15000	0	849	1.7
343.15	20000	0	853	1.7
343.15	25000	0	856.6	1.7
343.15	30000	0	860.2	1.8
343.15	35000	0	863.7	1.8
343.15	40000	0	866.8	1.8
343.15	50000	0	873.2	1.8
343.15	60000	0	878.9	1.8
343.15	100	0.2001	792.9	1.6
343.15	1000	0.2001	793.8	1.6
343.15	3000	0.2001	795.8	1.6
343.15	5000	0.2001	797.7	1.6
343.15	10000	0.2001	802	1.6
343.15	15000	0.2001	806.3	1.6
343.15	20000	0.2001	810.4	1.7
343.15	25000	0.2001	814.1	1.7
343.15	30000	0.2001	817.8	1.7
343.15	35000	0.2001	821.4	1.7
343.15	40000	0.2001	824.7	1.7
343.15	50000	0.2001	831.2	1.7
343.15	60000	0.2001	836.9	1.8
343.15	100	0.4065	758.2	1.5
343.15	1000	0.4065	759.1	1.5
343.15	3000	0.4065	761.1	1.5
343.15	5000	0.4065	763.2	1.6
343.15	10000	0.4065	767.6	1.6
343.15	15000	0.4065	771.9	1.6
343.15	20000	0.4065	776.2	1.6
343.15	25000	0.4065	779.9	1.6
343.15	30000	0.4065	783.7	1.6
343.15	35000	0.4065	787.4	1.6
343.15	40000	0.4065	790.7	1.7
343.15	50000	0.4065	797.3	1.7
343.15	60000	0.4065	803	1.7
343.15	100	0.5835	734.2	1.5
343.15	1000	0.5835	735.2	1.5
343.15	3000	0.5835	737.3	1.5
343.15	5000	0.5835	739.3	1.5
343.15	10000	0.5835	743.9	1.5
343.15	15000	0.5835	748.2	1.5
343.15	20000	0.5835	752.5	1.6
343.15	25000	0.5835	756.3	1.6
343.15	30000	0.5835	760.1	1.6
343.15	35000	0.5835	763.8	1.6
343.15	40000	0.5835	767.1	1.6
343.15	50000	0.5835	773.7	1.7
343.15	60000	0.5835	779.4	1.7
343.15	100	0.8041	709.5	1.4
343.15	1000	0.8041	710.5	1.4
343.15	3000	0.8041	712.6	1.4
343.15	5000	0.8041	714.7	1.5
343.15	10000	0.8041	719.4	1.5
343.15	15000	0.8041	723.8	1.5
343.15	20000	0.8041	728.2	1.5
343.15	25000	0.8041	732	1.5
343.15	30000	0.8041	735.8	1.6
343.15	35000	0.8041	739.5	1.6
343.15	40000	0.8041	742.9	1.6
343.15	50000	0.8041	749.5	1.6
343.15	60000	0.8041	755.4	1.7
353.15	100	0	827.8	1.7
353.15	1000	0	828.6	1.7
353.15	3000	0	830.6	1.7
353.15	5000	0	832.4	1.7
353.15	10000	0	836.9	1.7
353.15	15000	0	841.2	1.7
353.15	20000	0	845.1	1.7
353.15	25000	0	849.1	1.7
353.15	30000	0	852.8	1.7
353.15	35000	0	856.4	1.8
353.15	40000	0	859.8	1.8
353.15	50000	0	866.3	1.8
353.15	60000	0	872.5	1.8
353.15	100	0.2001	784.5	1.6
353.15	1000	0.2001	785.3	1.6
353.15	3000	0.2001	787.5	1.6
353.15	5000	0.2001	789.4	1.6
353.15	10000	0.2001	794.1	1.6
353.15	15000	0.2001	798.6	1.6
353.15	20000	0.2001	802.7	1.6
353.15	25000	0.2001	806.8	1.7
353.15	30000	0.2001	810.6	1.7
353.15	35000	0.2001	814.3	1.7
353.15	40000	0.2001	817.8	1.7
353.15	50000	0.2001	824.4	1.7
353.15	60000	0.2001	830.7	1.8
353.15	100	0.4065	749.9	1.5
353.15	1000	0.4065	750.7	1.5
353.15	3000	0.4065	753	1.5
353.15	5000	0.4065	754.9	1.5
353.15	10000	0.4065	759.8	1.6
353.15	15000	0.4065	764.5	1.6
353.15	20000	0.4065	768.7	1.6
353.15	25000	0.4065	772.8	1.6
353.15	30000	0.4065	776.7	1.6
353.15	35000	0.4065	780.4	1.6
353.15	40000	0.4065	783.9	1.7
353.15	50000	0.4065	790.6	1.7
353.15	60000	0.4065	796.9	1.7
353.15	100	0.5835	726.1	1.5
353.15	1000	0.5835	726.9	1.5
353.15	3000	0.5835	729.3	1.5
353.15	5000	0.5835	731.2	1.5
353.15	10000	0.5835	736.2	1.5
353.15	15000	0.5835	740.9	1.5
353.15	20000	0.5835	745.2	1.5
353.15	25000	0.5835	749.3	1.6
353.15	30000	0.5835	753.2	1.6
353.15	35000	0.5835	757	1.6
353.15	40000	0.5835	760.5	1.6
353.15	50000	0.5835	767.2	1.7
353.15	60000	0.5835	773.5	1.7
353.15	100	0.8041	701.7	1.4
353.15	1000	0.8041	702.5	1.4
353.15	3000	0.8041	704.9	1.4
353.15	5000	0.8041	706.9	1.4
353.15	10000	0.8041	711.9	1.5
353.15	15000	0.8041	716.7	1.5
353.15	20000	0.8041	721.1	1.5
353.15	25000	0.8041	725.2	1.5
353.15	30000	0.8041	729.2	1.5
353.15	35000	0.8041	733	1.6
353.15	40000	0.8041	736.6	1.6
353.15	50000	0.8041	743.3	1.6
353.15	60000	0.8041	749.7	1.7
363.15	100	0	819.3	1.7
363.15	1000	0	820.3	1.7
363.15	3000	0	822.4	1.7
363.15	5000	0	824.3	1.7
363.15	10000	0	828.7	1.7
363.15	15000	0	833.6	1.7
363.15	20000	0	837.6	1.7
363.15	25000	0	841.5	1.7
363.15	30000	0	845.5	1.7
363.15	35000	0	849.3	1.7
363.15	40000	0	853.1	1.8
363.15	50000	0	859.8	1.8
363.15	60000	0	866.3	1.8
363.15	100	0.2001	775.9	1.6
363.15	1000	0.2001	777	1.6
363.15	3000	0.2001	779.3	1.6
363.15	5000	0.2001	781.4	1.6
363.15	10000	0.2001	786	1.6
363.15	15000	0.2001	791.1	1.6
363.15	20000	0.2001	795.2	1.6
363.15	25000	0.2001	799.2	1.6
363.15	30000	0.2001	803.4	1.7
363.15	35000	0.2001	807.3	1.7
363.15	40000	0.2001	811.1	1.7
363.15	50000	0.2001	818	1.7
363.15	60000	0.2001	824.5	1.8
363.15	100	0.4065	741.5	1.5
363.15	1000	0.4065	742.7	1.5
363.15	3000	0.4065	745	1.5
363.15	5000	0.4065	747.1	1.5
363.15	10000	0.4065	751.9	1.5
363.15	15000	0.4065	757.1	1.6
363.15	20000	0.4065	761.3	1.6
363.15	25000	0.4065	765.5	1.6
363.15	30000	0.4065	769.7	1.6
363.15	35000	0.4065	773.7	1.6
363.15	40000	0.4065	777.5	1.6
363.15	50000	0.4065	784.5	1.7
363.15	60000	0.4065	791.1	1.7
363.15	100	0.5835	717.8	1.5
363.15	1000	0.5835	719	1.5
363.15	3000	0.5835	721.3	1.5
363.15	5000	0.5835	723.5	1.5
363.15	10000	0.5835	728.3	1.5
363.15	15000	0.5835	733.6	1.5
363.15	20000	0.5835	737.9	1.5
363.15	25000	0.5835	742.1	1.6
363.15	30000	0.5835	746.4	1.6
363.15	35000	0.5835	750.3	1.6
363.15	40000	0.5835	754.2	1.6
363.15	50000	0.5835	761.2	1.7
363.15	60000	0.5835	767.8	1.7
363.15	100	0.8041	693.5	1.4
363.15	1000	0.8041	694.7	1.4
363.15	3000	0.8041	697.1	1.4
363.15	5000	0.8041	699.4	1.4
363.15	10000	0.8041	704.2	1.4
363.15	15000	0.8041	709.7	1.5
363.15	20000	0.8041	714	1.5
363.15	25000	0.8041	718.2	1.5
363.15	30000	0.8041	722.5	1.5
363.15	35000	0.8041	726.6	1.6
363.15	40000	0.8041	730.4	1.6
363.15	50000	0.8041	737.4	1.6
363.15	60000	0.8041	744	1.7
