Measured thermophysical data. Phase behavior of glycol ether surfactant systems in the presence of brine and hydrocarbon: Experiment and modeling
Source: Fluid Phase Equilib., 2016, 10.1016/j.fluid.2016.01.019
Compound 1: decane, C10H22, InChI=1S/C10H22/c1-3-5-7-9-10-8-6-4-2/h3-10H2,1-2H3, purity 99%
Compound 2: 1-propoxy-2-propanol, C6H14O2, InChI=1S/C6H14O2/c1-3-4-8-5-6(2)7/h6-7H,3-5H2,1-2H3, purity 99%
Compound 3: 2-butoxyethan-1-ol, C6H14O2, InChI=1S/C6H14O2/c1-2-3-5-8-6-4-7/h7H,2-6H2,1H3, purity 99%
Compound 4: water, H2O, InChI=1S/H2O/h1H2, purity 99.8%

System: decane + 1-propoxy-2-propanol + water; phases: Liquid mixture 2, Liquid mixture 1
Fixed: Temperature, K = 298.15
Fixed: Pressure, kPa = 101
Property: Mole fraction of water (Liquid mixture 2); method: Chromatography
Property: Mole fraction of 1-propoxy-2-propanol (Liquid mixture 1); method: Chromatography
Property: Mole fraction of water (Liquid mixture 1); method: Chromatography
Mole fraction of 1-propoxy-2-propanol	Mole fraction of water	uncertainty	Mole fraction of 1-propoxy-2-propanol	uncertainty	Mole fraction of water	uncertainty
0.9211	0.059	0.0037	0.005	0.0041	0.9949	
0.89	0.083	0.004	0.006	0.0041	0.994	
0.838	0.13	0.0042	0.015	0.0042	0.9838	
0.778	0.183	0.004	0.02	0.0045	0.979	
0.706	0.235	0.0037	0.025	0.0045	0.974	
0.624	0.284	0.0036	0.03	0.0045	0.97	
0.555	0.3205	0.0036	0.029	0.0045	0.971	
0.454	0.369	0.0038	0.034	0.0038	0.965	

System: 2-butoxyethan-1-ol + decane + water; phases: Liquid mixture 2, Liquid mixture 1
Fixed: Temperature, K = 298.15
Fixed: Pressure, kPa = 101
Property: Mole fraction of 2-butoxyethan-1-ol (Liquid mixture 2); method: Chromatography
Property: Mole fraction of 2-butoxyethan-1-ol (Liquid mixture 1); method: Chromatography
Property: Mole fraction of water (Liquid mixture 1); method: Chromatography
Mole fraction of water	Mole fraction of 2-butoxyethan-1-ol	uncertainty	Mole fraction of 2-butoxyethan-1-ol	uncertainty	Mole fraction of water	uncertainty
0.0191	0.9723	0.0025	0.0055	0.0028	0.9942	
0.047	0.951	0.0029	0.0128	0.0028	0.987	
0.0836	0.9072	0.0037	0.0161	0.0028	0.9837	
0.1085	0.854	0.0039	0.1651	0.0029	0.8238	
0.1211	0.851	0.0023	0.188	0.0028	0.7976	
0.1379	0.8469	0.0023	0.2133	0.0029	0.7606	

System: 2-butoxyethan-1-ol + decane + water; phases: Liquid mixture 1, Liquid mixture 3, Liquid mixture 2
Property: Mole fraction of water (Liquid mixture 1); method: Chromatography
Temperature, K	Pressure, kPa	Mole fraction of water	uncertainty
298.15	101	0.9766	0.002

System: 2-butoxyethan-1-ol + decane + water; phases: Liquid mixture 2, Liquid mixture 3, Liquid mixture 1
Property: Mole fraction of water (Liquid mixture 2); method: Chromatography
Temperature, K	Pressure, kPa	Mole fraction of water	uncertainty
298.15	101	0.8474	0.0023

System: 2-butoxyethan-1-ol + decane + water; phases: Liquid mixture 3, Liquid mixture 2, Liquid mixture 1
Property: Mole fraction of 2-butoxyethan-1-ol (Liquid mixture 3); method: Chromatography
Temperature, K	Pressure, kPa	Mole fraction of 2-butoxyethan-1-ol	uncertainty
298.15	101	0.1052	0.0021

System: 2-butoxyethan-1-ol + decane + water; phases: Liquid mixture 3, Liquid mixture 2, Liquid mixture 1
Property: Mole fraction of decane (Liquid mixture 3); method: Chromatography
Temperature, K	Pressure, kPa	Mole fraction of decane	uncertainty
298.15	101	0.8698	0.0022

System: 2-butoxyethan-1-ol + decane + water; phases: Liquid mixture 1, Liquid mixture 3, Liquid mixture 2
Property: Mole fraction of 2-butoxyethan-1-ol (Liquid mixture 1); method: Chromatography
Temperature, K	Pressure, kPa	Mole fraction of 2-butoxyethan-1-ol	uncertainty
298.15	101	0.0221	0.002

System: 2-butoxyethan-1-ol + decane + water; phases: Liquid mixture 2, Liquid mixture 3, Liquid mixture 1
Property: Mole fraction of 2-butoxyethan-1-ol (Liquid mixture 2); method: Chromatography
Temperature, K	Pressure, kPa	Mole fraction of 2-butoxyethan-1-ol	uncertainty
298.15	101	0.1422	0.0022
