Measured thermophysical data. Volumetric approach to the interaction of diglycine in aqueous solutions of sulpha drugs at T = 288.15 to 308.15 K
Source: Fluid Phase Equilib., 2012, 10.1016/j.fluid.2012.08.001
Compound 1: N-(carboxymethyl)glycine, C4H7NO4, InChI=1S/C4H7NO4/c6-3(7)1-5-2-4(8)9/h5H,1-2H2,(H,6,7)(H,8,9), purity 99%
Compound 2: 4-aminobenzenesulfonamide, C6H8N2O2S, InChI=1S/C6H8N2O2S/c7-5-1-3-6(4-2-5)11(8,9)10/h1-4H,7H2,(H2,8,9,10), purity 99%
Compound 3: 4-aminobenzenesulfonic acid, C6H7NO3S, InChI=1S/C6H7NO3S/c7-5-1-3-6(4-2-5)11(8,9)10/h1-4H,7H2,(H,8,9,10), purity 99%
Compound 4: 5-sulfosalicylic acid, C7H6O6S, InChI=1S/C7H6O6S/c8-6-2-1-4(14(11,12)13)3-5(6)7(9)10/h1-3,8H,(H,9,10)(H,11,12,13), purity 99%
Compound 5: water, H2O, InChI=1S/H2O/h1H2, purity 99.8%

System: 4-aminobenzenesulfonamide + N-(carboxymethyl)glycine + water; phases: Liquid
Fixed: Pressure, kPa = 101
Property: Mass density, kg/m3 (Liquid); method: Vibrating tube method
Temperature, K	Molality, mol/kg of N-(carboxymethyl)glycine	Solvent: Molality, mol/kg of 4-aminobenzenesulfonamide	Mass density, kg/m3	uncertainty
288.15	0	0.01029	999.617	2.004
288.15	0	0.02011	1000.067	2.004
288.15	0	0.03025	1000.625	2.004
288.15	0	0.04012	1001.148	2.004
288.15	0.04864	0.01029	1002.262	2.004
288.15	0.05009	0.03025	1002.988	2.004
288.15	0.05092	0.04012	1003.368	2.004
288.15	0.05172	0.02011	1002.709	2.004
288.15	0.09355	0.03025	1005.169	2.004
288.15	0.09396	0.04012	1005.427	2.004
288.15	0.09939	0.02011	1005.232	2.004
288.15	0.10039	0.01029	1005.095	2.004
288.15	0.14128	0.04012	1007.885	2.004
288.15	0.14393	0.03025	1007.832	2.004
288.15	0.15233	0.01029	1007.961	2.004
288.15	0.15283	0.02011	1008.152	2.004
288.15	0.19916	0.03025	1010.932	2.004
288.15	0.20323	0.01029	1010.796	2.004
288.15	0.20757	0.04012	1011.608	2.004
288.15	0.21718	0.02011	1011.785	2.004
288.15	0.24572	0.02011	1013.438	2.004
288.15	0.25315	0.03025	1014.134	2.004
288.15	0.25655	0.04012	1014.578	2.004
288.15	0.25735	0.01029	1013.837	2.004
288.15	0.28598	0.01029	1015.455	2.004
288.15	0.29914	0.02011	1016.571	2.004
288.15	0.30472	0.03025	1017.354	2.005
288.15	0.30746	0.04012	1017.945	2.005
298.15	0	0.01029	997.529	2.004
298.15	0	0.02011	997.935	2.004
298.15	0	0.03025	998.513	2.004
298.15	0	0.04012	998.946	2.004
298.15	0.04864	0.01029	1000.121	2.004
298.15	0.05009	0.03025	1000.813	2.004
298.15	0.05092	0.04012	1001.068	2.004
298.15	0.05172	0.02011	1000.526	2.004
298.15	0.09355	0.03025	1002.951	2.004
298.15	0.09396	0.04012	1003.051	2.004
298.15	0.09939	0.02011	1003.005	2.004
298.15	0.10039	0.01029	1002.905	2.004
298.15	0.14128	0.04012	1005.422	2.004
298.15	0.14393	0.03025	1005.566	2.004
298.15	0.15233	0.01029	1005.724	2.004
298.15	0.15283	0.02011	1005.862	2.004
298.15	0.19916	0.03025	1008.607	2.004
298.15	0.20323	0.01029	1008.515	2.004
298.15	0.20757	0.04012	1009.081	2.004
298.15	0.21718	0.02011	1009.422	2.004
298.15	0.24572	0.02011	1011.03	2.004
298.15	0.25315	0.03025	1011.798	2.004
298.15	0.25655	0.04012	1012.065	2.004
298.15	0.25735	0.01029	1011.508	2.004
298.15	0.28598	0.01029	1013.101	2.004
298.15	0.29914	0.02011	1014.191	2.004
298.15	0.30472	0.03025	1014.975	2.004
298.15	0.30746	0.04012	1015.494	2.004
308.15	0	0.01029	994.491	2.004
308.15	0	0.02011	994.814	2.004
308.15	0	0.03025	995.503	2.004
308.15	0	0.04012	995.876	2.004
308.15	0.04864	0.01029	997.043	2.004
308.15	0.05009	0.03025	997.748	2.004
308.15	0.05092	0.04012	997.884	2.004
308.15	0.05172	0.02011	997.367	2.004
308.15	0.09355	0.03025	999.848	2.004
308.15	0.09396	0.04012	999.817	2.004
308.15	0.09939	0.02011	999.798	2.004
308.15	0.10039	0.01029	999.783	2.004
308.15	0.14128	0.04012	1002.168	2.004
308.15	0.14393	0.03025	1002.462	2.004
308.15	0.15233	0.01029	1002.564	2.004
308.15	0.15283	0.02011	1002.618	2.004
308.15	0.19916	0.03025	1005.497	2.004
308.15	0.20323	0.01029	1005.308	2.004
308.15	0.20757	0.04012	1005.872	2.004
308.15	0.21718	0.02011	1006.148	2.004
308.15	0.24572	0.02011	1007.757	2.004
308.15	0.25315	0.03025	1008.637	2.004
308.15	0.25655	0.04012	1008.897	2.004
308.15	0.25735	0.01029	1008.259	2.004
308.15	0.28598	0.01029	1009.831	2.004
308.15	0.29914	0.02011	1010.807	2.004
308.15	0.30472	0.03025	1011.749	2.004
308.15	0.30746	0.04012	1012.244	2.004

System: 4-aminobenzenesulfonic acid + N-(carboxymethyl)glycine + water; phases: Liquid
Fixed: Pressure, kPa = 101
Property: Mass density, kg/m3 (Liquid); method: Vibrating tube method
Temperature, K	Molality, mol/kg of N-(carboxymethyl)glycine	Solvent: Molality, mol/kg of 4-aminobenzenesulfonic acid	Mass density, kg/m3	uncertainty
288.15	0	0.00984	999.634	2.004
288.15	0	0.02019	1000.363	2.004
288.15	0	0.03042	1001.135	2.004
288.15	0	0.04039	1001.847	2.004
288.15	0.04554	0.03042	1003.117	2.004
288.15	0.04993	0.00984	1002.506	2.004
288.15	0.04996	0.02019	1002.567	2.004
288.15	0.05079	0.04039	1002.594	2.004
288.15	0.10008	0.02019	1005.109	2.004
288.15	0.10062	0.03042	1004.914	2.004
288.15	0.10146	0.00984	1005.528	2.004
288.15	0.10231	0.04039	1004.021	2.004
288.15	0.14775	0.00984	1008.295	2.004
288.15	0.15154	0.02019	1008.002	2.004
288.15	0.15309	0.04039	1006.067	2.004
288.15	0.15357	0.03042	1006.365	2.004
288.15	0.19867	0.00984	1011.387	2.004
288.15	0.2002	0.04039	1008.456	2.004
288.15	0.20199	0.02019	1011.092	2.004
288.15	0.2054	0.03042	1007.955	2.004
288.15	0.25116	0.00984	1014.638	2.004
288.15	0.25127	0.02019	1014.334	2.004
288.15	0.2528	0.03042	1009.444	2.004
288.15	0.25386	0.04039	1011.806	2.004
288.15	0.29854	0.00984	1017.595	2.005
288.15	0.30184	0.02019	1017.995	2.005
288.15	0.30225	0.03042	1010.695	2.004
288.15	0.30531	0.04039	1015.828	2.005
298.15	0	0.00984	997.571	2.004
298.15	0	0.02019	998.214	2.004
298.15	0	0.03042	998.996	2.004
298.15	0	0.04039	999.734	2.004
298.15	0.04554	0.03042	1000.208	2.004
298.15	0.04993	0.00984	1000.332	2.004
298.15	0.04996	0.02019	1000.368	2.004
298.15	0.05079	0.04039	1000.425	2.004
298.15	0.10008	0.02019	1002.805	2.004
298.15	0.10062	0.03042	1002.269	2.004
298.15	0.10146	0.00984	1003.254	2.004
298.15	0.10231	0.04039	1001.79	2.004
298.15	0.14775	0.00984	1005.931	2.004
298.15	0.15154	0.02019	1005.524	2.004
298.15	0.15309	0.04039	1003.7	2.004
298.15	0.15357	0.03042	1004.854	2.004
298.15	0.19867	0.00984	1008.946	2.004
298.15	0.2002	0.04039	1006.096	2.004
298.15	0.20199	0.02019	1008.506	2.004
298.15	0.2054	0.03042	1007.858	2.004
298.15	0.25116	0.00984	1012.135	2.004
298.15	0.25127	0.02019	1011.692	2.004
298.15	0.2528	0.03042	1011.153	2.004
298.15	0.25386	0.04039	1009.532	2.004
298.15	0.29854	0.00984	1015.081	2.004
298.15	0.30184	0.02019	1015.019	2.004
298.15	0.30225	0.03042	1014.848	2.004
298.15	0.30531	0.04039	1013.324	2.004
308.15	0	0.00984	994.546	2.004
308.15	0	0.02019	995.279	2.004
308.15	0	0.03042	995.873	2.004
308.15	0	0.04039	996.787	2.004
308.15	0.04554	0.03042	997.057	2.004
308.15	0.04993	0.00984	997.211	2.004
308.15	0.04996	0.02019	997.384	2.004
308.15	0.05079	0.04039	997.402	2.004
308.15	0.10008	0.02019	999.78	2
308.15	0.10062	0.03042	999.077	2.004
308.15	0.10146	0.00984	1000.043	2.004
308.15	0.10231	0.04039	998.707	2.004
308.15	0.14775	0.00984	1002.656	2.004
308.15	0.15154	0.02019	1002.507	2.004
308.15	0.15309	0.04039	1000.662	2.004
308.15	0.15357	0.03042	1001.576	2.004
308.15	0.19867	0.00984	1005.615	2.004
308.15	0.2002	0.04039	1002.907	2.004
308.15	0.20199	0.02019	1005.349	2.004
308.15	0.2054	0.03042	1004.593	2.004
308.15	0.25116	0.00984	1008.742	2.004
308.15	0.25127	0.02019	1008.503	2.004
308.15	0.2528	0.03042	1007.695	2.004
308.15	0.25386	0.04039	1006.105	2.004
308.15	0.29854	0.00984	1011.64	2
308.15	0.30184	0.02019	1011.758	2.004
308.15	0.30225	0.03042	1011.549	2.004
308.15	0.30531	0.04039	1009.841	2.004

System: 5-sulfosalicylic acid + N-(carboxymethyl)glycine + water; phases: Liquid
Fixed: Pressure, kPa = 101
Property: Mass density, kg/m3 (Liquid); method: Vibrating tube method
Temperature, K	Molality, mol/kg of N-(carboxymethyl)glycine	Solvent: Molality, mol/kg of 5-sulfosalicylic acid	Mass density, kg/m3	uncertainty
288.15	0	0.01005	1000.235	2.004
288.15	0	0.0207	1001.295	2.004
288.15	0	0.0296	1002.069	2.004
288.15	0	0.03977	1003.003	2.004
288.15	0.04985	0.0296	1003.983	2.004
288.15	0.05015	0.03977	1004.836	2.004
288.15	0.05029	0.0207	1003.319	2.004
288.15	0.05355	0.01005	1002.521	2.004
288.15	0.1	0.0207	1005.596	2.004
288.15	0.10026	0.03977	1006.965	2.004
288.15	0.1017	0.0296	1006.283	2.004
288.15	0.10619	0.01005	1004.997	2.004
288.15	0.1505	0.0296	1008.736	2.004
288.15	0.15081	0.03977	1009.394	2.004
288.15	0.15239	0.0207	1008.282	2.004
288.15	0.15779	0.01005	1007.626	2.004
288.15	0.19853	0.0207	1010.826	2.004
288.15	0.20017	0.0296	1011.502	2.004
288.15	0.20185	0.03977	1012.159	2.004
288.15	0.20514	0.01005	1010.218	2.004
288.15	0.2496	0.0296	1014.499	2.004
288.15	0.25168	0.0207	1014.046	2.004
288.15	0.25475	0.03977	1015.406	2.004
288.15	0.26099	0.01005	1013.487	2.004
288.15	0.29643	0.0207	1017.019	2.005
288.15	0.29937	0.0296	1017.762	2.005
288.15	0.30129	0.03977	1018.58	2
288.15	0.31475	0.01005	1016.886	2.005
298.15	0	0.01005	998.234	2.004
298.15	0	0.0207	999.172	2.004
298.15	0	0.0296	999.946	2.004
298.15	0	0.03977	1000.886	2.004
298.15	0.04985	0.0296	1001.774	2.004
298.15	0.05015	0.03977	1002.648	2.004
298.15	0.05029	0.0207	1001.105	2.004
298.15	0.05355	0.01005	1000.412	2.004
298.15	0.1	0.0207	1003.295	2.004
298.15	0.10026	0.03977	1004.705	2.004
298.15	0.1017	0.0296	1003.982	2.004
298.15	0.10619	0.01005	1002.783	2.004
298.15	0.1505	0.0296	1006.315	2.004
298.15	0.15081	0.03977	1007.095	2.004
298.15	0.15239	0.0207	1005.876	2.004
298.15	0.15779	0.01005	1005.326	2.004
298.15	0.19853	0.0207	1008.408	2.004
298.15	0.20017	0.0296	1008.964	2.004
298.15	0.20185	0.03977	1009.821	2.004
298.15	0.20514	0.01005	1007.803	2.004
298.15	0.2496	0.0296	1011.836	2.004
298.15	0.25168	0.0207	1011.595	2.004
298.15	0.25475	0.03977	1012.86	2
298.15	0.26099	0.01005	1010.964	2.004
298.15	0.29643	0.0207	1014.489	2.004
298.15	0.29937	0.0296	1014.965	2.004
298.15	0.30129	0.03977	1015.795	2.004
298.15	0.31475	0.01005	1014.304	2.004
308.15	0	0.01005	995.024	2.004
308.15	0	0.0207	996.159	2.004
308.15	0	0.03977	997.785	2.004
308.15	0.04985	0.0296	998.671	2.004
308.15	0.05015	0.03977	999.507	2.004
308.15	0.05029	0.0207	998.018	2.004
308.15	0.05355	0.01005	997.093	2.004
308.15	0.1	0.0207	1000.118	2.004
308.15	0.10026	0.03977	1001.499	2.004
308.15	0.1017	0.0296	1000.795	2.004
308.15	0.10619	0.01005	999.367	2.004
308.15	0.1505	0.0296	1003.109	2.004
308.15	0.15081	0.03977	1003.829	2.004
308.15	0.15239	0.0207	1002.628	2.004
308.15	0.15779	0.01005	1001.796	2.004
308.15	0.19853	0.0207	1005.074	2.004
308.15	0.20017	0.0296	1005.656	2.004
308.15	0.20185	0.03977	1006.451	2.004
308.15	0.20514	0.01005	1004.322	2.004
308.15	0.2496	0.0296	1008.544	2.004
308.15	0.25168	0.0207	1008.232	2.004
308.15	0.25475	0.03977	1009.429	2.004
308.15	0.26099	0.01005	1007.543	2.004
308.15	0.29643	0.0207	1011.096	2.004
308.15	0.29937	0.0296	1011.491	2.004
308.15	0.30129	0.03977	1012.259	2.004
308.15	0.31475	0.01005	1010.796	2.004
