Measured thermophysical data. Temperatures of liquid-liquid separation and excess molar volumes of {N-methylpiperidine-water} and {2-methylpiperidine-water} systems
Source: Fluid Phase Equilib., 2010, 10.1016/j.fluid.2010.05.001
Compound 1: N-methylpiperidine, C6H13N, InChI=1S/C6H13N/c1-7-5-3-2-4-6-7/h2-6H2,1H3
Compound 2: 2-methylpiperidine, C6H13N, InChI=1S/C6H13N/c1-6-4-2-3-5-7-6/h6-7H,2-5H2,1H3
Compound 3: water, H2O, InChI=1S/H2O/h1H2, purity 99.8%

System: N-methylpiperidine; phases: Liquid
Fixed: Pressure, kPa = 101.325
Property: Mass density, kg/m3 (Liquid); method: Vibrating tube method
Temperature, K	Mass density, kg/m3	uncertainty
288.15	822.237	0.242
298.15	810.887	0.241
308.15	803.846	0.24
318.15	796.931	0.243
328.15	785.64	0.243
338.15	781.618	0.241

System: N-methylpiperidine; phases: Liquid
Fixed: Pressure, kPa = 101.325
Property: Molar volume, m3/mol (Liquid); method: Vibrating tube method
Temperature, K	Molar volume, m3/mol	uncertainty
288.15	0.00012062	4e-08
298.15	0.00012231	5e-08
308.15	0.00012338	5e-08
318.15	0.00012445	5e-08
328.15	0.00012624	5e-08
338.15	0.00012689	5e-08

System: 2-methylpiperidine; phases: Liquid
Fixed: Pressure, kPa = 101.325
Property: Mass density, kg/m3 (Liquid); method: Vibrating tube method
Temperature, K	Mass density, kg/m3	uncertainty
288.15	846.703	0.245
298.15	835.787	0.244
308.15	826.08	0.243
318.15	817.349	0.243
328.15	809.08	0.243
338.15	801.96	0.242

System: 2-methylpiperidine; phases: Liquid
Fixed: Pressure, kPa = 101.325
Property: Molar volume, m3/mol (Liquid); method: Vibrating tube method
Temperature, K	Molar volume, m3/mol	uncertainty
288.15	0.00011714	9e-08
298.15	0.00011867	9e-08
308.15	0.00012006	9e-08
318.15	0.00012134	9e-08
328.15	0.00012258	9e-08
338.15	0.00012367	9e-08

System: N-methylpiperidine + water; phases: Liquid mixture 1, Liquid mixture 2
Fixed: Pressure, kPa = 101
Property: Liquid-liquid equilibrium temperature, K (Liquid mixture 1); method: VISOBS
Mole fraction of N-methylpiperidine	Liquid-liquid equilibrium temperature, K	uncertainty
0.05	317	0.8
0.13	316.9	0.8
0.2	318.7	0.8
0.7	348.1	0.8

System: N-methylpiperidine + water; phases: Liquid mixture 1, Liquid mixture 2
Fixed: Pressure, kPa = 101
Property: Liquid-liquid equilibrium temperature, K (Liquid mixture 1); method: microDSC
Mole fraction of N-methylpiperidine	Liquid-liquid equilibrium temperature, K	uncertainty
0.012	329.5	0.4
0.015	325.3	0.4
0.018	322.6	0.4
0.03	318.7	0.4
0.03	318.4	0.4
0.05	315.9	0.4
0.1	316.7	0.4
0.1	315.6	0.4
0.15	318.7	0.4
0.245	322	0.4
0.336	326.8	0.4
0.4	330.4	0.4
0.477	332.2	0.4
0.5	335	0.4
0.5	337.1	0.4

System: N-methylpiperidine + water; phases: Liquid
Fixed: Pressure, kPa = 101
Property: Mass density, kg/m3 (Liquid); method: Vibrating tube method
Temperature, K	Mole fraction of N-methylpiperidine	Mass density, kg/m3	uncertainty
288.15	0.0101	994.829	0.289
288.15	0.0728	966.82	0.287
288.15	0.0971	957.332	0.247
288.15	0.1499	939.294	0.224
288.15	0.2452	913.306	0.204
288.15	0.3359	895.82	0.191
288.15	0.3895	886.349	0.185
288.15	0.55	863.074	0.198
288.15	0.66	850.384	0.204
288.15	0.7	846.317	0.208
288.15	0.8	836.071	0.221
288.15	0.9	828.075	0.232
298.15	0.0133	990.926	0.294
298.15	0.0248	985.215	0.306
298.15	0.0299	982.27	0.238
298.15	0.0728	960.309	0.323
298.15	0.0971	949.172	0.247
298.15	0.19	917.46	0.23
298.15	0.2452	903.811	0.194
298.15	0.3359	884.947	0.192
298.15	0.4036	873.347	0.188
298.15	0.453	865.779	0.188
298.15	0.4767	862.238	0.189
298.15	0.505	858.158	0.189
298.15	0.595	846.184	0.197
298.15	0.6987	835.141	0.207
298.15	0.7907	826.047	0.216
298.15	0.8822	819.375	0.227
308.15	0.0133	987.229	0.304
308.15	0.0153	986.286	0.304
308.15	0.0248	980.469	0.397
308.15	0.0299	976.97	0.421
308.15	0.0728	952.068	0.349
308.15	0.0971	941.377	0.293
308.15	0.1972	908.857	0.202
308.15	0.391	866.58	0.202
308.15	0.4972	849.931	0.194
308.15	0.57	840.165	0.194
308.15	0.6987	825.724	0.207
308.15	0.78	818.342	0.215
318.15	0.00418	987.683	0.338
318.15	0.00896	985.125	0.352
318.15	0.0153	981.488	0.362
318.15	0.018	979.939	0.408
318.15	0.02	978.288	0.408
318.15	0.15	912.237	0.322
318.15	0.1972	896.689	0.207
318.15	0.3	874.067	0.195
318.15	0.4972	840.492	0.191
318.15	0.66	821.213	0.2
318.15	0.85	804	0.226
328.15	0.00418	983.308	0.369
328.15	0.00896	980.507	0.373
328.15	0.01	979.617	0.374
328.15	0.0133	977.934	0.326
328.15	0.3823	848.444	0.249
328.15	0.545	824.697	0.194
328.15	0.7049	807.305	0.208
328.15	0.795	800.206	0.214
328.15	0.945	790.511	0.236

System: N-methylpiperidine + water; phases: Liquid
Fixed: Pressure, kPa = 101
Property: Excess molar volume, m3/mol (Liquid); method: Calculated with densities of this investigation
Temperature, K	Mole fraction of N-methylpiperidine	Excess molar volume, m3/mol	uncertainty
288.15	0.0101	-1.4e-07	2e-08
288.15	0.0728	-7.6e-07	2e-08
288.15	0.0971	-9.5e-07	4e-08
288.15	0.1499	-1.29e-06	4e-08
288.15	0.2452	-1.69e-06	6e-08
288.15	0.3359	-1.97e-06	8e-08
288.15	0.3895	-2.03e-06	8e-08
288.15	0.55	-1.9e-06	8e-08
288.15	0.66	-1.61e-06	8e-08
288.15	0.7	-1.47e-06	6e-08
288.15	0.8	-9.5e-07	4e-08
288.15	0.9	-4.5e-07	2e-08
298.15	0.0133	-1.8e-07	2e-08
298.15	0.0248	-3.2e-07	2e-08
298.15	0.0299	-3.7e-07	2e-08
298.15	0.0728	-7.3e-07	2e-08
298.15	0.0971	-8.9e-07	2e-08
298.15	0.19	-1.43e-06	6e-08
298.15	0.2452	-1.63e-06	6e-08
298.15	0.3359	-1.85e-06	8e-08
298.15	0.4036	-1.93e-06	8e-08
298.15	0.453	-1.93e-06	8e-08
298.15	0.4767	-1.9e-06	8e-08
298.15	0.505	-1.86e-06	8e-08
298.15	0.595	-1.61e-06	8e-08
298.15	0.6987	-1.29e-06	6e-08
298.15	0.7907	-8.4e-07	4e-08
298.15	0.8822	-4.8e-07	2e-08
308.15	0.0133	-1.8e-07	2e-08
308.15	0.0153	-2.1e-07	2e-08
308.15	0.0248	-3.1e-07	2e-08
308.15	0.0299	-3.5e-07	2e-08
308.15	0.0728	-6.6e-07	2e-08
308.15	0.0971	-8.4e-07	2e-08
308.15	0.1972	-1.46e-06	6e-08
308.15	0.391	-1.9e-06	8e-08
308.15	0.4972	-1.82e-06	8e-08
308.15	0.57	-1.66e-06	8e-08
308.15	0.6987	-1.23e-06	6e-08
308.15	0.78	-9.1e-07	4e-08
318.15	0.00418	-8e-08	2e-08
318.15	0.00896	-1.2e-07	2e-08
318.15	0.0153	-2e-07	2e-08
318.15	0.018	-2.4e-07	2e-08
318.15	0.02	-2.5e-07	2e-08
318.15	0.15	-1.08e-06	4e-08
318.15	0.1972	-1.26e-06	4e-08
318.15	0.3	-1.69e-06	6e-08
318.15	0.4972	-1.72e-06	8e-08
318.15	0.66	-1.34e-06	8e-08
318.15	0.85	-5.3e-07	2e-08
328.15	0.00418	-6e-08	2e-08
328.15	0.00896	-1.2e-07	2e-08
328.15	0.01	-1.3e-07	2e-08
328.15	0.0133	-1.8e-07	2e-08
328.15	0.3823	-1.62e-06	6e-08
328.15	0.545	-1.45e-06	6e-08
328.15	0.7049	-1e-06	4e-08
328.15	0.795	-6.9e-07	4e-08
328.15	0.945	-1.7e-07	2e-08

System: 2-methylpiperidine + water; phases: Liquid mixture 1, Liquid mixture 2
Fixed: Pressure, kPa = 101
Property: Liquid-liquid equilibrium temperature, K (Liquid mixture 1); method: VISOBS
Mole fraction of 2-methylpiperidine	Liquid-liquid equilibrium temperature, K	uncertainty
0.07	339.3	0.8
0.119	341.1	0.8
0.2	352.1	0.8
0.25	357.1	0.8
0.3	376.6	0.8

System: 2-methylpiperidine + water; phases: Liquid mixture 1, Liquid mixture 2
Fixed: Pressure, kPa = 101
Property: Liquid-liquid equilibrium temperature, K (Liquid mixture 1); method: microDSC
Mole fraction of 2-methylpiperidine	Liquid-liquid equilibrium temperature, K	uncertainty
0.017	352.6	0.4
0.05	343	0.4

System: 2-methylpiperidine + water; phases: Liquid
Fixed: Pressure, kPa = 101
Property: Mass density, kg/m3 (Liquid); method: Vibrating tube method
Temperature, K	Mole fraction of 2-methylpiperidine	Mass density, kg/m3	uncertainty
288.15	0.022	992.158	0.244
288.15	0.0488	982.491	0.245
288.15	0.0966	965.22	0.219
288.15	0.1901	940.03	0.194
288.15	0.3019	918.147	0.18
288.15	0.4006	904.274	0.177
288.15	0.47	896.239	0.178
288.15	0.59	883.489	0.192
288.15	0.685	874.59	0.203
288.15	0.775	866.186	0.215
288.15	0.813	863.581	0.218
298.15	0.0506	976.147	0.271
298.15	0.0951	957.78	0.219
298.15	0.1955	930.75	0.197
298.15	0.288	911.236	0.18
298.15	0.3958	894.275	0.181
298.15	0.45	886.977	0.178
298.15	0.4708	884.952	0.172
298.15	0.5925	871.352	0.192
298.15	0.7	860.793	0.203
298.15	0.8043	851.545	0.214
308.15	0.0506	969.86	0.279
308.15	0.0951	951.024	0.229
308.15	0.1955	921.38	0.204
308.15	0.288	902.606	0.182
308.15	0.388	886.089	0.181
308.15	0.463	875.982	0.18
308.15	0.585	861.756	0.192
308.15	0.6501	855.347	0.195
318.15	0.0506	963.421	0.294
318.15	0.0951	943.575	0.237
318.15	0.1955	912.95	0.208
318.15	0.288	893.567	0.184
318.15	0.388	876.681	0.181
318.15	0.463	866.663	0.18
318.15	0.585	852.312	0.191
318.15	0.6501	846.574	0.195
328.15	0.05	957.601	0.302
328.15	0.0982	935.269	0.32
328.15	0.3019	883.044	0.204
328.15	0.4006	867.078	0.181
328.15	0.4585	859.202	0.181
328.15	0.5699	846.009	0.191
328.15	0.6591	836.942	0.198
328.15	0.775	826.192	0.211
338.15	0.0951	926.141	0.227
338.15	0.1901	897.2	0.204
338.15	0.3019	873.469	0.19
338.15	0.365	863.604	0.179
338.15	0.4585	850.39	0.183
338.15	0.5925	834.463	0.19
338.15	0.8043	816.519	0.216

System: 2-methylpiperidine + water; phases: Liquid
Fixed: Pressure, kPa = 101
Property: Excess molar volume, m3/mol (Liquid); method: Calculated with densities of this investigation
Temperature, K	Mole fraction of 2-methylpiperidine	Excess molar volume, m3/mol	uncertainty
288.15	0.022	-3.1e-07	2e-08
288.15	0.0488	-5e-07	2e-08
288.15	0.0966	-8.2e-07	2e-08
288.15	0.1901	-1.3e-06	4e-08
288.15	0.3019	-1.65e-06	6e-08
288.15	0.4006	-1.86e-06	8e-08
288.15	0.47	-1.95e-06	8e-08
288.15	0.59	-1.92e-06	8e-08
288.15	0.685	-1.76e-06	8e-08
288.15	0.775	-1.43e-06	6e-08
288.15	0.813	-1.34e-06	6e-08
298.15	0.0506	-5e-07	2e-08
298.15	0.0951	-7.7e-07	2e-08
298.15	0.1955	-1.33e-06	2e-08
298.15	0.288	-1.61e-06	4e-08
298.15	0.3958	-1.81e-06	6e-08
298.15	0.45	-1.84e-06	6e-08
298.15	0.4708	-1.88e-06	8e-08
298.15	0.5925	-1.8e-06	8e-08
298.15	0.7	-1.54e-06	6e-08
298.15	0.8043	-1.15e-06	6e-08
308.15	0.0506	-4.7e-07	2e-08
308.15	0.0951	-7.6e-07	2e-08
308.15	0.1955	-1.28e-06	2e-08
308.15	0.288	-1.62e-06	4e-08
308.15	0.388	-1.8e-06	6e-08
308.15	0.463	-1.85e-06	6e-08
308.15	0.585	-1.75e-06	4e-08
308.15	0.6501	-1.64e-06	4e-08
318.15	0.0506	-4.5e-07	2e-08
318.15	0.0951	-7.3e-07	2e-08
318.15	0.1955	-1.25e-06	2e-08
318.15	0.288	-1.59e-06	2e-08
318.15	0.388	-1.76e-06	6e-08
318.15	0.463	-1.82e-06	8e-08
318.15	0.585	-1.71e-06	6e-08
318.15	0.6501	-1.66e-06	4e-08
328.15	0.05	-4.4e-07	2e-08
328.15	0.0982	-7.3e-07	2e-08
328.15	0.3019	-1.61e-06	4e-08
328.15	0.4006	-1.78e-06	6e-08
328.15	0.4585	-1.82e-06	8e-08
328.15	0.5699	-1.75e-06	6e-08
328.15	0.6591	-1.58e-06	6e-08
328.15	0.775	-1.17e-06	4e-08
338.15	0.0951	-6e-07	2e-08
338.15	0.1901	-1.11e-06	2e-08
338.15	0.3019	-1.49e-06	4e-08
338.15	0.365	-1.64e-06	6e-08
338.15	0.4585	-1.71e-06	6e-08
338.15	0.5925	-1.54e-06	4e-08
338.15	0.8043	-1.05e-06	2e-08
