Measured thermophysical data. Vapour pressures and enthalpies of vaporisation of N,N-di-alkylacetamides
Source: Fluid Phase Equilib., 2019, 10.1016/j.fluid.2019.112241
Compound 1: N,N-dimethylethanamide, C4H9NO, InChI=1S/C4H9NO/c1-4(6)5(2)3/h1-3H3, purity 99%
Compound 2: N,N-diethylacetamide, C6H13NO, InChI=1S/C6H13NO/c1-4-7(5-2)6(3)8/h4-5H2,1-3H3, purity 99%
Compound 3: N,N-dibutylacetamide, C10H21NO, InChI=1S/C10H21NO/c1-4-6-8-11(10(3)12)9-7-5-2/h4-9H2,1-3H3, purity 99%
Compound 4: N,N-dihexylacetamide, C14H29NO, InChI=1S/C14H29NO/c1-4-6-8-10-12-15(14(3)16)13-11-9-7-5-2/h4-13H2,1-3H3, purity 99%

System: N,N-dimethylethanamide; phases: Liquid, Gas
Property: Vapor or sublimation pressure, kPa (Liquid); method: Transpiration method
Temperature, K	Vapor or sublimation pressure, kPa	uncertainty
276.5	0.04528	0.00292
278.2	0.05175	0.00331
279.7	0.058	0.00372
281.3	0.06713	0.00431
283	0.07741	0.00492
286.4	0.09668	0.0061
288.2	0.11212	0.00707
290.8	0.13015	0.00839
291.2	0.13515	0.00868
293.2	0.15708	0.00999
296.3	0.20001	0.01263
298.1	0.22745	0.01429
298.2	0.23013	0.01446
300.7	0.26665	0.01667
303	0.3058	0.01916
303.2	0.32479	0.0203
305.2	0.35375	0.02525
305.6	0.37954	0.02661
308	0.44221	0.02757
308.1	0.43051	0.02687
310.6	0.50407	0.03167
313.1	0.60248	0.03782
313.2	0.60353	0.03787
315.7	0.71097	0.0443
316.4	0.72735	0.04592
318.2	0.84257	0.05306
320.8	0.99677	0.06204
323.2	1.11463	0.06927
323.3	1.12808	0.07008
325.8	1.28484	0.07999
328.3	1.48139	0.09211

System: N,N-dimethylethanamide; phases: Liquid, Gas
Property: Vapor or sublimation pressure, kPa (Liquid); method: Transpiration method
Temperature, K	Vapor or sublimation pressure, kPa	uncertainty
273.3	0.03543	0.00234
273.3	0.03607	0.00237
277.3	0.05063	0.00326
281.3	0.07108	0.00455
285.3	0.0977	0.00621
289.3	0.13069	0.00828
293.3	0.17634	0.01111
297.3	0.22912	0.01439
301.3	0.29829	0.01878
305.2	0.39438	0.02468

System: N,N-dimethylethanamide; phases: Liquid, Gas
Property: Vapor or sublimation pressure, kPa (Liquid); method: Transpiration method
Temperature, K	Vapor or sublimation pressure, kPa	uncertainty
273.3	0.035	0.00227
274.7	0.03924	0.00251
275.9	0.04222	0.00271
276.9	0.04668	0.003
278.6	0.05303	0.00339
281.4	0.06481	0.0043
281.9	0.06864	0.00454
282.4	0.07295	0.00483
285.8	0.09266	0.00583
287.3	0.10214	0.00653
288.3	0.11467	0.00733
290.2	0.13138	0.00835
291.3	0.14651	0.00946
291.8	0.1543	0.00998
294.2	0.17435	0.01094
296.2	0.20411	0.01287
297.2	0.21693	0.01363
300.2	0.2612	0.01824
300.7	0.28295	0.01818
302.2	0.31736	0.01999
302.7	0.32789	0.02066
304.7	0.37584	0.02355

System: N,N-diethylacetamide; phases: Liquid, Gas
Property: Vapor or sublimation pressure, kPa (Liquid); method: Transpiration method
Temperature, K	Vapor or sublimation pressure, kPa	uncertainty
293.2	0.05427	0.00347
295.7	0.06498	0.00415
298.1	0.07907	0.00504
300.7	0.09611	0.00608
303.3	0.11336	0.00719
308.2	0.15947	0.00998
310.6	0.1826	0.01148
313.2	0.21998	0.01395
318.2	0.31449	0.01971
323.3	0.42116	0.02627
325.7	0.49877	0.03136
328.2	0.59207	0.03705
330.7	0.68383	0.04283
333.1	0.80778	0.05057

System: N,N-diethylacetamide; phases: Liquid, Gas
Property: Vapor or sublimation pressure, kPa (Liquid); method: Transpiration method
Temperature, K	Vapor or sublimation pressure, kPa	uncertainty
308.2	0.15638	0.00993
313.1	0.218	0.01375
318.2	0.3097	0.01943
323.1	0.41789	0.02615
328.2	0.56951	0.0356
333.2	0.77104	0.04798
335.7	0.88199	0.05501
338.3	1.03238	0.0643

System: N,N-dibutylacetamide; phases: Liquid, Gas
Property: Vapor or sublimation pressure, kPa (Liquid); method: Transpiration method
Temperature, K	Vapor or sublimation pressure, kPa	uncertainty
291.8	0.0013	0.0001
298.8	0.00247	0.00017
300.9	0.00292	0.0002
301.8	0.00324	0.00023
303.9	0.00402	0.00027
306.6	0.00505	0.00036
306.7	0.00514	0.00036
308.8	0.00635	0.00044
312.5	0.00844	0.00058
315.7	0.0107	0.00072
317.5	0.01304	0.00087
320.4	0.01631	0.00104
320.7	0.01642	0.00106
320.8	0.01653	0.00106
322.6	0.01907	0.00124
323.6	0.02074	0.00134
325.6	0.02381	0.00154
327.2	0.02708	0.00176
327.6	0.0289	0.00203
330.6	0.03472	0.00223
330.6	0.03551	0.00228
333.3	0.04451	0.00284
334.8	0.04701	0.00299
335.7	0.05254	0.00338
337.5	0.05938	0.00377
340.7	0.0733	0.00465
343.6	0.09061	0.00572

System: N,N-dihexylacetamide; phases: Liquid, Gas
Property: Vapor or sublimation pressure, kPa (Liquid); method: Transpiration method
Temperature, K	Vapor or sublimation pressure, kPa	uncertainty
319.4	0.0004	4e-05
322.4	0.00053	5e-05
325.5	0.00071	5e-05
328.4	0.00091	7e-05
329.2	0.00098	7e-05
331.5	0.00123	9e-05
332.4	0.0013	0.0001
332.5	0.00136	0.0001
335.5	0.0017	0.00012
338.5	0.00228	0.00015
342.2	0.00302	0.0002
346.4	0.0043	0.00028
349.5	0.0056	0.0004
350.4	0.00612	0.00043
353.3	0.00738	0.00051
353.4	0.00736	0.0005
356.3	0.00918	0.00061
359.2	0.01148	0.00076
360.3	0.01247	0.00084
362.3	0.01466	0.00096
364.2	0.01684	0.0011
