Measured thermophysical data. Binary and ternary vapor-liquid equilibrium data of the system ethylbenzene + styrene + 3-methyl-N-butylpyridinium tetracyanoborate at vacuum conditions and liquid-liquid equilibrium data of their binary systems
Source: Fluid Phase Equilib., 2012, 10.1016/j.fluid.2011.11.027
Compound 1: styrene, C8H8, InChI=1S/C8H8/c1-2-8-6-4-3-5-7-8/h2-7H,1H2, purity 99.5%
Compound 2: ethylbenzene, C8H10, InChI=1S/C8H10/c1-2-8-6-4-3-5-7-8/h3-7H,2H2,1H3, purity 99%
Compound 3: 1-butyl-3-methylpyridinium tetracyanoborate, C14H16BN5, InChI=1S/C10H16N.C4BN4/c1-3-4-7-11-8-5-6-10(2)9-11;6-1-5(2-7,3-8)4-9/h5-6,8-9H,3-4,7H2,1-2H3;/q+1;-1, purity 98%

System: ethylbenzene + 1-butyl-3-methylpyridinium tetracyanoborate; phases: Liquid mixture 1, Liquid mixture 2
Fixed: Pressure, kPa = 101.3
Property: Mole fraction of ethylbenzene (Liquid mixture 1); method: Chromatography
Temperature, K	Mole fraction of ethylbenzene	uncertainty
313.2	0.9999	0.0001
333.2	0.9999	0.0001
353.2	0.9999	0.0001

System: ethylbenzene + 1-butyl-3-methylpyridinium tetracyanoborate; phases: Liquid mixture 2, Liquid mixture 1
Fixed: Pressure, kPa = 101.3
Property: Mole fraction of ethylbenzene (Liquid mixture 2); method: Chromatography
Temperature, K	Mole fraction of ethylbenzene	uncertainty
313.2	0.68	0.005
333.2	0.666	0.005
353.2	0.653	0.005

System: ethylbenzene + 1-butyl-3-methylpyridinium tetracyanoborate; phases: Gas, Liquid
Property: Vapor or sublimation pressure, kPa (Gas); method: Ebulliometric method (Recirculating still)
Mole fraction of ethylbenzene	Temperature, K	Vapor or sublimation pressure, kPa	uncertainty
0.184	355.6	5.03	0.14
0.184	365.4	7.44	0.2
0.184	373.7	10	0.27
0.184	380	12.45	0.31
0.184	385.4	14.96	0.38
0.184	390.3	17.52	0.42
0.184	395.2	19.99	0.46
0.184	399.2	22.44	0.48
0.184	402.9	24.93	0.5
0.184	406.7	27.46	0.52
0.184	410	30.06	0.57
0.293	343.2	4.99	0.12
0.293	352.5	7.49	0.15
0.293	359.4	9.93	0.2
0.293	365.3	12.51	0.23
0.293	370.5	14.98	0.27
0.293	374.7	17.42	0.31
0.293	378.8	19.82	0.35
0.293	382.6	22.47	0.37
0.293	386.1	24.9	0.41
0.293	389.2	27.44	0.47
0.293	392.1	30.03	0.47
0.396	335.3	5.02	0.1
0.396	344.2	7.54	0.13
0.396	351	10.03	0.16
0.396	356.5	12.44	0.19
0.396	361.3	14.98	0.22
0.396	365.6	17.45	0.25
0.396	369.2	19.91	0.29
0.396	372.7	22.45	0.32
0.396	375.9	24.95	0.34
0.396	378.7	27.47	0.39
0.396	381.4	29.97	0.42
0.5	329.9	4.93	0.1
0.5	339.1	7.68	0.11
0.5	345.4	10.1	0.14
0.5	350.8	12.56	0.17
0.5	355.3	15	0.19
0.5	359.3	17.47	0.22
0.5	362.8	20.04	0.25
0.5	366	22.48	0.27
0.5	368.9	24.94	0.3
0.5	371.6	27.51	0.33
0.5	374.1	29.94	0.37
0.584	326.9	5.03	0.09
0.584	335	7.37	0.1
0.584	341.8	9.94	0.12
0.584	347.2	12.55	0.15
0.584	351.7	14.97	0.18
0.584	355.8	17.49	0.2
0.584	359.2	19.95	0.23
0.584	362.4	22.47	0.25
0.584	365.5	25.02	0.27
0.584	368.1	27.55	0.3
0.584	370.6	29.94	0.29
0.619	326.2	5.02	0.09
0.619	334.8	7.5	0.11
0.619	341.4	10.1	0.13
0.619	346.6	12.5	0.15
0.619	351.1	15	0.17
0.619	355.1	17.5	0.19
0.619	358.5	19.9	0.21
0.619	361.7	22.4	0.23
0.619	364.6	24.9	0.25
0.619	367.2	27.4	0.27
0.619	369.7	29.95	0.29

System: styrene + 1-butyl-3-methylpyridinium tetracyanoborate; phases: Liquid mixture 1, Liquid mixture 2
Fixed: Pressure, kPa = 101.3
Property: Mole fraction of styrene (Liquid mixture 1); method: Chromatography
Temperature, K	Mole fraction of styrene	uncertainty
313.2	0.9999	0.0001
333.2	0.9999	0.0001
353.2	0.9999	0.0001

System: styrene + 1-butyl-3-methylpyridinium tetracyanoborate; phases: Liquid mixture 2, Liquid mixture 1
Fixed: Pressure, kPa = 101.3
Property: Mole fraction of styrene (Liquid mixture 2); method: Chromatography
Temperature, K	Mole fraction of styrene	uncertainty
313.2	0.833	0.004
333.2	0.827	0.004
353.2	0.82	0.004

System: styrene + 1-butyl-3-methylpyridinium tetracyanoborate; phases: Gas, Liquid
Property: Vapor or sublimation pressure, kPa (Gas); method: Ebulliometric method (Recirculating still)
Mole fraction of styrene	Temperature, K	Vapor or sublimation pressure, kPa	uncertainty
0.263	360.3	2.93	0.1
0.263	367.2	4.02	0.13
0.263	372.5	5.06	0.15
0.263	382.8	7.52	0.2
0.263	390.5	10.08	0.24
0.263	396.7	12.52	0.25
0.263	402.5	14.98	0.26
0.263	408.1	17.45	0.28
0.263	413.1	19.99	0.3
0.473	351.9	5	0.11
0.473	361.2	7.5	0.13
0.473	368.2	10.03	0.16
0.473	373.9	12.43	0.19
0.473	379	15.1	0.24
0.473	383.1	17.49	0.25
0.473	386.9	20.08	0.3
0.574	345	5.02	0.1
0.574	353.9	7.5	0.12
0.574	360.7	9.96	0.15
0.574	366.3	12.49	0.19
0.574	371	15	0.21
0.574	375.2	17.49	0.24
0.574	378.9	20	0.27
0.694	338.4	5.01	0.1
0.694	347.1	7.48	0.11
0.694	353.7	9.96	0.14
0.694	359.1	12.44	0.17
0.694	363.8	15.01	0.19
0.694	367.8	17.5	0.22
0.694	371.4	19.94	0.24
0.816	333.1	5.06	0.1
0.816	342.1	7.59	0.11
0.816	348.5	10.03	0.14
0.816	353.9	12.52	0.16
0.816	358.7	15.07	0.18
0.816	362.6	17.45	0.2
0.816	366.3	20.01	0.22

System: ethylbenzene + styrene + 1-butyl-3-methylpyridinium tetracyanoborate; phases: Liquid, Gas
Property: Mole fraction of styrene (Liquid); method: Chromatography
Property: Mole fraction of styrene (Gas); method: Chromatography
Property: Mole fraction of ethylbenzene (Gas); method: Chromatography
Temperature, K	Pressure, kPa	Mole fraction of ethylbenzene	Mole fraction of styrene	uncertainty	Mole fraction of styrene	uncertainty	Mole fraction of ethylbenzene	uncertainty
338.4	5	0	0.662	0.005	1		0	
337.3	5	0.027	0.642	0.005	0.921	0.004	0.079	
334.1	5	0.119	0.557	0.005	0.693	0.005	0.307	
332	5	0.221	0.448	0.005	0.491	0.006	0.509	
330.3	5	0.316	0.352	0.005	0.346	0.005	0.654	
329	5	0.417	0.228	0.004	0.209	0.004	0.791	
326.9	5	0.512	0.143	0.004	0.119	0.004	0.881	
326	5	0.634	0.031	0.004	0.023	0.004	0.977	
325.5	5	0.678	0		0		1	
353.7	10	0	0.662	0.005	1		0	
352.9	10	0.026	0.634	0.005	0.925	0.004	0.075	
349.3	10	0.117	0.555	0.005	0.7	0.005	0.3	
347.2	10	0.221	0.454	0.005	0.498	0.006	0.502	
345.3	10	0.317	0.357	0.005	0.354	0.005	0.646	
343.7	10	0.421	0.236	0.004	0.218	0.004	0.782	
342.1	10	0.508	0.144	0.004	0.123	0.004	0.877	
340.9	10	0.644	0.032	0.004	0.024	0.004	0.976	
340.6	10	0.678	0		0		1	
363.8	15	0	0.662	0.005	1		0	
362.8	15	0.026	0.64	0.005	0.924	0.004	0.076	
359.5	15	0.117	0.557	0.005	0.705	0.005	0.295	
357.2	15	0.215	0.443	0.005	0.503	0.006	0.497	
355.3	15	0.31	0.346	0.005	0.361	0.005	0.639	
353.5	15	0.418	0.237	0.004	0.223	0.005	0.777	
352	15	0.511	0.144	0.004	0.122	0.004	0.878	
350.8	15	0.635	0.032	0.004	0.024	0.004	0.976	
350.4	15	0.678	0		0		1	
355.2	5	0	0.412	0.005	1		0	
354.2	5	0.016	0.4	0.005	0.92	0.004	0.08	
352.2	5	0.075	0.323	0.005	0.665	0.005	0.335	
351.2	5	0.115	0.25	0.004	0.499	0.006	0.501	
346.3	5	0.188	0.208	0.004	0.34	0.005	0.66	
344.4	5	0.238	0.149	0.004	0.223	0.005	0.777	
342	5	0.282	0.089	0.004	0.125	0.004	0.875	
339.3	5	0.354	0.019	0.004	0.024	0.004	0.976	
338.8	5	0.371	0		0		1	
371.3	10	0	0.412	0.005	1		0	
370.2	10	0.016	0.407	0.005	0.923	0.004	0.077	
367.7	10	0.08	0.319	0.005	0.656	0.005	0.344	
367	10	0.116	0.256	0.004	0.517	0.006	0.483	
361.8	10	0.187	0.202	0.004	0.338	0.005	0.662	
359.7	10	0.241	0.15	0.004	0.232	0.005	0.768	
359.4	10	0.278	0.086	0.004	0.129	0.004	0.871	
355	10	0.353	0.019	0.004	0.025	0.004	0.975	
354.5	10	0.371	0		0		1	
381.7	15	0	0.412	0.005	1		0	
380.9	15	0.016	0.407	0.005	0.926	0.004	0.074	
378	15	0.075	0.323	0.005	0.682	0.005	0.318	
377.3	15	0.115	0.255	0.004	0.525	0.006	0.475	
372	15	0.186	0.205	0.004	0.354	0.005	0.646	
370.2	15	0.229	0.153	0.004	0.249	0.005	0.751	
369.8	15	0.272	0.085	0.004	0.132	0.004	0.868	
365.1	15	0.355	0.022	0.004	0.029	0.004	0.971	
364.7	15	0.371	0		0		1	
