Measured thermophysical data. Vapour liquid liquid and vapour liquid equilibrium of the system water + ethanol + heptane at 101.3 kPa
Source: Fluid Phase Equilib., 2006, 10.1016/j.fluid.2006.08.012
Compound 1: water, H2O, InChI=1S/H2O/h1H2
Compound 2: ethanol, C2H6O, InChI=1S/C2H6O/c1-2-3/h3H,2H2,1H3, purity 99.8%
Compound 3: heptane, C7H16, InChI=1S/C7H16/c1-3-5-7-6-4-2/h3-7H2,1-2H3, purity 99.8%

System: ethanol + heptane + water; phases: Liquid mixture 1, Liquid mixture 2, Gas
Fixed: Pressure, kPa = 101.3
Property: Mole fraction of ethanol (Liquid mixture 1); method: GC and Karl Fischer for water in the organic phase
Property: Mole fraction of ethanol (Liquid mixture 2); method: GC and Karl Fischer for water in the organic phase
Property: Mole fraction of ethanol (Gas); method: GC and Karl Fischer for water in the organic phase
Property: Mole fraction of water (Liquid mixture 1); method: GC and Karl Fischer for water in the organic phase
Property: Mole fraction of water (Liquid mixture 2); method: GC and Karl Fischer for water in the organic phase
Property: Mole fraction of water (Gas); method: GC and Karl Fischer for water in the organic phase
Temperature, K	Mole fraction of ethanol	uncertainty	Mole fraction of ethanol	uncertainty	Mole fraction of ethanol	uncertainty	Mole fraction of water	uncertainty	Mole fraction of water	uncertainty	Mole fraction of water	uncertainty
352.39	0	0.001	0	0.001	0	0.001	0.001	0.001	0.9998	0.0002	0.439	0.004
345.47	0.019	0.004	0.086	0.004	0.257	0.004	0.002	0.002	0.914	0.004	0.313	0.004
343.98	0.026	0.004	0.154	0.004	0.314	0.004	0.002	0.002	0.845	0.004	0.284	0.004
343.34	0.038	0.004	0.213	0.004	0.335	0.004	0.003	0.003	0.786	0.004	0.271	0.004
342.97	0.048	0.004	0.28	0.005	0.357	0.004	0.003	0.003	0.718	0.005	0.261	0.004
342.77	0.06	0.004	0.325	0.005	0.368	0.004	0.006	0.006	0.672	0.005	0.253	0.004
342.6	0.075	0.004	0.383	0.007	0.381	0.004	0.007	0.007	0.612	0.007	0.246	0.004
342.5	0.084	0.004	0.448	0.007	0.394	0.004	0.008	0.008	0.543	0.007	0.238	0.004
342.34	0.1	0.004	0.497	0.006	0.406	0.004	0.013	0.01	0.487	0.007	0.23	0.004
342.25	0.123	0.007	0.547	0.008	0.415	0.004	0.018	0.01	0.429	0.009	0.222	0.004
342.22	0.164	0.017	0.569	0.01	0.423	0.005	0.025	0.01	0.402	0.012	0.215	0.005
341.87	0.209	0.026	0.629	0.007	0.434	0.006	0.032	0.011	0.32	0.026	0.201	0.005
341.89	0.248	0.026	0.646	0.007	0.442	0.006	0.036	0.011	0.282	0.026	0.195	0.005
341.91	0.294	0.026	0.646	0.007	0.449	0.006	0.049	0.011	0.235	0.026	0.19	0.005
