Measured thermophysical data. Solubility of citalopram hydrobromide in(ethanol + toluene) and (ethanol + ethyl acetate) at 283.15-318.15 K and its correlation with the Jouyban-Acree and CNIBS/R-K models
Source: Fluid Phase Equilib., 2019, 10.1016/j.fluid.2018.09.018
Compound 1: Citalopram hydrobromide, C20H22BrFN2O, InChI=1S/C20H21FN2O.BrH/c1-23(2)11-3-10-20(17-5-7-18(21)8-6-17)19-9-4-15(13-22)12-16(19)14-24-20;/h4-9,12H,3,10-11,14H2,1-2H3;1H, purity 99.4%
Compound 2: toluene, C7H8, InChI=1S/C7H8/c1-7-5-3-2-4-6-7/h2-6H,1H3, purity 99.5%
Compound 3: ethanol, C2H6O, InChI=1S/C2H6O/c1-2-3/h3H,2H2,1H3, purity 99.6%
Compound 4: ethyl acetate, C4H8O2, InChI=1S/C4H8O2/c1-3-6-4(2)5/h3H2,1-2H3, purity 99.5%

System: Citalopram hydrobromide + toluene + ethanol; phases: Liquid, Crystal
Fixed: Pressure, kPa = 101
Property: Mole fraction of Citalopram hydrobromide (Liquid); method: Chromatography
Solvent: Mass fraction of toluene	Temperature, K	Mole fraction of Citalopram hydrobromide	uncertainty
0	283.15	0.000836	6.5e-05
0	288.15	0.001221	9.5e-05
0	293.15	0.001669	0.00013
0	298.15	0.002138	0.000167
0	303.15	0.002792	0.000218
0	308.15	0.003508	0.000274
0	313.15	0.004321	0.000337
0	318.15	0.005332	0.000416
0.1	283.15	0.001421	0.000112
0.1	288.15	0.002079	0.000163
0.1	293.15	0.002791	0.000219
0.1	298.15	0.003872	0.000305
0.1	303.15	0.005018	0.000395
0.1	308.15	0.006303	0.000495
0.1	313.15	0.007721	0.000607
0.1	318.15	0.009258	0.000728
0.2	283.15	0.00221	0.000173
0.2	288.15	0.00307	0.000242
0.2	293.15	0.004249	0.000336
0.2	298.15	0.005831	0.00046
0.2	303.15	0.007539	0.000595
0.2	308.15	0.009441	0.000745
0.2	313.15	0.01168	0.00092
0.2	318.15	0.01392	0.00112
0.3	283.15	0.002731	0.000227
0.3	288.15	0.00383	0.000303
0.3	293.15	0.005331	0.000421
0.3	298.15	0.007159	0.000563
0.3	303.15	0.00931	0.000733
0.3	308.15	0.01182	0.00093
0.3	313.15	0.01449	0.00114
0.3	318.15	0.01771	0.00139
0.4	283.15	0.003364	0.000263
0.4	288.15	0.004704	0.000372
0.4	293.15	0.006401	0.000504
0.4	298.15	0.008221	0.000646
0.4	303.15	0.01069	0.00084
0.4	308.15	0.01339	0.00105
0.4	313.15	0.01701	0.00134
0.4	318.15	0.02091	0.00167
0.5	283.15	0.00387	0.000304
0.5	288.15	0.00529	0.000414
0.5	293.15	0.006929	0.000542
0.5	298.15	0.009009	0.000705
0.5	303.15	0.01172	0.00092
0.5	308.15	0.01448	0.00113
0.5	313.15	0.01881	0.00147
0.5	318.15	0.02311	0.00181
0.6	283.15	0.003935	0.000309
0.6	288.15	0.005351	0.00042
0.6	293.15	0.007012	0.00055
0.6	298.15	0.009259	0.000725
0.6	303.15	0.01202	0.00094
0.6	308.15	0.01469	0.00115
0.6	313.15	0.01911	0.0015
0.6	318.15	0.02358	0.00185
0.7	283.15	0.002991	0.00024
0.7	288.15	0.004119	0.000331
0.7	293.15	0.005621	0.000449
0.7	298.15	0.007559	0.000603
0.7	303.15	0.009551	0.000763
0.7	308.15	0.01211	0.00096
0.7	313.15	0.01512	0.00121
0.7	318.15	0.01843	0.00147
0.8	283.15	0.001889	0.000154
0.8	288.15	0.002701	0.000217
0.8	293.15	0.003791	0.000303
0.8	298.15	0.005088	0.000407
0.8	303.15	0.006649	0.000531
0.8	308.15	0.008571	0.000683
0.8	313.15	0.01069	0.00085
0.8	318.15	0.01341	0.00106
0.9	283.15	0.001088	8.6e-05
0.9	288.15	0.001581	0.000125
0.9	293.15	0.002279	0.00018
0.9	298.15	0.003139	0.000248
0.9	303.15	0.004011	0.000317
0.9	308.15	0.005282	0.000417
0.9	313.15	0.006739	0.000531
0.9	318.15	0.008748	0.000689
1	283.15	0.000484	3.8e-05
1	288.15	0.00073	5.7e-05
1	293.15	0.00107	8.4e-05
1	298.15	0.001461	0.000114
1	303.15	0.001948	0.000152
1	308.15	0.002611	0.000204
1	313.15	0.003491	0.000273
1	318.15	0.004512	0.000352

System: Citalopram hydrobromide + ethyl acetate + ethanol; phases: Liquid, Crystal
Fixed: Pressure, kPa = 101
Property: Mole fraction of Citalopram hydrobromide (Liquid); method: Chromatography
Solvent: Mass fraction of ethyl acetate	Temperature, K	Mole fraction of Citalopram hydrobromide	uncertainty
0	283.15	0.000836	6.5e-05
0	288.15	0.001221	9.5e-05
0	293.15	0.001669	0.00013
0	298.15	0.002138	0.000167
0	303.15	0.002792	0.000218
0	308.15	0.003508	0.000274
0	313.15	0.004321	0.000337
0	318.15	0.005332	0.000416
0.1	283.15	0.001639	0.000129
0.1	288.15	0.002368	0.000186
0.1	293.15	0.003081	0.000241
0.1	298.15	0.003972	0.000311
0.1	303.15	0.004988	0.000391
0.1	308.15	0.00611	0.000479
0.1	313.15	0.007487	0.000587
0.1	318.15	0.00911	0.000714
0.2	283.15	0.002061	0.000161
0.2	288.15	0.002929	0.000229
0.2	293.15	0.003828	0.0003
0.2	298.15	0.004942	0.000387
0.2	303.15	0.006179	0.000483
0.2	308.15	0.007632	0.000597
0.2	313.15	0.009369	0.000733
0.2	318.15	0.01161	0.00091
0.3	283.15	0.00236	0.000187
0.3	288.15	0.003279	0.000257
0.3	293.15	0.004221	0.00033
0.3	298.15	0.005382	0.000421
0.3	303.15	0.006708	0.000525
0.3	308.15	0.008311	0.00065
0.3	313.15	0.01019	0.0008
0.3	318.15	0.01262	0.00099
0.4	283.15	0.002703	0.000214
0.4	288.15	0.003682	0.000289
0.4	293.15	0.004629	0.000363
0.4	298.15	0.005904	0.000462
0.4	303.15	0.007371	0.000577
0.4	308.15	0.009122	0.000713
0.4	313.15	0.01109	0.00087
0.4	318.15	0.01339	0.00105
0.5	283.15	0.002889	0.000226
0.5	288.15	0.003918	0.000307
0.5	293.15	0.005042	0.000395
0.5	298.15	0.006329	0.000496
0.5	303.15	0.007828	0.000613
0.5	308.15	0.009411	0.000736
0.5	313.15	0.01152	0.0009
0.5	318.15	0.01379	0.00108
0.6	283.15	0.003019	0.000236
0.6	288.15	0.004112	0.000322
0.6	293.15	0.005279	0.000413
0.6	298.15	0.006741	0.000527
0.6	303.15	0.008303	0.000649
0.6	308.15	0.009909	0.000774
0.6	313.15	0.01191	0.00093
0.6	318.15	0.01389	0.00108
0.7	283.15	0.002503	0.000198
0.7	288.15	0.003449	0.000273
0.7	293.15	0.004431	0.00035
0.7	298.15	0.005679	0.000449
0.7	303.15	0.007101	0.000562
0.7	308.15	0.008622	0.000681
0.7	313.15	0.01048	0.00083
0.7	318.15	0.01271	0.001
0.8	283.15	0.001929	0.000153
0.8	288.15	0.002648	0.000211
0.8	293.15	0.003482	0.000276
0.8	298.15	0.004411	0.00035
0.8	303.15	0.005289	0.000421
0.8	308.15	0.006437	0.000512
0.8	313.15	0.007788	0.000619
0.8	318.15	0.009339	0.000742
0.9	283.15	0.001008	8e-05
0.9	288.15	0.001432	0.000114
0.9	293.15	0.001917	0.000153
0.9	298.15	0.002448	0.000195
0.9	303.15	0.003021	0.00024
0.9	308.15	0.003719	0.000296
0.9	313.15	0.004491	0.000357
0.9	318.15	0.005369	0.000427
1	283.15	0.000256	2e-05
1	288.15	0.000344	2.7e-05
1	293.15	0.000461	3.6e-05
1	298.15	0.000578	4.5e-05
1	303.15	0.000722	5.6e-05
1	308.15	0.000881	6.9e-05
1	313.15	0.001049	8.2e-05
1	318.15	0.001221	9.5e-05

System: Citalopram hydrobromide + ethanol; phases: Liquid, Crystal
Fixed: Pressure, kPa = 101
Property: Mole fraction of Citalopram hydrobromide (Liquid); method: Chromatography
Temperature, K	Mole fraction of Citalopram hydrobromide	uncertainty
283.15	0.000836	6.5e-05
288.15	0.001221	9.5e-05
293.15	0.001669	0.00013
298.15	0.002138	0.000167
303.15	0.002792	0.000218
308.15	0.003508	0.000274
313.15	0.004321	0.000337
318.15	0.005332	0.000416

System: Citalopram hydrobromide + toluene; phases: Liquid, Crystal
Fixed: Pressure, kPa = 101
Property: Mole fraction of Citalopram hydrobromide (Liquid); method: Chromatography
Temperature, K	Mole fraction of Citalopram hydrobromide	uncertainty
283.15	0.000484	3.8e-05
288.15	0.00073	5.7e-05
293.15	0.00107	8.4e-05
298.15	0.001461	0.000114
303.15	0.001948	0.000152
308.15	0.002611	0.000204
313.15	0.003491	0.000273
318.15	0.004512	0.000352

System: Citalopram hydrobromide + ethyl acetate; phases: Liquid, Crystal
Fixed: Pressure, kPa = 101
Property: Mole fraction of Citalopram hydrobromide (Liquid); method: Chromatography
Temperature, K	Mole fraction of Citalopram hydrobromide	uncertainty
283.15	0.000256	2e-05
288.15	0.000344	2.7e-05
293.15	0.000461	3.6e-05
298.15	0.000578	4.5e-05
303.15	0.000722	5.6e-05
308.15	0.000881	6.9e-05
313.15	0.001049	8.2e-05
318.15	0.001221	9.5e-05
