Measured thermophysical data. Thermodynamic analysis for determination of solid - liquid equilibrium of dibenzothiophene in a binary solvent of formic acid and butan-1-ol between (278.15 and 333.15) K
Source: Fluid Phase Equilib., 2016, 10.1016/j.fluid.2015.08.023
Compound 1: dibenzothiophene, C12H8S, InChI=1S/C12H8S/c1-3-7-11-9(5-1)10-6-2-4-8-12(10)13-11/h1-8H, purity 98%
Compound 2: formic acid, CH2O2, InChI=1S/CH2O2/c2-1-3/h1H,(H,2,3), purity 99.7%
Compound 3: butan-1-ol, C4H10O, InChI=1S/C4H10O/c1-2-3-4-5/h5H,2-4H2,1H3, purity 98%

System: formic acid + butan-1-ol + dibenzothiophene; phases: Liquid, Crystal
Fixed: Pressure, kPa = 101.3
Property: Mole fraction of dibenzothiophene (Liquid); method: Gravimetric
Temperature, K	Solvent: Mole fraction of formic acid	Mole fraction of dibenzothiophene	uncertainty
278.15	0	0.004765	0.000111
278.15	0.201	0.004052	9.5e-05
278.15	0.379	0.003309	8.2e-05
278.15	0.538	0.002619	7.9e-05
278.15	0.681	0.001851	8.4e-05
278.15	0.81	0.001169	8.7e-05
278.15	0.928	0.000577	8.7e-05
278.15	1	0.000301	7e-06
283.15	0	0.006165	0.000139
283.15	0.201	0.005155	0.000118
283.15	0.379	0.00419	0.000103
283.15	0.538	0.003293	9.8e-05
283.15	0.681	0.002348	0.000107
283.15	0.81	0.001433	0.000109
283.15	0.928	0.000759	0.000104
283.15	1	0.000387	9e-06
288.15	0	0.007907	0.000177
288.15	0.201	0.00664	0.000151
288.15	0.379	0.005376	0.000132
288.15	0.538	0.004221	0.000127
288.15	0.681	0.002975	0.000136
288.15	0.81	0.001851	0.000139
288.15	0.928	0.000955	0.000136
288.15	1	0.000487	1.1e-05
293.15	0	0.01007	0.000226
293.15	0.201	0.008444	0.000192
293.15	0.379	0.006847	0.000168
293.15	0.538	0.005382	0.000162
293.15	0.681	0.003788	0.000174
293.15	0.81	0.002329	0.000177
293.15	0.928	0.001207	0.000171
293.15	1	0.000606	1.3e-05
298.15	0	0.012886	0.000285
298.15	0.201	0.010736	0.000243
298.15	0.379	0.008686	0.000211
298.15	0.538	0.006887	0.000206
298.15	0.681	0.004775	0.000225
298.15	0.81	0.002925	0.000225
298.15	0.928	0.001499	0.000216
298.15	1	0.00076	1.7e-05
303.15	0	0.016033	0.000351
303.15	0.201	0.013527	0.000301
303.15	0.379	0.010951	0.000265
303.15	0.538	0.008559	0.000257
303.15	0.681	0.005989	0.000277
303.15	0.81	0.003702	0.000283
303.15	0.928	0.001858	0.000275
303.15	1	0.000941	2.1e-05
308.15	0	0.019789	0.000433
308.15	0.201	0.016649	0.000369
308.15	0.379	0.013461	0.000324
308.15	0.538	0.010591	0.000313
308.15	0.681	0.007541	0.000341
308.15	0.81	0.004634	0.000358
308.15	0.928	0.00232	0.000347
308.15	1	0.001159	2.5e-05
313.15	0	0.024607	0.000538
313.15	0.201	0.02054	0.000455
313.15	0.379	0.016704	0.0004
313.15	0.538	0.013149	0.000387
313.15	0.681	0.009375	0.000418
313.15	0.81	0.005868	0.000445
313.15	0.928	0.002881	0.000443
313.15	1	0.001426	3.1e-05
318.15	0	0.030381	0.000662
318.15	0.201	0.025254	0.000558
318.15	0.379	0.020405	0.000488
318.15	0.538	0.01607	0.000469
318.15	0.681	0.011572	0.000512
318.15	0.81	0.007153	0.000546
318.15	0.928	0.003605	0.000539
318.15	1	0.001741	3.8e-05
323.15	0	0.037373	0.000808
323.15	0.201	0.030792	0.000679
323.15	0.379	0.024921	0.000592
323.15	0.538	0.019633	0.000569
323.15	0.681	0.014182	0.000622
323.15	0.81	0.008807	0.000669
323.15	0.928	0.004422	0.000665
323.15	1	0.002124	4.6e-05
328.15	0	0.045265	0.000971
328.15	0.201	0.037494	0.000821
328.15	0.379	0.029952	0.000714
328.15	0.538	0.023586	0.000679
328.15	0.681	0.017184	0.00074
328.15	0.81	0.010732	0.000808
328.15	0.928	0.005391	0.00081
328.15	1	0.002581	5.6e-05
333.15	0	0.054205	0.001147
333.15	0.201	0.04492	0.000967
333.15	0.379	0.035993	0.000851
333.15	0.538	0.028317	0.00081
333.15	0.681	0.020591	0.000885
333.15	0.81	0.012895	0.00096
333.15	0.928	0.006579	0.000969
333.15	1	0.003125	6.7e-05
