Measured thermophysical data. Extraction of benzothiazole and thiophene from their mixtures with n-heptane using tetrahexylammonium bromide-based deep eutectic solvents as extractive denitrogenation and desulfurization agents
Source: Fluid Phase Equilib., 2018, 10.1016/j.fluid.2018.07.023
Compound 1: heptane, C7H16, InChI=1S/C7H16/c1-3-5-7-6-4-2/h3-7H2,1-2H3, purity 99%
Compound 2: benzothiazole, C7H5NS, InChI=1S/C7H5NS/c1-2-4-7-6(3-1)8-5-9-7/h1-5H, purity 96%
Compound 3: thiophene, C4H4S, InChI=1S/C4H4S/c1-2-4-5-3-1/h1-4H, purity 99%
Compound 4: 1,2-ethanediol, C2H6O2, InChI=1S/C2H6O2/c3-1-2-4/h3-4H,1-2H2, purity 99%
Compound 5: glycerol, C3H8O3, InChI=1S/C3H8O3/c4-1-3(6)2-5/h3-6H,1-2H2, purity 99%

System: benzothiazole + 1,2-ethanediol; phases: Liquid mixture 1, Liquid mixture 2
Property: Mass fraction of benzothiazole (Liquid mixture 1); method: Chromatography
Temperature, K	Pressure, kPa	Mass fraction of benzothiazole	uncertainty
298	101	0.11	0.01

System: benzothiazole + glycerol; phases: Liquid mixture 1, Liquid mixture 2
Property: Mass fraction of benzothiazole (Liquid mixture 1); method: Chromatography
Temperature, K	Pressure, kPa	Mass fraction of benzothiazole	uncertainty
298	101	0.054	0.01

System: benzothiazole + heptane; phases: Liquid mixture 1, Liquid mixture 2
Property: Mass fraction of benzothiazole (Liquid mixture 1); method: Chromatography
Temperature, K	Pressure, kPa	Mass fraction of benzothiazole	uncertainty
298	101	0.57	0.01

System: thiophene + heptane; phases: Liquid mixture 1, Liquid mixture 2
Property: Mass fraction of thiophene (Liquid mixture 1); method: Chromatography
Temperature, K	Pressure, kPa	Mass fraction of thiophene	uncertainty
298	101	0.56	0.01

System: thiophene + 1,2-ethanediol; phases: Liquid mixture 1, Liquid mixture 2
Property: Mass fraction of thiophene (Liquid mixture 1); method: Chromatography
Temperature, K	Pressure, kPa	Mass fraction of thiophene	uncertainty
298	101	0.052	0.01

System: thiophene + glycerol; phases: Liquid mixture 1, Liquid mixture 2
Property: Mass fraction of thiophene (Liquid mixture 1); method: Chromatography
Temperature, K	Pressure, kPa	Mass fraction of thiophene	uncertainty
298	101	0.039	0.01
