Measured thermophysical data. Vapor liquid equilibria of the 1,1,1-trifluoroethane (HFC-143a) + dimethyl ether (DME) system
Source: Fluid Phase Equilib., 2007, 10.1016/j.fluid.2006.10.017
Compound 1: dimethyl ether, C2H6O, InChI=1S/C2H6O/c1-3-2/h1-2H3
Compound 2: 1,1,1-trifluoroethane, C2H3F3, InChI=1S/C2H3F3/c1-2(3,4)5/h1H3, purity 99.9%

System: dimethyl ether; phases: Liquid, Gas
Property: Vapor or sublimation pressure, kPa (Liquid); method: EBULLIO:UFactor:2
Temperature, K	Vapor or sublimation pressure, kPa	uncertainty
313.15	884	7
323.15	1141	9
333.15	1451	12
343.15	1817	15
353.15	2245	18
363.15	2735	22

System: 1,1,1-trifluoroethane; phases: Liquid, Gas
Property: Vapor or sublimation pressure, kPa (Liquid); method: EBULLIO:UFactor:2
Temperature, K	Vapor or sublimation pressure, kPa	uncertainty
313.15	1831	15
323.15	2302	19
333.15	2874	23
343.15	3553	28

System: dimethyl ether + 1,1,1-trifluoroethane; phases: Liquid, Gas
Property: Vapor or sublimation pressure, kPa (Liquid); method: EBULLIO:UFactor:2
Mole fraction of 1,1,1-trifluoroethane	Temperature, K	Vapor or sublimation pressure, kPa	uncertainty
0	313.15	884	7
0	323.15	1141	9
0	333.15	1451	12
0	343.15	1817	15
0	353.15	2245	18
0	363.15	2735	22
0.0147	313.15	901	8
0.0311	333.15	1497	12
0.0391	313.15	927	8
0.0453	323.15	1198	10
0.0524	343.15	1903	16
0.053	363.15	2871	23
0.0555	353.15	2361	19
0.0659	333.15	1548	13
0.0983	313.15	984	8
0.1028	323.15	1267	10
0.1104	353.15	2473	20
0.1203	343.15	2025	16
0.121	333.15	1630	10
0.1456	363.15	3102	25
0.1481	313.15	1032	9
0.1826	343.15	2133	17
0.1841	353.15	2630	20
0.1917	333.15	1732	14
0.2088	313.15	1090	10
0.247	363.15	3339	27
0.251	343.15	2250	20
0.2531	323.15	1446	12
0.2805	353.15	2826	23
0.2922	313.15	1171	10
0.3174	333.15	1908	16
0.3336	343.15	2388	19
0.3348	323.15	1537	13
0.3813	313.15	1253	10
0.407	353.15	3071	25
0.4362	333.15	2073	17
0.4424	343.15	2569	21
0.4486	363.15	3830	30
0.4907	313.15	1357	11
0.4972	323.15	1729	14
0.5387	353.15	3340	30
0.5532	343.15	2759	22
0.5678	333.15	2258	18
0.5828	363.15	4183	33
0.5994	313.15	1457	12
0.6052	363.15	4216	34
0.6163	323.15	1856	15
0.6238	363.15	4233	34
0.6295	353.15	3530	30
0.6981	343.15	3012	24
0.7123	313.15	1559	13
0.726	333.15	2476	20
0.7334	353.15	3753	30
0.7491	323.15	2011	16
0.8028	353.15	3901	31
0.832	313.15	1672	14
0.8392	343.15	3254	26
0.8552	333.15	2661	22
0.9394	313.15	1774	15
0.9496	323.15	2244	18
1	313.15	1831	15
1	323.15	2302	19
1	333.15	2874	23
1	343.15	3553	28

System: dimethyl ether + 1,1,1-trifluoroethane; phases: Gas, Liquid
Property: Mole fraction of 1,1,1-trifluoroethane (Gas); method: Chromatography
Mole fraction of 1,1,1-trifluoroethane	Temperature, K	Mole fraction of 1,1,1-trifluoroethane	uncertainty
0	313.15	0	0.0001
0	323.15	0	0.0001
0	333.15	0	0.0001
0	343.15	0	0.0001
0	353.15	0	0.0001
0	363.15	0	0.0001
0.0147	313.15	0.0226	0.0019
0.0311	333.15	0.0525	0.002
0.0391	313.15	0.0618	0.0019
0.0453	323.15	0.0781	0.002
0.0524	343.15	0.0834	0.002
0.053	363.15	0.0781	0.0018
0.0555	353.15	0.086	0.0019
0.0659	333.15	0.1081	0.002
0.0983	313.15	0.1529	0.0022
0.1028	323.15	0.1678	0.0022
0.1104	353.15	0.1614	0.0022
0.1203	343.15	0.1826	0.0023
0.121	333.15	0.1881	0.0023
0.1456	363.15	0.1986	0.0023
0.1481	313.15	0.2236	0.0025
0.1826	343.15	0.2623	0.0027
0.1841	353.15	0.2559	0.0027
0.1917	333.15	0.2826	0.0029
0.2088	313.15	0.301	0.0031
0.247	363.15	0.3108	0.0031
0.251	343.15	0.3415	0.0034
0.2531	323.15	0.3641	0.0036
0.2805	353.15	0.3622	0.0035
0.2922	313.15	0.4012	0.0039
0.3174	333.15	0.4243	0.0041
0.3336	343.15	0.4297	0.0041
0.3348	323.15	0.4543	0.0044
0.3813	313.15	0.5035	0.0047
0.407	353.15	0.4848	0.0046
0.4362	333.15	0.5409	0.0044
0.4424	343.15	0.5333	0.0045
0.4486	363.15	0.5059	0.0047
0.4907	313.15	0.6043	0.0038
0.4972	323.15	0.6121	0.0037
0.5387	353.15	0.6028	0.0038
0.5532	343.15	0.6327	0.0035
0.5678	333.15	0.6586	0.0033
0.5828	363.15	0.6199	0.0036
0.5994	313.15	0.6982	0.0029
0.6052	363.15	0.6262	0.0035
0.6163	323.15	0.7088	0.0028
0.6238	363.15	0.6277	0.0035
0.6295	353.15	0.6779	0.0032
0.6981	343.15	0.7539	0.0025
0.7123	313.15	0.7898	0.0022
0.726	333.15	0.7845	0.0022
0.7334	353.15	0.7625	0.0024
0.7491	323.15	0.8136	0.002
0.8028	353.15	0.8161	0.002
0.832	313.15	0.8781	0.0016
0.8392	343.15	0.8645	0.0017
0.8552	333.15	0.8855	0.0016
0.9394	313.15	0.9581	0.0013
0.9496	323.15	0.9618	0.0013
1	313.15	1	0.0001
1	323.15	1	0.0001
1	333.15	1	0.0001
1	343.15	1	0.0001
