Measured thermophysical data. Salting-out effect of sodium, potassium, carbonate, sulfite, tartrate and thiosulfate ions on aqueous mixtures of acetonitrile or 1-methyl-2-pyrrolidone: A liquid-liquid equilibrium study
Source: Fluid Phase Equilib., 2013, 10.1016/j.fluid.2013.09.028
Compound 1: N-methylpyrrolidone, C5H9NO, InChI=1S/C5H9NO/c1-6-4-2-3-5(6)7/h2-4H2,1H3, purity 99.5%
Compound 2: acetonitrile, C2H3N, InChI=1S/C2H3N/c1-2-3/h1H3, purity 99%
Compound 3: potassium carbonate, CK2O3, InChI=1S/CH2O3.2K/c2-1(3)4;;/h(H2,2,3,4);;/q;2*+1/p-2, purity 99%
Compound 4: sodium carbonate, CNa2O3, InChI=1S/CH2O3.2Na/c2-1(3)4;;/h(H2,2,3,4);;/q;2*+1/p-2, purity 99.5%
Compound 5: water, H2O, InChI=1S/H2O/h1H2, purity 99.9%
Compound 6: sodium sulfite, Na2O3S, InChI=1S/2Na.H2O3S/c;;1-4(2)3/h;;(H2,1,2,3)/q2*+1;/p-2, purity 98%
Compound 7: sodium thiosulfate, Na2O3S2, InChI=1S/2Na.H2O3S2/c;;1-5(2,3)4/h;;(H2,1,2,3,4)/q2*+1;/p-2, purity 98%
Compound 8: disodium L-tartrate, C4H4Na2O6, InChI=1S/C4H6O6.2Na/c5-1(3(7)8)2(6)4(9)10;;/h1-2,5-6H,(H,7,8)(H,9,10);;/q;2*+1/p-2/t1-,2-;;/m1../s1, purity 98%

System: potassium carbonate + N-methylpyrrolidone + water; phases: Liquid
Fixed: Temperature, K = 298.15
Fixed: Pressure, kPa = 101
Property: Refractive index (Na D-line) (Liquid); method: Standard Abbe refractometry
Mass fraction of N-methylpyrrolidone	Mass fraction of potassium carbonate	Refractive index (Na D-line)	uncertainty
0	0.0475	1.3401	0.0005
0.0137	0.0441	1.3415	0.0005
0.0236	0.0407	1.3424	0.0005
0.0193	0.0381	1.3414	0.0005
0.0256	0.036	1.342	0.001
0.0418	0.0309	1.3435	0.0005
0.0379	0.0278	1.3424	0.0005
0.0432	0.0254	1.3428	0.0005
0.0554	0.0214	1.3439	0.0005
0.0555	0.0186	1.3434	0.0005
0.0609	0.0156	1.3438	0.0005
0.0681	0.0122	1.3442	0.0005
0.0734	0.0091	1.3445	0.0005
0.0795	0.0063	1.3449	0.0005
0.0852	0.0054	1.3456	0.0005
0.0902	0.0021	1.3458	0.0005
0.0958	0	1.3462	0.0005

System: potassium carbonate + N-methylpyrrolidone + water; phases: Liquid mixture 2, Liquid mixture 1
Fixed: Temperature, K = 298.15
Fixed: Pressure, kPa = 101
Property: Mass fraction of N-methylpyrrolidone (Liquid mixture 2); method: OTHER
Property: Mass fraction of potassium carbonate (Liquid mixture 1); method: OTHER
Property: Mass fraction of N-methylpyrrolidone (Liquid mixture 1); method: OTHER
Mass fraction of potassium carbonate	Mass fraction of N-methylpyrrolidone	uncertainty	Mass fraction of potassium carbonate	uncertainty	Mass fraction of N-methylpyrrolidone	uncertainty
0.2404	0.0566	0.0007	0.0456	0.0006	0.3477	
0.2705	0.0364	0.0007	0.0298	0.0006	0.3939	
0.2953	0.0278	0.0006	0.0211	0.0006	0.4297	
0.3186	0.0195	0.0006	0.0159	0.0006	0.4643	
0.3369	0.0183	0.0006	0.0115	0.0006	0.4944	
0.3542	0.0154	0.0006	0.0085	0.0006	0.5219	

System: potassium carbonate + N-methylpyrrolidone + water; phases: Liquid mixture 1, Liquid mixture 2
Fixed: Pressure, kPa = 101
Fixed: Temperature, K = 298.15
Property: Mass fraction of potassium carbonate (Liquid mixture 1); method: Titration method
Mass fraction of N-methylpyrrolidone	Mass fraction of potassium carbonate	uncertainty
0.0553	0.2389	0.0074
0.0763	0.2153	0.0067
0.0937	0.2	0.0062
0.1255	0.1737	0.0054
0.1496	0.1565	0.0049
0.188	0.1313	0.0041
0.1999	0.1242	0.0039
0.2076	0.1188	0.0037
0.2207	0.1105	0.0034
0.2359	0.1005	0.0031
0.249	0.0933	0.0029
0.2609	0.0865	0.0027
0.2703	0.0808	0.0025
0.2794	0.0758	0.0024
0.291	0.0694	0.0022
0.3025	0.0639	0.002
0.3174	0.0562	0.0018
0.3263	0.0512	0.0016

System: sodium carbonate + N-methylpyrrolidone + water; phases: Liquid
Fixed: Temperature, K = 298.15
Fixed: Pressure, kPa = 101
Property: Refractive index (Na D-line) (Liquid); method: Standard Abbe refractometry
Mass fraction of N-methylpyrrolidone	Mass fraction of sodium carbonate	Refractive index (Na D-line)	uncertainty
0	0.0473	1.3426	0.0005
0.0086	0.0447	1.3433	0.0005
0.0135	0.0419	1.3435	0.0005
0.0201	0.0379	1.3435	0.0005
0.0259	0.0348	1.3437	0.0005
0.0323	0.0314	1.3439	0.0005
0.0373	0.0283	1.3439	0.0005
0.0438	0.0249	1.3441	0.0005
0.0495	0.0223	1.3444	0.0005
0.0568	0.0188	1.3447	0.0005
0.0629	0.0155	1.3448	0.0005
0.0672	0.0126	1.3448	0.0005
0.0763	0.0094	1.3454	0.0005
0.0791	0.0063	1.3452	0.0005
0.0858	0.003	1.3454	0.0005
0.0915	0.0016	1.3459	0.0005
0.0961	0	1.3462	0.0005

System: sodium carbonate + N-methylpyrrolidone + water; phases: Liquid mixture 1, Liquid mixture 2
Fixed: Temperature, K = 298.15
Fixed: Pressure, kPa = 101
Property: Mass fraction of sodium carbonate (Liquid mixture 1); method: Titration method
Mass fraction of N-methylpyrrolidone	Mass fraction of sodium carbonate	uncertainty
0.0685	0.1652	0.0051
0.0747	0.1595	0.005
0.0836	0.1512	0.0047
0.0918	0.1444	0.0045
0.1043	0.1338	0.0042
0.1214	0.1221	0.0038
0.1378	0.1113	0.0035
0.149	0.1037	0.0032
0.1587	0.0984	0.0031
0.172	0.0911	0.0028
0.1783	0.0873	0.0027
0.1891	0.0815	0.0025
0.194	0.0787	0.0025
0.2022	0.0748	0.0023
0.2165	0.0674	0.0021
0.2276	0.0621	0.0019
0.2391	0.0567	0.0018
0.2462	0.0535	0.0017
0.251	0.0509	0.0016
0.2605	0.0474	0.0015
0.269	0.0432	0.0014
0.2775	0.0399	0.0013
0.2858	0.0363	0.0012
0.2933	0.0328	0.0011

System: sodium carbonate + N-methylpyrrolidone + water; phases: Liquid mixture 2, Liquid mixture 1
Fixed: Temperature, K = 298.15
Fixed: Pressure, kPa = 101
Property: Mass fraction of N-methylpyrrolidone (Liquid mixture 2); method: OTHER
Property: Mass fraction of sodium carbonate (Liquid mixture 1); method: OTHER
Property: Mass fraction of N-methylpyrrolidone (Liquid mixture 1); method: OTHER
Mass fraction of sodium carbonate	Mass fraction of N-methylpyrrolidone	uncertainty	Mass fraction of sodium carbonate	uncertainty	Mass fraction of N-methylpyrrolidone	uncertainty
0.1862	0.0512	0.0008	0.045	0.0006	0.2578	
0.2032	0.0366	0.0008	0.0362	0.0006	0.2893	
0.212	0.032	0.001	0.0289	0.0006	0.3115	
0.2244	0.0255	0.0007	0.0242	0.0006	0.3368	
0.2455	0.0127	0.0007	0.0169	0.0006	0.3777	
0.2647	0.0062	0.0006	0.0122	0.0006	0.4149	

System: acetonitrile + potassium carbonate + water; phases: Liquid
Fixed: Temperature, K = 298.15
Fixed: Pressure, kPa = 101
Property: Refractive index (Na D-line) (Liquid); method: Standard Abbe refractometry
Mass fraction of potassium carbonate	Mass fraction of acetonitrile	Refractive index (Na D-line)	uncertainty
0	0.0477	1.3404	0.0005
0.0064	0.0445	1.3401	0.0005
0.0131	0.0409	1.34	0.0005
0.0187	0.0379	1.3398	0.0005
0.0253	0.034	1.3395	0.0005
0.0322	0.031	1.3394	0.0005
0.0382	0.0276	1.3392	0.0005
0.0435	0.0247	1.339	0.0005
0.0496	0.0219	1.3388	0.0005
0.0574	0.0184	1.3387	0.0005
0.0614	0.0156	1.3384	0.0005
0.0678	0.0125	1.3383	0.0005
0.0738	0.0091	1.3381	0.0005
0.0874	0.0066	1.3384	0.0005
0.0855	0.0033	1.3377	0.0005
0.0917	0.0021	1.3379	0.0005
0.0968	0	1.3378	0.0005

System: acetonitrile + potassium carbonate + water; phases: Liquid mixture 1, Liquid mixture 2
Fixed: Temperature, K = 298.15
Fixed: Pressure, kPa = 101
Property: Mass fraction of potassium carbonate (Liquid mixture 1); method: Titration method
Mass fraction of acetonitrile	Mass fraction of potassium carbonate	uncertainty
0.0996	0.1463	0.0046
0.1061	0.1387	0.0043
0.1179	0.1261	0.004
0.1263	0.1174	0.0037
0.137	0.1093	0.0034
0.1532	0.097	0.003
0.1689	0.0858	0.0027
0.1852	0.0767	0.0024
0.1979	0.0693	0.0022
0.2073	0.0646	0.002
0.2176	0.0608	0.0019
0.2249	0.0581	0.0018
0.239	0.0527	0.0016
0.2478	0.0501	0.0016
0.2583	0.0464	0.0015
0.2741	0.0417	0.0013
0.2838	0.0388	0.0013
0.3013	0.0349	0.0012
0.3244	0.0315	0.0011
0.3334	0.0297	0.001

System: acetonitrile + potassium carbonate + water; phases: Liquid mixture 2, Liquid mixture 1
Fixed: Temperature, K = 298.15
Fixed: Pressure, kPa = 101
Property: Mass fraction of potassium carbonate (Liquid mixture 2); method: OTHER
Property: Mass fraction of potassium carbonate (Liquid mixture 1); method: OTHER
Property: Mass fraction of acetonitrile (Liquid mixture 1); method: OTHER
Mass fraction of acetonitrile	Mass fraction of potassium carbonate	uncertainty	Mass fraction of potassium carbonate	uncertainty	Mass fraction of acetonitrile	uncertainty
0.2648	0.0419	0.0006	0.0054	0.0006	0.5765	
0.2199	0.057	0.0006	0.0037	0.0006	0.6182	
0.1814	0.0734	0.0007	0.002	0.0006	0.663	
0.1496	0.0979	0.0008	0.0012	0.0006	0.7124	
0.1334	0.1173	0.0009	0.0009	0.0006	0.7407	

System: acetonitrile + sodium carbonate + water; phases: Liquid
Fixed: Temperature, K = 298.15
Fixed: Pressure, kPa = 101
Property: Refractive index (Na D-line) (Liquid); method: Standard Abbe refractometry
Mass fraction of sodium carbonate	Mass fraction of acetonitrile	Refractive index (Na D-line)	uncertainty
0	0.0473	1.3425	0.0005
0.0071	0.0446	1.3423	0.0005
0.0135	0.0413	1.3419	0.0005
0.0197	0.0374	1.3415	0.0005
0.0249	0.0359	1.3415	0.0005
0.0309	0.0311	1.3407	0.0005
0.0442	0.029	1.341	0.0005
0.043	0.0243	1.34	0.0005
0.0496	0.0221	1.3399	0.0005
0.0568	0.0185	1.3395	0.0005
0.0617	0.0157	1.3392	0.0005
0.0682	0.0128	1.3389	0.0005
0.0736	0.0093	1.3384	0.0005
0.0809	0.0081	1.3386	0.0005
0.086	0.0063	1.3385	0.0005
0.092	0.0028	1.3381	0.0005
0.097	0	1.3378	0.0005

System: acetonitrile + sodium carbonate + water; phases: Liquid mixture 1, Liquid mixture 2
Fixed: Temperature, K = 298.15
Fixed: Pressure, kPa = 101
Property: Mass fraction of sodium carbonate (Liquid mixture 1); method: Titration method
Mass fraction of acetonitrile	Mass fraction of sodium carbonate	uncertainty
0.0435	0.1752	0.0055
0.0578	0.1561	0.0049
0.0675	0.1445	0.0045
0.0762	0.1336	0.0042
0.0849	0.1251	0.0039
0.0932	0.1176	0.0037
0.101	0.1102	0.0035
0.1162	0.0974	0.0031
0.1222	0.0925	0.0029
0.1311	0.0863	0.0027
0.138	0.0816	0.0026
0.1452	0.0773	0.0024
0.1554	0.0715	0.0022
0.1666	0.066	0.0021
0.1761	0.0618	0.0019
0.1826	0.058	0.0018
0.1918	0.0549	0.0017
0.1996	0.0516	0.0016
0.2066	0.0487	0.0015
0.2164	0.0449	0.0014
0.2243	0.0428	0.0014
0.2351	0.04	0.0013

System: acetonitrile + sodium carbonate + water; phases: Liquid mixture 2, Liquid mixture 1
Fixed: Temperature, K = 298.15
Fixed: Pressure, kPa = 101
Property: Mass fraction of sodium carbonate (Liquid mixture 2); method: OTHER
Property: Mass fraction of sodium carbonate (Liquid mixture 1); method: OTHER
Property: Mass fraction of acetonitrile (Liquid mixture 1); method: OTHER
Mass fraction of acetonitrile	Mass fraction of sodium carbonate	uncertainty	Mass fraction of sodium carbonate	uncertainty	Mass fraction of acetonitrile	uncertainty
0.0872	0.1292	0.0009	0.0007	0.0006	0.6772	
0.0461	0.1769	0.001	0.0003	0.0003	0.7422	
0.0306	0.1998	0.001	0.0003	0.0003	0.766	
0.0172	0.2149	0.0012	0.0003	0.0003	0.7771	
0.0124	0.2324	0.0023	0.0002	0.0002	0.7949	

System: acetonitrile + water + sodium sulfite; phases: Liquid mixture 1, Liquid mixture 2
Fixed: Temperature, K = 298.15
Fixed: Pressure, kPa = 101
Property: Mass fraction of sodium sulfite (Liquid mixture 1); method: Titration method
Mass fraction of acetonitrile	Mass fraction of sodium sulfite	uncertainty
0.0794	0.1462	0.0058
0.0922	0.1352	0.0054
0.1009	0.1248	0.005
0.1158	0.1127	0.0045
0.1301	0.1022	0.0041
0.1435	0.0925	0.0037
0.1539	0.0859	0.0034
0.1671	0.0772	0.0031
0.1791	0.0711	0.0028
0.1925	0.0649	0.0026
0.2087	0.0581	0.0023
0.2231	0.0518	0.0021
0.2391	0.0468	0.0019
0.2544	0.042	0.0017
0.273	0.0372	0.0015
0.2859	0.0342	0.0014
0.2997	0.0314	0.0013
0.3209	0.028	0.0011

System: acetonitrile + water + sodium thiosulfate; phases: Liquid mixture 1, Liquid mixture 2
Fixed: Temperature, K = 298.15
Fixed: Pressure, kPa = 101
Property: Mass fraction of sodium thiosulfate (Liquid mixture 1); method: Titration method
Mass fraction of acetonitrile	Mass fraction of sodium thiosulfate	uncertainty
0.1073	0.1794	0.0072
0.1162	0.1684	0.0067
0.1364	0.1476	0.0059
0.152	0.1259	0.005
0.1724	0.1088	0.0044
0.1888	0.0973	0.0039
0.2071	0.0882	0.0035
0.2224	0.0775	0.0031
0.2466	0.0675	0.0027
0.2564	0.0612	0.0024
0.2739	0.0557	0.0022
0.2894	0.0513	0.0021
0.3052	0.0463	0.0019
0.3192	0.0428	0.0017
0.3322	0.0398	0.0016
0.3476	0.0366	0.0015
0.3615	0.0339	0.0014
0.3835	0.0303	0.0012
0.4018	0.0275	0.0011
0.421	0.0251	0.001

System: acetonitrile + disodium L-tartrate + water; phases: Liquid mixture 1, Liquid mixture 2
Fixed: Temperature, K = 298.15
Fixed: Pressure, kPa = 101
Property: Mass fraction of disodium L-tartrate (Liquid mixture 1); method: Titration method
Mass fraction of acetonitrile	Mass fraction of disodium L-tartrate	uncertainty
0.1271	0.1413	0.0057
0.1355	0.1342	0.0054
0.1445	0.1258	0.005
0.161	0.1114	0.0045
0.1793	0.0972	0.0039
0.1975	0.0851	0.0034
0.2167	0.0746	0.003
0.232	0.0681	0.0027
0.2417	0.0637	0.0025
0.2544	0.0582	0.0023
0.2657	0.0549	0.0022
0.2833	0.0489	0.002
0.3058	0.0428	0.0017
0.3215	0.0388	0.0016
0.3442	0.0347	0.0014
0.3554	0.0317	0.0013
0.3761	0.0291	0.0012
0.3986	0.0262	0.001
0.4111	0.0243	0.001
0.435	0.0218	0.0009

System: potassium carbonate + water; phases: Liquid
Fixed: Temperature, K = 298.15
Fixed: Pressure, kPa = 101
Property: Refractive index (Na D-line) (Liquid); method: Standard Abbe refractometry
Mass fraction of potassium carbonate	Refractive index (Na D-line)	uncertainty
0.0475	1.3401	0.0005
0.0968	1.3378	0.0005

System: N-methylpyrrolidone + water; phases: Liquid
Fixed: Temperature, K = 298.15
Fixed: Pressure, kPa = 101
Property: Refractive index (Na D-line) (Liquid); method: Standard Abbe refractometry
Mass fraction of N-methylpyrrolidone	Refractive index (Na D-line)	uncertainty
0.0958	1.3462	0.0005
0.0961	1.3462	0.0005

System: sodium carbonate + water; phases: Liquid
Fixed: Temperature, K = 298.15
Fixed: Pressure, kPa = 101
Property: Refractive index (Na D-line) (Liquid); method: Standard Abbe refractometry
Mass fraction of sodium carbonate	Refractive index (Na D-line)	uncertainty
0.0473	1.3426	0.0005
0.097	1.3378	0.0005

System: acetonitrile + water; phases: Liquid
Fixed: Temperature, K = 298.15
Fixed: Pressure, kPa = 101
Property: Refractive index (Na D-line) (Liquid); method: Standard Abbe refractometry
Mass fraction of acetonitrile	Refractive index (Na D-line)	uncertainty
0.0477	1.3404	0.0005
0.0473	1.3425	0.0005
