Measured thermophysical data. Experimental measurement and thermodynamic modeling of liquid-liquid equilibrium for 1-pentanol + water + NaNO3 at 298.15 and 308.15 K
Source: Fluid Phase Equilib., 2011, 10.1016/j.fluid.2011.05.003
Compound 1: pentan-1-ol, C5H12O, InChI=1S/C5H12O/c1-2-3-4-5-6/h6H,2-5H2,1H3, purity 99%
Compound 2: sodium nitrate, NNaO3, InChI=1S/NO3.Na/c2-1(3)4;/q-1;+1, purity 99.5%
Compound 3: water, H2O, InChI=1S/H2O/h1H2

System: pentan-1-ol + sodium nitrate + water; phases: Liquid mixture 2, Liquid mixture 1
Fixed: Temperature, K = 298.15
Fixed: Pressure, kPa = 101.3
Property: Mass fraction of pentan-1-ol (Liquid mixture 2); method: Chromatography
Property: Mass fraction of pentan-1-ol (Liquid mixture 1); method: Chromatography
Property: Mass fraction of water (Liquid mixture 1); method: Chromatography
Mass fraction of water	Mass fraction of pentan-1-ol	uncertainty	Mass fraction of pentan-1-ol	uncertainty	Mass fraction of water	uncertainty
0.1027	0.8973	0.0056	0.0215	0.004	0.9785	
0.0842	0.915	0.006	0.0144	0.004	0.889	
0.0833	0.9162	0.0056	0.0133	0.004	0.8556	
0.0745	0.9246	0.0056	0.0084	0.004	0.802	
0.069	0.93	0.01	0.0075	0.004	0.7574	
0.0655	0.9333	0.0056	0.0048	0.004	0.7282	
0.0602	0.9386	0.0056	0.0033	0.0033	0.6919	
0.0572	0.9408	0.0056	0.003	0.003	0.6382	
0.0533	0.945	0.006	0.0027	0.0027	0.607	
0.0498	0.9486	0.0057	0.0022	0.0022	0.5777	
0.0482	0.9503	0.0056	0.0011	0.0011	0.5589	
0.0426	0.9556	0.0055	0.001	0.001	0.5404	

System: pentan-1-ol + sodium nitrate + water; phases: Liquid mixture 1, Liquid mixture 2
Fixed: Temperature, K = 308.15
Fixed: Pressure, kPa = 101.3
Property: Mass fraction of pentan-1-ol (Liquid mixture 1); method: Chromatography
Property: Mass fraction of pentan-1-ol (Liquid mixture 2); method: Chromatography
Property: Mass fraction of water (Liquid mixture 2); method: Chromatography
Mass fraction of water	Mass fraction of pentan-1-ol	uncertainty	Mass fraction of pentan-1-ol	uncertainty	Mass fraction of water	uncertainty
0.9799	0.0201	0.004	0.8942	0.0056	0.1058	
0.9188	0.0124	0.004	0.9079	0.0055	0.0914	
0.8627	0.011	0.004	0.9085	0.0055	0.0903	
0.8169	0.0087	0.004	0.9129	0.0057	0.0858	
0.7695	0.0075	0.004	0.9162	0.0057	0.0823	
0.7191	0.0046	0.004	0.9287	0.0056	0.0698	
0.7007	0.0037	0.0037	0.9302	0.0056	0.0683	
0.6416	0.003	0.003	0.9341	0.0056	0.0641	
0.6062	0.0028	0.0028	0.9411	0.0056	0.057	
0.585	0.002	0.002	0.9424	0.0056	0.0556	
0.58	0.0014	0.0014	0.9443	0.0056	0.0539	
0.5248	0.0009	0.0009	0.9524	0.0056	0.0456	
