Measured thermophysical data. Isobaric vapour liquid equilibria for the binary systems 4-methyl-2-pentanone + 1-butanol and + 2-butanol at 20 and 101.3 kPa
Source: Fluid Phase Equilib., 2009, 10.1016/j.fluid.2008.11.012
Compound 1: 4-methylpentan-2-one, C6H12O, InChI=1S/C6H12O/c1-5(2)4-6(3)7/h5H,4H2,1-3H3, purity 99%
Compound 2: butan-1-ol, C4H10O, InChI=1S/C4H10O/c1-2-3-4-5/h5H,2-4H2,1H3, purity 99.8%
Compound 3: butan-2-ol, C4H10O, InChI=1S/C4H10O/c1-3-4(2)5/h4-5H,3H2,1-2H3, purity 99%

System: 4-methylpentan-2-one; phases: Liquid
Property: Refractive index (Na D-line) (Liquid); method: Standard Abbe refractometry
Temperature, K	Pressure, kPa	Refractive index (Na D-line)	uncertainty
298.15	101.325	1.39355	0.00037

System: 4-methylpentan-2-one; phases: Liquid
Property: Mass density, kg/m3 (Liquid); method: Vibrating tube method
Temperature, K	Pressure, kPa	Mass density, kg/m3	uncertainty
298.15	101.325	795.94	0.24

System: 4-methylpentan-2-one; phases: Liquid, Gas
Property: Vapor or sublimation pressure, kPa (Liquid); method: Ebulliometric method (Recirculating still)
Temperature, K	Vapor or sublimation pressure, kPa	uncertainty
321.83	9	0.2
328.37	12	0.2
332	14	0.2
335.32	16	0.2
338.16	18	0.2
340.98	20	0.2
345.29	23.8	0.2
346.89	25.2	0.2
349.03	27.4	0.2
351.04	29.5	0.2
352.81	31.4	0.2
354.18	33	0.2
356.16	35.5	0.2
357.76	37.5	0.2
359.19	39.5	0.2
361.31	42.5	0.2
363.26	45.4	0.2
365.22	48.5	0.2
367.09	51.6	0.2
368.77	54.6	0.2
370.45	57.6	0.2
371.95	60.5	0.2
373.48	63.5	0.2
375.47	67.6	0.2
377.31	71.6	0.2
378.66	74.7	0.2
379.96	77.7	0.2
381.23	80.8	0.2
382.41	83.7	0.2
383.56	86.6	0.2
384.77	89.8	0.2
385.83	92.7	0.2
386.59	94.8	0.2
387.24	96.6	0.2
388.2	99.4	0.2
388.87	101.3	0.2
389.28	102.5	0.2
389.8	104.1	0.2
391.19	108.3	0.2
392.03	110.8	0.2
393.01	114	0.2
394.25	118	0.2
395.59	122.5	0.3
397.09	127.5	0.3
397.69	129.6	0.3

System: butan-1-ol; phases: Liquid
Property: Refractive index (Na D-line) (Liquid); method: Standard Abbe refractometry
Temperature, K	Pressure, kPa	Refractive index (Na D-line)	uncertainty
298.15	101.325	1.39732	0.00031

System: butan-1-ol; phases: Liquid
Property: Mass density, kg/m3 (Liquid); method: Vibrating tube method
Temperature, K	Pressure, kPa	Mass density, kg/m3	uncertainty
298.15	101.325	805.89	0.12

System: butan-1-ol; phases: Liquid, Gas
Property: Vapor or sublimation pressure, kPa (Liquid); method: Ebulliometric method (Recirculating still)
Temperature, K	Vapor or sublimation pressure, kPa	uncertainty
351.01	20	1
390.57	101.3	0.2

System: butan-2-ol; phases: Liquid
Property: Refractive index (Na D-line) (Liquid); method: Standard Abbe refractometry
Temperature, K	Pressure, kPa	Refractive index (Na D-line)	uncertainty
298.15	101.325	1.39519	0.00037

System: butan-2-ol; phases: Liquid
Property: Mass density, kg/m3 (Liquid); method: Vibrating tube method
Temperature, K	Pressure, kPa	Mass density, kg/m3	uncertainty
298.15	101.325	802.35	0.24

System: butan-2-ol; phases: Liquid, Gas
Property: Vapor or sublimation pressure, kPa (Liquid); method: Ebulliometric method (Recirculating still)
Temperature, K	Vapor or sublimation pressure, kPa	uncertainty
319.62	9	0.2
324.86	12	0.2
327.86	14	0.2
330.48	16	0.2
332.78	18	0.2
334.87	20	0.2
337.28	22.5	0.2
339.02	24.5	0.2
340.64	26.5	0.2
342.18	28.4	0.2
343.68	30.5	0.2
345.09	32.5	0.2
346.36	34.5	0.2
347.59	36.5	0.2
348.79	38.5	0.2
350.48	41.5	0.2
352.07	44.5	0.2
353.6	47.5	0.2
355.01	50.5	0.2
356.38	53.5	0.2
357.69	56.5	0.2
358.94	59.5	0.2
360.12	62.4	0.2
361.28	65.4	0.2
362.39	68.4	0.2
363.46	71.4	0.2
364.48	74.3	0.2
365.5	77.4	0.2
366.48	80.4	0.2
367.39	83.3	0.2
368.37	86.5	0.2
369.21	89.3	0.2
370.08	92.3	0.2
370.98	95.5	0.2
371.79	98.4	0.2
372.56	101.3	0.2
372.72	101.9	0.2
373.74	105.8	0.2
374.79	110	0.2
375.77	113.9	0.3
376.72	117.9	0.3
377.65	121.9	0.3
378.56	125.9	0.3
379.42	129.9	0.3

System: butan-1-ol + 4-methylpentan-2-one; phases: Liquid, Gas
Property: Azeotropic temperature, K (Liquid); method: By T(X) extreme
Pressure, kPa	Azeotropic temperature, K	uncertainty
20	341.01	0.26
101.3	386.64	0.26

System: butan-1-ol + 4-methylpentan-2-one; phases: Liquid, Gas
Property: Azeotropic composition: mole fraction of 4-methylpentan-2-one (Liquid); method: By T or P extreme
Pressure, kPa	Azeotropic composition: mole fraction of 4-methylpentan-2-one	uncertainty
20	0.922	0.003
101.3	0.6	0.005

System: butan-1-ol + 4-methylpentan-2-one; phases: Liquid, Gas
Property: Boiling temperature at pressure P, K (Liquid); method: Ebulliometric method (Recirculating still)
Mole fraction of 4-methylpentan-2-one	Pressure, kPa	Boiling temperature at pressure P, K	uncertainty
0	20	351.01	0.15
0	101.3	390.57	0.24
0.069	101.3	389.97	0.25
0.104	20	349.67	0.15
0.123	101.3	389.41	0.25
0.18	101.3	388.94	0.25
0.193	20	348.55	0.15
0.229	101.3	388.47	0.25
0.266	20	347.57	0.16
0.284	101.3	387.97	0.25
0.332	101.3	387.67	0.25
0.336	20	346.64	0.16
0.38	101.3	387.42	0.26
0.396	20	345.77	0.16
0.428	101.3	387.11	0.26
0.446	20	344.96	0.16
0.472	101.3	386.85	0.26
0.493	20	344.26	0.16
0.511	101.3	386.7	0.26
0.535	20	343.67	0.17
0.555	101.3	386.67	0.27
0.571	20	343.16	0.16
0.596	101.3	386.63	0.27
0.615	20	342.72	0.17
0.644	101.3	386.7	0.27
0.647	20	342.31	0.17
0.68	20	341.88	0.17
0.687	101.3	386.8	0.28
0.712	20	341.61	0.17
0.732	101.3	386.96	0.28
0.739	20	341.49	0.17
0.774	20	341.21	0.17
0.779	101.3	387.21	0.28
0.811	20	341.11	0.17
0.827	101.3	387.37	0.29
0.856	20	341.04	0.18
0.882	101.3	387.78	0.29
0.902	20	341.02	0.18
0.938	101.3	388.31	0.29
0.952	20	340.95	0.18
1	20	340.98	0.18
1	101.3	388.87	0.3

System: butan-1-ol + 4-methylpentan-2-one; phases: Liquid, Gas
Property: Mole fraction of 4-methylpentan-2-one (Liquid); method: Chromatography
Mole fraction of 4-methylpentan-2-one	Pressure, kPa	Mole fraction of 4-methylpentan-2-one	uncertainty
0	20	0	0.001
0	101.3	0	0.001
0.069	101.3	0.047	0.003
0.104	20	0.046	0.002
0.123	101.3	0.089	0.003
0.18	101.3	0.136	0.003
0.193	20	0.092	0.002
0.229	101.3	0.182	0.003
0.266	20	0.138	0.003
0.284	101.3	0.229	0.003
0.332	101.3	0.284	0.004
0.336	20	0.185	0.003
0.38	101.3	0.334	0.004
0.396	20	0.236	0.003
0.428	101.3	0.389	0.004
0.446	20	0.279	0.003
0.472	101.3	0.444	0.005
0.493	20	0.33	0.004
0.511	101.3	0.495	0.005
0.535	20	0.378	0.004
0.555	101.3	0.547	0.005
0.571	20	0.429	0.005
0.596	101.3	0.598	0.004
0.615	20	0.484	0.005
0.644	101.3	0.65	0.004
0.647	20	0.532	0.005
0.68	20	0.584	0.005
0.687	101.3	0.701	0.004
0.712	20	0.635	0.005
0.732	101.3	0.752	0.004
0.739	20	0.681	0.004
0.774	20	0.728	0.004
0.779	101.3	0.802	0.003
0.811	20	0.786	0.004
0.827	101.3	0.852	0.003
0.856	20	0.842	0.004
0.882	101.3	0.902	0.003
0.902	20	0.899	0.003
0.938	101.3	0.952	0.003
0.952	20	0.953	0.003
1	20	1	0.001
1	101.3	1	0.001

System: butan-2-ol + 4-methylpentan-2-one; phases: Liquid, Gas
Property: Azeotropic temperature, K (Liquid); method: By T(X) extreme
Pressure, kPa	Azeotropic temperature, K	uncertainty
20	333.69	0.23

System: butan-2-ol + 4-methylpentan-2-one; phases: Liquid, Gas
Property: Azeotropic composition: mole fraction of 4-methylpentan-2-one (Liquid); method: By T or P extreme
Pressure, kPa	Azeotropic composition: mole fraction of 4-methylpentan-2-one	uncertainty
20	0.271	0.004

System: butan-2-ol + 4-methylpentan-2-one; phases: Liquid, Gas
Property: Boiling temperature at pressure P, K (Liquid); method: Ebulliometric method (Recirculating still)
Mole fraction of 4-methylpentan-2-one	Pressure, kPa	Boiling temperature at pressure P, K	uncertainty
0	20	334.87	0.14
0	101.3	372.56	0.24
0.022	20	334.58	0.14
0.044	101.3	372.78	0.25
0.06	20	334.42	0.15
0.086	101.3	373.03	0.25
0.106	20	334.15	0.15
0.126	101.3	373.37	0.25
0.149	20	333.91	0.15
0.165	101.3	373.73	0.26
0.192	20	333.81	0.15
0.205	101.3	374.1	0.26
0.232	20	333.75	0.15
0.244	101.3	374.47	0.26
0.273	20	333.69	0.16
0.283	101.3	375.03	0.27
0.311	20	333.66	0.16
0.324	101.3	375.58	0.27
0.35	20	333.79	0.16
0.366	101.3	376.24	0.28
0.389	20	334.04	0.16
0.41	101.3	376.95	0.28
0.429	20	334.21	0.16
0.456	101.3	377.75	0.28
0.47	20	334.35	0.16
0.503	101.3	378.56	0.29
0.51	20	334.73	0.17
0.554	101.3	379.55	0.29
0.556	20	335.1	0.17
0.607	101.3	380.55	0.29
0.61	20	335.77	0.17
0.658	20	336.27	0.17
0.666	101.3	381.69	0.3
0.715	20	336.81	0.18
0.726	101.3	383.01	0.3
0.762	20	337.55	0.18
0.789	101.3	384.38	0.3
0.842	20	338.33	0.18
0.862	101.3	385.88	0.31
0.931	101.3	387.36	0.31
0.935	20	339.33	0.18
1	20	340.98	0.18
1	101.3	388.87	0.31

System: butan-2-ol + 4-methylpentan-2-one; phases: Liquid, Gas
Property: Mole fraction of 4-methylpentan-2-one (Liquid); method: Chromatography
Mole fraction of 4-methylpentan-2-one	Pressure, kPa	Mole fraction of 4-methylpentan-2-one	uncertainty
0	20	0	0.001
0	101.3	0	0.001
0.022	20	0.017	0.003
0.044	101.3	0.055	0.003
0.06	20	0.05	0.003
0.086	101.3	0.108	0.003
0.106	20	0.089	0.003
0.126	101.3	0.162	0.004
0.149	20	0.133	0.003
0.165	101.3	0.217	0.004
0.192	20	0.175	0.003
0.205	101.3	0.272	0.004
0.232	20	0.223	0.004
0.244	101.3	0.327	0.004
0.273	20	0.271	0.004
0.283	101.3	0.382	0.005
0.311	20	0.323	0.004
0.324	101.3	0.437	0.005
0.35	20	0.376	0.004
0.366	101.3	0.493	0.005
0.389	20	0.43	0.005
0.41	101.3	0.546	0.005
0.429	20	0.484	0.005
0.456	101.3	0.599	0.005
0.47	20	0.541	0.005
0.503	101.3	0.65	0.004
0.51	20	0.598	0.005
0.554	101.3	0.7	0.004
0.556	20	0.652	0.004
0.607	101.3	0.75	0.004
0.61	20	0.709	0.004
0.658	20	0.765	0.004
0.666	101.3	0.8	0.003
0.715	20	0.816	0.003
0.726	101.3	0.843	0.003
0.762	20	0.858	0.003
0.789	101.3	0.885	0.003
0.842	20	0.913	0.003
0.862	101.3	0.931	0.002
0.931	101.3	0.967	0.002
0.935	20	0.967	0.002
1	20	1	0.001
1	101.3	1	0.001
