Measured thermophysical data. Effect of temperature on the surface tension of diluted aqueous solutions of 1,2-hexanediol, 1,5-hexanediol, 1,6-hexanediol and 2,5-hexanediol
Source: Fluid Phase Equilib., 2007, 10.1016/j.fluid.2007.05.029
Compound 1: 1,2-hexanediol, C6H14O2, InChI=1S/C6H14O2/c1-2-3-4-6(8)5-7/h6-8H,2-5H2,1H3
Compound 2: 1,5-hexanediol, C6H14O2, InChI=1S/C6H14O2/c1-6(8)4-2-3-5-7/h6-8H,2-5H2,1H3
Compound 3: 1,6-hexanediol, C6H14O2, InChI=1S/C6H14O2/c7-5-3-1-2-4-6-8/h7-8H,1-6H2
Compound 4: 2,5-hexanediol, C6H14O2, InChI=1S/C6H14O2/c1-5(7)3-4-6(2)8/h5-8H,3-4H2,1-2H3
Compound 5: water, H2O, InChI=1S/H2O/h1H2

System: 1,2-hexanediol; phases: Liquid, Gas
Property: Surface tension liquid-gas, N/m (Liquid); method: CAPRISE:UFactor:8
Temperature, K	Surface tension liquid-gas, N/m	uncertainty
283.15	0.0247	0.0008
288.15	0.0244	0.0008
293.15	0.0241	0.0008
298.15	0.0238	0.0008
303.15	0.0236	0.0008
308.15	0.0233	0.0008

System: 1,5-hexanediol; phases: Liquid, Gas
Property: Surface tension liquid-gas, N/m (Liquid); method: CAPRISE::UFactor:8
Temperature, K	Surface tension liquid-gas, N/m	uncertainty
283.15	0.0346	0.0009
288.15	0.0343	0.0008
293.15	0.0341	0.0008
298.15	0.0339	0.0008
303.15	0.0337	0.0008
308.15	0.0335	0.0008

System: 2,5-hexanediol; phases: Liquid, Gas
Property: Surface tension liquid-gas, N/m (Liquid); method: CAPRISE::UFactor:8
Temperature, K	Surface tension liquid-gas, N/m	uncertainty
283.15	0.0323	0.0008
288.15	0.032	0.0008
293.15	0.0319	0.0008
298.15	0.0316	0.0008
303.15	0.0313	0.0008
308.15	0.031	0.0008

System: water; phases: Liquid, Gas
Property: Surface tension liquid-gas, N/m (Liquid); method: CAPRISE::UFactor:8
Temperature, K	Surface tension liquid-gas, N/m	uncertainty
283.15	0.0741	0.0011
288.15	0.0734	0.0011
293.15	0.0726	0.0011
298.15	0.0718	0.0011
303.15	0.071	0.0011
308.15	0.0702	0.0011

System: 1,2-hexanediol + water; phases: Liquid, Gas
Property: Surface tension liquid-gas, N/m (Liquid); method: CAPRISE:UFactor:8
Temperature, K	Mole fraction of 1,2-hexanediol	Surface tension liquid-gas, N/m	uncertainty
283.15	0	0.0741	0.0011
283.15	0.001	0.0551	0.001
283.15	0.0016	0.0475	0.0009
283.15	0.002	0.0451	0.0009
283.15	0.0034	0.0416	0.0009
283.15	0.0052	0.0373	0.0009
283.15	0.0077	0.0322	0.0008
283.15	0.0108	0.0287	0.0008
283.15	0.014	0.0276	0.0008
283.15	0.0175	0.0264	0.0008
283.15	0.0251	0.0262	0.0008
283.15	0.036	0.0257	0.0008
283.15	0.046	0.0257	0.0008
283.15	0.0514	0.0257	0.0008
283.15	0.0655	0.0256	0.0008
283.15	0.0831	0.0256	0.0008
283.15	0.0968	0.0251	0.0008
283.15	0.1119	0.0249	0.0008
283.15	1	0.0247	0.0008
288.15	0	0.0734	0.0011
288.15	0.001	0.0545	0.001
288.15	0.0016	0.0473	0.0009
288.15	0.002	0.0445	0.0009
288.15	0.0034	0.0406	0.0009
288.15	0.0052	0.0363	0.0008
288.15	0.0077	0.0314	0.0008
288.15	0.0108	0.0281	0.0008
288.15	0.014	0.0269	0.0008
288.15	0.0175	0.0259	0.0008
288.15	0.0251	0.0259	0.0008
288.15	0.036	0.0255	0.0008
288.15	0.046	0.0254	0.0008
288.15	0.0514	0.0254	0.0008
288.15	0.0655	0.0254	0.0008
288.15	0.0831	0.0253	0.0008
288.15	0.0968	0.0249	0.0008
288.15	0.1119	0.0247	0.0008
288.15	1	0.0244	0.0008
293.15	0	0.0726	0.0011
293.15	0.001	0.0543	0.001
293.15	0.0016	0.047	0.0009
293.15	0.002	0.0439	0.0009
293.15	0.0034	0.04	0.0009
293.15	0.0052	0.0355	0.0008
293.15	0.0077	0.0308	0.0008
293.15	0.0108	0.0277	0.0008
293.15	0.014	0.0263	0.0008
293.15	0.0175	0.0257	0.0008
293.15	0.0251	0.0255	0.0008
293.15	0.036	0.0252	0.0008
293.15	0.046	0.0252	0.0008
293.15	0.0514	0.0252	0.0008
293.15	0.0655	0.0251	0.0008
293.15	0.0831	0.0251	0.0008
293.15	0.0968	0.0246	0.0008
293.15	0.1119	0.0244	0.0008
293.15	1	0.0241	0.0008
298.15	0	0.0718	0.0011
298.15	0.001	0.0538	0.001
298.15	0.0016	0.0466	0.0009
298.15	0.002	0.0434	0.0009
298.15	0.0034	0.0393	0.0009
298.15	0.0052	0.0347	0.0008
298.15	0.0077	0.03	0.0008
298.15	0.0108	0.0272	0.0008
298.15	0.014	0.0257	0.0008
298.15	0.0175	0.0253	0.0008
298.15	0.0251	0.0252	0.0008
298.15	0.036	0.025	0.0008
298.15	0.046	0.0249	0.0008
298.15	0.0514	0.0249	0.0008
298.15	0.0655	0.0249	0.0008
298.15	0.0831	0.0248	0.0008
298.15	0.0968	0.0244	0.0008
298.15	0.1119	0.0241	0.0008
298.15	1	0.0238	0.0008
303.15	0	0.071	0.0011
303.15	0.001	0.0533	0.001
303.15	0.0016	0.0463	0.0009
303.15	0.002	0.0428	0.0009
303.15	0.0034	0.0385	0.0009
303.15	0.0052	0.0338	0.0008
303.15	0.0077	0.0295	0.0008
303.15	0.0108	0.0268	0.0008
303.15	0.014	0.0252	0.0008
303.15	0.0175	0.0248	0.0008
303.15	0.0251	0.025	0.0008
303.15	0.036	0.0247	0.0008
303.15	0.046	0.0247	0.0008
303.15	0.0514	0.0247	0.0008
303.15	0.0655	0.0244	0.0008
303.15	0.0831	0.0245	0.0008
303.15	0.0968	0.0243	0.0008
303.15	0.1119	0.0239	0.0008
303.15	1	0.0236	0.0008
308.15	0	0.0702	0.0011
308.15	0.001	0.0527	0.0009
308.15	0.0016	0.0456	0.0009
308.15	0.002	0.0423	0.0009
308.15	0.0034	0.0381	0.0009
308.15	0.0052	0.033	0.0008
308.15	0.0077	0.0289	0.0008
308.15	0.0108	0.0264	0.0008
308.15	0.014	0.0248	0.0008
308.15	0.0175	0.0244	0.0008
308.15	0.0251	0.0247	0.0008
308.15	0.036	0.0245	0.0008
308.15	0.046	0.0244	0.0008
308.15	0.0514	0.0244	0.0008
308.15	0.0655	0.0241	0.0008
308.15	0.0831	0.0241	0.0008
308.15	0.0968	0.024	0.0008
308.15	0.1119	0.0236	0.0008
308.15	1	0.0233	0.0008

System: 1,6-hexanediol + water; phases: Liquid, Gas
Property: Surface tension liquid-gas, N/m (Liquid); method: CAPRISE:UFactor:8
Temperature, K	Mole fraction of 1,6-hexanediol	Surface tension liquid-gas, N/m	uncertainty
283.15	0	0.0741	0.0011
283.15	0.0013	0.0638	0.001
283.15	0.0017	0.0625	0.001
283.15	0.0021	0.0615	0.001
283.15	0.0029	0.06	0.001
283.15	0.0057	0.0569	0.001
283.15	0.007	0.0551	0.001
283.15	0.0089	0.0533	0.001
283.15	0.014	0.0506	0.0009
283.15	0.0159	0.0494	0.0009
283.15	0.0237	0.0485	0.0009
283.15	0.0373	0.0461	0.0009
283.15	0.0463	0.0444	0.0009
283.15	0.0545	0.0437	0.0009
283.15	0.0742	0.0435	0.0009
283.15	0.098	0.0434	0.0009
283.15	0.1165	0.0434	0.0009
288.15	0	0.0734	0.0011
288.15	0.0013	0.0631	0.001
288.15	0.0017	0.0618	0.001
288.15	0.0021	0.0607	0.001
288.15	0.0029	0.0592	0.001
288.15	0.0057	0.0557	0.001
288.15	0.007	0.0543	0.001
288.15	0.0089	0.0524	0.0009
288.15	0.014	0.0494	0.0009
288.15	0.0159	0.0486	0.0009
288.15	0.0237	0.0476	0.0009
288.15	0.0373	0.0457	0.0009
288.15	0.0463	0.0441	0.0009
288.15	0.0545	0.0434	0.0009
288.15	0.0742	0.0433	0.0009
288.15	0.098	0.0431	0.0009
288.15	0.1165	0.0431	0.0009
293.15	0	0.0726	0.0011
293.15	0.0013	0.0623	0.001
293.15	0.0017	0.0612	0.001
293.15	0.0021	0.0603	0.001
293.15	0.0029	0.0586	0.001
293.15	0.0057	0.055	0.001
293.15	0.007	0.0534	0.001
293.15	0.0089	0.0514	0.0009
293.15	0.014	0.0491	0.0009
293.15	0.0159	0.048	0.0009
293.15	0.0237	0.047	0.0009
293.15	0.0373	0.0454	0.0009
293.15	0.0463	0.0439	0.0009
293.15	0.0545	0.0432	0.0009
293.15	0.0742	0.043	0.0009
293.15	0.098	0.0429	0.0009
293.15	0.1165	0.0428	0.0009
298.15	0	0.0718	0.0011
298.15	0.0013	0.062	0.001
298.15	0.0017	0.0604	0.001
298.15	0.0021	0.0594	0.001
298.15	0.0029	0.0575	0.001
298.15	0.0057	0.0538	0.001
298.15	0.007	0.0521	0.0009
298.15	0.0089	0.0502	0.0009
298.15	0.014	0.0483	0.0009
298.15	0.0159	0.0475	0.0009
298.15	0.0237	0.0465	0.0009
298.15	0.0373	0.045	0.0009
298.15	0.0463	0.0436	0.0009
298.15	0.0545	0.0429	0.0009
298.15	0.0742	0.0428	0.0009
298.15	0.098	0.0427	0.0009
298.15	0.1165	0.0426	0.0009
303.15	0	0.071	0.0011
303.15	0.0013	0.0611	0.001
303.15	0.0017	0.0597	0.001
303.15	0.0021	0.0585	0.001
303.15	0.0029	0.0568	0.001
303.15	0.0057	0.0533	0.001
303.15	0.007	0.0517	0.0009
303.15	0.0089	0.05	0.0009
303.15	0.014	0.0483	0.0009
303.15	0.0159	0.047	0.0009
303.15	0.0237	0.0461	0.0009
303.15	0.0373	0.0445	0.0009
303.15	0.0463	0.0433	0.0009
303.15	0.0545	0.0425	0.0009
303.15	0.0742	0.0424	0.0009
303.15	0.098	0.0424	0.0009
303.15	0.1165	0.0423	0.0009
308.15	0	0.0702	0.0011
308.15	0.0013	0.0606	0.001
308.15	0.0017	0.0588	0.001
308.15	0.0021	0.0576	0.001
308.15	0.0029	0.056	0.001
308.15	0.0057	0.0524	0.0009
308.15	0.007	0.0509	0.0009
308.15	0.0089	0.0494	0.0009
308.15	0.014	0.0472	0.0009
308.15	0.0159	0.0466	0.0009
308.15	0.0237	0.0458	0.0009
308.15	0.0373	0.0442	0.0009
308.15	0.0463	0.043	0.0009
308.15	0.0545	0.0422	0.0009
308.15	0.0742	0.0421	0.0009
308.15	0.098	0.0421	0.0009
308.15	0.1165	0.042	0.0009

System: 1,5-hexanediol + water; phases: Liquid, Gas
Property: Surface tension liquid-gas, N/m (Liquid); method: CAPRISE:UFactor:8
Temperature, K	Mole fraction of 1,5-hexanediol	Surface tension liquid-gas, N/m	uncertainty
283.15	0	0.0741	0.0011
283.15	0.001	0.0653	0.001
283.15	0.0021	0.0583	0.001
283.15	0.0037	0.0553	0.001
283.15	0.0053	0.053	0.0009
283.15	0.0071	0.051	0.0009
283.15	0.0089	0.05	0.0009
283.15	0.0111	0.0475	0.0009
283.15	0.0145	0.0453	0.0009
283.15	0.0194	0.043	0.0009
283.15	0.0324	0.0397	0.0009
283.15	0.0507	0.038	0.0009
283.15	0.0738	0.0369	0.0008
283.15	1	0.0346	0.0009
288.15	0	0.0734	0.0011
288.15	0.001	0.065	0.001
288.15	0.0021	0.0576	0.001
288.15	0.0037	0.0547	0.001
288.15	0.0053	0.0525	0.0009
288.15	0.0071	0.0504	0.0009
288.15	0.0089	0.0492	0.0009
288.15	0.0111	0.0467	0.0009
288.15	0.0145	0.0447	0.0009
288.15	0.0194	0.0422	0.0009
288.15	0.0324	0.0391	0.0009
288.15	0.0507	0.0373	0.0009
288.15	0.0738	0.0365	0.0008
288.15	1	0.0343	0.0008
293.15	0	0.0726	0.0011
293.15	0.001	0.0638	0.001
293.15	0.0021	0.0569	0.001
293.15	0.0037	0.0542	0.001
293.15	0.0053	0.0517	0.0009
293.15	0.0071	0.0499	0.0009
293.15	0.0089	0.0486	0.0009
293.15	0.0111	0.0464	0.0009
293.15	0.0145	0.0445	0.0009
293.15	0.0194	0.0413	0.0009
293.15	0.0324	0.0386	0.0009
293.15	0.0507	0.0369	0.0008
293.15	0.0738	0.0361	0.0008
293.15	1	0.0341	0.0008
298.15	0	0.0718	0.0011
298.15	0.001	0.0628	0.001
298.15	0.0021	0.0561	0.001
298.15	0.0037	0.0536	0.001
298.15	0.0053	0.0512	0.0009
298.15	0.0071	0.0493	0.0009
298.15	0.0089	0.0479	0.0009
298.15	0.0111	0.046	0.0009
298.15	0.0145	0.0438	0.0009
298.15	0.0194	0.0403	0.0009
298.15	0.0324	0.038	0.0009
298.15	0.0507	0.0366	0.0008
298.15	0.0738	0.0358	0.0008
298.15	1	0.0339	0.0008
303.15	0	0.071	0.0011
303.15	0.001	0.0623	0.001
303.15	0.0021	0.0557	0.001
303.15	0.0037	0.0529	0.0009
303.15	0.0053	0.0506	0.0009
303.15	0.0071	0.0488	0.0009
303.15	0.0089	0.0473	0.0009
303.15	0.0111	0.0457	0.0009
303.15	0.0145	0.0434	0.0009
303.15	0.0194	0.0398	0.0009
303.15	0.0324	0.0375	0.0009
303.15	0.0507	0.0357	0.0008
303.15	0.0738	0.0349	0.0008
303.15	1	0.0337	0.0008
308.15	0	0.0702	0.0011
308.15	0.001	0.0612	0.001
308.15	0.0021	0.055	0.001
308.15	0.0037	0.0524	0.0009
308.15	0.0053	0.0503	0.0009
308.15	0.0071	0.0485	0.0009
308.15	0.0089	0.047	0.0009
308.15	0.0111	0.045	0.0009
308.15	0.0145	0.0429	0.0009
308.15	0.0194	0.0386	0.0009
308.15	0.0324	0.037	0.0008
308.15	0.0507	0.035	0.0008
308.15	0.0738	0.0344	0.0008
308.15	1	0.0335	0.0008

System: 2,5-hexanediol + water; phases: Liquid, Gas
Property: Surface tension liquid-gas, N/m (Liquid); method: CAPRISE:UFactor:8
Temperature, K	Mole fraction of 2,5-hexanediol	Surface tension liquid-gas, N/m	uncertainty
283.15	0	0.0741	0.0011
283.15	0.001	0.0685	0.0011
283.15	0.0027	0.0602	0.001
283.15	0.0037	0.0569	0.001
283.15	0.0068	0.0535	0.001
283.15	0.0088	0.0516	0.0009
283.15	0.0103	0.05	0.0009
283.15	0.0135	0.0479	0.0009
283.15	0.0168	0.0461	0.0009
283.15	0.0263	0.0434	0.0009
283.15	0.037	0.0415	0.0009
283.15	0.0462	0.0404	0.0009
283.15	0.063	0.0391	0.0009
283.15	0.0808	0.0385	0.0009
283.15	0.096	0.0383	0.0009
283.15	0.1117	0.0377	0.0009
283.15	1	0.0323	0.0008
288.15	0	0.0734	0.0011
288.15	0.001	0.0679	0.001
288.15	0.0027	0.0596	0.001
288.15	0.0037	0.0563	0.001
288.15	0.0068	0.0529	0.0009
288.15	0.0088	0.051	0.0009
288.15	0.0103	0.0494	0.0009
288.15	0.0135	0.0475	0.0009
288.15	0.0168	0.0457	0.0009
288.15	0.0263	0.0432	0.0009
288.15	0.037	0.0411	0.0009
288.15	0.0462	0.0401	0.0009
288.15	0.063	0.0386	0.0009
288.15	0.0808	0.038	0.0009
288.15	0.096	0.0378	0.0009
288.15	0.1117	0.0372	0.0009
288.15	1	0.032	0.0008
293.15	0	0.0726	0.0011
293.15	0.001	0.0677	0.001
293.15	0.0027	0.0591	0.001
293.15	0.0037	0.0556	0.001
293.15	0.0068	0.0523	0.0009
293.15	0.0088	0.0503	0.0009
293.15	0.0103	0.0492	0.0009
293.15	0.0135	0.0472	0.0009
293.15	0.0168	0.0455	0.0009
293.15	0.0263	0.0427	0.0009
293.15	0.037	0.0404	0.0009
293.15	0.0462	0.0397	0.0009
293.15	0.063	0.0381	0.0009
293.15	0.0808	0.0375	0.0009
293.15	0.096	0.0373	0.0009
293.15	0.1117	0.0369	0.0008
293.15	1	0.0319	0.0008
298.15	0	0.0718	0.0011
298.15	0.001	0.0672	0.001
298.15	0.0027	0.0586	0.001
298.15	0.0037	0.0552	0.001
298.15	0.0068	0.0516	0.0009
298.15	0.0088	0.0495	0.0009
298.15	0.0103	0.0487	0.0009
298.15	0.0135	0.0468	0.0009
298.15	0.0168	0.0452	0.0009
298.15	0.0263	0.0421	0.0009
298.15	0.037	0.04	0.0009
298.15	0.0462	0.039	0.0009
298.15	0.063	0.0374	0.0009
298.15	0.0808	0.037	0.0008
298.15	0.096	0.0368	0.0008
298.15	0.1117	0.0362	0.0008
298.15	1	0.0316	0.0008
303.15	0	0.071	0.0011
303.15	0.001	0.0666	0.001
303.15	0.0027	0.0579	0.001
303.15	0.0037	0.0547	0.001
303.15	0.0068	0.0512	0.0009
303.15	0.0088	0.0486	0.0009
303.15	0.0103	0.0482	0.0009
303.15	0.0135	0.0463	0.0009
303.15	0.0168	0.0449	0.0009
303.15	0.0263	0.0416	0.0009
303.15	0.037	0.0397	0.0009
303.15	0.0462	0.0387	0.0009
303.15	0.063	0.0371	0.0008
303.15	0.0808	0.0365	0.0008
303.15	0.096	0.0363	0.0008
303.15	0.1117	0.0359	0.0008
303.15	1	0.0313	0.0008
308.15	0	0.0702	0.0011
308.15	0.001	0.0659	0.001
308.15	0.0027	0.0573	0.001
308.15	0.0037	0.0542	0.001
308.15	0.0068	0.0507	0.0009
308.15	0.0088	0.048	0.0009
308.15	0.0103	0.0478	0.0009
308.15	0.0135	0.0458	0.0009
308.15	0.0168	0.0446	0.0009
308.15	0.0263	0.0413	0.0009
308.15	0.037	0.0392	0.0009
308.15	0.0462	0.0382	0.0009
308.15	0.063	0.0366	0.0008
308.15	0.0808	0.0362	0.0008
308.15	0.096	0.036	0.0008
308.15	0.1117	0.0356	0.0008
308.15	1	0.031	0.0008
