Measured thermophysical data. Measurement and prediction of multicomponent diffusion coefficients in four ternary liquid systems
Source: Fluid Phase Equilib., 2010, 10.1016/j.fluid.2009.12.009
Compound 1: acetone, C3H6O, InChI=1S/C3H6O/c1-3(2)4/h1-2H3
Compound 2: propan-1-ol, C3H8O, InChI=1S/C3H8O/c1-2-3-4/h4H,2-3H2,1H3
Compound 3: butan-1-ol, C4H10O, InChI=1S/C4H10O/c1-2-3-4-5/h5H,2-4H2,1H3
Compound 4: water, H2O, InChI=1S/H2O/h1H2, purity 99.8%
Compound 5: 1-chlorobutane, C4H9Cl, InChI=1S/C4H9Cl/c1-2-3-4-5/h2-4H2,1H3

System: acetone + propan-1-ol; phases: Liquid
Fixed: Pressure, kPa = 101
Fixed: Temperature, K = 298.15
Property: Binary diffusion coefficient, m2/s (Liquid); method: holographic laser-interferometry using flow junction cell
Mole fraction of acetone	Binary diffusion coefficient, m2/s	uncertainty
0.015	1.14e-09	0.01
0.1	1.22e-09	0.02
0.2	1.33e-09	0.02
0.3	1.4e-09	0.02
0.4	1.49e-09	0.02
0.5	1.64e-09	0.02
0.6	1.74e-09	0.02
0.7	1.98e-09	0.02
0.8	2.4e-09	0.03
0.9	2.67e-09	0.03
0.985	3.12e-09	0.04

System: acetone + propan-1-ol; phases: Liquid
Fixed: Pressure, kPa = 101
Fixed: Temperature, K = 298.15
Property: Binary diffusion coefficient, m2/s (Liquid); method: equation
Mole fraction of acetone	Binary diffusion coefficient, m2/s	uncertainty
0.015	1.17e-09	0.01
0.1	1.37e-09	0.01
0.2	1.64e-09	0.01
0.3	1.86e-09	0.01
0.4	2.06e-09	0.01
0.5	2.31e-09	0.01
0.6	2.42e-09	0.01
0.7	2.63e-09	0.01
0.8	2.97e-09	0.01
0.9	2.99e-09	0.01
0.985	3.18e-09	0.01

System: acetone + butan-1-ol; phases: Liquid
Fixed: Pressure, kPa = 101
Fixed: Temperature, K = 298.15
Property: Binary diffusion coefficient, m2/s (Liquid); method: holographic laser-interferometry using flow junction cell
Mole fraction of acetone	Binary diffusion coefficient, m2/s	uncertainty
0.0125	9.5e-10	0.01
0.1	1e-09	0.01
0.2	1.07e-09	0.01
0.3	1.13e-09	0.01
0.4	1.29e-09	0.02
0.5	1.38e-09	0.02
0.6	1.49e-09	0.02
0.7	1.72e-09	0.02
0.8	1.85e-09	0.02
0.9	2.43e-09	0.03
0.9915	2.75e-09	0.03
0.9925	2.73e-09	0.03

System: acetone + butan-1-ol; phases: Liquid
Fixed: Pressure, kPa = 101
Fixed: Temperature, K = 298.15
Property: Binary diffusion coefficient, m2/s (Liquid); method: equation
Mole fraction of acetone	Binary diffusion coefficient, m2/s	uncertainty
0.0125	9.5e-10	0.01
0.1	1.04e-09	0.01
0.2	1.15e-09	0.01
0.3	1.26e-09	0.01
0.4	1.51e-09	0.01
0.5	1.67e-09	0.01
0.6	1.85e-09	0.01
0.7	2.15e-09	0.01
0.8	2.26e-09	0.01
0.9	2.77e-09	0.01
0.9915	2.79e-09	0.01
0.9925	2.77e-09	0.01

System: acetone + water; phases: Liquid
Fixed: Pressure, kPa = 101
Fixed: Temperature, K = 298.15
Property: Binary diffusion coefficient, m2/s (Liquid); method: holographic laser-interferometry using flow junction cell
Mole fraction of acetone	Binary diffusion coefficient, m2/s	uncertainty
0.004	1.25e-09	0.02
0.1	8e-10	0.01
0.3	6.3e-10	0.01
0.5	8.3e-10	0.01
0.7	1.63e-09	0.02
0.9	3.44e-09	0.04
0.975	4.62e-09	0.06

System: acetone + water; phases: Liquid
Fixed: Pressure, kPa = 101
Fixed: Temperature, K = 298.15
Property: Binary diffusion coefficient, m2/s (Liquid); method: equation
Mole fraction of acetone	Binary diffusion coefficient, m2/s	uncertainty
0.004	1.3e-09	0.01
0.1	1.62e-09	0.01
0.3	2.36e-09	0.01
0.5	2.7e-09	0.01
0.7	3.44e-09	0.01
0.9	4.44e-09	0.01
0.975	4.93e-09	0.01

System: propan-1-ol + water; phases: Liquid
Fixed: Pressure, kPa = 101
Fixed: Temperature, K = 298.15
Property: Binary diffusion coefficient, m2/s (Liquid); method: equation
Mole fraction of propan-1-ol	Binary diffusion coefficient, m2/s	uncertainty
0.002	1.09e-09	0.01
0.05	1.23e-09	0.01
0.1	6.9e-10	0.01
0.2	7.1e-10	0.01
0.4	1.05e-09	0.01
0.6	1.04e-09	0.01
0.8	8.8e-10	0.01
0.9	7.1e-10	0.01

System: propan-1-ol + water; phases: Liquid
Fixed: Pressure, kPa = 101
Fixed: Temperature, K = 298.15
Property: Binary diffusion coefficient, m2/s (Liquid); method: holographic laser-interferometry using flow junction cell
Mole fraction of propan-1-ol	Binary diffusion coefficient, m2/s	uncertainty
0.002	1.04e-09	0.01
0.05	5.2e-10	0.01
0.1	1.7e-10	0.01
0.2	1e-10	0.01
0.4	1.9e-10	0.01
0.6	3.3e-10	0.01
0.8	5e-10	0.01
0.9	5.3e-10	0.01

System: propan-1-ol + 1-chlorobutane; phases: Liquid
Fixed: Pressure, kPa = 101
Fixed: Temperature, K = 298.15
Property: Binary diffusion coefficient, m2/s (Liquid); method: holographic laser-interferometry using flow junction cell
Mole fraction of 1-chlorobutane	Binary diffusion coefficient, m2/s	uncertainty
0.013	1.2e-09	0.02
0.1	1.18e-09	0.02
0.3	1.13e-09	0.01
0.5	1.09e-09	0.01
0.7	1.14e-09	0.01
0.9	1.45e-09	0.02
0.97	2.51e-09	0.03

System: propan-1-ol + 1-chlorobutane; phases: Liquid
Fixed: Pressure, kPa = 101
Fixed: Temperature, K = 298.15
Property: Binary diffusion coefficient, m2/s (Liquid); method: equation
Mole fraction of 1-chlorobutane	Binary diffusion coefficient, m2/s	uncertainty
0.013	1.24e-09	0.01
0.1	1.52e-09	0.01
0.3	2.36e-09	0.01
0.5	3.53e-09	0.01
0.7	4.4e-09	0.01
0.9	3.03e-09	0.01
0.97	3.25e-09	0.01
