Measured thermophysical data. Total vapour pressure and excess Gibbs energy for binary mixtures of 1,1,2,2-tetrachloroethane or tetrachloroethene with tetrachloromethane at nine temperatures
Source: Fluid Phase Equilib., 2005, 10.1016/j.fluid.2004.10.025
Compound 1: tetrachloromethane, CCl4, InChI=1S/CCl4/c2-1(3,4)5
Compound 2: 1,1,2,2-tetrachloroethane, C2H2Cl4, InChI=1S/C2H2Cl4/c3-1(4)2(5)6/h1-2H
Compound 3: tetrachloroethene, C2Cl4, InChI=1S/C2Cl4/c3-1(4)2(5)6

System: tetrachloromethane; phases: Liquid, Gas
Property: Vapor or sublimation pressure, kPa (Liquid); method: CCELL:UFactor:2
Temperature, K	Vapor or sublimation pressure, kPa	uncertainty
283.15	7.514	0.042
288.15	9.601	0.047
293.15	12.138	0.054
298.15	15.221	0.064
303.15	18.98	0.076
308.15	23.362	0.09
313.15	28.527	0.106
318.15	34.585	0.126
323.15	41.678	0.148

System: 1,1,2,2-tetrachloroethane; phases: Liquid, Gas
Property: Vapor or sublimation pressure, kPa (Liquid); method: CCELL:UFactor:2
Temperature, K	Vapor or sublimation pressure, kPa	uncertainty
283.15	0.263	0.021
288.15	0.373	0.021
293.15	0.521	0.022
298.15	0.711	0.023
303.15	0.98	0.025
308.15	1.289	0.028
313.15	1.701	0.028
318.15	2.236	0.029
323.15	2.86	0.03

System: tetrachloroethene; phases: Liquid, Gas
Property: Vapor or sublimation pressure, kPa (Liquid); method: CCELL:UFactor:2
Temperature, K	Vapor or sublimation pressure, kPa	uncertainty
283.15	1.023	0.026
288.15	1.4	0.027
293.15	1.861	0.028
298.15	2.462	0.029
303.15	3.205	0.031
308.15	4.117	0.033
313.15	5.253	0.036
318.15	6.621	0.039
323.15	8.286	0.043

System: tetrachloromethane + 1,1,2,2-tetrachloroethane; phases: Liquid, Gas
Property: Vapor or sublimation pressure, kPa (Liquid); method: Closed cell (Static) method
Temperature, K	Mole fraction of 1,1,2,2-tetrachloroethane	Vapor or sublimation pressure, kPa	uncertainty
283.15	0.0848	6.957	0.04
283.15	0.131	6.663	0.04
283.15	0.2316	6.058	0.038
283.15	0.3129	5.549	0.037
283.15	0.4116	4.974	0.035
283.15	0.4914	4.489	0.034
283.15	0.6018	3.765	0.032
283.15	0.6959	3.09	0.031
283.15	0.7641	2.55	0.03
283.15	0.8186	2.092	0.029
283.15	0.904	1.277	0.029
283.15	0.9565	0.743	0.024
288.15	0.0848	8.881	0.046
288.15	0.1311	8.503	0.044
288.15	0.2317	7.71	0.042
288.15	0.3131	7.093	0.041
288.15	0.4117	6.343	0.039
288.15	0.4915	5.728	0.037
288.15	0.6019	4.796	0.035
288.15	0.6959	3.937	0.033
288.15	0.7641	3.248	0.032
288.15	0.8187	2.682	0.03
288.15	0.904	1.676	0.029
288.15	0.9565	0.971	0.027
293.15	0.0848	11.235	0.052
293.15	0.1311	10.74	0.05
293.15	0.2318	9.775	0.048
293.15	0.3133	8.954	0.046
293.15	0.4118	8.007	0.043
293.15	0.4917	7.227	0.041
293.15	0.6021	6.073	0.038
293.15	0.696	4.976	0.036
293.15	0.7642	4.106	0.034
293.15	0.8188	3.397	0.032
293.15	0.9041	2.141	0.03
293.15	0.9565	1.284	0.03
298.15	0.0849	14.084	0.062
298.15	0.1312	13.478	0.059
298.15	0.2319	12.203	0.055
298.15	0.3136	11.239	0.052
298.15	0.412	10.059	0.049
298.15	0.4916	9.05	0.046
298.15	0.6024	7.591	0.042
298.15	0.6962	6.249	0.039
298.15	0.7644	5.173	0.037
298.15	0.8189	4.256	0.035
298.15	0.9041	2.714	0.032
298.15	0.9565	1.661	0.03
303.15	0.0848	17.569	0.073
303.15	0.1311	16.809	0.07
303.15	0.2318	15.263	0.065
303.15	0.314	13.999	0.061
303.15	0.4122	12.519	0.057
303.15	0.4922	11.282	0.053
303.15	0.6027	9.465	0.048
303.15	0.6964	7.782	0.044
303.15	0.7645	6.463	0.041
303.15	0.8191	5.344	0.038
303.15	0.9042	3.438	0.034
303.15	0.9565	2.15	0.032
308.15	0.0849	21.63	0.086
308.15	0.1312	20.696	0.083
308.15	0.2319	18.748	0.077
308.15	0.3136	17.248	0.072
308.15	0.4119	15.385	0.066
308.15	0.4927	13.848	0.061
308.15	0.6031	11.651	0.054
308.15	0.6966	9.579	0.049
308.15	0.7647	7.938	0.045
308.15	0.8192	6.589	0.042
308.15	0.9043	4.278	0.037
308.15	0.9566	2.69	0.035
313.15	0.0849	26.41	0.102
313.15	0.1312	25.302	0.098
313.15	0.232	22.917	0.09
313.15	0.3139	21.09	0.084
313.15	0.4122	18.814	0.077
313.15	0.4922	16.984	0.072
313.15	0.6038	14.16	0.063
313.15	0.6969	11.664	0.056
313.15	0.765	9.731	0.051
313.15	0.8195	8.063	0.047
313.15	0.9044	5.274	0.041
313.15	0.9566	3.397	0.038
318.15	0.0849	32.019	0.12
318.15	0.1314	30.672	0.115
318.15	0.2321	27.835	0.106
318.15	0.3142	25.583	0.099
318.15	0.4126	22.819	0.09
318.15	0.4926	20.556	0.084
318.15	0.6031	17.251	0.073
318.15	0.6974	14.171	0.064
318.15	0.7654	11.816	0.058
318.15	0.8198	9.825	0.053
318.15	0.9045	6.486	0.046
318.15	0.9567	4.24	0.042
323.15	0.085	38.573	0.14
323.15	0.1313	36.978	0.135
323.15	0.2322	33.525	0.124
323.15	0.3147	30.792	0.116
323.15	0.4131	27.423	0.105
323.15	0.4929	24.725	0.097
323.15	0.6036	20.761	0.085
323.15	0.6968	17.167	0.075
323.15	0.7659	14.259	0.066
323.15	0.8202	11.856	0.06
323.15	0.9047	7.89	0.051
323.15	0.9567	5.242	0.047

System: tetrachloromethane + tetrachloroethene; phases: Liquid, Gas
Property: Vapor or sublimation pressure, kPa (Liquid); method: Closed cell (Static) method
Temperature, K	Mole fraction of tetrachloroethene	Vapor or sublimation pressure, kPa	uncertainty
283.15	0.0862	6.938	0.04
283.15	0.1638	6.447	0.039
283.15	0.2756	5.748	0.037
283.15	0.352	5.254	0.036
283.15	0.4245	4.789	0.035
283.15	0.489	4.357	0.034
283.15	0.5816	3.766	0.032
283.15	0.6494	3.316	0.031
283.15	0.72	2.864	0.03
283.15	0.7935	2.38	0.029
283.15	0.8323	2.12	0.029
283.15	0.9226	1.535	0.028
288.15	0.0863	8.897	0.045
288.15	0.1639	8.269	0.044
288.15	0.2757	7.361	0.041
288.15	0.3521	6.743	0.04
288.15	0.4247	6.15	0.038
288.15	0.489	5.618	0.037
288.15	0.5817	4.849	0.035
288.15	0.6495	4.286	0.034
288.15	0.7201	3.705	0.032
288.15	0.7935	3.092	0.031
288.15	0.8323	2.78	0.03
288.15	0.9227	2.04	0.029
293.15	0.0863	11.248	0.052
293.15	0.164	10.463	0.05
293.15	0.2758	9.329	0.047
293.15	0.3523	8.55	0.044
293.15	0.4249	7.821	0.043
293.15	0.4891	7.127	0.041
293.15	0.5818	6.171	0.038
293.15	0.6496	5.485	0.037
293.15	0.7202	4.74	0.035
293.15	0.7936	3.98	0.033
293.15	0.8324	3.597	0.032
293.15	0.9227	2.661	0.03
298.15	0.0864	14.114	0.062
298.15	0.1641	13.14	0.058
298.15	0.2759	11.719	0.054
298.15	0.3525	10.744	0.05
298.15	0.4251	9.813	0.048
298.15	0.4892	8.993	0.046
298.15	0.5819	7.801	0.043
298.15	0.6497	6.942	0.041
298.15	0.7202	6.025	0.038
298.15	0.7937	5.081	0.036
298.15	0.8325	4.625	0.035
298.15	0.9227	3.433	0.032
303.15	0.0863	17.623	0.073
303.15	0.1639	16.417	0.069
303.15	0.2761	14.637	0.063
303.15	0.3527	13.428	0.059
303.15	0.4255	12.275	0.056
303.15	0.4894	11.264	0.052
303.15	0.582	9.819	0.048
303.15	0.6499	8.718	0.045
303.15	0.7204	7.598	0.043
303.15	0.7939	6.439	0.04
303.15	0.8326	5.84	0.038
303.15	0.9228	4.429	0.035
308.15	0.0863	21.706	0.086
308.15	0.164	20.22	0.081
308.15	0.2758	18.083	0.074
308.15	0.3524	16.611	0.07
308.15	0.4251	15.217	0.065
308.15	0.4896	13.938	0.061
308.15	0.5822	12.158	0.055
308.15	0.6501	10.838	0.051
308.15	0.7205	9.478	0.048
308.15	0.7941	8.053	0.044
308.15	0.8327	7.319	0.042
308.15	0.9228	5.602	0.038
313.15	0.0864	26.52	0.102
313.15	0.1641	24.722	0.096
313.15	0.276	22.118	0.087
313.15	0.3527	20.325	0.082
313.15	0.4254	18.649	0.076
313.15	0.4893	17.159	0.072
313.15	0.5825	14.979	0.065
313.15	0.6504	13.376	0.06
313.15	0.7207	11.731	0.055
313.15	0.7944	10.011	0.05
313.15	0.8329	9.115	0.048
313.15	0.9229	7.042	0.042
318.15	0.0864	32.179	0.12
318.15	0.1642	30.008	0.113
318.15	0.2761	26.891	0.103
318.15	0.3529	24.745	0.096
318.15	0.4257	22.699	0.089
318.15	0.4894	20.91	0.084
318.15	0.5829	18.26	0.076
318.15	0.6508	16.343	0.07
318.15	0.721	14.399	0.064
318.15	0.7947	12.322	0.057
318.15	0.8331	11.247	0.054
318.15	0.923	8.77	0.047
323.15	0.0865	38.783	0.14
323.15	0.1643	36.184	0.132
323.15	0.2762	32.429	0.12
323.15	0.3529	29.878	0.112
323.15	0.4259	27.44	0.105
323.15	0.4896	25.305	0.098
323.15	0.5824	22.185	0.088
323.15	0.6513	19.849	0.081
323.15	0.7215	17.527	0.074
323.15	0.7952	15.077	0.066
323.15	0.8335	13.786	0.062
323.15	0.9231	10.826	0.054
