Measured thermophysical data. High pressure vapor-liquid equilibria measurements and modeling of butane/ethanol system and isobutane/ethanol system
Source: Fluid Phase Equilib., 2014, 10.1016/j.fluid.2014.05.018
Compound 1: butane, C4H10, InChI=1S/C4H10/c1-3-4-2/h3-4H2,1-2H3, purity 99.8%
Compound 2: 2-methylpropane, C4H10, InChI=1S/C4H10/c1-4(2)3/h4H,1-3H3, purity 99.9%
Compound 3: ethanol, C2H6O, InChI=1S/C2H6O/c1-2-3/h3H,2H2,1H3, purity 99.5%

System: butane; phases: Liquid, Gas
Property: Vapor or sublimation pressure, kPa (Liquid); method: Ebulliometric method (Recirculating still)
Temperature, K	Vapor or sublimation pressure, kPa	uncertainty
313.2	379	7
333.2	645	7
353.2	1013	8
373.2	1525	11
403.2	2660	14

System: 2-methylpropane; phases: Liquid, Gas
Property: Vapor or sublimation pressure, kPa (Liquid); method: Ebulliometric method (Recirculating still)
Temperature, K	Vapor or sublimation pressure, kPa	uncertainty
313.2	536	7
333.2	880	8
353.2	1363	10
373.2	2014	12
403.2	3377	16

System: ethanol; phases: Liquid, Gas
Property: Vapor or sublimation pressure, kPa (Liquid); method: Ebulliometric method (Recirculating still)
Temperature, K	Vapor or sublimation pressure, kPa	uncertainty
313.2	18	6
333.2	50	6
353.2	110	6
373.2	225	6
403.2	585	7
333.2	47	6
353.2	108	6
373.2	224	6
403.2	572	7

System: ethanol + butane; phases: Liquid, Gas
Property: Vapor or sublimation pressure, kPa (Liquid); method: Ebulliometric method (Recirculating still)
Mole fraction of butane	Temperature, K	Vapor or sublimation pressure, kPa	uncertainty
0	313.2	18	6
0.2285	313.2	289	7
0.3549	313.2	332	7
0.7264	313.2	371	7
0.8046	313.2	374	7
0.8859	313.2	379	7
0.9434	313.2	380	7
0.9717	313.2	382	7
1	313.2	379	7
0	333.2	50	6
0.0965	333.2	291	8
0.1522	333.2	382	7
0.2524	333.2	492	7
0.4551	333.2	591	7
0.7548	333.2	630	7
0.8788	333.2	642	8
0.9087	333.2	646	7
0.9361	333.2	648	7
0.9572	333.2	650	8
0.9697	333.2	648	7
1	333.2	645	7
0	353.2	110	6
0.1067	353.2	497	9
0.2034	353.2	699	8
0.3345	353.2	854	8
0.5499	353.2	951	9
0.7161	353.2	1000	9
0.7642	353.2	1007	8
0.8686	353.2	1024	8
0.895	353.2	1030	9
0.9153	353.2	1033	9
1	353.2	1013	8
0	373.2	225	6
0.0624	373.2	563	12
0.1318	373.2	844	10
0.2311	373.2	1111	9
0.5367	373.2	1438	9
0.7592	373.2	1522	11
0.8455	373.2	1554	11
0.8919	373.2	1566	11
1	373.2	1525	11
0	403.2	585	7
0.0606	403.2	1044	15
0.1251	403.2	1422	13
0.2097	403.2	1788	12
0.3691	403.2	2205	12
0.6108	403.2	2525	13
0.7675	403.2	2675	14
0.891	403.2	2726	14
1	403.2	2660	14

System: ethanol + butane; phases: Gas, Liquid
Property: Mole fraction of butane (Gas); method: Chromatography
Mole fraction of butane	Temperature, K	Mole fraction of butane	uncertainty
0	313.2	0	
0.2285	313.2	0.9506	0.0062
0.3549	313.2	0.9598	0.002
0.7264	313.2	0.9683	0.002
0.8046	313.2	0.9682	0.002
0.8859	313.2	0.9709	0.002
0.9434	313.2	0.9745	0.002
0.9717	313.2	0.9778	0.0022
1	313.2	1	
0	333.2	0	
0.0965	333.2	0.8579	0.0126
0.1522	333.2	0.8957	0.0023
0.2524	333.2	0.9244	0.0021
0.4551	333.2	0.9411	0.002
0.7548	333.2	0.9513	0.002
0.8788	333.2	0.9561	0.002
0.9087	333.2	0.9579	0.002
0.9361	333.2	0.9607	0.002
0.9572	333.2	0.9641	0.0022
0.9697	333.2	0.9675	0.0027
1	333.2	1	
0	353.2	0	
0.1067	353.2	0.8034	0.0092
0.2034	353.2	0.8674	0.0022
0.3345	353.2	0.8982	0.0021
0.5499	353.2	0.9192	0.0021
0.7161	353.2	0.9266	0.002
0.7642	353.2	0.927	0.002
0.8686	353.2	0.9336	0.002
0.895	353.2	0.9394	0.002
0.9153	353.2	0.9418	0.002
1	353.2	1	
0	373.2	0	
0.0624	373.2	0.6178	0.012
0.1318	373.2	0.7564	0.0032
0.2311	373.2	0.8235	0.0022
0.5367	373.2	0.8755	0.0021
0.7592	373.2	0.8975	0.0021
0.8455	373.2	0.9126	0.0021
0.8919	373.2	0.9208	0.0024
1	373.2	1	
0	403.2	0	
0.0606	403.2	0.4541	0.0101
0.1251	403.2	0.6088	0.0041
0.2097	403.2	0.7016	0.0027
0.3691	403.2	0.7656	0.0023
0.6108	403.2	0.8188	0.0022
0.7675	403.2	0.8613	0.0021
0.891	403.2	0.8988	0.0023
1	403.2	1	

System: ethanol + butane; phases: Liquid, Gas
Property: Azeotropic composition: mole fraction of butane (Liquid); method: By X=Y
Temperature, K	Azeotropic composition: mole fraction of butane	uncertainty
313.2	0.986	0.001
333.2	0.966	0.002
353.2	0.95	0.002
373.2	0.937	0.002
403.2	0.918	0.002

System: ethanol + butane; phases: Liquid, Gas
Property: Azeotropic pressure, kPa (Liquid); method: By X=Y
Temperature, K	Azeotropic pressure, kPa	uncertainty
313.2	378	3
333.2	645	4
353.2	1038	6
373.2	1591	10
403.2	2802	17

System: ethanol + 2-methylpropane; phases: Liquid, Gas
Property: Vapor or sublimation pressure, kPa (Liquid); method: Ebulliometric method (Recirculating still)
Mole fraction of 2-methylpropane	Temperature, K	Vapor or sublimation pressure, kPa	uncertainty
0	313.2	18	6
0.0766	313.2	204	7
0.1661	313.2	336	7
0.2945	313.2	439	7
0.5206	313.3	497	7
0.6459	313.3	507	7
0.6896	313.2	512	7
0.9036	313.2	522	7
1	313.2	536	7
0	333.2	47	6
0.0589	333.2	271	10
0.0765	333.2	328	9
0.19	333.2	578	7
0.4696	333.3	788	8
0.6858	333.2	832	9
0.7333	333.2	840	8
0.853	333.2	857	8
1	333.2	880	8
0	353.2	108	6
0.0433	353.3	340	17
0.0516	353.3	390	17
0.2369	353.2	957	10
0.7255	353.2	1280	9
0.8483	353.3	1326	9
1	353.2	1363	10
0	373.2	224	6
0.0205	373.2	375	14
0.0489	373.2	580	18
0.2192	373.2	1337	11
0.4242	373.2	1685	10
0.6886	373.2	1880	11
1	373.2	2014	12
0	403.2	572	7
0.0417	403.2	990	16
0.2059	403.2	2070	15
0.366	403.2	2620	14
0.5466	403.2	2952	14
1	403.2	3377	16

System: ethanol + 2-methylpropane; phases: Gas, Liquid
Property: Mole fraction of 2-methylpropane (Gas); method: Chromatography
Mole fraction of 2-methylpropane	Temperature, K	Mole fraction of 2-methylpropane	uncertainty
0	313.2	0	
0.0766	313.2	0.9204	0.0117
0.1661	313.2	0.9526	0.0021
0.2945	313.2	0.9674	0.002
0.5206	313.3	0.9731	0.002
0.6459	313.3	0.9743	0.002
0.6896	313.2	0.9744	0.002
0.9036	313.2	0.9788	0.002
1	313.2	1	
0	333.2	0	
0.0589	333.2	0.8403	0.0246
0.0765	333.2	0.8687	0.0046
0.19	333.2	0.9274	0.0021
0.4696	333.3	0.952	0.002
0.6858	333.2	0.9559	0.002
0.7333	333.2	0.9575	0.002
0.853	333.2	0.9616	0.002
1	333.2	1	
0	353.2	0	
0.0433	353.3	0.7001	0.0067
0.0516	353.3	0.7342	0.0067
0.2369	353.2	0.9059	0.0021
0.7255	353.2	0.9461	0.002
0.8483	353.3	0.9431	0.002
1	353.2	1	
0	373.2	0	
0.0205	373.2	0.4069	0.0267
0.0489	373.2	0.6256	0.0154
0.2192	373.2	0.8449	0.0025
0.4242	373.2	0.8809	0.0021
0.6886	373.2	0.9031	0.0021
1	373.2	1	
0	403.2	0	
0.0417	403.2	0.4265	0.0068
0.2059	403.2	0.7245	0.0033
0.366	403.2	0.7853	0.0022
0.5466	403.2	0.8156	0.0022
1	403.2	1	

System: ethanol + 2-methylpropane; phases: Liquid, Gas
Property: Azeotropic composition: mole fraction of 2-methylpropane (Liquid); method: By X=Y
Temperature, K	Azeotropic composition: mole fraction of 2-methylpropane	uncertainty
353.2	0.993	0.001
373.2	0.976	0.001
403.2	0.949	0.002

System: ethanol + 2-methylpropane; phases: Liquid, Gas
Property: Azeotropic pressure, kPa (Liquid); method: By X=Y
Temperature, K	Azeotropic pressure, kPa	uncertainty
353.2	1357	8
373.2	2015	12
403.2	3411	21
