Measured thermophysical data. Isobaric low pressure vapor-liquid equilibrium data for the binary system monochloroacetic acid + dichloroacetic acid
Source: Fluid Phase Equilib., 2012, 10.1016/j.fluid.2011.09.020
Compound 1: chloroethanoic acid, C2H3ClO2, InChI=1S/C2H3ClO2/c3-1-2(4)5/h1H2,(H,4,5), purity 99%
Compound 2: 2,2-dichloroacetic acid, C2H2Cl2O2, InChI=1S/C2H2Cl2O2/c3-1(4)2(5)6/h1H,(H,5,6), purity 99%

System: chloroethanoic acid; phases: Liquid, Gas
Property: Vapor or sublimation pressure, kPa (Liquid); method: Ebulliometric method (Recirculating still)
Temperature, K	Vapor or sublimation pressure, kPa	uncertainty
380.7	5	0.1
384.7	6	0.1
389.5	7.5	0.1
391	8	0.1
393.8	9	0.1
396.3	10	0.1
398.7	11	0.1
400.7	12	0.1
402.7	13	0.1
404.6	14	0.1
406.3	15	0.1
410.2	17.5	0.1
413.7	20	0.1
419.5	25	0.1
424.5	30	0.1
432.6	40	0.1

System: 2,2-dichloroacetic acid; phases: Liquid, Gas
Property: Vapor or sublimation pressure, kPa (Liquid); method: Ebulliometric method (Recirculating still)
Temperature, K	Vapor or sublimation pressure, kPa	uncertainty
384.3	5	0.1
388.3	6	0.1
391.8	7	0.1
394.8	8	0.1
397.6	9	0.1
400.2	10	0.1
402.4	11	0.1
404.3	12	0.1
406.4	13	0.1
408.3	14	0.1
410.1	15	0.1
414.1	17.5	0.1
417.5	20	0.1
423.5	25	0.1
428.6	30	0.1
437	40	0.1

System: chloroethanoic acid + 2,2-dichloroacetic acid; phases: Liquid, Gas
Property: Boiling temperature at pressure P, K (Liquid); method: Ebulliometric method (Recirculating still)
Mole fraction of chloroethanoic acid	Pressure, kPa	Boiling temperature at pressure P, K	uncertainty
0.051	5	383.9	0.3
0.051	7.5	393	0.3
0.051	10	399.8	0.3
0.1	5	383.8	0.3
0.101	7.5	392.9	0.3
0.101	10	399.7	0.3
0.2	5	383.5	0.3
0.2	7.5	392.6	0.3
0.2	10	399.5	0.3
0.299	5	383.2	0.3
0.301	7.5	392.4	0.3
0.301	10	399.2	0.3
0.4	5	383	0.3
0.4	7.5	392.1	0.3
0.4	10	398.9	0.3
0.497	5	382.7	0.3
0.499	7.5	391.8	0.3
0.5	10	398.6	0.3
0.599	5	382.1	0.3
0.599	7.5	391.2	0.3
0.599	10	398.1	0.3
0.698	7.5	390.9	0.3
0.698	10	397.7	0.3
0.699	5	381.8	0.3
0.798	5	381.2	0.3
0.798	7.5	390.4	0.3
0.798	10	397.3	0.3
0.898	5	380.8	0.3
0.898	7.5	389.9	0.3
0.898	10	396.8	0.3
0.949	5	380.7	0.3
0.949	7.5	389.7	0.3
0.949	10	396.6	0.3

System: chloroethanoic acid + 2,2-dichloroacetic acid; phases: Gas, Liquid
Property: Mole fraction of chloroethanoic acid (Gas); method: Chromatography
Mole fraction of chloroethanoic acid	Pressure, kPa	Mole fraction of chloroethanoic acid	uncertainty
0.051	5	0.052	0.003
0.051	7.5	0.052	0.003
0.051	10	0.053	0.003
0.1	5	0.106	0.003
0.101	7.5	0.106	0.003
0.101	10	0.106	0.003
0.2	5	0.211	0.004
0.2	7.5	0.212	0.004
0.2	10	0.212	0.004
0.299	5	0.321	0.004
0.301	7.5	0.321	0.004
0.301	10	0.322	0.004
0.4	5	0.428	0.005
0.4	7.5	0.43	0.005
0.4	10	0.431	0.005
0.497	5	0.535	0.006
0.499	7.5	0.536	0.006
0.5	10	0.537	0.006
0.599	5	0.638	0.005
0.599	7.5	0.64	0.005
0.599	10	0.64	0.005
0.698	7.5	0.739	0.005
0.698	10	0.739	0.005
0.699	5	0.738	0.005
0.798	5	0.832	0.004
0.798	7.5	0.833	0.004
0.798	10	0.833	0.004
0.898	5	0.919	0.003
0.898	7.5	0.919	0.003
0.898	10	0.919	0.003
0.949	5	0.961	0.003
0.949	7.5	0.961	0.003
0.949	10	0.961	0.003
