Measured thermophysical data. Thermodynamic properties and spectral investigation of dilute sulfur dioxide in binary system N,N-dimethylformamide + diethylene glycol
Source: Fluid Phase Equilib., 2015, 10.1016/j.fluid.2015.01.019
Compound 1: diethylene glycol, C4H10O3, InChI=1S/C4H10O3/c5-1-3-7-4-2-6/h5-6H,1-4H2, purity 98%
Compound 2: sulfur dioxide, O2S, InChI=1S/O2S/c1-3-2, purity 99.9%
Compound 3: nitrogen, N2, InChI=1S/N2/c1-2
Compound 4: dimethylformamide, C3H7NO, InChI=1S/C3H7NO/c1-4(2)3-5/h3H,1-2H3, purity 98%

System: diethylene glycol + sulfur dioxide + nitrogen; phases: Gas, Liquid
Fixed: Pressure, kPa = 122.66
Property: Partial pressure, kPa of sulfur dioxide (Gas); method: gas chromatography
Temperature, K	Amount concentration (molarity), mol/dm3 of sulfur dioxide	Partial pressure, kPa of sulfur dioxide	uncertainty
298.15	0.00116	0.00725	0.0002
298.15	0.00212	0.0157	0.0004
298.15	0.00426	0.0357	0.00085
298.15	0.0057	0.0477	0.00109
298.15	0.00813	0.0655	0.00149
298.15	0.0111	0.0865	0.00201
298.15	0.0134	0.106	0.00252
303.15	0.00205	0.0123	0.0003
303.15	0.00318	0.0217	0.00055
303.15	0.0048	0.0386	0.00094
303.15	0.00671	0.0554	0.00132
303.15	0.00896	0.0774	0.00178
303.15	0.011	0.0925	0.0021
313.15	0.00109	0.012	0.00032
313.15	0.00274	0.0331	0.00084
313.15	0.00357	0.0479	0.00111
313.15	0.00481	0.0595	0.00144
313.15	0.0063	0.0836	0.00212
313.15	0.00679	0.0922	0.0021
313.15	0.00816	0.106	0.00237
318.15	0.00117	0.0187	0.00044
318.15	0.00178	0.028	0.00069
318.15	0.00235	0.0403	0.00095
318.15	0.00331	0.0532	0.00126
318.15	0.00381	0.064	0.00154
318.15	0.00485	0.0813	0.00193
318.15	0.0057	0.095	0.00224

System: dimethylformamide + sulfur dioxide + nitrogen; phases: Gas, Liquid
Fixed: Pressure, kPa = 122.66
Property: Partial pressure, kPa of sulfur dioxide (Gas); method: gas chromatography
Temperature, K	Amount concentration (molarity), mol/dm3 of sulfur dioxide	Partial pressure, kPa of sulfur dioxide	uncertainty
298.15	0.0108	0.00797	0.00022
298.15	0.0203	0.0174	0.00042
298.15	0.0329	0.0278	0.00067
298.15	0.0674	0.0495	0.00121
298.15	0.106	0.0813	0.00199
298.15	0.128	0.0938	0.00212
303.15	0.0132	0.0147	0.00034
303.15	0.0258	0.0266	0.00065
303.15	0.0398	0.0449	0.00104
303.15	0.0704	0.0714	0.00172
303.15	0.1	0.107	0.00241
303.15	0.12	0.112	0.0023
313.15	0.00971	0.0187	0.00041
313.15	0.02	0.0322	0.00075
313.15	0.028	0.0464	0.00111
313.15	0.0449	0.0758	0.00171
313.15	0.0589	0.0897	0.00206
313.15	0.0692	0.109	0.00271

System: dimethylformamide + diethylene glycol + sulfur dioxide; phases: Gas, Liquid
Property: Partial pressure, kPa of sulfur dioxide (Gas); method: gas chromatography
Solvent: Mole fraction of dimethylformamide	Temperature, K	Amount concentration (molarity), mol/dm3 of sulfur dioxide	Partial pressure, kPa of sulfur dioxide	uncertainty
0	298.15	0.00116	0.00725	0.00015
0	298.15	0.00212	0.0157	0.0003
0	298.15	0.00426	0.0357	0.0007
0	298.15	0.0057	0.0477	0.001
0	298.15	0.00813	0.0655	0.0013
0	298.15	0.0111	0.0865	0.0017
0	298.15	0.0134	0.106	0.002
0	303.15	0.00205	0.0123	0.0003
0	303.15	0.00318	0.0217	0.0004
0	303.15	0.0048	0.0386	0.0008
0	303.15	0.00671	0.0554	0.0011
0	303.15	0.00896	0.0774	0.0015
0	303.15	0.011	0.0925	0.0019
0	313.15	0.00109	0.012	0.0002
0	313.15	0.00274	0.0331	0.0007
0	313.15	0.00357	0.0479	0.001
0	313.15	0.00481	0.0595	0.0012
0	313.15	0.0063	0.0836	0.0017
0	313.15	0.00679	0.0922	0.0018
0	313.15	0.00816	0.106	0.002
0	318.15	0.00117	0.0187	0.0004
0	318.15	0.00178	0.028	0.0006
0	318.15	0.00235	0.0403	0.0008
0	318.15	0.00331	0.0532	0.0011
0	318.15	0.00381	0.064	0.0013
0	318.15	0.00485	0.0813	0.0016
0	318.15	0.0057	0.095	0.0019
0.2507	303.15	0.00162	0.0141	0.0003
0.2507	303.15	0.00319	0.0266	0.0005
0.2507	303.15	0.00628	0.0493	0.001
0.2507	303.15	0.00779	0.0649	0.0013
0.2507	303.15	0.00927	0.0725	0.0015
0.2507	303.15	0.0121	0.0943	0.0019
0.2507	313.15	0.000953	0.0123	0.0003
0.2507	313.15	0.00163	0.0208	0.0004
0.2507	313.15	0.00409	0.0384	0.0008
0.2507	313.15	0.00509	0.0517	0.001
0.2507	313.15	0.00788	0.0746	0.0015
0.2507	313.15	0.00991	0.0955	0.0019
0.2507	313.15	0.0105	0.105	0.002
0.2507	318.15	0.000903	0.0201	0.0004
0.2507	318.15	0.0014	0.0296	0.0006
0.2507	318.15	0.00344	0.0477	0.001
0.2507	318.15	0.00442	0.0649	0.0013
0.2507	318.15	0.00532	0.0746	0.0015
0.2507	318.15	0.00706	0.1	0.002
0.4715	303.15	0.00122	0.00613	0.0002
0.4715	303.15	0.00329	0.0152	0.0004
0.4715	303.15	0.00567	0.0254	0.0007
0.4715	303.15	0.00886	0.0407	0.001
0.4715	303.15	0.0147	0.0575	0.0014
0.4715	303.15	0.0188	0.0787	0.0016
0.4715	313.15	0.00243	0.0208	0.0005
0.4715	313.15	0.00439	0.0326	0.0007
0.4715	313.15	0.00649	0.0472	0.001
0.4715	313.15	0.00797	0.057	0.0012
0.4715	313.15	0.0118	0.0787	0.0017
0.4715	313.15	0.0166	0.106	0.002
0.5723	313.15	0.00156	0.00833	0.00022
0.5723	313.15	0.00251	0.0154	0.0003
0.5723	313.15	0.00433	0.0244	0.0005
0.5723	313.15	0.00478	0.0314	0.0007
0.5723	313.15	0.00661	0.0408	0.0009
0.5723	313.15	0.00719	0.0499	0.0011
0.5723	313.15	0.00923	0.0614	0.0013
0.5723	313.15	0.0126	0.079	0.0017
0.5723	313.15	0.0139	0.0888	0.002
0.5723	313.15	0.015	0.0953	0.0023
0.5723	318.15	0.0014	0.0121	0.0003
0.5723	318.15	0.00357	0.0229	0.0005
0.5723	318.15	0.00455	0.0345	0.0008
0.5723	318.15	0.00598	0.0501	0.001
0.5723	318.15	0.0086	0.0584	0.0012
0.5723	318.15	0.0105	0.0698	0.0014
0.5723	318.15	0.0112	0.0801	0.0016
0.5723	318.15	0.0128	0.0888	0.0018
0.5723	318.15	0.0146	0.102	0.002
0.5723	318.15	0.0166	0.114	0.002
0.6675	303.15	0.00659	0.0167	0.0004
0.6675	303.15	0.01	0.0308	0.0007
0.6675	303.15	0.0142	0.0423	0.0009
0.6675	303.15	0.0201	0.0589	0.0014
0.6675	303.15	0.0267	0.0766	0.0017
0.6675	303.15	0.0311	0.0917	0.0021
0.6675	303.15	0.0373	0.104	0.002
0.6675	313.15	0.00246	0.0156	0.0003
0.6675	313.15	0.00326	0.0205	0.0004
0.6675	313.15	0.00758	0.0359	0.0008
0.6675	313.15	0.0117	0.0525	0.0012
0.6675	313.15	0.0142	0.0638	0.0015
0.6675	313.15	0.0175	0.0794	0.0018
0.6675	313.15	0.0261	0.104	0.002
0.6675	318.15	0.00231	0.0139	0.0003
0.6675	318.15	0.00386	0.0233	0.0005
0.6675	318.15	0.00617	0.041	0.001
0.6675	318.15	0.00913	0.0586	0.0013
0.6675	318.15	0.0121	0.0801	0.0017
0.6675	318.15	0.0149	0.0946	0.0021
0.6675	318.15	0.018	0.11	0.002
0.8426	303.15	0.00299	0.00732	0.00015
0.8426	303.15	0.00998	0.0183	0.0004
0.8426	303.15	0.0213	0.0358	0.0008
0.8426	303.15	0.0316	0.0543	0.0012
0.8426	303.15	0.0401	0.0695	0.0014
0.8426	303.15	0.0521	0.0818	0.0017
0.8426	303.15	0.0636	0.103	0.002
0.8426	313.15	0.00293	0.0102	0.0002
0.8426	313.15	0.00744	0.0227	0.0005
0.8426	313.15	0.0115	0.0343	0.0007
0.8426	313.15	0.0166	0.0472	0.001
0.8426	313.15	0.0247	0.0679	0.0014
0.8426	313.15	0.03	0.0836	0.0017
0.8426	313.15	0.0371	0.101	0.002
0.8426	318.15	0.00336	0.0122	0.0003
0.8426	318.15	0.00697	0.0227	0.0005
0.8426	318.15	0.0112	0.0373	0.0009
0.8426	318.15	0.0146	0.0505	0.0011
0.8426	318.15	0.0199	0.0684	0.0015
0.8426	318.15	0.0235	0.0782	0.0016
0.8426	318.15	0.0291	0.0942	0.0019
0.4715	318.15	0.00148	0.013	0.0004
0.4715	318.15	0.00328	0.0288	0.0007
0.4715	318.15	0.00599	0.0475	0.0011
0.4715	318.15	0.00689	0.0509	0.0014
0.4715	318.15	0.00785	0.0633	0.0017
0.4715	318.15	0.0117	0.0901	0.002
0.4715	318.15	0.0157	0.115	0.002
0.5723	303.15	0.00261	0.00908	0.0002
0.5723	303.15	0.00382	0.0152	0.0003
0.5723	303.15	0.00719	0.0264	0.0006
0.5723	303.15	0.00913	0.0387	0.0009
0.5723	303.15	0.012	0.0521	0.0012
0.5723	303.15	0.0141	0.0615	0.0013
0.5723	303.15	0.015	0.0664	0.0014
0.5723	303.15	0.0188	0.0824	0.0018
0.5723	303.15	0.0227	0.0974	0.0025
0.5723	303.15	0.027	0.114	0.003
0.5723	308.15	0.00191	0.00808	0.00017
0.5723	308.15	0.00407	0.0146	0.0004
0.5723	308.15	0.00603	0.0229	0.0006
0.5723	308.15	0.00792	0.036	0.0009
0.5723	308.15	0.00945	0.043	0.0009
0.5723	308.15	0.013	0.0628	0.0013
0.5723	308.15	0.0147	0.0738	0.0016
0.5723	308.15	0.0163	0.0847	0.0018
0.5723	308.15	0.0168	0.0883	0.0018
0.5723	308.15	0.0195	0.11	0.002
0.8426	318.15	0.0353	0.11	0.002
1	298.15	0.0108	0.00797	0.00016
1	298.15	0.0203	0.0174	0.0004
1	298.15	0.0329	0.0278	0.0006
1	298.15	0.0674	0.0495	0.001
1	298.15	0.106	0.0813	0.0016
1	298.15	0.128	0.0938	0.0019
1	303.15	0.0132	0.0147	0.0003
1	303.15	0.0258	0.0266	0.0005
1	303.15	0.0398	0.0449	0.0009
1	303.15	0.0704	0.0714	0.0014
1	303.15	0.1	0.107	0.002
1	303.15	0.12	0.112	0.002
1	313.15	0.00971	0.0187	0.0004
1	313.15	0.02	0.0322	0.0006
1	313.15	0.028	0.0464	0.0009
1	313.15	0.0449	0.0758	0.0015
1	313.15	0.0589	0.0897	0.0018
1	313.15	0.0692	0.109	0.002

System: diethylene glycol + sulfur dioxide; phases: Gas, Liquid
Property: Partial pressure, kPa of sulfur dioxide (Gas); method: gas chromatography
Temperature, K	Amount concentration (molarity), mol/dm3 of sulfur dioxide	Partial pressure, kPa of sulfur dioxide	uncertainty
298.15	0.00116	0.00725	0.00015
298.15	0.00212	0.0157	0.0003
298.15	0.00426	0.0357	0.0007
298.15	0.0057	0.0477	0.001
298.15	0.00813	0.0655	0.0013
298.15	0.0111	0.0865	0.0017
298.15	0.0134	0.106	0.002
303.15	0.00205	0.0123	0.0003
303.15	0.00318	0.0217	0.0004
303.15	0.0048	0.0386	0.0008
303.15	0.00671	0.0554	0.0011
303.15	0.00896	0.0774	0.0015
303.15	0.011	0.0925	0.0019
313.15	0.00109	0.012	0.0002
313.15	0.00274	0.0331	0.0007
313.15	0.00357	0.0479	0.001
313.15	0.00481	0.0595	0.0012
313.15	0.0063	0.0836	0.0017
313.15	0.00679	0.0922	0.0018
313.15	0.00816	0.106	0.002
318.15	0.00117	0.0187	0.0004
318.15	0.00178	0.028	0.0006
318.15	0.00235	0.0403	0.0008
318.15	0.00331	0.0532	0.0011
318.15	0.00381	0.064	0.0013
318.15	0.00485	0.0813	0.0016
318.15	0.0057	0.095	0.0019

System: dimethylformamide + sulfur dioxide; phases: Gas, Liquid
Property: Partial pressure, kPa of sulfur dioxide (Gas); method: gas chromatography
Temperature, K	Amount concentration (molarity), mol/dm3 of sulfur dioxide	Partial pressure, kPa of sulfur dioxide	uncertainty
298.15	0.0108	0.00797	0.00016
298.15	0.0203	0.0174	0.0004
298.15	0.0329	0.0278	0.0006
298.15	0.0674	0.0495	0.001
298.15	0.106	0.0813	0.0016
298.15	0.128	0.0938	0.0019
303.15	0.0132	0.0147	0.0003
303.15	0.0258	0.0266	0.0005
303.15	0.0398	0.0449	0.0009
303.15	0.0704	0.0714	0.0014
303.15	0.1	0.107	0.002
303.15	0.12	0.112	0.002
313.15	0.00971	0.0187	0.0004
313.15	0.02	0.0322	0.0006
313.15	0.028	0.0464	0.0009
313.15	0.0449	0.0758	0.0015
313.15	0.0589	0.0897	0.0018
313.15	0.0692	0.109	0.002
