Measured thermophysical data. Solubility of CO2/CH4 gas mixtures in ionic liquids
Source: Fluid Phase Equilib., 2014, 10.1016/j.fluid.2014.05.007
Compound 1: carbon dioxide, CO2, InChI=1S/CO2/c2-1-3, purity 99.995%
Compound 2: methane, CH4, InChI=1S/CH4/h1H4, purity 99.995%
Compound 3: 1-butyl-3-methylimidazolium bis(trifluoromethylsulfonyl)imide, C10H15F6N3O4S2, InChI=1S/C8H15N2.C2F6NO4S2/c1-3-4-5-10-7-6-9(2)8-10;3-1(4,5)14(10,11)9-15(12,13)2(6,7)8/h6-8H,3-5H2,1-2H3;/q+1;-1, purity 98%
Compound 4: 1-ethyl-3-methylimidazolium diethyl phosphate, C10H21N2O4P, InChI=1S/C6H11N2.C4H11O4P/c1-3-8-5-4-7(2)6-8;1-3-7-9(5,6)8-4-2/h4-6H,3H2,1-2H3;3-4H2,1-2H3,(H,5,6)/q+1;/p-1, purity 98%
Compound 5: tetradecyl(trihexyl)phosphonium dicyanamide, C34H68N3P, InChI=1S/C32H68P.C2N3/c1-5-9-13-17-18-19-20-21-22-23-24-28-32-33(29-25-14-10-6-2,30-26-15-11-7-3)31-27-16-12-8-4;3-1-5-2-4/h5-32H2,1-4H3;/q+1;-1, purity 95%
Compound 6: trihexyltetradecylphosphonium bis(2,4,4-trimethylpentyl)phosphinate, C48H102O2P2, InChI=1S/C32H68P.C16H35O2P/c1-5-9-13-17-18-19-20-21-22-23-24-28-32-33(29-25-14-10-6-2,30-26-15-11-7-3)31-27-16-12-8-4;1-13(9-15(3,4)5)11-19(17,18)12-14(2)10-16(6,7)8/h5-32H2,1-4H3;13-14H,9-12H2,1-8H3,(H,17,18)/q+1;/p-1, purity 95%

System: methane + carbon dioxide + 1-butyl-3-methylimidazolium bis(trifluoromethylsulfonyl)imide; phases: Liquid, Gas
Property: Vapor or sublimation pressure, kPa (Liquid); method: visual synthetic method
Mole fraction of carbon dioxide	Mole fraction of methane	Temperature, K	Vapor or sublimation pressure, kPa	uncertainty
0.014	0.04	303.25	1872	485
0.014	0.04	313.22	1972	507
0.014	0.04	323.19	2062	528
0.014	0.04	333.19	2147	545
0.014	0.04	343.19	2227	563
0.014	0.04	353.25	2292	580
0.014	0.04	363.22	2362	595
0.04	0.039	303.25	1981	488
0.04	0.039	313.2	2086	509
0.04	0.039	323.18	2191	531
0.04	0.039	333.18	2306	549
0.04	0.039	343.2	2407	567
0.04	0.039	353.22	2512	586
0.04	0.039	363.2	2602	601
0.108	0.037	303.21	2237	526
0.108	0.037	313.22	2407	551
0.108	0.037	323.21	2582	573
0.108	0.037	333.24	2758	599
0.108	0.037	343.21	2933	623
0.108	0.037	353.23	3108	641
0.108	0.037	363.27	3288	661
0.037	0.11	303.43	6045	710
0.037	0.11	313.43	6326	738
0.037	0.11	323.4	6606	767
0.037	0.11	333.19	6846	791
0.037	0.11	343.38	7086	816
0.037	0.11	353.32	7316	838
0.037	0.11	363.34	7517	859
0.103	0.102	303.53	6230	697
0.103	0.102	313.41	6570	732
0.103	0.102	323.32	6881	764
0.103	0.102	333.33	7231	799
0.103	0.102	343.3	7551	831
0.103	0.102	353.29	7831	858
0.103	0.102	363.19	8112	885
0.189	0.064	303.25	4500	704
0.189	0.064	313.2	4856	741
0.189	0.064	333.22	5581	808
0.189	0.064	323.26	5221	775
0.189	0.064	343.22	5941	838
0.189	0.064	353.22	6307	868
0.189	0.064	363.27	6672	892
0.053	0.158	303.23	10053	1008
0.053	0.158	313.25	10468	1045
0.053	0.158	323.19	10854	1077
0.053	0.158	333.21	11199	1109
0.053	0.158	343.19	11544	1139
0.053	0.158	353.2	11835	1163
0.053	0.158	363.3	12105	1186
0.144	0.143	303.19	10349	1055
0.144	0.143	313.17	10915	1105
0.144	0.143	323.18	11430	1154
0.144	0.143	333.19	11946	1195
0.144	0.143	343.2	12406	1235
0.144	0.143	353.19	12866	1276
0.252	0.085	303.26	6860	838
0.252	0.085	313.2	7401	888
0.252	0.085	323.23	7942	936
0.252	0.085	333.24	8527	986
0.252	0.085	343.2	9067	1032
0.252	0.085	353.26	9612	1076
0.252	0.085	363.28	10147	1125

System: methane + carbon dioxide + 1-ethyl-3-methylimidazolium diethyl phosphate; phases: Liquid, Gas
Property: Vapor or sublimation pressure, kPa (Liquid); method: visual synthetic method
Mole fraction of carbon dioxide	Mole fraction of methane	Temperature, K	Vapor or sublimation pressure, kPa	uncertainty
0.007	0.02	303.42	1733	138
0.007	0.02	313.38	1813	149
0.007	0.02	323.34	1893	159
0.007	0.02	333.35	1964	168
0.007	0.02	343.32	2034	175
0.007	0.02	353.31	2084	184
0.007	0.02	363.32	2144	194
0.02	0.02	303.25	1793	144
0.02	0.02	313.18	1903	157
0.02	0.02	323.17	2003	169
0.02	0.02	333.16	2094	180
0.02	0.02	343.19	2169	188
0.02	0.02	353.21	2249	202
0.02	0.02	363.22	2329	214
0.056	0.019	303.44	2024	165
0.056	0.019	313.44	2194	181
0.056	0.019	323.35	2355	198
0.056	0.019	333.45	2515	216
0.056	0.019	343.43	2675	236
0.056	0.019	353.4	2835	255
0.011	0.032	303.4	2892	228
0.011	0.032	313.38	3042	241
0.011	0.032	323.42	3142	252
0.011	0.032	333.38	3263	266
0.011	0.032	343.36	3363	277
0.011	0.032	353.37	3463	289
0.011	0.032	363.35	3563	301
0.032	0.031	303.2	2997	240
0.032	0.031	313.2	3152	258
0.032	0.031	323.18	3312	274
0.032	0.031	333.18	3468	293
0.032	0.031	343.24	3608	310
0.032	0.031	353.21	3743	331
0.032	0.031	363.25	3878	351
0.087	0.03	303.4	3358	265
0.087	0.03	313.4	3623	289
0.087	0.03	323.37	3893	313
0.087	0.03	333.38	4159	338
0.087	0.03	353.35	4699	390
0.087	0.03	343.36	4424	363
0.087	0.03	363.36	4964	416
0.016	0.046	303.43	4455	347
0.016	0.046	313.41	4620	361
0.016	0.046	323.4	4795	379
0.016	0.046	333.43	4975	395
0.016	0.046	343.5	5130	410
0.016	0.046	353.53	5280	425
0.016	0.046	363.53	5415	440
0.045	0.045	303.43	4554	356
0.045	0.045	313.39	4785	371
0.045	0.045	323.37	5055	392
0.045	0.045	333.37	5266	408
0.045	0.045	343.35	5486	426
0.045	0.045	353.3	5686	441
0.045	0.045	363.34	5886	475
0.122	0.041	303.2	5164	406
0.122	0.041	313.21	5539	437
0.122	0.041	323.21	5980	473
0.122	0.041	333.23	6395	510
0.122	0.041	343.25	6820	547
0.122	0.041	353.2	7246	585

System: methane + carbon dioxide + tetradecyl(trihexyl)phosphonium dicyanamide; phases: Liquid, Gas
Property: Vapor or sublimation pressure, kPa (Liquid); method: visual synthetic method
Mole fraction of carbon dioxide	Mole fraction of methane	Temperature, K	Vapor or sublimation pressure, kPa	uncertainty
0.026	0.077	302.16	1517	225
0.026	0.077	312.26	1602	235
0.026	0.077	322.49	1682	248
0.026	0.077	332.48	1767	255
0.026	0.077	342.26	1842	263
0.026	0.077	352.36	1903	273
0.026	0.077	362.52	1972	282
0.047	0.141	303.39	3139	329
0.047	0.141	312.63	3302	347
0.047	0.141	322.73	3488	363
0.047	0.141	332.58	3643	379
0.047	0.141	342.67	3803	395
0.047	0.141	352.74	3918	397
0.047	0.141	362.69	4034	408
0.074	0.076	302.52	1670	235
0.074	0.073	312.86	1785	258
0.074	0.073	322.45	1886	266
0.074	0.073	332.45	2001	277
0.074	0.073	342.54	2111	288
0.074	0.073	352.49	2211	298
0.074	0.073	362.55	2311	296
0.13	0.129	303.26	3463	364
0.13	0.129	313.25	3698	380
0.13	0.129	323.24	3934	406
0.13	0.129	333.22	4139	429
0.13	0.129	343.28	4354	459
0.19	0.064	303.63	2174	275
0.19	0.064	312.58	2354	288
0.19	0.064	322.58	2573	309
0.19	0.064	332.59	2769	325
0.19	0.064	342.58	2960	342
0.19	0.064	352.61	3145	388
0.19	0.064	362.74	3325	405
0.304	0.103	302.57	4309	454
0.304	0.103	312.44	4709	652
0.304	0.103	322.56	5139	480
0.304	0.103	332.55	5530	512
0.304	0.103	342.56	5925	544
0.304	0.103	352.6	6330	577
0.304	0.103	362.67	6715	608
0.035	0.104	303.23	2198	257
0.035	0.104	313.23	2313	271
0.035	0.104	323.27	2439	287
0.035	0.104	333.24	2533	298
0.035	0.104	343.27	2628	311
0.035	0.104	353.58	2728	320
0.035	0.104	363.4	2818	329
0.064	0.192	303.6	4731	438
0.064	0.192	313.95	4996	460
0.064	0.192	323.19	5211	479
0.064	0.192	333.18	5421	498
0.064	0.192	343.24	5636	516
0.098	0.097	302.86	2397	288
0.098	0.097	312.37	2567	303
0.098	0.097	322.4	2728	319
0.098	0.097	332.47	2878	334
0.098	0.097	342.44	3023	348
0.098	0.097	352.55	3163	349
0.098	0.097	362.45	3293	362
0.172	0.17	322.39	5824	537
0.172	0.17	332.45	6154	566
0.172	0.17	342.46	6464	593
0.172	0.17	352.51	6770	613
0.172	0.17	362.5	7050	638
0.241	0.082	303.21	3029	348
0.241	0.082	313.16	3299	370
0.241	0.082	323.13	3585	391
0.241	0.082	333.23	3860	415
0.241	0.082	343.2	4145	440
0.241	0.082	353.4	4420	463
0.241	0.082	363.53	4685	485
0.377	0.128	302.57	6402	635
0.377	0.128	312.44	7007	693
0.377	0.128	322.56	7662	752
0.377	0.128	332.55	8283	813
0.377	0.128	342.56	8893	871
0.377	0.128	352.6	9483	942
0.377	0.128	362.67	10064	1088

System: methane + carbon dioxide + trihexyltetradecylphosphonium bis(2,4,4-trimethylpentyl)phosphinate; phases: Liquid, Gas
Property: Vapor or sublimation pressure, kPa (Liquid); method: visual synthetic method
Mole fraction of carbon dioxide	Mole fraction of methane	Temperature, K	Vapor or sublimation pressure, kPa	uncertainty
0.035	0.103	302.44	1051	135
0.035	0.103	312.63	1113	141
0.035	0.103	322.63	1176	150
0.035	0.103	332.66	1237	157
0.035	0.103	342.64	1297	164
0.035	0.103	352.75	1362	172
0.035	0.103	362.81	1414	179
0.086	0.255	303.29	3483	326
0.086	0.255	313.18	3698	345
0.086	0.255	323.21	3923	370
0.086	0.255	333.22	4103	388
0.086	0.255	343.2	4298	403
0.086	0.255	353.19	4483	421
0.086	0.255	363.29	4678	439
0.097	0.096	303.25	1083	137
0.097	0.096	313.25	1158	143
0.097	0.096	323.23	1242	153
0.097	0.096	333.2	1322	161
0.097	0.096	343.15	1412	169
0.097	0.096	353.23	1508	179
0.097	0.096	363.12	1608	189
0.22	0.218	303.26	3914	399
0.22	0.218	313.25	4159	429
0.22	0.218	323.24	4424	462
0.22	0.218	333.22	4669	484
0.22	0.218	343.28	4915	507
0.22	0.218	353.32	5184	539
0.22	0.218	363.29	5474	568
0.24	0.081	303.19	1492	191
0.24	0.081	313.08	1632	204
0.24	0.081	323.31	1777	218
0.24	0.081	332.52	1917	230
0.24	0.081	342.08	2074	243
0.24	0.081	351.97	2239	257
0.24	0.081	362.74	2443	274
0.452	0.153	303.31	5305	479
0.452	0.153	312.54	5780	522
0.452	0.153	322.81	6370	569
0.452	0.153	332.57	6831	613
0.452	0.153	342.71	7396	657
0.452	0.153	352.86	7886	702
0.452	0.153	362.97	8442	749
0.061	0.183	304.01	2176	219
0.061	0.183	312.58	2266	230
0.061	0.183	322.64	2417	246
0.061	0.183	332.61	2527	256
0.061	0.183	342.62	2647	269
0.061	0.183	352.7	2777	281
0.061	0.183	362.72	2897	293
0.099	0.295	303.16	4427	389
0.099	0.295	313.17	4688	413
0.099	0.295	323.23	4999	439
0.099	0.295	333.28	5259	464
0.099	0.295	343.3	5463	481
0.099	0.295	353.16	5703	502
0.099	0.295	363.26	5944	523
0.164	0.163	303.27	2357	259
0.164	0.163	313.37	2503	273
0.164	0.163	322.23	2678	290
0.164	0.163	332.24	2843	302
0.164	0.163	342.6	3048	318
0.164	0.163	352.7	3224	333
0.164	0.163	362.76	3409	351
0.248	0.246	303.252	4921	441
0.248	0.246	313.236	5261	475
0.248	0.246	323.233	5606	505
0.248	0.246	333.259	5912	534
0.248	0.246	343.344	6228	564
0.248	0.246	353.309	6583	595
0.248	0.246	363.259	6943	626
0.365	0.124	303.32	3278	317
0.365	0.124	313.19	3583	344
0.365	0.124	323.26	3948	372
0.365	0.124	333.19	4203	393
0.365	0.124	343.17	4563	421
0.365	0.124	353.15	4854	446
0.365	0.124	363.16	5194	475
