Measured thermophysical data. Isothermal vapour-liquid equilibria in the binary and ternary systems composed of 2,2,4-trimethylpentane, 2-methyl-1-propanol, and 4-methyl-2-pentanone
Source: Fluid Phase Equilib., 2011, 10.1016/j.fluid.2011.05.011
Compound 1: 2,2,4-trimethylpentane, C8H18, InChI=1S/C8H18/c1-7(2)6-8(3,4)5/h7H,6H2,1-5H3, purity 99.5%
Compound 2: 2-methyl-1-propanol, C4H10O, InChI=1S/C4H10O/c1-4(2)3-5/h4-5H,3H2,1-2H3, purity 99.5%
Compound 3: 4-methylpentan-2-one, C6H12O, InChI=1S/C6H12O/c1-5(2)4-6(3)7/h5H,4H2,1-3H3, purity 99%

System: 2-methyl-1-propanol + 2,2,4-trimethylpentane; phases: Liquid, Gas
Property: Azeotropic pressure, kPa (Liquid); method: By X=Y
Temperature, K	Azeotropic pressure, kPa	uncertainty
333.15	33.5	0.32
348.15	58.51	0.44
364.15	100.45	0.63

System: 2-methyl-1-propanol + 2,2,4-trimethylpentane; phases: Liquid, Gas
Property: Azeotropic composition: mole fraction of 2,2,4-trimethylpentane (Liquid); method: By X=Y
Temperature, K	Azeotropic composition: mole fraction of 2,2,4-trimethylpentane	uncertainty
333.15	0.7782	0.0033
348.15	0.7263	0.0036
364.15	0.6708	0.004

System: 2-methyl-1-propanol + 2,2,4-trimethylpentane; phases: Gas, Liquid
Property: Vapor or sublimation pressure, kPa (Gas); method: Ebulliometric method (Recirculating still)
Temperature, K	Mole fraction of 2,2,4-trimethylpentane	Vapor or sublimation pressure, kPa	uncertainty
333.15	0	12.38	0.09
333.15	0.0269	15.83	0.26
333.15	0.0507	18.34	0.21
333.15	0.1114	23.12	0.18
333.15	0.2138	27.98	0.17
333.15	0.3683	31.1	0.18
333.15	0.4969	32.39	0.18
333.15	0.6059	33.05	0.18
333.15	0.7055	33.42	0.18
333.15	0.8041	33.46	0.18
333.15	0.9263	32.67	0.18
333.15	0.9828	30.36	0.2
333.15	1	28.64	0.16
348.15	0	26.07	0.15
348.15	0.0308	31.98	0.39
348.15	0.0595	36.39	0.28
348.15	0.1206	43.24	0.26
348.15	0.2304	50.58	0.26
348.15	0.3818	55.3	0.28
348.15	0.5089	57.3	0.28
348.15	0.6152	58.19	0.28
348.15	0.7162	58.52	0.28
348.15	0.813	58.28	0.28
348.15	0.9304	55.82	0.28
348.15	0.9819	51.33	0.29
348.15	1	48.29	0.24
364.15	0	52.69	0.25
364.15	0.0352	62.39	0.57
364.15	0.0694	69.69	0.48
364.15	0.1269	78.94	0.42
364.15	0.2478	90	0.43
364.15	0.3993	96.58	0.44
364.15	0.5225	99.31	0.45
364.15	0.6242	100.35	0.45
364.15	0.7268	100.23	0.45
364.15	0.8231	98.92	0.45
364.15	0.9323	92.66	0.45
364.15	0.981	84.61	0.53
364.15	1	80.03	0.37

System: 2-methyl-1-propanol + 2,2,4-trimethylpentane; phases: Gas, Liquid
Property: Mole fraction of 2,2,4-trimethylpentane (Gas); method: Chromatography
Temperature, K	Mole fraction of 2,2,4-trimethylpentane	Mole fraction of 2,2,4-trimethylpentane	uncertainty
333.15	0	0	
333.15	0.0269	0.2347	0.0141
333.15	0.0507	0.3483	0.0073
333.15	0.1114	0.5134	0.0056
333.15	0.2138	0.6234	0.004
333.15	0.3683	0.6878	0.0034
333.15	0.4969	0.7196	0.0032
333.15	0.6059	0.741	0.003
333.15	0.7055	0.7613	0.0029
333.15	0.8041	0.7857	0.0028
333.15	0.9263	0.8388	0.0028
333.15	0.9828	0.9262	0.0046
333.15	1	1	
348.15	0	0	
348.15	0.0308	0.2053	0.011
348.15	0.0595	0.315	0.0062
348.15	0.1206	0.4537	0.0052
348.15	0.2304	0.5683	0.0044
348.15	0.3818	0.6355	0.0038
348.15	0.5089	0.6717	0.0035
348.15	0.6152	0.6987	0.0033
348.15	0.7162	0.7242	0.0031
348.15	0.813	0.7554	0.0031
348.15	0.9304	0.8276	0.0031
348.15	0.9819	0.9281	0.005
348.15	1	1	
364.15	0	0	
364.15	0.0352	0.1788	0.0085
364.15	0.0694	0.2809	0.0056
364.15	0.1269	0.3948	0.0046
364.15	0.2478	0.5115	0.0048
364.15	0.3993	0.5835	0.0042
364.15	0.5225	0.6258	0.0038
364.15	0.6242	0.6568	0.0036
364.15	0.7268	0.69	0.0034
364.15	0.8231	0.7307	0.0033
364.15	0.9323	0.8228	0.0035
364.15	0.981	0.9304	0.0055
364.15	1	1	

System: 2-methyl-1-propanol + 4-methylpentan-2-one; phases: Liquid, Gas
Property: Azeotropic pressure, kPa (Liquid); method: By X=Y
Temperature, K	Azeotropic pressure, kPa	uncertainty
333.15	15.58	0.23
348.15	29.48	0.3
364.15	55.1	0.42

System: 2-methyl-1-propanol + 4-methylpentan-2-one; phases: Liquid, Gas
Property: Azeotropic composition: mole fraction of 2-methyl-1-propanol (Liquid); method: By X=Y
Temperature, K	Azeotropic composition: mole fraction of 2-methyl-1-propanol	uncertainty
333.15	0.362	0.0043
348.15	0.5024	0.0054
364.15	0.6713	0.0041

System: 2-methyl-1-propanol + 4-methylpentan-2-one; phases: Gas, Liquid
Property: Vapor or sublimation pressure, kPa (Gas); method: Ebulliometric method (Recirculating still)
Temperature, K	Mole fraction of 2-methyl-1-propanol	Vapor or sublimation pressure, kPa	uncertainty
333.15	0	14.45	0.1
333.15	0.0307	14.62	0.1
333.15	0.0827	14.87	0.1
333.15	0.1603	15.2	0.1
333.15	0.265	15.53	0.11
333.15	0.349	15.58	0.11
333.15	0.4518	15.53	0.11
333.15	0.5344	15.39	0.11
333.15	0.6225	15.15	0.11
333.15	0.7245	14.7	0.1
333.15	0.8136	14.2	0.1
333.15	0.8866	13.63	0.1
333.15	0.9349	13.16	0.1
333.15	0.9715	12.76	0.1
333.15	0.9916	12.5	0.1
333.15	1	12.38	0.09
348.15	0	26.31	0.15
348.15	0.0304	26.68	0.15
348.15	0.0817	27.28	0.15
348.15	0.1552	28.02	0.16
348.15	0.2615	28.75	0.16
348.15	0.3426	29.25	0.16
348.15	0.4422	29.48	0.16
348.15	0.5279	29.45	0.16
348.15	0.6126	29.3	0.16
348.15	0.7142	28.93	0.16
348.15	0.8049	28.34	0.16
348.15	0.8795	27.66	0.16
348.15	0.9308	27.1	0.15
348.15	0.9693	26.54	0.15
348.15	0.991	26.19	0.17
348.15	1	26.07	0.15
364.15	0	46.64	0.23
364.15	0.0306	47.42	0.24
364.15	0.0804	48.65	0.24
364.15	0.1549	50.26	0.25
364.15	0.2549	52.37	0.25
364.15	0.3402	53.39	0.26
364.15	0.4346	54.31	0.26
364.15	0.5185	54.82	0.26
364.15	0.6059	55.05	0.26
364.15	0.7063	55.08	0.26
364.15	0.7971	54.78	0.26
364.15	0.8744	54.28	0.26
364.15	0.9271	53.75	0.26
364.15	0.9675	53.18	0.26
364.15	0.9905	52.82	0.26
364.15	1	52.68	0.26

System: 2-methyl-1-propanol + 4-methylpentan-2-one; phases: Gas, Liquid
Property: Mole fraction of 2-methyl-1-propanol (Gas); method: Chromatography
Temperature, K	Mole fraction of 2-methyl-1-propanol	Mole fraction of 2-methyl-1-propanol	uncertainty
333.15	0	0	
333.15	0.0307	0.0432	0.0033
333.15	0.0827	0.1076	0.0031
333.15	0.1603	0.1896	0.0032
333.15	0.265	0.2874	0.0036
333.15	0.349	0.3527	0.0039
333.15	0.4518	0.4285	0.0044
333.15	0.5344	0.4917	0.0049
333.15	0.6225	0.5568	0.0046
333.15	0.7245	0.6403	0.0041
333.15	0.8136	0.7282	0.0038
333.15	0.8866	0.8149	0.0036
333.15	0.9349	0.8839	0.0038
333.15	0.9715	0.9457	0.0041
333.15	0.9916	0.9833	0.0043
333.15	1	1	
348.15	0	0	
348.15	0.0304	0.0452	0.0034
348.15	0.0817	0.1105	0.0033
348.15	0.1552	0.2013	0.0034
348.15	0.2615	0.3057	0.0038
348.15	0.3426	0.3759	0.0041
348.15	0.4422	0.4562	0.0047
348.15	0.5279	0.5213	0.0048
348.15	0.6126	0.5884	0.0044
348.15	0.7142	0.6731	0.0039
348.15	0.8049	0.757	0.0035
348.15	0.8795	0.8377	0.0033
348.15	0.9308	0.9006	0.0034
348.15	0.9693	0.9534	0.0035
348.15	0.991	0.9859	0.0036
348.15	1	1	
364.15	0	0	
364.15	0.0306	0.0463	0.0035
364.15	0.0804	0.114	0.0034
364.15	0.1549	0.2064	0.0035
364.15	0.2549	0.3167	0.0039
364.15	0.3402	0.3921	0.0043
364.15	0.4346	0.4784	0.0049
364.15	0.5185	0.5485	0.0047
364.15	0.6059	0.6178	0.0042
364.15	0.7063	0.7013	0.0037
364.15	0.7971	0.7823	0.0033
364.15	0.8744	0.8574	0.0031
364.15	0.9271	0.9132	0.0031
364.15	0.9675	0.9599	0.0031
364.15	0.9905	0.988	0.0032
364.15	1	1	

System: 4-methylpentan-2-one + 2,2,4-trimethylpentane; phases: Liquid, Gas
Property: Azeotropic pressure, kPa (Liquid); method: By X=Y
Temperature, K	Azeotropic pressure, kPa	uncertainty
333.15	29.06	0.29
348.15	49.23	0.39
364.15	81.88	0.54

System: 4-methylpentan-2-one + 2,2,4-trimethylpentane; phases: Liquid, Gas
Property: Azeotropic composition: mole fraction of 2,2,4-trimethylpentane (Liquid); method: By X=Y
Temperature, K	Azeotropic composition: mole fraction of 2,2,4-trimethylpentane	uncertainty
333.15	0.8775	0.0027
348.15	0.8645	0.0027
364.15	0.8439	0.0029

System: 4-methylpentan-2-one + 2,2,4-trimethylpentane; phases: Gas, Liquid
Property: Vapor or sublimation pressure, kPa (Gas); method: Ebulliometric method (Recirculating still)
Temperature, K	Mole fraction of 2,2,4-trimethylpentane	Vapor or sublimation pressure, kPa	uncertainty
333.15	0	14.45	0.1
333.15	0.0049	14.68	0.14
333.15	0.0184	15.4	0.14
333.15	0.0503	16.88	0.14
333.15	0.0852	18.22	0.14
333.15	0.1427	20.21	0.14
333.15	0.2368	22.72	0.14
333.15	0.3263	24.45	0.15
333.15	0.4329	26.05	0.15
333.15	0.5487	27.36	0.16
333.15	0.6407	28.13	0.16
333.15	0.7531	28.77	0.16
333.15	0.8174	28.99	0.16
333.15	0.8674	29.06	0.16
333.15	0.9208	28.99	0.16
333.15	1	28.64	0.16
348.15	0	26.31	0.15
348.15	0.0056	26.75	0.15
348.15	0.02	27.88	0.18
348.15	0.0549	30.27	0.21
348.15	0.0913	32.52	0.2
348.15	0.1489	35.62	0.2
348.15	0.2427	39.36	0.21
348.15	0.3331	42.18	0.22
348.15	0.4397	44.79	0.23
348.15	0.5554	46.79	0.23
348.15	0.6456	47.96	0.24
348.15	0.7558	48.91	0.24
348.15	0.8188	49.19	0.24
348.15	0.8676	49.22	0.24
348.15	0.921	49.1	0.24
348.15	1	48.29	0.24
364.15	0	46.64	0.23
364.15	0.006	47.33	0.33
364.15	0.0217	49.14	0.32
364.15	0.0589	53	0.32
364.15	0.096	56.51	0.32
364.15	0.1562	61.25	0.32
364.15	0.2503	66.94	0.33
364.15	0.342	71.48	0.34
364.15	0.4445	75.31	0.35
364.15	0.5599	78.43	0.36
364.15	0.6475	80.13	0.37
364.15	0.7575	81.44	0.37
364.15	0.8198	81.85	0.37
364.15	0.869	81.83	0.37
364.15	0.9213	81.55	0.37
364.15	1	80.03	0.37

System: 4-methylpentan-2-one + 2,2,4-trimethylpentane; phases: Gas, Liquid
Property: Mole fraction of 2,2,4-trimethylpentane (Gas); method: Chromatography
Temperature, K	Mole fraction of 2,2,4-trimethylpentane	Mole fraction of 2,2,4-trimethylpentane	uncertainty
333.15	0	0	
333.15	0.0049	0.0217	0.0086
333.15	0.0184	0.0771	0.0074
333.15	0.0503	0.185	0.0062
333.15	0.0852	0.2677	0.0051
333.15	0.1427	0.3741	0.0048
333.15	0.2368	0.491	0.0051
333.15	0.3263	0.5625	0.0045
333.15	0.4329	0.6301	0.0039
333.15	0.5487	0.6923	0.0035
333.15	0.6407	0.738	0.0032
333.15	0.7531	0.7972	0.0029
333.15	0.8174	0.8353	0.0028
333.15	0.8674	0.8696	0.0027
333.15	0.9208	0.9132	0.0029
333.15	1	1	
348.15	0	0	
348.15	0.0056	0.0212	0.0076
348.15	0.02	0.0737	0.0064
348.15	0.0549	0.1737	0.0057
348.15	0.0913	0.2568	0.0049
348.15	0.1489	0.3603	0.0046
348.15	0.2427	0.4689	0.0049
348.15	0.3331	0.5449	0.0046
348.15	0.4397	0.6153	0.004
348.15	0.5554	0.6797	0.0036
348.15	0.6456	0.728	0.0033
348.15	0.7558	0.7905	0.0029
348.15	0.8188	0.8308	0.0028
348.15	0.8676	0.867	0.0028
348.15	0.921	0.9121	0.003
348.15	1	1	
364.15	0	0	
364.15	0.006	0.0203	0.0065
364.15	0.0217	0.0677	0.0058
364.15	0.0589	0.165	0.0053
364.15	0.096	0.2444	0.0046
364.15	0.1562	0.3433	0.0044
364.15	0.2503	0.4485	0.0048
364.15	0.342	0.5286	0.0047
364.15	0.4445	0.5963	0.0042
364.15	0.5599	0.6665	0.0037
364.15	0.6475	0.7178	0.0034
364.15	0.7575	0.7845	0.003
364.15	0.8198	0.827	0.0029
364.15	0.869	0.8647	0.0028
364.15	0.9213	0.9113	0.003
364.15	1	1	

System: 2-methyl-1-propanol + 4-methylpentan-2-one + 2,2,4-trimethylpentane; phases: Liquid, Gas
Property: Mole fraction of 2-methyl-1-propanol (Liquid); method: Chromatography
Property: Mole fraction of 2-methyl-1-propanol (Gas); method: Chromatography
Property: Mole fraction of 2,2,4-trimethylpentane (Gas); method: Chromatography
Temperature, K	Pressure, kPa	Mole fraction of 2,2,4-trimethylpentane	Mole fraction of 2-methyl-1-propanol	uncertainty	Mole fraction of 2-methyl-1-propanol	uncertainty	Mole fraction of 2,2,4-trimethylpentane	uncertainty
333.15	28.65	0.2601	0.7009	0.0029	0.3457	0.0036	0.6296	
333.15	27.65	0.2349	0.6531	0.0032	0.3344	0.0035	0.5877	
333.15	25.78	0.1959	0.556	0.0037	0.3151	0.0033	0.515	
333.15	17.04	0.0263	0.2891	0.0029	0.2796	0.0031	0.1152	
333.15	16	0.0124	0.2039	0.0025	0.2224	0.0028	0.056	
333.15	15.45	0.0062	0.1375	0.0022	0.1643	0.0024	0.0284	
333.15	18.57	0.055	0.9327	0.0021	0.6266	0.0038	0.358	
333.15	18.61	0.0542	0.906	0.0021	0.6096	0.0039	0.3418	
333.15	18.36	0.0487	0.8604	0.0022	0.5912	0.004	0.3013	
333.15	18.26	0.0461	0.7942	0.0025	0.5533	0.0043	0.2696	
333.15	16.91	0.0253	0.7194	0.0028	0.5553	0.0043	0.1567	
333.15	16.1	0.013	0.6347	0.0033	0.5297	0.0045	0.0798	
333.15	15.76	0.006	0.5485	0.0038	0.4849	0.0046	0.0357	
333.15	15.65	0.0032	0.4692	0.0039	0.4355	0.0042	0.0188	
333.15	12.75	0.0004	0.9758	0.002	0.9491	0.0021	0.005	
333.15	13.55	0.003	0.9382	0.0021	0.8674	0.0023	0.0303	
333.15	13.94	0.0024	0.8894	0.0022	0.8034	0.0027	0.0228	
333.15	14.2	0.002	0.8052	0.0024	0.7535	0.003	0.0119	
333.15	32.97	0.6797	0.2875	0.0029	0.2301	0.0028	0.7464	
333.15	32.18	0.6219	0.2668	0.0028	0.2123	0.0027	0.7187	
333.15	23.74	0.2197	0.1364	0.0022	0.1202	0.0022	0.471	
333.15	19.64	0.1186	0.0993	0.0021	0.0988	0.0022	0.3314	
333.15	32.59	0.8601	0.1021	0.0021	0.1684	0.0025	0.8017	
333.15	31.78	0.7887	0.0974	0.0021	0.1438	0.0023	0.7728	
333.15	31.02	0.7177	0.0921	0.0021	0.1233	0.0023	0.7454	
333.15	30.03	0.6372	0.0852	0.0021	0.1037	0.0022	0.7144	
333.15	28.79	0.5445	0.0756	0.0021	0.0844	0.0021	0.6762	
348.15	51.43	0.265	0.6952	0.003	0.3991	0.0039	0.5749	
348.15	49.73	0.2493	0.6378	0.0033	0.3871	0.0039	0.5385	
348.15	46.59	0.2063	0.5452	0.0038	0.3594	0.0037	0.4777	
348.15	34.41	0.0565	0.3593	0.0032	0.334	0.0035	0.1944	
348.15	31.52	0.0296	0.2838	0.0028	0.2981	0.0032	0.1092	
348.15	29.46	0.0132	0.1991	0.0024	0.2348	0.0028	0.0515	
348.15	28.36	0.0068	0.1353	0.0022	0.1721	0.0025	0.0267	
348.15	36.79	0.0646	0.9225	0.0021	0.6583	0.0036	0.3284	
348.15	36.11	0.0594	0.8992	0.0021	0.6545	0.0036	0.3026	
348.15	35.89	0.0565	0.8495	0.0023	0.6263	0.0038	0.279	
348.15	35.51	0.0529	0.786	0.0025	0.5924	0.004	0.2483	
348.15	32.79	0.0301	0.7082	0.0029	0.5905	0.0041	0.1482	
348.15	30.91	0.0139	0.626	0.0033	0.5666	0.0042	0.0699	
348.15	30.23	0.0076	0.5376	0.0039	0.5137	0.0046	0.0372	
348.15	29.72	0.0038	0.4609	0.0038	0.4637	0.0045	0.0174	
348.15	26.91	0.0028	0.9692	0.002	0.9511	0.002	0.0162	
348.15	28.28	0.006	0.9302	0.0021	0.8647	0.0023	0.0471	
348.15	28.37	0.0033	0.8819	0.0022	0.8245	0.0025	0.0231	
348.15	28.48	0.002	0.7975	0.0025	0.7835	0.0028	0.0099	
348.15	57.66	0.6918	0.2753	0.0028	0.2668	0.003	0.7121	
348.15	56.12	0.6312	0.2576	0.0027	0.2447	0.0029	0.6862	
348.15	41.69	0.2279	0.134	0.0022	0.1318	0.0023	0.4486	
348.15	35.81	0.124	0.0971	0.0021	0.106	0.0022	0.3163	
348.15	55.98	0.8666	0.0955	0.0021	0.1831	0.0025	0.7864	
348.15	54.59	0.7934	0.0935	0.0021	0.1578	0.0024	0.7568	
348.15	53.29	0.7228	0.0887	0.0021	0.135	0.0023	0.7296	
348.15	51.56	0.6427	0.0826	0.0021	0.1131	0.0022	0.6984	
348.15	49.41	0.5484	0.0732	0.0021	0.0918	0.0021	0.6578	
364.15	90.64	0.2786	0.6811	0.003	0.4536	0.0044	0.5213	
364.15	84.56	0.261	0.6252	0.0033	0.4345	0.0042	0.4944	
364.15	61.83	0.0613	0.3516	0.0032	0.3571	0.0036	0.182	
364.15	56.74	0.0326	0.278	0.0028	0.315	0.0033	0.1035	
364.15	52.87	0.0142	0.1955	0.0024	0.2453	0.0029	0.0476	
364.15	50.68	0.0074	0.1332	0.0022	0.1791	0.0025	0.0253	
364.15	70.02	0.0747	0.9121	0.0021	0.693	0.0033	0.2953	
364.15	68.76	0.0683	0.8892	0.0022	0.6903	0.0033	0.2717	
364.15	67.89	0.0639	0.8397	0.0023	0.6658	0.0035	0.2493	
364.15	66.65	0.0591	0.7736	0.0026	0.6304	0.0038	0.2251	
364.15	61.64	0.0347	0.6977	0.0029	0.6228	0.0038	0.1373	
364.15	58	0.0161	0.6176	0.0034	0.5967	0.004	0.0665	
364.15	56.2	0.0088	0.5298	0.0039	0.5409	0.0044	0.0352	
364.15	54.64	0.0024	0.9746	0.002	0.956	0.002	0.0156	
364.15	56.2	0.0082	0.9249	0.0021	0.8763	0.0023	0.0473	
364.15	55.76	0.0042	0.8759	0.0022	0.843	0.0024	0.0236	
364.15	55.31	0.0024	0.7895	0.0025	0.8073	0.0026	0.0089	
364.15	56.28	0.0044	0.7601	0.0026	0.7353	0.0031	0.022	
364.15	56.36	0.0043	0.6997	0.0029	0.6892	0.0034	0.0195	
364.15	56.31	0.0041	0.6381	0.0033	0.6363	0.0037	0.0181	
364.15	98.68	0.7014	0.2657	0.0027	0.2993	0.0032	0.6796	
364.15	95.62	0.6403	0.2487	0.0027	0.2739	0.0031	0.6564	
364.15	82.6	0.4017	0.1762	0.0024	0.1861	0.0025	0.5486	
364.15	76.83	0.3084	0.1531	0.0023	0.1626	0.0024	0.4882	
364.15	62.37	0.1309	0.0949	0.0021	0.1124	0.0022	0.3	
364.15	93.57	0.8712	0.0914	0.0021	0.193	0.0026	0.7757	
364.15	91.42	0.7974	0.0899	0.0021	0.1655	0.0024	0.7462	
364.15	89.39	0.7263	0.0869	0.0021	0.144	0.0023	0.7162	
364.15	86.6	0.6474	0.0805	0.0021	0.1211	0.0022	0.6834	
364.15	83.1	0.5538	0.0713	0.0021	0.0979	0.0022	0.6415	
