Measured thermophysical data. Ionic liquid-based three phase partitioning (ILTPP) systems: Ionic liquid recovery and recycling
Source: Fluid Phase Equilib., 2014, 10.1016/j.fluid.2014.03.009
Compound 1: 1-butyl-3-methylimidazolium trifluoromethanesulfonate, C9H15F3N2O3S, InChI=1S/C8H15N2.CHF3O3S/c1-3-4-5-10-7-6-9(2)8-10;2-1(3,4)8(5,6)7/h6-8H,3-5H2,1-2H3;(H,5,6,7)/q+1;/p-1, purity 99.8%
Compound 2: sodium dihydrogen phosphate, H2NaO4P, InChI=1S/Na.H3O4P/c;1-5(2,3)4/h;(H3,1,2,3,4)/q+1;/p-1, purity 99.3%
Compound 3: water, H2O, InChI=1S/H2O/h1H2

System: sodium dihydrogen phosphate + water + 1-butyl-3-methylimidazolium trifluoromethanesulfonate; phases: Liquid mixture 1, Liquid mixture 2
Fixed: Pressure, kPa = 100
Fixed: Temperature, K = 298
Property: Mass fraction of sodium dihydrogen phosphate (Liquid mixture 1); method: Phase equilibration
Mass fraction of 1-butyl-3-methylimidazolium trifluoromethanesulfonate	Mass fraction of sodium dihydrogen phosphate	uncertainty
0.80005	0.00549	0.00023
0.71219	0.00913	0.00028
0.64788	0.01224	0.00033
0.60759	0.01561	0.00039
0.57601	0.01887	0.00045
0.54574	0.02139	0.0005
0.51993	0.023	0.00053
0.50069	0.02564	0.0006
0.48311	0.02776	0.00065
0.46239	0.02962	0.00069
0.44664	0.03098	0.00072
0.43614	0.03218	0.00075
0.42566	0.03414	0.00079
0.41098	0.03552	0.00083
0.40129	0.03666	0.00085
0.38948	0.0384	0.00089
0.37724	0.04016	0.00093
0.36561	0.04176	0.00097
0.35408	0.04302	0.001
0.34441	0.04452	0.00103
0.33599	0.04536	0.00105
0.32687	0.04646	0.00108
0.31929	0.0479	0.00111
0.31152	0.04896	0.00114
0.30269	0.05017	0.00117
0.29463	0.05121	0.00119
0.28802	0.05229	0.00122
0.28169	0.05324	0.00124
0.27416	0.05446	0.00127
0.26828	0.0553	0.00129
0.26374	0.05635	0.00131
0.25952	0.05726	0.00133
0.25433	0.05786	0.00134
0.24945	0.05855	0.00136
0.24541	0.05959	0.00139
0.24153	0.0606	0.00141
0.2371	0.06129	0.00142
0.23284	0.06204	0.00144
0.22965	0.0629	0.00146
0.22568	0.06318	0.00147
0.22414	0.06415	0.00149
0.22115	0.06512	0.00151
0.21759	0.06585	0.00153
0.21469	0.06638	0.00154
0.21206	0.06678	0.00155
0.20964	0.06871	0.0016
0.20279	0.06952	0.00162
0.20075	0.07031	0.00164
0.19825	0.07099	0.00165
0.19564	0.07166	0.00167
0.19372	0.07226	0.00168
0.19263	0.07281	0.00169
0.19139	0.07384	0.00172
0.18841	0.07403	0.00172
0.18697	0.07542	0.00175
0.18478	0.07555	0.00176
0.18305	0.07629	0.00177
0.18128	0.07704	0.00179
0.17947	0.07785	0.00181
0.17759	0.07864	0.00183
0.17535	0.07914	0.00184
0.17383	0.07943	0.00185
0.17304	0.07969	0.00186
0.17137	0.08163	0.0019
0.16797	0.0824	0.00192
0.16623	0.08263	0.00192
0.16518	0.08349	0.00195
0.16518	0.08486	0.00198
0.16323	0.08514	0.00198
0.16201	0.08648	0.00201
0.16026	0.08672	0.00202
0.15867	0.08811	0.00205
0.15682	0.08901	0.00207
0.15447	0.08977	0.00209
0.15263	0.09128	0.00212
0.15024	0.092	0.00214
0.14867	0.09347	0.00218
0.14645	0.09424	0.00219
0.14445	0.09549	0.00222
0.14272	0.09638	0.00224
0.14035	0.09787	0.00228
0.13874	0.09877	0.0023
0.13689	0.10014	0.00233
0.13397	0.10226	0.00238
0.13141	0.10375	0.00241
0.12907	0.10501	0.00244
0.12702	0.1062	0.00247
0.12489	0.1075	0.0025
0.12306	0.10922	0.00255
0.12063	0.11163	0.0026
0.11798	0.113	0.00263
0.11044	0.11789	0.00274
0.10642	0.12114	0.00282
0.10003	0.12677	0.00295
0.09453	0.13143	0.00306
0.09062	0.1355	0.00316
0.08608	0.14082	0.00328
0.08224	0.14509	0.00338
0.07659	0.15168	0.00353
0.07031	0.15774	0.00367
0.06562	0.16356	0.00381
0.05944	0.17383	0.00405
0.05581	0.18007	0.0042
0.05335	0.18445	0.00431
0.05033	0.19178	0.00449
0.04835	0.19746	0.00461
0.04685	0.19972	0.00465
0.04351	0.20395	0.00474
0.0352	0.21312	0.00496
0.03229	0.21755	0.00507
0.0305	0.221	0.00515
0.02793	0.22603	0.00527
0.02453	0.23258	0.00542
0.02121	0.23824	0.00555
0.01462	0.25141	0.00586
0.01087	0.25908	0.00611
0.0104	0.26875	0.00633
0.00924	0.2758	0.00661
0.00801	0.28643	0.00683
0.00643	0.29538	0.00715
0.00559	0.30516	0.00772
0.00447	0.3202	0.00856
0.00385	0.33018	0.00901
0.00356	0.34619	0.00972
0.00286	0.36435	0.01034
0.00217	0.38458	0.0113
0.00154	0.41205	0.01191
0.00087	0.44769	0.01285

System: sodium dihydrogen phosphate + water + 1-butyl-3-methylimidazolium trifluoromethanesulfonate; phases: Liquid mixture 2, Liquid mixture 1
Fixed: Pressure, kPa = 100
Fixed: Temperature, K = 298
Property: Mass fraction of 1-butyl-3-methylimidazolium trifluoromethanesulfonate (Liquid mixture 2); method: OTHER
Property: Mass fraction of sodium dihydrogen phosphate (Liquid mixture 1); method: OTHER
Property: Mass fraction of 1-butyl-3-methylimidazolium trifluoromethanesulfonate (Liquid mixture 1); method: OTHER
Mass fraction of sodium dihydrogen phosphate	Mass fraction of 1-butyl-3-methylimidazolium trifluoromethanesulfonate	uncertainty	Mass fraction of sodium dihydrogen phosphate	uncertainty	Mass fraction of 1-butyl-3-methylimidazolium trifluoromethanesulfonate	uncertainty
0.29333	0.00446	0.00022	0.00621	0.00024	0.841	
0.3528	0.00074	0.0002	0.00518	0.00023	0.88351	
0.37017	0.0004	0.0002	0.00458	0.00022	0.91104	
0.39262	0.00017	0.00017	0.00439	0.00022	0.92021	
0.41775	6e-05	6e-05	0.00373	0.00022	0.95538	
0.44104	2e-05	2e-05	0.00319	0.00021	0.98754	
