Measured thermophysical data. Liquid densities for n-decane + p-xylene mixtures from 293.15 K to 363.15 K at pressures up to 60 MPa
Source: Fluid Phase Equilib., 2018, 10.1016/j.fluid.2017.11.021
Compound 1: decane, C10H22, InChI=1S/C10H22/c1-3-5-7-9-10-8-6-4-2/h3-10H2,1-2H3, purity 99%
Compound 2: 1,4-dimethylbenzene, C8H10, InChI=1S/C8H10/c1-7-3-5-8(2)6-4-7/h3-6H,1-2H3, purity 99%

System: decane; phases: Liquid
Property: Mass density, kg/m3 (Liquid); method: Vibrating tube method
Temperature, K	Pressure, kPa	Mass density, kg/m3	uncertainty
293.15	100	731	0.8
293.15	1000	731.7	0.8
293.15	3000	732.9	0.8
293.15	5000	734.2	0.8
293.15	10000	737.9	0.8
293.15	15000	741.3	0.8
293.15	20000	744.5	0.8
293.15	25000	747.7	0.9
293.15	30000	750.9	0.9
293.15	35000	753.6	0.9
293.15	40000	756.4	0.9
293.15	50000	762	1
293.15	60000	766.6	1
303.15	100	722.8	0.8
303.15	1000	723.7	0.8
303.15	3000	725.4	0.8
303.15	5000	727	0.8
303.15	10000	730.6	0.8
303.15	15000	734.3	0.8
303.15	20000	737.6	0.8
303.15	25000	740.9	0.9
303.15	30000	744	0.9
303.15	35000	747.2	0.9
303.15	40000	750	0.9
303.15	50000	755.7	1
303.15	60000	760.8	1.1
313.15	100	715.4	0.8
313.15	1000	716	0.8
313.15	3000	717.5	0.8
313.15	5000	719.3	0.8
313.15	10000	723.3	0.8
313.15	15000	727.1	0.8
313.15	20000	730.7	0.8
313.15	25000	734.2	0.9
313.15	30000	737.4	0.9
313.15	35000	740.7	0.9
313.15	40000	743.5	0.9
313.15	50000	749.5	1
313.15	60000	754.6	1.1
323.15	100	707.8	0.7
323.15	1000	708.6	0.7
323.15	3000	710.4	0.8
323.15	5000	712.2	0.8
323.15	10000	716.5	0.8
323.15	15000	720.5	0.8
323.15	20000	724.4	0.8
323.15	25000	727.8	0.9
323.15	30000	731.3	0.9
323.15	35000	734.5	0.9
323.15	40000	737.7	0.9
323.15	50000	743.7	1
323.15	60000	749.6	1.1
333.15	100	700.2	0.7
333.15	1000	700.9	0.7
333.15	3000	702.9	0.8
333.15	5000	704.8	0.8
333.15	10000	709.2	0.8
333.15	15000	713.5	0.8
333.15	20000	717.5	0.8
333.15	25000	721.2	0.9
333.15	30000	724.8	0.9
333.15	35000	728.2	0.9
333.15	40000	731.7	0.9
333.15	50000	737.9	1
333.15	60000	743.8	1.1
343.15	100	692.2	0.7
343.15	1000	693.2	0.7
343.15	3000	695.3	0.7
343.15	5000	697.4	0.8
343.15	10000	702.1	0.8
343.15	15000	706.5	0.8
343.15	20000	710.9	0.8
343.15	25000	714.7	0.9
343.15	30000	718.5	0.9
343.15	35000	722.2	0.9
343.15	40000	725.6	0.9
343.15	50000	732.2	1
343.15	60000	737.9	1.1
353.15	100	684.6	0.7
353.15	1000	685.4	0.7
353.15	3000	687.8	0.7
353.15	5000	689.8	0.7
353.15	10000	694.9	0.8
353.15	15000	699.7	0.8
353.15	20000	704.1	0.8
353.15	25000	708.2	0.9
353.15	30000	712.2	0.9
353.15	35000	715.9	0.9
353.15	40000	719.4	1
353.15	50000	726.2	1
353.15	60000	732.5	1.1
363.15	100	676.6	0.7
363.15	1000	677.8	0.7
363.15	3000	680.2	0.7
363.15	5000	682.5	0.7
363.15	10000	687.4	0.8
363.15	15000	692.8	0.8
363.15	20000	697.2	0.8
363.15	25000	701.3	0.9
363.15	30000	705.7	0.9
363.15	35000	709.7	0.9
363.15	40000	713.6	1
363.15	50000	720.5	1
363.15	60000	727.1	1.1

System: 1,4-dimethylbenzene; phases: Liquid
Property: Mass density, kg/m3 (Liquid); method: Vibrating tube method
Temperature, K	Pressure, kPa	Mass density, kg/m3	uncertainty
293.15	100	862.7	0.9
293.15	1000	863.3	0.9
293.15	3000	864.7	0.9
293.15	5000	865.9	0.9
293.15	10000	869.6	0.9
293.15	15000	873	0.9
293.15	20000	876.3	0.9
293.15	25000	879.6	0.9
303.15	100	852.9	0.9
303.15	1000	853.8	0.9
303.15	3000	855.3	0.9
303.15	5000	856.9	0.9
303.15	10000	860.6	0.9
303.15	15000	864.3	0.9
303.15	20000	867.6	0.9
303.15	25000	871	0.9
303.15	30000	874.3	0.9
303.15	35000	877.4	1
303.15	40000	880.3	1
303.15	50000	886.3	1
303.15	60000	892.5	1
313.15	100	843.6	0.9
313.15	1000	844.7	0.9
313.15	3000	846.5	0.9
313.15	5000	848.1	0.9
313.15	10000	852	0.9
313.15	15000	855.8	0.9
313.15	20000	859.5	0.9
313.15	25000	863	0.9
313.15	30000	866.4	0.9
313.15	35000	869.6	0.9
313.15	40000	872.8	1
313.15	50000	879.1	1
313.15	60000	884.5	1
323.15	100	835.7	0.9
323.15	1000	836.7	0.9
323.15	3000	838.5	0.9
323.15	5000	840.2	0.9
323.15	10000	844.5	0.9
323.15	15000	848.4	0.9
323.15	20000	852.3	0.9
323.15	25000	855.7	0.9
323.15	30000	859.2	0.9
323.15	35000	862.6	0.9
323.15	40000	866.1	1
323.15	50000	872.8	1
323.15	60000	878.1	1
333.15	100	827	0.9
333.15	1000	827.8	0.9
333.15	3000	829.7	0.9
333.15	5000	831.5	0.9
333.15	10000	835.9	0.9
333.15	15000	840	0.9
333.15	20000	844.1	0.9
333.15	25000	847.9	0.9
333.15	30000	851.6	0.9
333.15	35000	855	0.9
333.15	40000	858.8	1
333.15	50000	865.1	1
333.15	60000	871.1	1
343.15	100	817.8	0.8
343.15	1000	818.8	0.9
343.15	3000	820.6	0.9
343.15	5000	823	0.9
343.15	10000	827.2	0.9
343.15	15000	831.7	0.9
343.15	20000	836.3	0.9
343.15	25000	840	0.9
343.15	30000	843.9	0.9
343.15	35000	847.6	0.9
343.15	40000	851	1
343.15	50000	858	1
343.15	60000	864.1	1
353.15	100	808.7	0.8
353.15	1000	809.6	0.8
353.15	3000	811.5	0.8
353.15	5000	813.6	0.9
353.15	10000	818.1	0.9
353.15	15000	822.8	0.9
353.15	20000	827.6	0.9
353.15	25000	831.5	0.9
353.15	30000	835.8	0.9
353.15	35000	839.8	0.9
353.15	40000	843.4	1
353.15	50000	850.6	1
353.15	60000	856.9	1
363.15	100	799.5	0.8
363.15	1000	800.7	0.8
363.15	3000	802.9	0.8
363.15	5000	805.3	0.8
363.15	10000	810.2	0.9
363.15	15000	815.5	0.9
363.15	20000	819.9	0.9
363.15	25000	824.1	0.9
363.15	30000	828.5	0.9
363.15	35000	832.7	0.9
363.15	40000	836.7	0.9
363.15	50000	844	1
363.15	60000	850.8	1

System: decane + 1,4-dimethylbenzene; phases: Liquid
Property: Mass density, kg/m3 (Liquid); method: Vibrating tube method
Temperature, K	Pressure, kPa	Mole fraction of decane	Mass density, kg/m3	uncertainty
293.15	100	0	862.7	0.9
293.15	1000	0	863.3	0.9
293.15	3000	0	864.7	0.9
293.15	5000	0	865.9	0.9
293.15	10000	0	869.6	0.9
293.15	15000	0	873	0.9
293.15	20000	0	876.3	0.9
293.15	25000	0	879.6	0.9
303.15	100	0	852.9	0.9
303.15	1000	0	853.8	0.9
303.15	3000	0	855.3	0.9
303.15	5000	0	856.9	0.9
303.15	10000	0	860.6	0.9
303.15	15000	0	864.3	0.9
303.15	20000	0	867.6	0.9
303.15	25000	0	871	0.9
303.15	30000	0	874.3	0.9
303.15	35000	0	877.4	1
303.15	40000	0	880.3	1
303.15	50000	0	886.3	1
303.15	60000	0	892.5	1
313.15	100	0	843.6	0.9
313.15	1000	0	844.7	0.9
313.15	3000	0	846.5	0.9
313.15	5000	0	848.1	0.9
313.15	10000	0	852	0.9
313.15	15000	0	855.8	0.9
313.15	20000	0	859.5	0.9
313.15	25000	0	863	0.9
313.15	30000	0	866.4	0.9
313.15	35000	0	869.6	0.9
313.15	40000	0	872.8	1
313.15	50000	0	879.1	1
313.15	60000	0	884.5	1
323.15	100	0	835.7	0.9
323.15	1000	0	836.7	0.9
323.15	3000	0	838.5	0.9
323.15	5000	0	840.2	0.9
323.15	10000	0	844.5	0.9
323.15	15000	0	848.4	0.9
323.15	20000	0	852.3	0.9
323.15	25000	0	855.7	0.9
323.15	30000	0	859.2	0.9
323.15	35000	0	862.6	0.9
323.15	40000	0	866.1	1
323.15	50000	0	872.8	1
323.15	60000	0	878.1	1
333.15	100	0	827	0.9
333.15	1000	0	827.8	0.9
333.15	3000	0	829.7	0.9
333.15	5000	0	831.5	0.9
333.15	10000	0	835.9	0.9
333.15	15000	0	840	0.9
333.15	20000	0	844.1	0.9
333.15	25000	0	847.9	0.9
333.15	30000	0	851.6	0.9
333.15	35000	0	855	0.9
333.15	40000	0	858.8	1
333.15	50000	0	865.1	1
333.15	60000	0	871.1	1
343.15	100	0	817.8	0.8
343.15	1000	0	818.8	0.9
343.15	3000	0	820.6	0.9
343.15	5000	0	823	0.9
343.15	10000	0	827.2	0.9
343.15	15000	0	831.7	0.9
343.15	20000	0	836.3	0.9
343.15	25000	0	840	0.9
343.15	30000	0	843.9	0.9
343.15	35000	0	847.6	0.9
343.15	40000	0	851	1
343.15	50000	0	858	1
343.15	60000	0	864.1	1
353.15	100	0	808.7	0.8
353.15	1000	0	809.6	0.8
353.15	3000	0	811.5	0.8
353.15	5000	0	813.6	0.9
353.15	10000	0	818.1	0.9
353.15	15000	0	822.8	0.9
353.15	20000	0	827.6	0.9
353.15	25000	0	831.5	0.9
353.15	30000	0	835.8	0.9
353.15	35000	0	839.8	0.9
353.15	40000	0	843.4	1
353.15	50000	0	850.6	1
353.15	60000	0	856.9	1
363.15	100	0	799.5	0.8
363.15	1000	0	800.7	0.8
363.15	3000	0	802.9	0.8
363.15	5000	0	805.3	0.8
363.15	10000	0	810.2	0.9
363.15	15000	0	815.5	0.9
363.15	20000	0	819.9	0.9
363.15	25000	0	824.1	0.9
363.15	30000	0	828.5	0.9
363.15	35000	0	832.7	0.9
363.15	40000	0	836.7	0.9
363.15	50000	0	844	1
363.15	60000	0	850.8	1
293.15	100	0.1006	842.2	0.9
293.15	1000	0.1006	842.5	0.9
293.15	3000	0.1006	843.8	0.9
293.15	5000	0.1006	845	0.9
293.15	10000	0.1006	848.8	0.9
293.15	15000	0.1006	852.1	0.9
293.15	20000	0.1006	855.3	0.9
293.15	25000	0.1006	858.5	0.9
293.15	30000	0.1006	861.6	0.9
293.15	35000	0.1006	864.4	0.9
293.15	40000	0.1006	867.3	1
293.15	50000	0.1006	872.7	1
303.15	100	0.1006	832.9	0.9
303.15	1000	0.1006	833.9	0.9
303.15	3000	0.1006	835.4	0.9
303.15	5000	0.1006	836.9	0.9
303.15	10000	0.1006	840.6	0.9
303.15	15000	0.1006	844.2	0.9
303.15	20000	0.1006	847.3	0.9
303.15	25000	0.1006	850.6	0.9
303.15	30000	0.1006	853.8	0.9
303.15	35000	0.1006	856.7	0.9
303.15	40000	0.1006	859.7	1
303.15	50000	0.1006	865.2	1
303.15	60000	0.1006	870.5	1
313.15	100	0.1006	824.4	0.9
313.15	1000	0.1006	824.8	0.9
313.15	3000	0.1006	826.5	0.9
313.15	5000	0.1006	828.1	0.9
313.15	10000	0.1006	831.9	0.9
313.15	15000	0.1006	835.7	0.9
313.15	20000	0.1006	839.2	0.9
313.15	25000	0.1006	842.7	0.9
313.15	30000	0.1006	845.8	0.9
313.15	35000	0.1006	848.8	0.9
313.15	40000	0.1006	851.7	1
313.15	50000	0.1006	857.6	1
313.15	60000	0.1006	863	1
323.15	100	0.1006	815.2	0.8
323.15	1000	0.1006	816.2	0.8
323.15	3000	0.1006	818	0.9
323.15	5000	0.1006	819.6	0.9
323.15	10000	0.1006	823.7	0.9
323.15	15000	0.1006	827.6	0.9
323.15	20000	0.1006	831.4	0.9
323.15	25000	0.1006	834.9	0.9
323.15	30000	0.1006	838.3	0.9
323.15	35000	0.1006	841.6	0.9
323.15	40000	0.1006	844.8	1
323.15	50000	0.1006	850.9	1
323.15	60000	0.1006	856.7	1
333.15	100	0.1006	807	0.8
333.15	1000	0.1006	807.3	0.8
333.15	3000	0.1006	809.4	0.8
333.15	5000	0.1006	811	0.9
333.15	10000	0.1006	815.3	0.9
333.15	15000	0.1006	819.4	0.9
333.15	20000	0.1006	823.5	0.9
333.15	25000	0.1006	827.2	0.9
333.15	30000	0.1006	830.6	0.9
333.15	35000	0.1006	834.2	0.9
333.15	40000	0.1006	837.6	0.9
333.15	50000	0.1006	844.1	1
333.15	60000	0.1006	849.9	1
343.15	100	0.1006	797.4	0.8
343.15	1000	0.1006	798.7	0.8
343.15	3000	0.1006	800.6	0.8
343.15	5000	0.1006	802.7	0.8
343.15	10000	0.1006	807.1	0.9
343.15	15000	0.1006	811.5	0.9
343.15	20000	0.1006	815.8	0.9
343.15	25000	0.1006	819.4	0.9
343.15	30000	0.1006	823.3	0.9
343.15	35000	0.1006	827	0.9
343.15	40000	0.1006	830.3	0.9
343.15	50000	0.1006	837.4	1
343.15	60000	0.1006	842.9	1
353.15	100	0.1006	788.6	0.8
353.15	1000	0.1006	789.5	0.8
353.15	3000	0.1006	791.8	0.8
353.15	5000	0.1006	793.7	0.8
353.15	10000	0.1006	798.5	0.9
353.15	15000	0.1006	803.2	0.9
353.15	20000	0.1006	807.5	0.9
353.15	25000	0.1006	811.7	0.9
353.15	30000	0.1006	815.7	0.9
353.15	35000	0.1006	819.5	0.9
353.15	40000	0.1006	823	0.9
353.15	50000	0.1006	829.8	1
353.15	60000	0.1006	836.3	1
293.15	100	0.2	824.1	0.9
293.15	1000	0.2	824.3	0.9
293.15	3000	0.2	825.6	0.9
293.15	5000	0.2	826.9	0.9
293.15	10000	0.2	830.6	0.9
293.15	15000	0.2	834	0.9
293.15	20000	0.2	837.3	0.9
293.15	25000	0.2	840.5	0.9
293.15	30000	0.2	843.6	0.9
293.15	35000	0.2	846.5	0.9
293.15	40000	0.2	849.3	1
293.15	50000	0.2	855	1
303.15	100	0.2	815	0.8
303.15	1000	0.2	815.8	0.8
303.15	3000	0.2	817.4	0.9
303.15	5000	0.2	818.8	0.9
303.15	10000	0.2	822.6	0.9
303.15	15000	0.2	826.2	0.9
303.15	20000	0.2	829.6	0.9
303.15	25000	0.2	832.9	0.9
303.15	30000	0.2	836.1	0.9
303.15	35000	0.2	839.2	0.9
303.15	40000	0.2	842.1	1
303.15	50000	0.2	847.8	1
303.15	60000	0.2	853.2	1
313.15	100	0.2	806.8	0.8
313.15	1000	0.2	807.1	0.8
313.15	3000	0.2	808.9	0.8
313.15	5000	0.2	810.4	0.9
313.15	10000	0.2	814.4	0.9
313.15	15000	0.2	818.2	0.9
313.15	20000	0.2	821.8	0.9
313.15	25000	0.2	825.3	0.9
313.15	30000	0.2	828.7	0.9
313.15	35000	0.2	831.9	0.9
313.15	40000	0.2	834.8	0.9
313.15	50000	0.2	840.9	1
313.15	60000	0.2	846.2	1
323.15	100	0.2	798	0.8
323.15	1000	0.2	798.7	0.8
323.15	3000	0.2	800.6	0.8
323.15	5000	0.2	802.1	0.8
323.15	10000	0.2	806.4	0.9
323.15	15000	0.2	810.4	0.9
323.15	20000	0.2	814.3	0.9
323.15	25000	0.2	817.8	0.9
323.15	30000	0.2	821.3	0.9
323.15	35000	0.2	824.7	0.9
323.15	40000	0.2	828	0.9
323.15	50000	0.2	834.2	1
323.15	60000	0.2	840.1	1
333.15	100	0.2	789.6	0.8
333.15	1000	0.2	790.3	0.8
333.15	3000	0.2	792.4	0.8
333.15	5000	0.2	794	0.8
333.15	10000	0.2	798.4	0.9
333.15	15000	0.2	802.6	0.9
333.15	20000	0.2	806.6	0.9
333.15	25000	0.2	810.6	0.9
333.15	30000	0.2	814.1	0.9
333.15	35000	0.2	817.6	0.9
333.15	40000	0.2	821.2	0.9
333.15	50000	0.2	827.6	1
333.15	60000	0.2	833.6	1
343.15	100	0.2	780.6	0.8
343.15	1000	0.2	781.7	0.8
343.15	3000	0.2	783.7	0.8
343.15	5000	0.2	785.8	0.8
343.15	10000	0.2	790.2	0.8
343.15	15000	0.2	794.7	0.9
343.15	20000	0.2	799.1	0.9
343.15	25000	0.2	803	0.9
343.15	30000	0.2	806.9	0.9
343.15	35000	0.2	810.7	0.9
343.15	40000	0.2	814	0.9
343.15	50000	0.2	820.9	1
343.15	60000	0.2	826.9	1
353.15	100	0.2	772	0.8
353.15	1000	0.2	772.8	0.8
353.15	3000	0.2	775.1	0.8
353.15	5000	0.2	777.2	0.8
353.15	10000	0.2	782.1	0.8
353.15	15000	0.2	786.8	0.9
353.15	20000	0.2	791.2	0.9
353.15	25000	0.2	795.5	0.9
353.15	30000	0.2	799.5	0.9
353.15	35000	0.2	803.4	0.9
353.15	40000	0.2	807.1	0.9
353.15	50000	0.2	814.1	1
353.15	60000	0.2	820.5	1
293.15	100	0.3	807.8	0.8
293.15	1000	0.3	808.2	0.8
293.15	3000	0.3	809.5	0.8
293.15	5000	0.3	810.7	0.9
293.15	10000	0.3	814.4	0.9
293.15	15000	0.3	817.8	0.9
293.15	20000	0.3	821.1	0.9
293.15	25000	0.3	824.2	0.9
293.15	30000	0.3	827.5	0.9
293.15	35000	0.3	830.3	0.9
293.15	40000	0.3	833.2	0.9
293.15	50000	0.3	838.9	1
303.15	100	0.3	798.8	0.8
303.15	1000	0.3	799.8	0.8
303.15	3000	0.3	801.4	0.8
303.15	5000	0.3	802.9	0.8
303.15	10000	0.3	806.6	0.9
303.15	15000	0.3	810.2	0.9
303.15	20000	0.3	813.6	0.9
303.15	25000	0.3	816.9	0.9
303.15	30000	0.3	820.2	0.9
303.15	35000	0.3	823.3	0.9
303.15	40000	0.3	826.2	0.9
303.15	50000	0.3	832	1
303.15	60000	0.3	837.4	1
313.15	100	0.3	790.7	0.8
313.15	1000	0.3	791.1	0.8
313.15	3000	0.3	792.8	0.8
313.15	5000	0.3	794.4	0.8
313.15	10000	0.3	798.5	0.9
313.15	15000	0.3	802.2	0.9
313.15	20000	0.3	805.8	0.9
313.15	25000	0.3	809.4	0.9
313.15	30000	0.3	812.7	0.9
313.15	35000	0.3	815.9	0.9
313.15	40000	0.3	818.9	0.9
313.15	50000	0.3	824.9	1
313.15	60000	0.3	830.3	1
323.15	100	0.3	782	0.8
323.15	1000	0.3	783	0.8
323.15	3000	0.3	784.6	0.8
323.15	5000	0.3	786.5	0.8
323.15	10000	0.3	790.6	0.8
323.15	15000	0.3	794.6	0.9
323.15	20000	0.3	798.5	0.9
323.15	25000	0.3	802	0.9
323.15	30000	0.3	805.6	0.9
323.15	35000	0.3	809	0.9
323.15	40000	0.3	812.3	0.9
323.15	50000	0.3	818.5	1
323.15	60000	0.3	824.4	1
333.15	100	0.3	774	0.8
333.15	1000	0.3	774.4	0.8
333.15	3000	0.3	776.4	0.8
333.15	5000	0.3	778.2	0.8
333.15	10000	0.3	782.7	0.8
333.15	15000	0.3	786.8	0.9
333.15	20000	0.3	791	0.9
333.15	25000	0.3	794.9	0.9
333.15	30000	0.3	798.5	0.9
333.15	35000	0.3	801.9	0.9
333.15	40000	0.3	805.4	0.9
333.15	50000	0.3	811.8	1
333.15	60000	0.3	817.9	1
343.15	100	0.3	764.8	0.8
343.15	1000	0.3	766	0.8
343.15	3000	0.3	768.1	0.8
343.15	5000	0.3	770.1	0.8
343.15	10000	0.3	774.6	0.8
343.15	15000	0.3	779.1	0.9
343.15	20000	0.3	783.6	0.9
343.15	25000	0.3	787.4	0.9
343.15	30000	0.3	791.3	0.9
343.15	35000	0.3	795.1	0.9
343.15	40000	0.3	798.5	0.9
343.15	50000	0.3	805.3	1
343.15	60000	0.3	811.3	1
353.15	100	0.3	756.2	0.8
353.15	1000	0.3	757.2	0.8
353.15	3000	0.3	759.6	0.8
353.15	5000	0.3	761.6	0.8
353.15	10000	0.3	766.6	0.8
353.15	15000	0.3	771.3	0.8
353.15	20000	0.3	775.7	0.9
353.15	25000	0.3	780	0.9
353.15	30000	0.3	784.1	0.9
353.15	35000	0.3	788	0.9
353.15	40000	0.3	791.6	0.9
353.15	50000	0.3	798.6	1
353.15	60000	0.3	805.1	1
293.15	100	0.3998	793.3	0.8
293.15	1000	0.3998	793.6	0.8
293.15	3000	0.3998	795.3	0.8
293.15	5000	0.3998	796.3	0.8
293.15	10000	0.3998	800.1	0.9
293.15	15000	0.3998	803.4	0.9
293.15	20000	0.3998	806.5	0.9
293.15	25000	0.3998	809.7	0.9
293.15	30000	0.3998	812.7	0.9
293.15	35000	0.3998	815.4	0.9
293.15	40000	0.3998	818.2	0.9
293.15	50000	0.3998	823.8	1
303.15	100	0.3998	784	0.8
303.15	1000	0.3998	785.3	0.8
303.15	3000	0.3998	786.8	0.8
303.15	5000	0.3998	788.4	0.8
303.15	10000	0.3998	792.1	0.8
303.15	15000	0.3998	795.6	0.9
303.15	20000	0.3998	798.9	0.9
303.15	25000	0.3998	802.3	0.9
303.15	30000	0.3998	805.5	0.9
303.15	35000	0.3998	808.5	0.9
303.15	40000	0.3998	811.4	0.9
303.15	50000	0.3998	817.1	1
303.15	60000	0.3998	822.3	1
313.15	100	0.3998	776	0.8
313.15	1000	0.3998	776.8	0.8
313.15	3000	0.3998	778.3	0.8
313.15	5000	0.3998	780	0.8
313.15	10000	0.3998	784	0.8
313.15	15000	0.3998	787.7	0.9
313.15	20000	0.3998	791.3	0.9
313.15	25000	0.3998	794.9	0.9
313.15	30000	0.3998	798.1	0.9
313.15	35000	0.3998	801.5	0.9
313.15	40000	0.3998	804.4	0.9
313.15	50000	0.3998	810.6	1
313.15	60000	0.3998	815.9	1
323.15	100	0.3998	768	0.8
323.15	1000	0.3998	769	0.8
323.15	3000	0.3998	770.7	0.8
323.15	5000	0.3998	771.5	0.8
323.15	10000	0.3998	776.7	0.8
323.15	15000	0.3998	780.6	0.9
323.15	20000	0.3998	784.5	0.9
323.15	25000	0.3998	788	0.9
323.15	30000	0.3998	791.5	0.9
323.15	35000	0.3998	794.9	0.9
323.15	40000	0.3998	798	0.9
323.15	50000	0.3998	804.3	1
323.15	60000	0.3998	810	1
333.15	100	0.3998	760.1	0.8
333.15	1000	0.3998	760.6	0.8
333.15	3000	0.3998	762.6	0.8
333.15	5000	0.3998	764.4	0.8
333.15	10000	0.3998	768.9	0.8
333.15	15000	0.3998	773	0.8
333.15	20000	0.3998	777	0.9
333.15	25000	0.3998	780.8	0.9
333.15	30000	0.3998	784.4	0.9
333.15	35000	0.3998	787.8	0.9
333.15	40000	0.3998	791.5	0.9
333.15	50000	0.3998	797.8	1
333.15	60000	0.3998	803.6	1
343.15	100	0.3998	751.3	0.8
343.15	1000	0.3998	752.3	0.8
343.15	3000	0.3998	754.4	0.8
343.15	5000	0.3998	756.5	0.8
343.15	10000	0.3998	761.1	0.8
343.15	15000	0.3998	765.4	0.8
343.15	20000	0.3998	769.9	0.9
343.15	25000	0.3998	773.7	0.9
343.15	30000	0.3998	777.5	0.9
343.15	35000	0.3998	781.2	0.9
343.15	40000	0.3998	784.6	0.9
343.15	50000	0.3998	791.2	1
343.15	60000	0.3998	797.6	1
353.15	100	0.3998	742.7	0.8
353.15	1000	0.3998	743.7	0.8
353.15	3000	0.3998	746.1	0.8
353.15	5000	0.3998	747.9	0.8
353.15	10000	0.3998	753	0.8
353.15	15000	0.3998	757.7	0.8
353.15	20000	0.3998	762	0.9
353.15	25000	0.3998	766.4	0.9
353.15	30000	0.3998	770.3	0.9
353.15	35000	0.3998	774.4	0.9
353.15	40000	0.3998	777.9	0.9
353.15	50000	0.3998	784.8	1
353.15	60000	0.3998	791.3	1
293.15	100	0.5	780.2	0.8
293.15	1000	0.5	780.5	0.8
293.15	3000	0.5	782	0.8
293.15	5000	0.5	783	0.8
293.15	10000	0.5	786.8	0.8
293.15	15000	0.5	790.1	0.9
293.15	20000	0.5	793.4	0.9
293.15	25000	0.5	796.5	0.9
293.15	30000	0.5	799.6	0.9
293.15	35000	0.5	802.5	0.9
293.15	40000	0.5	805.2	0.9
293.15	50000	0.5	811	1
303.15	100	0.5	771.4	0.8
303.15	1000	0.5	772.5	0.8
303.15	3000	0.5	773.7	0.8
303.15	5000	0.5	775.4	0.8
303.15	10000	0.5	779.1	0.8
303.15	15000	0.5	782.6	0.9
303.15	20000	0.5	786	0.9
303.15	25000	0.5	789.4	0.9
303.15	30000	0.5	792.6	0.9
303.15	35000	0.5	795.6	0.9
303.15	40000	0.5	798.5	0.9
303.15	50000	0.5	804.1	1
303.15	60000	0.5	809.3	1
313.15	100	0.5	762.4	0.8
313.15	1000	0.5	763.6	0.8
313.15	3000	0.5	765	0.8
313.15	5000	0.5	766.8	0.8
313.15	10000	0.5	771.4	0.8
313.15	15000	0.5	775.1	0.8
313.15	20000	0.5	778.7	0.9
313.15	25000	0.5	782.3	0.9
313.15	30000	0.5	785.3	0.9
313.15	35000	0.5	788.7	0.9
313.15	40000	0.5	791.6	0.9
313.15	50000	0.5	797.8	1
313.15	60000	0.5	803	1
323.15	100	0.5	755.2	0.8
323.15	1000	0.5	756.2	0.8
323.15	3000	0.5	758	0.8
323.15	5000	0.5	759.7	0.8
323.15	10000	0.5	763.6	0.8
323.15	15000	0.5	767.8	0.8
323.15	20000	0.5	771.7	0.9
323.15	25000	0.5	775.3	0.9
323.15	30000	0.5	778.7	0.9
323.15	35000	0.5	782.1	0.9
323.15	40000	0.5	785.3	0.9
323.15	50000	0.5	791.5	1
323.15	60000	0.5	797	1
333.15	100	0.5	747.5	0.8
333.15	1000	0.5	748	0.8
333.15	3000	0.5	750	0.8
333.15	5000	0.5	751.8	0.8
333.15	10000	0.5	756.1	0.8
333.15	15000	0.5	760.2	0.8
333.15	20000	0.5	764.2	0.9
333.15	25000	0.5	768	0.9
333.15	30000	0.5	771.6	0.9
333.15	35000	0.5	775.1	0.9
333.15	40000	0.5	778.6	0.9
333.15	50000	0.5	785	1
333.15	60000	0.5	790.7	1
343.15	100	0.5	738.8	0.8
343.15	1000	0.5	739.7	0.8
343.15	3000	0.5	741.8	0.8
343.15	5000	0.5	744	0.8
343.15	10000	0.5	748.6	0.8
343.15	15000	0.5	752.9	0.8
343.15	20000	0.5	757.2	0.9
343.15	25000	0.5	761.1	0.9
343.15	30000	0.5	764.9	0.9
343.15	35000	0.5	768.6	0.9
343.15	40000	0.5	772	0.9
343.15	50000	0.5	778.6	1
343.15	60000	0.5	785.1	1
353.15	100	0.5	730.4	0.8
353.15	1000	0.5	731.3	0.8
353.15	3000	0.5	733.6	0.8
353.15	5000	0.5	735.6	0.8
353.15	10000	0.5	740.5	0.8
353.15	15000	0.5	745.2	0.8
353.15	20000	0.5	749.5	0.9
353.15	25000	0.5	753.8	0.9
353.15	30000	0.5	757.8	0.9
353.15	35000	0.5	761.7	0.9
353.15	40000	0.5	765.2	0.9
353.15	50000	0.5	772.1	1
353.15	60000	0.5	778.5	1
293.15	100	0.6001	768.5	0.8
293.15	1000	0.6001	768.8	0.8
293.15	3000	0.6001	770	0.8
293.15	5000	0.6001	771.1	0.8
293.15	10000	0.6001	774.8	0.8
293.15	15000	0.6001	778.2	0.8
293.15	20000	0.6001	781.4	0.9
293.15	25000	0.6001	784.5	0.9
293.15	30000	0.6001	787.5	0.9
293.15	35000	0.6001	790.2	0.9
293.15	40000	0.6001	793	0.9
293.15	50000	0.6001	798.4	1
303.15	100	0.6001	759.7	0.8
303.15	1000	0.6001	760.4	0.8
303.15	3000	0.6001	762	0.8
303.15	5000	0.6001	763.4	0.8
303.15	10000	0.6001	767.2	0.8
303.15	15000	0.6001	770.8	0.8
303.15	20000	0.6001	774.1	0.9
303.15	25000	0.6001	777.4	0.9
303.15	30000	0.6001	780.5	0.9
303.15	35000	0.6001	783.4	0.9
303.15	40000	0.6001	786.3	0.9
303.15	50000	0.6001	792.3	1
303.15	60000	0.6001	797.1	1
313.15	100	0.6001	751.8	0.8
313.15	1000	0.6001	752	0.8
313.15	3000	0.6001	753.8	0.8
313.15	5000	0.6001	755.3	0.8
313.15	10000	0.6001	759.4	0.8
313.15	15000	0.6001	763.1	0.8
313.15	20000	0.6001	766.7	0.9
313.15	25000	0.6001	770.2	0.9
313.15	30000	0.6001	773.4	0.9
313.15	35000	0.6001	776.6	0.9
313.15	40000	0.6001	779.5	0.9
313.15	50000	0.6001	785.7	1
313.15	60000	0.6001	790.8	1
323.15	100	0.6001	743.3	0.8
323.15	1000	0.6001	744.2	0.8
323.15	3000	0.6001	746	0.8
323.15	5000	0.6001	747.7	0.8
323.15	10000	0.6001	752	0.8
323.15	15000	0.6001	756	0.8
323.15	20000	0.6001	760	0.9
323.15	25000	0.6001	763.5	0.9
323.15	30000	0.6001	766.8	0.9
323.15	35000	0.6001	770.1	0.9
323.15	40000	0.6001	773.3	0.9
323.15	50000	0.6001	779.8	1
323.15	60000	0.6001	785.1	1
333.15	100	0.6001	736.2	0.8
333.15	1000	0.6001	736.5	0.8
333.15	3000	0.6001	738.2	0.8
333.15	5000	0.6001	740	0.8
333.15	10000	0.6001	744.4	0.8
333.15	15000	0.6001	748.6	0.8
333.15	20000	0.6001	752.7	0.9
333.15	25000	0.6001	756.5	0.9
333.15	30000	0.6001	760.1	0.9
333.15	35000	0.6001	763.5	0.9
333.15	40000	0.6001	767	0.9
333.15	50000	0.6001	773.5	1
333.15	60000	0.6001	779	1
343.15	100	0.6001	727	0.8
343.15	1000	0.6001	728.2	0.8
343.15	3000	0.6001	730.2	0.8
343.15	5000	0.6001	732.3	0.8
343.15	10000	0.6001	736.9	0.8
343.15	15000	0.6001	741.4	0.8
343.15	20000	0.6001	745.8	0.8
343.15	25000	0.6001	749.6	0.9
343.15	30000	0.6001	753.5	0.9
343.15	35000	0.6001	757.2	0.9
343.15	40000	0.6001	760.5	0.9
343.15	50000	0.6001	767.3	1
343.15	60000	0.6001	772.9	1
353.15	100	0.6001	718.8	0.8
353.15	1000	0.6001	719.8	0.8
353.15	3000	0.6001	722.2	0.8
353.15	5000	0.6001	724.2	0.8
353.15	10000	0.6001	729.2	0.8
353.15	15000	0.6001	734.1	0.8
353.15	20000	0.6001	738.5	0.8
353.15	25000	0.6001	742.6	0.9
353.15	30000	0.6001	746.6	0.9
353.15	35000	0.6001	750.4	0.9
353.15	40000	0.6001	753.9	0.9
353.15	50000	0.6001	760.8	1
353.15	60000	0.6001	767.1	1
293.15	100	0.6998	758.1	0.8
293.15	1000	0.6998	758.4	0.8
293.15	3000	0.6998	759.3	0.8
293.15	5000	0.6998	760.7	0.8
293.15	10000	0.6998	764.6	0.8
293.15	15000	0.6998	768	0.8
293.15	20000	0.6998	771.3	0.9
293.15	25000	0.6998	774.5	0.9
293.15	30000	0.6998	777.7	0.9
293.15	35000	0.6998	780.5	0.9
293.15	40000	0.6998	783.4	0.9
293.15	50000	0.6998	789.1	1
303.15	100	0.6998	749.3	0.8
303.15	1000	0.6998	750.1	0.8
303.15	3000	0.6998	751.7	0.8
303.15	5000	0.6998	753.3	0.8
303.15	10000	0.6998	757.1	0.8
303.15	15000	0.6998	760.8	0.8
303.15	20000	0.6998	764.2	0.9
303.15	25000	0.6998	767.5	0.9
303.15	30000	0.6998	770.8	0.9
303.15	35000	0.6998	773.9	0.9
303.15	40000	0.6998	776.9	0.9
303.15	50000	0.6998	782.7	1
303.15	60000	0.6998	787.9	1
313.15	100	0.6998	741.7	0.8
313.15	1000	0.6998	742.1	0.8
313.15	3000	0.6998	743.8	0.8
313.15	5000	0.6998	745.4	0.8
313.15	10000	0.6998	749.3	0.8
313.15	15000	0.6998	753.2	0.8
313.15	20000	0.6998	756.8	0.9
313.15	25000	0.6998	760.5	0.9
313.15	30000	0.6998	763.9	0.9
313.15	35000	0.6998	767.2	0.9
313.15	40000	0.6998	770.2	0.9
313.15	50000	0.6998	775.9	1
313.15	60000	0.6998	781.1	1
323.15	100	0.6998	733.6	0.8
323.15	1000	0.6998	734.5	0.8
323.15	3000	0.6998	736.3	0.8
323.15	5000	0.6998	738.1	0.8
323.15	10000	0.6998	742.3	0.8
323.15	15000	0.6998	746.4	0.8
323.15	20000	0.6998	750.4	0.9
323.15	25000	0.6998	753.8	0.9
323.15	30000	0.6998	757.3	0.9
323.15	35000	0.6998	760.8	0.9
323.15	40000	0.6998	764	0.9
323.15	50000	0.6998	770	1
323.15	60000	0.6998	775.9	1
333.15	100	0.6998	725.9	0.8
333.15	1000	0.6998	726.6	0.8
333.15	3000	0.6998	728.5	0.8
333.15	5000	0.6998	730.4	0.8
333.15	10000	0.6998	734.9	0.8
333.15	15000	0.6998	739	0.8
333.15	20000	0.6998	743.2	0.8
333.15	25000	0.6998	747.1	0.9
333.15	30000	0.6998	750.7	0.9
333.15	35000	0.6998	754.2	0.9
333.15	40000	0.6998	757.6	0.9
333.15	50000	0.6998	763.8	1
333.15	60000	0.6998	769.9	1
343.15	100	0.6998	717.5	0.8
343.15	1000	0.6998	718.7	0.8
343.15	3000	0.6998	720.6	0.8
343.15	5000	0.6998	722.8	0.8
343.15	10000	0.6998	727.4	0.8
343.15	15000	0.6998	731.9	0.8
343.15	20000	0.6998	736.4	0.8
343.15	25000	0.6998	740.3	0.9
343.15	30000	0.6998	744.2	0.9
343.15	35000	0.6998	747.9	0.9
343.15	40000	0.6998	751.3	0.9
343.15	50000	0.6998	757.8	1
343.15	60000	0.6998	763.9	1.1
353.15	100	0.6998	709.5	0.7
353.15	1000	0.6998	710.4	0.8
353.15	3000	0.6998	712.8	0.8
353.15	5000	0.6998	714.8	0.8
353.15	10000	0.6998	719.8	0.8
353.15	15000	0.6998	724.7	0.8
353.15	20000	0.6998	729.1	0.8
353.15	25000	0.6998	733.3	0.9
353.15	30000	0.6998	737.4	0.9
353.15	35000	0.6998	741.2	0.9
353.15	40000	0.6998	744.8	0.9
353.15	50000	0.6998	751.5	1
353.15	60000	0.6998	758.1	1.1
293.15	100	0.7999	748.1	0.8
293.15	1000	0.7999	748.5	0.8
293.15	3000	0.7999	750.3	0.8
293.15	5000	0.7999	751.5	0.8
293.15	10000	0.7999	755.2	0.8
293.15	15000	0.7999	758.6	0.8
293.15	20000	0.7999	761.8	0.9
293.15	25000	0.7999	765	0.9
293.15	30000	0.7999	768.1	0.9
293.15	35000	0.7999	771	0.9
293.15	40000	0.7999	773.8	0.9
293.15	50000	0.7999	779.4	1
303.15	100	0.7999	739.6	0.8
303.15	1000	0.7999	740.9	0.8
303.15	3000	0.7999	742.4	0.8
303.15	5000	0.7999	744.1	0.8
303.15	10000	0.7999	747.9	0.8
303.15	15000	0.7999	751.5	0.8
303.15	20000	0.7999	754.8	0.9
303.15	25000	0.7999	758.2	0.9
303.15	30000	0.7999	761.4	0.9
303.15	35000	0.7999	764.4	0.9
303.15	40000	0.7999	767.3	0.9
303.15	50000	0.7999	773	1
303.15	60000	0.7999	778.2	1
313.15	100	0.7999	732.6	0.8
313.15	1000	0.7999	733	0.8
313.15	3000	0.7999	734.7	0.8
313.15	5000	0.7999	736.4	0.8
313.15	10000	0.7999	740.4	0.8
313.15	15000	0.7999	744.2	0.8
313.15	20000	0.7999	747.8	0.8
313.15	25000	0.7999	751.4	0.9
313.15	30000	0.7999	754.7	0.9
313.15	35000	0.7999	757.9	0.9
313.15	40000	0.7999	760.8	0.9
313.15	50000	0.7999	766.8	1
313.15	60000	0.7999	772.1	1
323.15	100	0.7999	724.6	0.8
323.15	1000	0.7999	725.5	0.8
323.15	3000	0.7999	727.3	0.8
323.15	5000	0.7999	729	0.8
323.15	10000	0.7999	733.3	0.8
323.15	15000	0.7999	737.3	0.8
323.15	20000	0.7999	741.3	0.8
323.15	25000	0.7999	744.8	0.9
323.15	30000	0.7999	748.2	0.9
323.15	35000	0.7999	751.5	0.9
323.15	40000	0.7999	754.9	0.9
323.15	50000	0.7999	761	1
323.15	60000	0.7999	766.7	1
333.15	100	0.7999	716.6	0.8
333.15	1000	0.7999	717.1	0.8
333.15	3000	0.7999	719.6	0.8
333.15	5000	0.7999	721.4	0.8
333.15	10000	0.7999	725.9	0.8
333.15	15000	0.7999	730.1	0.8
333.15	20000	0.7999	734.2	0.8
333.15	25000	0.7999	738.1	0.9
333.15	30000	0.7999	741.6	0.9
333.15	35000	0.7999	745.1	0.9
333.15	40000	0.7999	748.6	0.9
333.15	50000	0.7999	754.9	1
333.15	60000	0.7999	760.7	1.1
343.15	100	0.7999	708.7	0.7
343.15	1000	0.7999	709.9	0.8
343.15	3000	0.7999	711.9	0.8
343.15	5000	0.7999	713.9	0.8
343.15	10000	0.7999	718.6	0.8
343.15	15000	0.7999	723.1	0.8
343.15	20000	0.7999	727.5	0.8
343.15	25000	0.7999	731.3	0.9
343.15	30000	0.7999	735.3	0.9
343.15	35000	0.7999	738.9	0.9
343.15	40000	0.7999	742.2	0.9
343.15	50000	0.7999	749	1
343.15	60000	0.7999	754.8	1.1
353.15	100	0.7999	700.8	0.7
353.15	1000	0.7999	701.7	0.7
353.15	3000	0.7999	704	0.8
353.15	5000	0.7999	706	0.8
353.15	10000	0.7999	711.1	0.8
353.15	15000	0.7999	716	0.8
353.15	20000	0.7999	720.3	0.8
353.15	25000	0.7999	724.5	0.9
353.15	30000	0.7999	728.5	0.9
353.15	35000	0.7999	732.4	0.9
353.15	40000	0.7999	735.9	0.9
353.15	50000	0.7999	742.8	1
353.15	60000	0.7999	749.1	1.1
293.15	100	0.9	739.3	0.8
293.15	1000	0.9	739.5	0.8
293.15	3000	0.9	740.7	0.8
293.15	5000	0.9	741.9	0.8
293.15	10000	0.9	745.7	0.8
293.15	15000	0.9	749.1	0.8
293.15	20000	0.9	752.4	0.9
293.15	25000	0.9	755.7	0.9
293.15	30000	0.9	758.8	0.9
293.15	35000	0.9	761.6	0.9
293.15	40000	0.9	764.4	0.9
293.15	50000	0.9	770	1
303.15	100	0.9	730.4	0.8
303.15	1000	0.9	731.6	0.8
303.15	3000	0.9	733.1	0.8
303.15	5000	0.9	734.7	0.8
303.15	10000	0.9	738.5	0.8
303.15	15000	0.9	742.1	0.8
303.15	20000	0.9	745.5	0.8
303.15	25000	0.9	748.8	0.9
303.15	30000	0.9	752	0.9
303.15	35000	0.9	755.1	0.9
303.15	40000	0.9	758	0.9
303.15	50000	0.9	764	1
303.15	60000	0.9	768.9	1
313.15	100	0.9	723.4	0.8
313.15	1000	0.9	723.7	0.8
313.15	3000	0.9	725.4	0.8
313.15	5000	0.9	727.1	0.8
313.15	10000	0.9	731.2	0.8
313.15	15000	0.9	734.9	0.8
313.15	20000	0.9	738.6	0.8
313.15	25000	0.9	742.1	0.9
313.15	30000	0.9	745.4	0.9
313.15	35000	0.9	748.6	0.9
313.15	40000	0.9	751.6	0.9
313.15	50000	0.9	757.6	1
313.15	60000	0.9	762.9	1.1
323.15	100	0.9	715.5	0.8
323.15	1000	0.9	716.4	0.8
323.15	3000	0.9	718.2	0.8
323.15	5000	0.9	720	0.8
323.15	10000	0.9	724.2	0.8
323.15	15000	0.9	728.3	0.8
323.15	20000	0.9	732.2	0.8
323.15	25000	0.9	735.6	0.9
323.15	30000	0.9	739.2	0.9
323.15	35000	0.9	742.4	0.9
323.15	40000	0.9	745.7	0.9
323.15	50000	0.9	751.8	1
323.15	60000	0.9	757.6	1.1
333.15	100	0.9	708.2	0.7
333.15	1000	0.9	708.6	0.7
333.15	3000	0.9	710.7	0.8
333.15	5000	0.9	712.5	0.8
333.15	10000	0.9	717	0.8
333.15	15000	0.9	721.2	0.8
333.15	20000	0.9	725.2	0.8
333.15	25000	0.9	729	0.9
333.15	30000	0.9	732.6	0.9
333.15	35000	0.9	736	0.9
333.15	40000	0.9	739.5	0.9
333.15	50000	0.9	745.8	1
333.15	60000	0.9	751.7	1.1
343.15	100	0.9	699.7	0.7
343.15	1000	0.9	700.9	0.7
343.15	3000	0.9	702.9	0.8
343.15	5000	0.9	705.1	0.8
343.15	10000	0.9	709.7	0.8
343.15	15000	0.9	714.1	0.8
343.15	20000	0.9	718.6	0.8
343.15	25000	0.9	722.4	0.9
343.15	30000	0.9	726.3	0.9
343.15	35000	0.9	730	0.9
343.15	40000	0.9	733.3	0.9
343.15	50000	0.9	740	1
343.15	60000	0.9	745.8	1.1
353.15	100	0.9	691.9	0.7
353.15	1000	0.9	692.9	0.7
353.15	3000	0.9	695.2	0.7
353.15	5000	0.9	697.3	0.8
353.15	10000	0.9	702.3	0.8
353.15	15000	0.9	707.1	0.8
353.15	20000	0.9	711.6	0.8
353.15	25000	0.9	715.7	0.9
353.15	30000	0.9	719.7	0.9
353.15	35000	0.9	723.5	0.9
353.15	40000	0.9	727	0.9
353.15	50000	0.9	733.8	1
353.15	60000	0.9	740.1	1.1
293.15	100	1	731	0.8
293.15	1000	1	731.7	0.8
293.15	3000	1	732.9	0.8
293.15	5000	1	734.2	0.8
293.15	10000	1	737.9	0.8
293.15	15000	1	741.3	0.8
293.15	20000	1	744.5	0.8
293.15	25000	1	747.7	0.9
293.15	30000	1	750.9	0.9
293.15	35000	1	753.6	0.9
293.15	40000	1	756.4	0.9
293.15	50000	1	762	1
293.15	60000	1	766.6	1
303.15	100	1	722.8	0.8
303.15	1000	1	723.7	0.8
303.15	3000	1	725.4	0.8
303.15	5000	1	727	0.8
303.15	10000	1	730.6	0.8
303.15	15000	1	734.3	0.8
303.15	20000	1	737.6	0.8
303.15	25000	1	740.9	0.9
303.15	30000	1	744	0.9
303.15	35000	1	747.2	0.9
303.15	40000	1	750	0.9
303.15	50000	1	755.7	1
303.15	60000	1	760.8	1.1
313.15	100	1	715.4	0.8
313.15	1000	1	716	0.8
313.15	3000	1	717.5	0.8
313.15	5000	1	719.3	0.8
313.15	10000	1	723.3	0.8
313.15	15000	1	727.1	0.8
313.15	20000	1	730.7	0.8
313.15	25000	1	734.2	0.9
313.15	30000	1	737.4	0.9
313.15	35000	1	740.7	0.9
313.15	40000	1	743.5	0.9
313.15	50000	1	749.5	1
313.15	60000	1	754.6	1.1
323.15	100	1	707.8	0.7
323.15	1000	1	708.6	0.7
323.15	3000	1	710.4	0.8
323.15	5000	1	712.2	0.8
323.15	10000	1	716.5	0.8
323.15	15000	1	720.5	0.8
323.15	20000	1	724.4	0.8
323.15	25000	1	727.8	0.9
323.15	30000	1	731.3	0.9
323.15	35000	1	734.5	0.9
323.15	40000	1	737.7	0.9
323.15	50000	1	743.7	1
323.15	60000	1	749.6	1.1
333.15	100	1	700.2	0.7
333.15	1000	1	700.9	0.7
333.15	3000	1	702.9	0.8
333.15	5000	1	704.8	0.8
333.15	10000	1	709.2	0.8
333.15	15000	1	713.5	0.8
333.15	20000	1	717.5	0.8
333.15	25000	1	721.2	0.9
333.15	30000	1	724.8	0.9
333.15	35000	1	728.2	0.9
333.15	40000	1	731.7	0.9
333.15	50000	1	737.9	1
333.15	60000	1	743.8	1.1
343.15	100	1	692.2	0.7
343.15	1000	1	693.2	0.7
343.15	3000	1	695.3	0.7
343.15	5000	1	697.4	0.8
343.15	10000	1	702.1	0.8
343.15	15000	1	706.5	0.8
343.15	20000	1	710.9	0.8
343.15	25000	1	714.7	0.9
343.15	30000	1	718.5	0.9
343.15	35000	1	722.2	0.9
343.15	40000	1	725.6	0.9
343.15	50000	1	732.2	1
343.15	60000	1	737.9	1.1
353.15	100	1	684.6	0.7
353.15	1000	1	685.4	0.7
353.15	3000	1	687.8	0.7
353.15	5000	1	689.8	0.7
353.15	10000	1	694.9	0.8
353.15	15000	1	699.7	0.8
353.15	20000	1	704.1	0.8
353.15	25000	1	708.2	0.9
353.15	30000	1	712.2	0.9
353.15	35000	1	715.9	0.9
353.15	40000	1	719.4	1
353.15	50000	1	726.2	1
353.15	60000	1	732.5	1.1
363.15	100	1	676.6	0.7
363.15	1000	1	677.8	0.7
363.15	3000	1	680.2	0.7
363.15	5000	1	682.5	0.7
363.15	10000	1	687.4	0.8
363.15	15000	1	692.8	0.8
363.15	20000	1	697.2	0.8
363.15	25000	1	701.3	0.9
363.15	30000	1	705.7	0.9
363.15	35000	1	709.7	0.9
363.15	40000	1	713.6	1
363.15	50000	1	720.5	1
363.15	60000	1	727.1	1.1

System: decane + 1,4-dimethylbenzene; phases: Liquid
Fixed: Temperature, K = 363.15
Property: Mass density, kg/m3 (Liquid); method: Vibrating tube method
Pressure, kPa	Mole fraction of decane	Mass density, kg/m3	uncertainty
100	0.1006	780.2	1.6
1000	0.1006	780.5	1.6
3000	0.1006	783	1.6
5000	0.1006	786	1.6
10000	0.1006	789.8	1.6
15000	0.1006	795.2	1.6
20000	0.1006	800.7	1.6
25000	0.1006	803.8	1.7
30000	0.1006	807.4	1.7
35000	0.1006	812.2	1.7
40000	0.1006	817.5	1.7
50000	0.1006	824.8	1.7
60000	0.1006	829.8	1.8
100	0.2	763.3	1.5
1000	0.2	764.1	1.5
3000	0.2	766.5	1.6
5000	0.2	769.1	1.6
10000	0.2	773.7	1.6
15000	0.2	779.1	1.6
20000	0.2	783.9	1.6
25000	0.2	787.7	1.6
30000	0.2	792.5	1.6
35000	0.2	796.1	1.7
40000	0.2	800.6	1.7
50000	0.2	807.9	1.7
60000	0.2	814.3	1.7
100	0.3	748.2	1.5
1000	0.3	748.6	1.5
3000	0.3	751	1.5
5000	0.3	754.1	1.5
10000	0.3	758.2	1.5
15000	0.3	763.6	1.6
20000	0.3	768.8	1.6
25000	0.3	772.3	1.6
30000	0.3	777.5	1.6
35000	0.3	780.8	1.6
40000	0.3	785.5	1.7
50000	0.3	792.7	1.7
60000	0.3	798.9	1.7
100	0.3998	734.6	1.5
1000	0.3998	735.2	1.5
3000	0.3998	737.6	1.5
5000	0.3998	740.5	1.5
10000	0.3998	744.8	1.5
15000	0.3998	750.2	1.5
20000	0.3998	755.3	1.6
25000	0.3998	758.8	1.6
30000	0.3998	763.9	1.6
35000	0.3998	767.2	1.6
40000	0.3998	772	1.6
50000	0.3998	779.2	1.7
60000	0.3998	785.1	1.7
100	0.5	722.4	1.5
1000	0.5	722.8	1.5
3000	0.5	725.3	1.5
5000	0.5	728.3	1.5
10000	0.5	732.5	1.5
15000	0.5	737.8	1.5
20000	0.5	743	1.5
25000	0.5	746.4	1.6
30000	0.5	751.7	1.6
35000	0.5	754.9	1.6
40000	0.5	759.7	1.6
50000	0.5	766.9	1.7
60000	0.5	772.3	1.7
100	0.6001	711.5	1.4
1000	0.6001	711.7	1.4
3000	0.6001	714.1	1.5
5000	0.6001	717.3	1.5
10000	0.6001	721.4	1.5
15000	0.6001	726.8	1.5
20000	0.6001	732.1	1.5
25000	0.6001	735.5	1.5
30000	0.6001	740.7	1.6
35000	0.6001	743.7	1.6
40000	0.6001	748.7	1.6
50000	0.6001	755.8	1.6
60000	0.6001	761.4	1.7
100	0.6998	701.5	1.4
1000	0.6998	702.4	1.4
3000	0.6998	704.8	1.4
5000	0.6998	707.4	1.4
10000	0.6998	712.1	1.5
15000	0.6998	717.6	1.5
20000	0.6998	722.1	1.5
25000	0.6998	726.3	1.5
30000	0.6998	730.7	1.5
35000	0.6998	734.8	1.6
40000	0.6998	738.6	1.6
50000	0.6998	745.7	1.6
60000	0.6998	752.5	1.7
100	0.7999	692.4	1.4
1000	0.7999	693.8	1.4
3000	0.7999	696.2	1.4
5000	0.7999	698.3	1.4
10000	0.7999	703.4	1.4
15000	0.7999	708.9	1.5
20000	0.7999	713	1.5
25000	0.7999	717.6	1.5
30000	0.7999	721.6	1.5
35000	0.7999	725.8	1.6
40000	0.7999	729.5	1.6
50000	0.7999	736.5	1.6
60000	0.7999	743.5	1.7
100	0.9	684.2	1.4
1000	0.9	685	1.4
3000	0.9	687.5	1.4
5000	0.9	690.1	1.4
10000	0.9	694.7	1.4
15000	0.9	700.1	1.5
20000	0.9	704.8	1.5
25000	0.9	708.7	1.5
30000	0.9	713.3	1.5
35000	0.9	717.1	1.5
40000	0.9	721.2	1.6
50000	0.9	728.2	1.6
60000	0.9	734.6	1.7
