Measured thermophysical data. Liquid-liquid equilibrium and critical states for the system acetic acid + n-butanol + n-butyl acetate + water at 308.15 K
Source: Fluid Phase Equilib., 2015, 10.1016/j.fluid.2014.11.004
Compound 1: acetic acid, C2H4O2, InChI=1S/C2H4O2/c1-2(3)4/h1H3,(H,3,4), purity 99.8%
Compound 2: butan-1-ol, C4H10O, InChI=1S/C4H10O/c1-2-3-4-5/h5H,2-4H2,1H3, purity 99.5%
Compound 3: butyl ethanoate, C6H12O2, InChI=1S/C6H12O2/c1-3-4-5-8-6(2)7/h3-5H2,1-2H3, purity 99.8%
Compound 4: water, H2O, InChI=1S/H2O/h1H2, purity 99.9%

System: acetic acid + butan-1-ol + water; phases: Liquid mixture 1, Liquid mixture 2
Fixed: Temperature, K = 308.15
Fixed: Pressure, kPa = 101
Property: Mole fraction of acetic acid (Liquid mixture 1); method: Chromatography
Property: Mole fraction of acetic acid (Liquid mixture 2); method: Chromatography
Property: Mole fraction of butan-1-ol (Liquid mixture 2); method: Chromatography
Mole fraction of butan-1-ol	Mole fraction of acetic acid	uncertainty	Mole fraction of acetic acid	uncertainty	Mole fraction of butan-1-ol	uncertainty
0.017	0		0		0.476	
0.017	0.009	0.009	0.017	0.011	0.414	
0.023	0.019	0.01	0.043	0.011	0.356	
0.029	0.029	0.01	0.064	0.011	0.294	
0.037	0.032	0.01	0.07	0.01	0.273	
0.046	0.04	0.01	0.078	0.01	0.225	
0.06	0.048	0.01	0.079	0.01	0.181	

System: acetic acid + butan-1-ol + water; phases: Liquid, Gas
Property: Mole fraction in LLG critical state of acetic acid (Liquid); method: cloud point
Mole fraction of butan-1-ol	Temperature, K	Mole fraction in LLG critical state of acetic acid	uncertainty
0.109	308.15	0.063	0.01

System: acetic acid + butyl ethanoate + water; phases: Liquid mixture 2, Liquid mixture 1
Fixed: Temperature, K = 308.15
Fixed: Pressure, kPa = 101
Property: Mole fraction of acetic acid (Liquid mixture 2); method: Chromatography
Property: Mole fraction of butyl ethanoate (Liquid mixture 1); method: Chromatography
Property: Mole fraction of acetic acid (Liquid mixture 1); method: Chromatography
Mole fraction of butyl ethanoate	Mole fraction of acetic acid	uncertainty	Mole fraction of butyl ethanoate	uncertainty	Mole fraction of acetic acid	uncertainty
0.923	0		0.001	0.001	0	
0.312	0.282	0.01	0.008	0.008	0.142	
0.26	0.29	0.01	0.012	0.01	0.161	
0.203	0.291	0.01	0.02	0.012	0.181	
0.139	0.275	0.01	0.04	0.01	0.206	
0.857	0.027	0.011	0.001	0.001	0.009	
0.798	0.061	0.011	0.001	0.001	0.02	
0.72	0.104	0.012	0.002	0.002	0.036	
0.644	0.15	0.011	0.001	0.001	0.053	
0.568	0.188	0.011	0.002	0.002	0.069	
0.492	0.224	0.011	0.003	0.003	0.089	
0.421	0.248	0.011	0.004	0.004	0.105	
0.357	0.27	0.011	0.006	0.006	0.126	

System: acetic acid + butyl ethanoate + water; phases: Liquid, Gas
Property: Mole fraction in LLG critical state of acetic acid (Liquid); method: cloud point
Mole fraction of butyl ethanoate	Temperature, K	Mole fraction in LLG critical state of acetic acid	uncertainty
0.133	308.15	0.26	0.011

System: butan-1-ol + butyl ethanoate + water; phases: Liquid mixture 1, Liquid mixture 2
Fixed: Temperature, K = 308.15
Fixed: Pressure, kPa = 101
Property: Mole fraction of butyl ethanoate (Liquid mixture 1); method: Chromatography
Property: Mole fraction of butan-1-ol (Liquid mixture 2); method: Chromatography
Property: Mole fraction of butyl ethanoate (Liquid mixture 2); method: Chromatography
Mole fraction of butan-1-ol	Mole fraction of butyl ethanoate	uncertainty	Mole fraction of butan-1-ol	uncertainty	Mole fraction of butyl ethanoate	uncertainty
0.001	0.001	0.001	0.042	0.01	0.871	
0.01	0.001	0.001	0.357	0.011	0.308	
0.012	0.001	0.001	0.397	0.011	0.223	
0.014	0.001	0.001	0.425	0.011	0.155	
0.016	0		0.457	0.011	0.067	
0.002	0.001	0.001	0.083	0.012	0.806	
0.002	0.001	0.001	0.118	0.012	0.75	
0.004	0.001	0.001	0.176	0.012	0.653	
0.006	0.001	0.001	0.219	0.012	0.58	
0.007	0.001	0.001	0.246	0.012	0.529	
0.008	0.001	0.001	0.278	0.012	0.473	
0.009	0.001	0.001	0.315	0.011	0.4	
0.009	0.001	0.001	0.344	0.011	0.34	
