Measured thermophysical data. Experimental and in silico characterization of xylitol as seasonal heat storage material
Source: Fluid Phase Equilib., 2017, 10.1016/j.fluid.2016.12.020
Compound 1: xylitol, C5H12O5, InChI=1S/C5H12O5/c6-1-3(8)5(10)4(9)2-7/h3-10H,1-2H2/t3-,4+,5+, purity 98.43%

System: xylitol; phases: Crystal, Liquid, Air at 1 atmosphere
Property: Normal melting temperature, K (Crystal); method: DTA
Normal melting temperature, K	uncertainty
366.2	1.1

System: xylitol; phases: Crystal, Liquid, Air at 1 atmosphere
Property: Molar enthalpy of transition or fusion, kJ/mol (Crystal); method: DSC
Molar enthalpy of transition or fusion, kJ/mol	uncertainty
40.02	4.08

System: xylitol; phases: Liquid
Fixed: Pressure, kPa = 101.325
Property: Thermal conductivity, W/m/K (Liquid); method: Hot disk method
Temperature, K	Thermal conductivity, W/m/K	uncertainty
303.15	0.42	0.04
323.15	0.45	0.01
343.15	0.39	0.01
363.15	0.4	0.03
373.15	0.4	0.01

System: xylitol; phases: Crystal
Property: Thermal conductivity, W/m/K (Crystal); method: Hot disk method
Temperature, K	Pressure, kPa	Thermal conductivity, W/m/K	uncertainty
298.15	101.325	1.3	0.16

System: xylitol; phases: Crystal
Fixed: Pressure, kPa = 101.325
Property: Molar heat capacity at constant pressure, J/K/mol (Crystal); method: DSC
Temperature, K	Molar heat capacity at constant pressure, J/K/mol	uncertainty
293.15	188.6607672	7.607289
303.15	193.2251406	7.91158056
313.15	197.789514	8.06372634
323.15	203.8753452	8.21587212
333.15	213.004092	8.67230946

System: xylitol; phases: Liquid
Fixed: Pressure, kPa = 101.325
Property: Molar heat capacity at constant pressure, J/K/mol (Liquid); method: DSC
Temperature, K	Molar heat capacity at constant pressure, J/K/mol	uncertainty
353.15	386.4502812	20.69182608
363.15	391.0146546	20.84397186
373.15	395.579028	21.14826342
383.15	398.6219436	21.3004092
393.15	403.186317	21.45255498
403.15	403.186317	21.45255498

System: xylitol; phases: Crystal
Fixed: Pressure, kPa = 101.325
Property: Mass density, kg/m3 (Crystal); method: graduated glass cylinder
Temperature, K	Mass density, kg/m3	uncertainty
303.15	1497.1	15.1
313.15	1495.4	15.2
323.15	1492.5	15.2
333.15	1488.5	15.3
343.15	1483.3	15.4
353.15	1477	15.5
363.15	1469.6	15.5

System: xylitol; phases: Liquid
Fixed: Pressure, kPa = 101.325
Property: Mass density, kg/m3 (Liquid); method: graduated glass cylinder
Temperature, K	Mass density, kg/m3	uncertainty
313.15	1374.6	14.9
323.15	1365.1	14.8
333.15	1355.7	14.7
343.15	1346.4	14.3
353.15	1339.7	13.9
363.15	1333.9	13.8
373.15	1328.1	13.7
383.15	1322.4	13.7
393.15	1316.8	13.6
403.15	1311.5	13.5

System: xylitol; phases: Liquid
Fixed: Pressure, kPa = 101.325
Property: Viscosity, Pa*s (Liquid); method: TA Instruments AR 2000 rheometer with a parallel plate
Temperature, K	Viscosity, Pa*s	uncertainty
313.15	68.0543	16.8204
314.15	60.2608	14.6837
315.15	53.4374	12.7996
316.15	47.5473	11.2032
317.15	42.1923	9.7698
318.15	37.7081	8.5886
319.15	33.4827	7.4901
320.15	30.1007	6.6258
321.15	26.6993	5.7815
322.15	23.8556	5.0681
323.15	21.3396	4.4465
324.15	19.2735	3.9491
325.15	17.2586	3.4772
326.15	15.5345	3.0733
327.15	13.96	2.7115
328.15	12.6017	2.4004
329.15	11.4289	2.142
330.15	10.2665	1.8886
331.15	9.3201	1.6818
332.15	8.4248	1.4922
333.15	7.659	1.3318
334.15	6.9339	1.183
335.15	6.3123	1.0554
336.15	5.7544	0.9443
337.15	5.2462	0.8443
338.15	4.8004	0.7579
339.15	4.3879	0.6804
340.15	4.0058	0.6088
341.15	3.6711	0.5478
342.15	3.3435	0.4885
343.15	3.0719	0.4384
344.15	2.8335	0.3965
345.15	2.6112	0.3588
346.15	2.4016	0.3242
347.15	2.1983	0.2907
348.15	2.0194	0.2616
349.15	1.8449	0.2338
350.15	1.6935	0.2092
351.15	1.5584	0.1879
352.15	1.4389	0.1693
353.15	1.332	0.1526
354.15	1.2437	0.1394
355.15	1.1577	0.1272
356.15	1.0783	0.1159
357.15	1.0045	0.1053
358.15	0.944	0.0971
359.15	0.8772	0.0888
360.15	0.8149	0.08
361.15	0.7659	0.0736
362.15	0.712	0.067
363.15	0.6665	0.0609
364.15	0.6247	0.0557
365.15	0.5865	0.0513
366.15	0.5475	0.0466
367.15	0.5154	0.0428
368.15	0.4823	0.0389
369.15	0.4557	0.0357
370.15	0.4297	0.0329
371.15	0.405	0.0305
372.15	0.3783	0.0277
373.15	0.3566	0.0254
374.15	0.3345	0.0231
375.15	0.3165	0.021
376.15	0.3003	0.0193
377.15	0.2869	0.0179
378.15	0.2742	0.0166
379.15	0.2637	0.0155
380.15	0.2533	0.0146
381.15	0.2441	0.0137
