Measured thermophysical data. Phase equilibria of water + 1-propanol + solvent (n-amyl acetate, cyclohexanol, and cyclohexyl acetate) at T = 298.2K
Source: Fluid Phase Equilib., 2007, 10.1016/j.fluid.2007.01.021
Compound 1: water, H2O, InChI=1S/H2O/h1H2, purity 99%
Compound 2: propan-1-ol, C3H8O, InChI=1S/C3H8O/c1-2-3-4/h4H,2-3H2,1H3, purity 99%
Compound 3: pentyl ethanoate, C7H14O2, InChI=1S/C7H14O2/c1-3-4-5-6-9-7(2)8/h3-6H2,1-2H3, purity 99%
Compound 4: cyclohexanol, C6H12O, InChI=1S/C6H12O/c7-6-4-2-1-3-5-6/h6-7H,1-5H2, purity 99%
Compound 5: cyclohexyl ethanoate, C8H14O2, InChI=1S/C8H14O2/c1-7(9)10-8-5-3-2-4-6-8/h8H,2-6H2,1H3, purity 99%

System: water; phases: Liquid
Property: Refractive index (Na D-line) (Liquid); method: Standard Abbe refractometry
Temperature, K	Pressure, kPa	Refractive index (Na D-line)	uncertainty
293.15	101.325	1.3326	0.0006

System: water; phases: Liquid
Property: Mass density, kg/m3 (Liquid); method: VIBTUB:UFactor:8
Temperature, K	Pressure, kPa	Mass density, kg/m3	uncertainty
293.15	101.325	998.4	0.5

System: propan-1-ol; phases: Liquid
Property: Refractive index (Na D-line) (Liquid); method: Standard Abbe refractometry
Temperature, K	Pressure, kPa	Refractive index (Na D-line)	uncertainty
293.15	101.325	1.385	0.0006

System: propan-1-ol; phases: Liquid
Property: Mass density, kg/m3 (Liquid); method: VIBTUB:UFactor:8
Temperature, K	Pressure, kPa	Mass density, kg/m3	uncertainty
293.15	101.325	803.5	1

System: pentyl ethanoate; phases: Liquid
Property: Refractive index (Na D-line) (Liquid); method: Standard Abbe refractometry
Temperature, K	Pressure, kPa	Refractive index (Na D-line)	uncertainty
293.15	101.325	1.4026	0.0006

System: pentyl ethanoate; phases: Liquid
Property: Mass density, kg/m3 (Liquid); method: VIBTUB:UFactor:8
Temperature, K	Pressure, kPa	Mass density, kg/m3	uncertainty
293.15	101.325	875	0.8

System: cyclohexanol; phases: Liquid
Property: Refractive index (Na D-line) (Liquid); method: Standard Abbe refractometry
Temperature, K	Pressure, kPa	Refractive index (Na D-line)	uncertainty
293.15	101.325	1.4639	0.0006

System: cyclohexanol; phases: Liquid
Property: Mass density, kg/m3 (Liquid); method: VIBTUB:UFactor:8
Temperature, K	Pressure, kPa	Mass density, kg/m3	uncertainty
293.15	101.325	962.3	0.6

System: cyclohexyl ethanoate; phases: Liquid
Property: Refractive index (Na D-line) (Liquid); method: Standard Abbe refractometry
Temperature, K	Pressure, kPa	Refractive index (Na D-line)	uncertainty
293.15	101.325	1.4422	0.0006

System: cyclohexyl ethanoate; phases: Liquid
Property: Mass density, kg/m3 (Liquid); method: VIBTUB:UFactor:8
Temperature, K	Pressure, kPa	Mass density, kg/m3	uncertainty
293.15	101.325	968.2	0.5

System: pentyl ethanoate + water; phases: Liquid mixture 1, Liquid mixture 2
Property: Mole fraction of water (Liquid mixture 1); method: CHROM:UFactor:4
Pressure, kPa	Temperature, K	Mole fraction of water	uncertainty
101.3	298.2	0.9995	0.0001

System: pentyl ethanoate + water; phases: Liquid mixture 2, Liquid mixture 1
Property: Mole fraction of water (Liquid mixture 2); method: CHROM:UFactor:8
Temperature, K	Pressure, kPa	Mole fraction of water	uncertainty
298.2	101.3	0.0255	0.002

System: cyclohexanol + water; phases: Liquid mixture 1, Liquid mixture 2
Property: Mole fraction of water (Liquid mixture 1); method: CHROM:UFactor:8
Temperature, K	Pressure, kPa	Mole fraction of water	uncertainty
298.2	101.3	0.9938	0.0005

System: cyclohexanol + water; phases: Liquid mixture 2, Liquid mixture 1
Property: Mole fraction of water (Liquid mixture 2); method: CHROM:UFactor:4
Temperature, K	Pressure, kPa	Mole fraction of water	uncertainty
298.2	101.3	0.4075	0.0126

System: cyclohexyl ethanoate + water; phases: Liquid mixture 1, Liquid mixture 2
Property: Mole fraction of water (Liquid mixture 1); method: CHROM:UFactor:4
Temperature, K	Pressure, kPa	Mole fraction of water	uncertainty
298.2	101.3	0.9999	0.0001

System: cyclohexyl ethanoate + water; phases: Liquid mixture 2, Liquid mixture 1
Property: Mole fraction of water (Liquid mixture 2); method: CHROM:UFactor:16
Temperature, K	Pressure, kPa	Mole fraction of water	uncertainty
298.2	101.3	0.0426	0.0068

System: propan-1-ol + pentyl ethanoate + water; phases: Liquid mixture 1, Liquid mixture 2
Fixed: Pressure, kPa = 101.3
Fixed: Temperature, K = 298.2
Property: Mole fraction of propan-1-ol (Liquid mixture 1); method: CHROM:UFactor:4
Property: Mole fraction of propan-1-ol (Liquid mixture 2); method: CHROM:UFactor:4
Property: Mole fraction of water (Liquid mixture 2); method: CHROM:UFactor:4
Mole fraction of water	Mole fraction of propan-1-ol	uncertainty	Mole fraction of propan-1-ol	uncertainty	Mole fraction of water	uncertainty
0.9995	0	0.0001	0	0.0001	0.0255	
0.9738	0.026	0.0008	0.1871	0.0116	0.2161	
0.9659	0.0339	0.0011	0.2647	0.0164	0.2815	
0.9606	0.0392	0.0012	0.314	0.0195	0.313	
0.9565	0.0433	0.0013	0.345	0.0214	0.3551	
0.9576	0.0422	0.0013	0.369	0.0229	0.3718	
0.9511	0.0487	0.0015	0.369	0.0229	0.4239	

System: propan-1-ol + cyclohexanol + water; phases: Liquid mixture 1, Liquid mixture 2
Fixed: Temperature, K = 298.2
Fixed: Pressure, kPa = 101.3
Property: Mole fraction of propan-1-ol (Liquid mixture 1); method: CHROM:UFactor:8
Property: Mole fraction of water (Liquid mixture 2); method: CHROM:UFactor:8
Property: Mole fraction of propan-1-ol (Liquid mixture 2); method: CHROM:UFactor:8
Mole fraction of water	Mole fraction of propan-1-ol	uncertainty	Mole fraction of water	uncertainty	Mole fraction of propan-1-ol	uncertainty
0.9938	0	0.0001	0.4075	0.0126	0	
0.9818	0.0095	0.0006	0.3999	0.0124	0.0857	
0.9772	0.015	0.0009	0.4275	0.0132	0.1416	
0.9701	0.0228	0.0014	0.4604	0.0143	0.187	
0.9624	0.03	0.0019	0.4982	0.0154	0.2209	
0.9588	0.0346	0.0021	0.513	0.0151	0.2346	
0.9562	0.0374	0.0023	0.5404	0.0142	0.2577	

System: propan-1-ol + cyclohexyl ethanoate + water; phases: Liquid mixture 1, Liquid mixture 2
Fixed: Temperature, K = 298.2
Fixed: Pressure, kPa = 101.3
Property: Mole fraction of propan-1-ol (Liquid mixture 1); method: CHROM:UFactor:4
Property: Mole fraction of propan-1-ol (Liquid mixture 2); method: CHROM:UFactor:4
Property: Mole fraction of water (Liquid mixture 2); method: CHROM:UFactor:4
Mole fraction of water	Mole fraction of propan-1-ol	uncertainty	Mole fraction of propan-1-ol	uncertainty	Mole fraction of water	uncertainty
0.9999	0	0.0001	0	0.0001	0.0426	
0.9711	0.0284	0.0009	0.2245	0.0278	0.0838	
0.9639	0.0354	0.0011	0.3147	0.039	0.162	
0.9578	0.0418	0.0013	0.3536	0.0438	0.2299	
0.9539	0.0458	0.0014	0.409	0.0507	0.2561	
0.9499	0.0498	0.0015	0.4121	0.0511	0.3338	
0.9488	0.0508	0.0016	0.4277	0.053	0.339	
