Measured thermophysical data. Tetramethylammonium chloride + glycerol deep eutectic solvent as separation agent for organic liquid mixtures: Assessment from experimental limiting activity coefficients
Source: Fluid Phase Equilib., 2018, 10.1016/j.fluid.2018.06.003
Compound 1: hexane, C6H14, InChI=1S/C6H14/c1-3-5-6-4-2/h3-6H2,1-2H3, purity 99%
Compound 2: heptane, C7H16, InChI=1S/C7H16/c1-3-5-7-6-4-2/h3-7H2,1-2H3, purity 99.9%
Compound 3: octane, C8H18, InChI=1S/C8H18/c1-3-5-7-8-6-4-2/h3-8H2,1-2H3, purity 99.9%
Compound 4: cyclopentane, C5H10, InChI=1S/C5H10/c1-2-4-5-3-1/h1-5H2, purity 98.5%
Compound 5: cyclohexane, C6H12, InChI=1S/C6H12/c1-2-4-6-5-3-1/h1-6H2, purity 99%
Compound 6: cycloheptane, C7H14, InChI=1S/C7H14/c1-2-4-6-7-5-3-1/h1-7H2, purity 99.9%
Compound 7: cyclooctane, C8H16, InChI=1S/C8H16/c1-2-4-6-8-7-5-3-1/h1-8H2, purity 99.5%
Compound 8: hex-1-ene, C6H12, InChI=1S/C6H12/c1-3-5-6-4-2/h3H,1,4-6H2,2H3, purity 98%
Compound 9: 1-heptene, C7H14, InChI=1S/C7H14/c1-3-5-7-6-4-2/h3H,1,4-7H2,2H3, purity 98%
Compound 10: 1-heptyne, C7H12, InChI=1S/C7H12/c1-3-5-7-6-4-2/h1H,4-7H2,2H3, purity 99.9%
Compound 11: 1-octyne, C8H14, InChI=1S/C8H14/c1-3-5-7-8-6-4-2/h1H,4-8H2,2H3, purity 99.9%
Compound 12: ethanol, C2H6O, InChI=1S/C2H6O/c1-2-3/h3H,2H2,1H3, purity 99.9%
Compound 13: methanol, CH4O, InChI=1S/CH4O/c1-2/h2H,1H3, purity 99.9%
Compound 14: propan-1-ol, C3H8O, InChI=1S/C3H8O/c1-2-3-4/h4H,2-3H2,1H3, purity 99.5%
Compound 15: propan-2-ol, C3H8O, InChI=1S/C3H8O/c1-3(2)4/h3-4H,1-2H3, purity 99.5%
Compound 16: benzene, C6H6, InChI=1S/C6H6/c1-2-4-6-5-3-1/h1-6H, purity 99.9%
Compound 17: toluene, C7H8, InChI=1S/C7H8/c1-7-5-3-2-4-6-7/h2-6H,1H3, purity 99.9%
Compound 18: ethylbenzene, C8H10, InChI=1S/C8H10/c1-2-8-6-4-3-5-7-8/h3-7H,2H2,1H3, purity 99.9%
Compound 19: acetone, C3H6O, InChI=1S/C3H6O/c1-3(2)4/h1-2H3, purity 99.9%
Compound 20: butanone, C4H8O, InChI=1S/C4H8O/c1-3-4(2)5/h3H2,1-2H3, purity 99.7%
Compound 21: thiophene, C4H4S, InChI=1S/C4H4S/c1-2-4-5-3-1/h1-4H, purity 99.9%
Compound 22: pyridine, C5H5N, InChI=1S/C5H5N/c1-2-4-6-5-3-1/h1-5H, purity 99.9%
Compound 23: methyl ethanoate, C3H6O2, InChI=1S/C3H6O2/c1-3(4)5-2/h1-2H3, purity 98%
Compound 24: ethyl acetate, C4H8O2, InChI=1S/C4H8O2/c1-3-6-4(2)5/h3H2,1-2H3, purity 99.5%
Compound 25: tetramethylammonium chloride, C4H12ClN, InChI=1S/C4H12N.ClH/c1-5(2,3)4;/h1-4H3;1H/q+1;/p-1, purity 99%
Compound 26: glycerol, C3H8O3, InChI=1S/C3H8O3/c4-1-3(6)2-5/h3-6H,1-2H2, purity 98.5%
Compound 27: 2-methyl-1-propanol, C4H10O, InChI=1S/C4H10O/c1-4(2)3-5/h4-5H,3H2,1-2H3, purity 99%

System: tetramethylammonium chloride + glycerol; phases: Liquid
Property: Refractive index (Na D-line) (Liquid); method: Standard Abbe refractometry
Mole fraction of tetramethylammonium chloride	Temperature, K	Pressure, kPa	Refractive index (Na D-line)	uncertainty
0.3336	298.15	101	1.47183	0.00044

System: tetramethylammonium chloride + glycerol; phases: Liquid
Property: Mass density, kg/m3 (Liquid); method: Vibrating tube method
Mole fraction of tetramethylammonium chloride	Temperature, K	Pressure, kPa	Mass density, kg/m3	uncertainty
0.3336	298.15	101	1145.22	2.06

System: hexane + tetramethylammonium chloride + glycerol; phases: Liquid
Fixed: Pressure, kPa = 101
Fixed: Solvent: Mole fraction of tetramethylammonium chloride = 0.3336
Fixed: Mole fraction of hexane = 0
Property: Activity coefficient of hexane (Liquid); method: Chromatography
Temperature, K	Activity coefficient of hexane	uncertainty
313.15	223.053	18.527
323.15	249.298	20.71
333.15	277.807	23.083
343.15	314.979	26.177

System: heptane + tetramethylammonium chloride + glycerol; phases: Liquid
Fixed: Pressure, kPa = 101
Fixed: Solvent: Mole fraction of tetramethylammonium chloride = 0.3336
Fixed: Mole fraction of heptane = 0
Property: Activity coefficient of heptane (Liquid); method: Chromatography
Temperature, K	Activity coefficient of heptane	uncertainty
313.15	218.483	18.147
323.15	243.115	20.194
333.15	264.75	21.998
343.15	309.556	25.731

System: octane + tetramethylammonium chloride + glycerol; phases: Liquid
Fixed: Pressure, kPa = 101
Fixed: Solvent: Mole fraction of tetramethylammonium chloride = 0.3336
Fixed: Mole fraction of octane = 0
Property: Activity coefficient of octane (Liquid); method: Chromatography
Temperature, K	Activity coefficient of octane	uncertainty
313.15	211.856	17.595
323.15	235.562	19.566
333.15	261.023	21.688
343.15	301.112	25.026

System: cyclopentane + tetramethylammonium chloride + glycerol; phases: Liquid
Fixed: Pressure, kPa = 101
Fixed: Solvent: Mole fraction of tetramethylammonium chloride = 0.3336
Fixed: Mole fraction of cyclopentane = 0
Property: Activity coefficient of cyclopentane (Liquid); method: Chromatography
Temperature, K	Activity coefficient of cyclopentane	uncertainty
313.15	195.38	16.24
323.15	236.66	19.664
333.15	265.535	22.062
343.15	300.693	24.988

System: cyclohexane + tetramethylammonium chloride + glycerol; phases: Liquid
Fixed: Pressure, kPa = 101
Fixed: Solvent: Mole fraction of tetramethylammonium chloride = 0.3336
Fixed: Mole fraction of cyclohexane = 0
Property: Activity coefficient of cyclohexane (Liquid); method: Chromatography
Temperature, K	Activity coefficient of cyclohexane	uncertainty
313.15	192.846	16.017
323.15	219.62	18.24
333.15	239.06	19.855
343.15	260.779	21.662

System: cycloheptane + tetramethylammonium chloride + glycerol; phases: Liquid
Fixed: Pressure, kPa = 101
Fixed: Solvent: Mole fraction of tetramethylammonium chloride = 0.3336
Fixed: Mole fraction of cycloheptane = 0
Property: Activity coefficient of cycloheptane (Liquid); method: Chromatography
Temperature, K	Activity coefficient of cycloheptane	uncertainty
313.15	187.925	15.606
323.15	211.47	17.561
333.15	226.263	18.79
343.15	245.922	20.426

System: cyclooctane + tetramethylammonium chloride + glycerol; phases: Liquid
Fixed: Pressure, kPa = 101
Fixed: Solvent: Mole fraction of tetramethylammonium chloride = 0.3336
Fixed: Mole fraction of cyclooctane = 0
Property: Activity coefficient of cyclooctane (Liquid); method: Chromatography
Temperature, K	Activity coefficient of cyclooctane	uncertainty
313.15	184.764	15.34
323.15	200.845	16.676
333.15	214.891	17.845
343.15	234.759	19.498

System: hex-1-ene + tetramethylammonium chloride + glycerol; phases: Liquid
Fixed: Pressure, kPa = 101
Fixed: Solvent: Mole fraction of tetramethylammonium chloride = 0.3336
Fixed: Mole fraction of hex-1-ene = 0
Property: Activity coefficient of hex-1-ene (Liquid); method: Chromatography
Temperature, K	Activity coefficient of hex-1-ene	uncertainty
313.15	285.361	23.732
323.15	344.757	28.657
333.15	371.916	30.916
343.15	429.07	35.68

System: 1-heptene + tetramethylammonium chloride + glycerol; phases: Liquid
Fixed: Pressure, kPa = 101
Fixed: Solvent: Mole fraction of tetramethylammonium chloride = 0.3336
Fixed: Mole fraction of 1-heptene = 0
Property: Activity coefficient of 1-heptene (Liquid); method: Chromatography
Temperature, K	Activity coefficient of 1-heptene	uncertainty
313.15	208.124	17.288
323.15	235.97	19.599
333.15	253.339	21.045
343.15	287.655	23.903

System: 1-heptyne + tetramethylammonium chloride + glycerol; phases: Liquid
Fixed: Pressure, kPa = 101
Fixed: Solvent: Mole fraction of tetramethylammonium chloride = 0.3336
Fixed: Mole fraction of 1-heptyne = 0
Property: Activity coefficient of 1-heptyne (Liquid); method: Chromatography
Temperature, K	Activity coefficient of 1-heptyne	uncertainty
313.15	69.228	5.738
323.15	71.445	5.922
333.15	73.041	6.054
343.15	74.703	6.192

System: 1-octyne + tetramethylammonium chloride + glycerol; phases: Liquid
Fixed: Pressure, kPa = 101
Fixed: Solvent: Mole fraction of tetramethylammonium chloride = 0.3336
Fixed: Mole fraction of 1-octyne = 0
Property: Activity coefficient of 1-octyne (Liquid); method: Chromatography
Temperature, K	Activity coefficient of 1-octyne	uncertainty
313.15	52.359	4.339
323.15	55.998	4.64
333.15	58.413	4.841
343.15	61.823	5.124

System: ethanol + tetramethylammonium chloride + glycerol; phases: Liquid
Fixed: Pressure, kPa = 101
Fixed: Solvent: Mole fraction of tetramethylammonium chloride = 0.3336
Fixed: Mole fraction of ethanol = 0
Property: Activity coefficient of ethanol (Liquid); method: Chromatography
Temperature, K	Activity coefficient of ethanol	uncertainty
313.15	3.216	0.265
323.15	3.133	0.259
333.15	2.929	0.242
343.15	2.827	0.233

System: methanol + tetramethylammonium chloride + glycerol; phases: Liquid
Fixed: Pressure, kPa = 101
Fixed: Solvent: Mole fraction of tetramethylammonium chloride = 0.3336
Fixed: Mole fraction of methanol = 0
Property: Activity coefficient of methanol (Liquid); method: Chromatography
Temperature, K	Activity coefficient of methanol	uncertainty
313.15	1.233	0.098
323.15	1.22	0.097
333.15	1.198	0.095
343.15	1.177	0.093

System: propan-1-ol + tetramethylammonium chloride + glycerol; phases: Liquid
Fixed: Pressure, kPa = 101
Fixed: Solvent: Mole fraction of tetramethylammonium chloride = 0.3336
Fixed: Mole fraction of propan-1-ol = 0
Property: Activity coefficient of propan-1-ol (Liquid); method: Chromatography
Temperature, K	Activity coefficient of propan-1-ol	uncertainty
313.15	6.48	0.535
323.15	6.13	0.506
333.15	5.858	0.484
343.15	5.571	0.46

System: propan-2-ol + tetramethylammonium chloride + glycerol; phases: Liquid
Fixed: Pressure, kPa = 101
Fixed: Solvent: Mole fraction of tetramethylammonium chloride = 0.3336
Fixed: Mole fraction of propan-2-ol = 0
Property: Activity coefficient of propan-2-ol (Liquid); method: Chromatography
Temperature, K	Activity coefficient of propan-2-ol	uncertainty
313.15	6.667	0.551
323.15	6.502	0.537
333.15	6.211	0.513
343.15	6.052	0.5

System: benzene + tetramethylammonium chloride + glycerol; phases: Liquid
Fixed: Pressure, kPa = 101
Fixed: Solvent: Mole fraction of tetramethylammonium chloride = 0.3336
Fixed: Mole fraction of benzene = 0
Property: Activity coefficient of benzene (Liquid); method: Chromatography
Temperature, K	Activity coefficient of benzene	uncertainty
313.15	55.138	4.57
323.15	49.391	4.093
333.15	46.421	3.846
343.15	42.601	3.529

System: toluene + tetramethylammonium chloride + glycerol; phases: Liquid
Fixed: Pressure, kPa = 101
Fixed: Solvent: Mole fraction of tetramethylammonium chloride = 0.3336
Fixed: Mole fraction of toluene = 0
Property: Activity coefficient of toluene (Liquid); method: Chromatography
Temperature, K	Activity coefficient of toluene	uncertainty
313.15	98.344	8.157
323.15	89.676	7.437
333.15	85.282	7.071
343.15	84.107	6.973

System: ethylbenzene + tetramethylammonium chloride + glycerol; phases: Liquid
Fixed: Pressure, kPa = 101
Fixed: Solvent: Mole fraction of tetramethylammonium chloride = 0.3336
Fixed: Mole fraction of ethylbenzene = 0
Property: Activity coefficient of ethylbenzene (Liquid); method: Chromatography
Temperature, K	Activity coefficient of ethylbenzene	uncertainty
313.15	147.096	12.207
323.15	139.508	11.575
333.15	136.836	11.353
343.15	133.217	11.053

System: acetone + tetramethylammonium chloride + glycerol; phases: Liquid
Fixed: Pressure, kPa = 101
Fixed: Solvent: Mole fraction of tetramethylammonium chloride = 0.3336
Fixed: Mole fraction of acetone = 0
Property: Activity coefficient of acetone (Liquid); method: Chromatography
Temperature, K	Activity coefficient of acetone	uncertainty
313.15	10.69	0.884
323.15	10.384	0.858
333.15	9.923	0.82
343.15	9.742	0.805

System: butanone + tetramethylammonium chloride + glycerol; phases: Liquid
Fixed: Pressure, kPa = 101
Fixed: Solvent: Mole fraction of tetramethylammonium chloride = 0.3336
Fixed: Mole fraction of butanone = 0
Property: Activity coefficient of butanone (Liquid); method: Chromatography
Temperature, K	Activity coefficient of butanone	uncertainty
313.15	23.686	1.96
323.15	22.552	1.866
333.15	21.294	1.762
343.15	20.278	1.678

System: thiophene + tetramethylammonium chloride + glycerol; phases: Liquid
Fixed: Pressure, kPa = 101
Fixed: Solvent: Mole fraction of tetramethylammonium chloride = 0.3336
Fixed: Mole fraction of thiophene = 0
Property: Activity coefficient of thiophene (Liquid); method: Chromatography
Temperature, K	Activity coefficient of thiophene	uncertainty
313.15	2.59	0.214
323.15	2.61	0.215
333.15	2.628	0.217
343.15	2.689	0.222

System: pyridine + tetramethylammonium chloride + glycerol; phases: Liquid
Fixed: Pressure, kPa = 101
Fixed: Solvent: Mole fraction of tetramethylammonium chloride = 0.3336
Fixed: Mole fraction of pyridine = 0
Property: Activity coefficient of pyridine (Liquid); method: Chromatography
Temperature, K	Activity coefficient of pyridine	uncertainty
313.15	0.618	0.052
323.15	0.643	0.053
333.15	0.676	0.056
343.15	0.704	0.057

System: methyl ethanoate + tetramethylammonium chloride + glycerol; phases: Liquid
Fixed: Pressure, kPa = 101
Fixed: Solvent: Mole fraction of tetramethylammonium chloride = 0.3336
Fixed: Mole fraction of methyl ethanoate = 0
Property: Activity coefficient of methyl ethanoate (Liquid); method: Chromatography
Temperature, K	Activity coefficient of methyl ethanoate	uncertainty
313.15	2.659	0.219
323.15	2.727	0.225
333.15	2.881	0.238
343.15	2.94	0.243

System: ethyl acetate + tetramethylammonium chloride + glycerol; phases: Liquid
Fixed: Pressure, kPa = 101
Fixed: Solvent: Mole fraction of tetramethylammonium chloride = 0.3336
Fixed: Mole fraction of ethyl acetate = 0
Property: Activity coefficient of ethyl acetate (Liquid); method: Chromatography
Temperature, K	Activity coefficient of ethyl acetate	uncertainty
313.15	5.416	0.447
323.15	5.3	0.438
333.15	4.916	0.406
343.15	4.85	0.4

System: 2-methyl-1-propanol + tetramethylammonium chloride + glycerol; phases: Liquid
Fixed: Pressure, kPa = 101
Fixed: Solvent: Mole fraction of tetramethylammonium chloride = 0.3336
Fixed: Mole fraction of 2-methyl-1-propanol = 0
Property: Activity coefficient of 2-methyl-1-propanol (Liquid); method: Chromatography
Temperature, K	Activity coefficient of 2-methyl-1-propanol	uncertainty
313.15	28.827	2.389
323.15	22.655	1.877
333.15	19.192	1.589
343.15	17.188	1.422
