Measured thermophysical data. Hydrogen solubility in a chemical hydrogen storage medium, aromatic hydrocarbon, cyclic hydrocarbon, and their mixture for fuel cell systems
Source: Fluid Phase Equilib., 2005, 10.1016/j.fluid.2004.07.013
Compound 1: hydrogen, H2, InChI=1S/H2/h1H
Compound 2: benzene, C6H6, InChI=1S/C6H6/c1-2-4-6-5-3-1/h1-6H
Compound 3: cyclohexane, C6H12, InChI=1S/C6H12/c1-2-4-6-5-3-1/h1-6H2
Compound 4: toluene, C7H8, InChI=1S/C7H8/c1-7-5-3-2-4-6-7/h2-6H,1H3
Compound 5: methylcyclohexane, C7H14, InChI=1S/C7H14/c1-7-5-3-2-4-6-7/h7H,2-6H2,1H3

System: benzene + hydrogen; phases: Liquid, Gas
Fixed: Temperature, K = 303.15
Property: Vapor or sublimation pressure, kPa (Liquid); method: CCELL:UFactor:8
Mole fraction of hydrogen	Vapor or sublimation pressure, kPa	uncertainty
0.002673	989	25
0.003951	1143	400
0.004687	1684	42
0.005606	2022	50
0.006012	2207	55
0.007616	2744	68
0.009835	3544	88
0.010775	3904	97
0.01268	4601	114

System: cyclohexane + hydrogen; phases: Liquid, Gas
Fixed: Temperature, K = 303.15
Property: Vapor or sublimation pressure, kPa (Liquid); method: CCELL:UFactor:8
Mole fraction of hydrogen	Vapor or sublimation pressure, kPa	uncertainty
0.003456	887	22
0.004833	1202	30
0.005955	1468	37
0.00713	1716	43
0.008597	2090	52
0.008771	2143	53
0.011268	2687	67
0.012547	3005	75
0.014731	3547	88
0.017368	4207	105
0.019661	4743	118

System: methylcyclohexane + hydrogen; phases: Liquid, Gas
Fixed: Temperature, K = 303.15
Property: Vapor or sublimation pressure, kPa (Liquid); method: CCELL:UFactor:8
Mole fraction of hydrogen	Vapor or sublimation pressure, kPa	uncertainty
0.00623	1236	31
0.008476	1686	42
0.01117	2200	55
0.014028	2786	70
0.015803	3113	78
0.017807	3540	89
0.019519	3868	97
0.021833	4323	109

System: toluene + hydrogen; phases: Liquid, Gas
Fixed: Temperature, K = 303.15
Property: Vapor or sublimation pressure, kPa (Liquid); method: CCELL:UFactor:8
Mole fraction of hydrogen	Vapor or sublimation pressure, kPa	uncertainty
0.004006	1222	30
0.005467	1685	42
0.007268	2196	55
0.009555	2893	72
0.009956	3018	75
0.010803	3271	81
0.012066	3638	90
0.013164	3991	99
0.014586	4413	110

System: benzene + cyclohexane + hydrogen; phases: Liquid, Gas
Fixed: Solvent: Amount ratio of component to other component of binary solvent of benzene = 1
Fixed: Temperature, K = 303.15
Property: Vapor or sublimation pressure, kPa (Liquid); method: CCELL:UFactor:8
Mole fraction of hydrogen	Vapor or sublimation pressure, kPa	uncertainty
0.003247	895	22
0.004685	1307	33
0.006164	1703	42
0.007712	2127	53
0.00936	2557	64
0.011232	3085	77
0.013023	3570	89
0.015344	4187	104
0.017683	4827	120

System: methylcyclohexane + toluene + hydrogen; phases: Liquid, Gas
Fixed: Solvent: Amount ratio of component to other component of binary solvent of methylcyclohexane = 1
Fixed: Temperature, K = 303.15
Property: Vapor or sublimation pressure, kPa (Liquid); method: CCELL:UFactor:8
Mole fraction of hydrogen	Vapor or sublimation pressure, kPa	uncertainty
0.005756	1367	34
0.008452	1985	49
0.010932	2567	64
0.012818	2991	74
0.015346	3609	90
0.016804	3590	400
0.018881	4420	110
