Measured thermophysical data. High-pressure phase equilibria data for mixtures involving ethene and perfluoro-n-octane from 293 to 353 K
Source: Fluid Phase Equilib., 2016, 10.1016/j.fluid.2015.07.054
Compound 1: octadecafluorooctane, C8F18, InChI=1S/C8F18/c9-1(10,3(13,14)5(17,18)7(21,22)23)2(11,12)4(15,16)6(19,20)8(24,25)26, purity 99%
Compound 2: ethene, C2H4, InChI=1S/C2H4/c1-2/h1-2H2, purity 99.9%

System: octadecafluorooctane; phases: Liquid, Gas
Property: Vapor or sublimation pressure, kPa (Liquid); method: Closed cell (Static) method
Temperature, K	Vapor or sublimation pressure, kPa	uncertainty
312.78	7.77	0.09
322.79	12.42	0.1
332.87	19.23	0.14
342.87	29.02	0.18
352.86	42.35	0.21

System: ethene + octadecafluorooctane; phases: Liquid, Gas
Property: Vapor or sublimation pressure, kPa (Liquid); method: Closed cell (Static) method
Temperature, K	Mole fraction of ethene	Vapor or sublimation pressure, kPa	uncertainty
293.25	0.186	1218	11
293.25	0.26	1710	12
293.25	0.343	2284	13
293.25	0.397	2632	14
293.25	0.479	3160	15
293.25	0.572	3718	16
293.25	0.654	4174	18
293.25	0.758	4670	19
293.25	0.857	5085	21
308.19	0.155	1149	11
308.19	0.216	1622	11
308.19	0.313	2345	13
308.19	0.343	2589	13
308.19	0.43	3284	15
308.19	0.48	3688	16
308.19	0.514	3957	16
308.19	0.583	4483	18
308.19	0.663	5068	20
308.19	0.743	5615	21
308.19	0.824	6118	23
323.22	0.114	932	11
323.22	0.227	1902	12
323.22	0.299	2519	13
323.22	0.354	3018	14
323.22	0.438	3816	16
323.22	0.505	4441	18
323.22	0.551	4873	19
323.22	0.614	5457	20
323.22	0.676	6014	22
323.22	0.74	6575	23
323.22	0.854	7459	26
338.21	0.114	1065	11
338.21	0.181	1655	11
338.21	0.252	2343	13
338.21	0.297	2802	14
338.21	0.348	3314	15
338.21	0.387	3726	16
338.21	0.435	4236	17
338.21	0.477	4676	18
338.21	0.554	5517	20
338.21	0.65	6542	23
338.21	0.74	7484	25
338.21	0.831	8278	28
353.24	0.12	1178	11
353.24	0.154	1494	11
353.24	0.224	2205	12
353.24	0.273	2691	13
353.24	0.332	3367	15
353.24	0.378	3880	16
353.24	0.443	4624	18
353.24	0.502	5325	19
353.24	0.577	6230	22
353.24	0.616	6700	23
353.24	0.655	7171	24
353.24	0.705	7751	25
353.24	0.772	8447	27

System: ethene + octadecafluorooctane; phases: Gas, Liquid
Property: Mole fraction of ethene (Gas); method: Chromatography
Temperature, K	Mole fraction of ethene	Mole fraction of ethene	uncertainty
293.25	0.186	0.9926	0.0001
293.25	0.26	0.9949	0.0001
293.25	0.343	0.996	0.0001
293.25	0.397	0.9963	0.0001
293.25	0.479	0.9955	0.0001
293.25	0.572	0.9955	0.0001
293.25	0.654	0.9955	0.0001
293.25	0.758	0.9952	0.0001
293.25	0.857	0.9939	0.0001
308.19	0.155	0.9897	0.0001
308.19	0.216	0.9922	0.0001
308.19	0.313	0.9934	0.0001
308.19	0.343	0.9936	0.0001
308.19	0.43	0.9935	0.0001
308.19	0.48	0.9935	0.0001
308.19	0.514	0.9933	0.0001
308.19	0.583	0.9927	0.0001
308.19	0.663	0.9918	0.0001
308.19	0.743	0.9899	0.0002
308.19	0.824	0.9864	0.0003
323.22	0.114	0.9745	0.0003
323.22	0.227	0.9871	0.0002
323.22	0.299	0.9887	0.0002
323.22	0.354	0.9896	0.0001
323.22	0.438	0.9892	0.0002
323.22	0.505	0.9881	0.0002
323.22	0.551	0.9872	0.0002
323.22	0.614	0.9861	0.0002
323.22	0.676	0.9839	0.0002
323.22	0.74	0.9808	0.0003
323.22	0.854	0.9652	0.0005
338.21	0.114	0.9692	0.0004
338.21	0.181	0.9771	0.0003
338.21	0.252	0.9802	0.0003
338.21	0.297	0.9826	0.0002
338.21	0.348	0.9829	0.0002
338.21	0.387	0.9831	0.0002
338.21	0.435	0.9831	0.0002
338.21	0.477	0.9821	0.0002
338.21	0.554	0.9806	0.0003
338.21	0.65	0.9759	0.0003
338.21	0.74	0.9667	0.0004
338.21	0.831	0.944	0.0007
353.24	0.12	0.9529	0.0006
353.24	0.154	0.9609	0.0005
353.24	0.224	0.9689	0.0004
353.24	0.273	0.9717	0.0004
353.24	0.332	0.973	0.0003
353.24	0.378	0.9739	0.0003
353.24	0.443	0.9731	0.0003
353.24	0.502	0.9719	0.0004
353.24	0.577	0.9682	0.0004
353.24	0.616	0.9654	0.0004
353.24	0.655	0.9617	0.0005
353.24	0.705	0.9544	0.0006
353.24	0.772	0.9384	0.0008
