Measured thermophysical data. Activity coefficient at infinite dilution, azeotropic data, excess enthalpies and solid liquid-equilibria for binary systems of alkanes and aromatics with esters
Source: Fluid Phase Equilib., 2005, 10.1016/j.fluid.2004.12.005
Compound 1: methyl ethanoate, C3H6O2, InChI=1S/C3H6O2/c1-3(4)5-2/h1-2H3
Compound 2: ethyl acetate, C4H8O2, InChI=1S/C4H8O2/c1-3-6-4(2)5/h3H2,1-2H3
Compound 3: 1-methylethyl ethanoate, C5H10O2, InChI=1S/C5H10O2/c1-4(2)7-5(3)6/h4H,1-3H3
Compound 4: ethyl tetradecanoate, C16H32O2, InChI=1S/C16H32O2/c1-3-5-6-7-8-9-10-11-12-13-14-15-16(17)18-4-2/h3-15H2,1-2H3
Compound 5: hexane, C6H14, InChI=1S/C6H14/c1-3-5-6-4-2/h3-6H2,1-2H3
Compound 6: heptane, C7H16, InChI=1S/C7H16/c1-3-5-7-6-4-2/h3-7H2,1-2H3
Compound 7: decane, C10H22, InChI=1S/C10H22/c1-3-5-7-9-10-8-6-4-2/h3-10H2,1-2H3
Compound 8: dodecane, C12H26, InChI=1S/C12H26/c1-3-5-7-9-11-12-10-8-6-4-2/h3-12H2,1-2H3
Compound 9: benzene, C6H6, InChI=1S/C6H6/c1-2-4-6-5-3-1/h1-6H
Compound 10: 1,4-dimethylbenzene, C8H10, InChI=1S/C8H10/c1-7-3-5-8(2)6-4-7/h3-6H,1-2H3

System: ethyl tetradecanoate; phases: Crystal, Liquid
Fixed: Pressure, kPa = 100
Property: Solid-liquid equilibrium temperature, K (Crystal); method: VISOBS
Solid-liquid equilibrium temperature, K	uncertainty
286.33	0.17
286.36	0.31

System: benzene; phases: Crystal, Liquid
Property: Solid-liquid equilibrium temperature, K (Crystal); method: VISOBS
Pressure, kPa	Solid-liquid equilibrium temperature, K	uncertainty
100	278.94	0.17

System: 1,4-dimethylbenzene; phases: Crystal, Liquid
Property: Solid-liquid equilibrium temperature, K (Crystal); method: VISOBS
Pressure, kPa	Solid-liquid equilibrium temperature, K	uncertainty
100	286.45	0.17

System: decane + ethyl acetate; phases: Liquid, Gas
Fixed: Mole fraction of ethyl acetate = 0
Property: Activity coefficient of ethyl acetate (Liquid); method: Chromatography
Temperature, K	Activity coefficient of ethyl acetate	uncertainty
303.16	3.07	0.182
313.14	2.949	0.175
323.17	2.844	0.169
333.16	2.754	0.164

System: decane + ethyl acetate; phases: Liquid
Property: Excess molar enthalpy (molar enthalpy of mixing), kJ/mol (Liquid); method: Flow calorimetry
Temperature, K	Pressure, kPa	Mole fraction of ethyl acetate	Excess molar enthalpy (molar enthalpy of mixing), kJ/mol	uncertainty
363.15	1397	0.0952	0.46894	0.01021
363.15	1397	0.1817	0.82839	0.01782
363.15	1397	0.2607	1.091	0.0234
363.15	1397	0.3332	1.2734	0.0273
363.15	1397	0.3998	1.3949	0.0298
363.15	1397	0.4614	1.4605	0.0312
363.15	1397	0.5183	1.4898	0.0318
363.15	1397	0.5712	1.4835	0.0317
363.15	1397	0.6205	1.4505	0.031
363.15	1397	0.6665	1.4032	0.03
363.15	1397	0.7095	1.321	0.0283
363.15	1397	0.7499	1.2235	0.0262
363.15	1397	0.7878	1.1132	0.0239
363.15	1397	0.8234	0.98578	0.02116
363.15	1397	0.8571	0.84572	0.01819
363.15	1397	0.8888	0.69932	0.01509
363.15	1397	0.9189	0.53782	0.01166
363.15	1397	0.9473	0.36312	0.00797
363.15	1397	0.9743	0.18279	0.00417
413.15	1342	0.0952	0.48385	0.01052
413.15	1342	0.1817	0.852	0.01832
413.15	1342	0.2607	1.1223	0.0241
413.15	1342	0.3332	1.3119	0.0281
413.15	1342	0.3998	1.4458	0.0309
413.15	1342	0.4614	1.5202	0.0325
413.15	1342	0.5183	1.5526	0.0332
413.15	1342	0.5713	1.5551	0.0332
413.15	1342	0.6205	1.5186	0.0325
413.15	1342	0.6665	1.4684	0.0314
413.15	1342	0.7095	1.3771	0.0295
413.15	1342	0.7499	1.2816	0.0274
413.15	1342	0.7878	1.1589	0.0248
413.15	1342	0.8234	1.0226	0.0219
413.15	1342	0.8571	0.8754	0.01882
413.15	1342	0.8888	0.71706	0.01546
413.15	1342	0.9189	0.54982	0.01192
413.15	1342	0.9473	0.36991	0.00811
413.15	1342	0.9743	0.19512	0.00443

System: dodecane + ethyl acetate; phases: Liquid, Gas
Fixed: Mole fraction of ethyl acetate = 0
Property: Activity coefficient of ethyl acetate (Liquid); method: Chromatography
Temperature, K	Activity coefficient of ethyl acetate	uncertainty
303.16	3.252	0.193
313.17	3.054	0.182
323.2	2.878	0.171
333.16	2.706	0.161

System: 1-methylethyl ethanoate + decane; phases: Liquid, Gas
Fixed: Mole fraction of 1-methylethyl ethanoate = 0
Property: Activity coefficient of 1-methylethyl ethanoate (Liquid); method: Chromatography
Temperature, K	Activity coefficient of 1-methylethyl ethanoate	uncertainty
303.16	2.565	0.152
313.14	2.485	0.148
323.17	2.411	0.143
333.16	2.356	0.14

System: 1-methylethyl ethanoate + dodecane; phases: Liquid, Gas
Fixed: Mole fraction of 1-methylethyl ethanoate = 0
Property: Activity coefficient of 1-methylethyl ethanoate (Liquid); method: Chromatography
Temperature, K	Activity coefficient of 1-methylethyl ethanoate	uncertainty
303.16	2.821	0.168
313.17	2.656	0.158
323.2	2.515	0.149
333.16	2.415	0.143

System: methyl ethanoate + heptane; phases: Liquid, Gas
Property: Azeotropic pressure, kPa (Liquid); method: Spinning band column technique
Temperature, K	Azeotropic pressure, kPa	uncertainty
307.91	44.4	0.557
318.05	65.865	0.691
329.5	99.74	0.856

System: methyl ethanoate + heptane; phases: Liquid, Gas
Property: Azeotropic composition: mole fraction of methyl ethanoate (Liquid); method: Spinning band column technique
Temperature, K	Azeotropic composition: mole fraction of methyl ethanoate	uncertainty
307.91	0.9348	0.0018
318.05	0.9426	0.0017
329.5	0.9577	0.0015

System: ethyl acetate + heptane; phases: Liquid, Gas
Property: Azeotropic pressure, kPa (Liquid); method: Spinning band column technique
Temperature, K	Azeotropic pressure, kPa	uncertainty
308.06	21.283	0.352
323.15	39.67	0.518
349.44	100.38	0.774

System: ethyl acetate + heptane; phases: Liquid, Gas
Property: Azeotropic composition: mole fraction of ethyl acetate (Liquid); method: Spinning band column technique
Temperature, K	Azeotropic composition: mole fraction of ethyl acetate	uncertainty
308.06	0.8032	0.0034
323.15	0.8216	0.0032
349.44	0.8646	0.0026

System: 1-methylethyl ethanoate + heptane; phases: Liquid, Gas
Property: Azeotropic pressure, kPa (Liquid); method: Spinning band column technique
Temperature, K	Azeotropic pressure, kPa	uncertainty
303.46	11.805	0.291
333.13	40.695	0.465
359.9	100.815	0.768

System: 1-methylethyl ethanoate + heptane; phases: Liquid, Gas
Property: Azeotropic composition: mole fraction of 1-methylethyl ethanoate (Liquid); method: Spinning band column technique
Temperature, K	Azeotropic composition: mole fraction of 1-methylethyl ethanoate	uncertainty
303.46	0.6386	0.0053
333.13	0.6749	0.0049
359.9	0.7305	0.0043

System: 1-methylethyl ethanoate + hexane; phases: Liquid, Gas
Property: Azeotropic pressure, kPa (Liquid); method: Spinning band column technique
Temperature, K	Azeotropic pressure, kPa	uncertainty
302.85	25.05	0.402
322.8	54.68	0.567
341.74	101.53	0.799

System: 1-methylethyl ethanoate + hexane; phases: Liquid, Gas
Property: Azeotropic composition: mole fraction of 1-methylethyl ethanoate (Liquid); method: Spinning band column technique
Temperature, K	Azeotropic composition: mole fraction of 1-methylethyl ethanoate	uncertainty
302.85	0.0728	0.0019
322.8	0.0729	0.0019
341.74	0.0756	0.0019

System: hexane + ethyl acetate; phases: Liquid
Property: Excess molar enthalpy (molar enthalpy of mixing), kJ/mol (Liquid); method: Flow calorimetry
Temperature, K	Pressure, kPa	Mole fraction of hexane	Excess molar enthalpy (molar enthalpy of mixing), kJ/mol	uncertainty
363.15	1583	0.0377	0.17575	0.00402
363.15	1583	0.0764	0.35624	0.00782
363.15	1583	0.1162	0.53367	0.01158
363.15	1583	0.157	0.68714	0.01483
363.15	1583	0.1989	0.82076	0.01766
363.15	1583	0.242	0.95283	0.02046
363.15	1583	0.2862	1.0607	0.0227
363.15	1583	0.3318	1.1494	0.0246
363.15	1583	0.3786	1.2203	0.0261
363.15	1583	0.4269	1.2763	0.0273
363.15	1583	0.4765	1.2929	0.0277
363.15	1583	0.5277	1.2963	0.0277
363.15	1583	0.5804	1.2705	0.0272
363.15	1583	0.6347	1.2183	0.0261
363.15	1583	0.6908	1.1162	0.0239
363.15	1583	0.7487	0.99226	0.0213
363.15	1583	0.8084	0.82436	0.01774
363.15	1583	0.8702	0.60939	0.01318
363.15	1583	0.934	0.33416	0.00735
413.15	1376	0.0377	0.18941	0.00431
413.15	1376	0.0765	0.36122	0.00793
413.15	1376	0.1162	0.52739	0.01144
413.15	1376	0.1571	0.67938	0.01466
413.15	1376	0.199	0.8151	0.0175
413.15	1376	0.2421	0.93852	0.02016
413.15	1376	0.2864	1.0481	0.0225
413.15	1376	0.332	1.1359	0.0243
413.15	1376	0.3788	1.2056	0.0258
413.15	1376	0.427	1.2589	0.0269
413.15	1376	0.4767	1.2771	0.0273
413.15	1376	0.5279	1.2793	0.0274
413.15	1376	0.5806	1.2545	0.0269
413.15	1376	0.6349	1.2041	0.0258
413.15	1376	0.691	1.1144	0.0239
413.15	1376	0.7488	0.98864	0.02122
413.15	1376	0.8086	0.81859	0.01761
413.15	1376	0.8703	0.60269	0.01304
413.15	1376	0.934	0.3298	0.00726

System: methyl ethanoate + hexane; phases: Liquid
Property: Excess molar enthalpy (molar enthalpy of mixing), kJ/mol (Liquid); method: Flow calorimetry
Temperature, K	Pressure, kPa	Mole fraction of methyl ethanoate	Excess molar enthalpy (molar enthalpy of mixing), kJ/mol	uncertainty
363.15	1617	0.0801	0.49603	0.01078
363.15	1617	0.1552	0.88458	0.01901
363.15	1617	0.2259	1.1733	0.0251
363.15	1617	0.2925	1.3839	0.0296
363.15	1617	0.3554	1.5275	0.0326
363.15	1617	0.4148	1.6162	0.0345
363.15	1617	0.471	1.661	0.0355
363.15	1617	0.5244	1.6671	0.0356
363.15	1617	0.575	1.6391	0.035
363.15	1617	0.6232	1.5971	0.0341
363.15	1617	0.669	1.5116	0.0323
363.15	1617	0.7127	1.4105	0.0302
363.15	1617	0.7544	1.2886	0.0276
363.15	1617	0.7942	1.1478	0.0246
363.15	1617	0.8322	0.99005	0.02125
363.15	1617	0.8687	0.81949	0.01763
363.15	1617	0.9036	0.63355	0.01369
363.15	1617	0.937	0.43058	0.00939
363.15	1617	0.9692	0.21967	0.00494
413.15	1376	0.0801	0.4959	0.01078
413.15	1376	0.1552	0.89836	0.0193
413.15	1376	0.2259	1.2001	0.0257
413.15	1376	0.2925	1.4246	0.0305
413.15	1376	0.3553	1.5758	0.0337
413.15	1376	0.4148	1.6779	0.0358
413.15	1376	0.471	1.7261	0.0369
413.15	1376	0.5244	1.7354	0.0371
413.15	1376	0.575	1.7148	0.0366
413.15	1376	0.6232	1.6689	0.0356
413.15	1376	0.669	1.584	0.0338
413.15	1376	0.7127	1.4792	0.0316
413.15	1376	0.7544	1.3417	0.0287
413.15	1376	0.7942	1.1965	0.0256
413.15	1376	0.8322	1.0298	0.0221
413.15	1376	0.8687	0.84976	0.01827
413.15	1376	0.9036	0.64989	0.01404
413.15	1376	0.937	0.4468	0.00974
413.15	1376	0.9692	0.2271	0.0051

System: methyl ethanoate + decane; phases: Liquid
Property: Excess molar enthalpy (molar enthalpy of mixing), kJ/mol (Liquid); method: Flow calorimetry
Temperature, K	Pressure, kPa	Mole fraction of methyl ethanoate	Excess molar enthalpy (molar enthalpy of mixing), kJ/mol	uncertainty
363.15	1582	0.1148	0.68621	0.01481
363.15	1582	0.2149	1.1795	0.0253
363.15	1582	0.303	1.5109	0.0323
363.15	1582	0.3811	1.7262	0.0369
363.15	1582	0.4509	1.8499	0.0395
363.15	1582	0.5135	1.9055	0.0407
363.15	1582	0.5701	1.9151	0.0409
363.15	1582	0.6215	1.882	0.0402
363.15	1582	0.6684	1.8165	0.0388
363.15	1582	0.7112	1.7355	0.0371
363.15	1582	0.7507	1.6199	0.0346
363.15	1582	0.787	1.4911	0.0319
363.15	1582	0.8206	1.344	0.0288
363.15	1582	0.8518	1.1828	0.0253
363.15	1582	0.8808	1.0116	0.0217
363.15	1582	0.9079	0.83156	0.01789
363.15	1582	0.9331	0.63706	0.01377
363.15	1582	0.9568	0.43257	0.00944
363.15	1582	0.9791	0.22238	0.005
413.15	1376	0.1148	0.63854	0.0138
413.15	1376	0.2149	1.092	0.0234
413.15	1376	0.303	1.4027	0.03
413.15	1376	0.3811	1.6107	0.0344
413.15	1376	0.4509	1.7385	0.0371
413.15	1376	0.5136	1.8022	0.0385
413.15	1376	0.5702	1.8142	0.0387
413.15	1376	0.6215	1.788	0.0382
413.15	1376	0.6684	1.73	0.0369
413.15	1376	0.7113	1.6564	0.0354
413.15	1376	0.7507	1.5476	0.0331
413.15	1376	0.787	1.4276	0.0305
413.15	1376	0.8206	1.2872	0.0275
413.15	1376	0.8518	1.1343	0.0243
413.15	1376	0.8808	0.96881	0.0208
413.15	1376	0.9079	0.7939	0.01709
413.15	1376	0.9332	0.60782	0.01315
413.15	1376	0.9568	0.41043	0.00897
413.15	1376	0.9791	0.20973	0.00473

System: benzene + ethyl tetradecanoate; phases: Liquid, Crystal
Fixed: Pressure, kPa = 100
Property: Solid-liquid equilibrium temperature, K (Liquid); method: VISOBS
Mole fraction of benzene	Solid-liquid equilibrium temperature, K	uncertainty
0	286.33	0.17
0.051	285.67	0.22
0.1111	284.77	0.24
0.1509	284	0.25
0.2073	283.06	0.26
0.2508	282.12	0.27
0.2952	281.23	0.27
0.3541	279.97	0.29
0.4004	278.82	0.31
0.4537	277.38	0.32
0.5004	276.11	0.33
0.5524	274.56	0.39
0.6006	272.57	0.44
0.6495	270.66	0.46
0.6998	268.34	0.57
0.7501	265.2	0.65

System: benzene + ethyl tetradecanoate; phases: Liquid, Crystal
Fixed: Pressure, kPa = 100
Property: Solid-liquid equilibrium temperature, K (Liquid); method: VISOBS
Mole fraction of benzene	Solid-liquid equilibrium temperature, K	uncertainty
0.801	264.04	0.84
0.8494	268.02	0.8
0.899	271.69	0.78
0.9499	275.64	0.74
1	278.94	0.17

System: 1,4-dimethylbenzene + ethyl tetradecanoate; phases: Liquid, Crystal
Fixed: Pressure, kPa = 100
Property: Solid-liquid equilibrium temperature, K (Liquid); method: VISOBS
Mole fraction of ethyl tetradecanoate	Solid-liquid equilibrium temperature, K	uncertainty
0	286.45	0.17
0.0524	284.27	0.48
0.104	281.81	0.54
0.1496	279.27	0.6
0.1998	276.35	0.62
0.2516	273.23	0.65
0.2998	270.13	0.67

System: 1,4-dimethylbenzene + ethyl tetradecanoate; phases: Liquid, Crystal
Fixed: Pressure, kPa = 100
Property: Solid-liquid equilibrium temperature, K (Liquid); method: VISOBS:UFactor:2
Mole fraction of ethyl tetradecanoate	Solid-liquid equilibrium temperature, K	uncertainty
0.3518	270.35	0.57
0.4025	272.79	0.54
0.4485	274.59	0.47
0.5037	276.37	0.44
0.5497	277.82	0.43
0.5955	279.13	0.4
0.6485	280.34	0.37
0.6968	281.26	0.36
0.7454	282.15	0.37
0.797	283.24	0.37
0.8462	284.18	0.36
0.8928	285.04	0.34
0.9541	285.78	0.33
1	286.36	0.31
