Measured thermophysical data. Velocity of sound in perfluoropropane (C3F8), perfluoroethane (C2F6) and their  mixtures
Source: Fluid Phase Equilib., 2013, 10.1016/j.fluid.2012.10.002
Compound 1: hexafluoroethane, C2F6, InChI=1S/C2F6/c3-1(4,5)2(6,7)8, purity 99.9998%
Compound 2: octafluoropropane, C3F8, InChI=1S/C3F8/c4-1(5,2(6,7)8)3(9,10)11, purity 99.9997%

System: hexafluoroethane + octafluoropropane; phases: Gas
Fixed: Frequency, MHz = 0.05
Property: Speed of sound, m/s (Gas); method: Linear variable-path acoustic interferometer
Temperature, K	Pressure, kPa	Mole fraction of hexafluoroethane	Speed of sound, m/s	uncertainty
261.1	183	1	127.95	0.49
263.74	185	1	128.64	0.49
266.3	186	1	129.3	0.49
268.82	188	1	129.95	0.5
270.22	189	1	130.3	0.5
271.26	190	1	130.57	0.49
273.89	192	1	131.26	0.49
276.33	194	1	131.87	0.49
278.84	195	1	132.51	0.49
281.3	197	1	133.11	0.49
281.31	197	1	133.1	0.49
283.84	199	1	133.77	0.49
286.31	201	1	134.35	0.49
288.82	203	1	135	0.49
293.64	206	1	136.18	0.51
296.91	208	1	136.93	0.52
301.03	212	1	137.94	0.5
303.69	213	1	138.56	0.5
306.24	215	1	139.22	0.52
308.82	217	1	139.82	0.52
311.28	219	1	140.41	0.51
313.79	221	1	141	0.51
318.78	224	1	142.17	0.5
323.78	228	1	143.37	0.5
273.86	202	0.048	108.5	0.47
278.61	206	0.048	109.65	0.47
278.61	206	0.048	109.65	0.47
281.01	208	0.048	110.21	0.47
283.48	210	0.048	110.83	0.47
285.85	212	0.048	111.38	0.48
285.87	212	0.048	111.39	0.48
285.87	212	0.048	111.39	0.48
291.22	217	0.048	112.64	0.48
293.19	218	0.048	113.11	0.48
295.22	220	0.048	113.57	0.48
295.26	220	0.048	113.58	0.48
295.28	220	0.048	113.59	0.48
300.46	224	0.048	114.77	0.48
302.82	226	0.048	115.32	0.48
307.6	230	0.048	116.4	0.48
307.6	230	0.048	116.4	0.48
312.3	234	0.048	117.45	0.48
315.91	237	0.048	118.26	0.48
271.52	214	0.11	108.77	0.47
273.88	216	0.11	109.36	0.47
273.9	216	0.11	109.35	0.47
276.3	219	0.11	109.94	0.47
281.09	223	0.11	111.13	0.47
281.94	224	0.11	111.33	0.47
283.42	225	0.11	111.69	0.47
285.92	227	0.11	112.29	0.48
290.79	231	0.11	113.46	0.48
294.96	235	0.11	114.43	0.48
295.16	235	0.11	114.49	0.48
302.91	242	0.11	116.26	0.48
312.47	251	0.11	118.45	0.48
314.99	253	0.11	119.04	0.48
317.39	255	0.11	119.56	0.48
319.74	257	0.11	120.07	0.49
322.15	259	0.11	120.6	0.48
261.04	214	0.146	106.6	0.47
263.69	217	0.146	107.31	0.47
266.22	219	0.146	107.96	0.47
268.76	222	0.146	108.61	0.47
271.54	224	0.146	109.31	0.47
273.82	227	0.146	109.89	0.47
276.35	229	0.146	110.52	0.47
279.06	231	0.146	111.21	0.47
281.35	233	0.146	111.76	0.47
284.05	236	0.146	112.44	0.48
286.39	238	0.146	112.99	0.48
288.96	241	0.146	113.61	0.48
291.37	243	0.146	114.18	0.48
293.86	245	0.146	114.77	0.48
294.01	245	0.146	114.81	0.48
294.82	246	0.146	115.01	0.48
296.26	247	0.146	115.34	0.48
297.13	248	0.146	115.54	0.48
297.13	248	0.146	115.55	0.48
298.69	250	0.146	115.9	0.48
301.17	252	0.146	116.47	0.48
303.66	254	0.146	117.06	0.48
308.64	259	0.146	118.2	0.48
311.15	261	0.146	118.77	0.49
313.65	264	0.146	119.34	0.48
316.18	266	0.146	119.91	0.48
318.68	268	0.146	120.47	0.48
323.51	273	0.146	121.55	0.48
258.87	181	0	104.06	0.47
261.17	183	0	104.66	0.47
268.73	189	0	106.57	0.47
270.28	190	0	106.94	0.47
273.74	193	0	107.79	0.47
276.23	195	0	108.4	0.73
278.75	197	0	109	0.73
281.24	199	0	109.59	0.57
283.81	201	0	110.19	0.57
286.31	203	0	110.78	0.48
288.79	205	0	111.35	2
291.2	207	0	111.92	0.5
295.26	210	0	112.82	0.51
301.15	215	0	114.22	0.48
303.67	216	0	114.79	0.48
303.69	217	0	114.78	0.48
306.23	219	0	115.37	0.54
311.27	223	0	116.48	0.48
316.26	226	0	117.58	0.48
321.23	230	0	118.64	0.48
323.74	232	0	119.18	0.48
