Measured thermophysical data. Vapor liquid equilibria for the binary system of 1,1-difluoroethane (HFC-152a) + n-butane (R-600) at various temperatures
Source: Fluid Phase Equilib., 2007, 10.1016/j.fluid.2007.07.010
Compound 1: 1,1-difluoroethane, C2H4F2, InChI=1S/C2H4F2/c1-2(3)4/h2H,1H3, purity 99.8%
Compound 2: butane, C4H10, InChI=1S/C4H10/c1-3-4-2/h3-4H2,1-2H3, purity 99.5%

System: 1,1-difluoroethane; phases: Liquid, Gas
Property: Vapor or sublimation pressure, kPa (Liquid); method: Ebulliometric method (Recirculating still)
Temperature, K	Vapor or sublimation pressure, kPa	uncertainty
273.15	264	2
283.15	372	2
293.15	512	3
303.15	689	3
313.15	909	4
323.15	1176	5

System: butane; phases: Liquid, Gas
Property: Vapor or sublimation pressure, kPa (Liquid); method: Ebulliometric method (Recirculating still)
Temperature, K	Vapor or sublimation pressure, kPa	uncertainty
273.15	104	2
283.15	150	2
293.15	208	2
303.15	284	2
313.15	378	3
323.15	495	3

System: 1,1-difluoroethane + butane; phases: Liquid, Gas
Property: Azeotropic pressure, kPa (Liquid); method: By X=Y
Temperature, K	Azeotropic pressure, kPa	uncertainty
273.15	282	2
283.15	396	3
293.15	538	3
303.15	716	4
313.15	935	5
323.15	1203	6

System: 1,1-difluoroethane + butane; phases: Liquid, Gas
Property: Azeotropic composition: mole fraction of 1,1-difluoroethane (Liquid); method: By X=Y
Temperature, K	Azeotropic composition: mole fraction of 1,1-difluoroethane	uncertainty
273.15	0.827	0.01
283.15	0.831	0.01
293.15	0.837	0.01
303.15	0.841	0.01
313.15	0.859	0.01
323.15	0.865	0.01

System: 1,1-difluoroethane + butane; phases: Liquid, Gas
Property: Vapor or sublimation pressure, kPa (Liquid); method: Ebulliometric method (Recirculating still)
Mole fraction of 1,1-difluoroethane	Temperature, K	Vapor or sublimation pressure, kPa	uncertainty
0	273.15	104	2
0	283.15	150	2
0	293.15	208	2
0	303.15	284	2
0	313.15	378	3
0	323.15	495	3
0.06	283.15	225	19
0.065	303.15	405	31
0.068	273.15	170	16
0.09	293.15	333	23
0.095	313.15	571	30
0.107	323.15	748	37
0.114	273.15	195	8
0.137	283.15	278	10
0.137	303.15	488	16
0.15	293.15	383	11
0.215	313.15	709	19
0.218	273.15	228	5
0.222	323.15	907	22
0.25	283.15	326	7
0.288	303.15	592	12
0.306	293.15	456	9
0.336	313.15	793	12
0.36	283.15	352	4
0.371	323.15	1037	15
0.392	293.15	482	5
0.395	303.15	639	9
0.407	273.15	258	4
0.462	313.15	854	9
0.468	303.15	663	6
0.474	273.15	265	3
0.502	293.15	503	4
0.507	323.15	1114	11
0.52	283.15	376	4
0.559	313.15	888	7
0.577	273.15	273	3
0.592	323.15	1149	9
0.602	283.15	384	3
0.627	313.15	905	6
0.63	293.15	522	4
0.641	303.15	696	5
0.678	323.15	1176	7
0.692	283.15	389	3
0.703	293.15	530	3
0.707	303.15	704	4
0.718	313.15	921	5
0.728	273.15	280	2
0.742	323.15	1190	6
0.76	303.15	710	6
0.772	293.15	534	3
0.774	283.15	393	3
0.786	313.15	929	6
0.787	273.15	281	2
0.795	303.15	714	4
0.799	323.15	1198	5
0.82	293.15	536	3
0.822	273.15	282	2
0.824	283.15	395	3
0.829	323.15	1201	5
0.831	313.15	933	6
0.838	273.15	281	2
0.841	293.15	536	3
0.847	303.15	714	4
0.848	323.15	1202	5
0.851	313.15	933	5
0.856	283.15	395	4
0.884	313.15	933	4
0.896	323.15	1202	5
0.899	273.15	279	3
0.901	283.15	391	3
0.904	293.15	533	3
0.911	303.15	710	3
0.938	313.15	928	5
0.941	273.15	276	4
0.951	293.15	530	5
0.953	283.15	386	5
0.953	323.15	1190	7
0.956	303.15	703	7
1	273.15	264	2
1	283.15	372	2
1	293.15	512	3
1	303.15	689	3
1	313.15	909	4
1	323.15	1176	5

System: 1,1-difluoroethane + butane; phases: Gas, Liquid
Property: Mole fraction of 1,1-difluoroethane (Gas); method: Chromatography
Mole fraction of 1,1-difluoroethane	Temperature, K	Mole fraction of 1,1-difluoroethane	uncertainty
0	273.15	0	0.001
0	283.15	0	0.001
0	293.15	0	0.001
0	303.15	0	0.001
0	313.15	0	0.001
0	323.15	0	0.001
0.06	283.15	0.294	0.024
0.065	303.15	0.286	0.024
0.068	273.15	0.33	0.025
0.09	293.15	0.355	0.023
0.095	313.15	0.341	0.022
0.107	323.15	0.342	0.022
0.114	273.15	0.416	0.021
0.137	283.15	0.42	0.021
0.137	303.15	0.421	0.021
0.15	293.15	0.45	0.021
0.215	313.15	0.502	0.021
0.218	273.15	0.545	0.021
0.222	323.15	0.486	0.021
0.25	283.15	0.536	0.021
0.288	303.15	0.567	0.021
0.306	293.15	0.59	0.021
0.336	313.15	0.588	0.02
0.36	283.15	0.608	0.02
0.371	323.15	0.602	0.02
0.392	293.15	0.625	0.02
0.395	303.15	0.623	0.02
0.407	273.15	0.663	0.02
0.462	313.15	0.65	0.02
0.468	303.15	0.659	0.02
0.474	273.15	0.678	0.02
0.502	293.15	0.668	0.02
0.507	323.15	0.67	0.02
0.52	283.15	0.684	0.02
0.559	313.15	0.694	0.02
0.577	273.15	0.693	0.02
0.592	323.15	0.712	0.02
0.602	283.15	0.709	0.02
0.627	313.15	0.727	0.02
0.63	293.15	0.736	0.02
0.641	303.15	0.724	0.02
0.678	323.15	0.753	0.02
0.692	283.15	0.748	0.02
0.703	293.15	0.766	0.02
0.707	303.15	0.759	0.02
0.718	313.15	0.774	0.02
0.728	273.15	0.768	0.02
0.742	323.15	0.786	0.02
0.76	303.15	0.773	0.02
0.772	293.15	0.796	0.02
0.774	283.15	0.798	0.02
0.786	313.15	0.811	0.02
0.787	273.15	0.803	0.02
0.795	303.15	0.812	0.02
0.799	323.15	0.818	0.02
0.82	293.15	0.826	0.02
0.822	273.15	0.826	0.02
0.824	283.15	0.826	0.02
0.829	323.15	0.839	0.02
0.831	313.15	0.84	0.02
0.838	273.15	0.836	0.02
0.841	293.15	0.839	0.02
0.847	303.15	0.84	0.02
0.848	323.15	0.853	0.02
0.851	313.15	0.854	0.02
0.856	283.15	0.848	0.02
0.884	313.15	0.879	0.02
0.896	323.15	0.89	0.02
0.899	273.15	0.881	0.02
0.901	283.15	0.884	0.02
0.904	293.15	0.889	0.02
0.911	303.15	0.904	0.02
0.938	313.15	0.927	0.02
0.941	273.15	0.923	0.021
0.951	293.15	0.936	0.021
0.953	283.15	0.937	0.021
0.953	323.15	0.944	0.02
0.956	303.15	0.95	0.02
1	273.15	1	0.001
1	283.15	1	0.001
1	293.15	1	0.001
1	303.15	1	0.001
1	313.15	1	0.001
1	323.15	1	0.001
