Measured thermophysical data. Isobaric vapor-liquid equilibrium data for the binary system methyl acetate + isopropyl acetate and the quaternary system methyl acetate + methanol + isopropanol + isopropyl acetate at 101.3 kPa
Source: Fluid Phase Equilib., 2013, 10.1016/j.fluid.2013.01.024
Compound 1: methyl ethanoate, C3H6O2, InChI=1S/C3H6O2/c1-3(4)5-2/h1-2H3, purity 99.3%
Compound 2: methanol, CH4O, InChI=1S/CH4O/c1-2/h2H,1H3, purity 99.5%
Compound 3: propan-2-ol, C3H8O, InChI=1S/C3H8O/c1-3(2)4/h3-4H,1-2H3, purity 99.7%
Compound 4: 1-methylethyl ethanoate, C5H10O2, InChI=1S/C5H10O2/c1-4(2)7-5(3)6/h4H,1-3H3, purity 99.3%
Compound 5: ethanol, C2H6O, InChI=1S/C2H6O/c1-2-3/h3H,2H2,1H3, purity 99.7%

System: methyl ethanoate; phases: Liquid, Gas
Property: Normal boiling temperature, K (Liquid); method: Rose Williams Still
Normal boiling temperature, K	uncertainty
330.95	1

System: methyl ethanoate; phases: Liquid
Property: Mass density, kg/m3 (Liquid); method: Vibrating tube method
Temperature, K	Pressure, kPa	Mass density, kg/m3	uncertainty
298.15	101.325	927.4	0.2

System: methyl ethanoate; phases: Liquid
Property: Refractive index (Na D-line) (Liquid); method: Standard Abbe refractometry
Temperature, K	Pressure, kPa	Refractive index (Na D-line)	uncertainty
298.15	101.325	1.3595	0.0004

System: methanol; phases: Liquid, Gas
Property: Normal boiling temperature, K (Liquid); method: Rose Williams Still
Normal boiling temperature, K	uncertainty
337.75	1

System: methanol; phases: Liquid
Property: Mass density, kg/m3 (Liquid); method: Vibrating tube method
Temperature, K	Pressure, kPa	Mass density, kg/m3	uncertainty
298.15	101.325	786.7	0.2

System: methanol; phases: Liquid
Property: Refractive index (Na D-line) (Liquid); method: Standard Abbe refractometry
Temperature, K	Pressure, kPa	Refractive index (Na D-line)	uncertainty
298.15	101.325	1.3275	0.0004

System: propan-2-ol; phases: Liquid, Gas
Property: Normal boiling temperature, K (Liquid); method: Rose Williams Still
Normal boiling temperature, K	uncertainty
355.35	1

System: propan-2-ol; phases: Liquid
Property: Mass density, kg/m3 (Liquid); method: Vibrating tube method
Temperature, K	Pressure, kPa	Mass density, kg/m3	uncertainty
298.15	101.325	781.3	0.2

System: propan-2-ol; phases: Liquid
Property: Refractive index (Na D-line) (Liquid); method: Standard Abbe refractometry
Temperature, K	Pressure, kPa	Refractive index (Na D-line)	uncertainty
298.15	101.325	1.375	0.0004

System: 1-methylethyl ethanoate; phases: Liquid, Gas
Property: Normal boiling temperature, K (Liquid); method: Rose Williams Still
Normal boiling temperature, K	uncertainty
361.65	1

System: 1-methylethyl ethanoate; phases: Liquid
Property: Mass density, kg/m3 (Liquid); method: Vibrating tube method
Temperature, K	Pressure, kPa	Mass density, kg/m3	uncertainty
298.15	101.325	870.1	0.2

System: 1-methylethyl ethanoate; phases: Liquid
Property: Refractive index (Na D-line) (Liquid); method: Standard Abbe refractometry
Temperature, K	Pressure, kPa	Refractive index (Na D-line)	uncertainty
298.15	101.325	1.3752	0.0004

System: ethanol; phases: Liquid, Gas
Property: Normal boiling temperature, K (Liquid); method: Rose Williams Still
Normal boiling temperature, K	uncertainty
351.55	1

System: ethanol; phases: Liquid
Property: Mass density, kg/m3 (Liquid); method: Vibrating tube method
Temperature, K	Pressure, kPa	Mass density, kg/m3	uncertainty
298.15	101.325	785.1	0.2

System: ethanol; phases: Liquid
Property: Refractive index (Na D-line) (Liquid); method: Standard Abbe refractometry
Temperature, K	Pressure, kPa	Refractive index (Na D-line)	uncertainty
298.15	101.325	1.3615	0.0004

System: methyl ethanoate + 1-methylethyl ethanoate; phases: Gas, Liquid
Fixed: Pressure, kPa = 101.3
Property: Mole fraction of methyl ethanoate (Gas); method: Chromatography
Mole fraction of methyl ethanoate	Mole fraction of methyl ethanoate	uncertainty
0	0	
0.04	0.116	0.006
0.065	0.164	0.005
0.094	0.226	0.005
0.111	0.246	0.005
0.174	0.39	0.006
0.234	0.492	0.006
0.275	0.542	0.005
0.327	0.578	0.005
0.39	0.661	0.004
0.442	0.704	0.004
0.482	0.729	0.004
0.551	0.79	0.003
0.596	0.821	0.003
0.686	0.874	0.003
0.748	0.902	0.002
0.777	0.916	0.002
0.806	0.928	0.002
1	1	

System: methyl ethanoate + 1-methylethyl ethanoate; phases: Liquid, Gas
Fixed: Pressure, kPa = 101.3
Property: Boiling temperature at pressure P, K (Liquid); method: Ebulliometric method (Recirculating still)
Mole fraction of methyl ethanoate	Boiling temperature at pressure P, K	uncertainty
0	361.65	0.25
0.04	358.75	0.28
0.065	357.15	0.27
0.094	355.75	0.26
0.111	354.95	0.26
0.174	352.35	0.26
0.234	349.95	0.26
0.275	348.15	0.25
0.327	346.85	0.25
0.39	344.75	0.25
0.442	343.35	0.25
0.482	341.95	0.25
0.551	339.95	0.25
0.596	338.95	0.25
0.686	336.55	0.25
0.748	335.15	0.25
0.777	334.35	0.25
0.806	333.75	0.25
1	330.95	0.25
