Measured thermophysical data. Solubility of carbon dioxide in aqueous solutions of diisopropanolamine and methyldiethanolamine
Source: Fluid Phase Equilib., 2010, 10.1016/j.fluid.2010.02.035
Compound 1: N-methyldiethanolamine, C5H13NO2, InChI=1S/C5H13NO2/c1-6(2-4-7)3-5-8/h7-8H,2-5H2,1H3, purity 99%
Compound 2: carbon dioxide, CO2, InChI=1S/CO2/c2-1-3, purity 99.99%
Compound 3: water, H2O, InChI=1S/H2O/h1H2
Compound 4: N-(2-hydroxypropyl)-2-hydroxy-1-propanamine, C6H15NO2, InChI=1S/C6H15NO2/c1-5(8)3-7-4-6(2)9/h5-9H,3-4H2,1-2H3

System: carbon dioxide + water; phases: Liquid, Gas
Property: Henry's Law constant (mole fraction scale), kPa of carbon dioxide (Liquid); method: Static Method
Temperature, K	Mole fraction of carbon dioxide	Henry's Law constant (mole fraction scale), kPa of carbon dioxide	uncertainty
298.57	0	163500	7200

System: carbon dioxide + water; phases: Gas, Liquid
Property: Vapor or sublimation pressure, kPa (Gas); method: Closed cell (Static) method
Temperature, K	Mole fraction of carbon dioxide	Vapor or sublimation pressure, kPa	uncertainty
298.48	0.004	663.7	2.9
298.48	0.0046	747	3.2
298.55	0.0043	706.9	3.1
298.58	0.0036	589.7	2.7
298.61	0.0027	434.5	2.4
298.62	0	2.9	1.8
298.62	0.0017	263.1	122.5
298.63	0.0032	530.9	2.6

System: N-(2-hydroxypropyl)-2-hydroxy-1-propanamine + carbon dioxide + water; phases: Gas, Liquid
Property: Vapor or sublimation pressure, kPa (Gas); method: Closed cell (Static) method
Solvent: Mass fraction of N-(2-hydroxypropyl)-2-hydroxy-1-propanamine	Temperature, K	Mole fraction of carbon dioxide	Vapor or sublimation pressure, kPa	uncertainty
0.101	297.84	0.0159	207.1	79.1
0.101	297.96	0.0119	34.4	15.1
0.101	299.17	0.0139	78.4	12.8
0.101	299.2	0.0153	164.4	10.2
0.101	299.69	0.0128	50.2	13
0.101	299.82	0.0107	26.3	4.3
0.101	300.15	0.0146	117.1	18.1
0.101	300.41	0.0113	31	14.7
0.101	303.27	0	5.7	13.2
0.11	298.15	0.019	496	2748
0.11	298.15	0.0204	808	2465
0.11	298.16	0.021	955.6	2530
0.11	298.17	0.0181	341.8	1915
0.11	298.19	0.0202	768.1	2147
0.11	298.21	0.0194	600.1	2354
0.11	298.22	0	2.5	1.8
0.11	298.22	0.0189	479.8	2368
0.11	298.22	0.0208	911.5	2469
0.11	298.24	0.0168	183.1	242.9
0.11	298.24	0.0198	680.7	2014
0.11	298.27	0.0177	288.5	763.2
0.11	298.3	0.0184	390.4	2821
0.11	298.32	0.0196	647.5	1976
0.339	298.15	0.0592	788.8	970.9
0.339	298.18	0.0599	887.5	970.9
0.339	298.19	0.0458	124.7	80.5
0.339	298.21	0.0385	50.5	22.2
0.339	298.23	0.0337	30.8	15.1
0.339	298.24	0.0423	83.6	38.1
0.339	298.24	0.0547	443.8	279.7
0.339	298.25	0.0506	252.6	113.3
0.339	298.25	0.0562	543.7	307.3
0.339	298.27	0.0577	663.4	402.2
0.339	298.27	0.0605	944	514.9
0.339	298.29	0.0529	335.7	271.6
0.339	299.01	0	3.2	35.3

System: N-(2-hydroxypropyl)-2-hydroxy-1-propanamine + carbon dioxide + water; phases: Liquid, Gas
Property: Boiling temperature at pressure P, K (Liquid); method: bubbling method
Solvent: Mass fraction of N-(2-hydroxypropyl)-2-hydroxy-1-propanamine	Pressure, kPa	Mole fraction of carbon dioxide	Boiling temperature at pressure P, K	uncertainty
0.1	87.07	0.0094	323.21	18.25
0.1	92.56	0.0113	313.16	15.91
0.1	93.26	0.013	298.45	22.42
0.1	95.1	0.0136	303.15	0.2
0.1	100.91	0.0078	353.12	9.06
0.1	101.59	0.0093	343.16	9.06
0.1	102.86	0.0102	333.16	7.61
0.2	100.39	0.0297	298.13	4.24
0.2	100.44	0.0275	303.12	4.24
0.2	100.72	0.0248	313.18	6.68
0.2	101.1	0.0233	323.21	9.81
0.2	102.68	0.0121	353.14	3.63
0.2	102.69	0.021	333.25	4.83
0.2	102.83	0.0171	343.05	4.46
0.25	100.01	0.0252	333.19	5.23
0.25	100.21	0.0316	313.16	7.15
0.25	100.22	0.0288	323.19	7.15
0.25	101.93	0.0357	303.12	4.84
0.25	102.47	0.0373	298.11	4.84
0.25	102.61	0.0186	343.01	6.42
0.25	102.72	0.0153	353.11	6.42
0.35	99.45	0.0395	323.21	7.43
0.35	99.87	0.0419	313.17	7.43
0.35	100.56	0.0441	303.15	3.49
0.35	100.9	0.0227	343.16	2.59
0.35	100.94	0.0491	298.55	1.91
0.35	101.28	0.017	353.16	3.04
0.35	101.53	0.0286	333.13	5.89

System: N-methyldiethanolamine + carbon dioxide + water; phases: Gas, Liquid
Property: Boiling temperature at pressure P, K (Gas); method: bubbling method
Solvent: Mass fraction of N-methyldiethanolamine	Pressure, kPa	Mole fraction of carbon dioxide	Boiling temperature at pressure P, K	uncertainty
0.1	102.8	0.0134	298.16	2.36
0.1	103.01	0.013	303.1	24.23
0.1	103.18	0.0113	323.22	24.33
0.1	103.27	0.0121	313.19	24.61
0.2	97.94	0.0218	323.22	1.56
0.2	99.5	0.03	298.25	0.49
0.2	101.54	0.0285	303.17	4.93
0.2	101.97	0.0244	313.14	5.06
0.2	102.35	0.0165	333.22	5.16
0.49	94.46	0.0614	313.17	0.14
0.49	98.41	0.0829	303.17	1.32
0.49	99.98	0.0922	298.21	1.26
0.49	101.61	0.0538	323.21	1.59
0.49	101.8	0.0413	333.22	1.59
