Measured thermophysical data. CO2 solubility in formation water under sequestration conditions
Source: Fluid Phase Equilib., 2018, 10.1016/j.fluid.2018.02.002
Compound 1: carbon dioxide, CO2, InChI=1S/CO2/c2-1-3, purity 99.995%
Compound 2: water, H2O, InChI=1S/H2O/h1H2, purity 99.8%

System: carbon dioxide + water; phases: Liquid, Gas
Property: Mole fraction of carbon dioxide (Liquid); method: 4-L gasometer (Vinci Technologies)
Temperature, K	Pressure, kPa	Mole fraction of carbon dioxide	uncertainty
300.95	2071	0.01099	0.00027
300.95	4782	0.02032	0.00025
300.95	7837	0.02335	0.00027
300.95	19445	0.02696	0.00032
300.95	34753	0.0296	0.00038
307.79	1292	0.00601	0.00029
307.79	1310	0.00601	0.0003
307.79	2243	0.00974	0.00029
307.79	3380	0.01384	0.00027
307.79	4594	0.01704	0.00027
307.79	5543	0.01931	0.00025
307.79	7143	0.02228	0.00026
307.79	12231	0.02414	0.00029
307.79	19236	0.02589	0.00031
322.62	2991	0.00961	0.00015
322.62	4778	0.01279	0.0002
322.62	5486	0.01493	0.00023
322.62	8667	0.01959	0.00023
322.62	20727	0.02394	0.00028
322.62	40349	0.02708	0.00035
373.39	3515	0.00697	0.00015
373.39	7941	0.01286	0.00016
373.39	19340	0.02112	0.00025
373.39	42077	0.02578	0.00029
423.48	2631	0.00327	0.00015
423.48	5109	0.00665	0.00014
423.48	9772	0.0117	0.00015
423.48	19549	0.02063	0.00023
423.48	40690	0.02839	0.00036
