Measured thermophysical data. Determination and correlation of liquid-liquid equilibria for nine binary acetonitrile + n-alkane systems
Source: Fluid Phase Equilib., 2011, 10.1016/j.fluid.2010.10.013
Compound 1: acetonitrile, C2H3N, InChI=1S/C2H3N/c1-2-3/h1H3, purity 99%
Compound 2: octane, C8H18, InChI=1S/C8H18/c1-3-5-7-8-6-4-2/h3-8H2,1-2H3, purity 99%
Compound 3: nonane, C9H20, InChI=1S/C9H20/c1-3-5-7-9-8-6-4-2/h3-9H2,1-2H3, purity 99%
Compound 4: decane, C10H22, InChI=1S/C10H22/c1-3-5-7-9-10-8-6-4-2/h3-10H2,1-2H3, purity 99%
Compound 5: undecane, C11H24, InChI=1S/C11H24/c1-3-5-7-9-11-10-8-6-4-2/h3-11H2,1-2H3, purity 99%
Compound 6: dodecane, C12H26, InChI=1S/C12H26/c1-3-5-7-9-11-12-10-8-6-4-2/h3-12H2,1-2H3, purity 99%
Compound 7: tridecane, C13H28, InChI=1S/C13H28/c1-3-5-7-9-11-13-12-10-8-6-4-2/h3-13H2,1-2H3, purity 99%
Compound 8: tetradecane, C14H30, InChI=1S/C14H30/c1-3-5-7-9-11-13-14-12-10-8-6-4-2/h3-14H2,1-2H3, purity 99%
Compound 9: pentadecane, C15H32, InChI=1S/C15H32/c1-3-5-7-9-11-13-15-14-12-10-8-6-4-2/h3-15H2,1-2H3, purity 99%
Compound 10: hexadecane, C16H34, InChI=1S/C16H34/c1-3-5-7-9-11-13-15-16-14-12-10-8-6-4-2/h3-16H2,1-2H3, purity 99%

System: acetonitrile + octane; phases: Liquid mixture 1, Liquid mixture 2
Fixed: Pressure, kPa = 101
Property: Liquid-liquid equilibrium temperature, K (Liquid mixture 1); method: laser light scattering
Mole fraction of acetonitrile	Liquid-liquid equilibrium temperature, K	uncertainty
0.287	350.98	0.4
0.3908	359	0.4
0.4493	361.73	0.4
0.5016	363.43	0.4
0.5397	364.03	0.4
0.5994	364.51	0.4
0.6502	364.8	0.4
0.6781	364.83	0.4
0.7241	364.49	0.4
0.7494	364.44	0.4
0.7927	363.21	0.4
0.8425	360.48	0.4
0.8653	357.45	0.4
0.8778	355.19	0.4
0.9082	347.54	0.4

System: acetonitrile + nonane; phases: Liquid mixture 1, Liquid mixture 2
Fixed: Pressure, kPa = 101
Property: Liquid-liquid equilibrium temperature, K (Liquid mixture 1); method: laser light scattering
Mole fraction of acetonitrile	Liquid-liquid equilibrium temperature, K	uncertainty
0.3563	362.27	0.4
0.4084	365.4	0.4
0.4573	368.23	0.4
0.5009	370.34	0.4
0.55	371.7	0.4
0.592	372.5	0.4
0.6181	372.66	0.4
0.6602	373	0.4
0.7031	372.87	0.4
0.7315	372.81	0.4
0.7695	372.69	0.4
0.7999	371.59	0.4
0.8502	369.11	0.4
0.8966	362.05	0.4
0.9482	339.71	0.41

System: acetonitrile + decane; phases: Liquid mixture 1, Liquid mixture 2
Fixed: Pressure, kPa = 101
Property: Liquid-liquid equilibrium temperature, K (Liquid mixture 1); method: laser light scattering
Mole fraction of acetonitrile	Liquid-liquid equilibrium temperature, K	uncertainty
0.2506	353.89	0.4
0.2993	360.09	0.4
0.3447	364.81	0.4
0.3974	369.49	0.4
0.4502	373.44	0.4
0.5015	376.37	0.4
0.5486	378.05	0.4
0.6018	379.31	0.4
0.6282	379.65	0.4
0.6606	380.05	0.4
0.6839	380.41	0.4
0.7222	380.53	0.4
0.7501	380.3	0.4
0.7749	380.22	0.4
0.8005	379.91	0.4
0.8484	378.23	0.4
0.8949	372.82	0.4
0.9203	366.91	0.41
0.9511	351.77	0.41

System: acetonitrile + undecane; phases: Liquid mixture 1, Liquid mixture 2
Fixed: Pressure, kPa = 101
Property: Liquid-liquid equilibrium temperature, K (Liquid mixture 1); method: laser light scattering
Mole fraction of acetonitrile	Liquid-liquid equilibrium temperature, K	uncertainty
0.3743	372.7	0.4
0.3965	374.53	0.4
0.4519	378.84	0.4
0.4699	380.33	0.4
0.4873	381.09	0.4
0.5179	382.61	0.4
0.5549	384.09	0.4
0.5895	385.24	0.4
0.6111	385.93	0.4
0.6503	386.71	0.4
0.6779	387.04	0.4
0.7005	387.26	0.4
0.7101	387.32	0.4
0.7525	387.46	0.4
0.7557	387.57	0.4
0.7787	387.47	0.4
0.7998	387.24	0.4
0.816	387.06	0.4
0.816	387.06	0.4
0.8385	386.66	0.4
0.8507	386.47	0.4
0.8694	385.17	0.4
0.8802	384.15	0.4
0.9016	381.38	0.4
0.9186	377.69	0.4

System: acetonitrile + dodecane; phases: Liquid mixture 1, Liquid mixture 2
Fixed: Pressure, kPa = 101
Property: Liquid-liquid equilibrium temperature, K (Liquid mixture 1); method: laser light scattering
Mole fraction of acetonitrile	Liquid-liquid equilibrium temperature, K	uncertainty
0.3499	373.38	0.4
0.4017	378.51	0.4
0.4496	382.58	0.4
0.4977	386.02	0.4
0.5341	388.58	0.4
0.5647	389.92	0.4
0.5981	391.3	0.4
0.7003	393.65	0.4
0.7219	393.83	0.4
0.7501	394.1	0.4
0.7636	394.16	0.4
0.7757	394.26	0.4
0.7857	394.27	0.4
0.8014	394.18	0.4
0.8417	393.53	0.4
0.862	393.06	0.4
0.8831	391.73	0.4
0.9014	390.22	0.4
0.9183	386.91	0.4
0.9318	382.72	0.41
0.9519	373.72	0.41
0.9605	368.13	0.42

System: acetonitrile + tridecane; phases: Liquid mixture 1, Liquid mixture 2
Fixed: Pressure, kPa = 101
Property: Liquid-liquid equilibrium temperature, K (Liquid mixture 1); method: laser light scattering
Mole fraction of acetonitrile	Liquid-liquid equilibrium temperature, K	uncertainty
0.3466	374.09	0.4
0.3986	380.52	0.4
0.448	386.74	0.4
0.5021	391.34	0.4
0.5467	393.58	0.4
0.5974	396.77	0.4
0.648	398.07	0.4
0.6998	399.26	0.4
0.7483	400.37	0.4
0.77	400.72	0.4
0.7996	400.96	0.4
0.8194	400.94	0.4
0.8563	400.11	0.4
0.9016	397.3	0.4
0.9223	393.61	0.4
0.9498	385.28	0.41
0.9592	378.96	0.43
0.9702	369.96	0.44
0.9751	363.04	0.49

System: acetonitrile + tetradecane; phases: Liquid mixture 1, Liquid mixture 2
Fixed: Pressure, kPa = 101
Property: Liquid-liquid equilibrium temperature, K (Liquid mixture 1); method: laser light scattering
Mole fraction of acetonitrile	Liquid-liquid equilibrium temperature, K	uncertainty
0.601	400.89	0.4
0.6496	402.99	0.4
0.6992	404.59	0.4
0.7224	404.95	0.4
0.7527	405.21	0.4
0.774	405.37	0.4
0.7898	405.39	0.4
0.7993	405.39	0.4
0.8137	405.41	0.4
0.8262	405.37	0.4
0.8375	405.37	0.4
0.8489	405.31	0.4
0.8618	405.18	0.4
0.8745	405.03	0.4
0.8854	404.76	0.4
0.8984	404.23	0.4
0.9085	402.76	0.4
0.9222	401.08	0.4
0.9495	392.46	0.4

System: acetonitrile + pentadecane; phases: Liquid mixture 1, Liquid mixture 2
Fixed: Pressure, kPa = 101
Property: Liquid-liquid equilibrium temperature, K (Liquid mixture 1); method: laser light scattering
Mole fraction of acetonitrile	Liquid-liquid equilibrium temperature, K	uncertainty
0.6058	404	0.4
0.6297	405.57	0.4
0.6507	406.74	0.4
0.6806	408.79	0.4
0.7001	409.71	0.4
0.7291	410.22	0.4
0.7432	410.46	0.4
0.7597	410.57	0.4
0.7716	410.68	0.4
0.8004	410.98	0.4
0.8206	411.12	0.4
0.8299	410.98	0.4
0.8486	410.89	0.4
0.8704	410.48	0.4
0.8844	410.29	0.4
0.9018	409.69	0.4
0.9198	407.59	0.4
0.9334	405.27	0.4
0.9481	400.72	0.4

System: acetonitrile + hexadecane; phases: Liquid mixture 1, Liquid mixture 2
Fixed: Pressure, kPa = 101
Property: Liquid-liquid equilibrium temperature, K (Liquid mixture 1); method: laser light scattering
Mole fraction of acetonitrile	Liquid-liquid equilibrium temperature, K	uncertainty
0.4205	382.69	0.4
0.4628	389.79	0.4
0.5138	398.42	0.4
0.5587	403.28	0.4
0.6068	408.87	0.4
0.6321	411.43	0.4
0.6626	412.96	0.4
0.6967	414.42	0.4
0.736	415.2	0.4
0.7389	415.31	0.4
0.7538	415.52	0.4
0.7643	415.65	0.4
0.7737	415.8	0.4
0.8098	416.17	0.4
0.8311	416.29	0.4
0.8459	416.38	0.4
0.8694	416.28	0.4
0.8715	416.32	0.4
0.8963	416.09	0.4
0.9066	415.61	0.4
0.9206	414.41	0.4
0.9298	413.48	0.4
0.9408	410.28	0.4
0.9497	407.71	0.41
0.9579	404.02	0.42
0.9693	396.72	0.42
