Measured thermophysical data. A relative headspace method for Henry s constants of volatile organic compounds
Source: Fluid Phase Equilib., 2005, 10.1016/j.fluid.2005.02.006
Compound 1: pentan-2-one, C5H10O, InChI=1S/C5H10O/c1-3-4-5(2)6/h3-4H2,1-2H3
Compound 2: 2-hexanone, C6H12O, InChI=1S/C6H12O/c1-3-4-5-6(2)7/h3-5H2,1-2H3
Compound 3: 2-heptanone, C7H14O, InChI=1S/C7H14O/c1-3-4-5-6-7(2)8/h3-6H2,1-2H3
Compound 4: sodium sulfate, Na2O4S, InChI=1S/2Na.H2O4S/c;;1-5(2,3)4/h;;(H2,1,2,3,4)/q2*+1;/p-2
Compound 5: water, H2O, InChI=1S/H2O/h1H2
Compound 6: acetone, C3H6O, InChI=1S/C3H6O/c1-3(2)4/h1-2H3
Compound 7: butanone, C4H8O, InChI=1S/C4H8O/c1-3-4(2)5/h3H2,1-2H3

System: acetone + water; phases: Liquid, Gas
Fixed: Mole fraction of acetone = 0
Property: Henry's Law constant (mole fraction scale), kPa of acetone (Liquid); method: gas chromatograph
Temperature, K	Henry's Law constant (mole fraction scale), kPa of acetone	uncertainty
323.15	699.1	141.855
333.15	1033.5	202.65
343.15	1519.9	303.98
353.15	2148.1	435.697

System: butanone + water; phases: Liquid, Gas
Fixed: Mole fraction of butanone = 0
Property: Henry's Law constant (mole fraction scale), kPa of butanone (Liquid); method: gas chromatograph
Temperature, K	Henry's Law constant (mole fraction scale), kPa of butanone	uncertainty
323.15	1175.4	233.05
333.15	1803.6	364.77
343.15	2745.9	547.155
353.15	3850.3	770.07

System: pentan-2-one + water; phases: Liquid, Gas
Fixed: Mole fraction of pentan-2-one = 0
Property: Henry's Law constant (mole fraction scale), kPa of pentan-2-one (Liquid); method: gas chromatograph
Temperature, K	Henry's Law constant (mole fraction scale), kPa of pentan-2-one	uncertainty
323.15	1834	364.77
333.15	2877.6	577.553
343.15	4407.6	881.527
353.15	6474.7	1296.96

System: 2-hexanone + water; phases: Liquid, Gas
Fixed: Mole fraction of 2-hexanone = 0
Property: Henry's Law constant (mole fraction scale), kPa of 2-hexanone (Liquid); method: gas chromatograph
Temperature, K	Henry's Law constant (mole fraction scale), kPa of 2-hexanone	uncertainty
323.15	2462.2	496.493
333.15	3890.9	780.202
343.15	5866.7	1175.37
353.15	9656.3	1935.308

System: 2-heptanone + water; phases: Liquid, Gas
Fixed: Mole fraction of 2-heptanone = 0
Property: Henry's Law constant (mole fraction scale), kPa of 2-heptanone (Liquid); method: gas chromatograph
Temperature, K	Henry's Law constant (mole fraction scale), kPa of 2-heptanone	uncertainty
323.15	3668	739.673
333.15	5785.7	1155.105
343.15	9727.2	1945.44
353.15	16313	3242.4

System: acetone + water + sodium sulfate; phases: Liquid, Gas
Property: Henry's Law constant (mole fraction scale), kPa of acetone (Liquid); method: Chromatography
Temperature, K	Mole fraction of acetone	Molality, mol/kg of sodium sulfate	Henry's Law constant (mole fraction scale), kPa of acetone	uncertainty
353.15	0	1	4235.4	851.13

System: acetone + water + sodium sulfate; phases: Liquid, Gas
Property: Henry's Law constant (mole fraction scale), kPa of acetone (Liquid); method: Chromatography
Temperature, K	Mole fraction of acetone	Molality, mol/kg of sodium sulfate	Henry's Law constant (mole fraction scale), kPa of acetone	uncertainty
353.15	0	1	4407.6	881.527

System: acetone + water + sodium sulfate; phases: Liquid, Gas
Fixed: Mole fraction of acetone = 0
Property: Henry's Law constant (mole fraction scale), kPa of acetone (Liquid); method: Chromatography
Molality, mol/kg of sodium sulfate	Temperature, K	Henry's Law constant (mole fraction scale), kPa of acetone	uncertainty
0	596.15	665	133
0	606.15	992	198
0	616.15	1480	296
0	626.15	1998	400
0.2	596.15	812	162
0.2	606.15	1212	242
0.2	616.15	1636	327
0.2	626.15	2441	488
0.4	596.15	898	180
0.4	606.15	1339	268
0.4	616.15	1998	400
0.4	626.15	2697	539
0.6	596.15	1097	219
0.6	606.15	1480	296
0.6	616.15	2208	442
0.6	626.15	2981	596
0.8	596.15	1212	242
0.8	606.15	1808	362
0.8	616.15	2441	488
0.8	626.15	3641	728
1	596.15	1480	296
1	606.15	1998	400
1	616.15	2981	596
1	626.15	4024	805

System: butanone + water + sodium sulfate; phases: Liquid, Gas
Property: Henry's Law constant (mole fraction scale), kPa of butanone (Liquid); method: Chromatography
Temperature, K	Mole fraction of butanone	Molality, mol/kg of sodium sulfate	Henry's Law constant (mole fraction scale), kPa of butanone	uncertainty
353.15	0	1	8967.3	1793.452

System: butanone + water + sodium sulfate; phases: Liquid, Gas
Property: Henry's Law constant (mole fraction scale), kPa of butanone (Liquid); method: Chromatography
Temperature, K	Mole fraction of butanone	Molality, mol/kg of sodium sulfate	Henry's Law constant (mole fraction scale), kPa of butanone	uncertainty
353.15	0	1	9291.5	1854.248

System: butanone + water + sodium sulfate; phases: Liquid, Gas
Fixed: Mole fraction of butanone = 0
Property: Henry's Law constant (mole fraction scale), kPa of butanone (Liquid); method: Chromatography
Molality, mol/kg of sodium sulfate	Temperature, K	Henry's Law constant (mole fraction scale), kPa of butanone	uncertainty
0	596.15	1212	242
0	606.15	1808	362
0	616.15	2697	539
0	626.15	3641	728
0.2	596.15	1339	268
0.2	606.15	1998	400
0.2	616.15	2981	596
0.2	626.15	4447	890
0.4	596.15	1636	327
0.4	606.15	2441	488
0.4	616.15	3641	728
0.4	626.15	4915	983
0.6	596.15	1998	400
0.6	606.15	2981	596
0.6	616.15	4447	890
0.6	626.15	6003	1201
0.8	596.15	2441	488
0.8	606.15	3641	728
0.8	616.15	4915	983
0.8	626.15	7332	1467
1	596.15	2981	596
1	606.15	4447	890
1	616.15	6003	1201
1	626.15	8955	1791

System: pentan-2-one + water + sodium sulfate; phases: Liquid, Gas
Property: Henry's Law constant (mole fraction scale), kPa of pentan-2-one (Liquid); method: Chromatography
Temperature, K	Mole fraction of pentan-2-one	Molality, mol/kg of sodium sulfate	Henry's Law constant (mole fraction scale), kPa of pentan-2-one	uncertainty
353.15	0	1	11855	2330.47

System: pentan-2-one + water + sodium sulfate; phases: Liquid, Gas
Property: Henry's Law constant (mole fraction scale), kPa of pentan-2-one (Liquid); method: Chromatography
Temperature, K	Mole fraction of pentan-2-one	Molality, mol/kg of sodium sulfate	Henry's Law constant (mole fraction scale), kPa of pentan-2-one	uncertainty
353.15	0	1	17631	3546.38

System: pentan-2-one + water + sodium sulfate; phases: Liquid, Gas
Fixed: Mole fraction of pentan-2-one = 0
Property: Henry's Law constant (mole fraction scale), kPa of pentan-2-one (Liquid); method: Chromatography
Molality, mol/kg of sodium sulfate	Temperature, K	Henry's Law constant (mole fraction scale), kPa of pentan-2-one	uncertainty
0	596.15	1808	362
0	606.15	2981	596
0	616.15	4447	890
0	626.15	6634	1327
0.2	596.15	2208	442
0.2	606.15	3641	728
0.2	616.15	5432	1087
0.2	626.15	8103	1621
0.4	596.15	2697	539
0.4	606.15	4447	890
0.4	616.15	6634	1327
0.4	626.15	8955	1791
0.6	596.15	3294	659
0.6	606.15	5432	1087
0.6	616.15	8103	1621
0.6	626.15	10938	2188
0.8	596.15	4447	890
0.8	606.15	6634	1327
0.8	616.15	8955	1791
0.8	626.15	13360	2672
1	596.15	5432	1087
1	606.15	8103	1621
1	616.15	12088	2418
1	626.15	18034	3607

System: 2-hexanone + water + sodium sulfate; phases: Liquid, Gas
Property: Henry's Law constant (mole fraction scale), kPa of 2-hexanone (Liquid); method: Chromatography
Temperature, K	Mole fraction of 2-hexanone	Molality, mol/kg of sodium sulfate	Henry's Law constant (mole fraction scale), kPa of 2-hexanone	uncertainty
353.15	0	1	29992	5978.18

System: 2-hexanone + water + sodium sulfate; phases: Liquid, Gas
Property: Henry's Law constant (mole fraction scale), kPa of 2-hexanone (Liquid); method: Chromatography
Temperature, K	Mole fraction of 2-hexanone	Molality, mol/kg of sodium sulfate	Henry's Law constant (mole fraction scale), kPa of 2-hexanone	uncertainty
353.15	0	1	28168	5674.2

System: 2-hexanone + water + sodium sulfate; phases: Liquid, Gas
Fixed: Mole fraction of 2-hexanone = 0
Property: Henry's Law constant (mole fraction scale), kPa of 2-hexanone (Liquid); method: Chromatography
Molality, mol/kg of sodium sulfate	Temperature, K	Henry's Law constant (mole fraction scale), kPa of 2-hexanone	uncertainty
0	596.15	2441	488
0	606.15	3641	728
0	616.15	5432	1087
0	626.15	9897	1980
0.2	596.15	3294	659
0.2	606.15	4915	983
0.2	616.15	7332	1467
0.2	626.15	12088	2418
0.4	596.15	4024	805
0.4	606.15	6634	1327
0.4	616.15	8955	1791
0.4	626.15	14765	2953
0.6	596.15	5432	1087
0.6	606.15	8103	1621
0.6	616.15	12088	2418
0.6	626.15	18034	3607
0.8	596.15	6634	1327
0.8	606.15	10938	2188
0.8	616.15	14765	2953
0.8	626.15	22026	4406
1	596.15	8103	1621
1	606.15	13360	2672
1	616.15	18034	3607
1	626.15	29733	5948

System: 2-heptanone + water + sodium sulfate; phases: Liquid, Gas
Property: Henry's Law constant (mole fraction scale), kPa of 2-heptanone (Liquid); method: Chromatography
Temperature, K	Mole fraction of 2-heptanone	Molality, mol/kg of sodium sulfate	Henry's Law constant (mole fraction scale), kPa of 2-heptanone	uncertainty
353.15	0	1	51068	10233.83

System: 2-heptanone + water + sodium sulfate; phases: Liquid, Gas
Property: Henry's Law constant (mole fraction scale), kPa of 2-heptanone (Liquid); method: Chromatography
Temperature, K	Mole fraction of 2-heptanone	Molality, mol/kg of sodium sulfate	Henry's Law constant (mole fraction scale), kPa of 2-heptanone	uncertainty
353.15	0	1	45799	9119.25

System: 2-heptanone + water + sodium sulfate; phases: Liquid, Gas
Fixed: Mole fraction of 2-heptanone = 0
Property: Henry's Law constant (mole fraction scale), kPa of 2-heptanone (Liquid); method: Chromatography
Molality, mol/kg of sodium sulfate	Temperature, K	Henry's Law constant (mole fraction scale), kPa of 2-heptanone	uncertainty
0	596.15	3641	728
0	606.15	5432	1087
0	616.15	9897	1980
0	626.15	16318	3264
0.2	596.15	4915	983
0.2	606.15	8103	1621
0.2	616.15	12088	2418
0.2	626.15	19930	3987
0.4	596.15	6634	1327
0.4	606.15	9897	1980
0.4	616.15	16318	3264
0.4	626.15	26903	5381
0.6	596.15	8103	1621
0.6	606.15	13360	2672
0.6	616.15	19930	3987
0.6	626.15	32860	6573
0.8	596.15	10938	2188
0.8	606.15	18034	3607
0.8	616.15	26903	5381
0.8	626.15	40135	8028
1	596.15	14765	2953
1	606.15	22026	4406
1	616.15	32860	6573
1	626.15	49021	9806
