Measured thermophysical data. Densities, viscosities, and refractive indices of binary and ternary mixtures of methanol, acetone, and chloroform at temperatures from (298.15-318.15) K and ambient pressure
Source: Fluid Phase Equilib., 2019, 10.1016/j.fluid.2018.10.024
Compound 1: acetone, C3H6O, InChI=1S/C3H6O/c1-3(2)4/h1-2H3, purity 99.8%
Compound 2: trichloromethane, CHCl3, InChI=1S/CHCl3/c2-1(3)4/h1H, purity 99.4%
Compound 3: methanol, CH4O, InChI=1S/CH4O/c1-2/h2H,1H3, purity 99.9%

System: acetone; phases: Liquid
Fixed: Pressure, kPa = 101.325
Property: Mass density, kg/m3 (Liquid); method: Vibrating tube method
Temperature, K	Mass density, kg/m3	uncertainty
298.15	784.41	0.12
303.15	778.66	0.13
308.15	773.08	0.13
313.15	766.95	0.13
318.15	761.26	0.13

System: acetone; phases: Liquid
Fixed: Pressure, kPa = 101.325
Property: Viscosity, Pa*s (Liquid); method: Capillary tube (Ostwald; Ubbelohde) method
Temperature, K	Viscosity, Pa*s	uncertainty
298.15	0.0003034	2.4e-06
303.15	0.0002966	2.4e-06
308.15	0.0002831	2.3e-06
313.15	0.0002689	2.3e-06
318.15	0.0002511	2.2e-06

System: acetone; phases: Liquid
Fixed: Pressure, kPa = 101.325
Property: Refractive index (Na D-line) (Liquid); method: Standard Abbe refractometry
Temperature, K	Refractive index (Na D-line)	uncertainty
298.15	1.3558	0.0006
303.15	1.3534	0.0006
308.15	1.3509	0.0006
313.15	1.349	0.0006
318.15	1.3449	0.0006

System: trichloromethane; phases: Liquid
Fixed: Pressure, kPa = 101.325
Property: Mass density, kg/m3 (Liquid); method: Vibrating tube method
Temperature, K	Mass density, kg/m3	uncertainty
298.15	1478.75	0.38
303.15	1469.16	0.37
308.15	1460.01	0.37
313.15	1450.39	0.36
318.15	1440.03	0.36

System: trichloromethane; phases: Liquid
Fixed: Pressure, kPa = 101.325
Property: Viscosity, Pa*s (Liquid); method: Capillary tube (Ostwald; Ubbelohde) method
Temperature, K	Viscosity, Pa*s	uncertainty
298.15	0.0005916	
303.15	0.000558	
308.15	0.0005333	
313.15	0.0005072	
318.15	0.0004849	

System: trichloromethane; phases: Liquid
Fixed: Pressure, kPa = 101.325
Property: Refractive index (Na D-line) (Liquid); method: Standard Abbe refractometry
Temperature, K	Refractive index (Na D-line)	uncertainty
298.15	1.4422	0.0006
303.15	1.4397	0.0006
308.15	1.4356	0.0006
313.15	1.4338	0.0006
318.15	1.4297	0.0006

System: methanol; phases: Liquid
Fixed: Pressure, kPa = 101.325
Property: Mass density, kg/m3 (Liquid); method: Vibrating tube method
Temperature, K	Mass density, kg/m3	uncertainty
298.15	787.21	0.12
303.15	782.75	0.12
308.15	777.56	0.12
313.15	772.97	0.12
318.15	768.03	0.13

System: methanol; phases: Liquid
Fixed: Pressure, kPa = 101.325
Property: Viscosity, Pa*s (Liquid); method: Capillary tube (Ostwald; Ubbelohde) method
Temperature, K	Viscosity, Pa*s	uncertainty
298.15	0.0005467	3.7e-06
303.15	0.0005058	3.5e-06
308.15	0.0004818	3.4e-06
313.15	0.0004484	3.2e-06
318.15	0.0004208	3.1e-06

System: methanol; phases: Liquid
Fixed: Pressure, kPa = 101.325
Property: Refractive index (Na D-line) (Liquid); method: Standard Abbe refractometry
Temperature, K	Refractive index (Na D-line)	uncertainty
298.15	1.3271	0.0006
303.15	1.3245	0.0006
308.15	1.323	0.0006
313.15	1.3208	0.0006
318.15	1.3184	0.0006

System: methanol + acetone; phases: Liquid
Fixed: Pressure, kPa = 101
Property: Mass density, kg/m3 (Liquid); method: Vibrating tube method
Temperature, K	Mole fraction of methanol	Mass density, kg/m3	uncertainty
298.15	0	784.41	0.12
298.15	0.1036	786.21	0.12
298.15	0.2043	787.49	0.12
298.15	0.302	788.57	0.12
298.15	0.4013	789.53	0.12
298.15	0.5004	790.3	0.12
298.15	0.6006	790.81	0.12
298.15	0.6969	790.98	0.12
298.15	0.802	790.73	0.12
298.15	0.8965	789.83	0.12
298.15	1	787.21	0.12
303.15	0	778.66	0.12
303.15	0.1036	780.47	0.12
303.15	0.2043	781.81	0.12
303.15	0.302	782.95	0.12
303.15	0.4013	784	0.12
303.15	0.5004	784.89	0.12
303.15	0.6006	785.55	0.12
303.15	0.6969	785.85	0.12
303.15	0.802	785.67	0.12
303.15	0.8965	784.85	0.12
303.15	1	782.75	0.12
308.15	0	773.08	0.13
308.15	0.1036	774.93	0.13
308.15	0.2043	776.27	0.12
308.15	0.302	777.4	0.12
308.15	0.4013	778.45	0.12
308.15	0.5004	779.36	0.12
308.15	0.6006	780.05	0.12
308.15	0.6969	780.38	0.12
308.15	0.802	780.24	0.12
308.15	0.8965	779.53	0.12
308.15	1	777.56	0.12
313.15	0	766.95	0.13
313.15	0.1036	768.83	0.13
313.15	0.2043	770.26	0.13
313.15	0.302	771.49	0.13
313.15	0.4013	772.65	0.13
313.15	0.5004	773.67	0.12
313.15	0.6006	774.49	0.12
313.15	0.6969	775.01	0.12
313.15	0.802	775.12	0.12
313.15	0.8965	774.65	0.12
313.15	1	772.97	0.12
318.15	0	761.26	0.13
318.15	0.1036	763.15	0.13
318.15	0.2043	764.64	0.13
318.15	0.302	765.92	0.13
318.15	0.4013	767.11	0.13
318.15	0.5004	768.17	0.13
318.15	0.6006	769.04	0.13
318.15	0.6969	769.62	0.13
318.15	0.802	769.88	0.12
318.15	0.8965	769.53	0.12
318.15	1	768.03	0.12

System: methanol + acetone; phases: Liquid
Fixed: Pressure, kPa = 101
Property: Viscosity, Pa*s (Liquid); method: Capillary tube (Ostwald; Ubbelohde) method
Temperature, K	Mole fraction of methanol	Viscosity, Pa*s	uncertainty
298.15	0	0.0003034	2.4e-06
298.15	0.1036	0.0003003	2.4e-06
298.15	0.2043	0.0003006	2.4e-06
298.15	0.302	0.0003059	2.4e-06
298.15	0.4013	0.0003143	2.5e-06
298.15	0.5004	0.0003299	2.6e-06
298.15	0.6006	0.0003533	2.7e-06
298.15	0.6969	0.0003852	2.9e-06
298.15	0.802	0.0004316	3.1e-06
298.15	0.8965	0.0004833	3.4e-06
298.15	1	0.0005467	3.7e-06
303.15	0	0.0002966	2.4e-06
303.15	0.1036	0.000295	2.4e-06
303.15	0.2043	0.0002939	2.4e-06
303.15	0.302	0.0002987	2.4e-06
303.15	0.4013	0.0003073	2.5e-06
303.15	0.5004	0.0003188	2.5e-06
303.15	0.6006	0.00034	2.6e-06
303.15	0.6969	0.0003663	2.8e-06
303.15	0.802	0.0004051	3e-06
303.15	0.8965	0.0004472	3.2e-06
303.15	1	0.0005058	3.5e-06
308.15	0	0.0002831	2.4e-06
308.15	0.1036	0.0002807	2.3e-06
308.15	0.2043	0.0002803	2.3e-06
308.15	0.302	0.0002844	2.4e-06
308.15	0.4013	0.0002945	2.4e-06
308.15	0.5004	0.0003103	2.5e-06
308.15	0.6006	0.0003255	2.5e-06
308.15	0.6969	0.0003531	2.7e-06
308.15	0.802	0.0003857	2.9e-06
308.15	0.8965	0.0004278	3.1e-06
308.15	1	0.0004818	3.4e-06
313.15	0	0.0002689	2.3e-06
313.15	0.1036	0.0002647	2.3e-06
313.15	0.2043	0.0002657	2.3e-06
313.15	0.302	0.0002704	2.3e-06
313.15	0.4013	0.0002769	2.3e-06
313.15	0.5004	0.0002881	2.4e-06
313.15	0.6006	0.0003057	2.4e-06
313.15	0.6969	0.0003316	2.6e-06
313.15	0.802	0.0003619	2.7e-06
313.15	0.8965	0.0003989	2.9e-06
313.15	1	0.0004484	3.2e-06
318.15	0	0.0002511	2.2e-06
318.15	0.1036	0.0002478	2.2e-06
318.15	0.2043	0.0002494	2.2e-06
318.15	0.302	0.0002526	2.2e-06
318.15	0.4013	0.0002601	2.2e-06
318.15	0.5004	0.0002692	2.3e-06
318.15	0.6006	0.0002903	2.4e-06
318.15	0.6969	0.0003096	2.5e-06
318.15	0.802	0.0003377	2.6e-06
318.15	0.8965	0.000375	2.8e-06
318.15	1	0.0004208	3.1e-06

System: methanol + acetone; phases: Liquid
Fixed: Pressure, kPa = 101
Property: Refractive index (Na D-line) (Liquid); method: Standard Abbe refractometry
Temperature, K	Mole fraction of methanol	Refractive index (Na D-line)	uncertainty
298.15	0	1.3558	0.0006
298.15	0.1036	1.3539	0.0006
298.15	0.2043	1.3521	0.0006
298.15	0.302	1.3502	0.0006
298.15	0.4013	1.3483	0.0006
298.15	0.5004	1.3458	0.0006
298.15	0.6006	1.3426	0.0006
298.15	0.6969	1.3389	0.0006
298.15	0.802	1.3352	0.0006
298.15	0.8965	1.3315	0.0006
298.15	1	1.3271	0.0006
303.15	0	1.3534	0.0006
303.15	0.1036	1.3513	0.0006
303.15	0.2043	1.3497	0.0006
303.15	0.302	1.3482	0.0006
303.15	0.4013	1.3464	0.0006
303.15	0.5004	1.3439	0.0006
303.15	0.6006	1.3407	0.0006
303.15	0.6969	1.3369	0.0006
303.15	0.802	1.3328	0.0006
303.15	0.8965	1.3291	0.0006
303.15	1	1.3245	0.0006
308.15	0	1.3509	0.0006
308.15	0.1036	1.3493	0.0006
308.15	0.2043	1.3481	0.0006
308.15	0.302	1.3465	0.0006
308.15	0.4013	1.3444	0.0006
308.15	0.5004	1.3419	0.0006
308.15	0.6006	1.3385	0.0006
308.15	0.6969	1.3349	0.0006
308.15	0.802	1.3309	0.0006
308.15	0.8965	1.3269	0.0006
308.15	1	1.323	0.0006
313.15	0	1.349	0.0006
313.15	0.1036	1.3469	0.0006
313.15	0.2043	1.3457	0.0006
313.15	0.302	1.3435	0.0006
313.15	0.4013	1.3415	0.0006
313.15	0.5004	1.3392	0.0006
313.15	0.6006	1.3362	0.0006
313.15	0.6969	1.3329	0.0006
313.15	0.802	1.3289	0.0006
313.15	0.8965	1.3253	0.0006
313.15	1	1.3208	0.0006
318.15	0	1.3449	0.0006
318.15	0.1036	1.3432	0.0006
318.15	0.2043	1.3414	0.0006
318.15	0.302	1.3397	0.0006
318.15	0.4013	1.3381	0.0006
318.15	0.5004	1.3361	0.0006
318.15	0.6006	1.3334	0.0006
318.15	0.6969	1.3303	0.0006
318.15	0.802	1.3262	0.0006
318.15	0.8965	1.3221	0.0006
318.15	1	1.3184	0.0006

System: methanol + trichloromethane; phases: Liquid
Fixed: Pressure, kPa = 101
Property: Mass density, kg/m3 (Liquid); method: Vibrating tube method
Temperature, K	Mole fraction of methanol	Mass density, kg/m3	uncertainty
298.15	0	1478.75	0.37
298.15	0.0999	1443.84	0.34
298.15	0.2012	1403.84	0.3
298.15	0.3015	1358.87	0.26
298.15	0.3991	1309.46	0.23
298.15	0.502	1250.29	0.21
298.15	0.5998	1186.04	0.19
298.15	0.7012	1108.93	0.19
298.15	0.7998	1020.91	0.21
298.15	0.9001	914.54	0.25
298.15	1	787.21	0.12
303.15	0	1469.16	0.37
303.15	0.0999	1434	0.33
303.15	0.2012	1394.48	0.29
303.15	0.3015	1350.17	0.26
303.15	0.3991	1301.28	0.23
303.15	0.502	1242.63	0.21
303.15	0.5998	1178.79	0.19
303.15	0.7012	1102.19	0.19
303.15	0.7998	1014.72	0.21
303.15	0.9001	909	0.25
303.15	1	782.75	0.12
308.15	0	1460.01	0.36
308.15	0.0999	1424.97	0.33
308.15	0.2012	1385.67	0.29
308.15	0.3015	1341.86	0.26
308.15	0.3991	1293.54	0.23
308.15	0.502	1235.37	0.2
308.15	0.5998	1171.85	0.19
308.15	0.7012	1095.59	0.19
308.15	0.7998	1008.7	0.2
308.15	0.9001	903.73	0.25
308.15	1	777.56	0.12
313.15	0	1450.39	0.36
313.15	0.0999	1415.61	0.32
313.15	0.2012	1376.61	0.29
313.15	0.3015	1333.14	0.25
313.15	0.3991	1285.19	0.22
313.15	0.502	1227.45	0.2
313.15	0.5998	1164.4	0.19
313.15	0.7012	1088.7	0.19
313.15	0.7998	1002.44	0.2
313.15	0.9001	898.23	0.25
313.15	1	772.97	0.12
318.15	0	1440.03	0.35
318.15	0.0999	1405.51	0.32
318.15	0.2012	1366.88	0.28
318.15	0.3015	1323.78	0.25
318.15	0.3991	1276.2	0.22
318.15	0.502	1218.91	0.2
318.15	0.5998	1156.37	0.19
318.15	0.7012	1081.29	0.19
318.15	0.7998	995.73	0.21
318.15	0.9001	892.36	0.25
318.15	1	768.03	0.12

System: methanol + trichloromethane; phases: Liquid
Fixed: Pressure, kPa = 101
Property: Viscosity, Pa*s (Liquid); method: Capillary tube (Ostwald; Ubbelohde) method
Temperature, K	Mole fraction of methanol	Viscosity, Pa*s	uncertainty
298.15	0	0.0005916	4.4e-06
298.15	0.0999	0.0006213	4.5e-06
298.15	0.2012	0.0006437	4.6e-06
298.15	0.3015	0.0006585	4.6e-06
298.15	0.3991	0.0006642	4.6e-06
298.15	0.502	0.0006635	4.5e-06
298.15	0.5998	0.0006552	4.4e-06
298.15	0.7012	0.0006385	4.3e-06
298.15	0.7998	0.0006182	4.2e-06
298.15	0.9001	0.0005812	3.9e-06
298.15	1	0.0005467	3.7e-06
303.15	0	0.000558	4.1e-06
303.15	0.0999	0.0005797	4.2e-06
303.15	0.2012	0.0005937	4.3e-06
303.15	0.3015	0.0006053	4.3e-06
303.15	0.3991	0.0006038	4.2e-06
303.15	0.502	0.0006028	4.2e-06
303.15	0.5998	0.0005919	4.1e-06
303.15	0.7012	0.0005796	4e-06
303.15	0.7998	0.0005571	3.8e-06
303.15	0.9001	0.000533	3.7e-06
303.15	1	0.0005058	3.5e-06
308.15	0	0.0005333	4e-06
308.15	0.0999	0.0005525	4.1e-06
308.15	0.2012	0.0005656	4.1e-06
308.15	0.3015	0.0005743	4.1e-06
308.15	0.3991	0.0005766	4.1e-06
308.15	0.502	0.0005716	4e-06
308.15	0.5998	0.0005627	3.9e-06
308.15	0.7012	0.0005487	3.8e-06
308.15	0.7998	0.0005267	3.7e-06
308.15	0.9001	0.0005044	3.5e-06
308.15	1	0.0004765	3.4e-06
313.15	0	0.0005072	3.8e-06
313.15	0.0999	0.0005241	3.9e-06
313.15	0.2012	0.0005355	3.9e-06
313.15	0.3015	0.0005429	3.9e-06
313.15	0.3991	0.0005434	3.9e-06
313.15	0.502	0.0005403	3.8e-06
313.15	0.5998	0.0005264	3.7e-06
313.15	0.7012	0.0005134	3.6e-06
313.15	0.7998	0.0004924	3.5e-06
313.15	0.9001	0.0004713	3.3e-06
313.15	1	0.0004426	3.2e-06
318.15	0	0.0004849	3.7e-06
318.15	0.0999	0.0004991	3.7e-06
318.15	0.2012	0.0005108	3.8e-06
318.15	0.3015	0.0005144	3.7e-06
318.15	0.3991	0.0005142	3.7e-06
318.15	0.502	0.0005108	3.6e-06
318.15	0.5998	0.0004976	3.5e-06
318.15	0.7012	0.000483	3.4e-06
318.15	0.7998	0.0004655	3.3e-06
318.15	0.9001	0.0004426	3.2e-06
318.15	1	0.0004153	3e-06

System: methanol + trichloromethane; phases: Liquid
Fixed: Pressure, kPa = 101
Property: Refractive index (Na D-line) (Liquid); method: Standard Abbe refractometry
Temperature, K	Mole fraction of methanol	Refractive index (Na D-line)	uncertainty
298.15	0	1.4422	0.0006
298.15	0.0999	1.4379	0.0006
298.15	0.2012	1.4312	0.0006
298.15	0.3015	1.4217	0.0006
298.15	0.3991	1.4115	0.0006
298.15	0.502	1.4018	0.0006
298.15	0.5998	1.3903	0.0006
298.15	0.7012	1.3789	0.0006
298.15	0.7998	1.3649	0.0006
298.15	0.9001	1.3485	0.0006
298.15	1	1.3271	0.0006
303.15	0	1.4397	0.0006
303.15	0.0999	1.4327	0.0006
303.15	0.2012	1.4257	0.0006
303.15	0.3015	1.4171	0.0006
303.15	0.3991	1.4084	0.0006
303.15	0.502	1.3979	0.0006
303.15	0.5998	1.3881	0.0006
303.15	0.7012	1.377	0.0006
303.15	0.7998	1.3633	0.0006
303.15	0.9001	1.3467	0.0006
303.15	1	1.3245	0.0006
308.15	0	1.4356	0.0006
308.15	0.0999	1.4289	0.0006
308.15	0.2012	1.4212	0.0006
308.15	0.3015	1.4116	0.0006
308.15	0.3991	1.4031	0.0006
308.15	0.502	1.3953	0.0006
308.15	0.5998	1.3856	0.0006
308.15	0.7012	1.3729	0.0006
308.15	0.7998	1.3592	0.0006
308.15	0.9001	1.3443	0.0006
308.15	1	1.323	0.0006
313.15	0	1.4338	0.0006
313.15	0.0999	1.427	0.0006
313.15	0.2012	1.4211	0.0006
313.15	0.3015	1.4127	0.0006
313.15	0.3991	1.4049	0.0006
313.15	0.502	1.3943	0.0006
313.15	0.5998	1.3839	0.0006
313.15	0.7012	1.3722	0.0006
313.15	0.7998	1.3592	0.0006
313.15	0.9001	1.3461	0.0006
313.15	1	1.3208	0.0006
318.15	0	1.4297	0.0006
318.15	0.0999	1.4201	0.0006
318.15	0.2012	1.4174	0.0006
318.15	0.3015	1.4093	0.0006
318.15	0.3991	1.4023	0.0006
318.15	0.502	1.3927	0.0006
318.15	0.5998	1.3817	0.0006
318.15	0.7012	1.3719	0.0006
318.15	0.7998	1.3576	0.0006
318.15	0.9001	1.3406	0.0006
318.15	1	1.3184	0.0006

System: acetone + trichloromethane; phases: Liquid
Fixed: Pressure, kPa = 101
Property: Mass density, kg/m3 (Liquid); method: Vibrating tube method
Temperature, K	Mole fraction of acetone	Mass density, kg/m3	uncertainty
298.15	0	1478.75	0.37
298.15	0.0997	1419.64	0.34
298.15	0.1996	1357.58	0.3
298.15	0.2993	1293.35	0.26
298.15	0.3999	1226.35	0.22
298.15	0.4979	1159.27	0.2
298.15	0.599	1088.31	0.18
298.15	0.6993	1016.22	0.17
298.15	0.8008	941.27	0.17
298.15	0.9006	864.78	0.19
298.15	1	784.41	0.12
303.15	0	1469.16	0.37
303.15	0.0997	1409.35	0.34
303.15	0.1996	1347.6	0.29
303.15	0.2993	1284.12	0.25
303.15	0.3999	1217.87	0.22
303.15	0.4979	1151.19	0.19
303.15	0.599	1080.44	0.17
303.15	0.6993	1008.68	0.16
303.15	0.8008	934.43	0.17
303.15	0.9006	858.83	0.19
303.15	1	778.66	0.12
308.15	0	1460.01	0.36
308.15	0.0997	1402.33	0.33
308.15	0.1996	1341.01	0.29
308.15	0.2993	1276.96	0.25
308.15	0.3999	1210.11	0.22
308.15	0.4979	1143.34	0.19
308.15	0.599	1073.05	0.17
308.15	0.6993	1001.9	0.16
308.15	0.8008	927.99	0.17
308.15	0.9006	852.47	0.19
308.15	1	773.08	0.13
313.15	0	1450.39	0.36
313.15	0.0997	1393.77	0.33
313.15	0.1996	1332.05	0.29
313.15	0.2993	1268.04	0.25
313.15	0.3999	1201.58	0.21
313.15	0.4979	1135.08	0.19
313.15	0.599	1064.85	0.17
313.15	0.6993	993.86	0.16
313.15	0.8008	920.68	0.17
313.15	0.9006	846.27	0.19
313.15	1	766.95	0.13
318.15	0	1440.03	0.35
318.15	0.0997	1383.86	0.32
318.15	0.1996	1322.43	0.28
318.15	0.2993	1258.8	0.24
318.15	0.3999	1192.83	0.21
318.15	0.4979	1126.82	0.19
318.15	0.599	1057.03	0.17
318.15	0.6993	986.42	0.16
318.15	0.8008	913.61	0.17
318.15	0.9006	839.75	0.19
318.15	1	761.26	0.13

System: acetone + trichloromethane; phases: Liquid
Fixed: Pressure, kPa = 101
Property: Viscosity, Pa*s (Liquid); method: Capillary tube (Ostwald; Ubbelohde) method
Temperature, K	Mole fraction of acetone	Viscosity, Pa*s	uncertainty
298.15	0	0.0005916	4.4e-06
298.15	0.0997	0.000589	4.3e-06
298.15	0.1996	0.0005814	4.2e-06
298.15	0.2993	0.0005684	4.1e-06
298.15	0.3999	0.0005412	3.9e-06
298.15	0.4979	0.0005126	3.7e-06
298.15	0.599	0.0004741	3.4e-06
298.15	0.6993	0.000435	3.2e-06
298.15	0.8008	0.0003975	3e-06
298.15	0.9006	0.0003443	2.7e-06
298.15	1	0.0003034	2.4e-06
303.15	0	0.000558	4.1e-06
303.15	0.0997	0.0005571	4.1e-06
303.15	0.1996	0.0005571	4.1e-06
303.15	0.2993	0.0005373	3.9e-06
303.15	0.3999	0.0005156	3.7e-06
303.15	0.4979	0.0004913	3.6e-06
303.15	0.599	0.0004551	3.3e-06
303.15	0.6993	0.0004188	3.1e-06
303.15	0.8008	0.0003802	2.9e-06
303.15	0.9006	0.000338	2.6e-06
303.15	1	0.0002966	2.4e-06
308.15	0	0.0005333	4e-06
308.15	0.0997	0.0005329	4e-06
308.15	0.1996	0.0005303	3.9e-06
308.15	0.2993	0.0005185	3.8e-06
308.15	0.3999	0.0004968	3.6e-06
308.15	0.4979	0.0004693	3.4e-06
308.15	0.599	0.0004396	3.3e-06
308.15	0.6993	0.0004028	3e-06
308.15	0.8008	0.0003593	2.8e-06
308.15	0.9006	0.0003254	2.6e-06
308.15	1	0.0002831	2.4e-06
313.15	0	0.0005072	3.8e-06
313.15	0.0997	0.0005067	3.8e-06
313.15	0.1996	0.0004994	3.7e-06
313.15	0.2993	0.0004876	3.6e-06
313.15	0.3999	0.000468	3.5e-06
313.15	0.4979	0.0004429	3.3e-06
313.15	0.599	0.0004149	3.1e-06
313.15	0.6993	0.000383	2.9e-06
313.15	0.8008	0.0003453	2.7e-06
313.15	0.9006	0.0003056	2.5e-06
313.15	1	0.0002689	2.3e-06
318.15	0	0.0004849	3.7e-06
318.15	0.0997	0.0004834	3.7e-06
318.15	0.1996	0.0004798	3.6e-06
318.15	0.2993	0.0004684	3.5e-06
318.15	0.3999	0.0004483	3.4e-06
318.15	0.4979	0.0004207	3.2e-06
318.15	0.599	0.000389	3e-06
318.15	0.6993	0.0003583	2.8e-06
318.15	0.8008	0.0003261	2.6e-06
318.15	0.9006	0.0002862	2.4e-06
318.15	1	0.0002511	2.2e-06

System: acetone + trichloromethane; phases: Liquid
Fixed: Pressure, kPa = 101
Property: Refractive index (Na D-line) (Liquid); method: Standard Abbe refractometry
Temperature, K	Mole fraction of acetone	Refractive index (Na D-line)	uncertainty
298.15	0	1.4422	0.0006
298.15	0.0997	1.4342	0.0006
298.15	0.1996	1.4262	0.0006
298.15	0.2993	1.4192	0.0006
298.15	0.3999	1.4112	0.0006
298.15	0.4979	1.4029	0.0006
298.15	0.599	1.3941	0.0006
298.15	0.6993	1.3851	0.0006
298.15	0.8008	1.377	0.0006
298.15	0.9006	1.3676	0.0006
298.15	1	1.3558	0.0006
303.15	0	1.4397	0.0006
303.15	0.0997	1.4309	0.0006
303.15	0.1996	1.4252	0.0006
303.15	0.2993	1.418	0.0006
303.15	0.3999	1.4105	0.0006
303.15	0.4979	1.4019	0.0006
303.15	0.599	1.3924	0.0006
303.15	0.6993	1.3841	0.0006
303.15	0.8008	1.3744	0.0006
303.15	0.9006	1.3656	0.0006
303.15	1	1.3534	0.0006
308.15	0	1.4356	0.0006
308.15	0.0997	1.4281	0.0006
308.15	0.1996	1.4215	0.0006
308.15	0.2993	1.4141	0.0006
308.15	0.3999	1.4055	0.0006
308.15	0.4979	1.3968	0.0006
308.15	0.599	1.3875	0.0006
308.15	0.6993	1.3791	0.0006
308.15	0.8008	1.3702	0.0006
308.15	0.9006	1.3601	0.0006
308.15	1	1.3509	0.0006
313.15	0	1.4338	0.0006
313.15	0.0997	1.4276	0.0006
313.15	0.1996	1.4202	0.0006
313.15	0.2993	1.4128	0.0006
313.15	0.3999	1.4048	0.0006
313.15	0.4979	1.3965	0.0006
313.15	0.599	1.3873	0.0006
313.15	0.6993	1.3787	0.0006
313.15	0.8008	1.3682	0.0006
313.15	0.9006	1.3599	0.0006
313.15	1	1.349	0.0006
318.15	0	1.4297	0.0006
318.15	0.0997	1.4244	0.0006
318.15	0.1996	1.4175	0.0006
318.15	0.2993	1.4094	0.0006
318.15	0.3999	1.4008	0.0006
318.15	0.4979	1.3929	0.0006
318.15	0.599	1.3839	0.0006
318.15	0.6993	1.3754	0.0006
318.15	0.8008	1.365	0.0006
318.15	0.9006	1.3548	0.0006
318.15	1	1.3449	0.0006

System: trichloromethane + acetone + methanol; phases: Liquid
Fixed: Pressure, kPa = 101
Property: Mass density, kg/m3 (Liquid); method: Vibrating tube method
Temperature, K	Mole fraction of trichloromethane	Mole fraction of acetone	Mass density, kg/m3	uncertainty
298.15	0.0999	0.0997	909.93	0.21
298.15	0.0992	0.199	904.17	0.21
298.15	0.1007	0.3011	899.31	0.2
298.15	0.0999	0.3986	892.02	0.19
298.15	0.1001	0.4993	886.05	0.18
298.15	0.1	0.6005	880.59	0.18
298.15	0.1003	0.6992	875.73	0.18
298.15	0.1	0.8013	870.21	0.18
298.15	0.2	0.0998	1007.81	0.19
298.15	0.1957	0.1961	996.57	0.18
298.15	0.1998	0.2994	986.24	0.18
298.15	0.2002	0.4024	975.27	0.17
298.15	0.2	0.5001	965.11	0.17
298.15	0.1998	0.6011	955.81	0.16
298.15	0.1994	0.6997	947.78	0.17
298.15	0.3011	0.1007	1093.18	0.18
298.15	0.2992	0.1983	1076.36	0.18
298.15	0.3013	0.3017	1062.67	0.17
298.15	0.3009	0.4025	1047.89	0.16
298.15	0.3004	0.5081	1034.26	0.16
298.15	0.3017	0.6005	1024.22	0.16
298.15	0.3999	0.1016	1164.39	0.19
298.15	0.3999	0.2042	1145.75	0.18
298.15	0.4017	0.3039	1129.67	0.17
298.15	0.3917	0.3932	1108.57	0.17
298.15	0.3998	0.5015	1097.33	0.17
298.15	0.4985	0.1004	1229.53	0.2
298.15	0.4996	0.2017	1207.56	0.2
298.15	0.5007	0.301	1189.16	0.19
298.15	0.5001	0.3972	1171.46	0.19
298.15	0.5999	0.1023	1284.61	0.23
298.15	0.5973	0.1981	1261.93	0.22
298.15	0.5972	0.3083	1237.6	0.21
298.15	0.6965	0.0995	1332.53	0.26
298.15	0.6934	0.2042	1306.98	0.25
298.15	0.7953	0.1038	1376.31	0.29
298.15	0.0999	0.0997	909.93	0.21
303.15	0.0999	0.0997	903.2	0.21
303.15	0.0992	0.199	896.35	0.21
303.15	0.1007	0.3011	892.38	0.2
303.15	0.0999	0.3986	885	0.19
303.15	0.1001	0.4993	878.96	0.18
303.15	0.1	0.6005	873.44	0.18
303.15	0.1003	0.6992	867.53	0.18
303.15	0.1	0.8013	862.01	0.18
303.15	0.2	0.0998	1001.49	0.19
303.15	0.1957	0.1961	990.16	0.19
303.15	0.1998	0.2994	979.76	0.18
303.15	0.2002	0.4024	968.73	0.17
303.15	0.2	0.5001	958.53	0.17
303.15	0.1998	0.6011	949.21	0.16
303.15	0.1994	0.6997	940.18	0.17
303.15	0.3011	0.1007	1086.25	0.18
303.15	0.2992	0.1983	1069.41	0.17
303.15	0.3013	0.3017	1055.68	0.17
303.15	0.3009	0.4025	1040.9	0.16
303.15	0.3004	0.5081	1027.21	0.16
303.15	0.3017	0.6005	1017.22	0.16
303.15	0.3999	0.1016	1156.92	0.19
303.15	0.3999	0.2042	1138.31	0.18
303.15	0.4017	0.3039	1122.24	0.17
303.15	0.3917	0.3932	1099.2	0.17
303.15	0.3998	0.5015	1089.93	0.16
303.15	0.4985	0.1004	1221.58	0.2
303.15	0.4996	0.2017	1199.68	0.19
303.15	0.5007	0.301	1182.33	0.19
303.15	0.5001	0.3972	1163.69	0.19
303.15	0.5999	0.1023	1275.83	0.23
303.15	0.5973	0.1981	1252.56	0.22
303.15	0.5972	0.3083	1229.47	0.21
303.15	0.6965	0.0995	1325.01	0.25
303.15	0.6934	0.2042	1298.41	0.25
303.15	0.7953	0.1038	1367.53	0.29
303.15	0.0999	0.0997	903.2	0.21
308.15	0.0999	0.0997	898.83	0.21
308.15	0.0992	0.199	892.83	0.21
308.15	0.1007	0.3011	887.73	0.2
308.15	0.0999	0.3986	880.26	0.19
308.15	0.1001	0.4993	874.15	0.18
308.15	0.1	0.6005	868.56	0.18
308.15	0.1003	0.6992	862.6	0.17
308.15	0.1	0.8013	854.05	0.17
308.15	0.2	0.0998	995.47	0.19
308.15	0.1957	0.1961	984.05	0.18
308.15	0.1998	0.2994	973.58	0.18
308.15	0.2002	0.4024	962.49	0.17
308.15	0.2	0.5001	952.24	0.17
308.15	0.1998	0.6011	942.82	0.16
308.15	0.1994	0.6997	931.85	0.17
308.15	0.3011	0.1007	1081.92	0.18
308.15	0.2992	0.1983	1062.79	0.17
308.15	0.3013	0.3017	1049	0.17
308.15	0.3009	0.4025	1034.22	0.16
308.15	0.3004	0.5081	1020.58	0.15
308.15	0.3017	0.6005	1010.53	0.15
308.15	0.3999	0.1016	1149.81	0.18
308.15	0.3999	0.2042	1131.21	0.18
308.15	0.4017	0.3039	1115.15	0.17
308.15	0.3917	0.3932	1092.17	0.16
308.15	0.3998	0.5015	1082.88	0.16
308.15	0.4985	0.1004	1214	0.2
308.15	0.4996	0.2017	1192.16	0.19
308.15	0.5007	0.301	1173.86	0.18
308.15	0.5001	0.3972	1155.28	0.18
308.15	0.5999	0.1023	1268.26	0.22
308.15	0.5973	0.1981	1245.76	0.21
308.15	0.5972	0.3083	1222.3	0.21
308.15	0.6965	0.0995	1316.69	0.25
308.15	0.6934	0.2042	1290.25	0.24
308.15	0.7953	0.1038	1360.34	0.29
308.15	0.0999	0.0997	898.83	0.21
313.15	0.0999	0.0997	893.25	0.21
313.15	0.0992	0.199	887.12	0.21
313.15	0.1007	0.3011	881.9	0.2
313.15	0.0999	0.3986	874.33	0.19
313.15	0.1001	0.4993	868.15	0.18
313.15	0.1	0.6005	862.5	0.18
313.15	0.1003	0.6992	856.49	0.17
313.15	0.1	0.8013	848.93	0.18
313.15	0.2	0.0998	989.25	0.19
313.15	0.1957	0.1961	977.73	0.19
313.15	0.1998	0.2994	967.19	0.18
313.15	0.2002	0.4024	956.04	0.18
313.15	0.2	0.5001	945.76	0.17
313.15	0.1998	0.6011	937.28	0.16
313.15	0.1994	0.6997	925.34	0.17
313.15	0.3011	0.1007	1072.82	0.18
313.15	0.2992	0.1983	1055.94	0.17
313.15	0.3013	0.3017	1044.12	0.17
313.15	0.3009	0.4025	1029.33	0.16
313.15	0.3004	0.5081	1013.68	0.15
313.15	0.3017	0.6005	1003.64	0.15
313.15	0.3999	0.1016	1142.47	0.18
313.15	0.3999	0.2042	1125.88	0.18
313.15	0.4017	0.3039	1107.83	0.17
313.15	0.3917	0.3932	1086.93	0.16
313.15	0.3998	0.5015	1075.63	0.16
313.15	0.4985	0.1004	1206.17	0.2
313.15	0.4996	0.2017	1184.4	0.19
313.15	0.5007	0.301	1167.13	0.18
313.15	0.5001	0.3972	1148.64	0.18
313.15	0.5999	0.1023	1260.03	0.22
313.15	0.5973	0.1981	1236.1	0.21
313.15	0.5972	0.3083	1214.69	0.2
313.15	0.6965	0.0995	1308.11	0.25
313.15	0.6934	0.2042	1281.82	0.24
313.15	0.7953	0.1038	1351.59	0.28
313.15	0.0999	0.0997	893.25	0.21
318.15	0.0999	0.0997	886.65	0.21
318.15	0.0992	0.199	877.4	0.21
318.15	0.1007	0.3011	875.06	0.2
318.15	0.0999	0.3986	868.4	0.19
318.15	0.1001	0.4993	861.15	0.18
318.15	0.1	0.6005	855.44	0.18
318.15	0.1003	0.6992	848.39	0.18
318.15	0.1	0.8013	841.82	0.18
318.15	0.2	0.0998	982.9	0.19
318.15	0.1957	0.1961	968.29	0.19
318.15	0.1998	0.2994	959.7	0.18
318.15	0.2002	0.4024	947.52	0.17
318.15	0.2	0.5001	938.19	0.17
318.15	0.1998	0.6011	930.55	0.17
318.15	0.1994	0.6997	918.75	0.17
318.15	0.3011	0.1007	1062.77	0.18
318.15	0.2992	0.1983	1047.88	0.17
318.15	0.3013	0.3017	1034.08	0.17
318.15	0.3009	0.4025	1019.26	0.16
318.15	0.3004	0.5081	1005.61	0.15
318.15	0.3017	0.6005	995.6	0.15
318.15	0.3999	0.1016	1133.81	0.18
318.15	0.3999	0.2042	1115.2	0.18
318.15	0.4017	0.3039	1099.22	0.17
318.15	0.3917	0.3932	1076.42	0.16
318.15	0.3998	0.5015	1067.13	0.16
318.15	0.4985	0.1004	1196.96	0.2
318.15	0.4996	0.2017	1175.27	0.19
318.15	0.5007	0.301	1158.07	0.18
318.15	0.5001	0.3972	1139.6	0.18
318.15	0.5999	0.1023	1250.35	0.22
318.15	0.5973	0.1981	1229.03	0.21
318.15	0.5972	0.3083	1204.29	0.2
318.15	0.6965	0.0995	1297.64	0.24
318.15	0.6934	0.2042	1271.95	0.23
318.15	0.7953	0.1038	1341.77	0.28
318.15	0.0999	0.0997	886.65	0.21

System: trichloromethane + acetone + methanol; phases: Liquid
Fixed: Pressure, kPa = 101
Property: Viscosity, Pa*s (Liquid); method: Capillary tube (Ostwald; Ubbelohde) method
Temperature, K	Mole fraction of trichloromethane	Mole fraction of acetone	Viscosity, Pa*s	uncertainty
298.15	0.0999	0.0997	0.0005371	3.7e-06
298.15	0.0992	0.199	0.000493	3.5e-06
298.15	0.1007	0.3011	0.0004505	3.2e-06
298.15	0.0999	0.3986	0.0004181	3.1e-06
298.15	0.1001	0.4993	0.0003962	2.9e-06
298.15	0.1	0.6005	0.0003786	2.9e-06
298.15	0.1003	0.6992	0.0003683	2.8e-06
298.15	0.1	0.8013	0.0003605	2.8e-06
298.15	0.2	0.0998	0.000573	3.9e-06
298.15	0.1957	0.1961	0.000517	3.6e-06
298.15	0.1998	0.2994	0.0004802	3.4e-06
298.15	0.2002	0.4024	0.000448	3.2e-06
298.15	0.2	0.5001	0.000426	3.1e-06
298.15	0.1998	0.6011	0.0004106	3e-06
298.15	0.1994	0.6997	0.0003987	3e-06
298.15	0.3011	0.1007	0.0005923	4.1e-06
298.15	0.2992	0.1983	0.0005451	3.8e-06
298.15	0.3013	0.3017	0.0005067	3.6e-06
298.15	0.3009	0.4025	0.0004752	3.4e-06
298.15	0.3004	0.5081	0.0004529	3.3e-06
298.15	0.3017	0.6005	0.0004404	3.2e-06
298.15	0.3999	0.1016	0.0005836	4e-06
298.15	0.3999	0.2042	0.0005587	3.9e-06
298.15	0.4017	0.3039	0.0005292	3.7e-06
298.15	0.3917	0.3932	0.0004982	3.6e-06
298.15	0.3998	0.5015	0.0004812	3.5e-06
298.15	0.4985	0.1004	0.0005942	4.1e-06
298.15	0.4996	0.2017	0.0005612	4e-06
298.15	0.5007	0.301	0.0005376	3.8e-06
298.15	0.5001	0.3972	0.0005192	3.7e-06
298.15	0.5999	0.1023	0.0005975	4.2e-06
298.15	0.5973	0.1981	0.0005636	4e-06
298.15	0.5972	0.3083	0.0005468	3.9e-06
298.15	0.6965	0.0995	0.0005954	4.2e-06
298.15	0.6934	0.2042	0.0005631	4e-06
298.15	0.7953	0.1038	0.0005842	4.2e-06
298.15	0.0999	0.0997	0.0005371	3.7e-06
303.15	0.0999	0.0997	0.0005058	3.5e-06
303.15	0.0992	0.199	0.0004625	3.3e-06
303.15	0.1007	0.3011	0.0004268	3.1e-06
303.15	0.0999	0.3986	0.0003971	3e-06
303.15	0.1001	0.4993	0.0003779	2.8e-06
303.15	0.1	0.6005	0.0003635	2.8e-06
303.15	0.1003	0.6992	0.0003514	2.7e-06
303.15	0.1	0.8013	0.0003437	2.7e-06
303.15	0.2	0.0998	0.0005382	3.7e-06
303.15	0.1957	0.1961	0.0004991	3.5e-06
303.15	0.1998	0.2994	0.0004541	3.3e-06
303.15	0.2002	0.4024	0.0004288	3.1e-06
303.15	0.2	0.5001	0.0004091	3e-06
303.15	0.1998	0.6011	0.0003921	2.9e-06
303.15	0.1994	0.6997	0.0003818	2.9e-06
303.15	0.3011	0.1007	0.0005567	3.9e-06
303.15	0.2992	0.1983	0.0005148	3.6e-06
303.15	0.3013	0.3017	0.00048	3.4e-06
303.15	0.3009	0.4025	0.0004515	3.3e-06
303.15	0.3004	0.5081	0.0004326	3.2e-06
303.15	0.3017	0.6005	0.0004201	3.1e-06
303.15	0.3999	0.1016	0.0005607	3.9e-06
303.15	0.3999	0.2042	0.0005266	3.7e-06
303.15	0.4017	0.3039	0.0004968	3.6e-06
303.15	0.3917	0.3932	0.0004717	3.4e-06
303.15	0.3998	0.5015	0.0004582	3.4e-06
303.15	0.4985	0.1004	0.0005593	3.9e-06
303.15	0.4996	0.2017	0.0005301	3.8e-06
303.15	0.5007	0.301	0.0005099	3.7e-06
303.15	0.5001	0.3972	0.0004939	3.6e-06
303.15	0.5999	0.1023	0.0005552	3.9e-06
303.15	0.5973	0.1981	0.0005352	3.8e-06
303.15	0.5972	0.3083	0.0005215	3.8e-06
303.15	0.6965	0.0995	0.0005528	4e-06
303.15	0.6934	0.2042	0.000541	3.9e-06
303.15	0.7953	0.1038	0.0005515	4e-06
303.15	0.0999	0.0997	0.0005058	3.5e-06
308.15	0.0999	0.0997	0.0004722	3.4e-06
308.15	0.0992	0.199	0.0004341	3.1e-06
308.15	0.1007	0.3011	0.000406	3e-06
308.15	0.0999	0.3986	0.000375	2.8e-06
308.15	0.1001	0.4993	0.0003577	2.7e-06
308.15	0.1	0.6005	0.0003441	2.7e-06
308.15	0.1003	0.6992	0.0003354	2.6e-06
308.15	0.1	0.8013	0.0003266	2.6e-06
308.15	0.2	0.0998	0.0005024	3.5e-06
308.15	0.1957	0.1961	0.0004648	3.3e-06
308.15	0.1998	0.2994	0.0004275	3.1e-06
308.15	0.2002	0.4024	0.0004018	3e-06
308.15	0.2	0.5001	0.0003846	2.9e-06
308.15	0.1998	0.6011	0.0003701	2.8e-06
308.15	0.1994	0.6997	0.0003615	2.8e-06
308.15	0.3011	0.1007	0.0005188	3.6e-06
308.15	0.2992	0.1983	0.000482	3.4e-06
308.15	0.3013	0.3017	0.0004517	3.3e-06
308.15	0.3009	0.4025	0.0004274	3.2e-06
308.15	0.3004	0.5081	0.0004093	3.1e-06
308.15	0.3017	0.6005	0.0003985	3e-06
308.15	0.3999	0.1016	0.0005244	3.7e-06
308.15	0.3999	0.2042	0.0004943	3.5e-06
308.15	0.4017	0.3039	0.0004701	3.4e-06
308.15	0.3917	0.3932	0.0004462	3.3e-06
308.15	0.3998	0.5015	0.0004332	3.2e-06
308.15	0.4985	0.1004	0.0005252	3.7e-06
308.15	0.4996	0.2017	0.000511	3.7e-06
308.15	0.5007	0.301	0.0004746	3.5e-06
308.15	0.5001	0.3972	0.0004661	3.4e-06
308.15	0.5999	0.1023	0.0005386	3.9e-06
308.15	0.5973	0.1981	0.0005067	3.7e-06
308.15	0.5972	0.3083	0.000492	3.6e-06
308.15	0.6965	0.0995	0.0005232	3.8e-06
308.15	0.6934	0.2042	0.0005139	3.8e-06
308.15	0.7953	0.1038	0.000524	3.8e-06
308.15	0.0999	0.0997	0.0004722	3.4e-06
313.15	0.0999	0.0997	0.0004416	3.2e-06
313.15	0.0992	0.199	0.0004056	3e-06
313.15	0.1007	0.3011	0.0003814	2.9e-06
313.15	0.0999	0.3986	0.0003537	2.7e-06
313.15	0.1001	0.4993	0.0003372	2.6e-06
313.15	0.1	0.6005	0.0003257	2.6e-06
313.15	0.1003	0.6992	0.0003184	2.5e-06
313.15	0.1	0.8013	0.0003127	2.5e-06
313.15	0.2	0.0998	0.0004695	3.4e-06
313.15	0.1957	0.1961	0.0004295	3.1e-06
313.15	0.1998	0.2994	0.0004018	3e-06
313.15	0.2002	0.4024	0.0003808	2.9e-06
313.15	0.2	0.5001	0.0003656	2.8e-06
313.15	0.1998	0.6011	0.0003542	2.7e-06
313.15	0.1994	0.6997	0.0003445	2.7e-06
313.15	0.3011	0.1007	0.0004841	3.5e-06
313.15	0.2992	0.1983	0.0004513	3.3e-06
313.15	0.3013	0.3017	0.000427	3.1e-06
313.15	0.3009	0.4025	0.0004063	3e-06
313.15	0.3004	0.5081	0.0003882	2.9e-06
313.15	0.3017	0.6005	0.0003805	2.9e-06
313.15	0.3999	0.1016	0.0004896	3.5e-06
313.15	0.3999	0.2042	0.0004637	3.4e-06
313.15	0.4017	0.3039	0.0004426	3.3e-06
313.15	0.3917	0.3932	0.0004234	3.1e-06
313.15	0.3998	0.5015	0.0004109	3.1e-06
313.15	0.4985	0.1004	0.0004922	3.6e-06
313.15	0.4996	0.2017	0.0004724	3.4e-06
313.15	0.5007	0.301	0.0004557	3.4e-06
313.15	0.5001	0.3972	0.0004419	3.3e-06
313.15	0.5999	0.1023	0.0004948	3.6e-06
313.15	0.5973	0.1981	0.0004768	3.5e-06
313.15	0.5972	0.3083	0.0004663	3.4e-06
313.15	0.6965	0.0995	0.0004932	3.6e-06
313.15	0.6934	0.2042	0.0004819	3.6e-06
313.15	0.7953	0.1038	0.0004974	3.7e-06
313.15	0.0999	0.0997	0.0004416	3.2e-06
318.15	0.0999	0.0997	0.0004133	3e-06
318.15	0.0992	0.199	0.0003818	2.9e-06
318.15	0.1007	0.3011	0.0003567	2.7e-06
318.15	0.0999	0.3986	0.0003357	2.6e-06
318.15	0.1001	0.4993	0.0003215	2.5e-06
318.15	0.1	0.6005	0.0003116	2.5e-06
318.15	0.1003	0.6992	0.0003037	2.4e-06
318.15	0.1	0.8013	0.000299	2.4e-06
318.15	0.2	0.0998	0.0004397	3.2e-06
318.15	0.1957	0.1961	0.0004037	3e-06
318.15	0.1998	0.2994	0.0003808	2.9e-06
318.15	0.2002	0.4024	0.0003607	2.8e-06
318.15	0.2	0.5001	0.0003489	2.7e-06
318.15	0.1998	0.6011	0.0003372	2.6e-06
318.15	0.1994	0.6997	0.0003287	2.6e-06
318.15	0.3011	0.1007	0.0004528	3.3e-06
318.15	0.2992	0.1983	0.0004259	3.1e-06
318.15	0.3013	0.3017	0.0004038	3e-06
318.15	0.3009	0.4025	0.000383	2.9e-06
318.15	0.3004	0.5081	0.0003693	2.8e-06
318.15	0.3017	0.6005	0.0003605	2.8e-06
318.15	0.3999	0.1016	0.0004622	3.4e-06
318.15	0.3999	0.2042	0.0004376	3.2e-06
318.15	0.4017	0.3039	0.0004185	3.1e-06
318.15	0.3917	0.3932	0.0004013	3e-06
318.15	0.3998	0.5015	0.000391	3e-06
318.15	0.4985	0.1004	0.0004655	3.4e-06
318.15	0.4996	0.2017	0.000448	3.3e-06
318.15	0.5007	0.301	0.0004319	3.2e-06
318.15	0.5001	0.3972	0.0004206	3.2e-06
318.15	0.5999	0.1023	0.0004661	3.4e-06
318.15	0.5973	0.1981	0.000454	3.4e-06
318.15	0.5972	0.3083	0.0004432	3.3e-06
318.15	0.6965	0.0995	0.000468	3.5e-06
318.15	0.6934	0.2042	0.0004572	3.4e-06
318.15	0.7953	0.1038	0.0004725	3.5e-06
318.15	0.0999	0.0997	0.0004133	3e-06

System: trichloromethane + acetone + methanol; phases: Liquid
Fixed: Pressure, kPa = 101
Property: Refractive index (Na D-line) (Liquid); method: Standard Abbe refractometry
Temperature, K	Mole fraction of trichloromethane	Mole fraction of acetone	Refractive index (Na D-line)	uncertainty
298.15	0.0999	0.0997	1.3522	0.0006
298.15	0.0992	0.199	1.356	0.0006
298.15	0.1007	0.3011	1.3599	0.0006
298.15	0.0999	0.3986	1.3622	0.0006
298.15	0.1001	0.4993	1.3632	0.0006
298.15	0.1	0.6005	1.3649	0.0006
298.15	0.1003	0.6992	1.3652	0.0006
298.15	0.1	0.8013	1.3661	0.0006
298.15	0.2	0.0998	1.3666	0.0006
298.15	0.1957	0.1961	1.3692	0.0006
298.15	0.1998	0.2994	1.3718	0.0006
298.15	0.2002	0.4024	1.3722	0.0006
298.15	0.2	0.5001	1.374	0.0006
298.15	0.1998	0.6011	1.3743	0.0006
298.15	0.1994	0.6997	1.3771	0.0006
298.15	0.3011	0.1007	1.3798	0.0006
298.15	0.2992	0.1983	1.3815	0.0006
298.15	0.3013	0.3017	1.3828	0.0006
298.15	0.3009	0.4025	1.3844	0.0006
298.15	0.3004	0.5081	1.3858	0.0006
298.15	0.3017	0.6005	1.3869	0.0006
298.15	0.3999	0.1016	1.3945	0.0006
298.15	0.3999	0.2042	1.3953	0.0006
298.15	0.4017	0.3039	1.3961	0.0006
298.15	0.3917	0.3932	1.3968	0.0006
298.15	0.3998	0.5015	1.3975	0.0006
298.15	0.4985	0.1004	1.4006	0.0006
298.15	0.4996	0.2017	1.4021	0.0006
298.15	0.5007	0.301	1.4034	0.0006
298.15	0.5001	0.3972	1.4056	0.0006
298.15	0.5999	0.1023	1.4148	0.0006
298.15	0.5973	0.1981	1.4153	0.0006
298.15	0.5972	0.3083	1.4164	0.0006
298.15	0.6965	0.0995	1.4222	0.0006
298.15	0.6934	0.2042	1.4234	0.0006
298.15	0.7953	0.1038	1.4292	0.0006
298.15	0.0999	0.0997	1.3522	0.0006
303.15	0.0999	0.0997	1.3508	0.0006
303.15	0.0992	0.199	1.3549	0.0006
303.15	0.1007	0.3011	1.3581	0.0006
303.15	0.0999	0.3986	1.36	0.0006
303.15	0.1001	0.4993	1.3611	0.0006
303.15	0.1	0.6005	1.362	0.0006
303.15	0.1003	0.6992	1.3629	0.0006
303.15	0.1	0.8013	1.3636	0.0006
303.15	0.2	0.0998	1.3637	0.0006
303.15	0.1957	0.1961	1.3657	0.0006
303.15	0.1998	0.2994	1.3675	0.0006
303.15	0.2002	0.4024	1.3714	0.0006
303.15	0.2	0.5001	1.3726	0.0006
303.15	0.1998	0.6011	1.3741	0.0006
303.15	0.1994	0.6997	1.3744	0.0006
303.15	0.3011	0.1007	1.3772	0.0006
303.15	0.2992	0.1983	1.3806	0.0006
303.15	0.3013	0.3017	1.3823	0.0006
303.15	0.3009	0.4025	1.3839	0.0006
303.15	0.3004	0.5081	1.3848	0.0006
303.15	0.3017	0.6005	1.3853	0.0006
303.15	0.3999	0.1016	1.3923	0.0006
303.15	0.3999	0.2042	1.3934	0.0006
303.15	0.4017	0.3039	1.3944	0.0006
303.15	0.3917	0.3932	1.3949	0.0006
303.15	0.3998	0.5015	1.3953	0.0006
303.15	0.4985	0.1004	1.4024	0.0006
303.15	0.4996	0.2017	1.4034	0.0006
303.15	0.5007	0.301	1.4042	0.0006
303.15	0.5001	0.3972	1.4049	0.0006
303.15	0.5999	0.1023	1.4125	0.0006
303.15	0.5973	0.1981	1.4135	0.0006
303.15	0.5972	0.3083	1.4144	0.0006
303.15	0.6965	0.0995	1.4208	0.0006
303.15	0.6934	0.2042	1.4216	0.0006
303.15	0.7953	0.1038	1.4272	0.0006
303.15	0.0999	0.0997	1.3508	0.0006
308.15	0.0999	0.0997	1.3499	0.0006
308.15	0.0992	0.199	1.3532	0.0006
308.15	0.1007	0.3011	1.3557	0.0006
308.15	0.0999	0.3986	1.3576	0.0006
308.15	0.1001	0.4993	1.3594	0.0006
308.15	0.1	0.6005	1.3612	0.0006
308.15	0.1003	0.6992	1.3616	0.0006
308.15	0.1	0.8013	1.3624	0.0006
308.15	0.2	0.0998	1.3644	0.0006
308.15	0.1957	0.1961	1.3649	0.0006
308.15	0.1998	0.2994	1.3666	0.0006
308.15	0.2002	0.4024	1.3697	0.0006
308.15	0.2	0.5001	1.3704	0.0006
308.15	0.1998	0.6011	1.372	0.0006
308.15	0.1994	0.6997	1.373	0.0006
308.15	0.3011	0.1007	1.3749	0.0006
308.15	0.2992	0.1983	1.3785	0.0006
308.15	0.3013	0.3017	1.379	0.0006
308.15	0.3009	0.4025	1.3819	0.0006
308.15	0.3004	0.5081	1.3826	0.0006
308.15	0.3017	0.6005	1.3838	0.0006
308.15	0.3999	0.1016	1.3918	0.0006
308.15	0.3999	0.2042	1.393	0.0006
308.15	0.4017	0.3039	1.3945	0.0006
308.15	0.3917	0.3932	1.3958	0.0006
308.15	0.3998	0.5015	1.3966	0.0006
308.15	0.4985	0.1004	1.3981	0.0006
308.15	0.4996	0.2017	1.3989	0.0006
308.15	0.5007	0.301	1.4	0.0006
308.15	0.5001	0.3972	1.4009	0.0006
308.15	0.5999	0.1023	1.4091	0.0006
308.15	0.5973	0.1981	1.4098	0.0006
308.15	0.5972	0.3083	1.4111	0.0006
308.15	0.6965	0.0995	1.4174	0.0006
308.15	0.6934	0.2042	1.4183	0.0006
308.15	0.7953	0.1038	1.4244	0.0006
308.15	0.0999	0.0997	1.3499	0.0006
313.15	0.0999	0.0997	1.3489	0.0006
313.15	0.0992	0.199	1.3516	0.0006
313.15	0.1007	0.3011	1.3548	0.0006
313.15	0.0999	0.3986	1.3569	0.0006
313.15	0.1001	0.4993	1.3572	0.0006
313.15	0.1	0.6005	1.3591	0.0006
313.15	0.1003	0.6992	1.36	0.0006
313.15	0.1	0.8013	1.3612	0.0006
313.15	0.2	0.0998	1.3616	0.0006
313.15	0.1957	0.1961	1.3634	0.0006
313.15	0.1998	0.2994	1.3655	0.0006
313.15	0.2002	0.4024	1.3667	0.0006
313.15	0.2	0.5001	1.3682	0.0006
313.15	0.1998	0.6011	1.3689	0.0006
313.15	0.1994	0.6997	1.3701	0.0006
313.15	0.3011	0.1007	1.3741	0.0006
313.15	0.2992	0.1983	1.3745	0.0006
313.15	0.3013	0.3017	1.3756	0.0006
313.15	0.3009	0.4025	1.3779	0.0006
313.15	0.3004	0.5081	1.379	0.0006
313.15	0.3017	0.6005	1.3801	0.0006
313.15	0.3999	0.1016	1.3853	0.0006
313.15	0.3999	0.2042	1.3866	0.0006
313.15	0.4017	0.3039	1.3878	0.0006
313.15	0.3917	0.3932	1.389	0.0006
313.15	0.3998	0.5015	1.3899	0.0006
313.15	0.4985	0.1004	1.3948	0.0006
313.15	0.4996	0.2017	1.3963	0.0006
313.15	0.5007	0.301	1.3979	0.0006
313.15	0.5001	0.3972	1.399	0.0006
313.15	0.5999	0.1023	1.4069	0.0006
313.15	0.5973	0.1981	1.4078	0.0006
313.15	0.5972	0.3083	1.409	0.0006
313.15	0.6965	0.0995	1.4125	0.0006
313.15	0.6934	0.2042	1.4132	0.0006
313.15	0.7953	0.1038	1.422	0.0006
313.15	0.0999	0.0997	1.3489	0.0006
318.15	0.0999	0.0997	1.3458	0.0006
318.15	0.0992	0.199	1.3476	0.0006
318.15	0.1007	0.3011	1.3527	0.0006
318.15	0.0999	0.3986	1.3546	0.0006
318.15	0.1001	0.4993	1.356	0.0006
318.15	0.1	0.6005	1.356	0.0006
318.15	0.1003	0.6992	1.3564	0.0006
318.15	0.1	0.8013	1.3577	0.0006
318.15	0.2	0.0998	1.3586	0.0006
318.15	0.1957	0.1961	1.362	0.0006
318.15	0.1998	0.2994	1.364	0.0006
318.15	0.2002	0.4024	1.3649	0.0006
318.15	0.2	0.5001	1.3655	0.0006
318.15	0.1998	0.6011	1.3671	0.0006
318.15	0.1994	0.6997	1.3699	0.0006
318.15	0.3011	0.1007	1.3707	0.0006
318.15	0.2992	0.1983	1.3716	0.0006
318.15	0.3013	0.3017	1.3738	0.0006
318.15	0.3009	0.4025	1.3778	0.0006
318.15	0.3004	0.5081	1.3796	0.0006
318.15	0.3017	0.6005	1.3809	0.0006
318.15	0.3999	0.1016	1.3821	0.0006
318.15	0.3999	0.2042	1.3835	0.0006
318.15	0.4017	0.3039	1.3846	0.0006
318.15	0.3917	0.3932	1.3858	0.0006
318.15	0.3998	0.5015	1.3866	0.0006
318.15	0.4985	0.1004	1.3913	0.0006
318.15	0.4996	0.2017	1.393	0.0006
318.15	0.5007	0.301	1.3936	0.0006
318.15	0.5001	0.3972	1.3948	0.0006
318.15	0.5999	0.1023	1.4054	0.0006
318.15	0.5973	0.1981	1.4063	0.0006
318.15	0.5972	0.3083	1.4075	0.0006
318.15	0.6965	0.0995	1.4117	0.0006
318.15	0.6934	0.2042	1.4128	0.0006
318.15	0.7953	0.1038	1.4187	0.0006
318.15	0.0999	0.0997	1.3458	0.0006
