Measured thermophysical data. Apparent molar volume, isentropic compressibility and conductivity of di-sodium hydrogen phosphate in water and in aqueous solutions of 1-propanol
Source: Fluid Phase Equilib., 2007, 10.1016/j.fluid.2007.07.066
Compound 1: disodium hydrogen phosphate, HNa2O4P, InChI=1S/2Na.H3O4P/c;;1-5(2,3)4/h;;(H3,1,2,3,4)/q2*+1;/p-2
Compound 2: propan-1-ol, C3H8O, InChI=1S/C3H8O/c1-2-3-4/h4H,2-3H2,1H3
Compound 3: water, H2O, InChI=1S/H2O/h1H2

System: water; phases: Liquid
Fixed: Pressure, kPa = 101
Property: Speed of sound, m/s (Liquid); method: Sing-around technique in a fixed-path interferometer
Temperature, K	Speed of sound, m/s	uncertainty
283.15	1447.59	0.8
288.15	1466.25	0.81
293.15	1482.66	0.82
298.15	1497	0.82
303.15	1509.44	0.83

System: water; phases: Liquid
Fixed: Pressure, kPa = 101
Property: Mass density, kg/m3 (Liquid); method: VIBTUB::UFactor:4
Temperature, K	Mass density, kg/m3	uncertainty
283.15	999.699	0.209
288.15	999.099	0.218
293.15	998.203	0.216
298.15	997.043	0.215
303.15	995.645	0.208

System: disodium hydrogen phosphate + water; phases: Liquid
Fixed: Pressure, kPa = 101
Fixed: Temperature, K = 298.15
Property: Molar conductivity, S*m2/mol (Liquid); method: OTHER::sMethod:dip type immersion conductance cell
Molality, mol/kg of disodium hydrogen phosphate	Molar conductivity, S*m2/mol	uncertainty
0.0049	0.01921	0.000192
0.0104	0.01802	0.00018
0.0154	0.017351	0.000174
0.0211	0.016673	0.000167
0.0413	0.015342	0.000153
0.0712	0.013974	0.00014
0.1066	0.013057	0.000131
0.1437	0.01234	0.000123
0.1927	0.011623	0.000116
0.2475	0.010967	0.00011
0.3697	0.00986	9.9e-05
0.4438	0.009224	9.2e-05
0.5295	0.008621	8.6e-05
0.6125	0.008158	8.2e-05
0.6768	0.007782	7.8e-05
0.7479	0.007445	7.4e-05
0.8346	0.007061	7.1e-05
0.9695	0.006536	6.5e-05

System: disodium hydrogen phosphate + water; phases: Liquid
Fixed: Pressure, kPa = 101
Fixed: Temperature, K = 298.15
Property: Refractive index (Na D-line) (Liquid); method: Standard Abbe refractometry
Molality, mol/kg of disodium hydrogen phosphate	Refractive index (Na D-line)	uncertainty
0.0049	1.3328	0.0004
0.0104	1.3329	0.0004
0.0154	1.3331	0.0004
0.0211	1.3333	0.0004
0.0413	1.334	0.0004
0.0712	1.3348	0.0004
0.1066	1.3357	0.0004
0.1437	1.3367	0.0004
0.1927	1.3379	0.0004
0.2475	1.3392	0.0004
0.3697	1.3421	0.0004
0.4438	1.3438	0.0004
0.5295	1.3458	0.0004
0.6125	1.3476	0.0004
0.6768	1.349	0.0004
0.7479	1.3505	0.0004
0.8346	1.3524	0.0004
0.9695	1.3551	0.0004

System: disodium hydrogen phosphate + water; phases: Liquid
Fixed: Pressure, kPa = 101
Property: Speed of sound, m/s (Liquid); method: Sing-around technique in a fixed-path interferometer
Temperature, K	Molality, mol/kg of disodium hydrogen phosphate	Speed of sound, m/s	uncertainty
283.15	0.007	1449.31	0.8
283.15	0.0104	1450.01	0.8
283.15	0.0141	1450.78	0.81
283.15	0.032	1454.15	0.81
283.15	0.0386	1455.54	0.81
283.15	0.0411	1456.03	0.81
283.15	0.0496	1457.71	0.81
283.15	0.0632	1460.29	0.81
283.15	0.0737	1462.27	0.81
283.15	0.1066	1468.37	0.81
283.15	0.181	1481.83	0.82
283.15	0.2454	1493.18	0.82
283.15	0.2498	1493.84	0.82
283.15	0.2939	1501.63	0.82
283.15	0.3192	1506	0.83
283.15	0.3723	1514.92	0.83
283.15	0.4483	1527.68	0.84
283.15	0.6185	1555.68	0.84
283.15	0.7841	1582.33	0.85
288.15	0.007	1467.58	0.81
288.15	0.0104	1468.27	0.81
288.15	0.0141	1469	0.81
288.15	0.032	1472.3	0.81
288.15	0.0386	1473.6	0.81
288.15	0.0411	1474.06	0.81
288.15	0.0496	1475.69	0.81
288.15	0.0632	1478.18	0.81
288.15	0.0737	1480.11	0.82
288.15	0.1066	1486.02	0.82
288.15	0.181	1499.1	0.82
288.15	0.2454	1510.08	0.83
288.15	0.2498	1510.75	0.83
288.15	0.2939	1518.31	0.83
288.15	0.3192	1522.56	0.83
288.15	0.3723	1531.24	0.84
288.15	0.4483	1543.61	0.84
288.15	0.6185	1570.83	0.85
288.15	0.7841	1596.72	0.86
293.15	0.007	1483.79	0.82
293.15	0.0104	1484.45	0.82
293.15	0.0141	1485.15	0.82
293.15	0.032	1488.36	0.82
293.15	0.0386	1489.63	0.82
293.15	0.0411	1490.07	0.82
293.15	0.0496	1491.67	0.82
293.15	0.0632	1494.08	0.82
293.15	0.0737	1495.93	0.82
293.15	0.1066	1501.68	0.82
293.15	0.181	1514.31	0.83
293.15	0.2454	1525.02	0.83
293.15	0.2498	1525.69	0.83
293.15	0.2939	1533.03	0.84
293.15	0.3192	1537.11	0.84
293.15	0.3723	1545.52	0.84
293.15	0.4483	1557.6	0.85
293.15	0.6185	1584.03	0.85
293.15	0.7841	1609.14	0.86
298.15	0.007	1498.03	0.82
298.15	0.0104	1498.65	0.82
298.15	0.0141	1499.33	0.82
298.15	0.032	1502.47	0.82
298.15	0.0386	1503.67	0.82
298.15	0.0411	1504.09	0.82
298.15	0.0496	1505.64	0.82
298.15	0.0632	1507.97	0.83
298.15	0.0737	1509.77	0.83
298.15	0.1066	1515.33	0.83
298.15	0.181	1527.66	0.83
298.15	0.2454	1538.02	0.84
298.15	0.2498	1538.64	0.84
298.15	0.2939	1545.81	0.84
298.15	0.3192	1549.78	0.84
298.15	0.3723	1557.99	0.84
298.15	0.4483	1569.69	0.85
298.15	0.6185	1595.38	0.86
298.15	0.7841	1619.77	0.86
303.15	0.007	1510.37	0.83
303.15	0.0104	1511	0.83
303.15	0.0141	1511.65	0.83
303.15	0.032	1514.71	0.83
303.15	0.0386	1515.9	0.83
303.15	0.0411	1516.3	0.83
303.15	0.0496	1517.8	0.83
303.15	0.0632	1520.08	0.83
303.15	0.0737	1521.84	0.83
303.15	0.1066	1527.25	0.83
303.15	0.181	1539.18	0.84
303.15	0.2454	1549.25	0.84
303.15	0.2498	1549.9	0.84
303.15	0.2939	1556.85	0.84
303.15	0.3192	1560.73	0.84
303.15	0.3723	1568.7	0.85
303.15	0.4483	1580.06	0.85
303.15	0.6185	1605.08	0.86
303.15	0.7841	1628.76	0.87

System: disodium hydrogen phosphate + water; phases: Liquid
Fixed: Pressure, kPa = 101
Property: Mass density, kg/m3 (Liquid); method: VIBTUB:UFactor:4
Temperature, K	Molality, mol/kg of disodium hydrogen phosphate	Mass density, kg/m3	uncertainty
283.15	0.007	1000.712	0.209
283.15	0.0104	1001.193	0.208
283.15	0.0141	1001.724	0.21
283.15	0.032	1004.226	0.21
283.15	0.0386	1005.137	0.211
283.15	0.0411	1005.499	0.213
283.15	0.0496	1006.698	0.213
283.15	0.0632	1008.573	0.214
283.15	0.0737	1010.028	0.216
283.15	0.1066	1014.532	0.22
283.15	0.181	1024.575	0.232
283.15	0.2454	1033.102	0.242
283.15	0.2498	1033.676	0.243
283.15	0.2939	1039.478	0.251
283.15	0.3192	1042.77	0.254
283.15	0.3723	1049.547	0.263
283.15	0.4483	1059.187	0.276
283.15	0.6185	1080.356	0.306
283.15	0.7841	1100.26	0.335
288.15	0.007	1000.095	0.204
288.15	0.0104	1000.568	0.207
288.15	0.0141	1001.093	0.191
288.15	0.032	1003.557	0.207
288.15	0.0386	1004.456	0.206
288.15	0.0411	1004.814	0.214
288.15	0.0496	1005.997	0.211
288.15	0.0632	1007.845	0.212
288.15	0.0737	1009.283	0.214
288.15	0.1066	1013.727	0.218
288.15	0.181	1023.644	0.23
288.15	0.2454	1032.074	0.25
288.15	0.2498	1032.641	0.231
288.15	0.2939	1038.379	0.249
288.15	0.3192	1041.636	0.252
288.15	0.3723	1048.344	0.261
288.15	0.4483	1057.888	0.274
288.15	0.6185	1078.873	0.303
288.15	0.7841	1098.617	0.332
293.15	0.007	999.185	0.204
293.15	0.0104	999.653	0.205
293.15	0.0141	1000.17	0.19
293.15	0.032	1002.606	0.204
293.15	0.0386	1003.494	0.204
293.15	0.0411	1003.847	0.211
293.15	0.0496	1005.015	0.209
293.15	0.0632	1006.844	0.21
293.15	0.0737	1008.263	0.212
293.15	0.1066	1012.655	0.216
293.15	0.181	1022.468	0.228
293.15	0.2454	1030.813	0.246
293.15	0.2498	1031.373	0.23
293.15	0.2939	1037.057	0.246
293.15	0.3192	1040.282	0.25
293.15	0.3723	1046.928	0.258
293.15	0.4483	1056.392	0.271
293.15	0.6185	1077.209	0.3
293.15	0.7841	1096.813	0.329
298.15	0.007	998.012	0.204
298.15	0.0104	998.476	0.206
298.15	0.0141	998.988	0.192
298.15	0.032	1001.399	0.202
298.15	0.0386	1002.28	0.202
298.15	0.0411	1002.628	0.209
298.15	0.0496	1003.785	0.207
298.15	0.0632	1005.595	0.207
298.15	0.0737	1007	0.209
298.15	0.1066	1011.349	0.214
298.15	0.181	1021.069	0.225
298.15	0.2454	1029.34	0.243
298.15	0.2498	1029.896	0.228
298.15	0.2939	1035.533	0.243
298.15	0.3192	1038.731	0.247
298.15	0.3723	1045.323	0.256
298.15	0.4483	1054.714	0.268
298.15	0.6185	1075.384	0.297
298.15	0.7841	1094.864	0.326
303.15	0.007	996.606	0.207
303.15	0.0104	997.065	0.206
303.15	0.0141	997.573	0.206
303.15	0.032	999.963	0.201
303.15	0.0386	1000.835	0.202
303.15	0.0411	1001.179	0.204
303.15	0.0496	1002.327	0.203
303.15	0.0632	1004.121	0.205
303.15	0.0737	1005.515	0.206
303.15	0.1066	1009.828	0.211
303.15	0.181	1019.469	0.223
303.15	0.2454	1027.674	0.232
303.15	0.2498	1028.225	0.232
303.15	0.2939	1033.82	0.241
303.15	0.3192	1036.994	0.244
303.15	0.3723	1043.542	0.253
303.15	0.4483	1052.868	0.265
303.15	0.6185	1073.41	0.294
303.15	0.7841	1092.776	0.322

System: propan-1-ol + water; phases: Liquid
Fixed: Pressure, kPa = 101
Property: Speed of sound, m/s (Liquid); method: Sing-around technique in a fixed-path interferometer
Temperature, K	Mass fraction of propan-1-ol	Speed of sound, m/s	uncertainty
283.15	0.05	1501.22	0.82
283.15	0.1	1547.38	0.84
283.15	0.15	1584.05	0.86
288.15	0.05	1514.54	0.83
288.15	0.1	1555.57	0.84
288.15	0.15	1586.55	0.86
293.15	0.05	1526.24	0.83
293.15	0.1	1562.42	0.85
293.15	0.15	1588.09	0.86
298.15	0.05	1536.25	0.84
298.15	0.1	1567.98	0.85
298.15	0.15	1588.6	0.86
303.15	0.05	1544.7	0.84
303.15	0.1	1572.23	0.85
303.15	0.15	1588.12	0.85

System: propan-1-ol + water; phases: Liquid
Fixed: Pressure, kPa = 101
Property: Mass density, kg/m3 (Liquid); method: VIBTUB:UFactor:4
Temperature, K	Mass fraction of propan-1-ol	Mass density, kg/m3	uncertainty
283.15	0.05	992.444	0.173
283.15	0.1	987.274	0.187
283.15	0.15	983.045	0.215
288.15	0.05	991.727	0.168
288.15	0.1	986.285	0.201
288.15	0.15	981.663	0.222
293.15	0.05	990.715	0.171
293.15	0.1	985.011	0.203
293.15	0.15	980.011	0.222
298.15	0.05	989.431	0.174
298.15	0.1	983.475	0.205
298.15	0.15	978.117	0.222
303.15	0.05	987.905	0.169
303.15	0.1	981.701	0.199
303.15	0.15	976.004	0.218

System: propan-1-ol + disodium hydrogen phosphate + water; phases: Liquid
Fixed: Pressure, kPa = 101
Fixed: Temperature, K = 298.15
Property: Molar conductivity, S*m2/mol (Liquid); method: dip type immersion conductance cell
Solvent: Mass fraction of propan-1-ol	Molality, mol/kg of disodium hydrogen phosphate	Molar conductivity, S*m2/mol	uncertainty
0	0.0049	0.01921	0.000192
0	0.0104	0.01802	0.00018
0	0.0154	0.017351	0.000174
0	0.0211	0.016673	0.000167
0	0.0413	0.015342	0.000153
0	0.0712	0.013974	0.00014
0	0.1066	0.013057	0.000131
0	0.1437	0.01234	0.000123
0	0.1927	0.011623	0.000116
0	0.2475	0.010967	0.00011
0	0.3697	0.00986	9.9e-05
0	0.4438	0.009224	9.2e-05
0	0.5295	0.008621	8.6e-05
0	0.6125	0.008158	8.2e-05
0	0.6768	0.007782	7.8e-05
0	0.7479	0.007445	7.4e-05
0	0.8346	0.007061	7.1e-05
0	0.9695	0.006536	6.5e-05
0.05	0.0049	0.016501	0.000165
0.05	0.0104	0.014932	0.000149
0.05	0.0155	0.014566	0.000146
0.05	0.0211	0.014166	0.000142
0.05	0.042	0.012662	0.000127
0.05	0.0706	0.011629	0.000116
0.05	0.1427	0.01019	0.000102
0.05	0.2497	0.008888	8.9e-05
0.05	0.3076	0.008408	8.4e-05
0.05	0.3707	0.007969	8e-05
0.05	0.4479	0.007377	7.4e-05
0.1	0.0049	0.01402	0.00014
0.1	0.0106	0.013012	0.00013
0.1	0.0155	0.012634	0.000126
0.1	0.0212	0.012135	0.000121
0.1	0.0422	0.010913	0.000109
0.1	0.0712	0.009692	9.7e-05
0.1	0.1402	0.008628	8.6e-05
0.1	0.2476	0.007466	7.5e-05
0.1	0.3073	0.007009	7e-05
0.15	0.0049	0.012288	0.000123
0.15	0.0107	0.011431	0.000114
0.15	0.0155	0.010872	0.000109
0.15	0.0213	0.010428	0.000104
0.15	0.0428	0.00944	9.4e-05
0.15	0.0704	0.008546	8.5e-05
0.15	0.1436	0.007253	7.3e-05

System: propan-1-ol + disodium hydrogen phosphate + water; phases: Liquid
Fixed: Pressure, kPa = 101
Fixed: Temperature, K = 298.15
Property: Refractive index (Na D-line) (Liquid); method: Standard Abbe refractometry
Solvent: Mass fraction of propan-1-ol	Molality, mol/kg of disodium hydrogen phosphate	Refractive index (Na D-line)	uncertainty
0	0.0049	1.3328	0.0004
0	0.0104	1.3329	0.0004
0	0.0154	1.3331	0.0004
0	0.0211	1.3333	0.0004
0	0.0413	1.334	0.0004
0	0.0712	1.3348	0.0004
0	0.1066	1.3357	0.0004
0	0.1437	1.3367	0.0004
0	0.1927	1.3379	0.0004
0	0.2475	1.3392	0.0004
0	0.3697	1.3421	0.0004
0	0.4438	1.3438	0.0004
0	0.5295	1.3458	0.0004
0	0.6125	1.3476	0.0004
0	0.6768	1.349	0.0004
0	0.7479	1.3505	0.0004
0	0.8346	1.3524	0.0004
0	0.9695	1.3551	0.0004
0.05	0.0049	1.3371	0.0004
0.05	0.0104	1.3373	0.0004
0.05	0.0155	1.3375	0.0004
0.05	0.0211	1.3376	0.0004
0.05	0.042	1.3381	0.0004
0.05	0.0706	1.3388	0.0004
0.05	0.1427	1.3407	0.0004
0.05	0.2497	1.3433	0.0004
0.05	0.3076	1.3447	0.0004
0.05	0.3707	1.3461	0.0004
0.05	0.4479	1.3478	0.0004
0.1	0.0049	1.3409	0.0004
0.1	0.0106	1.3411	0.0004
0.1	0.0155	1.3413	0.0004
0.1	0.0212	1.3415	0.0004
0.1	0.0422	1.342	0.0004
0.1	0.0712	1.3428	0.0004
0.1	0.1402	1.3445	0.0004
0.1	0.2476	1.3471	0.0004
0.1	0.3073	1.3484	0.0004
0.15	0.0049	1.3447	0.0004
0.15	0.0107	1.3448	0.0004
0.15	0.0155	1.345	0.0004
0.15	0.0213	1.3452	0.0004
0.15	0.0428	1.3458	0.0004
0.15	0.0704	1.3464	0.0004
0.15	0.1436	1.3481	0.0004

System: propan-1-ol + disodium hydrogen phosphate + water; phases: Liquid
Fixed: Pressure, kPa = 101
Property: Speed of sound, m/s (Liquid); method: Sing-around technique in a fixed-path interferometer
Temperature, K	Solvent: Mass fraction of propan-1-ol	Molality, mol/kg of disodium hydrogen phosphate	Speed of sound, m/s	uncertainty
283.15	0	0	1447.59	0.8
283.15	0	0.007	1449.31	0.8
283.15	0	0.0104	1450.01	0.8
283.15	0	0.0141	1450.78	0.81
283.15	0	0.032	1454.15	0.81
283.15	0	0.0386	1455.54	0.81
283.15	0	0.0411	1456.03	0.81
283.15	0	0.0496	1457.71	0.81
283.15	0	0.0632	1460.29	0.81
283.15	0	0.0737	1462.27	0.81
283.15	0	0.1066	1468.37	0.81
283.15	0	0.181	1481.83	0.82
283.15	0	0.2454	1493.18	0.82
283.15	0	0.2498	1493.84	0.82
283.15	0	0.2939	1501.63	0.82
283.15	0	0.3192	1506	0.83
283.15	0	0.3723	1514.92	0.83
283.15	0	0.4483	1527.68	0.84
283.15	0	0.6185	1555.68	0.84
283.15	0	0.7841	1582.33	0.85
283.15	0.05	0	1501.22	0.82
283.15	0.05	0.0035	1502.06	0.82
283.15	0.05	0.0104	1503.41	0.82
283.15	0.05	0.0212	1505.21	0.83
283.15	0.05	0.0248	1505.92	0.83
283.15	0.05	0.0285	1506.57	0.83
283.15	0.05	0.0391	1508.44	0.83
283.15	0.05	0.0518	1510.92	0.83
283.15	0.05	0.064	1512.9	0.83
283.15	0.05	0.0715	1514.18	0.83
283.15	0.05	0.106	1520.16	0.83
283.15	0.05	0.1425	1526.34	0.83
283.15	0.05	0.1691	1530.83	0.83
283.15	0.05	0.2116	1537.7	0.84
283.15	0.05	0.2556	1544.49	0.84
283.15	0.05	0.2935	1550.51	0.84
283.15	0.05	0.3657	1561.39	0.85
283.15	0.05	0.4448	1572.84	0.85
283.15	0.1	0	1547.38	0.84
283.15	0.1	0.007	1549.52	0.84
283.15	0.1	0.0103	1550.05	0.84
283.15	0.1	0.014	1550.75	0.84
283.15	0.1	0.0232	1551.89	0.84
283.15	0.1	0.0352	1554.01	0.84
283.15	0.1	0.0354	1554.22	0.85
283.15	0.1	0.0498	1556.63	0.85
283.15	0.1	0.0639	1558.83	0.85
283.15	0.1	0.064	1559	0.85
283.15	0.1	0.0858	1562.28	0.85
283.15	0.1	0.1141	1566.67	0.85
283.15	0.1	0.1345	1569.45	0.85
283.15	0.1	0.1432	1570.84	0.91
283.15	0.1	0.1445	1570.92	0.91
283.15	0.1	0.1695	1574.9	0.85
283.15	0.1	0.2028	1579.44	0.85
283.15	0.1	0.2336	1583.87	0.86
283.15	0.1	0.2822	1590.29	0.86
283.15	0.1	0.3347	1597.07	0.86
283.15	0.1	0.4278	1608.35	0.86
283.15	0.1	0.4976	1616.37	0.87
283.15	0.15	0	1584.05	0.86
283.15	0.15	0.007	1585.84	0.86
283.15	0.15	0.0113	1586.44	0.86
283.15	0.15	0.0141	1586.81	0.86
283.15	0.15	0.0278	1588.83	0.86
283.15	0.15	0.0351	1589.71	0.86
283.15	0.15	0.0495	1591.69	0.86
283.15	0.15	0.0642	1593.66	0.86
283.15	0.15	0.0849	1596.15	0.86
283.15	0.15	0.1139	1599.82	0.86
283.15	0.15	0.1403	1602.97	0.86
283.15	0.15	0.1722	1606.48	0.86
283.15	0.15	0.2021	1609.7	0.87
283.15	0.15	0.2471	1614.08	0.87
283.15	0.15	0.2948	1618.43	0.87
283.15	0.15	0.3319	1621.46	0.87
283.15	0.15	0.3686	1624.01	0.87
288.15	0	0	1466.25	0.81
288.15	0	0.007	1467.58	0.81
288.15	0	0.0104	1468.27	0.81
288.15	0	0.0141	1469	0.81
288.15	0	0.032	1472.3	0.81
288.15	0	0.0386	1473.6	0.81
288.15	0	0.0411	1474.06	0.81
288.15	0	0.0496	1475.69	0.81
288.15	0	0.0632	1478.18	0.81
288.15	0	0.0737	1480.11	0.82
288.15	0	0.1066	1486.02	0.82
288.15	0	0.181	1499.1	0.82
288.15	0	0.2454	1510.08	0.83
288.15	0	0.2498	1510.75	0.83
288.15	0	0.2939	1518.31	0.83
288.15	0	0.3192	1522.56	0.83
288.15	0	0.3723	1531.24	0.84
288.15	0	0.4483	1543.61	0.84
288.15	0	0.6185	1570.83	0.85
288.15	0	0.7841	1596.72	0.86
288.15	0.05	0	1514.54	0.83
288.15	0.05	0.0035	1515.39	0.83
288.15	0.05	0.0104	1516.71	0.83
288.15	0.05	0.0212	1518.46	0.83
288.15	0.05	0.0248	1519.14	0.83
288.15	0.05	0.0285	1519.79	0.83
288.15	0.05	0.0391	1521.61	0.83
288.15	0.05	0.0518	1524.05	0.83
288.15	0.05	0.064	1525.95	0.83
288.15	0.05	0.0715	1527.21	0.83
288.15	0.05	0.106	1533	0.83
288.15	0.05	0.1425	1538.95	0.84
288.15	0.05	0.1691	1543.38	0.84
288.15	0.05	0.2116	1550.1	0.84
288.15	0.05	0.2556	1556.7	0.84
288.15	0.05	0.2935	1562.62	0.85
288.15	0.05	0.3657	1573.23	0.85
288.15	0.05	0.4448	1584.44	0.85
288.15	0.1	0	1555.57	0.84
288.15	0.1	0.007	1557.69	0.85
288.15	0.1	0.0103	1558.17	0.85
288.15	0.1	0.014	1558.87	0.85
288.15	0.1	0.0232	1559.93	0.85
288.15	0.1	0.0352	1562.01	0.85
288.15	0.1	0.0354	1562.15	0.85
288.15	0.1	0.0498	1564.59	0.85
288.15	0.1	0.0639	1566.74	0.85
288.15	0.1	0.064	1566.88	0.85
288.15	0.1	0.0858	1570.09	0.85
288.15	0.1	0.1141	1574.36	0.85
288.15	0.1	0.1345	1577.08	0.85
288.15	0.1	0.1432	1578.42	0.93
288.15	0.1	0.1445	1578.51	0.9
288.15	0.1	0.1695	1582.37	0.85
288.15	0.1	0.2028	1586.69	0.85
288.15	0.1	0.2336	1591.11	0.86
288.15	0.1	0.2822	1597.39	0.86
288.15	0.1	0.3347	1603.97	0.86
288.15	0.1	0.4278	1614.97	0.87
288.15	0.1	0.4976	1622.79	0.87
288.15	0.15	0	1586.55	0.86
288.15	0.15	0.007	1588.27	0.86
288.15	0.15	0.0113	1588.84	0.86
288.15	0.15	0.0141	1589.2	0.86
288.15	0.15	0.0278	1591.13	0.86
288.15	0.15	0.0351	1591.89	0.86
288.15	0.15	0.0495	1593.88	0.86
288.15	0.15	0.0642	1595.75	0.86
288.15	0.15	0.0849	1598	0.86
288.15	0.15	0.1139	1601.62	0.86
288.15	0.15	0.1403	1604.59	0.86
288.15	0.15	0.1722	1607.87	0.86
288.15	0.15	0.2021	1610.95	0.86
288.15	0.15	0.2471	1615.01	0.87
288.15	0.15	0.2948	1619.03	0.87
288.15	0.15	0.3319	1621.79	0.87
288.15	0.15	0.3686	1624.16	0.87
293.15	0	0	1482.66	0.82
293.15	0	0.007	1483.79	0.82
293.15	0	0.0104	1484.45	0.82
293.15	0	0.0141	1485.15	0.82
293.15	0	0.032	1488.36	0.82
293.15	0	0.0386	1489.63	0.82
293.15	0	0.0411	1490.07	0.82
293.15	0	0.0496	1491.67	0.82
293.15	0	0.0632	1494.08	0.82
293.15	0	0.0737	1495.93	0.82
293.15	0	0.1066	1501.68	0.82
293.15	0	0.181	1514.31	0.83
293.15	0	0.2454	1525.02	0.83
293.15	0	0.2498	1525.69	0.83
293.15	0	0.2939	1533.03	0.84
293.15	0	0.3192	1537.11	0.84
293.15	0	0.3723	1545.52	0.84
293.15	0	0.4483	1557.6	0.85
293.15	0	0.6185	1584.03	0.85
293.15	0	0.7841	1609.14	0.86
293.15	0.05	0	1526.24	0.83
293.15	0.05	0.0035	1527.08	0.83
293.15	0.05	0.0104	1528.34	0.83
293.15	0.05	0.0212	1530.01	0.83
293.15	0.05	0.0248	1530.69	0.83
293.15	0.05	0.0285	1531.31	0.83
293.15	0.05	0.0391	1533.08	0.83
293.15	0.05	0.0518	1535.45	0.84
293.15	0.05	0.064	1537.28	0.84
293.15	0.05	0.0715	1538.48	0.84
293.15	0.05	0.106	1544.12	0.84
293.15	0.05	0.1425	1549.91	0.84
293.15	0.05	0.1691	1554.25	0.84
293.15	0.05	0.2116	1560.81	0.84
293.15	0.05	0.2556	1567.21	0.85
293.15	0.05	0.2935	1572.98	0.85
293.15	0.05	0.3657	1583.35	0.85
293.15	0.05	0.4448	1594.3	0.86
293.15	0.1	0	1562.42	0.85
293.15	0.1	0.007	1564.47	0.85
293.15	0.1	0.0103	1564.94	0.85
293.15	0.1	0.014	1565.61	0.85
293.15	0.1	0.0232	1566.68	0.85
293.15	0.1	0.0352	1568.67	0.85
293.15	0.1	0.0354	1568.76	0.85
293.15	0.1	0.0498	1571.16	0.85
293.15	0.1	0.0639	1573.25	0.85
293.15	0.1	0.064	1573.36	0.85
293.15	0.1	0.0858	1576.5	0.85
293.15	0.1	0.1141	1580.64	0.85
293.15	0.1	0.1345	1583.3	0.85
293.15	0.1	0.1432	1584.58	0.94
293.15	0.1	0.1445	1584.68	0.91
293.15	0.1	0.1695	1588.39	0.85
293.15	0.1	0.2028	1592.6	0.86
293.15	0.1	0.2336	1596.88	0.86
293.15	0.1	0.2822	1602.99	0.86
293.15	0.1	0.3347	1609.36	0.86
293.15	0.1	0.4278	1620.02	0.87
293.15	0.1	0.4976	1627.58	0.87
293.15	0.15	0	1588.09	0.86
293.15	0.15	0.007	1589.63	0.86
293.15	0.15	0.0113	1590.17	0.86
293.15	0.15	0.0141	1590.51	0.86
293.15	0.15	0.0278	1592.34	0.86
293.15	0.15	0.0351	1593.09	0.86
293.15	0.15	0.0495	1594.97	0.86
293.15	0.15	0.0642	1596.74	0.86
293.15	0.15	0.0849	1598.9	0.86
293.15	0.15	0.1139	1602.29	0.86
293.15	0.15	0.1403	1605.06	0.86
293.15	0.15	0.1722	1608.17	0.86
293.15	0.15	0.2021	1611.01	0.86
293.15	0.15	0.2471	1614.75	0.86
293.15	0.15	0.2948	1618.42	0.86
293.15	0.15	0.3319	1620.91	0.87
293.15	0.15	0.3686	1623.14	0.87
298.15	0	0	1497	0.82
298.15	0	0.007	1498.03	0.82
298.15	0	0.0104	1498.65	0.82
298.15	0	0.0141	1499.33	0.82
298.15	0	0.032	1502.47	0.82
298.15	0	0.0386	1503.67	0.82
298.15	0	0.0411	1504.09	0.82
298.15	0	0.0496	1505.64	0.82
298.15	0	0.0632	1507.97	0.83
298.15	0	0.0737	1509.77	0.83
298.15	0	0.1066	1515.33	0.83
298.15	0	0.181	1527.66	0.83
298.15	0	0.2454	1538.02	0.84
298.15	0	0.2498	1538.64	0.84
298.15	0	0.2939	1545.81	0.84
298.15	0	0.3192	1549.78	0.84
298.15	0	0.3723	1557.99	0.84
298.15	0	0.4483	1569.69	0.85
298.15	0	0.6185	1595.38	0.86
298.15	0	0.7841	1619.77	0.86
298.15	0.05	0	1536.25	0.84
298.15	0.05	0.0035	1537.05	0.84
298.15	0.05	0.0104	1538.29	0.84
298.15	0.05	0.0212	1539.91	0.84
298.15	0.05	0.0248	1540.54	0.84
298.15	0.05	0.0285	1541.15	0.84
298.15	0.05	0.0391	1542.86	0.84
298.15	0.05	0.0518	1545.18	0.84
298.15	0.05	0.064	1546.94	0.84
298.15	0.05	0.0715	1548.14	0.84
298.15	0.05	0.106	1553.62	0.84
298.15	0.05	0.1425	1559.28	0.84
298.15	0.05	0.1691	1563.47	0.85
298.15	0.05	0.2116	1569.83	0.85
298.15	0.05	0.2556	1576.05	0.85
298.15	0.05	0.2935	1581.69	0.85
298.15	0.05	0.3657	1591.79	0.86
298.15	0.05	0.4448	1602.47	0.86
298.15	0.1	0	1567.98	0.85
298.15	0.1	0.007	1569.86	0.85
298.15	0.1	0.0103	1570.33	0.85
298.15	0.1	0.014	1570.98	0.85
298.15	0.1	0.0232	1572.07	0.85
298.15	0.1	0.0352	1573.99	0.85
298.15	0.1	0.0354	1574.06	0.85
298.15	0.1	0.0498	1576.36	0.85
298.15	0.1	0.0639	1578.39	0.85
298.15	0.1	0.064	1578.48	0.85
298.15	0.1	0.0858	1581.52	0.85
298.15	0.1	0.1141	1585.52	0.85
298.15	0.1	0.1345	1588.12	0.85
298.15	0.1	0.1432	1589.36	0.95
298.15	0.1	0.1445	1589.46	0.92
298.15	0.1	0.1695	1593.04	0.86
298.15	0.1	0.2028	1597.11	0.86
298.15	0.1	0.2336	1601.24	0.86
298.15	0.1	0.2822	1607.15	0.86
298.15	0.1	0.3347	1613.3	0.86
298.15	0.1	0.4278	1623.57	0.87
298.15	0.1	0.4976	1630.84	0.87
298.15	0.15	0	1588.6	0.86
298.15	0.15	0.007	1589.92	0.86
298.15	0.15	0.0113	1590.44	0.86
298.15	0.15	0.0141	1590.78	0.86
298.15	0.15	0.0278	1592.5	0.86
298.15	0.15	0.0351	1593.24	0.86
298.15	0.15	0.0495	1594.99	0.86
298.15	0.15	0.0642	1596.67	0.86
298.15	0.15	0.0849	1598.76	0.86
298.15	0.15	0.1139	1601.89	0.86
298.15	0.15	0.1403	1604.47	0.86
298.15	0.15	0.1722	1607.41	0.86
298.15	0.15	0.2021	1610.02	0.86
298.15	0.15	0.2471	1613.45	0.86
298.15	0.15	0.2948	1616.79	0.86
298.15	0.15	0.3319	1619.05	0.86
298.15	0.15	0.3686	1621.16	0.86
303.15	0	0	1509.44	0.83
303.15	0	0.007	1510.37	0.83
303.15	0	0.0104	1511	0.83
303.15	0	0.0141	1511.65	0.83
303.15	0	0.032	1514.71	0.83
303.15	0	0.0386	1515.9	0.83
303.15	0	0.0411	1516.3	0.83
303.15	0	0.0496	1517.8	0.83
303.15	0	0.0632	1520.08	0.83
303.15	0	0.0737	1521.84	0.83
303.15	0	0.1066	1527.25	0.83
303.15	0	0.181	1539.18	0.84
303.15	0	0.2454	1549.25	0.84
303.15	0	0.2498	1549.9	0.84
303.15	0	0.2939	1556.85	0.84
303.15	0	0.3192	1560.73	0.84
303.15	0	0.3723	1568.7	0.85
303.15	0	0.4483	1580.06	0.85
303.15	0	0.6185	1605.08	0.86
303.15	0	0.7841	1628.76	0.87
303.15	0.05	0	1544.7	0.84
303.15	0.05	0.0035	1545.46	0.84
303.15	0.05	0.0104	1546.66	0.84
303.15	0.05	0.0212	1548.26	0.84
303.15	0.05	0.0248	1548.84	0.84
303.15	0.05	0.0285	1549.44	0.84
303.15	0.05	0.0391	1551.11	0.84
303.15	0.05	0.0518	1553.37	0.84
303.15	0.05	0.064	1555.08	0.84
303.15	0.05	0.0715	1556.23	0.84
303.15	0.05	0.106	1561.56	0.84
303.15	0.05	0.1425	1567.07	0.85
303.15	0.05	0.1691	1571.14	0.85
303.15	0.05	0.2116	1577.31	0.85
303.15	0.05	0.2556	1583.37	0.85
303.15	0.05	0.2935	1588.87	0.85
303.15	0.05	0.3657	1598.71	0.86
303.15	0.05	0.4448	1609.1	0.86
303.15	0.1	0	1572.23	0.85
303.15	0.1	0.007	1573.95	0.85
303.15	0.1	0.0103	1574.41	0.85
303.15	0.1	0.014	1575.03	0.85
303.15	0.1	0.0232	1576.14	0.85
303.15	0.1	0.0352	1577.98	0.85
303.15	0.1	0.0354	1578.05	0.85
303.15	0.1	0.0498	1580.24	0.85
303.15	0.1	0.0639	1582.22	0.85
303.15	0.1	0.064	1582.29	0.85
303.15	0.1	0.0858	1585.25	0.85
303.15	0.1	0.1141	1589.11	0.85
303.15	0.1	0.1345	1591.63	0.85
303.15	0.1	0.1432	1592.83	0.95
303.15	0.1	0.1445	1592.93	0.95
303.15	0.1	0.1695	1596.36	0.86
303.15	0.1	0.2028	1600.31	0.86
303.15	0.1	0.2336	1604.27	0.86
303.15	0.1	0.2822	1609.98	0.86
303.15	0.1	0.3347	1615.89	0.86
303.15	0.1	0.4278	1625.78	0.87
303.15	0.1	0.4976	1632.72	0.87
303.15	0.15	0	1588.12	0.85
303.15	0.15	0.007	1589.26	0.85
303.15	0.15	0.0113	1589.76	0.85
303.15	0.15	0.0141	1590.07	0.85
303.15	0.15	0.0278	1591.69	0.86
303.15	0.15	0.0351	1592.44	0.86
303.15	0.15	0.0495	1594.06	0.86
303.15	0.15	0.0642	1595.63	0.86
303.15	0.15	0.0849	1597.65	0.86
303.15	0.15	0.1139	1600.56	0.86
303.15	0.15	0.1403	1602.95	0.86
303.15	0.15	0.1722	1605.75	0.86
303.15	0.15	0.2021	1608.15	0.86
303.15	0.15	0.2471	1611.29	0.86
303.15	0.15	0.2948	1614.36	0.86
303.15	0.15	0.3319	1616.42	0.86
303.15	0.15	0.3686	1618.43	0.86

System: propan-1-ol + disodium hydrogen phosphate + water; phases: Liquid
Fixed: Pressure, kPa = 101
Property: Mass density, kg/m3 (Liquid); method: VIBTUB:UFactor:4
Temperature, K	Solvent: Mass fraction of propan-1-ol	Molality, mol/kg of disodium hydrogen phosphate	Mass density, kg/m3	uncertainty
283.15	0	0	999.699	0.209
283.15	0	0.007	1000.712	0.209
283.15	0	0.0104	1001.193	0.208
283.15	0	0.0141	1001.724	0.21
283.15	0	0.032	1004.226	0.21
283.15	0	0.0386	1005.137	0.211
283.15	0	0.0411	1005.499	0.213
283.15	0	0.0496	1006.698	0.213
283.15	0	0.0632	1008.573	0.214
283.15	0	0.0737	1010.028	0.216
283.15	0	0.1066	1014.532	0.22
283.15	0	0.181	1024.575	0.232
283.15	0	0.2454	1033.102	0.242
283.15	0	0.2498	1033.676	0.243
283.15	0	0.2939	1039.478	0.251
283.15	0	0.3192	1042.77	0.254
283.15	0	0.3723	1049.547	0.263
283.15	0	0.4483	1059.187	0.276
283.15	0	0.6185	1080.356	0.306
283.15	0	0.7841	1100.26	0.335
283.15	0.05	0	992.444	0.173
283.15	0.05	0.0035	992.926	0.175
283.15	0.05	0.0104	993.9	0.205
283.15	0.05	0.0212	995.393	0.208
283.15	0.05	0.0248	995.875	0.281
283.15	0.05	0.0285	996.385	0.188
283.15	0.05	0.0391	997.848	0.198
283.15	0.05	0.0518	999.598	0.199
283.15	0.05	0.064	1001.258	0.209
283.15	0.05	0.0715	1002.273	0.232
283.15	0.05	0.106	1006.936	0.211
283.15	0.05	0.1425	1011.796	0.211
283.15	0.05	0.1691	1015.339	0.22
283.15	0.05	0.2116	1020.953	0.222
283.15	0.05	0.2556	1026.587	0.23
283.15	0.05	0.2935	1031.508	0.237
283.15	0.05	0.3657	1040.663	0.249
283.15	0.05	0.4448	1050.461	0.267
283.15	0.1	0	987.274	0.187
283.15	0.1	0.007	988.144	0.229
283.15	0.1	0.0103	988.6	0.221
283.15	0.1	0.014	989.084	0.204
283.15	0.1	0.0232	990.392	0.218
283.15	0.1	0.0352	992.011	0.212
283.15	0.1	0.0354	992.036	0.212
283.15	0.1	0.0498	993.97	0.21
283.15	0.1	0.0639	995.88	0.205
283.15	0.1	0.064	995.867	0.205
283.15	0.1	0.0858	998.808	0.2
283.15	0.1	0.1141	1002.546	0.201
283.15	0.1	0.1345	1005.144	0.212
283.15	0.1	0.1432	1006.284	0.181
283.15	0.1	0.1445	1006.378	0.181
283.15	0.1	0.1695	1009.787	0.211
283.15	0.1	0.2028	1014.025	0.216
283.15	0.1	0.2336	1017.992	0.219
283.15	0.1	0.2822	1024.137	0.227
283.15	0.1	0.3347	1030.636	0.234
283.15	0.1	0.4278	1042.009	0.25
283.15	0.1	0.4976	1050.382	0.261
283.15	0.15	0	983.045	0.215
283.15	0.15	0.007	983.915	0.215
283.15	0.15	0.0113	984.473	0.217
283.15	0.15	0.0141	984.833	0.216
283.15	0.15	0.0278	986.697	0.218
283.15	0.15	0.0351	987.673	0.215
283.15	0.15	0.0495	989.584	0.212
283.15	0.15	0.0642	991.53	0.209
283.15	0.15	0.0849	994.21	0.206
283.15	0.15	0.1139	998.021	0.201
283.15	0.15	0.1403	1001.384	0.199
283.15	0.15	0.1722	1005.459	0.203
283.15	0.15	0.2021	1009.22	0.207
283.15	0.15	0.2471	1014.759	0.213
283.15	0.15	0.2948	1020.564	0.22
283.15	0.15	0.3319	1025.135	0.226
283.15	0.15	0.3686	1029.478	0.231
288.15	0	0	999.099	0.218
288.15	0	0.007	1000.095	0.204
288.15	0	0.0104	1000.568	0.207
288.15	0	0.0141	1001.093	0.191
288.15	0	0.032	1003.557	0.207
288.15	0	0.0386	1004.456	0.206
288.15	0	0.0411	1004.814	0.214
288.15	0	0.0496	1005.997	0.211
288.15	0	0.0632	1007.845	0.212
288.15	0	0.0737	1009.283	0.214
288.15	0	0.1066	1013.727	0.218
288.15	0	0.181	1023.644	0.23
288.15	0	0.2454	1032.074	0.25
288.15	0	0.2498	1032.641	0.231
288.15	0	0.2939	1038.379	0.249
288.15	0	0.3192	1041.636	0.252
288.15	0	0.3723	1048.344	0.261
288.15	0	0.4483	1057.888	0.274
288.15	0	0.6185	1078.873	0.303
288.15	0	0.7841	1098.617	0.332
288.15	0.05	0	991.727	0.168
288.15	0.05	0.0035	992.202	0.175
288.15	0.05	0.0104	993.163	0.207
288.15	0.05	0.0212	994.635	0.198
288.15	0.05	0.0248	995.111	0.289
288.15	0.05	0.0285	995.615	0.193
288.15	0.05	0.0391	997.059	0.198
288.15	0.05	0.0518	998.784	0.197
288.15	0.05	0.064	1000.426	0.204
288.15	0.05	0.0715	1001.426	0.181
288.15	0.05	0.106	1006.031	0.209
288.15	0.05	0.1425	1010.833	0.208
288.15	0.05	0.1691	1014.332	0.218
288.15	0.05	0.2116	1019.886	0.22
288.15	0.05	0.2556	1025.456	0.227
288.15	0.05	0.2935	1030.332	0.235
288.15	0.05	0.3657	1039.4	0.247
288.15	0.05	0.4448	1049.113	0.262
288.15	0.1	0	986.285	0.201
288.15	0.1	0.007	987.136	0.226
288.15	0.1	0.0103	987.585	0.224
288.15	0.1	0.014	988.062	0.207
288.15	0.1	0.0232	989.357	0.22
288.15	0.1	0.0352	990.952	0.213
288.15	0.1	0.0354	990.974	0.213
288.15	0.1	0.0498	992.887	0.21
288.15	0.1	0.0639	994.772	0.206
288.15	0.1	0.064	994.757	0.206
288.15	0.1	0.0858	997.663	0.2
288.15	0.1	0.1141	1001.357	0.198
288.15	0.1	0.1345	1003.928	0.208
288.15	0.1	0.1432	1005.051	0.18
288.15	0.1	0.1445	1005.146	0.175
288.15	0.1	0.1695	1008.516	0.209
288.15	0.1	0.2028	1012.706	0.213
288.15	0.1	0.2336	1016.635	0.217
288.15	0.1	0.2822	1022.717	0.225
288.15	0.1	0.3347	1029.158	0.232
288.15	0.1	0.4278	1040.43	0.247
288.15	0.1	0.4976	1048.735	0.258
288.15	0.15	0	981.663	0.222
288.15	0.15	0.007	982.507	0.214
288.15	0.15	0.0113	983.059	0.216
288.15	0.15	0.0141	983.414	0.2
288.15	0.15	0.0278	985.252	0.217
288.15	0.15	0.0351	986.215	0.217
288.15	0.15	0.0495	988.103	0.213
288.15	0.15	0.0642	990.024	0.21
288.15	0.15	0.0849	992.67	0.207
288.15	0.15	0.1139	996.436	0.201
288.15	0.15	0.1403	999.757	0.196
288.15	0.15	0.1722	1003.786	0.2
288.15	0.15	0.2021	1007.505	0.204
288.15	0.15	0.2471	1012.979	0.21
288.15	0.15	0.2948	1018.723	0.217
288.15	0.15	0.3319	1023.247	0.223
288.15	0.15	0.3686	1027.55	0.226
293.15	0	0	998.203	0.216
293.15	0	0.007	999.185	0.204
293.15	0	0.0104	999.653	0.205
293.15	0	0.0141	1000.17	0.19
293.15	0	0.032	1002.606	0.204
293.15	0	0.0386	1003.494	0.204
293.15	0	0.0411	1003.847	0.211
293.15	0	0.0496	1005.015	0.209
293.15	0	0.0632	1006.844	0.21
293.15	0	0.0737	1008.263	0.212
293.15	0	0.1066	1012.655	0.216
293.15	0	0.181	1022.468	0.228
293.15	0	0.2454	1030.813	0.246
293.15	0	0.2498	1031.373	0.23
293.15	0	0.2939	1037.057	0.246
293.15	0	0.3192	1040.282	0.25
293.15	0	0.3723	1046.928	0.258
293.15	0	0.4483	1056.392	0.271
293.15	0	0.6185	1077.209	0.3
293.15	0	0.7841	1096.813	0.329
293.15	0.05	0	990.715	0.171
293.15	0.05	0.0035	991.182	0.178
293.15	0.05	0.0104	992.13	0.208
293.15	0.05	0.0212	993.586	0.199
293.15	0.05	0.0248	994.054	0.282
293.15	0.05	0.0285	994.553	0.195
293.15	0.05	0.0391	995.982	0.199
293.15	0.05	0.0518	997.687	0.198
293.15	0.05	0.064	999.308	0.203
293.15	0.05	0.0715	1000.299	0.18
293.15	0.05	0.106	1004.854	0.207
293.15	0.05	0.1425	1009.605	0.206
293.15	0.05	0.1691	1013.072	0.216
293.15	0.05	0.2116	1018.569	0.218
293.15	0.05	0.2556	1024.089	0.225
293.15	0.05	0.2935	1028.921	0.232
293.15	0.05	0.3657	1037.91	0.244
293.15	0.05	0.4448	1047.547	0.259
293.15	0.1	0	985.011	0.203
293.15	0.1	0.007	985.841	0.224
293.15	0.1	0.0103	986.286	0.224
293.15	0.1	0.014	986.76	0.209
293.15	0.1	0.0232	988.041	0.22
293.15	0.1	0.0352	989.616	0.213
293.15	0.1	0.0354	989.637	0.213
293.15	0.1	0.0498	991.528	0.21
293.15	0.1	0.0639	993.394	0.207
293.15	0.1	0.064	993.377	0.207
293.15	0.1	0.0858	996.256	0.201
293.15	0.1	0.1141	999.907	0.196
293.15	0.1	0.1345	1002.453	0.205
293.15	0.1	0.1432	1003.567	0.168
293.15	0.1	0.1445	1003.659	0.165
293.15	0.1	0.1695	1006.993	0.206
293.15	0.1	0.2028	1011.144	0.211
293.15	0.1	0.2336	1015.038	0.214
293.15	0.1	0.2822	1021.064	0.222
293.15	0.1	0.3347	1027.45	0.229
293.15	0.1	0.4278	1038.634	0.244
293.15	0.1	0.4976	1046.877	0.255
293.15	0.15	0	980.011	0.222
293.15	0.15	0.007	980.834	0.215
293.15	0.15	0.0113	981.38	0.217
293.15	0.15	0.0141	981.732	0.203
293.15	0.15	0.0278	983.546	0.218
293.15	0.15	0.0351	984.498	0.218
293.15	0.15	0.0495	986.368	0.214
293.15	0.15	0.0642	988.263	0.211
293.15	0.15	0.0849	990.881	0.208
293.15	0.15	0.1139	994.606	0.203
293.15	0.15	0.1403	997.891	0.198
293.15	0.15	0.1722	1001.879	0.197
293.15	0.15	0.2021	1005.559	0.2
293.15	0.15	0.2471	1010.976	0.206
293.15	0.15	0.2948	1016.664	0.214
293.15	0.15	0.3319	1021.143	0.219
293.15	0.15	0.3686	1025.411	0.223
298.15	0	0	997.043	0.215
298.15	0	0.007	998.012	0.204
298.15	0	0.0104	998.476	0.206
298.15	0	0.0141	998.988	0.192
298.15	0	0.032	1001.399	0.202
298.15	0	0.0386	1002.28	0.202
298.15	0	0.0411	1002.628	0.209
298.15	0	0.0496	1003.785	0.207
298.15	0	0.0632	1005.595	0.207
298.15	0	0.0737	1007	0.209
298.15	0	0.1066	1011.349	0.214
298.15	0	0.181	1021.069	0.225
298.15	0	0.2454	1029.34	0.243
298.15	0	0.2498	1029.896	0.228
298.15	0	0.2939	1035.533	0.243
298.15	0	0.3192	1038.731	0.247
298.15	0	0.3723	1045.323	0.256
298.15	0	0.4483	1054.714	0.268
298.15	0	0.6185	1075.384	0.297
298.15	0	0.7841	1094.864	0.326
298.15	0.05	0	989.431	0.174
298.15	0.05	0.0035	989.894	0.181
298.15	0.05	0.0104	990.833	0.209
298.15	0.05	0.0212	992.275	0.201
298.15	0.05	0.0248	992.739	0.275
298.15	0.05	0.0285	993.232	0.196
298.15	0.05	0.0391	994.647	0.2
298.15	0.05	0.0518	996.335	0.199
298.15	0.05	0.064	997.941	0.203
298.15	0.05	0.0715	998.923	0.182
298.15	0.05	0.106	1003.433	0.204
298.15	0.05	0.1425	1008.142	0.204
298.15	0.05	0.1691	1011.577	0.213
298.15	0.05	0.2116	1017.027	0.215
298.15	0.05	0.2556	1022.502	0.222
298.15	0.05	0.2935	1027.296	0.23
298.15	0.05	0.3657	1036.218	0.241
298.15	0.05	0.4448	1045.786	0.256
298.15	0.1	0	983.475	0.205
298.15	0.1	0.007	984.288	0.223
298.15	0.1	0.0103	984.729	0.224
298.15	0.1	0.014	985.198	0.212
298.15	0.1	0.0232	986.469	0.22
298.15	0.1	0.0352	988.03	0.214
298.15	0.1	0.0354	988.048	0.214
298.15	0.1	0.0498	989.92	0.211
298.15	0.1	0.0639	991.769	0.208
298.15	0.1	0.064	991.752	0.208
298.15	0.1	0.0858	994.603	0.202
298.15	0.1	0.1141	998.222	0.197
298.15	0.1	0.1345	1000.746	0.201
298.15	0.1	0.1432	1001.848	0.158
298.15	0.1	0.1445	1001.941	0.157
298.15	0.1	0.1695	1005.246	0.203
298.15	0.1	0.2028	1009.362	0.208
298.15	0.1	0.2336	1013.22	0.211
298.15	0.1	0.2822	1019.198	0.219
298.15	0.1	0.3347	1025.535	0.226
298.15	0.1	0.4278	1036.64	0.241
298.15	0.1	0.4976	1044.824	0.251
298.15	0.15	0	978.117	0.222
298.15	0.15	0.007	978.922	0.216
298.15	0.15	0.0113	979.461	0.219
298.15	0.15	0.0141	979.81	0.206
298.15	0.15	0.0278	981.606	0.22
298.15	0.15	0.0351	982.548	0.219
298.15	0.15	0.0495	984.4	0.216
298.15	0.15	0.0642	986.275	0.213
298.15	0.15	0.0849	988.867	0.21
298.15	0.15	0.1139	992.557	0.204
298.15	0.15	0.1403	995.808	0.199
298.15	0.15	0.1722	999.757	0.194
298.15	0.15	0.2021	1003.403	0.197
298.15	0.15	0.2471	1008.774	0.203
298.15	0.15	0.2948	1014.408	0.21
298.15	0.15	0.3319	1018.852	0.216
298.15	0.15	0.3686	1023.088	0.219
303.15	0	0	995.645	0.208
303.15	0	0.007	996.606	0.207
303.15	0	0.0104	997.065	0.206
303.15	0	0.0141	997.573	0.206
303.15	0	0.032	999.963	0.201
303.15	0	0.0386	1000.835	0.202
303.15	0	0.0411	1001.179	0.204
303.15	0	0.0496	1002.327	0.203
303.15	0	0.0632	1004.121	0.205
303.15	0	0.0737	1005.515	0.206
303.15	0	0.1066	1009.828	0.211
303.15	0	0.181	1019.469	0.223
303.15	0	0.2454	1027.674	0.232
303.15	0	0.2498	1028.225	0.232
303.15	0	0.2939	1033.82	0.241
303.15	0	0.3192	1036.994	0.244
303.15	0	0.3723	1043.542	0.253
303.15	0	0.4483	1052.868	0.265
303.15	0	0.6185	1073.41	0.294
303.15	0	0.7841	1092.776	0.322
303.15	0.05	0	987.905	0.169
303.15	0.05	0.0035	988.363	0.186
303.15	0.05	0.0104	989.293	0.209
303.15	0.05	0.0212	990.723	0.21
303.15	0.05	0.0248	991.183	0.259
303.15	0.05	0.0285	991.673	0.196
303.15	0.05	0.0391	993.077	0.203
303.15	0.05	0.0518	994.751	0.202
303.15	0.05	0.064	996.342	0.206
303.15	0.05	0.0715	997.315	0.22
303.15	0.05	0.106	1001.792	0.201
303.15	0.05	0.1425	1006.461	0.202
303.15	0.05	0.1691	1009.869	0.21
303.15	0.05	0.2116	1015.28	0.213
303.15	0.05	0.2556	1020.714	0.22
303.15	0.05	0.2935	1025.474	0.227
303.15	0.05	0.3657	1034.336	0.238
303.15	0.05	0.4448	1043.844	0.254
303.15	0.1	0	981.701	0.199
303.15	0.1	0.007	982.501	0.223
303.15	0.1	0.0103	982.938	0.222
303.15	0.1	0.014	983.403	0.214
303.15	0.1	0.0232	984.666	0.22
303.15	0.1	0.0352	986.213	0.215
303.15	0.1	0.0354	986.23	0.214
303.15	0.1	0.0498	988.086	0.213
303.15	0.1	0.0639	989.92	0.209
303.15	0.1	0.064	989.901	0.209
303.15	0.1	0.0858	992.732	0.205
303.15	0.1	0.1141	996.32	0.2
303.15	0.1	0.1345	998.825	0.2
303.15	0.1	0.1432	999.918	0.15
303.15	0.1	0.1445	1000.01	0.15
303.15	0.1	0.1695	1003.287	0.2
303.15	0.1	0.2028	1007.371	0.204
303.15	0.1	0.2336	1011.2	0.208
303.15	0.1	0.2822	1017.139	0.215
303.15	0.1	0.3347	1023.432	0.223
303.15	0.1	0.4278	1034.462	0.237
303.15	0.1	0.4976	1042.594	0.248
303.15	0.15	0	976.004	0.218
303.15	0.15	0.007	976.79	0.219
303.15	0.15	0.0113	977.324	0.222
303.15	0.15	0.0141	977.672	0.222
303.15	0.15	0.0278	979.45	0.223
303.15	0.15	0.0351	980.383	0.221
303.15	0.15	0.0495	982.222	0.218
303.15	0.15	0.0642	984.08	0.214
303.15	0.15	0.0849	986.648	0.212
303.15	0.15	0.1139	990.309	0.206
303.15	0.15	0.1403	993.53	0.201
303.15	0.15	0.1722	997.448	0.196
303.15	0.15	0.2021	1001.065	0.193
303.15	0.15	0.2471	1006.39	0.199
303.15	0.15	0.2948	1011.981	0.207
303.15	0.15	0.3319	1016.391	0.212
303.15	0.15	0.3686	1020.601	0.216
