Measured thermophysical data. Isobaric vapor-liquid equilibria of the binary system acetone + acetone oxime methyl ether at 101.3 kPa
Source: Fluid Phase Equilib., 2013, 10.1016/j.fluid.2012.12.028
Compound 1: acetone, C3H6O, InChI=1S/C3H6O/c1-3(2)4/h1-2H3, purity 99.8%
Compound 2: propan-2-one O-methyl oxime, C4H9NO, InChI=1S/C4H9NO/c1-4(2)5-6-3/h1-3H3, purity 99.5%

System: propan-2-one O-methyl oxime; phases: Liquid, Gas
Property: Vapor or sublimation pressure, kPa (Liquid); method: Ebulliometric method (Recirculating still)
Temperature, K	Vapor or sublimation pressure, kPa	uncertainty
307.8	21.3	0.7
312.4	26.3	0.8
316.6	32.3	0.8
319.6	36.3	0.9
322.9	42.3	1
327.6	51.3	1
330	56.3	1.1
332.2	61.3	1.1
334.2	66.3	1.2
336.1	71.3	1.3
337.7	76.3	1.3
339.6	81.3	1.3
341	86.3	1.5
342.6	91.3	1.4
344.1	96.3	1.5

System: acetone + propan-2-one O-methyl oxime; phases: Gas, Liquid
Fixed: Pressure, kPa = 101.3
Property: Mole fraction of acetone (Gas); method: Chromatography
Mole fraction of acetone	Mole fraction of acetone	uncertainty
0.0692	0.1581	0.0023
0.1179	0.2376	0.0027
0.1769	0.321	0.0033
0.2618	0.4295	0.0042
0.3373	0.5009	0.0048
0.4083	0.5822	0.004
0.4407	0.5791	0.004
0.4994	0.6265	0.0036
0.546	0.6651	0.0033
0.6124	0.7292	0.0027
0.635	0.7451	0.0025
0.6408	0.7369	0.0029
0.6652	0.7474	0.0025
0.7172	0.7819	0.0023
0.7341	0.7969	0.0022
0.7597	0.8191	0.002
0.799	0.8498	0.0018
0.8452	0.8789	0.0016
0.8575	0.8882	0.0016
0.8878	0.912	0.0015
0.9149	0.9309	0.0014
0.9294	0.9425	0.0014
0.9509	0.9606	0.0011
0.9562	0.9628	0.0014
0.9628	0.9716	0.0014
0.9688	0.9747	0.0015
0.9701	0.9732	0.0015
0.9831	0.9874	0.0015
0.9881	0.992	0.0014

System: acetone + propan-2-one O-methyl oxime; phases: Liquid, Gas
Fixed: Pressure, kPa = 101.3
Property: Boiling temperature at pressure P, K (Liquid); method: Ebulliometric method (Recirculating still)
Mole fraction of acetone	Boiling temperature at pressure P, K	uncertainty
0.0692	342.4	0.2
0.1179	340.7	0.2
0.1769	338.6	0.2
0.2618	337.2	0.2
0.3373	335.8	0.2
0.4083	334.8	0.2
0.4407	334	0.2
0.4994	333.5	0.2
0.546	332.8	0.2
0.6124	332.4	0.2
0.635	332.4	0.2
0.6408	332.1	0.2
0.6652	331.8	0.2
0.7172	331.2	0.2
0.7341	331.3	0.2
0.7597	331.1	0.2
0.799	330.2	0.2
0.8452	330.6	0.2
0.8575	330.2	0.2
0.8878	330	0.2
0.9149	329.9	0.2
0.9294	329.8	0.2
0.9509	329.9	0.2
0.9562	329.4	0.2
0.9628	329.2	0.2
0.9688	329.5	0.2
0.9701	329.4	0.2
0.9831	329.3	0.2
0.9881	329.4	0.2
