Measured thermophysical data. Ionic liquid 1-ethyl-3-methylimidazolium tetracyanoborate: An efficient entrainer to separate methanol + dimethyl carbonate azeotropic mixture
Source: Fluid Phase Equilib., 2016, 10.1016/j.fluid.2016.04.021
Compound 1: methanol, CH4O, InChI=1S/CH4O/c1-2/h2H,1H3, purity 99.8%
Compound 2: dimethyl carbonate, C3H6O3, InChI=1S/C3H6O3/c1-5-3(4)6-2/h1-2H3, purity 99%
Compound 3: 1-ethyl-3-methylimidazolium tetracyanoborate, C10H11BN6, InChI=1S/C6H11N2.C4BN4/c1-3-8-5-4-7(2)6-8;6-1-5(2-7,3-8)4-9/h4-6H,3H2,1-2H3;/q+1;-1, purity 99.5%

System: methanol + dimethyl carbonate; phases: Gas, Liquid
Fixed: Temperature, K = 336.2
Property: Mole fraction of methanol (Gas); method: gravimetric
Mole fraction of methanol	Mole fraction of methanol	uncertainty
0.0264	0.1594	0.0052
0.0979	0.3935	0.0048
0.1073	0.418	0.0048
0.1953	0.5455	0.0042
0.2491	0.5945	0.0041
0.285	0.6192	0.0041
0.3933	0.6738	0.0041
0.4511	0.6964	0.004
0.5506	0.7316	0.004
0.5581	0.7342	0.004
0.6373	0.7582	0.004
0.7095	0.7843	0.004
0.7205	0.7873	0.004
0.8116	0.826	0.0041
0.8171	0.8294	0.0041
0.8535	0.8495	0.0041
0.8898	0.8732	0.0041
0.893	0.876	0.0041
0.9335	0.9111	0.0041
0.9708	0.9537	0.0042
0.9714	0.9548	0.0042

System: methanol + dimethyl carbonate + 1-ethyl-3-methylimidazolium tetracyanoborate; phases: Gas, Liquid
Fixed: Temperature, K = 336.2
Property: Mole fraction of methanol (Gas); method: Chromatography
Mole fraction of methanol	Mole fraction of 1-ethyl-3-methylimidazolium tetracyanoborate	Mole fraction of methanol	uncertainty
0.0933	0.0515	0.342	0.0052
0.237	0.0505	0.5452	0.0058
0.3738	0.0505	0.6416	0.0051
0.53	0.0505	0.7197	0.0048
0.6734	0.0507	0.7874	0.0045
0.7759	0.0502	0.8445	0.0044
0.8102	0.0505	0.8679	0.0044
0.8479	0.0504	0.896	0.0043
0.886	0.0508	0.929	0.0043
0.9225	0.0502	0.9662	0.0043
0.088	0.1073	0.3139	0.0051
0.2248	0.0996	0.5264	0.0059
0.3539	0.1006	0.6318	0.0052
0.5032	0.0983	0.726	0.0047
0.6377	0.1008	0.805	0.0045
0.7339	0.1014	0.8657	0.0043
0.8014	0.1023	0.9142	0.0043
0.8394	0.1006	0.9436	0.0043
0.8732	0.1009	0.9741	0.0043
0.075	0.5036	0.3917	0.0059
0.153	0.5033	0.6048	0.0057
0.2378	0.5039	0.75	0.0048
0.3221	0.5037	0.8456	0.0044
0.4072	0.504	0.9251	0.0042
