Measured thermophysical data. Isothermal vapour pressures and excess functions of 3,5- and 2,6-dimethylpyridine with toluene measurement and prediction
Source: Fluid Phase Equilib., 2006, 10.1016/j.fluid.2005.11.016
Compound 1: 2,6-dimethylpyridine, C7H9N, InChI=1S/C7H9N/c1-6-4-3-5-7(2)8-6/h3-5H,1-2H3, purity 99%
Compound 2: 3,5-dimethylpyridine, C7H9N, InChI=1S/C7H9N/c1-6-3-7(2)5-8-4-6/h3-5H,1-2H3, purity 98%
Compound 3: toluene, C7H8, InChI=1S/C7H8/c1-7-5-3-2-4-6-7/h2-6H,1H3

System: 2,6-dimethylpyridine; phases: Liquid, Gas
Property: Vapor or sublimation pressure, kPa (Liquid); method: CCELL:UFactor:2
Temperature, K	Vapor or sublimation pressure, kPa	uncertainty
263.15	0.065	0.007
273.15	0.143	0.011
283.15	0.296	0.017
293.15	0.575	0.028
303.15	1.061	0.048
313.15	1.868	0.055
323.15	3.154	0.066
333.15	5.129	0.082
343.15	8.066	0.106
353.15	12.31	0.14

System: 3,5-dimethylpyridine; phases: Liquid, Gas
Property: Vapor or sublimation pressure, kPa (Liquid); method: CCELL:UFactor:2
Temperature, K	Vapor or sublimation pressure, kPa	uncertainty
263.15	0.016	0.003
273.15	0.038	0.005
283.15	0.083	0.008
293.15	0.169	0.012
303.15	0.325	0.018
313.15	0.596	0.029
323.15	1.049	0.047
333.15	1.775	0.055
343.15	2.904	0.064
353.15	4.603	0.079

System: toluene; phases: Liquid, Gas
Property: Vapor or sublimation pressure, kPa (Liquid); method: CCELL:UFactor:2
Temperature, K	Vapor or sublimation pressure, kPa	uncertainty
263.15	0.468	0.024
273.15	0.908	0.043
283.15	1.666	0.056
293.15	2.911	0.07
303.15	4.873	0.093
313.15	7.852	0.13
323.15	12.226	0.185
333.15	18.462	0.264
343.15	27.122	0.374
353.15	38.867	0.524

System: toluene + 3,5-dimethylpyridine; phases: Liquid
Fixed: Temperature, K = 303.15
Fixed: Pressure, kPa = 101
Property: Excess molar enthalpy (molar enthalpy of mixing), kJ/mol (Liquid); method: Calvet calorimetry
Mole fraction of 3,5-dimethylpyridine	Excess molar enthalpy (molar enthalpy of mixing), kJ/mol	uncertainty
0.1248	0.055	0.01
0.1817	0.068	0.01
0.2194	0.078	0.01
0.3217	0.09	0.01
0.4079	0.106	0.01
0.5991	0.11	0.01
0.6191	0.107	0.01

System: toluene + 3,5-dimethylpyridine; phases: Liquid, Gas
Property: Vapor or sublimation pressure, kPa (Liquid); method: CCELL:UFactor:2
Temperature, K	Mole fraction of 3,5-dimethylpyridine	Vapor or sublimation pressure, kPa	uncertainty
263.15	0.0472	0.446	0.023
263.15	0.1889	0.365	0.02
263.15	0.4951	0.284	0.017
263.15	0.6789	0.217	0.014
263.15	0.7326	0.182	0.013
263.15	0.872	0.107	0.01
263.15	1	0.016	0.003
273.15	0.0472	0.868	0.041
273.15	0.1889	0.719	0.035
273.15	0.4951	0.564	0.028
273.15	0.6789	0.433	0.023
273.15	0.7326	0.368	0.02
273.15	0.872	0.221	0.014
273.15	1	0.038	0.005
283.15	0.0472	1.598	0.055
283.15	0.1889	1.337	0.052
283.15	0.4951	1.056	0.048
283.15	0.6789	0.815	0.038
283.15	0.7326	0.702	0.034
283.15	0.872	0.431	0.023
283.15	1	0.083	0.008
293.15	0.0472	2.801	0.068
293.15	0.1889	2.362	0.063
293.15	0.4951	1.879	0.057
293.15	0.6789	1.461	0.052
293.15	0.7326	1.272	0.057
293.15	0.872	0.798	0.037
293.15	1	0.169	0.012
303.15	0.0472	4.7	0.09
303.15	0.1889	3.989	0.08
303.15	0.4951	3.194	0.069
303.15	0.6789	2.503	0.062
303.15	0.7326	2.205	0.059
303.15	0.872	1.413	0.052
303.15	1	0.325	0.018
313.15	0.0472	7.591	0.125
313.15	0.1889	6.476	0.108
313.15	0.4951	5.217	0.09
313.15	0.6789	4.123	0.077
313.15	0.7326	3.672	0.072
313.15	0.872	2.402	0.06
313.15	1	0.596	0.029
323.15	0.0472	11.845	0.178
323.15	0.1889	10.143	0.151
323.15	0.4951	8.222	0.121
323.15	0.6789	6.556	0.1
323.15	0.7326	5.899	0.093
323.15	0.872	3.937	0.074
323.15	1	1.049	0.047
333.15	0.0472	17.924	0.253
333.15	0.1889	15.39	0.213
333.15	0.4951	12.549	0.166
333.15	0.6789	10.097	0.135
333.15	0.7326	9.178	0.125
333.15	0.872	6.243	0.095
333.15	1	1.775	0.055
343.15	0.0472	26.383	0.359
343.15	0.1889	22.697	0.3
343.15	0.4951	18.61	0.23
343.15	0.6789	15.111	0.185
343.15	0.7326	13.871	0.17
343.15	0.872	9.612	0.126
343.15	1	2.904	0.064
353.15	0.0472	37.874	0.504
353.15	0.1889	32.623	0.418
353.15	0.4951	26.893	0.318
353.15	0.6789	22.039	0.253
353.15	0.7326	20.421	0.234
353.15	0.872	14.405	0.17
353.15	1	4.603	0.079

System: 2,6-dimethylpyridine + toluene; phases: Liquid
Fixed: Temperature, K = 303.15
Fixed: Pressure, kPa = 101
Property: Excess molar enthalpy (molar enthalpy of mixing), kJ/mol (Liquid); method: Calvet calorimetry
Mole fraction of 2,6-dimethylpyridine	Excess molar enthalpy (molar enthalpy of mixing), kJ/mol	uncertainty
0.0145	0.062	0.01
0.2129	0.083	0.01
0.2993	0.085	0.01
0.3406	0.088	0.01
0.434	0.086	0.01
0.4479	0.087	0.01
0.5547	0.08	0.01
0.5885	0.076	0.01
0.6718	0.07	0.01
0.7056	0.068	0.01
0.7248	0.064	0.01
0.7746	0.05	0.01
0.8563	0.035	0.01

System: 2,6-dimethylpyridine + toluene; phases: Liquid, Gas
Property: Vapor or sublimation pressure, kPa (Liquid); method: CCELL:UFactor:2
Temperature, K	Mole fraction of 2,6-dimethylpyridine	Vapor or sublimation pressure, kPa	uncertainty
263.15	0	0.468	0.024
263.15	0.1192	0.415	0.022
263.15	0.2311	0.373	0.02
263.15	0.355	0.324	0.018
263.15	0.4998	0.26	0.016
263.15	0.6097	0.215	0.014
263.15	0.7102	0.172	0.012
263.15	0.825	0.114	0.011
263.15	1	0.065	0.007
273.15	0	0.908	0.043
273.15	0.1192	0.811	0.038
273.15	0.2311	0.728	0.035
273.15	0.355	0.634	0.031
273.15	0.4998	0.516	0.026
273.15	0.6097	0.43	0.023
273.15	0.7102	0.346	0.019
273.15	0.825	0.238	0.015
273.15	1	0.143	0.011
283.15	0	1.666	0.056
283.15	0.1192	1.496	0.054
283.15	0.2311	1.343	0.052
283.15	0.355	1.176	0.053
283.15	0.4998	0.965	0.044
283.15	0.6097	0.812	0.038
283.15	0.7102	0.66	0.032
283.15	0.825	0.467	0.024
283.15	1	0.296	0.017
293.15	0	2.911	0.07
293.15	0.1192	2.628	0.066
293.15	0.2311	2.361	0.062
293.15	0.355	2.075	0.059
293.15	0.4998	1.718	0.055
293.15	0.6097	1.457	0.052
293.15	0.7102	1.193	0.053
293.15	0.825	0.868	0.04
293.15	1	0.575	0.028
303.15	0	4.873	0.093
303.15	0.1192	4.412	0.085
303.15	0.2311	3.976	0.079
303.15	0.355	3.507	0.073
303.15	0.4998	2.927	0.066
303.15	0.6097	2.5	0.061
303.15	0.7102	2.065	0.057
303.15	0.825	1.54	0.053
303.15	1	1.061	0.048
313.15	0	7.852	0.13
313.15	0.1192	7.129	0.117
313.15	0.2311	6.441	0.106
313.15	0.355	5.705	0.095
313.15	0.4998	4.795	0.084
313.15	0.6097	4.123	0.076
313.15	0.7102	3.438	0.069
313.15	0.825	2.62	0.062
313.15	1	1.868	0.055
323.15	0	12.226	0.185
323.15	0.1192	11.128	0.164
323.15	0.2311	10.085	0.146
323.15	0.355	8.965	0.129
323.15	0.4998	7.585	0.111
323.15	0.6097	6.561	0.099
323.15	0.7102	5.523	0.088
323.15	0.825	4.292	0.076
323.15	1	3.154	0.066
333.15	0	18.462	0.264
333.15	0.1192	16.838	0.232
333.15	0.2311	15.311	0.205
333.15	0.355	13.659	0.179
333.15	0.4998	11.627	0.151
333.15	0.6097	10.115	0.132
333.15	0.7102	8.593	0.115
333.15	0.825	6.798	0.097
333.15	1	5.129	0.082
343.15	0	27.122	0.374
343.15	0.1192	24.777	0.328
343.15	0.2311	22.611	0.288
343.15	0.355	20.24	0.249
343.15	0.4998	17.325	0.207
343.15	0.6097	15.152	0.179
343.15	0.7102	12.292	0.149
343.15	0.825	10.446	0.129
343.15	1	8.066	0.106
353.15	0	38.867	0.524
353.15	0.1192	35.551	0.457
353.15	0.2311	32.565	0.401
353.15	0.355	29.246	0.345
353.15	0.4998	25.163	0.285
353.15	0.6097	22.115	0.245
353.15	0.7102	19.137	0.21
353.15	0.825	15.617	0.174
353.15	1	12.31	0.14
