Measured thermophysical data. Liquid-liquid equilibria of aqueous systems containing alcohol and ammonium sulfate
Source: Fluid Phase Equilib., 2012, 10.1016/j.fluid.2011.12.023
Compound 1: propan-2-ol, C3H8O, InChI=1S/C3H8O/c1-3(2)4/h3-4H,1-2H3, purity 99.7%
Compound 2: butan-1-ol, C4H10O, InChI=1S/C4H10O/c1-2-3-4-5/h5H,2-4H2,1H3, purity 99.5%
Compound 3: ammonium sulfate, H8N2O4S, InChI=1S/2H3N.H2O4S/c;;1-5(2,3)4/h2*1H3;(H2,1,2,3,4), purity 99%
Compound 4: water, H2O, InChI=1S/H2O/h1H2, purity 99.8%

System: propan-2-ol + water + ammonium sulfate; phases: Liquid mixture 1, Liquid mixture 2
Fixed: Pressure, kPa = 101
Property: Mass fraction of ammonium sulfate (Liquid mixture 1); method: Titration method
Temperature, K	Mass fraction of propan-2-ol	Mass fraction of ammonium sulfate	uncertainty
303.15	0	0.4343	0.0135
303.15	0.0102	0.4275	0.0229
303.15	0.0119	0.4061	0.0178
303.15	0.0121	0.3921	0.0223
303.15	0.0208	0.3714	0.0118
303.15	0.0234	0.3459	0.0123
303.15	0.0235	0.3589	0.0127
303.15	0.0269	0.3339	0.0113
303.15	0.0289	0.3323	0.0115
303.15	0.0296	0.3327	0.0114
303.15	0.0327	0.3059	0.01
303.15	0.0364	0.3109	0.0098
303.15	0.0457	0.287	0.0093
303.15	0.0488	0.2787	0.0093
303.15	0.0539	0.2589	0.0083
303.15	0.0663	0.2423	0.0076
303.15	0.0758	0.2324	0.0073
303.15	0.0802	0.2219	0.0073
303.15	0.1115	0.1872	0.0059
303.15	0.1221	0.1757	0.0055
303.15	0.1494	0.1559	0.0049
303.15	0.1864	0.1341	0.0042
303.15	0.2292	0.1061	0.0033
303.15	0.2564	0.0936	0.0029
303.15	0.3146	0.0766	0.0024
303.15	0.3523	0.0677	0.0022
303.15	0.3768	0.057	0.0019
303.15	0.4102	0.0496	0.0018
303.15	0.4271	0.0413	0.0016
303.15	0.4745	0.0358	0.0015
303.15	0.4782	0.0343	0.0015
303.15	0.4994	0.0288	0.0013
303.15	0.5115	0.0242	0.0012
303.15	0.5292	0.0203	0.0012
303.15	0.5681	0.0146	0.0011
303.15	0.6232	0.0083	0.001
303.15	0.6611	0.0058	0.001
303.15	0.687	0.0042	0.001
303.15	0.7501	0.0019	0.001
303.15	0.8324	0.0004	0.0004
303.15	0.8353	0.0004	0.0004
303.15	0.8559	0.0002	0.0002
303.15	0.879	0.0001	0.0001
303.15	0.8929	0.0001	0.0001
303.15	0.931	0	
333.15	0	0.4648	0.0144
333.15	0.015	0.4457	0.0218
333.15	0.0151	0.4467	0.0199
333.15	0.0158	0.4222	0.0154
333.15	0.0177	0.4001	0.0159
333.15	0.0182	0.4025	0.0164
333.15	0.0211	0.3833	0.0146
333.15	0.0228	0.3561	0.0141
333.15	0.0244	0.35	0.0128
333.15	0.03	0.3213	0.0114
333.15	0.0319	0.3068	0.0122
333.15	0.0407	0.2895	0.0094
333.15	0.0457	0.2659	0.009
333.15	0.049	0.2592	0.0087
333.15	0.0551	0.2353	0.0076
333.15	0.0745	0.1978	0.0064
333.15	0.0835	0.19	0.006
333.15	0.0963	0.1773	0.0056
333.15	0.1128	0.1589	0.005
333.15	0.1321	0.1428	0.0045
333.15	0.1674	0.1248	0.0039
333.15	0.2134	0.1015	0.0032
333.15	0.2678	0.0804	0.0025
333.15	0.3003	0.0664	0.0022
333.15	0.3316	0.0578	0.0019
333.15	0.3684	0.0496	0.0017
333.15	0.4144	0.0384	0.0015
333.15	0.4641	0.0287	0.0013
333.15	0.5154	0.0214	0.0012
333.15	0.6017	0.0088	0.001
333.15	0.6161	0.007	0.001
333.15	0.6882	0.004	0.001
333.15	0.7161	0.0025	0.001
333.15	0.7667	0.0012	0.001
333.15	0.8678	0.00016	0.00016
333.15	0.0177	0.4006	0.0159

System: propan-2-ol + water + ammonium sulfate; phases: Liquid mixture 2, Liquid mixture 1
Fixed: Pressure, kPa = 101.3
Property: Mass fraction of propan-2-ol (Liquid mixture 2); method: Titration method
Property: Mass fraction of water (Liquid mixture 1); method: Titration method
Property: Mass fraction of propan-2-ol (Liquid mixture 1); method: Titration method
Property: Mass fraction of water (Liquid mixture 2); method: Titration method
Property: Mass fraction of ammonium sulfate (Liquid mixture 1); method: Titration method
Temperature, K	Mass fraction of ammonium sulfate	Mass fraction of propan-2-ol	uncertainty	Mass fraction of water	uncertainty	Mass fraction of propan-2-ol	uncertainty	Mass fraction of water	uncertainty	Mass fraction of ammonium sulfate	uncertainty
303.15	0.2373	0.0677	0.0023	0.4515	0.014	0.5283		0.6939	0.0095	0.0202	0.0013
303.15	0.2515	0.0606	0.0022	0.3869	0.012	0.6041		0.6889	0.0097	0.0101	0.0012
303.15	0.2737	0.0465	0.0019	0.3515	0.011	0.6405		0.6788	0.01	0.008	0.0012
303.15	0.303	0.0323	0.0016	0.3101	0.0097	0.6839		0.6647	0.0104	0.0061	0.0012
303.15	0.3243	0.0313	0.0015	0.2951	0.0092	0.7		0.6445	0.0111	0.005	0.0012
303.15	0.3637	0.0242	0.0014	0.2687	0.0084	0.7303		0.6122	0.012	0.003	0.0012
303.15	0.3802	0.02	0.0014	0.2482	0.0078	0.75		0.6041	0.0123	0.0018	0.0012
303.15	0.4101	0.0141	0.0013	0.2226	0.007	0.7768		0.5758	0.0132	0.0006	0.0006
333.15	0.1594	0.1146	0.0037	0.3988	0.0124	0.5894		0.726	0.0085	0.0118	0.0013
333.15	0.2179	0.0624	0.0023	0.365	0.0114	0.6281		0.7197	0.0087	0.0069	0.0012
333.15	0.2677	0.0448	0.0018	0.2772	0.0087	0.7215		0.6875	0.0097	0.0013	0.0012
333.15	0.3095	0.033	0.0015	0.1994	0.0063	0.7999		0.6575	0.0107	0.0007	0.0007
333.15	0.3968	0.0212	0.0014	0.143	0.0046	0.8568		0.582	0.013	0.0002	0.0002

System: butan-1-ol + water + ammonium sulfate; phases: Liquid mixture 1, Liquid mixture 2
Fixed: Pressure, kPa = 101
Property: Mass fraction of ammonium sulfate (Liquid mixture 1); method: Density calibration data
Temperature, K	Mass fraction of butan-1-ol	Mass fraction of ammonium sulfate	uncertainty
298.15	0.0054	0.3134	0.0099
298.15	0.006	0.3042	0.0485
298.15	0.0065	0.3242	0.0092
298.15	0.0072	0.3624	0.0147
298.15	0.0073	0.2616	0.0145
298.15	0.0085	0.3419	0.0159
298.15	0.0088	0.3374	0.0123
298.15	0.0091	0.289	0.0099
298.15	0.0094	0.2441	0.0108
298.15	0.0105	0.2261	0.0107
298.15	0.014	0.1931	0.0097
298.15	0.0161	0.1718	0.0052
298.15	0.0206	0.1573	0.004
298.15	0.0246	0.1389	0.0045
298.15	0.0257	0.1353	0.0065
298.15	0.0269	0.1243	0.0092
298.15	0.033	0.1009	0.004
298.15	0.036	0.0887	0.0034
298.15	0.0424	0.07	0.0027
298.15	0.0488	0.0561	0.0033
298.15	0.0505	0.0419	0.0084
298.15	0.0593	0.0215	0.0025
298.15	0.0624	0.0147	0.0022
298.15	0.0634	0.0101	0.0023
298.15	0.0672	0.0056	0.0016
298.15	0.0073	0.3865	0.0158
333.15	0.0055	0.3336	0.0133
333.15	0.006	0.3237	0.0121
333.15	0.0088	0.2898	0.0161
333.15	0.0091	0.2801	0.016
333.15	0.0121	0.226	0.0102
333.15	0.0126	0.2467	0.0094
333.15	0.0139	0.2356	0.0179
333.15	0.0152	0.2002	0.0111
333.15	0.0186	0.178	0.0091
333.15	0.0202	0.1525	0.0099
333.15	0.0228	0.1354	0.0075
333.15	0.0257	0.1118	0.006
333.15	0.0302	0.0906	0.0037
333.15	0.0374	0.0699	0.0036
333.15	0.0434	0.0449	0.0035
333.15	0.0493	0.0298	0.0028
333.15	0.0509	0.0254	0.0029
333.15	0.06	0.0088	0.0031
333.15	0.0619	0.0033	0.0031

System: butan-1-ol + water + ammonium sulfate; phases: Liquid mixture 1, Liquid mixture 2
Fixed: Pressure, kPa = 101.3
Property: Mass fraction of butan-1-ol (Liquid mixture 1); method: Density calibration data
Property: Mass fraction of butan-1-ol (Liquid mixture 2); method: Density calibration data
Property: Mass fraction of ammonium sulfate (Liquid mixture 2); method: Density calibration data
Property: Mass fraction of water (Liquid mixture 2); method: Density calibration data
Property: Mass fraction of ammonium sulfate (Liquid mixture 1); method: Density calibration data
Temperature, K	Mass fraction of water	Mass fraction of butan-1-ol	uncertainty	Mass fraction of butan-1-ol	uncertainty	Mass fraction of ammonium sulfate	uncertainty	Mass fraction of water	uncertainty	Mass fraction of ammonium sulfate	uncertainty
298.15	0.2072	0.7928	0.0016	0.0731	0.0016	0		0.9269	0.0016	0	
298.15	0.182	0.8179	0.0022	0.0567	0.0017	0.0339		0.9094	0.0018	0.0001	0.0001
298.15	0.1804	0.8194	0.0022	0.0498	0.0017	0.0545		0.8958	0.0019	0.0003	0.0003
298.15	0.1723	0.8272	0.0022	0.0368	0.0017	0.0873		0.8759	0.0019	0.0006	0.0006
298.15	0.1676	0.8317	0.0022	0.029	0.0016	0.1167		0.8543	0.002	0.0007	0.0007
298.15	0.1594	0.8394	0.0022	0.0212	0.0016	0.1578		0.8211	0.002	0.0011	0.0011
298.15	0.1581	0.8404	0.0022	0.0151	0.0016	0.1807		0.8043	0.0021	0.0015	0.0015
298.15	0.1509	0.8474	0.0022	0.0116	0.0016	0.2355		0.7529	0.0022	0.0017	0.0016
298.15	0.1459	0.8522	0.0022	0.0081	0.0016	0.2926		0.6993	0.0022	0.0019	0.0016
298.15	0.143	0.8545	0.002	0.0073	0.0016	0.3284		0.6643	0.0022	0.0025	0.0016
333.15	0.236	0.764	0.0022	0.065	0.0016	0		0.935	0.0016	0	
333.15	0.162	0.8371	0.0023	0.0261	0.0017	0.117		0.8568	0.002	0.0008	0.0008
333.15	0.1563	0.8428	0.0023	0.0228	0.0016	0.1484		0.8289	0.0021	0.0009	0.0009
333.15	0.1294	0.8695	0.0023	0.0169	0.0016	0.1858		0.7974	0.0021	0.001	0.001
333.15	0.119	0.8799	0.0023	0.0135	0.0016	0.2226		0.764	0.0022	0.0011	0.0011
333.15	0.0939	0.9049	0.0023	0.0118	0.0016	0.2525		0.7358	0.0022	0.0012	0.0012
333.15	0.0874	0.9115	0.0023	0.0118	0.0016	0.2847		0.7036	0.0022	0.0012	0.0012
333.15	0.0626	0.9361	0.0023	0.0093	0.0016	0.329		0.6618	0.0022	0.0013	0.0013
