Measured thermophysical data. Capability study of 1-butyl-3- methylimidazolium bis(trifluoromethylsulfonyl)imide and trihexyl(tetradecyl)phosphonium bis(2,4,4-trimethylpentyl)phosphinate as solvents in the separation of 1-propanol from water
Source: Fluid Phase Equilib., 2018, 10.1016/j.fluid.2018.04.011
Compound 1: water, H2O, InChI=1S/H2O/h1H2, purity 99.8%
Compound 2: propan-1-ol, C3H8O, InChI=1S/C3H8O/c1-2-3-4/h4H,2-3H2,1H3, purity 99.5%
Compound 3: 1-butyl-3-methylimidazolium bis(trifluoromethylsulfonyl)imide, C10H15F6N3O4S2, InChI=1S/C8H15N2.C2F6NO4S2/c1-3-4-5-10-7-6-9(2)8-10;3-1(4,5)14(10,11)9-15(12,13)2(6,7)8/h6-8H,3-5H2,1-2H3;/q+1;-1, purity 99%
Compound 4: trihexyltetradecylphosphonium bis(2,4,4-trimethylpentyl)phosphinate, C48H102O2P2, InChI=1S/C32H68P.C16H35O2P/c1-5-9-13-17-18-19-20-21-22-23-24-28-32-33(29-25-14-10-6-2,30-26-15-11-7-3)31-27-16-12-8-4;1-13(9-15(3,4)5)11-19(17,18)12-14(2)10-16(6,7)8/h5-32H2,1-4H3;13-14H,9-12H2,1-8H3,(H,17,18)/q+1;/p-1, purity 98%

System: water + propan-1-ol + 1-butyl-3-methylimidazolium bis(trifluoromethylsulfonyl)imide; phases: Liquid mixture 2, Liquid mixture 1
Fixed: Pressure, kPa = 101.3
Property: Mole fraction of propan-1-ol (Liquid mixture 2); method: Chromatography
Property: Mole fraction of propan-1-ol (Liquid mixture 1); method: Chromatography
Property: Mole fraction of water (Liquid mixture 1); method: Chromatography
Temperature, K	Mole fraction of water	Mole fraction of propan-1-ol	uncertainty	Mole fraction of propan-1-ol	uncertainty	Mole fraction of water	uncertainty
283.2	0.976	0.024	0.006	0.117	0.021	0.21	
323.2	0.929	0.069	0.005	0.292	0.005	0.621	
323.2	0.913	0.082	0.005	0.259	0.005	0.684	
283.2	0.954	0.046	0.006	0.242	0.012	0.234	
283.2	0.942	0.057	0.006	0.304	0.006	0.272	
283.2	0.923	0.076	0.006	0.357	0.005	0.373	
283.2	0.899	0.099	0.006	0.372	0.005	0.449	
283.2	0.879	0.118	0.005	0.37	0.005	0.498	
283.2	0.845	0.148	0.005	0.346	0.005	0.565	
303.2	0.98	0.02	0.006	0.149	0.011	0.298	
303.2	0.962	0.038	0.006	0.269	0.007	0.346	
303.2	0.952	0.047	0.006	0.306	0.005	0.403	
303.2	0.936	0.063	0.006	0.334	0.005	0.485	
303.2	0.918	0.08	0.006	0.327	0.005	0.563	
303.2	0.892	0.104	0.006	0.296	0.005	0.637	
323.2	0.983	0.017	0.006	0.163	0.008	0.381	
323.2	0.967	0.032	0.006	0.262	0.007	0.439	
323.2	0.956	0.043	0.006	0.302	0.005	0.494	
323.2	0.942	0.056	0.006	0.306	0.005	0.565	

System: water + propan-1-ol + trihexyltetradecylphosphonium bis(2,4,4-trimethylpentyl)phosphinate; phases: Liquid mixture 2, Liquid mixture 1
Fixed: Pressure, kPa = 101.3
Property: Mole fraction of water (Liquid mixture 2); method: Chromatography
Property: Mole fraction of water (Liquid mixture 1); method: Chromatography
Property: Mole fraction of propan-1-ol (Liquid mixture 1); method: Chromatography
Temperature, K	Mole fraction of propan-1-ol	Mole fraction of water	uncertainty	Mole fraction of water	uncertainty	Mole fraction of propan-1-ol	uncertainty
283.2	0	1		0.079	0.004	0	
323.2	0.133	0.867	0.006	0.208	0.005	0.525	
323.2	0.236	0.764	0.006	0.225	0.006	0.547	
283.2	0.029	0.971	0.006	0.059	0.004	0.153	
323.2	0.38	0.619	0.006	0.254	0.006	0.573	
323.2	0.474	0.521	0.007	0.279	0.006	0.598	
283.2	0.052	0.948	0.006	0.065	0.004	0.294	
283.2	0.097	0.903	0.006	0.11	0.004	0.448	
283.2	0.199	0.801	0.006	0.122	0.004	0.502	
283.2	0.313	0.687	0.006	0.117	0.004	0.538	
283.2	0.477	0.521	0.007	0.134	0.005	0.588	
303.2	0.042	0.958	0.006	0.115	0.004	0.347	
283.2	0.633	0.36	0.006	0.175	0.005	0.659	
303.2	0	1		0.101	0.004	0	
303.2	0.082	0.918	0.006	0.145	0.004	0.475	
303.2	0.192	0.808	0.006	0.148	0.004	0.538	
303.2	0.307	0.693	0.006	0.169	0.005	0.557	
303.2	0.471	0.526	0.007	0.191	0.005	0.608	
323.2	0	1		0.112	0.004	0	
323.2	0.034	0.966	0.006	0.164	0.004	0.347	
323.2	0.082	0.918	0.006	0.2	0.004	0.49	

System: water + trihexyltetradecylphosphonium bis(2,4,4-trimethylpentyl)phosphinate; phases: Liquid mixture 1, Liquid
Fixed: Pressure, kPa = 101.3
Property: Mole fraction of water (Liquid mixture 1); method: Chromatography
Temperature, K	Mole fraction of water	uncertainty
283.2	0.079	0.004
303.2	0.101	0.004
323.2	0.112	0.004
