Measured thermophysical data. High-pressure phase equilibria for chlorosilane + carbon dioxide mixtures
Source: Fluid Phase Equilib., 2008, 10.1016/j.fluid.2008.06.017
Compound 1: chlorotrimethylsilane, C3H9ClSi, InChI=1S/C3H9ClSi/c1-5(2,3)4/h1-3H3
Compound 2: dichlorodimethylsilane, C2H6Cl2Si, InChI=1S/C2H6Cl2Si/c1-5(2,3)4/h1-2H3
Compound 3: trichloromethylsilane, CH3Cl3Si, InChI=1S/CH3Cl3Si/c1-5(2,3)4/h1H3
Compound 4: dichlorodiethylsilane, C4H10Cl2Si, InChI=1S/C4H10Cl2Si/c1-3-7(5,6)4-2/h3-4H2,1-2H3
Compound 5: carbon dioxide, CO2, InChI=1S/CO2/c2-1-3

System: chlorotrimethylsilane + carbon dioxide; phases: Liquid, Gas
Property: Critical pressure, kPa (Liquid); method: DIRECT:UFactor:96
Mole fraction of chlorotrimethylsilane	Critical pressure, kPa	uncertainty
0.0283	8200	590
0.0489	8650	590
0.0603	9020	590
0.0753	9390	590
0.0959	9640	590
0.1281	10070	590

System: chlorotrimethylsilane + carbon dioxide; phases: Liquid, Gas
Property: Critical temperature, K (Liquid); method: Visual observation in an unstirred cell
Mole fraction of chlorotrimethylsilane	Critical temperature, K	uncertainty
0.0283	315.15	4
0.0489	320.25	4
0.0603	326.25	4
0.0753	330.65	4
0.0959	336.05	4
0.1281	343.25	4

System: chlorotrimethylsilane + carbon dioxide; phases: Gas, Liquid
Property: Vapor or sublimation pressure, kPa (Gas); method: CCELL:UFactor:8
Mole fraction of chlorotrimethylsilane	Temperature, K	Vapor or sublimation pressure, kPa	uncertainty
0.0753	331.75	9430	240

System: chlorotrimethylsilane + carbon dioxide; phases: Liquid, Gas
Property: Vapor or sublimation pressure, kPa (Liquid); method: CCELL:UFactor:8
Mole fraction of chlorotrimethylsilane	Temperature, K	Vapor or sublimation pressure, kPa	uncertainty
0.0283	308.15	7510	190
0.0283	309.25	7980	200
0.0283	314.35	8140	200
0.0489	308.05	7270	180
0.0489	313.15	7910	200
0.0489	317.15	8350	210
0.0489	319.15	8540	210
0.0603	308.05	6950	170
0.0603	312.55	7480	190
0.0603	317.35	8210	200
0.0603	322.55	8710	220
0.0603	324.65	8870	220
0.0603	325.85	8980	220
0.0603	326.75	9060	220
0.0753	308.15	7140	180
0.0753	313.15	7720	190
0.0753	318.15	8220	200
0.0753	323.35	8810	220
0.0753	324.15	8860	220
0.0753	326.65	9150	230
0.0753	328.35	9240	230
0.0753	329.65	9340	230
0.0753	331.75	9430	230
0.0959	308.05	6810	170
0.0959	314.15	7520	190
0.0959	320.25	8240	200
0.0959	328.55	9110	230
0.0959	331.55	9370	230
0.0959	333.75	9540	240
0.0959	334.85	9600	240
0.1281	308.75	6580	160
0.1281	315.85	7460	190
0.1281	323.95	8370	210
0.1281	333.45	9430	230
0.1281	338.05	9740	240
0.1281	341.15	9940	250

System: dichlorodimethylsilane + carbon dioxide; phases: Liquid, Gas
Property: Critical pressure, kPa (Liquid); method: DIRECT:UFactor:96
Mole fraction of dichlorodimethylsilane	Critical pressure, kPa	uncertainty
0.021	8370	590
0.03	8550	590
0.0469	9130	590
0.057	9240	590
0.0728	9760	590
0.0803	9940	590
0.1062	10680	590
0.1245	11020	590

System: dichlorodimethylsilane + carbon dioxide; phases: Liquid, Gas
Property: Critical temperature, K (Liquid); method: Visual observation in an unstirred cell
Mole fraction of dichlorodimethylsilane	Critical temperature, K	uncertainty
0.021	312.35	4
0.03	315.85	4
0.0469	321.75	4
0.057	323.05	4
0.0728	329.45	4
0.0803	333.75	4
0.1062	335.45	4
0.1245	348.05	4

System: dichlorodimethylsilane + carbon dioxide; phases: Gas, Liquid
Property: Vapor or sublimation pressure, kPa (Gas); method: CCELL:UFactor:8
Mole fraction of dichlorodimethylsilane	Temperature, K	Vapor or sublimation pressure, kPa	uncertainty
0.021	313.15	8390	210
0.021	314.25	8510	210
0.021	316.25	8580	210
0.021	318.15	8510	210
0.03	316.45	8590	210
0.03	318.35	8760	220
0.03	319.35	8840	220
0.0469	322.25	9190	230
0.0469	323.75	9240	230
0.057	323.65	9310	230
0.057	325.05	9430	230
0.0728	330.65	9870	240
0.0728	332.75	9980	250
0.0728	335.55	10170	250
0.0803	335.85	10040	250
0.1245	348.65	11070	270

System: dichlorodimethylsilane + carbon dioxide; phases: Liquid, Gas
Property: Vapor or sublimation pressure, kPa (Liquid); method: CCELL:UFactor:8
Mole fraction of dichlorodimethylsilane	Temperature, K	Vapor or sublimation pressure, kPa	uncertainty
0.0128	308.15	8060	200
0.0128	309.25	7960	200
0.021	308.15	8140	200
0.021	310.25	8250	200
0.03	308.15	7740	190
0.03	310.15	7940	200
0.03	312.35	8170	200
0.03	314.25	8390	210
0.03	315.35	8510	210
0.0407	308.15	7900	200
0.0407	310.65	7920	200
0.0407	312.05	8150	200
0.0407	314.25	8400	210
0.0466	308.15	7620	190
0.0466	310.25	7780	190
0.0466	312.15	8050	200
0.0466	314.35	8310	210
0.0466	316.15	8490	210
0.0469	308.25	7420	180
0.0469	310.25	7790	190
0.0469	316.65	8650	220
0.0469	321.15	9060	220
0.057	308.15	7540	190
0.057	310.25	8010	200
0.057	314.25	8440	210
0.057	317.15	8730	220
0.057	319.25	8920	220
0.057	321.35	9030	220
0.057	322.45	9170	230
0.0728	308.05	7470	190
0.0728	310.35	7580	190
0.0728	312.25	7780	190
0.0728	316.35	8290	210
0.0728	319.25	8650	210
0.0728	322.15	9030	220
0.0728	324.45	9310	230
0.0728	326.45	9490	240
0.0728	328.35	9640	240
0.0803	307.85	6880	170
0.0803	311.25	7250	180
0.0803	312.55	7660	190
0.0803	315.05	7810	190
0.0803	319.75	8610	220
0.0803	320.15	8430	210
0.0803	325.35	9240	230
0.0803	325.85	9140	230
0.0803	331.45	9670	240
0.0803	332.65	9830	240
0.1062	308.15	6900	170
0.1062	311.25	7360	180
0.1062	314.15	7810	190
0.1062	317.25	8250	210
0.1062	323.35	9080	230
0.1062	333.65	10550	260
0.1245	307.95	6640	170
0.1245	316.25	7760	190
0.1245	324.15	8780	220
0.1245	331.05	9490	240
0.1245	337.45	10190	250
0.1245	343.55	10740	270
0.1245	346.05	10860	270
0.1245	347.35	10970	270

System: trichloromethylsilane + carbon dioxide; phases: Liquid, Gas
Property: Critical pressure, kPa (Liquid); method: DIRECT:UFactor:96
Mole fraction of trichloromethylsilane	Critical pressure, kPa	uncertainty
0.0252	8590	590
0.0394	9080	590
0.0558	9430	590
0.0779	10080	590
0.1023	10290	590
0.1356	10740	590

System: trichloromethylsilane + carbon dioxide; phases: Liquid, Gas
Property: Critical temperature, K (Liquid); method: Visual observation in an unstirred cell
Mole fraction of trichloromethylsilane	Critical temperature, K	uncertainty
0.0252	314.15	4
0.0394	319.75	4
0.0558	324.55	4
0.0779	332.65	4
0.1023	339.85	4
0.1356	347.15	4

System: trichloromethylsilane + carbon dioxide; phases: Gas, Liquid
Property: Vapor or sublimation pressure, kPa (Gas); method: CCELL:UFactor:8
Mole fraction of trichloromethylsilane	Temperature, K	Vapor or sublimation pressure, kPa	uncertainty
0.0394	320.25	9110	230
0.0558	326.65	9610	240
0.0779	333.85	10180	250

System: trichloromethylsilane + carbon dioxide; phases: Liquid, Gas
Property: Vapor or sublimation pressure, kPa (Liquid); method: CCELL:UFactor:8
Mole fraction of trichloromethylsilane	Temperature, K	Vapor or sublimation pressure, kPa	uncertainty
0.0252	308.15	7810	190
0.0252	312.15	8430	210
0.0252	313.65	8520	210
0.0252	315.15	8670	220
0.0394	308.15	7410	180
0.0394	312.15	8000	200
0.0394	316.15	8610	210
0.0394	318.05	9100	230
0.0394	319.25	9040	220
0.0558	308.05	7520	190
0.0558	312.25	7950	200
0.0558	316.65	8550	210
0.0558	319.25	8820	220
0.0558	321.45	9060	230
0.0558	322.45	9180	230
0.0558	323.65	9330	230
0.0779	308.05	7060	180
0.0779	314.15	7890	200
0.0779	321.35	8890	220
0.0779	328.55	9820	240
0.0779	330.85	10050	250
0.1023	307.95	6700	170
0.1023	313.15	7440	190
0.1023	320.05	8480	210
0.1023	324.15	9040	220
0.1023	331.05	9880	250
0.1023	335.25	10190	250
0.1023	337.35	10180	250
0.1023	338.55	10220	250
0.1356	307.85	6610	160
0.1356	316.75	7590	190
0.1356	324.25	8520	210
0.1356	333.45	9550	240
0.1356	343.75	10130	250
0.1356	345.55	10580	260

System: carbon dioxide + dichlorodiethylsilane; phases: Liquid, Gas
Property: Critical pressure, kPa (Liquid); method: DIRECT:UFactor:96
Mole fraction of dichlorodiethylsilane	Critical pressure, kPa	uncertainty
0.0115	8470	590
0.012	8500	590
0.0149	8470	590
0.0165	8580	590
0.023	9500	590
0.023	9450	590
0.0296	9790	590
0.0508	11180	590
0.0592	11810	590

System: carbon dioxide + dichlorodiethylsilane; phases: Liquid, Gas
Property: Critical temperature, K (Liquid); method: Visual observation in an unstirred cell
Mole fraction of dichlorodiethylsilane	Critical temperature, K	uncertainty
0.0115	312.95	4
0.012	313.15	4
0.0149	312.65	4
0.0165	313.25	4
0.023	320.35	4
0.023	321.25	4
0.0296	323.35	4
0.0508	331.45	4
0.0592	335.75	4

System: carbon dioxide + dichlorodiethylsilane; phases: Gas, Liquid
Property: Vapor or sublimation pressure, kPa (Gas); method: CCELL:UFactor:8
Mole fraction of dichlorodiethylsilane	Temperature, K	Vapor or sublimation pressure, kPa	uncertainty
0.023	322.15	9530	240
0.023	328.55	10230	250
0.0296	328.45	10310	260
0.0508	332.95	11320	280
0.0592	337.65	12200	300

System: carbon dioxide + dichlorodiethylsilane; phases: Liquid, Gas
Property: Vapor or sublimation pressure, kPa (Liquid); method: CCELL:UFactor:8
Mole fraction of dichlorodiethylsilane	Temperature, K	Vapor or sublimation pressure, kPa	uncertainty
0.011	308.15	7800	190
0.011	308.75	7820	190
0.011	309.25	7960	200
0.011	309.75	7930	200
0.011	310.15	8130	200
0.011	310.75	8100	200
0.0115	308.05	7970	200
0.0115	310.75	8170	200
0.012	308.25	7970	200
0.012	310.95	8290	210
0.012	318.15	9050	220
0.0149	308.15	7930	200
0.0149	309.25	8110	200
0.0149	310.35	8320	210
0.0149	311.25	8400	210
0.0149	312.25	8480	210
0.0149	312.45	8510	210
0.0165	308.15	8120	200
0.023	308.15	7860	200
0.023	309.65	8100	200
0.023	311.15	8360	210
0.023	312.65	8560	210
0.023	313.25	8520	210
0.023	313.75	8680	220
0.023	314.75	8870	220
0.023	315.15	8730	220
0.023	316.25	8850	220
0.023	318.15	9120	230
0.023	318.55	9310	230
0.023	319.05	9350	230
0.023	320.35	9360	230
0.023	308.15	7810	190
0.023	315.15	8700	220
0.0296	308.15	7880	200
0.0296	310.75	8250	210
0.0296	313.75	8710	220
0.0296	316.25	9040	220
0.0296	318.15	9290	230
0.0296	320.65	9540	240
0.0508	308.55	7490	190
0.0508	313.45	8200	200
0.0508	317.45	8760	220
0.0508	321.95	9450	230
0.0508	325.95	10100	250
0.0508	328.05	10300	260
0.0508	329.45	10510	260
0.0508	330.75	10750	270
0.0592	308.25	7340	180
0.0592	312.55	7920	200
0.0592	317.15	8660	220
0.0592	323.35	9690	240
0.0592	327.35	10380	260
0.0592	329.65	10680	270
0.0592	331.55	10990	270
0.0592	333.15	11200	280
0.0592	334.75	11480	290
