Measured thermophysical data. Solubility of flavone, 6-methoxyflavone and anthracene in supercritical CO2 with/without a co-solvent of ethanol correlated by using a newly proposed entropy-based solubility parameter
Source: Fluid Phase Equilib., 2016, 10.1016/j.fluid.2016.05.009
Compound 1: carbon dioxide, CO2, InChI=1S/CO2/c2-1-3, purity 99.5%
Compound 2: ethanol, C2H6O, InChI=1S/C2H6O/c1-2-3/h3H,2H2,1H3, purity 99.5%
Compound 3: flavone, C15H10O2, InChI=1S/C15H10O2/c16-13-10-15(11-6-2-1-3-7-11)17-14-9-5-4-8-12(13)14/h1-10H, purity 99.5%
Compound 4: 6-methoxyflavone, C16H12O3, InChI=1S/C16H12O3/c1-18-12-7-8-15-13(9-12)14(17)10-16(19-15)11-5-3-2-4-6-11/h2-10H,1H3, purity 99%
Compound 5: anthracene, C14H10, InChI=1S/C14H10/c1-2-6-12-10-14-8-4-3-7-13(14)9-11(12)5-1/h1-10H, purity 99.5%

System: flavone + ethanol + carbon dioxide; phases: Gas, Liquid
Fixed: Temperature, K = 333
Fixed: Pressure, kPa = 22000
Property: Mole fraction of flavone (Gas); method: Peng-Robinson EOS
Mole fraction of ethanol	Mole fraction of flavone	uncertainty
0.056	0.00285	0.00152
0.118	0.00753	0.00205
0.205	0.01789	0.0024

System: 6-methoxyflavone + ethanol + carbon dioxide; phases: Gas, Liquid
Fixed: Temperature, K = 333
Fixed: Pressure, kPa = 22000
Property: Mole fraction of 6-methoxyflavone (Gas); method: Peng-Robinson EOS
Mole fraction of ethanol	Mole fraction of 6-methoxyflavone	uncertainty
0.057	0.000304	0.000174
0.114	0.000553	0.000158
0.23	0.000745	0.000154

System: anthracene + ethanol + carbon dioxide; phases: Gas, Liquid
Fixed: Temperature, K = 333
Fixed: Pressure, kPa = 22000
Property: Mole fraction of anthracene (Gas); method: Peng-Robinson EOS
Mole fraction of ethanol	Mole fraction of anthracene	uncertainty
0	0.000121	0.000121
0.049	0.00019	0.000152
0.095	0.000226	0.000151
0.184	0.000285	0.000154
0.335	0.000624	0.000155
0.402	0.000702	0.000152

System: anthracene + carbon dioxide; phases: Gas, Liquid
Property: Boiling temperature at pressure P, K (Gas); method: Peng-Robinson EOS
Mole fraction of anthracene	Pressure, kPa	Boiling temperature at pressure P, K	uncertainty
0.000121	22000	333	
