Measured thermophysical data. Solubility of CO2 in aqueous strontium hydroxide
Source: Fluid Phase Equilib., 2012, 10.1016/j.fluid.2012.08.032
Compound 1: strontium hydroxide, H2O2Sr, InChI=1S/2H2O.Sr/h2*1H2;/q;;+2/p-2, purity 99%
Compound 2: water, H2O, InChI=1S/H2O/h1H2, purity 99.9%
Compound 3: carbon dioxide, CO2, InChI=1S/CO2/c2-1-3, purity 99%

System: carbon dioxide + water + strontium hydroxide; phases: Liquid, Gas
Property: Mass fraction of carbon dioxide (Liquid); method: Microprocessor based CO2 analyzer
Temperature, K	Solvent: Mass ratio of component to other component of binary solvent of strontium hydroxide	Pressure, kPa of carbon dioxide	Mass fraction of carbon dioxide	uncertainty
303.14	0.12548	15.199	0.02244	0.00449
303.14	0.19214	15.199	0.03716	0.00744
303.14	0.2608	15.199	0.05694	0.01139
313.14	0.12548	15.199	0.02336	0.00467
313.14	0.19214	15.199	0.03755	0.00751
323.14	0.12548	15.199	0.02517	0.00504
323.14	0.19214	15.199	0.04297	0.0086
323.14	0.2608	15.199	0.06574	0.01315
333.14	0.12548	15.199	0.02816	0.00563
333.14	0.19214	15.199	0.04877	0.00976
333.14	0.2608	15.199	0.07506	0.01502
313.14	0.2608	10.133	0.06371	0.01278
313.14	0.2608	12.666	0.06556	0.01312
313.14	0.2608	15.199	0.06723	0.01345
313.14	0.2608	17.732	0.07119	0.01424
313.14	0.2608	20.265	0.0726	0.01456
