Measured thermophysical data. Modeling solubility and acid-base properties of some polar side chain amino acids in NaCl and (CH3)4NCl aqueous solutions at different ionic strengths and temperatures
Source: Fluid Phase Equilib., 2018, 10.1016/j.fluid.2017.11.030
Compound 1: sodium chloride, ClNa, InChI=1S/ClH.Na/h1H;/q;+1/p-1, purity 99%
Compound 2: L-aminosuccinic acid, C4H7NO4, InChI=1S/C4H7NO4/c5-2(4(8)9)1-3(6)7/h2H,1,5H2,(H,6,7)(H,8,9)/t2-/m0/s1, purity 99.5%
Compound 3: L-glutamic acid, C5H9NO4, InChI=1S/C5H9NO4/c6-3(5(9)10)1-2-4(7)8/h3H,1-2,6H2,(H,7,8)(H,9,10)/t3-/m0/s1, purity 99.5%
Compound 4: L-glutamine, C5H10N2O3, InChI=1S/C5H10N2O3/c6-3(5(9)10)1-2-4(7)8/h3H,1-2,6H2,(H2,7,8)(H,9,10)/t3-/m0/s1, purity 99.5%
Compound 5: L-histidine, C6H9N3O2, InChI=1S/C6H9N3O2/c7-5(6(10)11)1-4-2-8-3-9-4/h2-3,5H,1,7H2,(H,8,9)(H,10,11)/t5-/m0/s1, purity 99.5%
Compound 6: tetramethylammonium chloride, C4H12ClN, InChI=1S/C4H12N.ClH/c1-5(2,3)4;/h1-4H3;1H/q+1;/p-1, purity 99%
Compound 7: water, H2O, InChI=1S/H2O/h1H2, purity 99.9%

System: sodium chloride + L-aminosuccinic acid + water; phases: Liquid, Crystal
Fixed: Temperature, K = 298.15
Fixed: Pressure, kPa = 101
Property: Molality, mol/kg of L-aminosuccinic acid (Liquid); method: potentiometric titration
Solvent: Molality, mol/kg of sodium chloride	Molality, mol/kg of L-aminosuccinic acid	uncertainty
0	0.04345	0.00088
0	0.04285	0.00086
0.502	0.05768	0.00116
1.008	0.05781	0.00116
2.364	0.06109	0.00123
2.613	0.05728	0.00115
3.126	0.06026	0.00121
3.678	0.05808	0.00117
4.992	0.06653	0.00134
5.556	0.05875	0.00118

System: tetramethylammonium chloride + L-aminosuccinic acid + water; phases: Liquid, Crystal
Fixed: Temperature, K = 298.15
Fixed: Pressure, kPa = 101
Property: Molality, mol/kg of L-aminosuccinic acid (Liquid); method: potentiometric titration
Solvent: Molality, mol/kg of tetramethylammonium chloride	Molality, mol/kg of L-aminosuccinic acid	uncertainty
0	0.04345	0.00087
0	0.04285	0.00086
0.52	0.04046	0.00081
1.094	0.04436	0.00089
1.094	0.04436	0.00089
3.334	0.02594	0.00052
4.536	0.01888	0.00038

System: sodium chloride + L-glutamic acid + water; phases: Liquid, Crystal
Fixed: Temperature, K = 298.15
Fixed: Pressure, kPa = 101
Property: Molality, mol/kg of L-glutamic acid (Liquid); method: potentiometric titration
Solvent: Molality, mol/kg of sodium chloride	Molality, mol/kg of L-glutamic acid	uncertainty
0.001	0.06194	0.00125
0.006	0.06194	0.00125
0.498	0.06546	0.00132
0.484	0.06546	0.00132
0.484	0.06546	0.00132
0.507	0.06561	0.00132
0.984	0.06918	0.00139
0.994	0.06966	0.0014
0.983	0.06966	0.0014
0.974	0.06966	0.0014
1.971	0.07211	0.00145
1.967	0.07211	0.00145
1.971	0.07112	0.00143
1.967	0.07161	0.00144
3.024	0.07194	0.00145
3.017	0.07145	0.00144
3.024	0.07194	0.00145
5.245	0.07447	0.0015
5.245	0.07447	0.0015
5.246	0.07447	0.0015

System: sodium chloride + L-glutamine + water; phases: Liquid, Crystal
Fixed: Temperature, K = 298.15
Fixed: Pressure, kPa = 101
Property: Molality, mol/kg of L-glutamine (Liquid); method: potentiometric titration
Solvent: Molality, mol/kg of sodium chloride	Molality, mol/kg of L-glutamine	uncertainty
0	0.216	0.005
0	0.217	0.005
0.101	0.27	0.006
0.101	0.265	0.005
0.51	0.288	0.006
0.51	0.292	0.006
1.02	0.314	0.006
1.02	0.316	0.006
1.55	0.326	0.007
1.55	0.33	0.007
3.2	0.367	0.007
3.2	0.37	0.007
5.61	0.396	0.008
5.61	0.403	0.008

System: tetramethylammonium chloride + L-glutamine + water; phases: Liquid, Crystal
Fixed: Temperature, K = 298.15
Fixed: Pressure, kPa = 101
Property: Molality, mol/kg of L-glutamine (Liquid); method: potentiometric titration
Solvent: Molality, mol/kg of tetramethylammonium chloride	Molality, mol/kg of L-glutamine	uncertainty
0.145	0.241	0.005
0.547	0.205	0.004
1.209	0.193	0.004
2.017	0.106	0.002
3.961	0.02911	0.00059
4.888	0.01766	0.00036

System: sodium chloride + L-histidine + water; phases: Liquid, Crystal
Fixed: Temperature, K = 298.15
Fixed: Pressure, kPa = 101
Property: Molality, mol/kg of L-histidine (Liquid); method: potentiometric titration
Solvent: Molality, mol/kg of sodium chloride	Molality, mol/kg of L-histidine	uncertainty
0	0.27	0.005
0	0.271	0.005
0.1	0.27	0.005
0.1	0.271	0.005
0.506	0.286	0.006
0.506	0.287	0.006
1.022	0.292	0.006
1.022	0.294	0.006
1.548	0.292	0.006
1.548	0.292	0.006
1.548	0.294	0.006
2.086	0.284	0.006
2.086	0.286	0.006
3.199	0.267	0.005
3.199	0.271	0.005
5.606	0.232	0.005
5.606	0.236	0.005

System: L-aminosuccinic acid + water; phases: Liquid, Crystal
Fixed: Temperature, K = 298.15
Fixed: Pressure, kPa = 101
Property: Molality, mol/kg of L-aminosuccinic acid (Liquid); method: potentiometric titration
Molality, mol/kg of L-aminosuccinic acid	uncertainty
0.04345	0.00088
0.04285	0.00086

System: L-glutamine + water; phases: Liquid, Crystal
Fixed: Temperature, K = 298.15
Fixed: Pressure, kPa = 101
Property: Molality, mol/kg of L-glutamine (Liquid); method: potentiometric titration
Molality, mol/kg of L-glutamine	uncertainty
0.216	0.005
0.217	0.005

System: L-histidine + water; phases: Liquid, Crystal
Fixed: Temperature, K = 298.15
Fixed: Pressure, kPa = 101
Property: Molality, mol/kg of L-histidine (Liquid); method: potentiometric titration
Molality, mol/kg of L-histidine	uncertainty
0.27	0.005
0.271	0.005
