Measured thermophysical data. Density, surface tension and viscosity of liquid binary Al-Zn and ternary Al-Li-Zn alloys
Source: Fluid Phase Equilib., 2016, 10.1016/j.fluid.2016.03.013
Compound 1: aluminum, Al, InChI=1S/Al, purity 99.999%
Compound 2: zinc, Zn, InChI=1S/Zn, purity 99.999%
Compound 3: lithium, Li, InChI=1S/Li, purity 99.95%

System: aluminum + zinc; phases: Liquid
Fixed: Pressure, kPa = 101
Property: Mass density, kg/m3 (Liquid); method: draining crucible method
Temperature, K	Mole fraction of aluminum	Mass density, kg/m3	uncertainty
873	0.51	4204	86
873	0.25	5201	86
923	0.83	2720	89
923	0.51	4138	88
923	0.25	5139	86
973	0.83	2680	89
973	0.51	4089	88
973	0.25	5089	86
1023	0.83	2530	90
1023	0.51	3995	88
1023	0.25	5011	86

System: aluminum + zinc; phases: Liquid
Fixed: Pressure, kPa = 101
Property: Viscosity, Pa*s (Liquid); method: Draining crucible
Temperature, K	Mole fraction of aluminum	Viscosity, Pa*s	uncertainty
873	0.51	0.001633	9.5e-05
873	0.25	0.001917	9.5e-05
923	0.83	0.001356	9.4e-05
923	0.51	0.001542	9.4e-05
923	0.25	0.001791	9.5e-05
973	0.83	0.001271	9.4e-05
973	0.51	0.001448	9.4e-05
973	0.25	0.001696	9.5e-05
1023	0.83	0.001222	9.4e-05
1023	0.51	0.001405	9.4e-05
1023	0.25	0.001643	9.4e-05

System: aluminum + zinc; phases: Liquid, Air at 1 atmosphere
Property: Surface tension liquid-gas, N/m (Liquid); method: draining crucible method
Temperature, K	Mole fraction of aluminum	Surface tension liquid-gas, N/m	uncertainty
873	0.51	0.8308	0.0487
873	0.25	0.8021	0.0487
923	0.83	0.8587	0.0487
923	0.51	0.8196	0.0487
923	0.25	0.7894	0.0487
973	0.83	0.8481	0.0487
973	0.51	0.8065	0.0487
973	0.25	0.7793	0.0487
1023	0.83	0.8369	0.0487
1023	0.51	0.7958	0.0487
1023	0.25	0.7638	0.0487

System: aluminum + lithium + zinc; phases: Liquid
Fixed: Pressure, kPa = 101
Property: Mass density, kg/m3 (Liquid); method: draining crucible method
Temperature, K	Mole fraction of aluminum	Mole fraction of lithium	Mass density, kg/m3	uncertainty
823	0.35	0.32	3397	146
853	0.2	0.2	4559	132
873	0.35	0.32	3144	146
873	0.2	0.2	4535	132
898	0.35	0.32	3087	147
923	0.56	0.33	1842	109
933	0.35	0.32	2953	140
973	0.56	0.33	1675	111
973	0.35	0.32	2887	136
973	0.2	0.2	4211	130
1023	0.56	0.33	1439	111
1023	0.2	0.2	4086	130

System: aluminum + lithium + zinc; phases: Liquid
Fixed: Pressure, kPa = 101
Property: Viscosity, Pa*s (Liquid); method: Draining crucible
Temperature, K	Mole fraction of aluminum	Mole fraction of lithium	Viscosity, Pa*s	uncertainty
823	0.35	0.32	0.002231	0.000239
853	0.2	0.2	0.002306	0.000239
873	0.35	0.32	0.002085	0.000239
873	0.2	0.2	0.002241	0.000239
898	0.35	0.32	0.002024	0.000239
923	0.56	0.33	0.001751	0.000239
933	0.35	0.32	0.001951	0.000239
973	0.56	0.33	0.001627	0.000239
973	0.35	0.32	0.001891	0.000239
973	0.2	0.2	0.002058	0.000239
1023	0.56	0.33	0.001561	0.000239
1023	0.2	0.2	0.002016	0.000239

System: aluminum + lithium + zinc; phases: Liquid, Air at 1 atmosphere
Property: Surface tension liquid-gas, N/m (Liquid); method: draining crucible method
Temperature, K	Mole fraction of aluminum	Mole fraction of lithium	Surface tension liquid-gas, N/m	uncertainty
823	0.35	0.32	0.7356	0.031
853	0.2	0.2	0.7395	0.0309
873	0.35	0.32	0.7178	0.0312
873	0.2	0.2	0.7308	0.0309
898	0.35	0.32	0.6995	0.0312
923	0.56	0.33	0.6978	0.0309
933	0.35	0.32	0.6765	0.0322
973	0.56	0.33	0.6731	0.0309
973	0.35	0.32	0.6588	0.0322
973	0.2	0.2	0.6993	0.031
1023	0.56	0.33	0.6468	0.0309
1023	0.2	0.2	0.6802	0.031
