Measured thermophysical data. High-pressure vapor liquid equilibria of systems containing ethylene glycol, water and methane Experimental measurements and modeling
Source: Fluid Phase Equilib., 2007, 10.1016/j.fluid.2006.11.001
Compound 1: 1,2-ethanediol, C2H6O2, InChI=1S/C2H6O2/c3-1-2-4/h3-4H,1-2H2
Compound 2: water, H2O, InChI=1S/H2O/h1H2
Compound 3: methane, CH4, InChI=1S/CH4/h1H4

System: methane + 1,2-ethanediol; phases: Liquid, Gas
Property: Mole fraction of methane (Liquid); method: gas volume after depressurization
Temperature, K	Pressure, kPa	Mole fraction of methane	uncertainty
273.25	9980	0.0116	0.00116
283.29	5000	0.00595	0.000595
298.25	10020	0.01149	0.001149
298.33	5020	0.00595	0.000595
323.35	5020	0.00606	0.000606
323.45	10080	0.01146	0.001146

System: methane + 1,2-ethanediol; phases: Gas, Liquid
Property: Mole fraction of methane (Gas); method: Chromatography
Temperature, K	Pressure, kPa	Mole fraction of methane	uncertainty
278.15	5000	1.38e-06	1.4e-07
278.15	10000	1.38e-06	1.4e-07
278.15	20000	2.25e-06	2.3e-07
298.15	5000	4.93e-06	5e-07
298.15	10000	8.44e-06	8.5e-07
298.15	20000	8.68e-06	8.8e-07
323.15	5000	3.137e-05	3.15e-06
323.15	10000	3.015e-05	3.03e-06
323.15	20000	4.735e-05	4.76e-06

System: methane + 1,2-ethanediol + water; phases: Liquid, Gas
Property: Mole fraction of 1,2-ethanediol (Liquid); method: Chromatography
Property: Mole fraction of 1,2-ethanediol (Gas); method: Chromatography
Property: Mole fraction of water (Gas); method: Chromatography
Temperature, K	Pressure, kPa	Mole fraction of methane	Mole fraction of 1,2-ethanediol	uncertainty	Mole fraction of 1,2-ethanediol	uncertainty	Mole fraction of water	uncertainty
278.15	5000	0.002474	0.2293	0.0231	1.9e-07	2e-08	0.000152	
278.15	10000	0.005426	0.2292	0.0231	2.8e-07	3e-08	0.0001	
278.15	20000	0.005853	0.2289	0.023	4.9e-07	5e-08	7.6e-05	
298.15	5000	0.003956	0.2284	0.023	9.7e-07	1e-07	0.0004488	
298.15	10000	0.006202	0.2281	0.0229	7.9e-07	8e-08	0.000305	
298.15	20000	0.008726	0.228	0.0229	2.28e-06	2.3e-07	0.0002316	
