Measured thermophysical data. Critical phenomena in {bromobenzene + 1-hexyl-3- methylimidazolium bis(trifluoromethylsulfonyl)imide} binary solution
Source: Fluid Phase Equilib., 2016, 10.1016/j.fluid.2016.02.011
Compound 1: 1-hexyl-3-methylimidazolium bis[(trifluoromethyl)sulfonyl]imide, C12H19F6N3O4S2, InChI=1S/C10H19N2.C2F6NO4S2/c1-3-4-5-6-7-12-9-8-11(2)10-12;3-1(4,5)14(10,11)9-15(12,13)2(6,7)8/h8-10H,3-7H2,1-2H3;/q+1;-1, purity 99%
Compound 2: bromobenzene, C6H5Br, InChI=1S/C6H5Br/c7-6-4-2-1-3-5-6/h1-5H, purity 99%

System: 1-hexyl-3-methylimidazolium bis[(trifluoromethyl)sulfonyl]imide; phases: Liquid
Fixed: Pressure, kPa = 100
Property: Refractive index (Na D-line) (Liquid); method: minimum deviations angle
Temperature, K	Refractive index (Na D-line)	uncertainty
282.994	1.4329	0.0003
284.259	1.4324	0.0003
285.796	1.432	0.0003
286.908	1.4317	0.0003
288.054	1.4313	0.0003
289.174	1.431	0.0003
290.218	1.4307	0.0003
291.276	1.4304	0.0003
292.375	1.4301	0.0003
293.389	1.4298	0.0003

System: bromobenzene; phases: Liquid
Fixed: Pressure, kPa = 100
Property: Refractive index (Na D-line) (Liquid); method: minimum deviations angle
Temperature, K	Refractive index (Na D-line)	uncertainty
282.996	1.5612	0.0003
284.401	1.5605	0.0003
285.754	1.5598	0.0003
286.956	1.5591	0.0003
287.983	1.5585	0.0003
288.987	1.558	0.0003
290.113	1.5574	0.0003
291.22	1.5568	0.0003
292.323	1.5563	0.0003
293.323	1.5557	0.0003

System: bromobenzene + 1-hexyl-3-methylimidazolium bis[(trifluoromethyl)sulfonyl]imide; phases: Liquid
Fixed: Pressure, kPa = 100
Property: Refractive index (Na D-line) (Liquid); method: minimum deviations angle
Temperature, K	Mole fraction of 1-hexyl-3-methylimidazolium bis[(trifluoromethyl)sulfonyl]imide	Refractive index (Na D-line)	uncertainty
292.295	0.051	1.538	0.0013
292.289	0.052	1.5378	0.0013
292.274	0.053	1.5373	0.0013
292.262	0.054	1.5371	0.0014
292.247	0.055	1.5369	0.0011
292.237	0.055	1.5368	0.0013
292.209	0.056	1.5365	0.0018
292.154	0.058	1.536	0.0009
292.082	0.059	1.5356	0.0009
292.037	0.06	1.5354	0.0015
291.98	0.061	1.5351	0.0015
291.914	0.062	1.5349	0.0013
291.835	0.063	1.5346	0.0006
291.742	0.064	1.5343	0.0013
291.642	0.065	1.5341	0.0013
291.536	0.066	1.5338	0.0013
291.435	0.067	1.5336	0.0013
291.158	0.069	1.533	0.0013
290.823	0.072	1.5324	0.0013
290.328	0.074	1.5318	0.0014
289.818	0.077	1.5313	0.0013
289.128	0.08	1.5307	0.0013
288.417	0.083	1.5304	0.0013
287.529	0.086	1.53	0.0013
285.727	0.091	1.5294	0.0013
284.531	0.094	1.5291	0.0013
282.971	0.099	1.5287	0.0013
292.295	0.043	1.5407	0.0013
292.289	0.042	1.541	0.0014
292.274	0.041	1.5414	0.0014
292.262	0.04	1.5416	0.0013
292.247	0.039	1.5419	0.001
292.237	0.039	1.5421	0.0014
292.209	0.038	1.5424	0.0012
292.154	0.037	1.5428	0.0011
292.082	0.036	1.5433	0.0012
292.037	0.035	1.5436	0.0024
291.98	0.034	1.5439	0.002
291.914	0.033	1.5442	0.0007
291.835	0.033	1.5445	0.0011
291.742	0.032	1.5448	0.0016
291.642	0.031	1.5451	0.0013
291.536	0.031	1.5453	0.0014
291.435	0.03	1.5456	0.0014
291.158	0.029	1.5462	0.0013
290.823	0.027	1.547	0.0013
290.328	0.026	1.5478	0.0013
289.818	0.024	1.5487	0.0014
289.128	0.022	1.5497	0.0013
288.417	0.021	1.5506	0.0013
287.529	0.019	1.5516	0.0013
285.727	0.017	1.5534	0.0013
284.531	0.016	1.5545	0.0013
282.971	0.014	1.5558	0.0013

System: bromobenzene + 1-hexyl-3-methylimidazolium bis[(trifluoromethyl)sulfonyl]imide; phases: Liquid
Fixed: Pressure, kPa = 100
Property: Refractive index (Na D-line) (Liquid); method: minimum deviations angle
Temperature, K	Mole fraction of 1-hexyl-3-methylimidazolium bis[(trifluoromethyl)sulfonyl]imide	Refractive index (Na D-line)	uncertainty
282.996	0	1.5612	0.0003
284.401	0	1.5605	0.0003
285.754	0	1.5598	0.0003
286.956	0	1.5591	0.0003
287.983	0	1.5585	0.0003
288.987	0	1.558	0.0003
290.113	0	1.5574	0.0003
291.22	0	1.5568	0.0003
292.323	0	1.5563	0.0003
293.323	0	1.5557	0.0003
282.994	1	1.4329	0.0003
284.259	1	1.4324	0.0003
285.796	1	1.432	0.0003
286.908	1	1.4317	0.0003
288.054	1	1.4313	0.0003
289.174	1	1.431	0.0003
290.218	1	1.4307	0.0003
291.276	1	1.4304	0.0003
292.375	1	1.4301	0.0003
293.389	1	1.4298	0.0003
282.998	0.012	1.5566	0.0008
284.67	0.012	1.5558	0.0007
286.574	0.012	1.5548	0.0007
288.267	0.012	1.5539	0.0007
290.227	0.012	1.5529	0.0008
291.338	0.012	1.5524	0.0007
292.295	0.012	1.5518	0.0008
293.387	0.012	1.5513	0.0008
290.87	0.026	1.5473	0.0007
292.032	0.026	1.5467	0.0007
293.102	0.026	1.5461	0.0007
294.221	0.026	1.5456	0.0007
295.324	0.026	1.545	0.0008
296.657	0.026	1.5543	0.0009
298.644	0.026	1.5433	0.0007
293.347	0.041	1.5407	0.0008
294.446	0.041	1.5401	0.0007
295.82	0.041	1.5394	0.0007
297.105	0.041	1.5388	0.0007
298.487	0.041	1.5381	0.0008
299.633	0.041	1.5375	0.0007
300.839	0.041	1.5369	0.0008
293.349	0.06	1.5348	0.0006
294.491	0.06	1.5343	0.0007
295.656	0.06	1.5337	0.0007
296.857	0.06	1.5331	0.0013
297.944	0.06	1.5325	0.0007
299.033	0.06	1.532	0.0007
299.983	0.06	1.5315	0.0007
291.486	0.075	1.5311	0.0007
292.209	0.075	1.5307	0.0006
293.496	0.075	1.5301	0.0006
294.543	0.075	1.5296	0.0007
295.84	0.075	1.529	0.0007
297.16	0.075	1.5284	0.0007
298.697	0.075	1.5277	0.0007
288.665	0.085	1.5295	0.0007
289.79	0.085	1.529	0.0006
290.812	0.085	1.5286	0.0006
292.143	0.085	1.5279	0.0006
293.006	0.085	1.5276	0.0007
293.929	0.085	1.5271	0.0007
295.101	0.085	1.5266	0.0006
284.387	0.098	1.5279	0.0007
285.533	0.098	1.5273	0.0007
287.59	0.098	1.5264	0.0007
289.81	0.098	1.5254	0.0006
291.71	0.098	1.5245	0.0007
293.74	0.098	1.5236	0.0007
295.101	0.098	1.523	0.0006
282.959	0.126	1.5213	0.0006
284.887	0.126	1.5204	0.0006
286.981	0.126	1.5195	0.0006
289.115	0.126	1.5186	0.0006
291.142	0.126	1.5177	0.0005
292.212	0.126	1.5172	0.0005
293.223	0.126	1.5167	0.0005
283.051	0.203	1.5043	0.0005
285.056	0.203	1.5035	0.0005
287.01	0.203	1.5027	0.0005
289.175	0.203	1.5018	0.0005
291.093	0.203	1.501	0.0005
292.216	0.203	1.5005	0.0005
293.222	0.203	1.5001	0.0005

System: bromobenzene + 1-hexyl-3-methylimidazolium bis[(trifluoromethyl)sulfonyl]imide; phases: Liquid mixture 1, Liquid mixture 2
Property: Upper consolute composition: mole fraction of 1-hexyl-3-methylimidazolium bis[(trifluoromethyl)sulfonyl]imide (Liquid mixture 1); method: other
Temperature, K	Upper consolute composition: mole fraction of 1-hexyl-3-methylimidazolium bis[(trifluoromethyl)sulfonyl]imide	uncertainty
292.305	0.048	0.001

System: bromobenzene + 1-hexyl-3-methylimidazolium bis[(trifluoromethyl)sulfonyl]imide; phases: Liquid
Fixed: Pressure, kPa = 102.6
Fixed: Mole fraction of 1-hexyl-3-methylimidazolium bis[(trifluoromethyl)sulfonyl]imide = 0.048
Property: Heat capacity at constant pressure per volume, J/K/m3 (Liquid); method: DSC, Micro DSC III
Temperature, K	Heat capacity at constant pressure per volume, J/K/m3	uncertainty
331.018	1559000	60000
330.562	1558000	60000
329.949	1558000	60000
329.335	1557000	60000
328.723	1557000	60000
328.11	1556000	60000
327.497	1556000	60000
326.883	1555000	60000
326.271	1555000	60000
325.658	1554000	60000
325.045	1554000	60000
324.451	1553000	60000
323.82	1553000	60000
323.207	1553000	60000
322.594	1552000	60000
321.981	1552000	60000
320.755	1551000	60000
320.448	1551000	60000
320.142	1551000	60000
319.529	1550000	60000
318.916	1550000	60000
318.304	1549000	60000
317.69	1549000	60000
317.078	1548000	60000
316.465	1548000	60000
315.852	1548000	60000
315.24	1547000	60000
314.627	1547000	60000
314.014	1546000	60000
313.401	1546000	60000
312.788	1545000	60000
312.175	1545000	60000
311.562	1545000	60000
310.95	1544000	60000
310.336	1544000	60000
309.724	1543000	60000
309.111	1543000	60000
308.498	1542000	60000
307.884	1542000	60000
307.272	1542000	60000
306.659	1541000	60000
306.047	1541000	60000
305.434	1541000	60000
304.821	1540000	60000
304.206	1540000	60000
303.596	1539000	60000
302.982	1539000	60000
302.372	1539000	60000
301.602	1538000	60000
301.333	1538000	60000
301.098	1538000	60000
300.819	1538000	60000
300.539	1538000	60000
300.258	1537000	60000
299.979	1537000	60000
299.699	1537000	60000
299.419	1537000	60000
299.139	1536000	59000
298.86	1536000	59000
298.58	1536000	59000
298.3	1536000	59000
298.02	1536000	59000
297.74	1535000	59000
297.459	1535000	59000
297.18	1534000	59000
296.9	1534000	59000
296.62	1534000	59000
296.34	1534000	59000
296.06	1534000	59000
295.78	1534000	59000
295.5	1534000	59000
295.22	1534000	59000
294.941	1533000	59000
294.661	1533000	59000
294.366	1533000	59000
294.089	1533000	59000
293.821	1533000	59000
293.532	1533000	59000
293.275	1533000	59000
292.981	1534000	59000
292.801	1536000	60000
292.701	1546000	60000
292.384	1541000	60000
292.104	1539000	60000
291.824	1537000	60000
291.544	1535000	59000
291.264	1534000	59000
290.984	1533000	59000
290.737	1533000	59000
290.425	1533000	59000
290.144	1533000	59000
289.865	1532000	59000
289.59	1531000	59000
289.305	1531000	59000
289.025	1531000	59000
288.745	1530000	60000
288.465	1529000	59000
288.185	1529000	59000
287.905	1529000	59000
287.648	1529000	59000

System: bromobenzene + 1-hexyl-3-methylimidazolium bis[(trifluoromethyl)sulfonyl]imide; phases: Liquid mixture 1, Liquid mixture 2
Property: Upper consolute temperature, K (Liquid mixture 1); method: coesistance curve from refractive index measurements
Mole fraction of 1-hexyl-3-methylimidazolium bis[(trifluoromethyl)sulfonyl]imide	Upper consolute temperature, K	uncertainty
0.048	292.305	0.1

System: bromobenzene + 1-hexyl-3-methylimidazolium bis[(trifluoromethyl)sulfonyl]imide; phases: Liquid mixture 1, Liquid mixture 2
Property: Upper consolute temperature, K (Liquid mixture 1); method: fitting scaling equation to isobaric heat capacity per unit volume
Mole fraction of 1-hexyl-3-methylimidazolium bis[(trifluoromethyl)sulfonyl]imide	Upper consolute temperature, K	uncertainty
0.048	292.712	0.1
