Measured thermophysical data. Phase diagrams of binary systems containing tricyanomethanide-based ionic liquids and thiophene or pyridine - new experimental data and PC-SAFT modeling
Source: Fluid Phase Equilib., 2015, 10.1016/j.fluid.2015.04.031
Compound 1: thiophene, C4H4S, InChI=1S/C4H4S/c1-2-4-5-3-1/h1-4H, purity 99%
Compound 2: pyridine, C5H5N, InChI=1S/C5H5N/c1-2-4-6-5-3-1/h1-5H, purity 99.8%
Compound 3: 1-butyl-3-methylimidazolium tricyanomethane, C12H15N5, InChI=1S/C8H15N2.C4N3/c1-3-4-5-10-7-6-9(2)8-10;5-1-4(2-6)3-7/h6-8H,3-5H2,1-2H3;/q+1;-1, purity 98%
Compound 4: 1-butyl-4-methylpyridinium tricyanomethanide, C14H16N4, InChI=1S/C10H16N.C4N3/c1-3-4-7-11-8-5-10(2)6-9-11;5-1-4(2-6)3-7/h5-6,8-9H,3-4,7H2,1-2H3;/q+1;-1, purity 98%
Compound 5: 1-butyl-1-methylpyrrolidinium tricyanomethanide, C13H20N4, InChI=1S/C9H20N.C4N3/c1-3-4-7-10(2)8-5-6-9-10;5-1-4(2-6)3-7/h3-9H2,1-2H3;/q+1;-1, purity 98%

System: thiophene; phases: Liquid
Property: Mass density, kg/m3 (Liquid); method: Vibrating tube method
Temperature, K	Pressure, kPa	Mass density, kg/m3	uncertainty
298.15	101.325	1058.56	0.12

System: thiophene; phases: Liquid, Gas
Property: Vapor or sublimation pressure, kPa (Liquid); method: Closed cell (Static) method
Temperature, K	Vapor or sublimation pressure, kPa	uncertainty
293.15	8.19	0.13
298.15	10.4	0.14
303.15	12.97	0.15
308.15	16.1	0.17
313.15	19.4	0.17

System: pyridine; phases: Liquid
Property: Mass density, kg/m3 (Liquid); method: Vibrating tube method
Temperature, K	Pressure, kPa	Mass density, kg/m3	uncertainty
298.15	101.325	982.85	0.11

System: pyridine; phases: Liquid, Gas
Property: Vapor or sublimation pressure, kPa (Liquid); method: Closed cell (Static) method
Temperature, K	Vapor or sublimation pressure, kPa	uncertainty
293.15	2.1	0.1
298.15	2.77	0.11
303.15	3.62	0.11
308.15	4.68	0.11
313.15	6	0.11

System: 1-butyl-3-methylimidazolium tricyanomethane; phases: Liquid
Property: Mass density, kg/m3 (Liquid); method: Vibrating tube method
Temperature, K	Pressure, kPa	Mass density, kg/m3	uncertainty
298.15	101.325	1046.7	1.21

System: 1-butyl-4-methylpyridinium tricyanomethanide; phases: Liquid
Property: Mass density, kg/m3 (Liquid); method: Vibrating tube method
Temperature, K	Pressure, kPa	Mass density, kg/m3	uncertainty
298.15	101.325	1036.62	1.18

System: 1-butyl-1-methylpyrrolidinium tricyanomethanide; phases: Liquid
Property: Mass density, kg/m3 (Liquid); method: Vibrating tube method
Temperature, K	Pressure, kPa	Mass density, kg/m3	uncertainty
298.15	101.325	1006.75	1.1

System: thiophene + 1-butyl-3-methylimidazolium tricyanomethane; phases: Liquid, Gas
Property: Vapor or sublimation pressure, kPa (Liquid); method: Closed cell (Static) method
Mole fraction of 1-butyl-3-methylimidazolium tricyanomethane	Temperature, K	Vapor or sublimation pressure, kPa	uncertainty
0.7484	293.15	1.7	0.1
0.6692	293.15	2.25	0.11
0.5964	293.15	2.98	0.11
0.5458	293.15	3.41	0.11
0.4683	293.15	4.14	0.11
0.4102	293.15	4.67	0.11
0.3564	293.15	5.3	0.12
0.2531	293.15	7	0.13
0.1645	293.15	8.19	0.15
0.0646	293.15	8.2	0.14
0	293.15	8.19	0.14
0.7484	298.15	2.14	0.1
0.6692	298.15	2.96	0.11
0.5964	298.15	3.69	0.11
0.5458	298.15	4.19	0.11
0.4683	298.15	5.04	0.11
0.4102	298.15	5.85	0.12
0.3564	298.15	6.84	0.13
0.2531	298.15	8.88	0.14
0.1645	298.15	10.32	0.14
0.0646	298.15	10.41	0.14
0	298.15	10.4	0.15
0.7484	303.15	2.75	0.11
0.6692	303.15	3.74	0.11
0.5964	303.15	4.46	0.11
0.5458	303.15	5.15	0.11
0.4683	303.15	6.17	0.12
0.4102	303.15	7.22	0.13
0.3564	303.15	8.52	0.14
0.2531	303.15	11.15	0.15
0.1645	303.15	12.85	0.16
0.0646	303.15	12.9	0.16
0	303.15	12.97	0.16
0.7484	308.15	3.36	0.11
0.6692	308.15	4.57	0.11
0.5964	308.15	5.62	0.12
0.5458	308.15	6.31	0.12
0.4683	308.15	7.86	0.13
0.4102	308.15	9.2	0.14
0.3564	308.15	10.81	0.15
0.2531	308.15	13.88	0.16
0.1645	308.15	15.75	0.18
0.0646	308.15	15.79	0.17
0	308.15	16.1	0.17
0.7484	313.15	4	0.11
0.6692	313.15	5.44	0.11
0.5964	313.15	6.7	0.12
0.5458	313.15	7.92	0.13
0.4683	313.15	9.59	0.14
0.4102	313.15	11.35	0.15
0.3564	313.15	13.43	0.15
0.2531	313.15	16.6	0.16
0.1645	313.15	19.35	0.16
0.0646	313.15	19.4	0.19
0	313.15	19.4	0.18

System: thiophene + 1-butyl-3-methylimidazolium tricyanomethane; phases: Liquid mixture 1, Liquid mixture 2
Fixed: Pressure, kPa = 101
Property: Mole fraction of 1-butyl-3-methylimidazolium tricyanomethane (Liquid mixture 1); method: visual
Temperature, K	Mole fraction of 1-butyl-3-methylimidazolium tricyanomethane	uncertainty
292.8	0.1636	0.0038
297.3	0.1621	0.0038
301.8	0.1607	0.0037
306.6	0.16	0.0037
312.2	0.16	0.0037
316.8	0.1607	0.0037
318.2	0.1609	0.0037
320.3	0.1613	0.0037
323.9	0.1621	0.0038
326.3	0.1636	0.0038
333.4	0.169	0.0039
341.8	0.1741	0.004

System: pyridine + 1-butyl-3-methylimidazolium tricyanomethane; phases: Liquid, Gas
Property: Vapor or sublimation pressure, kPa (Liquid); method: Closed cell (Static) method
Mole fraction of 1-butyl-3-methylimidazolium tricyanomethane	Temperature, K	Vapor or sublimation pressure, kPa	uncertainty
0.5683	293.15	0.82	0.1
0.4721	293.15	1	0.1
0.3551	293.15	1.24	0.1
0.2461	293.15	1.45	0.1
0.1115	293.15	1.8	0.1
0	293.15	2.1	0.11
0.5683	298.15	1.05	0.1
0.4721	298.15	1.29	0.1
0.3551	298.15	1.61	0.1
0.2461	298.15	1.86	0.1
0.1115	298.15	2.35	0.11
0	298.15	2.77	0.11
0.5683	303.15	1.3	0.1
0.4721	303.15	1.6	0.1
0.3551	303.15	2.05	0.1
0.2461	303.15	2.44	0.11
0.1115	303.15	3.17	0.11
0	303.15	3.62	0.11
0.5683	308.15	1.57	0.1
0.4721	308.15	2.07	0.1
0.3551	308.15	2.59	0.11
0.2461	308.15	3.05	0.11
0.1115	308.15	3.96	0.11
0	308.15	4.68	0.11
0.5683	313.15	2.1	0.1
0.4721	313.15	2.53	0.1
0.3551	313.15	3.3	0.11
0.2461	313.15	4.04	0.11
0.1115	313.15	5.16	0.11
0	313.15	6	0.12

System: thiophene + 1-butyl-4-methylpyridinium tricyanomethanide; phases: Liquid, Gas
Property: Vapor or sublimation pressure, kPa (Liquid); method: Closed cell (Static) method
Mole fraction of 1-butyl-4-methylpyridinium tricyanomethanide	Temperature, K	Vapor or sublimation pressure, kPa	uncertainty
0.6291	293.15	2.04	0.11
0.5139	293.15	2.76	0.11
0.4079	293.15	3.72	0.11
0.3221	293.15	4.83	0.12
0.2296	293.15	6.23	0.12
0.1571	293.15	8.16	0.14
0.0975	293.15	8.16	0.13
0	293.15	8.19	0.14
0.6291	298.15	2.69	0.11
0.5139	298.15	3.6	0.11
0.4079	298.15	4.73	0.11
0.3221	298.15	6.1	0.12
0.2296	298.15	7.78	0.14
0.1571	298.15	9.93	0.14
0.0975	298.15	9.98	0.14
0	298.15	10.4	0.15
0.6291	303.15	3.36	0.11
0.5139	303.15	4.56	0.11
0.4079	303.15	5.94	0.12
0.3221	303.15	7.62	0.13
0.2296	303.15	10.2	0.16
0.1571	303.15	12.55	0.16
0.0975	303.15	12.57	0.16
0	303.15	12.97	0.16
0.6291	308.15	4.2	0.11
0.5139	308.15	5.72	0.12
0.4079	308.15	7.8	0.13
0.3221	308.15	9.87	0.15
0.2296	308.15	13.19	0.17
0.1571	308.15	15.8	0.18
0.0975	308.15	15.88	0.18
0	308.15	16.1	0.17
0.6291	313.15	5.24	0.11
0.5139	313.15	7.44	0.13
0.4079	313.15	9.41	0.14
0.3221	313.15	12.24	0.16
0.2296	313.15	16	0.17
0.1571	313.15	19.4	0.16
0.0975	313.15	19.39	0.19
0	313.15	19.4	0.18

System: thiophene + 1-butyl-4-methylpyridinium tricyanomethanide; phases: Liquid mixture 1, Liquid mixture 2
Fixed: Pressure, kPa = 101
Property: Mole fraction of 1-butyl-4-methylpyridinium tricyanomethanide (Liquid mixture 1); method: visual
Temperature, K	Mole fraction of 1-butyl-4-methylpyridinium tricyanomethanide	uncertainty
287.2	0.1626	0.0038
298.8	0.1651	0.0038
313.6	0.1677	0.0039
332.8	0.1719	0.004
341.5	0.1741	0.004

System: pyridine + 1-butyl-4-methylpyridinium tricyanomethanide; phases: Liquid, Gas
Property: Vapor or sublimation pressure, kPa (Liquid); method: Closed cell (Static) method
Mole fraction of 1-butyl-4-methylpyridinium tricyanomethanide	Temperature, K	Vapor or sublimation pressure, kPa	uncertainty
0.5008	293.15	0.88	0.1
0.3952	293.15	1.08	0.1
0.2885	293.15	1.33	0.1
0.1983	293.15	1.55	0.1
0.1018	293.15	1.86	0.1
0.0076	293.15	2.05	0.11
0	293.15	2.1	0.11
0.5008	298.15	1.08	0.1
0.3952	298.15	1.32	0.1
0.2885	298.15	1.72	0.1
0.1983	298.15	2.04	0.1
0.1018	298.15	2.41	0.11
0.0076	298.15	2.7	0.11
0	298.15	2.77	0.11
0.5008	303.15	1.32	0.1
0.3952	303.15	1.68	0.1
0.2885	303.15	2.23	0.1
0.1983	303.15	2.64	0.11
0.1018	303.15	3.12	0.11
0.0076	303.15	3.53	0.11
0	303.15	3.62	0.11
0.5008	308.15	1.69	0.1
0.3952	308.15	2.2	0.1
0.2885	308.15	2.83	0.11
0.1983	308.15	3.43	0.11
0.1018	308.15	4.11	0.11
0.0076	308.15	4.57	0.11
0	308.15	4.68	0.11
0.5008	313.15	2.13	0.1
0.3952	313.15	2.84	0.11
0.2885	313.15	3.56	0.11
0.1983	313.15	4.37	0.11
0.1018	313.15	5.14	0.11
0.0076	313.15	5.78	0.12
0	313.15	6	0.12

System: thiophene + 1-butyl-1-methylpyrrolidinium tricyanomethanide; phases: Liquid, Gas
Property: Vapor or sublimation pressure, kPa (Liquid); method: Closed cell (Static) method
Mole fraction of 1-butyl-1-methylpyrrolidinium tricyanomethanide	Temperature, K	Vapor or sublimation pressure, kPa	uncertainty
0.787	293.15	1.24	0.1
0.6452	293.15	2.13	0.1
0.5017	293.15	3.45	0.11
0.4082	293.15	4.22	0.11
0.3168	293.15	5.34	0.12
0.2337	293.15	6.4	0.12
0.1544	293.15	7.94	0.15
0.0954	293.15	7.96	0.13
0	293.15	8.19	0.14
0.787	298.15	1.65	0.1
0.6452	298.15	2.78	0.11
0.5017	298.15	4.21	0.11
0.4082	298.15	5.26	0.12
0.3168	298.15	6.7	0.13
0.2337	298.15	8.12	0.14
0.1544	298.15	10.05	0.14
0.0954	298.15	10.07	0.14
0	298.15	10.4	0.15
0.787	303.15	2.04	0.1
0.6452	303.15	3.49	0.11
0.5017	303.15	5.17	0.11
0.4082	303.15	6.56	0.12
0.3168	303.15	8.58	0.14
0.2337	303.15	10.72	0.16
0.1544	303.15	12.6	0.16
0.0954	303.15	12.69	0.16
0	303.15	12.97	0.16
0.787	308.15	2.52	0.11
0.6452	308.15	4.2	0.11
0.5017	308.15	6.32	0.13
0.4082	308.15	8.21	0.14
0.3168	308.15	10.8	0.15
0.2337	308.15	13.8	0.17
0.1544	308.15	15.8	0.18
0.0954	308.15	15.83	0.18
0	308.15	16.1	0.17
0.787	313.15	3	0.11
0.6452	313.15	5.25	0.12
0.5017	313.15	8.4	0.14
0.4082	313.15	10.67	0.16
0.3168	313.15	13.7	0.17
0.2337	313.15	17.01	0.17
0.1544	313.15	19.27	0.17
0.0954	313.15	19.26	0.18
0	313.15	19.4	0.18

System: thiophene + 1-butyl-1-methylpyrrolidinium tricyanomethanide; phases: Liquid mixture 1, Liquid mixture 2
Fixed: Pressure, kPa = 101
Property: Mole fraction of 1-butyl-1-methylpyrrolidinium tricyanomethanide (Liquid mixture 1); method: visual
Temperature, K	Mole fraction of 1-butyl-1-methylpyrrolidinium tricyanomethanide	uncertainty
285.6	0.156	0.0036
296.5	0.162	0.0038
307.2	0.1645	0.0038
324.1	0.1685	0.0039
332.7	0.1707	0.004

System: pyridine + 1-butyl-1-methylpyrrolidinium tricyanomethanide; phases: Liquid, Gas
Property: Vapor or sublimation pressure, kPa (Liquid); method: Closed cell (Static) method
Mole fraction of 1-butyl-1-methylpyrrolidinium tricyanomethanide	Temperature, K	Vapor or sublimation pressure, kPa	uncertainty
0.5348	293.15	0.84	0.1
0.4006	293.15	1.12	0.1
0.3066	293.15	1.34	0.1
0.2137	293.15	1.51	0.1
0.102	293.15	1.82	0.1
0	293.15	2.1	0.11
0.5348	298.15	1.07	0.1
0.4006	298.15	1.46	0.1
0.3066	298.15	1.7	0.1
0.2137	298.15	1.95	0.1
0.102	298.15	2.4	0.11
0	298.15	2.77	0.11
0.5348	303.15	1.29	0.1
0.4006	303.15	1.85	0.1
0.3066	303.15	2.16	0.1
0.2137	303.15	2.61	0.11
0.102	303.15	3.15	0.11
0	303.15	3.62	0.11
0.5348	308.15	1.68	0.1
0.4006	308.15	2.27	0.1
0.3066	308.15	2.8	0.11
0.2137	308.15	3.35	0.11
0.102	308.15	3.99	0.11
0	308.15	4.68	0.11
0.5348	313.15	2.13	0.1
0.4006	313.15	2.97	0.11
0.3066	313.15	3.53	0.11
0.2137	313.15	4.29	0.11
0.102	313.15	5.35	0.12
0	313.15	6	0.12
