Measured thermophysical data. Vapor liquid equilibria for systems of diethyl carbonate and ketones and determination of group interaction parameters for the UNIFAC and ASOG methods
Source: Fluid Phase Equilib., 2005, 10.1016/j.fluid.2005.06.024
Compound 1: acetone, C3H6O, InChI=1S/C3H6O/c1-3(2)4/h1-2H3, purity 99.8%
Compound 2: butanone, C4H8O, InChI=1S/C4H8O/c1-3-4(2)5/h3H2,1-2H3, purity 99.5%
Compound 3: pentan-2-one, C5H10O, InChI=1S/C5H10O/c1-3-4-5(2)6/h3-4H2,1-2H3, purity 99.5%
Compound 4: diethyl carbonate, C5H10O3, InChI=1S/C5H10O3/c1-3-7-5(6)8-4-2/h3-4H2,1-2H3, purity 99.5%

System: acetone; phases: Liquid
Property: Speed of sound, m/s (Liquid); method: FPINT:UFactor:2
Temperature, K	Pressure, kPa	Speed of sound, m/s	uncertainty
298.15	101.3	1162	2

System: acetone; phases: Liquid
Property: Mass density, kg/m3 (Liquid); method: VIBTUB:UFactor:2
Temperature, K	Pressure, kPa	Mass density, kg/m3	uncertainty
298.15	101.3	784.37	0.31

System: butanone; phases: Liquid
Property: Speed of sound, m/s (Liquid); method: FPINT:UFactor:2
Temperature, K	Pressure, kPa	Speed of sound, m/s	uncertainty
298.15	101.3	1192	2

System: butanone; phases: Liquid
Property: Mass density, kg/m3 (Liquid); method: VIBTUB:UFactor:2
Temperature, K	Pressure, kPa	Mass density, kg/m3	uncertainty
298.15	101.3	799.7	0.35

System: pentan-2-one; phases: Liquid
Property: Speed of sound, m/s (Liquid); method: FPINT:UFactor:2
Temperature, K	Pressure, kPa	Speed of sound, m/s	uncertainty
298.15	101.3	1212	2

System: pentan-2-one; phases: Liquid
Property: Mass density, kg/m3 (Liquid); method: VIBTUB:UFactor:2
Temperature, K	Pressure, kPa	Mass density, kg/m3	uncertainty
298.15	101.3	801.39	0.35

System: diethyl carbonate; phases: Liquid
Property: Speed of sound, m/s (Liquid); method: FPINT:UFactor:2
Temperature, K	Pressure, kPa	Speed of sound, m/s	uncertainty
298.15	101.3	1178	2

System: diethyl carbonate; phases: Liquid
Property: Mass density, kg/m3 (Liquid); method: VIBTUB:UFactor:2
Temperature, K	Pressure, kPa	Mass density, kg/m3	uncertainty
298.15	101.3	969.24	0.27

System: acetone + diethyl carbonate; phases: Liquid
Fixed: Temperature, K = 298.15
Fixed: Pressure, kPa = 101.3
Property: Speed of sound, m/s (Liquid); method: FPINT:UFactor:2
Mole fraction of acetone	Speed of sound, m/s	uncertainty
0	1178	2
0.0384	1177	2
0.0901	1176	2
0.1832	1175	2
0.2827	1173	2
0.3847	1171	2
0.4847	1170	2
0.5888	1168	2
0.6936	1166	2
0.7967	1164	2
0.9017	1162	2
0.9546	1162	2
1	1162	2

System: acetone + diethyl carbonate; phases: Liquid, Gas
Fixed: Pressure, kPa = 101.325
Property: Boiling temperature at pressure P, K (Liquid); method: EBULLIO:UFactor:16
Mole fraction of acetone	Boiling temperature at pressure P, K	uncertainty
0.0209	395.28	1.43
0.0287	393.62	1.18
0.0372	392.57	1.08
0.0511	390.39	1.06
0.0727	387.5	1.02
0.0875	385.54	1.11
0.0974	383.71	0.94
0.1227	381.33	0.94
0.1376	379.01	1.06
0.1496	377.54	1.02
0.1629	375.65	0.96
0.1796	373.95	0.87
0.2003	371.97	0.81
0.2324	369.47	0.83
0.2473	367.71	0.82
0.2823	365	0.78
0.3113	362.89	0.78
0.3543	359.61	0.79
0.3713	358.13	0.78
0.4031	355.9	0.73
0.4393	354.02	0.73
0.4756	351.6	0.73
0.5165	349.34	0.72
0.5392	348	0.72
0.5803	345.73	0.71
0.6065	344.5	0.68
0.641	343.15	0.68
0.6658	342.1	0.71
0.6912	340.6	0.7
0.7237	339.22	0.69
0.7619	337.53	0.69
0.7999	335.77	0.69
0.8253	334.61	0.66
0.8647	333.77	0.66
0.8827	332.85	0.68
0.9163	331.76	0.66
0.9502	330.97	0.66
0.9744	330.14	0.67

System: acetone + diethyl carbonate; phases: Liquid
Fixed: Temperature, K = 298.15
Fixed: Pressure, kPa = 101.3
Property: Mass density, kg/m3 (Liquid); method: VIBTUB:UFactor:2
Mole fraction of acetone	Mass density, kg/m3	uncertainty
0	969.24	0.27
0.0384	964.96	0.27
0.0901	959	0.26
0.1832	947.54	0.26
0.2827	934.21	0.25
0.3847	919.29	0.25
0.4847	903.08	0.26
0.5888	884.33	0.26
0.6936	863.26	0.26
0.7967	839.9	0.27
0.9017	813	0.29
0.9546	798.07	0.3
1	784.37	0.31

System: acetone + diethyl carbonate; phases: Gas, Liquid
Fixed: Pressure, kPa = 101.325
Property: Mole fraction of acetone (Gas); method: Density calibration data
Mole fraction of acetone	Mole fraction of acetone	uncertainty
0.0209	0.1206	0.0376
0.0287	0.1689	0.0317
0.0372	0.2054	0.0271
0.0511	0.2675	0.0241
0.0727	0.3447	0.0217
0.0875	0.3934	0.0226
0.0974	0.435	0.0165
0.1227	0.4876	0.0159
0.1376	0.5349	0.0181
0.1496	0.5637	0.0162
0.1629	0.5982	0.0142
0.1796	0.628	0.0117
0.2003	0.6609	0.0101
0.2324	0.6994	0.01
0.2473	0.7244	0.0094
0.2823	0.7605	0.0084
0.3113	0.7862	0.0079
0.3543	0.8226	0.0079
0.3713	0.8376	0.0075
0.4031	0.8589	0.0069
0.4393	0.8755	0.0067
0.4756	0.8949	0.0066
0.5165	0.9114	0.0065
0.5392	0.9205	0.0064
0.5803	0.9347	0.0063
0.6065	0.9419	0.0062
0.641	0.9493	0.0061
0.6658	0.9548	0.0062
0.6912	0.9621	0.0062
0.7237	0.9683	0.0061
0.7619	0.9754	0.0061
0.7999	0.982	0.0061
0.8253	0.9859	0.006
0.8647	0.9889	0.006
0.8827	0.9916	0.006
0.9163	0.9948	0.0052
0.9502	0.997	0.003
0.9744	0.9987	0.0013

System: butanone + diethyl carbonate; phases: Liquid
Fixed: Temperature, K = 298.15
Fixed: Pressure, kPa = 101.3
Property: Speed of sound, m/s (Liquid); method: FPINT:UFactor:2
Mole fraction of butanone	Speed of sound, m/s	uncertainty
0	1178	2
0.0486	1178	2
0.1002	1179	2
0.1958	1180	2
0.2977	1181	2
0.399	1182	2
0.4976	1184	2
0.6444	1186	2
0.7172	1187	2
0.8294	1189	2
0.9031	1190	2
0.9554	1191	2
1	1192	2

System: butanone + diethyl carbonate; phases: Liquid, Gas
Fixed: Pressure, kPa = 101.325
Property: Boiling temperature at pressure P, K (Liquid); method: EBULLIO:UFactor:16
Mole fraction of butanone	Boiling temperature at pressure P, K	uncertainty
0.0259	397.18	0.93
0.0489	394.57	0.82
0.1027	390.39	0.79
0.1323	387.96	0.77
0.1611	386.12	0.74
0.1891	384.45	0.73
0.2333	381.7	0.74
0.268	379.55	0.72
0.3034	377.68	0.7
0.3237	376.81	0.71
0.3597	374.84	0.7
0.3913	373.54	0.69
0.4218	372.06	0.68
0.4613	370.71	0.67
0.4899	369.56	0.68
0.5259	368.07	0.68
0.579	365.86	0.68
0.613	364.44	0.67
0.6581	363	0.67
0.6876	361.95	0.67
0.7104	361.2	0.66
0.7457	360.3	0.66
0.7683	359.33	0.66
0.8058	358.4	0.66
0.8348	357.45	0.66
0.8663	356.45	0.66
0.8949	355.58	0.66
0.9291	354.67	0.65
0.9688	353.75	0.65

System: butanone + diethyl carbonate; phases: Liquid
Fixed: Temperature, K = 298.15
Fixed: Pressure, kPa = 101.3
Property: Mass density, kg/m3 (Liquid); method: VIBTUB:UFactor:2
Mole fraction of butanone	Mass density, kg/m3	uncertainty
0	969.24	0.27
0.0486	963.14	0.27
0.1002	956.52	0.28
0.1958	943.68	0.28
0.2977	929.22	0.29
0.399	913.95	0.29
0.4976	898.2	0.31
0.6444	872.87	0.31
0.7172	859.36	0.32
0.8294	837.19	0.33
0.9031	821.58	0.34
0.9554	810.05	0.34
1	799.7	0.35

System: butanone + diethyl carbonate; phases: Gas, Liquid
Fixed: Pressure, kPa = 101.325
Property: Mole fraction of butanone (Gas); method: Density calibration data
Mole fraction of butanone	Mole fraction of butanone	uncertainty
0.0259	0.0907	0.0205
0.0489	0.1659	0.0176
0.1027	0.3048	0.0164
0.1323	0.3781	0.0144
0.1611	0.4314	0.0121
0.1891	0.4772	0.0115
0.2333	0.5477	0.0112
0.268	0.5988	0.0101
0.3034	0.6409	0.0091
0.3237	0.6599	0.0089
0.3597	0.7002	0.0085
0.3913	0.7259	0.008
0.4218	0.7534	0.0076
0.4613	0.7779	0.0073
0.4899	0.7977	0.0073
0.5259	0.8219	0.0072
0.579	0.8555	0.0071
0.613	0.876	0.0068
0.6581	0.8956	0.0066
0.6876	0.909	0.0066
0.7104	0.9183	0.0064
0.7457	0.9293	0.0064
0.7683	0.9402	0.0064
0.8058	0.9505	0.0063
0.8348	0.9603	0.0063
0.8663	0.9701	0.0063
0.8949	0.9779	0.0062
0.9291	0.986	0.0061
0.9688	0.9939	0.0061

System: diethyl carbonate + pentan-2-one; phases: Liquid
Fixed: Temperature, K = 298.15
Fixed: Pressure, kPa = 101.3
Property: Speed of sound, m/s (Liquid); method: FPINT:UFactor:2
Mole fraction of pentan-2-one	Speed of sound, m/s	uncertainty
0	1178	2
0.0483	1179	2
0.0983	1180	2
0.1923	1183	2
0.2988	1187	2
0.3998	1190	2
0.4996	1193	2
0.6034	1197	2
0.7077	1201	2
0.8037	1204	2
0.9026	1208	2
0.9491	1210	2
1	1212	2

System: diethyl carbonate + pentan-2-one; phases: Liquid, Gas
Fixed: Pressure, kPa = 101.325
Property: Boiling temperature at pressure P, K (Liquid); method: EBULLIO:UFactor:16
Mole fraction of pentan-2-one	Boiling temperature at pressure P, K	uncertainty
0.0232	398.42	0.7
0.047	397.26	0.69
0.0604	396.79	0.69
0.0764	395.99	0.67
0.1142	394.81	0.66
0.1276	394.39	0.66
0.1447	393.9	0.66
0.1688	393.16	0.67
0.2042	391.98	0.67
0.2279	391.25	0.65
0.2587	390.69	0.65
0.2869	389.74	0.66
0.3075	389.29	0.66
0.3206	388.79	0.65
0.3716	387.65	0.65
0.3868	387.39	0.65
0.4375	386.21	0.65
0.4724	385.28	0.65
0.5083	384.62	0.65
0.5367	383.93	0.65
0.5556	383.46	0.65
0.5914	382.81	0.64
0.6074	382.56	0.64
0.6311	382.15	0.65
0.6645	381.25	0.65
0.6932	380.79	0.65
0.7156	380.23	0.65
0.7435	379.77	0.64
0.7742	379.31	0.65
0.7988	378.66	0.65
0.8288	378.26	0.64
0.86	377.63	0.64
0.8916	377.15	0.65
0.9282	376.39	0.65
0.9629	375.83	0.64

System: diethyl carbonate + pentan-2-one; phases: Liquid
Fixed: Temperature, K = 298.15
Fixed: Pressure, kPa = 101.3
Property: Mass density, kg/m3 (Liquid); method: VIBTUB:UFactor:2
Mole fraction of pentan-2-one	Mass density, kg/m3	uncertainty
0	969.24	0.27
0.0483	962.08	0.27
0.0983	954.6	0.28
0.1923	940.27	0.28
0.2988	923.61	0.29
0.3998	907.38	0.3
0.4996	890.92	0.31
0.6034	873.34	0.31
0.7077	855.18	0.32
0.8037	838	0.33
0.9026	819.83	0.34
0.9491	811.1	0.34
1	801.39	0.35

System: diethyl carbonate + pentan-2-one; phases: Gas, Liquid
Fixed: Pressure, kPa = 101.325
Property: Mole fraction of pentan-2-one (Gas); method: density composition curves
Mole fraction of pentan-2-one	Mole fraction of pentan-2-one	uncertainty
0.0232	0.0493	0.0158
0.047	0.1073	0.0147
0.0604	0.1313	0.0136
0.0764	0.1667	0.012
0.1142	0.226	0.0111
0.1276	0.2466	0.0105
0.1447	0.2696	0.0103
0.1688	0.3036	0.0107
0.2042	0.3568	0.0105
0.2279	0.3879	0.0087
0.2587	0.4135	0.009
0.2869	0.4533	0.0096
0.3075	0.473	0.0094
0.3206	0.4934	0.009
0.3716	0.5439	0.0084
0.3868	0.555	0.0084
0.4375	0.6053	0.0088
0.4724	0.6439	0.0085
0.5083	0.673	0.0081
0.5367	0.7007	0.0085
0.5556	0.7196	0.0079
0.5914	0.7457	0.0075
0.6074	0.7562	0.0074
0.6311	0.7731	0.008
0.6645	0.8048	0.0078
0.6932	0.8225	0.0075
0.7156	0.8419	0.0074
0.7435	0.8588	0.007
0.7742	0.8754	0.0073
0.7988	0.8961	0.0071
0.8288	0.9104	0.0069
0.86	0.9301	0.0069
0.8916	0.9462	0.0069
0.9282	0.9685	0.0068
0.9629	0.9853	0.0067
