Measured thermophysical data. Vapor-liquid equilibria for the binary system of 2,3,3,3-tetrafluoroprop-1-ene(HFO-1234yf) + 1,1,1,2,3,3,3-heptafluoropropane (HFC-227ea))
Source: Fluid Phase Equilib., 2014, 10.1016/j.fluid.2014.07.014
Compound 1: 2,3,3,3-tetrafluoro-1-propene, C3H2F4, InChI=1S/C3H2F4/c1-2(4)3(5,6)7/h1H2, purity 99.9%
Compound 2: 1,1,1,2,3,3,3-heptafluoropropane, C3HF7, InChI=1S/C3HF7/c4-1(2(5,6)7)3(8,9)10/h1H, purity 99.9%

System: 1,1,1,2,3,3,3-heptafluoropropane + 2,3,3,3-tetrafluoro-1-propene; phases: Gas, Liquid
Property: Mole fraction of 2,3,3,3-tetrafluoro-1-propene (Gas); method: Chromatography
Mole fraction of 2,3,3,3-tetrafluoro-1-propene	Temperature, K	Mole fraction of 2,3,3,3-tetrafluoro-1-propene	uncertainty
0	283.15	0	
0.1516	283.15	0.2091	0.0103
0.2164	283.15	0.2946	0.0094
0.3841	283.15	0.4765	0.0097
0.5163	283.15	0.6161	0.0091
0.6203	283.15	0.7138	0.0082
0.7273	283.15	0.7921	0.0079
0.7966	283.15	0.8574	0.0076
0.9049	283.15	0.9252	0.0074
1	283.15	1	
0	293.15	0	
0.1516	293.15	0.2015	0.0101
0.2164	293.15	0.2864	0.0094
0.3841	293.15	0.472	0.0097
0.5163	293.15	0.6077	0.009
0.6203	293.15	0.7016	0.0082
0.7273	293.15	0.7824	0.008
0.7966	293.15	0.8467	0.0078
0.9049	293.15	0.9251	0.0075
1	293.15	1	
0	303.15	0	
0.1516	303.15	0.1972	0.0099
0.2164	303.15	0.2786	0.0094
0.3841	303.15	0.4644	0.0096
0.5163	303.15	0.5982	0.009
0.6203	303.15	0.6892	0.0083
0.7273	303.15	0.7786	0.0081
0.7966	303.15	0.8413	0.0078
0.9049	303.15	0.9236	0.0076
1	303.15	1	
0	313.15	0	
0.1516	313.15	0.19	0.0097
0.2164	313.15	0.2672	0.0093
0.3841	313.15	0.4549	0.0096
0.5163	313.15	0.5856	0.009
0.6203	313.15	0.6811	0.0085
0.7273	313.15	0.7726	0.0081
0.7966	313.15	0.8285	0.008
0.9049	313.15	0.922	0.0079
1	313.15	1	
0	323.15	0	
0.1516	323.15	0.1863	0.0096
0.2164	323.15	0.2639	0.0092
0.3841	323.15	0.4454	0.0095
0.5163	323.15	0.5781	0.0092
0.6203	323.15	0.6774	0.0085
0.7273	323.15	0.7665	0.0081
0.7966	323.15	0.8274	0.008
0.9049	323.15	0.9185	0.0079
1	323.15	1	

System: 1,1,1,2,3,3,3-heptafluoropropane + 2,3,3,3-tetrafluoro-1-propene; phases: Liquid, Gas
Property: Vapor or sublimation pressure, kPa (Liquid); method: Ebulliometric method (Recirculating still)
Mole fraction of 2,3,3,3-tetrafluoro-1-propene	Temperature, K	Vapor or sublimation pressure, kPa	uncertainty
0	283.15	278.9	7.1
0.1516	283.15	304.1	7.2
0.2164	283.15	312.4	7.2
0.3841	283.15	341.2	7.2
0.5163	283.15	361.6	7.2
0.6203	283.15	378.8	7.2
0.7273	283.15	392.2	7.2
0.7966	283.15	403.3	7.2
0.9049	283.15	420.3	7.2
1	283.15	436.5	7.2
0	293.15	388	7.1
0.1516	293.15	421	7.3
0.2164	293.15	431.6	7.3
0.3841	293.15	467.8	7.3
0.5163	293.15	494.2	7.3
0.6203	293.15	516.3	7.3
0.7273	293.15	533.7	7.4
0.7966	293.15	548.7	7.4
0.9049	293.15	569.5	7.4
1	293.15	591	7.3
0	303.15	524.5	7.3
0.1516	303.15	567.8	7.5
0.2164	303.15	580.2	7.4
0.3841	303.15	626.6	7.5
0.5163	303.15	658.6	7.6
0.6203	303.15	687.8	7.6
0.7273	303.15	709.6	7.6
0.7966	303.15	729.4	7.6
0.9049	303.15	755.7	7.7
1	303.15	780.5	7.5
0	313.15	699	7.4
0.1516	313.15	753.1	7.8
0.2164	313.15	768.1	7.7
0.3841	313.15	824.6	7.8
0.5163	313.15	863.1	7.9
0.6203	313.15	899.2	7.9
0.7273	313.15	929.4	8
0.7966	313.15	950.6	8
0.9049	313.15	984.7	8.1
1	313.15	1015.6	7.9
0	323.15	912.4	7.7
0.1516	323.15	977.6	8.2
0.2164	323.15	994.5	8.2
0.3841	323.15	1066	8.3
0.5163	323.15	1115.1	8.4
0.6203	323.15	1156.3	8.4
0.7273	323.15	1193.1	8.5
0.7966	323.15	1220.1	8.6
0.9049	323.15	1261.2	8.7
1	323.15	1300.7	8.4
