Measured thermophysical data. Vapour pressures and enthalpies of vaporisation of alkyl formamides
Source: Fluid Phase Equilib., 2019, 10.1016/j.fluid.2019.04.036
Compound 1: dimethylformamide, C3H7NO, InChI=1S/C3H7NO/c1-4(2)3-5/h3H,1-2H3, purity 99.8%
Compound 2: N,N-diethylformamide, C5H11NO, InChI=1S/C5H11NO/c1-3-6(4-2)5-7/h5H,3-4H2,1-2H3, purity 99%
Compound 3: N,N-dipropylformamide, C7H15NO, InChI=1S/C7H15NO/c1-3-5-8(7-9)6-4-2/h7H,3-6H2,1-2H3, purity 99%
Compound 4: N,N-dibutylformamide, C9H19NO, InChI=1S/C9H19NO/c1-3-5-7-10(9-11)8-6-4-2/h9H,3-8H2,1-2H3, purity 99%
Compound 5: N-butylformamide, C5H11NO, InChI=1S/C5H11NO/c1-2-3-4-6-5-7/h5H,2-4H2,1H3,(H,6,7), purity 0.99%
Compound 6: N-benzylformamide, C8H9NO, InChI=1S/C8H9NO/c10-7-9-6-8-4-2-1-3-5-8/h1-5,7H,6H2,(H,9,10), purity 99%

System: dimethylformamide; phases: Liquid, Gas
Property: Vapor or sublimation pressure, kPa (Liquid); method: Transpiration method
Temperature, K	Vapor or sublimation pressure, kPa	uncertainty
276.3	0.1229	0.0078
279.3	0.1498	0.0095
281.2	0.1752	0.0111
283.1	0.1994	0.0126
285.3	0.2375	0.0151
289.3	0.314	0.0197
291.3	0.3569	0.0223
293.3	0.4045	0.0253
296.3	0.4849	0.0303
299.5	0.5941	0.0371
302.2	0.6949	0.0435
305.2	0.847	0.0529

System: N,N-diethylformamide; phases: Liquid, Gas
Property: Vapor or sublimation pressure, kPa (Liquid); method: Transpiration method
Temperature, K	Vapor or sublimation pressure, kPa	uncertainty
288.8	0.0751	0.0048
292.2	0.0961	0.006
295.1	0.1173	0.0075
300.5	0.1677	0.0105
300.7	0.169	0.0107
303.7	0.211	0.0133
305.7	0.2482	0.0155
310.7	0.3265	0.0205
315.7	0.4646	0.029
320.8	0.6274	0.039
323.2	0.7094	0.0445
325.8	0.8534	0.0533
330.9	1.093	0.0682
335.9	1.4788	0.0921
338.5	1.7328	0.1077
340.9	1.9475	0.1209
346	2.4601	0.1526
348.5	2.8933	0.1799
350.9	3.2089	0.1994
356.1	4.1637	0.2576

System: N,N-dipropylformamide; phases: Liquid, Gas
Property: Vapor or sublimation pressure, kPa (Liquid); method: Transpiration method
Temperature, K	Vapor or sublimation pressure, kPa	uncertainty
278.5	0.00516	0.00037
285.1	0.00949	0.00064
282.4	0.00741	0.00051
283.4	0.00814	0.00056
288.2	0.01246	0.00084
290.2	0.01527	0.00102
292.2	0.01766	0.00117
296.5	0.02608	0.00172
294.8	0.02239	0.00145
298.4	0.03075	0.00195
301.2	0.03699	0.00238
299.4	0.03131	0.00202
295.8	0.02392	0.00156
305.1	0.05251	0.00336
306.1	0.05391	0.00339
307.2	0.05892	0.00374
308.2	0.06219	0.004
302.9	0.04152	0.0027
310.4	0.07592	0.00484
311.3	0.08121	0.00518
313.4	0.09479	0.00604
315.4	0.11305	0.0071
316.4	0.11447	0.00717
319.4	0.14757	0.0097
318.5	0.13205	0.0084

System: N,N-dibutylformamide; phases: Liquid, Gas
Property: Vapor or sublimation pressure, kPa (Liquid); method: Transpiration method
Temperature, K	Vapor or sublimation pressure, kPa	uncertainty
293.1	0.0026	0.00018
295.8	0.00329	0.00022
296.9	0.00365	0.00025
298	0.004	0.00027
298.7	0.00421	0.00028
298.9	0.00438	0.00028
301.4	0.00534	0.00038
304.6	0.00705	0.00049
304.8	0.00709	0.00049
308.3	0.0097	0.00066
308.7	0.01006	0.00069
310.7	0.01193	0.00079
311.6	0.01265	0.00084
312.5	0.01383	0.00092
313.3	0.01469	0.00097
314.7	0.01666	0.0011
315.3	0.01776	0.00119
318.2	0.0217	0.0014
318.4	0.02183	0.0014
321.1	0.02589	0.00168
322.6	0.03097	0.002
322.8	0.03141	0.00203
323.8	0.03251	0.00209
326.8	0.04037	0.00257
329.6	0.04927	0.00313

System: N,N-dibutylformamide; phases: Liquid, Gas
Property: Vapor or sublimation pressure, kPa (Liquid); method: Transpiration method
Temperature, K	Vapor or sublimation pressure, kPa	uncertainty
299.3	0.00469	0.0003
304.5	0.00695	0.00048
309.9	0.01103	0.00074
315.1	0.01677	0.0011
320.5	0.0256	0.00165
325.8	0.03894	0.00248
329.4	0.04901	0.00314
334.7	0.0724	0.00457

System: N-butylformamide; phases: Liquid, Gas
Property: Vapor or sublimation pressure, kPa (Liquid); method: Transpiration method
Temperature, K	Vapor or sublimation pressure, kPa	uncertainty
297.1	0.00293	0.0002
298.2	0.00321	0.00022
299.3	0.00349	0.00023
301.2	0.00422	0.00028
304.2	0.0056	0.00041
307.2	0.00731	0.00051
310.2	0.00912	0.00062
314.1	0.01307	0.00086
316.2	0.01498	0.00099
317.8	0.01763	0.00114
318.2	0.01802	0.00117
320.2	0.02208	0.00144
323.1	0.02695	0.00174
326.2	0.03461	0.00221
329.1	0.04093	0.00262
331.2	0.05017	0.00324
334.2	0.06336	0.00404
337.1	0.07893	0.00498
340.2	0.09365	0.0059
343.2	0.11511	0.00725
346.2	0.14027	0.00884
349.1	0.17189	0.0108
352.2	0.208	0.013

System: N-benzylformamide; phases: Liquid, Gas
Property: Vapor or sublimation pressure, kPa (Liquid); method: Transpiration method
Temperature, K	Vapor or sublimation pressure, kPa	uncertainty
333.2	0.00135	0.0001
335.2	0.00163	0.00012
337.3	0.00184	0.00012
340.4	0.0024	0.00017
343.3	0.00302	0.0002
346.3	0.0039	0.00025
349.4	0.00487	0.00032
352.4	0.00628	0.00043
355.2	0.00772	0.00053
358.3	0.00961	0.00065
361.3	0.01201	0.0008
364.5	0.01468	0.00096
367.4	0.01808	0.00119
370.4	0.02275	0.00146

System: N-benzylformamide; phases: Crystal, Gas
Property: Vapor or sublimation pressure, kPa (Crystal); method: Transpiration method
Temperature, K	Vapor or sublimation pressure, kPa	uncertainty
300.6	2.7e-05	1.2e-05
302.5	3.6e-05	1.2e-05
306.3	5.6e-05	1.2e-05
310.2	9.6e-05	1.5e-05
313.2	0.000139	1.7e-05
315.4	0.000181	2.1e-05
318.5	0.000256	2.4e-05
319.2	0.000269	2.7e-05
320.4	0.000324	3e-05
321.5	0.00036	3.2e-05
323.1	0.000442	3.7e-05
324.6	0.000533	4.2e-05
325.2	0.000543	4.4e-05
326.5	0.000645	5.1e-05
328.5	0.000829	6e-05
328.9	0.000838	6e-05
330.6	0.000993	7.2e-05
331.2	0.00106	7.6e-05
