Measured thermophysical data. Solid-liquid phase equilibria of (Mg(H2PO2)2 + H2O), (Mg(H2PO2)2 + NaH2PO2 + H2O) and (Mg(H2PO2)2 + MgCl2 + H2O) systems
Source: Fluid Phase Equilib., 2016, 10.1016/j.fluid.2015.11.033
Compound 1: sodium phosphinate, H2NaO2P, InChI=1S/Na.H3O2P/c;1-3-2/h;3H2,(H,1,2)/q+1;/p-1
Compound 2: magnesium hypophosphite, H4MgO4P2, InChI=1S/Mg.2H3O2P/c;2*1-3-2/h;2*3H2,(H,1,2)/q+2;;/p-2
Compound 3: magnesium chloride, Cl2Mg, InChI=1S/2ClH.Mg/h2*1H;/q;;+2/p-2
Compound 4: water, H2O, InChI=1S/H2O/h1H2, purity 99.8%

System: water + magnesium hypophosphite; phases: Liquid, Crystal
Fixed: Pressure, kPa = 101
Property: Mole fraction of magnesium hypophosphite (Liquid); method: Titration method
Temperature, K	Mole fraction of magnesium hypophosphite	uncertainty
273.15	0	
272.05	0.0323	0.0029

System: water + magnesium hypophosphite; phases: Liquid, Crystal of intercomponent compound 2
Fixed: Pressure, kPa = 101
Property: Mole fraction of magnesium hypophosphite (Liquid); method: Titration method
Temperature, K	Mole fraction of magnesium hypophosphite	uncertainty
273.15	0.00731	8e-05
283.15	0.00852	9e-05
293.15	0.01041	0.00011
298.15	0.01169	0.00012
303.15	0.01314	0.00014
313.15	0.01672	0.00018
318.15	0.01945	0.00021

System: water + magnesium hypophosphite; phases: Liquid, Crystal
Fixed: Pressure, kPa = 101
Property: Mole fraction of magnesium hypophosphite (Liquid); method: Titration method
Temperature, K	Mole fraction of magnesium hypophosphite	uncertainty
325.15	0.2501	0.0026
333.15	0.2378	0.0024
343.15	0.2286	0.0023
353.15	0.2225	0.0023
363.15	0.2199	0.0022
373.15	0.2161	0.0022
375.65	0.2134	0.0022

System: water + magnesium hypophosphite; phases: Liquid, Crystal of intercomponent compound 1
Property: Mole fraction of magnesium hypophosphite (Liquid); method: Titration method
Temperature, K	Pressure, kPa	Mole fraction of magnesium hypophosphite	uncertainty
270.65	101	0.0709	0.0007

System: water + magnesium hypophosphite; phases: Liquid, Crystal of intercomponent compound 3, Crystal
Property: Mole fraction of magnesium hypophosphite (Liquid); method: Titration method
Temperature, K	Mole fraction of magnesium hypophosphite	uncertainty
323.15	0.2243	0.0007

System: sodium phosphinate + water + magnesium hypophosphite; phases: Liquid, Crystal of intercomponent compound 1
Fixed: Temperature, K = 298.15
Fixed: Pressure, kPa = 101
Property: Mass fraction of sodium phosphinate (Liquid); method: Titration method
Mass fraction of magnesium hypophosphite	Mass fraction of sodium phosphinate	uncertainty
0.1169	0	
0.0704	0.0655	0.0018
0.0442	0.1232	0.0025
0.0285	0.1953	0.0037
0.0217	0.2494	0.0045

System: sodium phosphinate + water + magnesium hypophosphite; phases: Liquid, Crystal of intercomponent compound 2
Fixed: Mass fraction of magnesium hypophosphite = 0.0214
Fixed: Temperature, K = 298.15
Fixed: Pressure, kPa = 101
Property: Mass fraction of sodium phosphinate (Liquid); method: Titration method
Mass fraction of sodium phosphinate	uncertainty
0.2558	0.0041
0.2558	0.0041
0.2558	0.0041
0.2558	0.0041
0.2558	0.0041

System: sodium phosphinate + water + magnesium hypophosphite; phases: Liquid, Crystal of intercomponent compound 3
Fixed: Temperature, K = 298.15
Fixed: Pressure, kPa = 101
Property: Mass fraction of sodium phosphinate (Liquid); method: Titration method
Mass fraction of magnesium hypophosphite	Mass fraction of sodium phosphinate	uncertainty
0.0073	0.2838	0.0047
0.0035	0.3339	0.0054
0.0015	0.3665	0.0059
0.0007	0.392	0.0073
0.0006	0.4352	0.0077
0.0006	0.4898	0.0106

System: sodium phosphinate + water + magnesium hypophosphite; phases: Liquid, Crystal of intercomponent compound 1
Fixed: Mass fraction of magnesium hypophosphite = 0.0006
Fixed: Temperature, K = 298.15
Fixed: Pressure, kPa = 101
Property: Mass fraction of sodium phosphinate (Liquid); method: Titration method
Mass fraction of sodium phosphinate	uncertainty
0.5108	0.0082
0.5108	0.0082
0.5108	0.0082
0.5108	0.0082
0.5108	0.0082

System: sodium phosphinate + water + magnesium hypophosphite; phases: Liquid, Crystal of intercomponent compound 2
Fixed: Temperature, K = 298.15
Fixed: Pressure, kPa = 101
Property: Mass fraction of sodium phosphinate (Liquid); method: Titration method
Mass fraction of magnesium hypophosphite	Mass fraction of sodium phosphinate	uncertainty
0.0005	0.5147	0.0083
0	0.5195	0.0084

System: sodium phosphinate + water + magnesium hypophosphite; phases: Liquid
Fixed: Pressure, kPa = 101.3
Fixed: Temperature, K = 298.15
Property: Mass density, kg/m3 (Liquid); method: Vibrating tube method
Mass fraction of magnesium hypophosphite	Mass fraction of sodium phosphinate	Mass density, kg/m3	uncertainty
0.1169	0	1087.9	0.5
0.0704	0.0655	1101.4	1.8
0.0442	0.1232	1128.2	2.5
0.0285	0.1953	1167.7	5.8
0.0217	0.2494	1209.3	27.3
0.0214	0.2558	1248.6	28
0.0214	0.2558	1248.4	27.8
0.0214	0.2558	1248.8	28.1
0.0214	0.2558	1248.9	28.2
0.0214	0.2558	1248.8	28.1
0.0073	0.2838	1247.3	3.5
0.0035	0.3339	1279	6.8
0.0015	0.3665	1312.2	19.3
0.0007	0.392	1383.8	4.8
0.0006	0.4352	1421	3.7
0.0006	0.4898	1438.7	3.7
0.0006	0.5108	1441.5	3.9
0.0006	0.5108	1441.6	3.9
0.0006	0.5108	1441.8	3.9
0.0006	0.5108	1441.6	3.9
0.0006	0.5108	1441.5	3.9
0.0005	0.5147	1439.4	3.5
0	0.5195	1431.4	16.7

System: water + magnesium chloride + magnesium hypophosphite; phases: Liquid, Crystal of intercomponent compound 1
Fixed: Pressure, kPa = 101.3
Fixed: Temperature, K = 298.15
Property: Mass fraction of magnesium chloride (Liquid); method: Titration method
Mass fraction of magnesium hypophosphite	Mass fraction of magnesium chloride	uncertainty
0.1169	0	
0.0958	0.0452	0.0142
0.0933	0.0821	0.0189
0.0922	0.122	0.0451
0.0915	0.1723	0.0873
0.0912	0.2225	0.1468
0.091	0.2525	0.1365

System: water + magnesium chloride + magnesium hypophosphite; phases: Liquid, Crystal of intercomponent compound 2
Fixed: Mass fraction of magnesium hypophosphite = 0.0905
Fixed: Pressure, kPa = 101.3
Fixed: Temperature, K = 298.15
Property: Mass fraction of magnesium chloride (Liquid); method: Titration method
Mass fraction of magnesium chloride	uncertainty
0.2725	0.0033
0.2725	0.0033
0.2725	0.0033
0.2725	0.0033

System: water + magnesium chloride + magnesium hypophosphite; phases: Liquid, Crystal of intercomponent compound 3
Fixed: Pressure, kPa = 101.3
Fixed: Temperature, K = 298.15
Property: Mass fraction of magnesium chloride (Liquid); method: Titration method
Mass fraction of magnesium hypophosphite	Mass fraction of magnesium chloride	uncertainty
0.0729	0.2862	0.0037
0.0644	0.3011	0.0042
0.0625	0.3071	0.0063
0.0609	0.3298	0.0095

System: water + magnesium chloride + magnesium hypophosphite; phases: Liquid, Crystal of intercomponent compound 1
Fixed: Mass fraction of magnesium hypophosphite = 0.0586
Fixed: Pressure, kPa = 101.3
Fixed: Temperature, K = 298.15
Property: Mass fraction of magnesium chloride (Liquid); method: Titration method
Mass fraction of magnesium chloride	uncertainty
0.3321	0.004
0.3321	0.004
0.3321	0.004

System: water + magnesium chloride + magnesium hypophosphite; phases: Liquid, Crystal of intercomponent compound 2
Fixed: Pressure, kPa = 101.3
Fixed: Temperature, K = 298.15
Property: Mass fraction of magnesium chloride (Liquid); method: Titration method
Mass fraction of magnesium hypophosphite	Mass fraction of magnesium chloride	uncertainty
0.0516	0.3318	0.0041
0.0461	0.3376	0.0041
0.0352	0.339	0.0041
0.0252	0.3454	0.0042
0	0.3565	0.0043

System: water + magnesium chloride + magnesium hypophosphite; phases: Liquid
Fixed: Pressure, kPa = 101.3
Fixed: Temperature, K = 298.15
Property: Mass density, kg/m3 (Liquid); method: Vibrating tube method
Mass fraction of magnesium hypophosphite	Mass fraction of magnesium chloride	Mass density, kg/m3	uncertainty
0.1169	0	1087.8	1
0.0958	0.0452	1120.8	1
0.0933	0.0821	1160	2
0.0922	0.122	1210.8	22.4
0.0915	0.1723	1258.2	2
0.0912	0.2225	1298.7	2.5
0.091	0.2525	1325.8	4.8
0.0905	0.2725	1378.1	8.8
0.0905	0.2725	1377.9	8.8
0.0905	0.2725	1378.2	8.9
0.0905	0.2725	1377.9	8.8
0.0729	0.2862	1395.2	4.4
0.0644	0.3011	1401.7	1.8
0.0625	0.3071	1402.1	2.1
0.0609	0.3298	1407.8	3.3
0.0586	0.3321	1417.9	2.8
0.0586	0.3321	1418.1	2.8
0.0586	0.3321	1417.8	2.8
0.0516	0.3318	1408.9	5.3
0.0461	0.3376	1394.4	5.3
0.0352	0.339	1391.1	4.5
0.0252	0.3454	1384.5	4.9
0	0.3565	1378.2	4.8
