Measured thermophysical data. Isobaric vapor-liquid-liquid equilibrium for water + cyclohexane + acetic acid at 101.3 kPa
Source: Fluid Phase Equilib., 2013, 10.1016/j.fluid.2013.04.011
Compound 1: cyclohexane, C6H12, InChI=1S/C6H12/c1-2-4-6-5-3-1/h1-6H2, purity 99.5%
Compound 2: acetic acid, C2H4O2, InChI=1S/C2H4O2/c1-2(3)4/h1H3,(H,3,4), purity 99.5%
Compound 3: water, H2O, InChI=1S/H2O/h1H2, purity 99.9%

System: acetic acid + cyclohexane + water; phases: Liquid mixture 2, Gas, Liquid mixture 1
Fixed: Pressure, kPa = 101.3
Property: Mole fraction of water (Liquid mixture 2); method: Chromatography
Property: Mole fraction of cyclohexane (Liquid mixture 2); method: Chromatography
Property: Mole fraction of cyclohexane (Liquid mixture 1); method: Chromatography
Property: Mole fraction of water (Liquid mixture 1); method: Chromatography
Property: Mole fraction of water (Gas); method: Chromatography
Property: Mole fraction of cyclohexane (Gas); method: Chromatography
Temperature, K	Mole fraction of water	uncertainty	Mole fraction of cyclohexane	uncertainty	Mole fraction of cyclohexane	uncertainty	Mole fraction of water	uncertainty	Mole fraction of water	uncertainty	Mole fraction of cyclohexane	uncertainty
342.16	1		0		1		0		0.3	0.0027	0.7	0.0039
342.96	0.9163	0.0682	0		0.9902	0.0098	0		0.3111	0.0096	0.6745	0.0069
343.08	0.8345	0.0682	0		0.9736	0.0138	0.0057	0.0048	0.2999	0.0096	0.6668	0.0069
343.64	0.7681	0.0206	0		0.9597	0.006	0.0067	0.0005	0.299	0.0033	0.6527	0.0036
343.86	0.6578	0.0392	0.003	0.0011	0.92	0.0095	0.0085	0.0006	0.277	0.01	0.6485	0.0027
343.94	0.5981	0.0406	0.0039	0.0011	0.9103	0.0102	0.008	0.0006	0.2583	0.0101	0.6654	0.0026
344.17	0.558	0.0184	0.0056	0.0008	0.9075	0.0066	0.0088	0.0004	0.2473	0.005	0.6538	0.0028
344.46	0.5041	0.0152	0.0072	0.0008	0.8773	0.0054	0.0085	0.0005	0.2345	0.0044	0.6603	0.0026
345.06	0.4248	0.0161	0.012	0.0022	0.8568	0.0092	0.0106	0.0011	0.2117	0.0047	0.6548	0.0027
345.47	0.3431	0.0171	0.0303	0.0037	0.7806	0.0159	0.0195	0.0014	0.1898	0.0043	0.6598	0.0027
345.78	0.3042	0.0158	0.0378	0.0049	0.7441	0.0203	0.0195	0.0009	0.1833	0.0035	0.659	0.004
345.86	0.2502	0.0152	0.0582	0.0047	0.6854	0.0196	0.0212	0.0008	0.1803	0.0035	0.6333	0.0039
346.37	0.2041	0.0111	0.073	0.0057	0.6037	0.0189	0.0258	0.0013	0.1615	0.0048	0.6339	0.003
346.55	0.1703	0.0188	0.1029	0.0166	0.5513	0.0293	0.0307	0.0028	0.1462	0.0086	0.641	0.0048
