Measured thermophysical data. Mixture densities and viscosities of toluene with ethylene or propylene at temperatures to 530 K and pressures to 70 MPa
Source: Fluid Phase Equilib., 2019, 10.1016/j.fluid.2019.06.022
Compound 1: toluene, C7H8, InChI=1S/C7H8/c1-7-5-3-2-4-6-7/h2-6H,1H3, purity 99.9%
Compound 2: ethene, C2H4, InChI=1S/C2H4/c1-2/h1-2H2, purity 99.9%
Compound 3: propene, C3H6, InChI=1S/C3H6/c1-3-2/h3H,1H2,2H3, purity 99.5%

System: ethene + toluene; phases: Liquid
Property: Mass density, kg/m3 (Liquid); method: Bellows volumetry
Mole fraction of ethene	Temperature, K	Pressure, kPa	Mass density, kg/m3	uncertainty
0.1131	295.4	2700	815.8	19.6
0.1131	295.4	2800	815.8	19.6
0.1131	295.4	11400	823.1	19.8
0.1131	295.4	11500	823.1	19.8
0.1131	295.4	20400	829.9	19.9
0.1131	295.4	20500	829.9	19.9
0.1131	295.4	36200	840.8	20.2
0.1131	295.4	36200	840.8	20.2
0.1131	322.1	4200	792.1	19
0.1131	322.1	4200	792.1	19
0.1131	322.1	10200	798.1	19.2
0.1131	322.1	10200	798.1	19.2
0.1131	322.1	21200	808	19.4
0.1131	322.1	21200	808	19.4
0.1131	322.1	34400	819.1	19.7
0.1131	322.1	34500	819.1	19.7
0.1131	322.1	48200	828.5	19.9
0.1131	322.1	48200	828.5	19.9
0.1131	322.1	48100	828.1	19.9
0.1131	322.1	65900	840	20.2
0.1131	322.1	65900	840	20.2
0.1131	369.3	4200	748.1	18
0.1131	369.3	4300	748.1	18
0.1131	369.3	10200	755.4	18.1
0.1131	369.3	10300	755.4	18.1
0.1131	369.3	10300	755.4	18.1
0.1131	369.3	10300	755.4	18.1
0.1131	369.3	20700	767.5	18.4
0.1131	369.3	20800	767.5	18.4
0.1131	369.3	34800	781.7	18.8
0.1131	369.3	34800	781.7	18.8
0.1131	369.3	48700	794.3	19.1
0.1131	369.3	48800	794.3	19.1
0.1131	369.3	68400	809.5	19.4
0.1131	369.3	68500	809.5	19.4
0.1131	437	3900	678.2	16.3
0.1131	437	4200	678.2	16.3
0.1131	437	13700	699	16.8
0.1131	437	14100	699.1	16.8
0.1131	437	27600	721	17.3
0.1131	437	27800	721	17.3
0.1131	437	41400	738.3	17.7
0.1131	437	41500	738.3	17.7
0.1131	437	42400	740	17.8
0.1131	437	42700	740	17.8
0.1131	437	54200	750.9	18
0.1131	437	54300	750.9	18
0.1131	437	67900	763.9	18.3
0.1131	437	67900	763.9	18.3
0.1131	522.7	9400	581.8	14
0.1131	522.7	9800	581.8	14
0.1131	522.7	31600	643.4	15.5
0.1131	522.7	32000	643.4	15.5
0.1131	522.7	32200	643.5	15.5
0.1131	522.7	41200	659.4	15.8
0.1131	522.7	41700	659.4	15.8
0.1131	522.7	56200	679.5	16.3
0.1131	522.7	56300	679.4	16.3
0.1131	522.7	67600	693.8	16.7
0.1131	522.7	68100	693.8	16.7
0.3241	298	3400	754.7	18.1
0.3241	298	3700	754.7	18.1
0.3241	298	10000	767.2	18.4
0.3241	298	10000	767.2	18.4
0.3241	298	22000	778.9	18.7
0.3241	298	22000	778.9	18.7
0.3241	298	22300	778.9	18.7
0.3241	298	22400	778.9	18.7
0.3241	298	35100	789.8	19
0.3241	298	35100	789.8	19
0.3241	298	48000	799.7	19.2
0.3241	298	48000	799.7	19.2
0.3241	298	68400	813.3	19.5
0.3241	298	68500	813.3	19.5
0.3241	322.2	7200	739.3	17.7
0.3241	322.2	7200	739.3	17.7
0.3241	322.2	14700	748.2	18
0.3241	322.2	14700	748.2	18
0.3241	322.2	21700	756.1	18.2
0.3241	322.2	21800	756.1	18.2
0.3241	322.2	34300	768.4	18.4
0.3241	322.2	34500	768.4	18.4
0.3241	322.2	48300	780.5	18.7
0.3241	322.2	48300	780.5	18.7
0.3241	322.2	68800	795.9	19.1
0.3241	322.2	68800	795.8	19.1
0.3241	368.1	6800	692.1	16.6
0.3241	368.1	6800	692.1	16.6
0.3241	368.1	13800	704	16.9
0.3241	368.1	13900	704	16.9
0.3241	368.1	26500	721.7	17.3
0.3241	368.1	26500	720.9	17.3
0.3241	368.1	26600	720.8	17.3
0.3241	368.1	26600	721.6	17.3
0.3241	368.1	41800	736.7	17.7
0.3241	368.1	42100	736.7	17.7
0.3241	368.1	54100	749.3	18
0.3241	368.1	54100	749.3	18
0.3241	368.1	54300	749.3	18
0.3241	368.1	54300	749.3	18
0.3241	368.1	68200	761.9	18.3
0.3241	368.1	68200	761.9	18.3
0.3241	435.9	15500	638	15.3
0.3241	435.9	15900	637.9	15.3
0.3241	435.9	27600	662	15.9
0.3241	435.9	27700	662	15.9
0.3241	435.9	41800	685.4	16.5
0.3241	435.9	42000	685.3	16.5
0.3241	435.9	42000	685.5	16.5
0.3241	435.9	42200	685.4	16.5
0.3241	435.9	56000	703.4	16.9
0.3241	435.9	56200	703.4	16.9
0.3241	435.9	68400	716.8	17.2
0.3241	435.9	68500	716.8	17.2
0.3241	522	23100	555.7	13.4
0.3241	522	23200	555.5	13.4
0.3241	522	29400	574.4	13.8
0.3241	522	29400	574.7	13.8
0.3241	522	29400	574.6	13.8
0.3241	522	29500	574.4	13.8
0.3241	522	38300	597.1	14.4
0.3241	522	38300	596.6	14.3
0.3241	522	38300	596.8	14.3
0.3241	522	38300	597	14.3
0.3241	522	50700	621.2	14.9
0.3241	522	50700	620.9	14.9
0.3241	522	50800	621.2	14.9
0.3241	522	50900	621.2	14.9
0.3241	522	68400	645.9	15.5
0.3241	522	68700	646	15.5

System: ethene + toluene; phases: Liquid
Property: Viscosity, Pa*s (Liquid); method: Falling or rolling sphere viscometry
Mole fraction of ethene	Temperature, K	Pressure, kPa	Viscosity, Pa*s	uncertainty
0.1131	295.4	2700	0.000474	1.9e-05
0.1131	295.4	2800	0.000474	1.9e-05
0.1131	295.4	11400	0.000508	2.1e-05
0.1131	295.4	11500	0.000509	2.1e-05
0.1131	295.4	20400	0.000551	2.2e-05
0.1131	295.4	20500	0.000548	2.2e-05
0.1131	295.4	36200	0.000614	2.5e-05
0.1131	295.4	36200	0.000615	2.5e-05
0.1131	322.1	4200	0.00036	1.5e-05
0.1131	322.1	4200	0.000361	1.5e-05
0.1131	322.1	10200	0.000376	1.5e-05
0.1131	322.1	10200	0.000377	1.5e-05
0.1131	322.1	21200	0.000415	1.7e-05
0.1131	322.1	21200	0.000415	1.7e-05
0.1131	322.1	34400	0.000442	1.8e-05
0.1131	322.1	34500	0.000452	1.8e-05
0.1131	322.1	48200	0.000498	2e-05
0.1131	322.1	48200	0.000497	2e-05
0.1131	322.1	48100	0.000495	2e-05
0.1131	322.1	65900	0.000556	2.3e-05
0.1131	322.1	65900	0.00055	2.2e-05
0.1131	369.3	4200	0.000235	1e-05
0.1131	369.3	4300	0.000236	1e-05
0.1131	369.3	10200	0.000251	1.1e-05
0.1131	369.3	10300	0.00025	1.1e-05
0.1131	369.3	10300	0.00025	1.1e-05
0.1131	369.3	10300	0.00025	1.1e-05
0.1131	369.3	20700	0.000273	1.1e-05
0.1131	369.3	20800	0.000273	1.1e-05
0.1131	369.3	34800	0.000305	1.2e-05
0.1131	369.3	34800	0.000304	1.2e-05
0.1131	369.3	48700	0.000335	1.4e-05
0.1131	369.3	48800	0.000335	1.4e-05
0.1131	369.3	68400	0.000382	1.6e-05
0.1131	369.3	68500	0.000379	1.5e-05
0.1131	437	3900	0.000155	6e-06
0.1131	437	4200	0.000153	6e-06
0.1131	437	13700	0.000173	7e-06
0.1131	437	14100	0.000172	7e-06
0.1131	437	27600	0.000196	8e-06
0.1131	437	27800	0.000197	8e-06
0.1131	437	41400	0.00022	9e-06
0.1131	437	41500	0.00022	9e-06
0.1131	437	42400	0.000222	9e-06
0.1131	437	42700	0.000224	9e-06
0.1131	437	54200	0.000242	1e-05
0.1131	437	54300	0.000243	1e-05
0.1131	437	67900	0.000264	1.1e-05
0.1131	437	67900	0.000264	1.1e-05
0.1131	522.7	9400	0.000101	4e-06
0.1131	522.7	9800	0.000103	4e-06
0.1131	522.7	31600	0.000137	6e-06
0.1131	522.7	32000	0.000131	5e-06
0.1131	522.7	32200	0.000132	5e-06
0.1131	522.7	41200	0.00015	6e-06
0.1131	522.7	41700	0.000145	6e-06
0.1131	522.7	56200	0.000167	7e-06
0.1131	522.7	56300	0.000162	7e-06
0.1131	522.7	67600	0.000179	7e-06
0.1131	522.7	68100	0.000177	7e-06
0.3241	298	3400	0.000309	1.3e-05
0.3241	298	3700	0.000312	1.3e-05
0.3241	298	10000	0.000328	1.3e-05
0.3241	298	10000	0.000332	1.4e-05
0.3241	298	22000	0.00036	1.5e-05
0.3241	298	22000	0.000364	1.5e-05
0.3241	298	22300	0.000362	1.5e-05
0.3241	298	22400	0.000366	1.5e-05
0.3241	298	35100	0.000402	1.6e-05
0.3241	298	35100	0.000398	1.6e-05
0.3241	298	48000	0.000434	1.8e-05
0.3241	298	48000	0.000439	1.8e-05
0.3241	298	68400	0.000496	2.2e-05
0.3241	298	68500	0.0005	2.2e-05
0.3241	322.2	7200	0.00025	1e-05
0.3241	322.2	7200	0.000253	1e-05
0.3241	322.2	14700	0.000268	1.1e-05
0.3241	322.2	14700	0.00027	1.1e-05
0.3241	322.2	21700	0.000288	1.2e-05
0.3241	322.2	21800	0.000283	1.2e-05
0.3241	322.2	34300	0.000313	1.3e-05
0.3241	322.2	34500	0.000317	1.3e-05
0.3241	322.2	48300	0.000344	1.4e-05
0.3241	322.2	48300	0.000348	1.4e-05
0.3241	322.2	68800	0.000391	1.6e-05
0.3241	322.2	68800	0.000397	1.6e-05
0.3241	368.1	6800	0.000171	7e-06
0.3241	368.1	6800	0.000169	7e-06
0.3241	368.1	13800	0.000182	7e-06
0.3241	368.1	13900	0.000185	8e-06
0.3241	368.1	26500	0.000205	9e-06
0.3241	368.1	26500	0.000208	8e-06
0.3241	368.1	26600	0.000207	9e-06
0.3241	368.1	26600	0.000208	9e-06
0.3241	368.1	41800	0.000234	1e-05
0.3241	368.1	42100	0.000235	1e-05
0.3241	368.1	54100	0.000254	1e-05
0.3241	368.1	54100	0.000255	1e-05
0.3241	368.1	54300	0.000253	1e-05
0.3241	368.1	54300	0.000256	1e-05
0.3241	368.1	68200	0.000278	1.1e-05
0.3241	368.1	68200	0.000279	1.1e-05
0.3241	435.9	15500	0.000126	5e-06
0.3241	435.9	15900	0.000126	5e-06
0.3241	435.9	27600	0.000146	6e-06
0.3241	435.9	27700	0.000144	6e-06
0.3241	435.9	41800	0.000165	7e-06
0.3241	435.9	42000	0.000168	7e-06
0.3241	435.9	42000	0.000164	7e-06
0.3241	435.9	42200	0.000166	7e-06
0.3241	435.9	56000	0.000192	8e-06
0.3241	435.9	56200	0.000188	8e-06
0.3241	435.9	68400	0.000202	8e-06
0.3241	435.9	68500	0.000199	8e-06
0.3241	522	23100	9.7e-05	4e-06
0.3241	522	23200	9.5e-05	4e-06
0.3241	522	29400	0.000102	4e-06
0.3241	522	29400	0.000102	4e-06
0.3241	522	29400	0.000104	4e-06
0.3241	522	29500	0.000103	4e-06
0.3241	522	38300	0.000113	5e-06
0.3241	522	38300	0.000114	5e-06
0.3241	522	38300	0.000115	5e-06
0.3241	522	38300	0.000112	5e-06
0.3241	522	50700	0.000125	5e-06
0.3241	522	50700	0.000126	5e-06
0.3241	522	50800	0.000125	5e-06
0.3241	522	50900	0.000123	5e-06
0.3241	522	68400	0.000144	6e-06
0.3241	522	68700	0.000142	6e-06

System: propene + toluene; phases: Liquid
Property: Mass density, kg/m3 (Liquid); method: Bellows volumetry
Mole fraction of propene	Temperature, K	Pressure, kPa	Mass density, kg/m3	uncertainty
0.0787	294.8	16200	839.2	20.1
0.0787	294.8	16200	839.2	20.1
0.0787	294.8	27900	847.6	20.3
0.0787	294.8	27900	847.6	20.3
0.0787	294.8	28000	847.6	20.3
0.0787	294.8	28100	847.6	20.3
0.0787	294.8	28200	849.8	20.4
0.0787	294.8	28200	849.8	20.4
0.0787	294.8	40900	855.9	20.5
0.0787	294.8	40900	855.9	20.5
0.0787	294.8	56200	864.7	20.8
0.0787	294.8	56300	864.7	20.8
0.0787	325.2	7100	808.6	19.4
0.0787	325.2	7400	808.6	19.4
0.0787	325.2	13900	814.5	19.6
0.0787	325.2	14200	814.2	19.5
0.0787	325.2	20600	819.6	19.7
0.0787	325.2	20600	819.6	19.7
0.0787	325.2	26900	824.5	19.8
0.0787	325.2	27100	824.5	19.8
0.0787	325.2	40500	833.6	20
0.0787	325.2	40500	833.6	20
0.0787	325.2	40700	833.6	20
0.0787	325.2	40700	833.6	20
0.0787	325.2	51500	840.7	20.2
0.0787	325.2	51600	840.7	20.2
0.0787	325.2	51600	840.7	20.2
0.0787	325.2	51900	840.7	20.2
0.0787	325.2	67700	850.9	20.4
0.0787	325.2	67900	850.9	20.4
0.0787	325.2	68000	850.9	20.4
0.0787	325.2	68000	850.9	20.4
0.0787	376.9	2400	759.5	18.2
0.0787	376.9	2400	759.5	18.2
0.0787	376.9	3100	760.8	18.3
0.0787	376.9	3200	760.8	18.3
0.0787	376.9	3900	762.5	18.3
0.0787	376.9	8400	767	18.4
0.0787	376.9	8500	767	18.4
0.0787	376.9	8600	767	18.4
0.0787	376.9	8700	767.3	18.4
0.0787	376.9	14300	774.1	18.6
0.0787	376.9	14600	774.1	18.6
0.0787	376.9	26800	786.3	18.9
0.0787	376.9	27000	786.3	18.9
0.0787	376.9	27200	786.6	18.9
0.0787	376.9	27400	786.6	18.9
0.0787	376.9	27400	786.6	18.9
0.0787	376.9	27600	786.6	18.9
0.0787	376.9	41000	799.3	19.2
0.0787	376.9	41000	798.4	19.2
0.0787	376.9	41200	798.4	19.2
0.0787	376.9	41200	799.3	19.2
0.0787	376.9	55500	810.5	19.5
0.0787	376.9	55800	810.5	19.5
0.0787	376.9	68600	819.9	19.7
0.0787	376.9	68900	819.9	19.7
0.0787	443	3200	691.9	16.6
0.0787	443	3300	691.6	16.6
0.0787	443	10500	706.3	17
0.0787	443	10500	706.3	17
0.0787	443	15100	714.5	17.2
0.0787	443	15300	714.5	17.2
0.0787	443	27100	732.1	17.6
0.0787	443	27200	732.1	17.6
0.0787	443	27200	732.1	17.6
0.0787	443	27300	731.8	17.6
0.0787	443	37600	745.3	17.9
0.0787	443	37800	745.3	17.9
0.0787	443	47900	756.2	18.2
0.0787	443	47900	756.2	18.2
0.0787	443	64800	772.1	18.5
0.0787	443	65000	772.4	18.5
0.0787	531.1	7200	599.1	14.4
0.0787	531.1	19200	641.3	15.4
0.0787	531.1	19400	641.1	15.4
0.0787	531.1	31900	669.1	16.1
0.0787	531.1	31900	669.7	16.1
0.0787	531.1	31900	669.3	16.1
0.0787	531.1	32000	670.2	16.1
0.0787	531.1	32100	670	16.1
0.0787	531.1	32200	670.2	16.1
0.0787	531.1	41400	685	16.4
0.0787	531.1	41500	685	16.4
0.0787	531.1	41500	685.2	16.5
0.0787	531.1	41600	685.2	16.5
0.0787	531.1	53300	702.3	16.9
0.0787	531.1	53300	701.5	16.8
0.0787	531.1	53400	701.7	16.8
0.0787	531.1	53400	702.5	16.9
0.0787	531.1	67100	718.1	17.2
0.0787	531.1	67200	718.6	17.3
0.3073	297.5	3700	753	18.1
0.3073	297.5	3700	753	18.1
0.3073	297.5	10800	759	18.2
0.3073	297.5	10900	759	18.2
0.3073	297.5	20700	766.9	18.4
0.3073	297.5	20700	766.9	18.4
0.3073	297.5	21200	767.5	18.4
0.3073	297.5	21200	767.5	18.4
0.3073	297.5	30500	774.9	18.6
0.3073	297.5	30600	774.9	18.6
0.3073	297.5	30700	774.9	18.6
0.3073	297.5	30700	774.9	18.6
0.3073	297.5	48400	787.8	18.9
0.3073	297.5	48500	787.8	18.9
0.3073	297.5	69000	800.9	19.2
0.3073	297.5	69100	800.9	19.2
0.3073	323.1	3300	728.4	17.5
0.3073	323.1	3700	728.4	17.5
0.3073	323.1	10200	736.3	17.7
0.3073	323.1	11000	736.3	17.7
0.3073	323.1	21100	747.5	17.9
0.3073	323.1	21200	747.5	17.9
0.3073	323.1	35000	758.2	18.2
0.3073	323.1	35100	758.2	18.2
0.3073	323.1	35100	758.2	18.2
0.3073	323.1	35200	758.2	18.2
0.3073	323.1	48500	768.2	18.4
0.3073	323.1	48500	768.2	18.4
0.3073	323.1	68900	782.5	18.8
0.3073	323.1	68900	782.5	18.8
0.3073	373.4	3400	677.6	16.3
0.3073	373.4	3500	677.6	16.3
0.3073	373.4	6700	682.7	16.4
0.3073	373.4	6800	682.7	16.4
0.3073	373.4	17500	697.6	16.7
0.3073	373.4	17500	697.6	16.7
0.3073	373.4	27500	710.3	17.1
0.3073	373.4	27700	710.2	17
0.3073	373.4	39100	722.7	17.3
0.3073	373.4	39200	722.7	17.3
0.3073	373.4	39300	722.7	17.3
0.3073	373.4	39600	722.7	17.3
0.3073	373.4	54700	737.2	17.7
0.3073	373.4	54800	737.2	17.7
0.3073	373.4	69000	748.6	18
0.3073	373.4	69100	748.6	18
0.3073	440.5	3600	599.7	14.4
0.3073	440.5	3600	599.7	14.4
0.3073	440.5	7500	612.2	14.7
0.3073	440.5	7600	612.2	14.7
0.3073	440.5	20300	642.2	15.4
0.3073	440.5	37200	669.5	16.1
0.3073	440.5	37200	669.5	16.1
0.3073	440.5	37400	669.5	16.1
0.3073	440.5	37500	669.5	16.1
0.3073	440.5	50100	683.9	16.4
0.3073	440.5	50200	683.8	16.4
0.3073	440.5	68600	703.5	16.9
0.3073	440.5	68700	703.5	16.9
0.3073	529.2	35300	593.8	14.3
0.3073	529.2	35300	593.8	14.3
0.3073	529.2	49000	619	14.9
0.3073	529.2	49000	619.1	14.9
0.3073	529.2	68500	647.6	15.6
0.3073	529.2	68600	647.5	15.5

System: propene + toluene; phases: Liquid
Property: Viscosity, Pa*s (Liquid); method: Falling or rolling sphere viscometry
Mole fraction of propene	Temperature, K	Pressure, kPa	Viscosity, Pa*s	uncertainty
0.0787	294.8	16200	0.000656	2.7e-05
0.0787	294.8	16200	0.000638	2.6e-05
0.0787	294.8	27900	0.0007	2.9e-05
0.0787	294.8	27900	0.000696	2.8e-05
0.0787	294.8	28000	0.000689	2.8e-05
0.0787	294.8	28100	0.000696	2.8e-05
0.0787	294.8	28200	0.000694	2.8e-05
0.0787	294.8	28200	0.000693	2.8e-05
0.0787	294.8	40900	0.00077	3.1e-05
0.0787	294.8	40900	0.000772	3.2e-05
0.0787	294.8	56200	0.000856	3.5e-05
0.0787	294.8	56300	0.000854	3.5e-05
0.0787	325.2	7100	0.000423	1.7e-05
0.0787	325.2	7400	0.000421	1.7e-05
0.0787	325.2	13900	0.000435	1.8e-05
0.0787	325.2	14200	0.00044	1.8e-05
0.0787	325.2	20600	0.000468	1.9e-05
0.0787	325.2	20600	0.000467	1.9e-05
0.0787	325.2	26900	0.000493	2e-05
0.0787	325.2	27100	0.000495	2e-05
0.0787	325.2	40500	0.000543	2.2e-05
0.0787	325.2	40500	0.000534	2.2e-05
0.0787	325.2	40700	0.000542	2.2e-05
0.0787	325.2	40700	0.000533	2.2e-05
0.0787	325.2	51500	0.00058	2.4e-05
0.0787	325.2	51600	0.000584	2.4e-05
0.0787	325.2	51600	0.000589	2.4e-05
0.0787	325.2	51900	0.000583	2.4e-05
0.0787	325.2	67700	0.000644	2.6e-05
0.0787	325.2	67900	0.000645	2.6e-05
0.0787	325.2	68000	0.000645	2.6e-05
0.0787	325.2	68000	0.000661	2.7e-05
0.0787	376.9	2400	0.000252	1e-05
0.0787	376.9	2400	0.000252	1e-05
0.0787	376.9	3100	0.000253	1e-05
0.0787	376.9	3200	0.000252	1e-05
0.0787	376.9	3900	0.00026	1.1e-05
0.0787	376.9	8400	0.000264	1.1e-05
0.0787	376.9	8500	0.000267	1.1e-05
0.0787	376.9	8600	0.000267	1.1e-05
0.0787	376.9	8700	0.000269	1.1e-05
0.0787	376.9	14300	0.000282	1.2e-05
0.0787	376.9	14600	0.000283	1.2e-05
0.0787	376.9	26800	0.000314	1.3e-05
0.0787	376.9	27000	0.000312	1.3e-05
0.0787	376.9	27200	0.000312	1.3e-05
0.0787	376.9	27400	0.000317	1.3e-05
0.0787	376.9	27400	0.000312	1.3e-05
0.0787	376.9	27600	0.000317	1.3e-05
0.0787	376.9	41000	0.000352	1.4e-05
0.0787	376.9	41000	0.000349	1.4e-05
0.0787	376.9	41200	0.000345	1.4e-05
0.0787	376.9	41200	0.000353	1.4e-05
0.0787	376.9	55500	0.000376	1.5e-05
0.0787	376.9	55800	0.000386	1.6e-05
0.0787	376.9	68600	0.000419	1.7e-05
0.0787	376.9	68900	0.000418	1.7e-05
0.0787	443	3200	0.000152	6e-06
0.0787	443	3300	0.000151	6e-06
0.0787	443	10500	0.00017	7e-06
0.0787	443	10500	0.000166	7e-06
0.0787	443	15100	0.000178	7e-06
0.0787	443	15300	0.000178	7e-06
0.0787	443	27100	0.000201	8e-06
0.0787	443	27200	0.0002	8e-06
0.0787	443	27200	0.000201	8e-06
0.0787	443	27300	0.000201	8e-06
0.0787	443	37600	0.000221	9e-06
0.0787	443	37800	0.000218	9e-06
0.0787	443	47900	0.000243	1e-05
0.0787	443	47900	0.000244	1e-05
0.0787	443	64800	0.000271	1.1e-05
0.0787	443	65000	0.000271	1.1e-05
0.0787	531.1	7200	9.1e-05	4e-06
0.0787	531.1	19200	0.000114	5e-06
0.0787	531.1	19400	0.000113	5e-06
0.0787	531.1	31900	0.000133	5e-06
0.0787	531.1	31900	0.000133	5e-06
0.0787	531.1	31900	0.000134	5e-06
0.0787	531.1	32000	0.000133	6e-06
0.0787	531.1	32100	0.000131	5e-06
0.0787	531.1	32200	0.000136	6e-06
0.0787	531.1	41400	0.000148	6e-06
0.0787	531.1	41500	0.000145	6e-06
0.0787	531.1	41500	0.000148	6e-06
0.0787	531.1	41600	0.000146	6e-06
0.0787	531.1	53300	0.000165	7e-06
0.0787	531.1	53300	0.000165	7e-06
0.0787	531.1	53400	0.000164	7e-06
0.0787	531.1	53400	0.000165	7e-06
0.0787	531.1	67100	0.00018	7e-06
0.0787	531.1	67200	0.000179	7e-06
0.3073	297.5	3700	0.000356	1.5e-05
0.3073	297.5	3700	0.000355	1.5e-05
0.3073	297.5	10800	0.000371	1.5e-05
0.3073	297.5	10900	0.000363	1.5e-05
0.3073	297.5	20700	0.000399	1.6e-05
0.3073	297.5	20700	0.0004	1.6e-05
0.3073	297.5	21200	0.000408	1.7e-05
0.3073	297.5	21200	0.000412	1.7e-05
0.3073	297.5	30500	0.000439	1.8e-05
0.3073	297.5	30600	0.00044	1.8e-05
0.3073	297.5	30700	0.000431	1.8e-05
0.3073	297.5	30700	0.000433	1.8e-05
0.3073	297.5	48400	0.000491	2e-05
0.3073	297.5	48500	0.00049	2e-05
0.3073	297.5	69000	0.000555	2.3e-05
0.3073	297.5	69100	0.000552	2.3e-05
0.3073	323.1	3300	0.000276	1.1e-05
0.3073	323.1	3700	0.000277	1.1e-05
0.3073	323.1	10200	0.000294	1.2e-05
0.3073	323.1	11000	0.000295	1.2e-05
0.3073	323.1	21100	0.000319	1.3e-05
0.3073	323.1	21200	0.000316	1.3e-05
0.3073	323.1	35000	0.000363	1.5e-05
0.3073	323.1	35100	0.00036	1.5e-05
0.3073	323.1	35100	0.000352	1.4e-05
0.3073	323.1	35200	0.00035	1.4e-05
0.3073	323.1	48500	0.000389	1.6e-05
0.3073	323.1	48500	0.000385	1.6e-05
0.3073	323.1	68900	0.000441	1.8e-05
0.3073	323.1	68900	0.000442	1.8e-05
0.3073	373.4	3400	0.000179	7e-06
0.3073	373.4	3500	0.000177	7e-06
0.3073	373.4	6700	0.000185	8e-06
0.3073	373.4	6800	0.000186	8e-06
0.3073	373.4	17500	0.000206	8e-06
0.3073	373.4	17500	0.000207	8e-06
0.3073	373.4	27500	0.000225	9e-06
0.3073	373.4	27700	0.000224	9e-06
0.3073	373.4	39100	0.000244	1e-05
0.3073	373.4	39200	0.000243	1e-05
0.3073	373.4	39300	0.000246	1e-05
0.3073	373.4	39600	0.000247	1e-05
0.3073	373.4	54700	0.00027	1.1e-05
0.3073	373.4	54800	0.000271	1.1e-05
0.3073	373.4	69000	0.000297	1.2e-05
0.3073	373.4	69100	0.000296	1.2e-05
0.3073	440.5	3600	0.00012	5e-06
0.3073	440.5	3600	0.000121	5e-06
0.3073	440.5	7500	0.000129	5e-06
0.3073	440.5	7600	0.000129	5e-06
0.3073	440.5	20300	0.00015	6e-06
0.3073	440.5	37200	0.000176	7e-06
0.3073	440.5	37200	0.000177	7e-06
0.3073	440.5	37400	0.000174	7e-06
0.3073	440.5	37500	0.000178	7e-06
0.3073	440.5	50100	0.000195	8e-06
0.3073	440.5	50200	0.000193	8e-06
0.3073	440.5	68600	0.000221	9e-06
0.3073	440.5	68700	0.000222	9e-06
0.3073	529.2	35300	0.000119	5e-06
0.3073	529.2	35300	0.00012	5e-06
0.3073	529.2	49000	0.000132	5e-06
0.3073	529.2	49000	0.000135	6e-06
0.3073	529.2	68500	0.000156	6e-06
0.3073	529.2	68600	0.000153	6e-06
