Measured thermophysical data. Solubility of D-phenylglycine methyl ester hydrochloride in water and in organic individual or mixed solvents: Experimental data and results of thermodynamic modeling
Source: Fluid Phase Equilib., 2016, 10.1016/j.fluid.2016.02.020
Compound 1: methanol, CH4O, InChI=1S/CH4O/c1-2/h2H,1H3
Compound 2: ethanol, C2H6O, InChI=1S/C2H6O/c1-2-3/h3H,2H2,1H3
Compound 3: acetone, C3H6O, InChI=1S/C3H6O/c1-3(2)4/h1-2H3
Compound 4: ethyl acetate, C4H8O2, InChI=1S/C4H8O2/c1-3-6-4(2)5/h3H2,1-2H3
Compound 5: toluene, C7H8, InChI=1S/C7H8/c1-7-5-3-2-4-6-7/h2-6H,1H3
Compound 6: water, H2O, InChI=1S/H2O/h1H2
Compound 7: D-phenylglycine methyl ester hydrochloride, C9H12ClNO2, InChI=1S/C9H11NO2.ClH/c1-12-9(11)8(10)7-5-3-2-4-6-7;/h2-6,8H,10H2,1H3;1H/t8-;/m1./s1

System: methanol + D-phenylglycine methyl ester hydrochloride; phases: Liquid, Crystal
Fixed: Pressure, kPa = 100
Property: Mole fraction of D-phenylglycine methyl ester hydrochloride (Liquid); method: laser monitering technique
Temperature, K	Mole fraction of D-phenylglycine methyl ester hydrochloride	uncertainty
283.15	0.076	0.005
293.15	0.081	0.005
303.15	0.085	0.005
313.15	0.09	0.005
323.15	0.096	0.006
333.15	0.1	0.01

System: ethanol + D-phenylglycine methyl ester hydrochloride; phases: Liquid, Crystal
Fixed: Pressure, kPa = 100
Property: Mole fraction of D-phenylglycine methyl ester hydrochloride (Liquid); method: laser monitering technique
Temperature, K	Mole fraction of D-phenylglycine methyl ester hydrochloride	uncertainty
283.15	0.015	0.001
293.15	0.022	0.001
303.15	0.028	0.002
313.15	0.033	0.002
323.15	0.037	0.002
333.15	0.042	0.003

System: acetone + D-phenylglycine methyl ester hydrochloride; phases: Liquid, Crystal
Fixed: Pressure, kPa = 100
Property: Mole fraction of D-phenylglycine methyl ester hydrochloride (Liquid); method: laser monitering technique
Temperature, K	Mole fraction of D-phenylglycine methyl ester hydrochloride	uncertainty
283.15	1.3e-05	1e-06
293.15	3.6e-05	2e-06
303.15	7.8e-05	5e-06
313.15	0.00013	1e-05
323.15	0.00018	1e-05
333.15	0.00025	2e-05

System: ethyl acetate + D-phenylglycine methyl ester hydrochloride; phases: Liquid, Crystal
Fixed: Pressure, kPa = 100
Property: Mole fraction of D-phenylglycine methyl ester hydrochloride (Liquid); method: laser monitering technique
Temperature, K	Mole fraction of D-phenylglycine methyl ester hydrochloride	uncertainty
283.15	3.9e-05	2e-06
293.15	8.5e-05	5e-06
303.15	0.00015	1e-05
313.15	0.00021	1e-05
323.15	0.00025	2e-05
333.15	0.00029	2e-05

System: toluene + D-phenylglycine methyl ester hydrochloride; phases: Liquid, Crystal
Fixed: Pressure, kPa = 100
Property: Mole fraction of D-phenylglycine methyl ester hydrochloride (Liquid); method: laser monitering technique
Temperature, K	Mole fraction of D-phenylglycine methyl ester hydrochloride	uncertainty
283.15	9e-06	1e-06
293.15	1.5e-05	1e-06
303.15	2.3e-05	1e-06
313.15	3.3e-05	2e-06
323.15	4.4e-05	3e-06
333.15	5.6e-05	3e-06

System: water + D-phenylglycine methyl ester hydrochloride; phases: Liquid, Crystal
Fixed: Pressure, kPa = 100
Property: Mole fraction of D-phenylglycine methyl ester hydrochloride (Liquid); method: laser monitering technique
Temperature, K	Mole fraction of D-phenylglycine methyl ester hydrochloride	uncertainty
283.15	0.045	0.003
293.15	0.058	0.004
303.15	0.068	0.004
313.15	0.077	0.005
323.15	0.086	0.005
333.15	0.095	0.006

System: methanol + ethyl acetate + D-phenylglycine methyl ester hydrochloride; phases: Liquid, Crystal
Fixed: Pressure, kPa = 100
Property: Mole fraction of D-phenylglycine methyl ester hydrochloride (Liquid); method: laser monitering technique
Temperature, K	Mole fraction of methanol	Mole fraction of D-phenylglycine methyl ester hydrochloride	uncertainty
283.15	0.2	0.00029	2e-05
293.15	0.2	0.00042	3e-05
303.15	0.2	0.00058	4e-05
313.15	0.2	0.0007	4e-05
323.15	0.2	0.00079	5e-05
333.15	0.2	0.00083	5e-05
283.15	0.4006	0.0078	0.0005
293.15	0.4006	0.0078	0.0005
303.15	0.4006	0.008	0.0005
313.15	0.4006	0.0082	0.0005
323.15	0.4006	0.0085	0.0005
333.15	0.4006	0.0087	0.0005
283.15	0.5996	0.026	0.002
293.15	0.5996	0.028	0.002
303.15	0.5996	0.031	0.002
313.15	0.5996	0.034	0.002
323.15	0.5996	0.038	0.002
333.15	0.5996	0.042	0.003
283.15	0.7993	0.054	0.003
293.15	0.7993	0.056	0.003
303.15	0.7993	0.059	0.004
313.15	0.7993	0.062	0.004
323.15	0.7993	0.066	0.004
333.15	0.7993	0.071	0.004

System: methanol + toluene + D-phenylglycine methyl ester hydrochloride; phases: Liquid, Crystal
Fixed: Pressure, kPa = 100
Property: Mole fraction of D-phenylglycine methyl ester hydrochloride (Liquid); method: laser monitering technique
Temperature, K	Mole fraction of methanol	Mole fraction of D-phenylglycine methyl ester hydrochloride	uncertainty
283.15	0.2129	0.0075	0.0005
293.15	0.2129	0.0078	0.0005
303.15	0.2129	0.0079	0.0005
313.15	0.2129	0.0081	0.0005
323.15	0.2129	0.0082	0.0005
333.15	0.2129	0.0083	0.0005
283.15	0.3895	0.019	0.001
293.15	0.3895	0.02	0.001
303.15	0.3895	0.021	0.001
313.15	0.3895	0.022	0.001
323.15	0.3895	0.023	0.001
333.15	0.3895	0.024	0.002
283.15	0.6269	0.038	0.002
293.15	0.6269	0.043	0.003
303.15	0.6269	0.046	0.003
313.15	0.6269	0.049	0.003
323.15	0.6269	0.052	0.003
333.15	0.6269	0.055	0.003
283.15	0.7907	0.055	0.003
293.15	0.7907	0.059	0.004
303.15	0.7907	0.063	0.004
313.15	0.7907	0.067	0.004
323.15	0.7907	0.072	0.004
333.15	0.7907	0.077	0.005
