Measured thermophysical data. Partitioning of DNP-amino acids in ionic liquid/citrate salt based Aqueous Two-Phase System
Source: Fluid Phase Equilib., 2019, 10.1016/j.fluid.2018.11.021
Compound 1: 1-ethyl-3-methylimidazolium dicyanamide, C8H11N5, InChI=1S/C6H11N2.C2N3/c1-3-8-5-4-7(2)6-8;3-1-5-2-4/h4-6H,3H2,1-2H3;/q+1;-1, purity 99%
Compound 2: trisodium citrate, C6H5Na3O7, InChI=1S/C6H8O7.3Na/c7-3(8)1-6(13,5(11)12)2-4(9)10;;;/h13H,1-2H2,(H,7,8)(H,9,10)(H,11,12);;;/q;3*+1/p-3, purity 99%
Compound 3: water, H2O, InChI=1S/H2O/h1H2, purity 99.8%
Compound 4: 1-methyl-3-propylimidazolium dicyanamide, C9H13N5, InChI=1S/C7H13N2.C2N3/c1-3-4-9-6-5-8(2)7-9;3-1-5-2-4/h5-7H,3-4H2,1-2H3;/q+1;-1, purity 99%
Compound 5: 1-butyl-3-methylimidazolium dicyanamide, C10H15N5, InChI=1S/C8H15N2.C2N3/c1-3-4-5-10-7-6-9(2)8-10;3-1-5-2-4/h6-8H,3-5H2,1-2H3;/q+1;-1, purity 98%
Compound 6: 1-hexyl-3-methylimidazolium dicyanamide, C12H19N5, InChI=1S/C10H19N2.C2N3/c1-3-4-5-6-7-12-9-8-11(2)10-12;3-1-5-2-4/h8-10H,3-7H2,1-2H3;/q+1;-1, purity 99%
Compound 7: 1-butyl-1-methylpyrrolidinium dicyanamide, C11H20N4, InChI=1S/C9H20N.C2N3/c1-3-4-7-10(2)8-5-6-9-10;3-1-5-2-4/h3-9H2,1-2H3;/q+1;-1, purity 98%

System: 1-ethyl-3-methylimidazolium dicyanamide + trisodium citrate + water; phases: Liquid mixture 1, Liquid mixture 2
Fixed: Temperature, K = 298.15
Fixed: Pressure, kPa = 100
Property: Mass fraction of trisodium citrate (Liquid mixture 1); method: ILs by UV-Vis sprectrophotometry; water gravimetruically after freeze drying; salt by mas balance
Property: Mass fraction of 1-ethyl-3-methylimidazolium dicyanamide (Liquid mixture 2); method: ILs by UV-Vis sprectrophotometry; water gravimetruically after freeze drying; salt by mas balance
Property: Mass fraction of trisodium citrate (Liquid mixture 2); method: ILs by UV-Vis sprectrophotometry; water gravimetruically after freeze drying; salt by mas balance
Mass fraction of 1-ethyl-3-methylimidazolium dicyanamide	Mass fraction of trisodium citrate	uncertainty	Mass fraction of 1-ethyl-3-methylimidazolium dicyanamide	uncertainty	Mass fraction of trisodium citrate	uncertainty
0.50679	0.06308	0.02004	0.0399	0.02002	0.33916	
0.46163	0.07407	0.02006	0.05407	0.02003	0.32467	
0.42313	0.09263	0.0201	0.06882	0.02005	0.30283	
0.48503	0.07201	0.02006	0.04633	0.02002	0.32729	

System: 1-methyl-3-propylimidazolium dicyanamide + trisodium citrate + water; phases: Liquid mixture 1, Liquid mixture 2
Fixed: Temperature, K = 298.15
Fixed: Pressure, kPa = 100
Property: Mass fraction of 1-methyl-3-propylimidazolium dicyanamide (Liquid mixture 1); method: ILs by UV-Vis sprectrophotometry; water gravimetruically after freeze drying; salt by mas balance
Property: Mass fraction of trisodium citrate (Liquid mixture 2); method: ILs by UV-Vis sprectrophotometry; water gravimetruically after freeze drying; salt by mas balance
Property: Mass fraction of 1-methyl-3-propylimidazolium dicyanamide (Liquid mixture 2); method: ILs by UV-Vis sprectrophotometry; water gravimetruically after freeze drying; salt by mas balance
Mass fraction of trisodium citrate	Mass fraction of 1-methyl-3-propylimidazolium dicyanamide	uncertainty	Mass fraction of trisodium citrate	uncertainty	Mass fraction of 1-methyl-3-propylimidazolium dicyanamide	uncertainty
0.04658	0.51872	0.02246	0.02804	0.02001	0.32003	
0.06088	0.48892	0.02253	0.03443	0.02001	0.29906	
0.1063	0.42875	0.02197	0.05073	0.02003	0.24743	
0.12351	0.4067	0.02178	0.05802	0.02004	0.2311	
0.13482	0.39967	0.02172	0.06051	0.02004	0.22098	

System: 1-butyl-3-methylimidazolium dicyanamide + trisodium citrate + water; phases: Liquid mixture 1, Liquid mixture 2
Fixed: Temperature, K = 298.15
Fixed: Pressure, kPa = 100
Property: Mass fraction of trisodium citrate (Liquid mixture 1); method: ILs by UV-Vis sprectrophotometry; water gravimetruically after freeze drying; salt by mas balance
Property: Mass fraction of 1-butyl-3-methylimidazolium dicyanamide (Liquid mixture 2); method: ILs by UV-Vis sprectrophotometry; water gravimetruically after freeze drying; salt by mas balance
Property: Mass fraction of trisodium citrate (Liquid mixture 2); method: ILs by UV-Vis sprectrophotometry; water gravimetruically after freeze drying; salt by mas balance
Mass fraction of 1-butyl-3-methylimidazolium dicyanamide	Mass fraction of trisodium citrate	uncertainty	Mass fraction of 1-butyl-3-methylimidazolium dicyanamide	uncertainty	Mass fraction of trisodium citrate	uncertainty
0.55542	0.03708	0.02002	0.01889	0.01889	0.28271	
0.51261	0.05375	0.0216	0.02489	0.02001	0.25801	
0.45543	0.07742	0.02215	0.03516	0.02001	0.23027	
0.42839	0.09413	0.02175	0.04108	0.02002	0.2132	
0.39774	0.10165	0.02012	0.04884	0.02003	0.20629	

System: 1-hexyl-3-methylimidazolium dicyanamide + trisodium citrate + water; phases: Liquid mixture 1, Liquid mixture 2
Fixed: Temperature, K = 298.15
Fixed: Pressure, kPa = 100
Property: Mass fraction of trisodium citrate (Liquid mixture 1); method: ILs by UV-Vis sprectrophotometry; water gravimetruically after freeze drying; salt by mas balance
Property: Mass fraction of 1-hexyl-3-methylimidazolium dicyanamide (Liquid mixture 2); method: ILs by UV-Vis sprectrophotometry; water gravimetruically after freeze drying; salt by mas balance
Property: Mass fraction of trisodium citrate (Liquid mixture 2); method: ILs by UV-Vis sprectrophotometry; water gravimetruically after freeze drying; salt by mas balance
Mass fraction of 1-hexyl-3-methylimidazolium dicyanamide	Mass fraction of trisodium citrate	uncertainty	Mass fraction of 1-hexyl-3-methylimidazolium dicyanamide	uncertainty	Mass fraction of trisodium citrate	uncertainty
0.67481	0.0128	0.0128	0.01997	0.01997	0.30424	
0.65756	0.0155	0.0155	0.02071	0.02001	0.28111	
0.64889	0.01945	0.01945	0.0211	0.02002	0.25533	
0.58769	0.03642	0.02123	0.02411	0.02003	0.19241	
0.54891	0.05553	0.02003	0.0263	0.02001	0.15593	

System: 1-butyl-1-methylpyrrolidinium dicyanamide + trisodium citrate + water; phases: Liquid mixture 1, Liquid mixture 2
Fixed: Temperature, K = 298.15
Fixed: Pressure, kPa = 100
Property: Mass fraction of trisodium citrate (Liquid mixture 1); method: ILs by UV-Vis sprectrophotometry; water gravimetruically after freeze drying; salt by mas balance
Property: Mass fraction of 1-butyl-1-methylpyrrolidinium dicyanamide (Liquid mixture 2); method: ILs by UV-Vis sprectrophotometry; water gravimetruically after freeze drying; salt by mas balance
Property: Mass fraction of trisodium citrate (Liquid mixture 2); method: ILs by UV-Vis sprectrophotometry; water gravimetruically after freeze drying; salt by mas balance
Mass fraction of 1-butyl-1-methylpyrrolidinium dicyanamide	Mass fraction of trisodium citrate	uncertainty	Mass fraction of 1-butyl-1-methylpyrrolidinium dicyanamide	uncertainty	Mass fraction of trisodium citrate	uncertainty
0.70401	0.01937	0.01937	0.00413	0.00413	0.30108	
0.64523	0.0295	0.02022	0.00726	0.00726	0.27827	
0.56148	0.04049	0.02047	0.01407	0.01407	0.25915	
0.52584	0.05723	0.02083	0.01806	0.01806	0.2358	
0.46657	0.06854	0.02005	0.02656	0.02001	0.22239	
