Measured thermophysical data. Vapor liquid equilibrium in the n-butane +methanol system, measurement and modeling from 323.2 to 443.2K
Source: Fluid Phase Equilib., 2009, 10.1016/j.fluid.2008.12.001
Compound 1: butane, C4H10, InChI=1S/C4H10/c1-3-4-2/h3-4H2,1-2H3
Compound 2: methanol, CH4O, InChI=1S/CH4O/c1-2/h2H,1H3

System: methanol + butane; phases: Liquid, Gas
Property: Vapor or sublimation pressure, kPa (Liquid); method: Closed cell (Static) method
Mole fraction of butane	Temperature, K	Vapor or sublimation pressure, kPa	uncertainty
0.0094	433.16	2082.2	19.6
0.0113	443.19	2453.9	23.4
0.0146	433.16	2197.2	37.1
0.0178	373.19	571.5	16.2
0.0191	423.09	1963.7	30
0.0192	403.13	1175	16.3
0.0259	433.16	2569.6	56.2
0.0377	443.19	3056.7	60.7
0.0448	433.16	3011.2	55.1
0.0488	423.09	2472.1	44.4
0.0577	403.13	1671	57
0.0579	373.19	955.6	35.9
0.064	443.19	3493.8	81.8
0.0699	323.22	336.6	13.4
0.0883	433.16	3503.3	70.3
0.0917	443.19	3908.6	88.4
0.0924	433.16	3543.4	73.5
0.0959	403.13	2149.8	60.4
0.104	323.22	399.7	12.6
0.1074	373.19	1242.8	31.2
0.1095	423.09	3036.6	63.6
0.1515	443.19	4553.4	96.4
0.1559	433.16	4029.4	136.3
0.1582	433.16	4054.4	138.3
0.1625	403.13	2500.7	38.8
0.1683	373.19	1427.6	27.2
0.1915	423.09	3575.1	72.2
0.1955	323.22	483.8	11.7
0.2299	443.19	5008.2	74.4
0.2425	433.16	4415	87.2
0.2585	373.19	1553.4	38.7
0.2794	433.16	4594.2	51.3
0.3062	423.09	3963.6	43.5
0.3141	403.13	2830.4	36
0.316	323.22	510.6	9.5
0.3688	443.19	5434.5	92.3
0.3777	373.19	1638.3	10
0.4244	433.16	4844.7	61
0.434	323.22	521.7	8.7
0.4959	403.13	2957.7	26.5
0.5195	423.09	4210.1	44.7
0.5706	373.19	1687.4	11.2
0.6224	323.22	522.9	8.7
0.6874	323.22	525.3	8.7
0.6971	403.13	3057.2	39.4
0.7128	423.09	4374.2	50.8
0.7229	373.19	1711.8	15.3
0.78	373.19	1719.8	44.7
0.8183	403.13	3091.1	13.2
0.831	323.22	526.6	8.7
0.8979	373.19	1720.2	405.2
0.8986	403.13	3037	89.1
0.9178	323.22	528.5	8.7
0.9256	373.19	1709.4	145.2
0.9429	403.13	2928.6	215
0.9632	323.22	525.1	12.5
0.9733	323.22	522.6	10.9
0.9879	373.19	1583.1	14.3
0.9884	373.19	1582.5	13.6
0.9918	403.13	2688.5	41.9

System: methanol + butane; phases: Gas, Liquid
Property: Mole fraction of butane (Gas); method: Chromatography
Mole fraction of butane	Temperature, K	Mole fraction of butane	uncertainty
0.0094	433.16	0.1032	0.0012
0.0113	443.19	0.0666	0.0008
0.0146	433.16	0.1488	0.0018
0.0178	373.19	0.3675	0.0044
0.0191	423.09	0.2258	0.0027
0.0192	403.13	0.2475	0.003
0.0259	433.16	0.2392	0.0029
0.0377	443.19	0.1976	0.0024
0.0448	433.16	0.3327	0.004
0.0488	423.09	0.377	0.0045
0.0577	403.13	0.4689	0.0056
0.0579	373.19	0.6318	0.0044
0.064	443.19	0.2708	0.0033
0.0699	323.22	0.8409	0.0019
0.0883	433.16	0.4179	0.005
0.0917	443.19	0.33	0.004
0.0924	433.16	0.428	0.0051
0.0959	403.13	0.5884	0.0049
0.104	323.22	0.8713	0.0015
0.1074	373.19	0.735	0.0032
0.1095	423.09	0.5083	0.0059
0.1515	443.19	0.4217	0.0051
0.1559	433.16	0.5	0.006
0.1582	433.16	0.5124	0.0059
0.1625	403.13	0.6646	0.004
0.1683	373.19	0.7733	0.0027
0.1915	423.09	0.5892	0.0049
0.1955	323.22	0.8985	0.0012
0.2299	443.19	0.471	0.0057
0.2425	433.16	0.5572	0.0053
0.2585	373.19	0.7971	0.0024
0.2794	433.16	0.5658	0.0052
0.3062	423.09	0.6353	0.0044
0.3141	403.13	0.7154	0.0034
0.316	323.22	0.9059	0.0011
0.3688	443.19	0.5044	0.006
0.3777	373.19	0.8127	0.0023
0.4244	433.16	0.6146	0.0046
0.434	323.22	0.9097	0.0011
0.4959	403.13	0.7395	0.0031
0.5195	423.09	0.6782	0.0039
0.5706	373.19	0.8233	0.0021
0.6224	323.22	0.9122	0.0011
0.6874	323.22	0.9127	0.0011
0.6971	403.13	0.7746	0.0027
0.7128	423.09	0.7348	0.0032
0.7229	373.19	0.8339	0.002
0.78	373.19	0.8399	0.0019
0.8183	403.13	0.8072	0.0023
0.831	323.22	0.9159	0.001
0.8979	373.19	0.8673	0.0016
0.8986	403.13	0.8552	0.0017
0.9178	323.22	0.9224	0.0009
0.9256	373.19	0.8811	0.0014
0.9429	403.13	0.9042	0.0012
0.9632	323.22	0.9332	0.0008
0.9733	323.22	0.9385	0.0007
0.9879	373.19	0.9642	0.0004
0.9884	373.19	0.9648	0.0004
0.9918	403.13	0.9821	0.0002
