Measured thermophysical data. Enhancement of liquid phase splitting of water + ethanol + ethyl acetate mixtures in the presence of a hydrophilic agent or an electrolyte substance
Source: Fluid Phase Equilib., 2005, 10.1016/j.fluid.2005.08.009
Compound 1: water, H2O, InChI=1S/H2O/h1H2
Compound 2: ethanol, C2H6O, InChI=1S/C2H6O/c1-2-3/h3H,2H2,1H3
Compound 3: ethyl acetate, C4H8O2, InChI=1S/C4H8O2/c1-3-6-4(2)5/h3H2,1-2H3
Compound 4: calcium chloride, CaCl2, InChI=1S/Ca.2ClH/h;2*1H/q+2;;/p-2

System: ethyl acetate + water; phases: Liquid mixture 1, Liquid mixture 2
Fixed: Pressure, kPa = 101.3
Property: Mole fraction of water (Liquid mixture 1); method: CHROM:UFactor:2
Temperature, K	Mole fraction of water	uncertainty
283.15	0.1085	0.0037
298.15	0.128	0.0039
313.15	0.169	0.0042

System: ethyl acetate + water; phases: Liquid mixture 2, Liquid mixture 1
Fixed: Pressure, kPa = 101.3
Property: Mole fraction of water (Liquid mixture 2); method: CHROM:UFactor:2
Temperature, K	Mole fraction of water	uncertainty
283.15	0.9814	0.0034
298.15	0.9858	0.0034
313.15	0.9858	0.0034

System: ethanol + ethyl acetate + water; phases: Liquid mixture 2, Liquid mixture 1
Fixed: Pressure, kPa = 101.3
Property: Mole fraction of ethanol (Liquid mixture 2); method: CHROM:UFactor:2
Property: Mole fraction of ethanol (Liquid mixture 1); method: CHROM:UFactor:2
Property: Mole fraction of water (Liquid mixture 1); method: CHROM:UFactor:2
Temperature, K	Mole fraction of water	Mole fraction of ethanol	uncertainty	Mole fraction of ethanol	uncertainty	Mole fraction of water	uncertainty
283.15	0.9814	0	0.0001	0	0.0001	0.1085	
283.15	0.9322	0.0471	0.0047	0.0737	0.0044	0.1883	
283.15	0.9087	0.0664	0.0045	0.1098	0.0042	0.2494	
283.15	0.8937	0.0786	0.0043	0.1334	0.0041	0.3	
283.15	0.8709	0.094	0.0043	0.1617	0.0042	0.3833	
283.15	0.8483	0.1084	0.0041	0.1779	0.0042	0.4624	
283.15	0.8006	0.1301	0.0042	0.1769	0.0042	0.5981	
298.15	0.9858	0	0.0001	0	0.0001	0.128	
298.15	0.9531	0.028	0.0045	0.0575	0.0043	0.1791	
298.15	0.9303	0.0479	0.0044	0.0996	0.004	0.2595	
298.15	0.9112	0.0623	0.0043	0.1311	0.004	0.3419	
298.15	0.8882	0.0784	0.0042	0.1519	0.0041	0.4356	
298.15	0.8741	0.0859	0.0042	0.1609	0.0041	0.4702	
298.15	0.8639	0.0923	0.0042	0.1557	0.0041	0.5387	
313.15	0.9858	0	0.0001	0	0.0001	0.169	
313.15	0.9656	0.0175	0.0045	0.0408	0.0046	0.2122	
313.15	0.9438	0.0371	0.0044	0.0844	0.0042	0.2645	
313.15	0.9171	0.0562	0.0043	0.1184	0.004	0.3367	
313.15	0.9072	0.0642	0.0045	0.1415	0.004	0.4028	
313.15	0.8672	0.0878	0.0041	0.161	0.0041	0.5288	
313.15	0.8481	0.0973	0.004	0.1606	0.0041	0.586	

System: ethyl acetate + water + calcium chloride; phases: Liquid mixture 2, Liquid mixture 1
Fixed: Temperature, K = 313.15
Fixed: Pressure, kPa = 101.3
Property: Mole fraction of ethyl acetate (Liquid mixture 2); method: CHROM:UFactor:2
Property: Mole fraction of ethyl acetate (Liquid mixture 1); method: CHROM:UFactor:2
Property: Mole fraction of water (Liquid mixture 1); method: CHROM:UFactor:2
Mole fraction of water	Mole fraction of ethyl acetate	uncertainty	Mole fraction of ethyl acetate	uncertainty	Mole fraction of water	uncertainty
0.9858	0.0142	0.0005	0.8351	0.0077	0.1649	
0.9516	0.0041	0.0004	0.8823	0.0075	0.1177	
0.9208	0.0026	0.0004	0.9206	0.0074	0.0794	
0.9056	0.002	0.0004	0.9404	0.0074	0.0596	
0.8796	0.0012	0.0004	0.9548	0.0074	0.0452	
