Measured thermophysical data. Partial molar volume of NaCl and CsCl in mixtures of water and methanol by experiment and molecular simulation
Source: Fluid Phase Equilib., 2018, 10.1016/j.fluid.2017.10.034
Compound 1: methanol, CH4O, InChI=1S/CH4O/c1-2/h2H,1H3
Compound 2: water, H2O, InChI=1S/H2O/h1H2, purity 99.8%
Compound 3: sodium chloride, ClNa, InChI=1S/ClH.Na/h1H;/q;+1/p-1
Compound 4: cesium chloride, ClCs, InChI=1S/ClH.Cs/h1H;/q;+1/p-1

System: sodium chloride + water + methanol; phases: Liquid, Crystal
Property: Mass density, kg/m3 (Liquid); method: Vibrating tube method
Temperature, K	Solvent: Mole fraction of methanol	Mole fraction of sodium chloride	Mass density, kg/m3	uncertainty
288.15	0	0	999.1	0.2
288.15	0	0.0099	1022.2	0.5
288.15	0	0.0196	1044.7	0.9
288.15	0	0.0291	1065.8	0.9
288.15	0	0.0385	1086.7	1.4
288.15	0	0.0476	1107.4	1.4
288.15	0	0.0566	1127.2	1.8
288.15	0	0.0654	1147.1	1.8
288.15	0.25	0	942.1	0.3
288.15	0.25	0.004	950.3	0.4
288.15	0.25	0.0098	960.3	0.4
288.15	0.25	0.0229	984.5	0.8
288.15	0.25	0.0336	1004.3	0.8
288.15	0.5	0	889.2	0.3
288.15	0.5	0.002	892.1	0.4
288.15	0.5	0.0049	896.8	0.4
288.15	0.5	0.0079	901.4	0.4
288.15	0.5	0.0117	907.4	0.4
288.15	0.5	0.0146	912.5	0.4
288.15	0.5	0.0192	918.9	0.4
288.15	0.75	0	839.8	0.3
288.15	0.75	0.0013	841.8	0.4
288.15	0.75	0.0027	843.7	0.4
288.15	0.75	0.0053	847.1	0.4
288.15	0.75	0.0079	850.9	0.5
288.15	0.75	0.0104	855.8	0.4
288.15	0.75	0.013	858.4	0.3
288.15	1	0	795.9	0.3
288.15	1	0.001	797.4	0.4
288.15	1	0.002	798.9	0.4
288.15	1	0.003	800.1	0.4
288.15	1	0.004	801.4	0.4
288.15	1	0.005	802.9	0.4
288.15	1	0.006	804.1	0.4
288.15	1	0.007	805.7	0.4
293.15	0	0	998.2	0.2
293.15	0	0.0099	1021	0.5
293.15	0	0.0196	1043.2	0.9
293.15	0	0.0291	1064.1	0.9
293.15	0	0.0385	1084.8	1.4
293.15	0	0.0476	1105.4	1.4
293.15	0	0.0566	1125	1.8
293.15	0	0.0654	1144.8	1.8
293.15	0.25	0	939.3	0.2
293.15	0.25	0.004	947.5	0.4
293.15	0.25	0.0098	957.4	0.4
293.15	0.25	0.0229	981.5	0.8
293.15	0.25	0.0336	1001.2	0.8
293.15	0.5	0	885.4	0.3
293.15	0.5	0.002	888.3	0.4
293.15	0.5	0.0049	893	0.4
293.15	0.5	0.0079	897.5	0.4
293.15	0.5	0.0117	903.6	0.4
293.15	0.5	0.0146	908.7	0.4
293.15	0.5	0.0192	915	0.4
293.15	0.75	0	835.5	0.3
293.15	0.75	0.0013	837.5	0.4
293.15	0.75	0.0027	839.5	0.4
293.15	0.75	0.0053	842.8	0.4
293.15	0.75	0.0079	846.7	0.4
293.15	0.75	0.0104	851.6	0.4
293.15	0.75	0.013	854.1	0.3
293.15	1	0	791.3	0.3
293.15	1	0.001	792.7	0.4
293.15	1	0.002	794.3	0.4
293.15	1	0.003	795.5	0.4
293.15	1	0.004	796.8	0.4
293.15	1	0.005	798.3	0.4
293.15	1	0.006	799.5	0.4
293.15	1	0.007	801.1	0.4
298.15	0	0	997	0.2
298.15	0	0.0099	1019.6	0.5
298.15	0	0.0196	1041.6	0.9
298.15	0	0.0291	1062.3	0.9
298.15	0	0.0385	1082.8	1.4
298.15	0	0.0476	1103.3	1.3
298.15	0	0.0566	1122.7	1.8
298.15	0	0.0654	1142.4	1.8
298.15	0.25	0	936.4	0.3
298.15	0.25	0.004	944.5	0.4
298.15	0.25	0.0098	954.4	0.4
298.15	0.25	0.0229	978.4	0.8
298.15	0.25	0.0336	998	1
298.15	0.5	0	881.5	0.3
298.15	0.5	0.002	884.4	0.4
298.15	0.5	0.0049	889.1	0.4
298.15	0.5	0.0079	893.7	0.4
298.15	0.5	0.0117	899.7	0.4
298.15	0.5	0.0146	904.8	0.4
298.15	0.5	0.0192	911.1	0.4
298.15	0.75	0	831.2	0.3
298.15	0.75	0.0013	833.2	0.4
298.15	0.75	0.0027	835.2	0.4
298.15	0.75	0.0053	838.5	0.4
298.15	0.75	0.0079	842.4	0.4
298.15	0.75	0.0104	847.3	0.4
298.15	0.75	0.013	849.8	0.3
298.15	1	0	786.6	0.3
298.15	1	0.001	788	0.4
298.15	1	0.002	789.6	0.4
298.15	1	0.003	790.8	0.4
298.15	1	0.004	792.1	0.4
298.15	1	0.005	793.7	0.4
298.15	1	0.006	794.9	0.4
298.15	1	0.007	796.4	0.4
308.15	0	0	994	0.2
308.15	0	0.0099	1016.2	0.5
308.15	0	0.0196	1037.8	0.9
308.15	0	0.0291	1058.2	0.9
308.15	0	0.0385	1078.5	1.3
308.15	0	0.0476	1098.7	1.3
308.15	0	0.0566	1118	1.8
308.15	0	0.0654	1137.4	1.8
308.15	0.25	0	930.1	0.3
308.15	0.25	0.004	938.2	0.4
308.15	0.25	0.0098	948	0.4
308.15	0.25	0.0229	971.9	0.8
308.15	0.25	0.0336	991.4	0.8
308.15	0.5	0	873.6	0.3
308.15	0.5	0.002	876.5	0.4
308.15	0.5	0.0049	881.1	0.4
308.15	0.5	0.0079	885.7	0.4
308.15	0.5	0.0117	891.7	0.4
308.15	0.5	0.0146	896.8	0.4
308.15	0.5	0.0192	903.1	0.4
308.15	0.75	0	822.4	0.3
308.15	0.75	0.0013	824.5	0.4
308.15	0.75	0.0027	826.4	0.4
308.15	0.75	0.0053	829.8	0.4
308.15	0.75	0.0079	833.7	0.4
308.15	0.75	0.0104	838.7	0.4
308.15	0.75	0.013	841.2	0.3
308.15	1	0	777.1	0.3
308.15	1	0.001	778.6	0.4
308.15	1	0.002	780.2	0.4
308.15	1	0.003	781.4	0.4
308.15	1	0.004	782.7	0.4
308.15	1	0.005	784.3	0.4
308.15	1	0.006	785.5	0.4
308.15	1	0.007	787.1	0.4
318.15	0	0	990.2	0.2
318.15	0	0.0099	1012.1	0.5
318.15	0	0.0196	1033.5	0.9
318.15	0	0.0291	1053.6	0.9
318.15	0	0.0385	1073.7	1.3
318.15	0	0.0476	1093.8	1.3
318.15	0	0.0566	1112.9	1.7
318.15	0	0.0654	1132.2	1.8
318.15	0.25	0	923.4	0.2
318.15	0.25	0.004	931.5	0.4
318.15	0.25	0.0098	941.3	0.4
318.15	0.25	0.0229	965.1	0.8
318.15	0.25	0.0336	984.5	0.8
318.15	0.5	0	865.3	0.3
318.15	0.5	0.002	868.2	0.3
318.15	0.5	0.0049	872.9	0.4
318.15	0.5	0.0079	877.5	0.4
318.15	0.5	0.0117	883.5	0.4
318.15	0.5	0.0146	888.6	0.4
318.15	0.5	0.0192	894.9	0.4
318.15	0.75	0	813.4	0.3
318.15	0.75	0.0013	815.5	0.4
318.15	0.75	0.0027	817.5	0.4
318.15	0.75	0.0053	820.9	0.4
318.15	0.75	0.0079	824.8	0.4
318.15	0.75	0.0104	829.8	0.4
318.15	0.75	0.013	832.3	0.3
318.15	1	0	767.5	0.3
318.15	1	0.001	769	0.4
318.15	1	0.002	770.7	0.4
318.15	1	0.003	771.9	0.4
318.15	1	0.004	773.3	0.4
318.15	1	0.005	774.8	0.4
318.15	1	0.006	776.1	0.4
318.15	1	0.007	777.7	0.4

System: cesium chloride + water + methanol; phases: Liquid, Crystal
Property: Mass density, kg/m3 (Liquid); method: Vibrating tube method
Temperature, K	Solvent: Mole fraction of methanol	Mole fraction of cesium chloride	Mass density, kg/m3	uncertainty
288.15	0	0.0099	1069.7	1.4
288.15	0	0.0196	1137.3	2.8
288.15	0	0.0292	1203.3	2.7
288.15	0	0.0385	1266.2	4
288.15	0	0.0536	1367	9.2
288.15	0	0.069	1466.9	11.7
288.15	0.25	0.0192	1066.1	3.6
288.15	0.25	0.037	1166.4	5.5
288.15	0.25	0.0536	1253.4	7.3
288.15	0.5	0.0074	924.8	0.9
288.15	0.5	0.0146	959.7	1
288.15	0.5	0.0215	991.6	1
288.15	0.5	0.0283	1024.1	2
288.15	0.5	0.0349	1056.4	2
288.15	0.75	0.0025	851.1	0.8
288.15	0.75	0.005	861.1	1
288.15	0.75	0.0074	871.2	0.8
288.15	0.75	0.0098	880.8	0.8
288.15	0.75	0.0122	890.1	0.8
288.15	1	0.0012	800.8	0.8
288.15	1	0.0025	805.5	0.8
288.15	1	0.0037	809.9	0.8
288.15	1	0.0049	814.5	0.8
293.15	0	0.0099	1068.4	1.4
293.15	0	0.0196	1135.8	2.8
293.15	0	0.0292	1201.6	2.7
293.15	0	0.0385	1264.2	4
293.15	0	0.0536	1364.6	9.2
293.15	0	0.069	1464.1	11.6
293.15	0.25	0.0192	1065	3.4
293.15	0.25	0.037	1163.5	5.4
293.15	0.25	0.0536	1250.1	7.3
293.15	0.5	0.0074	920.8	1
293.15	0.5	0.0146	955.7	1
293.15	0.5	0.0215	987.6	1
293.15	0.5	0.0283	1020	1.9
293.15	0.5	0.0349	1052.2	2
293.15	0.75	0.0025	846.8	0.9
293.15	0.75	0.005	856.8	1
293.15	0.75	0.0074	866.9	0.8
293.15	0.75	0.0098	876.4	0.8
293.15	0.75	0.0122	885.7	0.8
293.15	1	0.0012	796.1	0.8
293.15	1	0.0025	800.8	0.8
293.15	1	0.0037	805.2	0.8
293.15	1	0.0049	809.8	0.8
298.15	0	0.0099	1067	1.4
298.15	0	0.0196	1134.1	2.8
298.15	0	0.0292	1199.6	2.7
298.15	0	0.0385	1262	4
298.15	0	0.0536	1362.1	9.2
298.15	0	0.069	1461.3	11.6
298.15	0.25	0.0192	1062.3	3.4
298.15	0.25	0.037	1160.4	5.4
298.15	0.25	0.0536	1246.6	7.3
298.15	0.5	0.0074	916.9	0.9
298.15	0.5	0.0146	951.7	1
298.15	0.5	0.0215	983.5	1
298.15	0.5	0.0283	1015.8	1.9
298.15	0.5	0.0349	1048	2
298.15	0.75	0.0025	842.4	0.8
298.15	0.75	0.005	852.4	1
298.15	0.75	0.0074	862.5	0.8
298.15	0.75	0.0098	872	0.8
298.15	0.75	0.0122	881.3	0.8
298.15	1	0.0012	791.3	0.8
298.15	1	0.0025	796	0.8
298.15	1	0.0037	800.5	0.8
298.15	1	0.0049	805.1	0.8
308.15	0	0.0099	1063.5	1.4
308.15	0	0.0196	1130.1	2.7
308.15	0	0.0292	1195.2	2.7
308.15	0	0.0385	1257.3	4
308.15	0	0.0536	1356.7	9.1
308.15	0	0.069	1455.3	11.5
308.15	0.25	0.0192	1056.4	3.4
308.15	0.25	0.037	1154	5.3
308.15	0.25	0.0536	1239.5	7.2
308.15	0.5	0.0074	908.8	0.9
308.15	0.5	0.0146	943.5	1
308.15	0.5	0.0215	975.1	1
308.15	0.5	0.0283	1007.3	1.9
308.15	0.5	0.0349	1039.4	2
308.15	0.75	0.0025	833.6	0.9
308.15	0.75	0.005	843.6	1
308.15	0.75	0.0074	853.6	0.8
308.15	0.75	0.0098	863.1	0.8
308.15	0.75	0.0122	872.3	0.8
308.15	1	0.0012	781.8	0.8
308.15	1	0.0025	786.5	0.8
308.15	1	0.0037	791	0.8
308.15	1	0.0049	795.5	0.8
318.15	0	0.0099	1059.2	1.4
318.15	0	0.0196	1125.5	2.7
318.15	0	0.0292	1190.2	2.7
318.15	0	0.0385	1252	4
318.15	0	0.0536	1350.9	9
318.15	0	0.069	1448.6	11.4
318.15	0.25	0.0192	1050.1	3.5
318.15	0.25	0.037	1147.1	5.3
318.15	0.25	0.0536	1231.1	7.1
318.15	0.5	0.0074	900.4	0.8
318.15	0.5	0.0146	935	1
318.15	0.5	0.0215	966.5	1
318.15	0.5	0.0283	998.6	1.9
318.15	0.5	0.0349	1030.5	2
318.15	0.75	0.0025	824.6	0.9
318.15	0.75	0.005	834.6	0.9
318.15	0.75	0.0074	844.5	0.8
318.15	0.75	0.0098	854	0.8
318.15	0.75	0.0122	863.2	0.8
318.15	1	0.0012	772.3	0.8
318.15	1	0.0025	776.9	0.8
318.15	1	0.0037	781.4	0.8
318.15	1	0.0049	785.9	0.8

System: sodium chloride + water; phases: Liquid, Crystal
Property: Mass density, kg/m3 (Liquid); method: Vibrating tube method
Temperature, K	Mole fraction of sodium chloride	Mass density, kg/m3	uncertainty
288.15	0.0099	1022.2	0.5
288.15	0.0196	1044.7	0.9
288.15	0.0291	1065.8	0.9
288.15	0.0385	1086.7	1.4
288.15	0.0476	1107.4	1.4
288.15	0.0566	1127.2	1.8
288.15	0.0654	1147.1	1.8
293.15	0.0099	1021	0.5
293.15	0.0196	1043.2	0.9
293.15	0.0291	1064.1	0.9
293.15	0.0385	1084.8	1.4
293.15	0.0476	1105.4	1.4
293.15	0.0566	1125	1.8
293.15	0.0654	1144.8	1.8
298.15	0.0099	1019.6	0.5
298.15	0.0196	1041.6	0.9
298.15	0.0291	1062.3	0.9
298.15	0.0385	1082.8	1.3
298.15	0.0476	1103.3	1.3
298.15	0.0566	1122.7	1.8
298.15	0.0654	1142.4	1.8
308.15	0.0099	1016.2	0.5
308.15	0.0196	1037.8	0.9
308.15	0.0291	1058.2	0.9
308.15	0.0385	1078.5	1.3
308.15	0.0476	1098.7	1.3
308.15	0.0566	1118	1.8
308.15	0.0654	1137.4	1.8
318.15	0.0099	1012.1	0.5
318.15	0.0196	1033.5	0.9
318.15	0.0291	1053.6	0.9
318.15	0.0385	1073.7	1.3
318.15	0.0476	1093.8	1.3
318.15	0.0566	1112.9	1.7
318.15	0.0654	1132.2	1.8

System: sodium chloride + methanol; phases: Liquid, Crystal
Property: Mass density, kg/m3 (Liquid); method: Vibrating tube method
Temperature, K	Mole fraction of sodium chloride	Mass density, kg/m3	uncertainty
288.15	0.001	797.4	0.4
288.15	0.002	798.9	0.4
288.15	0.003	800.1	0.4
288.15	0.004	801.4	0.4
288.15	0.005	802.9	0.4
288.15	0.006	804.1	0.4
288.15	0.007	805.7	0.4
293.15	0.001	792.7	0.4
293.15	0.002	794.3	0.4
293.15	0.003	795.5	0.4
293.15	0.004	796.8	0.4
293.15	0.005	798.3	0.4
293.15	0.006	799.5	0.4
293.15	0.007	801.1	0.4
298.15	0.001	788	0.4
298.15	0.002	789.6	0.4
298.15	0.003	790.8	0.4
298.15	0.004	792.1	0.4
298.15	0.005	793.7	0.4
298.15	0.006	794.9	0.4
298.15	0.007	796.4	0.4
308.15	0.001	778.6	0.4
308.15	0.002	780.2	0.4
308.15	0.003	781.4	0.4
308.15	0.004	782.7	0.4
308.15	0.005	784.3	0.4
308.15	0.006	785.5	0.4
308.15	0.007	787.1	0.4
318.15	0.001	769	0.5
318.15	0.002	770.7	0.4
318.15	0.003	771.9	0.4
318.15	0.004	773.3	0.4
318.15	0.005	774.8	0.4
318.15	0.006	776.1	0.4
318.15	0.007	777.7	0.4

System: cesium chloride + water; phases: Liquid, Crystal
Property: Mass density, kg/m3 (Liquid); method: Vibrating tube method
Temperature, K	Mole fraction of cesium chloride	Mass density, kg/m3	uncertainty
288.15	0.0099	1069.7	1.4
288.15	0.0196	1137.3	2.8
288.15	0.0292	1203.3	2.7
288.15	0.0385	1266.2	4
288.15	0.0536	1367	9.2
288.15	0.069	1466.9	11.7
293.15	0.0099	1068.4	1.4
293.15	0.0196	1135.8	2.8
293.15	0.0292	1201.6	2.7
293.15	0.0385	1264.2	4
293.15	0.0536	1364.6	9.2
293.15	0.069	1464.1	11.6
298.15	0.0099	1067	1.4
298.15	0.0196	1134.1	2.8
298.15	0.0292	1199.6	2.7
298.15	0.0385	1262	4
298.15	0.0536	1362.1	9.2
298.15	0.069	1461.3	11.6
308.15	0.0099	1063.5	1.4
308.15	0.0196	1130.1	2.7
308.15	0.0292	1195.2	2.7
308.15	0.0385	1257.3	4
308.15	0.0536	1356.7	9.1
308.15	0.069	1455.3	11.5
318.15	0.0099	1059.2	1.4
318.15	0.0196	1125.5	2.7
318.15	0.0292	1190.2	2.7
318.15	0.0385	1252	4
318.15	0.0536	1350.9	9
318.15	0.069	1448.6	11.4

System: cesium chloride + methanol; phases: Liquid, Crystal
Property: Mass density, kg/m3 (Liquid); method: Vibrating tube method
Temperature, K	Mole fraction of cesium chloride	Mass density, kg/m3	uncertainty
288.15	0.0012	800.8	0.8
288.15	0.0025	805.5	0.8
288.15	0.0037	809.9	0.8
288.15	0.0049	814.5	0.8
293.15	0.0012	796.1	0.8
293.15	0.0025	800.8	0.8
293.15	0.0037	805.2	0.8
293.15	0.0049	809.8	0.8
298.15	0.0012	791.3	0.8
298.15	0.0025	796	0.8
298.15	0.0037	800.5	0.8
298.15	0.0049	805.1	0.8
308.15	0.0012	781.8	0.8
308.15	0.0025	786.5	0.8
308.15	0.0037	791	0.8
308.15	0.0049	795.5	0.8
318.15	0.0012	772.3	0.8
318.15	0.0025	776.9	0.8
318.15	0.0037	781.4	0.8
318.15	0.0049	785.9	0.8
