Measured thermophysical data. Phase equilibria in the aqueous ternary systems (LiCl + LiBO2 + H2O) and (Li2SO4+ LiBO2 + H2O) at 323.15 K and 0.1 MPa
Source: Fluid Phase Equilib., 2017, 10.1016/j.fluid.2016.12.013
Compound 1: lithium chloride, ClLi, InChI=1S/ClH.Li/h1H;/q;+1/p-1, purity 99%
Compound 2: lithium sulfate, Li2O4S, InChI=1S/2Li.H2O4S/c;;1-5(2,3)4/h;;(H2,1,2,3,4)/q2*+1;/p-2, purity 99%
Compound 3: water, H2O, InChI=1S/H2O/h1H2, purity 99.9%
Compound 4: lithium metaborate, BLiO2, InChI=1S/BO2.Li/c2-1-3;/q-1;+1, purity 99%

System: lithium chloride + water + lithium metaborate; phases: Liquid
Fixed: Pressure, kPa = 101
Fixed: Temperature, K = 323.15
Property: Mass density, kg/m3 (Liquid); method: Vibrating tube method
Mass fraction of lithium chloride	Mass fraction of lithium metaborate	Mass density, kg/m3	uncertainty
0	0.0781	1081.97	1.42
0.1235	0.0293	1094.64	4.8
0.1798	0.0214	1121.66	4.69
0.2174	0.0192	1142.1	4.79
0.2464	0.0189	1160.63	4.79
0.3192	0.0269	1214.67	4.72
0.3404	0.0357	1237.57	4.42
0.4189	0.0842	1331.77	4.27
0.4463	0.0988	1353.22	4.29
0.4726	0.0407	1310.42	3.94
0.4712	0.0127	1313.62	7.16
0.4723	0.015	1305.97	4.68
0.4724	0.0092	1335.39	7.94
0.4807	0	1296.46	7.16

System: lithium chloride + water + lithium metaborate; phases: Liquid
Fixed: Pressure, kPa = 101
Fixed: Temperature, K = 323.15
Property: Refractive index (Na D-line) (Liquid); method: Standard Abbe refractometry
Mass fraction of lithium chloride	Mass fraction of lithium metaborate	Refractive index (Na D-line)	uncertainty
0	0.0781	1.3537	0.0005
0.1235	0.0293	1.365	0.0017
0.1798	0.0214	1.376	0.0017
0.2174	0.0192	1.3836	0.0016
0.2464	0.0189	1.3895	0.0016
0.3192	0.0269	1.4092	0.002
0.3404	0.0357	1.4127	0.0017
0.4189	0.0842	1.4462	0.0016
0.4463	0.0988	1.4542	0.0016
0.4726	0.0407	1.4422	0.0016
0.4712	0.0127	1.4417	0.0017
0.4723	0.015	1.4408	0.0014
0.4724	0.0092	1.4405	0.0019
0.4807	0	1.4388	0.0018

System: lithium chloride + water + lithium metaborate; phases: Liquid, Crystal of intercomponent compound 1
Fixed: Pressure, kPa = 101
Fixed: Temperature, K = 323.15
Property: Mass fraction of lithium metaborate (Liquid); method: Schreinemarkers rule
Mass fraction of lithium chloride	Mass fraction of lithium metaborate	uncertainty
0	0.0781	0.0012
0.1235	0.0293	0.0026
0.1798	0.0214	0.0014
0.2174	0.0192	0.0012
0.2464	0.0189	0.0013
0.3192	0.0269	0.0016
0.3404	0.0357	0.0044
0.4189	0.0842	0.0045
0.4463	0.0988	0.004

System: lithium chloride + water + lithium metaborate; phases: Liquid, Crystal of intercomponent compound 2
Fixed: Pressure, kPa = 101
Fixed: Temperature, K = 323.15
Property: Mass fraction of lithium metaborate (Liquid); method: Schreinemaker's
Mass fraction of lithium chloride	Mass fraction of lithium metaborate	uncertainty
0.4463	0.0988	0.0012
0.4726	0.0407	0.0012
0.4712	0.0127	0.0012
0.4723	0.015	0.0012
0.4724	0.0092	0.0012
0.4807	0	

System: water + lithium sulfate + lithium metaborate; phases: Liquid
Fixed: Pressure, kPa = 101
Fixed: Temperature, K = 323.15
Property: Mass density, kg/m3 (Liquid); method: Vibrating tube method
Mass fraction of lithium sulfate	Mass fraction of lithium metaborate	Mass density, kg/m3	uncertainty
0	0.0781	1081.97	0.28
0.0303	0.0469	1100.77	0.87
0.0565	0.0637	1114.57	0.87
0.1182	0.0516	1159.41	0.97
0.1685	0.0463	1214.97	1.59
0.2075	0.0449	1239.11	1.81
0.2321	0.042	1260.39	2.13
0.2324	0.0426	1262.19	2.05
0.2401	0.0418	1267.57	2.13
0.2422	0.0365	1261.28	2.03
0.2491	0.0268	1251.01	1.88
0.2497	0.0143	1236.18	2
0.251	0	1215.27	1.2

System: water + lithium sulfate + lithium metaborate; phases: Liquid
Fixed: Pressure, kPa = 101
Fixed: Temperature, K = 323.15
Property: Refractive index (Na D-line) (Liquid); method: Standard Abbe refractometry
Mass fraction of lithium sulfate	Mass fraction of lithium metaborate	Refractive index (Na D-line)	uncertainty
0	0.0781	1.3537	0.0004
0.0303	0.0469	1.357	0.0004
0.0565	0.0637	1.3592	0.0004
0.1182	0.0516	1.3659	0.0004
0.1685	0.0463	1.3725	0.0005
0.2075	0.0449	1.3786	0.0006
0.2321	0.042	1.3833	0.0004
0.2324	0.0426	1.3832	0.0004
0.2401	0.0418	1.3833	0.0004
0.2422	0.0365	1.383	0.0004
0.2491	0.0268	1.3799	0.0006
0.2497	0.0143	1.3768	0.0005
0.251	0	1.3722	0.0004

System: water + lithium sulfate + lithium metaborate; phases: Liquid, Crystal of intercomponent compound 1
Fixed: Pressure, kPa = 101
Fixed: Temperature, K = 323.15
Property: Mass fraction of lithium metaborate (Liquid); method: Schreinemarkers
Mass fraction of lithium sulfate	Mass fraction of lithium metaborate	uncertainty
0	0.0781	0.0012
0.0303	0.0469	0.0012
0.0565	0.0637	0.0012
0.1182	0.0516	0.0012
0.1685	0.0463	0.0012
0.2075	0.0449	0.0012
0.2321	0.042	0.0012
0.2324	0.0426	0.0012
0.2401	0.0418	0.0012

System: water + lithium sulfate + lithium metaborate; phases: Liquid, Crystal of intercomponent compound 2
Fixed: Pressure, kPa = 101
Fixed: Temperature, K = 323.15
Property: Mass fraction of lithium metaborate (Liquid); method: Schreinemarkers
Mass fraction of lithium sulfate	Mass fraction of lithium metaborate	uncertainty
0.2401	0.0418	0.0031
0.2422	0.0365	0.0022
0.2491	0.0268	0.0041
0.2497	0.0143	0.0126
0.251	0	
