Measured thermophysical data. Solid-liquid phase equilibrium of 9-fluorenone and several polynuclear aromatic hydrocarbons
Source: Fluid Phase Equilib., 2012, 10.1016/j.fluid.2012.01.017
Compound 1: 9(9H)-fluorenone, C13H8O, InChI=1S/C13H8O/c14-13-11-7-3-1-5-9(11)10-6-2-4-8-12(10)13/h1-8H
Compound 2: dibenzo[bd]furan, C12H8O, InChI=1S/C12H8O/c1-3-7-11-9(5-1)10-6-2-4-8-12(10)13-11/h1-8H
Compound 3: fluorene, C13H10, InChI=1S/C13H10/c1-3-7-12-10(5-1)9-11-6-2-4-8-13(11)12/h1-8H,9H2
Compound 4: acenaphthene, C12H10, InChI=1S/C12H10/c1-3-9-4-2-6-11-8-7-10(5-1)12(9)11/h1-6H,7-8H2
Compound 5: 9H-carbazole, C12H9N, InChI=1S/C12H9N/c1-3-7-11-9(5-1)10-6-2-4-8-12(10)13-11/h1-8,13H
Compound 6: anthracene, C14H10, InChI=1S/C14H10/c1-2-6-12-10-14-8-4-3-7-13(14)9-11(12)5-1/h1-10H

System: dibenzo[bd]furan + 9(9H)-fluorenone; phases: Liquid, Crystal
Fixed: Pressure, kPa = 101
Property: Solid-liquid equilibrium temperature, K (Liquid); method: DTA
Mole fraction of 9(9H)-fluorenone	Solid-liquid equilibrium temperature, K	uncertainty
0.5044	318.52	0.39
0.5869	324.91	0.39
0.6886	333.71	0.39
0.7584	338.78	0.39
0.8384	345.79	0.39
0.9178	351.32	0.39
1	356.27	0.39

System: dibenzo[bd]furan + 9(9H)-fluorenone; phases: Liquid, Crystal
Fixed: Pressure, kPa = 101
Property: Solid-liquid equilibrium temperature, K (Liquid); method: DTA
Mole fraction of 9(9H)-fluorenone	Solid-liquid equilibrium temperature, K	uncertainty
0	355.54	0.39
0.0766	350.11	0.39
0.1218	346.38	0.39
0.1934	341.27	0.39
0.2691	335.74	0.39
0.3161	331.02	0.39
0.3833	324.61	0.39
0.4207	320.77	0.39

System: dibenzo[bd]furan + 9(9H)-fluorenone; phases: Crystal, Liquid
Property: Eutectic temperature, K (Crystal); method: DTA
Mole fraction of 9(9H)-fluorenone	Pressure, kPa	Eutectic temperature, K	uncertainty
0.4768	101	316.2	0.39

System: fluorene + 9(9H)-fluorenone; phases: Liquid, Crystal
Fixed: Pressure, kPa = 101
Property: Solid-liquid equilibrium temperature, K (Liquid); method: DTA
Mole fraction of 9(9H)-fluorenone	Solid-liquid equilibrium temperature, K	uncertainty
0.6942	334.6	0.39
0.7448	339.18	0.39
0.7929	342.01	0.39
0.8669	347.82	0.39
1	356.27	0.39

System: fluorene + 9(9H)-fluorenone; phases: Liquid, Crystal
Fixed: Pressure, kPa = 101
Property: Solid-liquid equilibrium temperature, K (Liquid); method: DTA
Mole fraction of 9(9H)-fluorenone	Solid-liquid equilibrium temperature, K	uncertainty
0	387.53	0.39
0.0932	381.04	0.39
0.1661	375.55	0.39
0.2342	370.62	0.39
0.2858	365.23	0.39
0.3628	359.94	0.39
0.4398	350.44	0.39
0.5169	342.97	0.39
0.5984	335.28	0.39

System: fluorene + 9(9H)-fluorenone; phases: Liquid, Crystal
Property: Eutectic temperature, K (Liquid); method: DTA
Mole fraction of 9(9H)-fluorenone	Pressure, kPa	Eutectic temperature, K	uncertainty
0.6441	101	330.8	0.39

System: acenaphthene + 9(9H)-fluorenone; phases: Liquid, Crystal
Fixed: Pressure, kPa = 101
Property: Solid-liquid equilibrium temperature, K (Liquid); method: DTA
Mole fraction of 9(9H)-fluorenone	Solid-liquid equilibrium temperature, K	uncertainty
0.5801	328.6	0.4
0.6315	332.5	0.4
0.6848	337.68	0.39
0.7476	340.5	0.4
0.8077	344.73	0.39
0.892	350.18	0.39
1	356.27	0.39

System: acenaphthene + 9(9H)-fluorenone; phases: Liquid, Crystal
Fixed: Pressure, kPa = 101
Property: Solid-liquid equilibrium temperature, K (Liquid); method: DTA
Mole fraction of 9(9H)-fluorenone	Solid-liquid equilibrium temperature, K	uncertainty
0	366.37	0.39
0.0776	362.46	0.39
0.2028	354.4	0.4
0.2833	350.78	0.39
0.3301	345.9	0.4
0.3726	342.84	0.39
0.4452	337.01	0.39
0.4884	332.58	0.39

System: acenaphthene + 9(9H)-fluorenone; phases: Liquid, Crystal
Property: Eutectic temperature, K (Liquid); method: DTA
Mole fraction of 9(9H)-fluorenone	Pressure, kPa	Eutectic temperature, K	uncertainty
0.5422	101	326.28	0.39

System: 9H-carbazole + 9(9H)-fluorenone; phases: Liquid, Crystal
Fixed: Pressure, kPa = 101
Property: Solid-liquid equilibrium temperature, K (Liquid); method: DTA
Mole fraction of 9(9H)-fluorenone	Solid-liquid equilibrium temperature, K	uncertainty
0.8734	347.93	0.39
0.9173	352.07	0.39
0.9587	353.81	0.39
1	356.27	0.39

System: 9H-carbazole + 9(9H)-fluorenone; phases: Liquid, Crystal
Fixed: Pressure, kPa = 101
Property: Solid-liquid equilibrium temperature, K (Liquid); method: DTA
Mole fraction of 9(9H)-fluorenone	Solid-liquid equilibrium temperature, K	uncertainty
0	519.16	0.39
0.0806	510.07	0.39
0.1661	499.27	0.39
0.2762	482.04	0.39
0.4229	457.57	0.39
0.5285	438.93	0.4
0.6265	415.88	0.4
0.6986	395.31	0.4
0.7578	377.79	0.41

System: 9H-carbazole + 9(9H)-fluorenone; phases: Liquid, Crystal
Property: Eutectic temperature, K (Liquid); method: DTA
Mole fraction of 9(9H)-fluorenone	Pressure, kPa	Eutectic temperature, K	uncertainty
0.8375	101	346.8	0.39

System: anthracene + 9(9H)-fluorenone; phases: Liquid, Crystal
Fixed: Pressure, kPa = 101
Property: Solid-liquid equilibrium temperature, K (Liquid); method: DTA
Mole fraction of 9(9H)-fluorenone	Solid-liquid equilibrium temperature, K	uncertainty
0.9599	354.44	0.39
0.9901	355.48	0.39
1	356.27	0.39

System: anthracene + 9(9H)-fluorenone; phases: Liquid, Crystal
Fixed: Pressure, kPa = 101
Property: Solid-liquid equilibrium temperature, K (Liquid); method: DTA
Mole fraction of 9(9H)-fluorenone	Solid-liquid equilibrium temperature, K	uncertainty
0	489.72	0.39
0.0885	482.79	0.39
0.1569	475.39	0.39
0.2553	465.64	0.39
0.3367	455.44	0.39
0.4026	445.85	0.39
0.521	427.35	0.39
0.6038	413.07	0.39
0.6891	395.15	0.4
0.7721	374.06	0.4
0.8336	360.51	0.4

System: anthracene + 9(9H)-fluorenone; phases: Liquid, Crystal
Property: Eutectic temperature, K (Liquid); method: DTA
Mole fraction of 9(9H)-fluorenone	Pressure, kPa	Eutectic temperature, K	uncertainty
0.894	101	348.18	0.39
