Measured thermophysical data. Separation of propionic acid by diethyl carbonate or diethyl malonate or diethyl fumarate and the synergistic effect of phosphorus compounds and amines
Source: Fluid Phase Equilib., 2010, 10.1016/j.fluid.2010.01.018
Compound 1: propanoic acid, C3H6O2, InChI=1S/C3H6O2/c1-2-3(4)5/h2H2,1H3,(H,4,5)
Compound 2: diethyl carbonate, C5H10O3, InChI=1S/C5H10O3/c1-3-7-5(6)8-4-2/h3-4H2,1-2H3
Compound 3: diethyl 1,3-propanedioate, C7H12O4, InChI=1S/C7H12O4/c1-3-10-6(8)5-7(9)11-4-2/h3-5H2,1-2H3
Compound 4: diethyl fumarate, C8H12O4, InChI=1S/C8H12O4/c1-3-11-7(9)5-6-8(10)12-4-2/h5-6H,3-4H2,1-2H3/b6-5+
Compound 5: water, H2O, InChI=1S/H2O/h1H2

System: propanoic acid + diethyl carbonate + water; phases: Liquid mixture 1, Liquid mixture 2
Fixed: Temperature, K = 298.15
Fixed: Pressure, kPa = 101.3
Property: Mole fraction of propanoic acid (Liquid mixture 1); method: Chromatography
Property: Mole fraction of propanoic acid (Liquid mixture 2); method: Chromatography
Property: Mole fraction of water (Liquid mixture 2); method: Chromatography
Mole fraction of water	Mole fraction of propanoic acid	uncertainty	Mole fraction of propanoic acid	uncertainty	Mole fraction of water	uncertainty
0.9823	0.0143	0.0028	0.0948	0.003	0.1631	
0.9712	0.0251	0.0028	0.178	0.0029	0.2402	
0.9545	0.0409	0.0028	0.2579	0.0028	0.3547	
0.9447	0.0503	0.0028	0.2612	0.0027	0.4765	
0.9321	0.0622	0.0028	0.2431	0.0027	0.6151	

System: propanoic acid + diethyl carbonate + water; phases: Liquid mixture 1, Liquid mixture 2
Property: Mole fraction of propanoic acid (Liquid mixture 1); method: Chromatography
Mole fraction of water	Pressure, kPa	Temperature, K	Mole fraction of propanoic acid	uncertainty
0.9047	101.3	298.15	0.0803	0.0007

System: propanoic acid + diethyl carbonate + water; phases: Liquid mixture 1, Liquid mixture 2
Property: Mole fraction of diethyl carbonate (Liquid mixture 1); method: Chromatography
Mole fraction of water	Pressure, kPa	Temperature, K	Mole fraction of diethyl carbonate	uncertainty
0.9047	101.3	298.15	0.015	0.0004

System: propanoic acid + diethyl 1,3-propanedioate + water; phases: Liquid mixture 1, Liquid mixture 2
Fixed: Temperature, K = 298.15
Fixed: Pressure, kPa = 101.3
Property: Mole fraction of propanoic acid (Liquid mixture 1); method: Chromatography
Property: Mole fraction of propanoic acid (Liquid mixture 2); method: Chromatography
Property: Mole fraction of water (Liquid mixture 2); method: Chromatography
Mole fraction of water	Mole fraction of propanoic acid	uncertainty	Mole fraction of propanoic acid	uncertainty	Mole fraction of water	uncertainty
0.9841	0.0102	0.0026	0.0901	0.0091	0.4282	
0.9736	0.0191	0.0026	0.1453	0.0048	0.4407	
0.9606	0.0301	0.0027	0.2007	0.0032	0.4764	
0.948	0.0419	0.0027	0.2364	0.0026	0.5295	
0.9366	0.0507	0.0026	0.231	0.0026	0.6065	

System: propanoic acid + diethyl 1,3-propanedioate + water; phases: Liquid mixture 1, Liquid mixture 2
Property: Mole fraction of propanoic acid (Liquid mixture 1); method: Chromatography
Mole fraction of water	Pressure, kPa	Temperature, K	Mole fraction of propanoic acid	uncertainty
0.9107	101.3	298.15	0.0692	0.0006

System: propanoic acid + diethyl 1,3-propanedioate + water; phases: Liquid mixture 1, Liquid mixture 2
Property: Mole fraction of diethyl 1,3-propanedioate (Liquid mixture 1); method: Chromatography
Mole fraction of water	Pressure, kPa	Temperature, K	Mole fraction of diethyl 1,3-propanedioate	uncertainty
0.9107	101.3	298.15	0.0201	0.0004

System: propanoic acid + diethyl fumarate + water; phases: Liquid mixture 1, Liquid mixture 2
Fixed: Temperature, K = 298.15
Fixed: Pressure, kPa = 101.3
Property: Mole fraction of propanoic acid (Liquid mixture 1); method: Chromatography
Property: Mole fraction of propanoic acid (Liquid mixture 2); method: Chromatography
Property: Mole fraction of water (Liquid mixture 2); method: Chromatography
Mole fraction of water	Mole fraction of propanoic acid	uncertainty	Mole fraction of propanoic acid	uncertainty	Mole fraction of water	uncertainty
0.9815	0.0183	0.0028	0.1479	0.0031	0.2147	
0.9727	0.0271	0.0028	0.1961	0.0031	0.2601	
0.9568	0.043	0.0028	0.2587	0.0031	0.3338	
0.9381	0.0617	0.0029	0.3046	0.0031	0.4003	
0.9246	0.0751	0.0029	0.3181	0.003	0.4625	

System: propanoic acid + diethyl fumarate + water; phases: Liquid mixture 1, Liquid mixture 2
Property: Mole fraction of propanoic acid (Liquid mixture 1); method: Chromatography
Mole fraction of water	Pressure, kPa	Temperature, K	Mole fraction of propanoic acid	uncertainty
0.871	101.3	298.15	0.1286	0.001

System: propanoic acid + diethyl fumarate + water; phases: Liquid mixture 1, Liquid mixture 2
Property: Mole fraction of diethyl fumarate (Liquid mixture 1); method: Chromatography
Mole fraction of water	Pressure, kPa	Temperature, K	Mole fraction of diethyl fumarate	uncertainty
0.871	101.3	298.15	0.0004	0.0004
