Measured thermophysical data. Experimental data on binary and ternary mixtures of perfluoro-1,3-dimethylcyclohexane with normal alkanes at 373.15 K
Source: Fluid Phase Equilib., 2010, 10.1016/j.fluid.2010.06.017
Compound 1: 1,1,2,2,3,3,4,5,5,6-decafluoro-4,6-bis(trifluoromethyl)cyclohexane, C8F16, InChI=1S/C8F16/c9-1(7(19,20)21)3(11,12)2(10,8(22,23)24)5(15,16)6(17,18)4(1,13)14, purity 98%
Compound 2: methane, CH4, InChI=1S/CH4/h1H4
Compound 3: propane, C3H8, InChI=1S/C3H8/c1-3-2/h3H2,1-2H3, purity 99.5%
Compound 4: hexane, C6H14, InChI=1S/C6H14/c1-3-5-6-4-2/h3-6H2,1-2H3, purity 99%
Compound 5: decane, C10H22, InChI=1S/C10H22/c1-3-5-7-9-10-8-6-4-2/h3-10H2,1-2H3, purity 99%

System: methane + 1,1,2,2,3,3,4,5,5,6-decafluoro-4,6-bis(trifluoromethyl)cyclohexane; phases: Liquid
Property: Mass density, kg/m3 (Liquid); method: Vibrating tube method
Mass fraction of 1,1,2,2,3,3,4,5,5,6-decafluoro-4,6-bis(trifluoromethyl)cyclohexane	Pressure, kPa	Temperature, K	Mass density, kg/m3	uncertainty
0.4623	34470	373.15	1399	17

System: methane + 1,1,2,2,3,3,4,5,5,6-decafluoro-4,6-bis(trifluoromethyl)cyclohexane; phases: Liquid, Gas
Fixed: Temperature, K = 373.15
Property: Mole fraction of 1,1,2,2,3,3,4,5,5,6-decafluoro-4,6-bis(trifluoromethyl)cyclohexane (Liquid); method: Density calibration data
Pressure, kPa	Mole fraction of 1,1,2,2,3,3,4,5,5,6-decafluoro-4,6-bis(trifluoromethyl)cyclohexane	uncertainty
4390	0.7999	0.0041
10550	0.5984	0.0043
14690	0.4623	0.0028
15270	0.45	0.0035
16890	0.4	0.0039
19620	0.2999	0.0078
20270	0.2498	0.0107
20500	0.1997	0.0218

System: methane + 1,1,2,2,3,3,4,5,5,6-decafluoro-4,6-bis(trifluoromethyl)cyclohexane; phases: Gas, Liquid
Fixed: Temperature, K = 373.15
Property: Mole fraction of 1,1,2,2,3,3,4,5,5,6-decafluoro-4,6-bis(trifluoromethyl)cyclohexane (Gas); method: Density calibration data
Pressure, kPa	Mole fraction of 1,1,2,2,3,3,4,5,5,6-decafluoro-4,6-bis(trifluoromethyl)cyclohexane	uncertainty
19260	0.1	0.0043
20430	0.1499	0.0043

System: propane + 1,1,2,2,3,3,4,5,5,6-decafluoro-4,6-bis(trifluoromethyl)cyclohexane; phases: Liquid, Gas
Fixed: Temperature, K = 373.15
Property: Mole fraction of 1,1,2,2,3,3,4,5,5,6-decafluoro-4,6-bis(trifluoromethyl)cyclohexane (Liquid); method: Density calibration data
Pressure, kPa	Mole fraction of 1,1,2,2,3,3,4,5,5,6-decafluoro-4,6-bis(trifluoromethyl)cyclohexane	uncertainty
1830	0.6006	0.0233
2700	0.3993	0.027
3300	0.2005	0.0331

System: decane + 1,1,2,2,3,3,4,5,5,6-decafluoro-4,6-bis(trifluoromethyl)cyclohexane; phases: Liquid, Gas
Fixed: Temperature, K = 373.15
Property: Mole fraction of 1,1,2,2,3,3,4,5,5,6-decafluoro-4,6-bis(trifluoromethyl)cyclohexane (Liquid); method: Density calibration data
Pressure, kPa	Mole fraction of 1,1,2,2,3,3,4,5,5,6-decafluoro-4,6-bis(trifluoromethyl)cyclohexane	uncertainty
193	0.8353	0.0022
220	1	0.01
227	1	0.01

System: methane + hexane + 1,1,2,2,3,3,4,5,5,6-decafluoro-4,6-bis(trifluoromethyl)cyclohexane; phases: Liquid, Gas
Fixed: Temperature, K = 373.15
Property: Mole fraction of 1,1,2,2,3,3,4,5,5,6-decafluoro-4,6-bis(trifluoromethyl)cyclohexane (Liquid); method: Density calibration data
Mole fraction of methane	Pressure, kPa	Mole fraction of 1,1,2,2,3,3,4,5,5,6-decafluoro-4,6-bis(trifluoromethyl)cyclohexane	uncertainty
0.2027	4680	0.4011	0.0029
0.4003	9160	0.3017	0.0026
0.6016	14170	0.2004	0.0023

System: methane + hexane + 1,1,2,2,3,3,4,5,5,6-decafluoro-4,6-bis(trifluoromethyl)cyclohexane; phases: Gas, Liquid
Fixed: Temperature, K = 373.15
Property: Mole fraction of 1,1,2,2,3,3,4,5,5,6-decafluoro-4,6-bis(trifluoromethyl)cyclohexane (Gas); method: Density calibration data
Mole fraction of methane	Pressure, kPa	Mole fraction of 1,1,2,2,3,3,4,5,5,6-decafluoro-4,6-bis(trifluoromethyl)cyclohexane	uncertainty
0.7998	16170	0.1007	0.0022
0.8988	13840	0.0509	0.0021

System: methane + decane + 1,1,2,2,3,3,4,5,5,6-decafluoro-4,6-bis(trifluoromethyl)cyclohexane; phases: Gas, Liquid
Fixed: Temperature, K = 373.15
Property: Mole fraction of 1,1,2,2,3,3,4,5,5,6-decafluoro-4,6-bis(trifluoromethyl)cyclohexane (Gas); method: Density calibration data
Mole fraction of methane	Pressure, kPa	Mole fraction of 1,1,2,2,3,3,4,5,5,6-decafluoro-4,6-bis(trifluoromethyl)cyclohexane	uncertainty
0.8986	24980	0.05	0.0013
0.9501	22950	0.0246	0.0013

System: methane + decane + 1,1,2,2,3,3,4,5,5,6-decafluoro-4,6-bis(trifluoromethyl)cyclohexane; phases: Liquid, Gas
Fixed: Temperature, K = 373.15
Property: Mole fraction of 1,1,2,2,3,3,4,5,5,6-decafluoro-4,6-bis(trifluoromethyl)cyclohexane (Liquid); method: Density calibration data
Mole fraction of methane	Pressure, kPa	Mole fraction of 1,1,2,2,3,3,4,5,5,6-decafluoro-4,6-bis(trifluoromethyl)cyclohexane	uncertainty
0.1893	4000	0.5511	0.0049
0.2244	4940	0.6533	0.0056
0.3699	9010	0.3106	0.0053
0.4474	11010	0.3756	0.0055
0.5966	8870	0.1988	0.0023
0.7996	22650	0.0988	0.0085
