Measured thermophysical data. Heat capacities of tetraphenyl phosphonium chloride in methanol, ethanol, acetonitrile, and water
Source: Fluid Phase Equilib., 2010, 10.1016/j.fluid.2010.03.017
Compound 1: tetraphenylphosphonium chloride, C24H20ClP, InChI=1S/C24H20P.ClH/c1-5-13-21(14-6-1)25(22-15-7-2-8-16-22,23-17-9-3-10-18-23)24-19-11-4-12-20-24;/h1-20H;1H/q+1;/p-1, purity 98%
Compound 2: ethanol, C2H6O, InChI=1S/C2H6O/c1-2-3/h3H,2H2,1H3, purity 99.5%
Compound 3: methanol, CH4O, InChI=1S/CH4O/c1-2/h2H,1H3, purity 99.5%
Compound 4: acetonitrile, C2H3N, InChI=1S/C2H3N/c1-2-3/h1H3, purity 99.5%
Compound 5: water, H2O, InChI=1S/H2O/h1H2, purity 99.8%

System: methanol + tetraphenylphosphonium chloride; phases: Liquid
Fixed: Pressure, kPa = 101
Property: Mass density, kg/m3 (Liquid); method: VIBTUB:UFactor:16
Temperature, K	Amount concentration (molarity), mol/dm3 of tetraphenylphosphonium chloride	Mass density, kg/m3	uncertainty
308.65	0	776.519	1.924
311.65	0	773.8965	1.9404
314.65	0	771.1	1.96
308.65	0.005	776.52	1.92
311.65	0.005	774.51	1.94
314.65	0.005	771.62	1.95
308.65	0.01	779.51	1.91
311.65	0.01	778.81	1.91
314.65	0.01	775.7	1.93
308.65	0.02	780.37	1.9
311.65	0.02	777.85	1.92
314.65	0.02	774.95	1.94
308.65	0.05	787.22	1.86
311.65	0.05	784.14	1.88
314.65	0.05	782.06	1.89
308.65	0.1	793.29	1.83
311.65	0.1	790.42	1.85
314.65	0.1	788.49	1.86

System: methanol + tetraphenylphosphonium chloride; phases: Liquid
Fixed: Pressure, kPa = 101
Property: Specific heat capacity at constant pressure, J/K/kg (Liquid); method: heat flux microcalorimetry
Temperature, K	Amount concentration (molarity), mol/dm3 of tetraphenylphosphonium chloride	Specific heat capacity at constant pressure, J/K/kg	uncertainty
308.65	0	2554.5	51.1
311.65	0	2577	51.5
314.65	0	2621	52.4
308.65	0.005	2543.2	50.9
311.65	0.005	2564.1	51.3
314.65	0.005	2570.9	51.4
308.65	0.01	2548.5	51
311.65	0.01	2565.8	51.3
314.65	0.01	2605.9	52.1
308.65	0.02	2556.9	51.1
311.65	0.02	2582.9	51.7
314.65	0.02	2599.5	52
308.65	0.05	2605.5	52.1
311.65	0.05	2628.9	52.6
314.65	0.05	2637.3	52.7
308.65	0.1	2660.8	53.2
311.65	0.1	2691.7	53.8
314.65	0.1	2721.3	54.4

System: ethanol + tetraphenylphosphonium chloride; phases: Liquid
Fixed: Pressure, kPa = 101
Property: Mass density, kg/m3 (Liquid); method: VIBTUB:UFactor:16
Temperature, K	Amount concentration (molarity), mol/dm3 of tetraphenylphosphonium chloride	Mass density, kg/m3	uncertainty
308.65	0	775.93	1.93
311.65	0	773.4	1.94
314.65	0	770.84	1.96
308.65	0.005	777.31	1.92
311.65	0.005	775.32	1.93
314.65	0.005	772.48	1.95
308.65	0.01	778.02	1.92
311.65	0.01	775.16	1.93
314.65	0.01	772.21	1.95
308.65	0.02	778.83	1.91
311.65	0.02	776.11	1.93
314.65	0.02	773.38	1.94
308.65	0.05	784.24	1.88
311.65	0.05	781.91	1.89
314.65	0.05	779.58	1.91
308.65	0.1	791.62	1.84
311.65	0.1	789.98	1.85
314.65	0.1	787.77	1.86

System: ethanol + tetraphenylphosphonium chloride; phases: Liquid
Fixed: Pressure, kPa = 101
Property: Specific heat capacity at constant pressure, J/K/kg (Liquid); method: heat flux microcalorimetry
Temperature, K	Amount concentration (molarity), mol/dm3 of tetraphenylphosphonium chloride	Specific heat capacity at constant pressure, J/K/kg	uncertainty
308.65	0	2592.8	51.9
311.65	0	2653.8	53.1
314.65	0	2694.1	53.9
308.65	0.005	2520.9	50.4
311.65	0.005	2581.5	51.6
314.65	0.005	2627.1	52.5
308.65	0.01	2545.7	50.9
311.65	0.01	2600.7	52
314.65	0.01	2638.3	52.8
308.65	0.02	2549.3	51
311.65	0.02	2606.3	52.1
314.65	0.02	2650.8	53
308.65	0.05	2555.5	51.1
311.65	0.05	2607.1	52.1
314.65	0.05	2650	53
308.65	0.1	2570	51.4
311.65	0.1	2623	52.5
314.65	0.1	2633.7	52.7

System: acetonitrile + tetraphenylphosphonium chloride; phases: Liquid
Fixed: Pressure, kPa = 101
Property: Mass density, kg/m3 (Liquid); method: VIBTUB:UFactor:16
Temperature, K	Amount concentration (molarity), mol/dm3 of tetraphenylphosphonium chloride	Mass density, kg/m3	uncertainty
308.65	0	765.82	2.02
311.65	0	762.77	2.04
314.65	0	759.726	2.117
308.65	0.005	767.478	1.998
311.65	0.005	764.4	2.01
314.65	0.005	762.76	2.03
308.65	0.01	768.43	2
311.65	0.01	765.22	2.02
314.65	0.01	762.76	2.03
308.65	0.02	772.35	1.96
311.65	0.02	769.19	1.98
314.65	0.02	766.82	1.99
308.65	0.05	776.18	1.94
311.65	0.05	773.42	1.95
314.65	0.05	770.87	1.97
308.65	0.1	784.14	1.89
311.65	0.1	780.77	1.91
314.65	0.1	777.19	1.93

System: acetonitrile + tetraphenylphosphonium chloride; phases: Liquid
Fixed: Pressure, kPa = 101
Property: Specific heat capacity at constant pressure, J/K/kg (Liquid); method: heat flux microcalorimetry
Temperature, K	Amount concentration (molarity), mol/dm3 of tetraphenylphosphonium chloride	Specific heat capacity at constant pressure, J/K/kg	uncertainty
308.65	0	2274.3	45.49
311.65	0	2280.39	45.61
314.65	0	2286.48	45.73
308.65	0.005	2269.39	45.39
311.65	0.005	2275.54	45.51
314.65	0.005	2281.27	45.63
308.65	0.01	2269.12	45.38
311.65	0.01	2277	45.54
314.65	0.01	2282.56	45.65
308.65	0.02	2258.87	45.18
311.65	0.02	2267.78	45.36
314.65	0.02	2274.32	45.49
308.65	0.05	2255.33	45.11
311.65	0.05	2265.58	45.31
314.65	0.05	2267.51	45.35
308.65	0.1	2238.68	44.77
311.65	0.1	2250.58	45.01
314.65	0.1	2257.92	45.16

System: tetraphenylphosphonium chloride + water; phases: Liquid
Fixed: Pressure, kPa = 101
Property: Mass density, kg/m3 (Liquid); method: VIBTUB:UFactor:16
Temperature, K	Amount concentration (molarity), mol/dm3 of tetraphenylphosphonium chloride	Mass density, kg/m3	uncertainty
308.65	0	994.03	0.54
311.65	0	993.13	0.55
314.65	0	991.68	0.56
308.65	0.005	994.05	0.54
311.65	0.005	993.46	0.54
314.65	0.005	991.77	0.56
308.65	0.01	995.67	0.53
311.65	0.01	994.88	0.54
314.65	0.01	992.33	0.55
308.65	0.02	998.12	0.52
311.65	0.02	996.99	0.52
314.65	0.02	995.43	0.53
308.65	0.05	996.84	0.53
311.65	0.05	995.58	0.53
314.65	0.05	994.11	0.54
308.65	0.1	1001.06	0.52
311.65	0.1	997.28	0.53
314.65	0.1	995.93	0.53

System: tetraphenylphosphonium chloride + water; phases: Liquid
Fixed: Pressure, kPa = 101
Property: Specific heat capacity at constant pressure, J/K/kg (Liquid); method: heat flux microcalorimetry
Temperature, K	Amount concentration (molarity), mol/dm3 of tetraphenylphosphonium chloride	Specific heat capacity at constant pressure, J/K/kg	uncertainty
308.65	0	4182	83.6
311.65	0	4182.22	83.64
314.65	0	4182.39	83.65
308.65	0.005	4202.53	84.05
311.65	0.005	4203.58	84.07
314.65	0.005	4203.84	84.08
308.65	0.01	4203.55	84.07
311.65	0.01	4206.51	84.13
314.65	0.01	4208.43	84.17
308.65	0.02	4207.01	84.14
311.65	0.02	4209.77	84.2
314.65	0.02	4211.15	84.22
308.65	0.05	4217.33	84.35
311.65	0.05	4218.44	84.37
314.65	0.05	4219.72	84.39
308.65	0.1	4229.878	84.598
311.65	0.1	4241.92	84.84
314.65	0.1	4244.7	84.89
