Measured thermophysical data. Isobaric vapour liquid equilibria for binary mixtures of 1,2-dibromoethane with 1,2-dichloroethane, trichloromethane, and 1,1,2,2-tetrachloroethane at atmospheric pressure
Source: Fluid Phase Equilib., 2006, 10.1016/j.fluid.2005.10.020
Compound 1: 1,2-dibromoethane, C2H4Br2, InChI=1S/C2H4Br2/c3-1-2-4/h1-2H2, purity 99%
Compound 2: 1,2-dichloroethane, C2H4Cl2, InChI=1S/C2H4Cl2/c3-1-2-4/h1-2H2, purity 99.5%
Compound 3: trichloromethane, CHCl3, InChI=1S/CHCl3/c2-1(3)4/h1H, purity 99.8%
Compound 4: 1,1,2,2-tetrachloroethane, C2H2Cl4, InChI=1S/C2H2Cl4/c3-1(4)2(5)6/h1-2H, purity 99%

System: 1,2-dibromoethane; phases: Liquid
Property: Mass density, kg/m3 (Liquid); method: VIBTUB:UFactor:4
Temperature, K	Pressure, kPa	Mass density, kg/m3	uncertainty
293.2	101.325	2179.24	2.81

System: 1,2-dibromoethane; phases: Liquid, Gas
Property: Vapor or sublimation pressure, kPa (Liquid); method: EBULLIO:UFactor:16
Temperature, K	Vapor or sublimation pressure, kPa	uncertainty
404.4	101.37	2.05
404.7	101.48	2.05
404.7	101.47	2.05

System: 1,2-dichloroethane; phases: Liquid
Property: Mass density, kg/m3 (Liquid); method: VIBTUB:UFactor:2
Temperature, K	Pressure, kPa	Mass density, kg/m3	uncertainty
293.2	101.325	1252.15	0.47

System: 1,2-dichloroethane; phases: Liquid, Gas
Property: Vapor or sublimation pressure, kPa (Liquid); method: EBULLIO:UFactor:16
Temperature, K	Vapor or sublimation pressure, kPa	uncertainty
357	101.46	2.05

System: trichloromethane; phases: Liquid
Property: Mass density, kg/m3 (Liquid); method: VIBTUB:UFactor:2
Temperature, K	Pressure, kPa	Mass density, kg/m3	uncertainty
293.2	101.325	1483.02	5

System: trichloromethane; phases: Liquid, Gas
Property: Vapor or sublimation pressure, kPa (Liquid); method: EBULLIO:UFactor:16
Temperature, K	Vapor or sublimation pressure, kPa	uncertainty
334.7	101.53	2.05

System: 1,1,2,2-tetrachloroethane; phases: Liquid
Property: Mass density, kg/m3 (Liquid); method: VIBTUB:UFactor:4
Temperature, K	Pressure, kPa	Mass density, kg/m3	uncertainty
293.2	101.325	1594.57	1.6

System: 1,1,2,2-tetrachloroethane; phases: Liquid, Gas
Property: Vapor or sublimation pressure, kPa (Liquid); method: EBULLIO:UFactor:16
Temperature, K	Vapor or sublimation pressure, kPa	uncertainty
418.6	101.33	2.04

System: 1,2-dibromoethane + 1,2-dichloroethane; phases: Liquid, Gas
Property: Boiling temperature at pressure P, K (Liquid); method: EBULLIO:UFactor:16
Mole fraction of 1,2-dichloroethane	Pressure, kPa	Boiling temperature at pressure P, K	uncertainty
0	101.48	404.7	0.5
0.0254	101.48	402	0.5
0.0739	101.49	397.3	0.5
0.1188	101.5	393.5	0.5
0.1526	101.49	391	0.5
0.1893	101.48	388.1	0.5
0.2658	101.48	383.2	0.5
0.3053	101.47	381.1	0.5
0.3601	101.48	378.1	0.5
0.4516	101.48	374	0.5
0.4984	101.38	371.9	0.5
0.5915	101.37	368.4	0.5
0.6773	101.38	365.5	0.5
0.7361	101.4	363.9	0.5
0.8922	101.42	359.7	0.5
1	101.46	357	0.5

System: 1,2-dibromoethane + 1,2-dichloroethane; phases: Gas, Liquid
Property: Mole fraction of 1,2-dichloroethane (Gas); method: CHROM:UFactor:2
Mole fraction of 1,2-dichloroethane	Pressure, kPa	Mole fraction of 1,2-dichloroethane	uncertainty
0	101.48	0	0.0001
0.0254	101.48	0.0977	0.0018
0.0739	101.49	0.2502	0.0047
0.1188	101.5	0.361	0.0069
0.1526	101.49	0.4297	0.0083
0.1893	101.48	0.4962	0.0097
0.2658	101.48	0.6056	0.0078
0.3053	101.47	0.6507	0.0069
0.3601	101.48	0.7048	0.0059
0.4516	101.48	0.7761	0.0045
0.4984	101.38	0.8071	0.0039
0.5915	101.37	0.8575	0.0029
0.6773	101.38	0.8964	0.0021
0.7361	101.4	0.919	0.0016
0.8922	101.42	0.9699	0.0006
1	101.46	1	0.0001

System: trichloromethane + 1,2-dibromoethane; phases: Liquid, Gas
Property: Boiling temperature at pressure P, K (Liquid); method: EBULLIO:UFactor:16
Mole fraction of trichloromethane	Pressure, kPa	Boiling temperature at pressure P, K	uncertainty
0	101.47	404.7	0.5
0.0182	101.49	400.8	0.5
0.0453	101.51	395.7	0.5
0.0661	101.53	391.9	0.5
0.1035	101.54	385.9	0.5
0.1516	101.55	379.6	0.5
0.1884	101.54	375.5	0.5
0.2271	101.55	371.8	0.5
0.2804	101.54	367.2	0.5
0.3801	101.56	360	0.5
0.4267	101.47	357.2	0.5
0.4942	101.47	353.4	0.5
0.5932	101.48	348.6	0.5
0.6891	101.49	344.5	0.5
0.7398	101.49	342.7	0.5
0.8261	101.5	339.5	0.5
0.9147	101.51	336.8	0.5
1	101.53	334.7	0.5

System: trichloromethane + 1,2-dibromoethane; phases: Gas, Liquid
Property: Mole fraction of trichloromethane (Gas); method: CHROM:UFactor:2
Mole fraction of trichloromethane	Pressure, kPa	Mole fraction of trichloromethane	uncertainty
0	101.47	0	0.0001
0.0182	101.49	0.1219	0.0029
0.0453	101.51	0.2667	0.005
0.0661	101.53	0.354	0.0067
0.1035	101.54	0.4778	0.0091
0.1516	101.55	0.5921	0.0078
0.1884	101.54	0.6577	0.0066
0.2271	101.55	0.7108	0.0055
0.2804	101.54	0.7686	0.0045
0.3801	101.56	0.8427	0.0034
0.4267	101.47	0.8682	0.003
0.4942	101.47	0.8976	0.0027
0.5932	101.48	0.9302	0.0023
0.6891	101.49	0.954	0.0022
0.7398	101.49	0.9641	0.0021
0.8261	101.5	0.9786	0.002
0.9147	101.51	0.9906	0.002
1	101.53	1	0.0001

System: 1,1,2,2-tetrachloroethane + 1,2-dibromoethane; phases: Liquid, Gas
Property: Boiling temperature at pressure P, K (Liquid); method: EBULLIO:UFactor:16
Mole fraction of 1,2-dibromoethane	Pressure, kPa	Boiling temperature at pressure P, K	uncertainty
0	101.33	418.6	0.5
0.0437	101.32	417.9	0.5
0.1031	101.3	416.8	0.5
0.1435	101.3	416.1	0.5
0.2011	101.29	415.1	0.5
0.2472	101.29	414.4	0.5
0.292	101.4	414	0.5
0.3674	101.42	413	0.5
0.4442	101.43	411.8	0.5
0.5211	101.42	410.7	0.5
0.5822	101.42	409.9	0.5
0.6273	101.43	409.3	0.5
0.7382	101.41	407.8	0.5
0.822	101.42	406.8	0.5
0.8688	101.41	406.1	0.5
0.9684	101.39	404.9	0.5
1	101.37	404.4	0.5

System: 1,1,2,2-tetrachloroethane + 1,2-dibromoethane; phases: Gas, Liquid
Property: Mole fraction of 1,2-dibromoethane (Gas); method: CHROM:UFactor:2
Mole fraction of 1,2-dibromoethane	Pressure, kPa	Mole fraction of 1,2-dibromoethane	uncertainty
0	101.33	0	0.0001
0.0437	101.32	0.0646	0.0012
0.1031	101.3	0.1472	0.0028
0.1435	101.3	0.2008	0.0038
0.2011	101.29	0.2733	0.0052
0.2472	101.29	0.328	0.0063
0.292	101.4	0.3796	0.0074
0.3674	101.42	0.4622	0.0092
0.4442	101.43	0.5411	0.0094
0.5211	101.42	0.6159	0.008
0.5822	101.42	0.6717	0.007
0.6273	101.43	0.7119	0.0062
0.7382	101.41	0.8051	0.0044
0.822	101.42	0.8711	0.003
0.8688	101.41	0.9064	0.0022
0.9684	101.39	0.9782	0.0005
1	101.37	1	0.0001
