Measured thermophysical data. Comparative experimental and modeling studies of the viscosity behavior of ethanol +C7 hydrocarbon mixtures versus pressure and temperature
Source: Fluid Phase Equilib., 2006, 10.1016/j.fluid.2006.01.030
Compound 1: ethanol, C2H6O, InChI=1S/C2H6O/c1-2-3/h3H,2H2,1H3
Compound 2: heptane, C7H16, InChI=1S/C7H16/c1-3-5-7-6-4-2/h3-7H2,1-2H3

System: ethanol; phases: Liquid
Property: Viscosity, Pa*s (Liquid); method: Falling or rolling sphere viscometry
Temperature, K	Pressure, kPa	Viscosity, Pa*s	uncertainty
293.15	20000	0.001344	5.8e-05
293.15	40000	0.001494	6.5e-05
293.15	60000	0.001647	7.1e-05
293.15	80000	0.001797	7.7e-05
293.15	100000	0.001955	8.4e-05
313.15	20000	0.000948	4.2e-05
313.15	40000	0.001059	4.7e-05
313.15	60000	0.001171	5.2e-05
313.15	80000	0.001282	5.6e-05
313.15	100000	0.001392	6.1e-05
333.15	20000	0.000683	3e-05
333.15	40000	0.000769	3.4e-05
333.15	60000	0.000851	3.7e-05
333.15	80000	0.000934	4.1e-05
333.15	100000	0.001015	4.4e-05
353.15	20000	0.00051	2.2e-05
353.15	40000	0.000574	2.5e-05
353.15	60000	0.000636	2.8e-05
353.15	80000	0.000699	3.1e-05
353.15	100000	0.000763	3.3e-05

System: ethanol; phases: Liquid
Fixed: Pressure, kPa = 100
Property: Viscosity, Pa*s (Liquid); method: Capillary tube (Ostwald; Ubbelohde) method
Temperature, K	Viscosity, Pa*s	uncertainty
293.15	0.001194	2.5e-05
313.15	0.000826	1.7e-05
333.15	0.00059	1.3e-05

System: heptane; phases: Liquid
Property: Viscosity, Pa*s (Liquid); method: Falling or rolling sphere viscometry
Temperature, K	Pressure, kPa	Viscosity, Pa*s	uncertainty
293.15	20000	0.000509	2.1e-05
293.15	40000	0.000604	2.5e-05
293.15	60000	0.000706	3e-05
293.15	80000	0.000817	3.4e-05
293.15	100000	0.000937	3.9e-05
313.15	20000	0.000408	1.7e-05
313.15	40000	0.000487	2e-05
313.15	60000	0.00057	2.4e-05
313.15	80000	0.000658	2.8e-05
313.15	100000	0.000751	3.2e-05
333.15	20000	0.000336	1.4e-05
333.15	40000	0.000402	1.7e-05
333.15	60000	0.000472	2e-05
333.15	80000	0.000546	2.3e-05
333.15	100000	0.000623	2.6e-05
353.15	20000	0.000289	1.2e-05
353.15	40000	0.000346	1.4e-05
353.15	60000	0.000401	1.7e-05
353.15	80000	0.000458	1.9e-05
353.15	100000	0.000521	2.2e-05

System: heptane; phases: Liquid
Fixed: Pressure, kPa = 100
Property: Viscosity, Pa*s (Liquid); method: Capillary tube (Ostwald; Ubbelohde) method
Temperature, K	Viscosity, Pa*s	uncertainty
293.15	0.00041	9e-06
313.15	0.000333	7e-06
333.15	0.000276	6e-06
353.15	0.000232	5e-06

System: ethanol + heptane; phases: Liquid
Fixed: Pressure, kPa = 100
Property: Viscosity, Pa*s (Liquid); method: Capillary tube (Ostwald; Ubbelohde) method
Temperature, K	Mole fraction of ethanol	Viscosity, Pa*s	uncertainty
293.15	0	0.00041	9e-06
293.15	0.125	0.000419	9e-06
293.15	0.25	0.00045	1e-05
293.15	0.375	0.000494	1e-05
293.15	0.5	0.000556	1.2e-05
293.15	0.625	0.000644	1.4e-05
293.15	0.75	0.000757	1.6e-05
293.15	0.875	0.000931	2e-05
293.15	1	0.001194	2.5e-05
313.15	0	0.000333	7e-06
313.15	0.125	0.000336	7e-06
313.15	0.25	0.000354	8e-06
313.15	0.375	0.000383	8e-06
313.15	0.5	0.000421	9e-06
313.15	0.625	0.000475	1e-05
313.15	0.75	0.00055	1.2e-05
313.15	0.875	0.00066	1.4e-05
313.15	1	0.000826	1.7e-05
333.15	0	0.000276	6e-06
333.15	0.125	0.000274	6e-06
333.15	0.25	0.000282	6e-06
333.15	0.375	0.000299	6e-06
333.15	0.5	0.000325	7e-06
333.15	0.625	0.000361	8e-06
333.15	0.75	0.000409	9e-06
333.15	0.875	0.000484	1e-05
333.15	1	0.00059	1.3e-05
353.15	0	0.000232	5e-06

System: ethanol + heptane; phases: Liquid
Property: Viscosity, Pa*s (Liquid); method: Falling or rolling sphere viscometry
Temperature, K	Pressure, kPa	Mole fraction of ethanol	Viscosity, Pa*s	uncertainty
293.15	20000	0	0.000509	2.1e-05
293.15	20000	0.125	0.000518	2.2e-05
293.15	20000	0.25	0.000547	2.3e-05
293.15	20000	0.375	0.000597	2.5e-05
293.15	20000	0.5	0.000668	2.8e-05
293.15	20000	0.625	0.00076	3.3e-05
293.15	20000	0.75	0.000885	3.8e-05
293.15	20000	0.875	0.001052	4.6e-05
293.15	20000	1	0.001344	5.8e-05
293.15	40000	0	0.000604	2.5e-05
293.15	40000	0.125	0.000614	2.6e-05
293.15	40000	0.25	0.000648	2.7e-05
293.15	40000	0.375	0.000707	3e-05
293.15	40000	0.5	0.000787	3.3e-05
293.15	40000	0.625	0.000888	3.8e-05
293.15	40000	0.75	0.001023	4.4e-05
293.15	40000	0.875	0.0012	5.2e-05
293.15	40000	1	0.001494	6.5e-05
293.15	60000	0	0.000706	3e-05
293.15	60000	0.125	0.000718	3e-05
293.15	60000	0.25	0.000757	3.2e-05
293.15	60000	0.375	0.000824	3.5e-05
293.15	60000	0.5	0.000913	3.9e-05
293.15	60000	0.625	0.001022	4.4e-05
293.15	60000	0.75	0.001168	5e-05
293.15	60000	0.875	0.001354	5.8e-05
293.15	60000	1	0.001647	7.1e-05
293.15	80000	0	0.000817	3.4e-05
293.15	80000	0.125	0.000832	3.5e-05
293.15	80000	0.25	0.000875	3.7e-05
293.15	80000	0.375	0.000951	4e-05
293.15	80000	0.5	0.001047	4.4e-05
293.15	80000	0.625	0.001162	5e-05
293.15	80000	0.75	0.001316	5.6e-05
293.15	80000	0.875	0.001509	6.5e-05
293.15	80000	1	0.001797	7.7e-05
293.15	100000	0	0.000937	3.9e-05
293.15	100000	0.125	0.000953	4e-05
293.15	100000	0.25	0.001003	4.2e-05
293.15	100000	0.375	0.001087	4.6e-05
293.15	100000	0.5	0.001191	5.1e-05
293.15	100000	0.625	0.001312	5.6e-05
293.15	100000	0.75	0.001473	6.3e-05
293.15	100000	0.875	0.001674	7.2e-05
293.15	100000	1	0.001955	8.4e-05
313.15	20000	0	0.000408	1.7e-05
313.15	20000	0.125	0.000413	1.7e-05
313.15	20000	0.25	0.000429	1.8e-05
313.15	20000	0.375	0.000464	2e-05
313.15	20000	0.5	0.000508	2.2e-05
313.15	20000	0.625	0.000567	2.4e-05
313.15	20000	0.75	0.00065	2.8e-05
313.15	20000	0.875	0.000766	3.3e-05
313.15	20000	1	0.000948	4.2e-05
313.15	40000	0	0.000487	2e-05
313.15	40000	0.125	0.000495	2.1e-05
313.15	40000	0.25	0.000513	2.2e-05
313.15	40000	0.375	0.000553	2.4e-05
313.15	40000	0.5	0.000602	2.6e-05
313.15	40000	0.625	0.000666	2.9e-05
313.15	40000	0.75	0.000756	3.3e-05
313.15	40000	0.875	0.000877	3.8e-05
313.15	40000	1	0.001059	4.7e-05
313.15	60000	0	0.00057	2.4e-05
313.15	60000	0.125	0.000579	2.4e-05
313.15	60000	0.25	0.000599	2.5e-05
313.15	60000	0.375	0.000644	2.7e-05
313.15	60000	0.5	0.000699	3e-05
313.15	60000	0.625	0.000768	3.3e-05
313.15	60000	0.75	0.000864	3.7e-05
313.15	60000	0.875	0.000989	4.3e-05
313.15	60000	1	0.001171	5.2e-05
313.15	80000	0	0.000658	2.8e-05
313.15	80000	0.125	0.000666	2.8e-05
313.15	80000	0.25	0.00069	2.9e-05
313.15	80000	0.375	0.000739	3.1e-05
313.15	80000	0.5	0.0008	3.4e-05
313.15	80000	0.625	0.000874	3.8e-05
313.15	80000	0.75	0.000974	4.2e-05
313.15	80000	0.875	0.001102	4.8e-05
313.15	80000	1	0.001282	5.6e-05
313.15	100000	0	0.000751	3.2e-05
313.15	100000	0.125	0.000758	3.2e-05
313.15	100000	0.25	0.000786	3.3e-05
313.15	100000	0.375	0.000838	3.6e-05
313.15	100000	0.5	0.000906	3.9e-05
313.15	100000	0.625	0.000984	4.2e-05
313.15	100000	0.75	0.001088	4.7e-05
313.15	100000	0.875	0.001217	5.3e-05
313.15	100000	1	0.001392	6.1e-05
333.15	20000	0	0.000336	1.4e-05
333.15	20000	0.125	0.000332	1.4e-05
333.15	20000	0.25	0.000344	1.4e-05
333.15	20000	0.375	0.000364	1.5e-05
333.15	20000	0.5	0.000393	1.7e-05
333.15	20000	0.625	0.000435	1.9e-05
333.15	20000	0.75	0.000489	2.1e-05
333.15	20000	0.875	0.000565	2.5e-05
333.15	20000	1	0.000683	3e-05
333.15	40000	0	0.000402	1.7e-05
333.15	40000	0.125	0.0004	1.7e-05
333.15	40000	0.25	0.000414	1.7e-05
333.15	40000	0.375	0.000436	1.8e-05
333.15	40000	0.5	0.000469	2e-05
333.15	40000	0.625	0.000515	2.2e-05
333.15	40000	0.75	0.000571	2.5e-05
333.15	40000	0.875	0.000651	2.8e-05
333.15	40000	1	0.000769	3.4e-05
333.15	60000	0	0.000472	2e-05
333.15	60000	0.125	0.000471	2e-05
333.15	60000	0.25	0.000486	2e-05
333.15	60000	0.375	0.000511	2.2e-05
333.15	60000	0.5	0.000546	2.3e-05
333.15	60000	0.625	0.000595	2.5e-05
333.15	60000	0.75	0.000653	2.8e-05
333.15	60000	0.875	0.000734	3.2e-05
333.15	60000	1	0.000851	3.7e-05
333.15	80000	0	0.000546	2.3e-05
333.15	80000	0.125	0.000544	2.3e-05
333.15	80000	0.25	0.00056	2.4e-05
333.15	80000	0.375	0.000589	2.5e-05
333.15	80000	0.5	0.000623	2.6e-05
333.15	80000	0.625	0.000677	2.9e-05
333.15	80000	0.75	0.000735	3.2e-05
333.15	80000	0.875	0.000816	3.5e-05
333.15	80000	1	0.000934	4.1e-05
333.15	100000	0	0.000623	2.6e-05
333.15	100000	0.125	0.000621	2.6e-05
333.15	100000	0.25	0.000636	2.7e-05
333.15	100000	0.375	0.00067	2.8e-05
333.15	100000	0.5	0.000703	3e-05
333.15	100000	0.625	0.000761	3.2e-05
333.15	100000	0.75	0.000818	3.5e-05
333.15	100000	0.875	0.000898	3.9e-05
333.15	100000	1	0.001015	4.4e-05
353.15	20000	0	0.000289	1.2e-05
353.15	20000	0.125	0.000282	1.2e-05
353.15	20000	0.25	0.000286	1.2e-05
353.15	20000	0.375	0.000298	1.3e-05
353.15	20000	0.5	0.000316	1.3e-05
353.15	20000	0.625	0.000341	1.5e-05
353.15	20000	0.75	0.000374	1.6e-05
353.15	20000	0.875	0.000423	1.8e-05
353.15	20000	1	0.00051	2.2e-05
353.15	40000	0	0.000346	1.4e-05
353.15	40000	0.125	0.000337	1.4e-05
353.15	40000	0.25	0.000343	1.4e-05
353.15	40000	0.375	0.000357	1.5e-05
353.15	40000	0.5	0.000376	1.6e-05
353.15	40000	0.625	0.000403	1.7e-05
353.15	40000	0.75	0.000437	1.9e-05
353.15	40000	0.875	0.00049	2.1e-05
353.15	40000	1	0.000574	2.5e-05
353.15	60000	0	0.000401	1.7e-05
353.15	60000	0.125	0.000394	1.6e-05
353.15	60000	0.25	0.000401	1.7e-05
353.15	60000	0.375	0.000412	1.7e-05
353.15	60000	0.5	0.000434	1.8e-05
353.15	60000	0.625	0.000464	2e-05
353.15	60000	0.75	0.000501	2.2e-05
353.15	60000	0.875	0.000556	2.4e-05
353.15	60000	1	0.000636	2.8e-05
353.15	80000	0	0.000458	1.9e-05
353.15	80000	0.125	0.00045	1.9e-05
353.15	80000	0.25	0.000458	1.9e-05
353.15	80000	0.375	0.000475	2e-05
353.15	80000	0.5	0.000499	2.1e-05
353.15	80000	0.625	0.00053	2.3e-05
353.15	80000	0.75	0.000565	2.4e-05
353.15	80000	0.875	0.000622	2.7e-05
353.15	80000	1	0.000699	3.1e-05
353.15	100000	0	0.000521	2.2e-05
353.15	100000	0.125	0.000513	2.2e-05
353.15	100000	0.25	0.000522	2.2e-05
353.15	100000	0.375	0.000539	2.3e-05
353.15	100000	0.5	0.000565	2.4e-05
353.15	100000	0.625	0.000599	2.6e-05
353.15	100000	0.75	0.000631	2.7e-05
353.15	100000	0.875	0.00069	3e-05
353.15	100000	1	0.000763	3.3e-05
