Measured thermophysical data. Micellization properties and related thermodynamic parameters ofaqueous sodium dodecyl sulfate and sodium dodecyl sulfonatesolutions in the presence of 1-propanol
Source: Fluid Phase Equilib., 2014, 10.1016/j.fluid.2014.06.009
Compound 1: water, H2O, InChI=1S/H2O/h1H2, purity 99.8%
Compound 2: propan-1-ol, C3H8O, InChI=1S/C3H8O/c1-2-3-4/h4H,2-3H2,1H3, purity 99.8%
Compound 3: sodium dodecyl sulfate, C12H25NaO4S, InChI=1S/C12H26O4S.Na/c1-2-3-4-5-6-7-8-9-10-11-12-16-17(13,14)15;/h2-12H2,1H3,(H,13,14,15);/q;+1/p-1, purity 98%
Compound 4: sodium dodecane-1-sulfonate, C12H25NaO3S, InChI=1S/C12H26O3S.Na/c1-2-3-4-5-6-7-8-9-10-11-12-16(13,14)15;/h2-12H2,1H3,(H,13,14,15);/q;+1/p-1, purity 99%

System: propan-1-ol + sodium dodecyl sulfate + water; phases: Liquid
Fixed: Pressure, kPa = 101
Fixed: Temperature, K = 298.15
Property: Electrical conductivity, S/m (Liquid); method: Alternating current cell with electrodes
Solvent: Mass fraction of propan-1-ol	Molality, mol/kg of sodium dodecyl sulfate	Electrical conductivity, S/m	uncertainty
0	0.00018	0.001447	1e-06
0	0.00045	0.003433	1e-06
0	0.00091	0.006697	1e-06
0	0.00139	0.01006	1e-05
0	0.00166	0.0119	1e-05
0	0.00193	0.01378	1e-05
0	0.0022	0.01564	1e-05
0	0.00254	0.01814	1e-05
0	0.00281	0.01999	1e-05
0	0.00316	0.02244	1e-05
0	0.00344	0.02434	1e-05
0	0.00384	0.02712	1e-05
0	0.00411	0.02896	1e-05
0	0.00449	0.03151	1e-05
0	0.00481	0.03369	1e-05
0	0.00507	0.03548	1e-05
0	0.00538	0.03753	1e-05
0	0.00564	0.03931	1e-05
0	0.00594	0.04131	1e-05
0	0.00629	0.04366	1e-05
0	0.00652	0.0452	1e-05
0	0.00679	0.047	1e-05
0	0.00704	0.04874	1e-05
0	0.0073	0.0504	1e-05
0	0.00757	0.05202	1e-05
0	0.00783	0.05353	1e-05
0	0.00807	0.05471	1e-05
0	0.00855	0.05656	1e-05
0	0.0088	0.05737	1e-05
0	0.00905	0.05814	1e-05
0	0.00939	0.05912	1e-05
0	0.00963	0.05977	1e-05
0	0.00988	0.06043	1e-05
0	0.01013	0.06112	1e-05
0	0.0105	0.06206	1e-05
0	0.01074	0.06269	1e-05
0	0.01111	0.06378	1e-05
0	0.01137	0.06444	1e-05
0	0.01164	0.06508	1e-05
0	0.01188	0.06575	1e-05
0.025	0.00065	0.004556	1e-06
0.025	0.00072	0.005113	1e-06
0.025	0.0009	0.00628	1e-06
0.025	0.00107	0.007449	1e-06
0.025	0.00124	0.00856	1e-06
0.025	0.00143	0.009738	1e-06
0.025	0.0016	0.01087	1e-05
0.025	0.00176	0.01189	1e-05
0.025	0.00196	0.01317	1e-05
0.025	0.00214	0.01435	1e-05
0.025	0.00232	0.01551	1e-05
0.025	0.00263	0.0178	1e-05
0.025	0.0028	0.0189	1e-05
0.025	0.00298	0.02006	1e-05
0.025	0.00316	0.02124	1e-05
0.025	0.00334	0.02244	1e-05
0.025	0.00353	0.02366	1e-05
0.025	0.00371	0.02483	1e-05
0.025	0.0039	0.02603	1e-05
0.025	0.00407	0.02715	1e-05
0.025	0.00424	0.02824	1e-05
0.025	0.00441	0.02934	1e-05
0.025	0.00459	0.03045	1e-05
0.025	0.00488	0.03235	1e-05
0.025	0.00514	0.03397	1e-05
0.025	0.00545	0.03577	1e-05
0.025	0.00572	0.03716	1e-05
0.025	0.00598	0.03839	1e-05
0.025	0.00625	0.03955	1e-05
0.025	0.00659	0.04095	1e-05
0.025	0.00691	0.04228	1e-05
0.025	0.00736	0.04399	1e-05
0.025	0.00789	0.04592	1e-05
0.025	0.0085	0.04809	1e-05
0.025	0.00918	0.05047	1e-05
0.025	0.01006	0.05346	1e-05
0.025	0.01098	0.05663	1e-05
0.025	0.01199	0.06003	1e-05
0.025	0.01311	0.06381	1e-05
0.025	0.01419	0.06737	1e-05
0.025	0.01543	0.07143	1e-05
0.025	0.01704	0.07668	1e-05
0.025	0.01885	0.08254	1e-05
0.025	0.0219	0.09227	1e-05
0.05	0.00032	0.002351	1e-06
0.05	0.00063	0.004274	1e-06
0.05	0.00097	0.006392	1e-06
0.05	0.0013	0.008288	1e-06
0.05	0.00155	0.009768	1e-06
0.05	0.00187	0.01173	1e-05
0.05	0.00221	0.01372	1e-05
0.05	0.00251	0.01553	1e-05
0.05	0.00285	0.01769	1e-05
0.05	0.0032	0.01973	1e-05
0.05	0.00355	0.02173	1e-05
0.05	0.0039	0.0238	1e-05
0.05	0.0042	0.02558	1e-05
0.05	0.00469	0.02822	1e-05
0.05	0.00523	0.03081	1e-05
0.05	0.0058	0.03351	1e-05
0.05	0.00643	0.03619	1e-05
0.05	0.00695	0.03847	1e-05
0.05	0.00753	0.04102	1e-05
0.05	0.00821	0.04391	1e-05
0.05	0.00898	0.04711	1e-05
0.05	0.00972	0.05015	1e-05
0.05	0.0106	0.05361	1e-05
0.05	0.01156	0.05732	1e-05
0.05	0.01242	0.06058	1e-05
0.05	0.01345	0.06442	1e-05
0.05	0.01448	0.06822	1e-05
0.05	0.01541	0.0716	1e-05
0.05	0.01651	0.07551	1e-05
0.05	0.01772	0.07978	1e-05
0.05	0.01917	0.08478	1e-05
0.05	0.02052	0.08944	1e-05
0.05	0.0218	0.09399	1e-05
0.075	0.00092	0.005353	1e-06
0.075	0.00104	0.006091	1e-06
0.075	0.00114	0.00667	1e-06
0.075	0.00135	0.00782	1e-06
0.075	0.00158	0.009043	1e-06
0.075	0.00181	0.01031	1e-05
0.075	0.002	0.0114	1e-05
0.075	0.00223	0.01271	1e-05
0.075	0.00241	0.01371	1e-05
0.075	0.00261	0.01488	1e-05
0.075	0.00281	0.01601	1e-05
0.075	0.003	0.01707	1e-05
0.075	0.00343	0.0197	1e-05
0.075	0.00363	0.02092	1e-05
0.075	0.00383	0.02206	1e-05
0.075	0.00406	0.02332	1e-05
0.075	0.00439	0.02506	1e-05
0.075	0.0046	0.02621	1e-05
0.075	0.00483	0.02741	1e-05
0.075	0.00504	0.02852	1e-05
0.075	0.0053	0.02992	1e-05
0.075	0.00547	0.0308	1e-05
0.075	0.00581	0.03249	1e-05
0.075	0.00615	0.03429	1e-05
0.075	0.00642	0.03562	1e-05
0.075	0.00681	0.03751	1e-05
0.075	0.00732	0.03991	1e-05
0.075	0.00817	0.04384	1e-05
0.075	0.00897	0.0474	1e-05
0.075	0.01009	0.05233	1e-05
0.075	0.0114	0.05791	1e-05
0.075	0.01334	0.06598	1e-05
0.075	0.01498	0.07256	1e-05
0.075	0.01685	0.08026	1e-05
0.075	0.02052	0.0949	1e-05
0.075	0.00092	0.1152	0.0001
0.075	0.00104	0.1326	0.0001
0.075	0.00114	0.1573	0.0001
0.1	0.00019	0.001146	1e-06
0.1	0.00032	0.001816	1e-06
0.1	0.00046	0.002513	1e-06
0.1	0.00069	0.00361	1e-06
0.1	0.00094	0.004833	1e-06
0.1	0.00132	0.006687	1e-06
0.1	0.0016	0.008058	1e-06
0.1	0.00181	0.009172	1e-06
0.1	0.00204	0.01037	1e-05
0.1	0.00227	0.01158	1e-05
0.1	0.00253	0.01284	1e-05
0.1	0.00276	0.01406	1e-05
0.1	0.00299	0.01532	1e-05
0.1	0.00321	0.01642	1e-05
0.1	0.00343	0.01789	1e-05
0.1	0.00368	0.01912	1e-05
0.1	0.0039	0.02014	1e-05
0.1	0.00417	0.02152	1e-05
0.1	0.0046	0.02363	1e-05
0.1	0.00516	0.02631	1e-05
0.1	0.00567	0.02872	1e-05
0.1	0.00632	0.03172	1e-05
0.1	0.00711	0.03523	1e-05
0.1	0.00793	0.03883	1e-05
0.1	0.00918	0.04421	1e-05
0.1	0.01085	0.05126	1e-05
0.1	0.01276	0.05904	1e-05
0.1	0.01511	0.06827	1e-05
0.1	0.01795	0.07925	1e-05
0.1	0.02123	0.0917	1e-05
0.1	0.02493	0.1053	0.0001

System: propan-1-ol + sodium dodecyl sulfate + water; phases: Liquid
Fixed: Pressure, kPa = 101
Fixed: Temperature, K = 298.15
Property: Mass density, kg/m3 (Liquid); method: Vibrating tube method
Solvent: Mass fraction of propan-1-ol	Molality, mol/kg of sodium dodecyl sulfate	Mass density, kg/m3	uncertainty
0	0.00299	997.195	0.183
0	0.004	997.244	0.183
0	0.00496	997.292	0.184
0	0.00629	997.36	0.183
0	0.00731	997.405	0.183
0	0.00798	997.439	0.182
0	0.00898	997.477	0.182
0	0.00998	997.525	0.183
0	0.01501	997.719	0.181
0	0.01994	997.912	0.181
0	0.02498	998.108	0.181
0	0.02992	998.297	0.181
0	0.03502	998.493	0.181
0	0.03997	998.679	0.181
0	0.04499	998.875	0.181
0	0.05001	999.061	0.18
0	0.05991	999.438	0.18
0	0.06992	999.816	0.18
0	0.08	1000.204	0.18
0	0.0899	1000.571	0.181
0	0.09996	1000.974	0.181
0.025	0.00278	993.092	0.177
0.025	0.00347	993.126	0.177
0.025	0.00521	993.223	0.186
0.025	0.00625	993.265	0.191
0.025	0.00727	993.3	0.181
0.025	0.00799	993.343	0.197
0.025	0.00869	993.34	0.249
0.025	0.01391	993.557	0.183
0.025	0.01742	993.678	0.179
0.025	0.02093	993.804	0.18
0.025	0.02785	994.064	0.182
0.025	0.03495	994.34	0.18
0.025	0.04901	994.863	0.181
0.025	0.05976	995.265	0.181
0.025	0.07429	995.839	0.181
0.025	0.0853	996.227	0.181
0.025	0.09624	996.671	0.185
0.05	0.00208	989.327	0.18
0.05	0.00313	989.39	0.191
0.05	0.00452	989.486	0.194
0.05	0.00521	989.522	0.178
0.05	0.00695	989.549	0.177
0.05	0.0087	989.556	0.18
0.05	0.01045	989.639	0.179
0.05	0.01217	989.694	0.185
0.05	0.01393	989.761	0.18
0.05	0.01743	989.895	0.182
0.05	0.02092	990.039	0.181
0.05	0.02796	990.273	0.181
0.05	0.03502	990.526	0.18
0.05	0.04203	990.76	0.18
0.05	0.04924	990.994	0.18
0.05	0.06003	991.407	0.182
0.05	0.07061	991.882	0.181
0.05	0.0816	992.238	0.18
0.05	0.08882	992.465	0.18
0.075	0.00139	985.732	0.208
0.075	0.00208	985.79	0.184
0.075	0.00278	985.812	0.178
0.075	0.00347	985.834	0.18
0.075	0.00417	985.844	0.187
0.075	0.00486	985.903	0.182
0.075	0.0059	985.92	0.178
0.075	0.008	985.959	0.181
0.075	0.00905	986.029	0.184
0.075	0.01031	986.068	0.18
0.075	0.01214	986.116	0.181
0.075	0.01391	986.192	0.182
0.075	0.01743	986.308	0.18
0.075	0.02094	986.375	0.181
0.075	0.03149	986.777	0.181
0.075	0.04566	987.222	0.181
0.075	0.05636	987.637	0.182
0.075	0.07082	988.191	0.181
0.1	0.00173	982.3	0.178
0.1	0.00417	982.324	0.179
0.1	0.00521	982.369	0.181
0.1	0.00624	982.388	0.18
0.1	0.00726	982.415	0.179
0.1	0.00799	982.422	0.179
0.1	0.00868	982.443	0.18
0.1	0.01043	982.487	0.18
0.1	0.01218	982.521	0.18
0.1	0.01392	982.568	0.181
0.1	0.01741	982.681	0.182
0.1	0.02091	982.832	0.181
0.1	0.02797	983.047	0.18
0.1	0.03474	983.212	0.18
0.1	0.04208	983.444	0.182
0.1	0.04922	983.752	0.182
0.1	0.05946	984.083	0.181
0.1	0.07445	984.555	0.18
0.1	0.08496	984.833	0.18
0.1	0.09571	985.175	0.181

System: propan-1-ol + sodium dodecyl sulfate + water; phases: Liquid
Fixed: Pressure, kPa = 101
Fixed: Temperature, K = 298.15
Property: Speed of sound, m/s (Liquid); method: Sing-around technique in a fixed-path interferometer
Solvent: Mass fraction of propan-1-ol	Molality, mol/kg of sodium dodecyl sulfate	Speed of sound, m/s	uncertainty
0	0.00299	1497.46	1.45
0	0.004	1497.75	1.45
0	0.00496	1497.98	1.45
0	0.00629	1498.29	1.45
0	0.00731	1498.48	1.45
0	0.00798	1498.63	1.45
0	0.00898	1498.72	1.45
0	0.00998	1498.74	1.45
0	0.01501	1498.71	1.45
0	0.01994	1498.53	1.45
0	0.02498	1498.52	1.45
0	0.02992	1498.5	1.45
0	0.03502	1498.47	1.45
0	0.03997	1498.43	1.45
0	0.04499	1498.38	1.45
0	0.05001	1498.33	1.45
0	0.05991	1498.3	1.45
0	0.06992	1498.23	1.45
0	0.08	1498.16	1.45
0	0.0899	1498.14	1.45
0	0.09996	1498.1	1.45
0.025	0.00278	1518.18	1.45
0.025	0.00347	1518.31	1.45
0.025	0.00521	1518.58	1.45
0.025	0.00625	1518.62	1.45
0.025	0.00727	1518.59	1.45
0.025	0.00799	1518.48	1.45
0.025	0.00869	1518.45	1.45
0.025	0.01391	1518.06	1.45
0.025	0.01742	1517.85	1.45
0.025	0.02093	1517.65	1.45
0.025	0.02785	1517.22	1.45
0.025	0.03495	1516.72	1.51
0.025	0.04901	1516.01	1.45
0.025	0.05976	1515.3	1.45
0.025	0.07429	1514.53	1.45
0.025	0.0853	1514.12	1.45
0.025	0.09624	1513.53	1.45
0.05	0.00208	1537.77	1.46
0.05	0.00313	1537.81	1.46
0.05	0.00452	1537.73	1.46
0.05	0.00521	1537.58	1.46
0.05	0.00695	1537.5	1.46
0.05	0.0087	1537.45	1.46
0.05	0.01045	1537.12	1.46
0.05	0.01217	1536.88	1.46
0.05	0.01393	1536.69	1.46
0.05	0.01743	1536.09	1.46
0.05	0.02092	1535.65	1.46
0.05	0.02796	1534.93	1.46
0.05	0.03502	1534.22	1.46
0.05	0.04203	1533.55	1.46
0.05	0.04924	1532.9	1.46
0.05	0.06003	1531.84	1.46
0.05	0.07061	1530.5	1.45
0.05	0.0816	1529.55	1.45
0.05	0.08882	1529.12	1.45
0.075	0.00139	1556.84	1.46
0.075	0.00208	1556.7	1.46
0.075	0.00278	1556.65	1.46
0.075	0.00347	1556.54	1.46
0.075	0.00417	1556.44	1.46
0.075	0.00486	1556.1	1.46
0.075	0.0059	1555.97	1.46
0.075	0.008	1555.64	1.46
0.075	0.00905	1555.28	1.46
0.075	0.01031	1554.94	1.46
0.075	0.01214	1554.64	1.46
0.075	0.01391	1554.22	1.46
0.075	0.01743	1553.58	1.46
0.075	0.02094	1553.17	1.46
0.075	0.03149	1551.2	1.46
0.075	0.04566	1549.19	1.46
0.075	0.05636	1547.49	1.46
0.075	0.07082	1545.33	1.46
0.1	0.00173	1573.96	1.46
0.1	0.00417	1573.43	1.46
0.1	0.00521	1572.9	1.46
0.1	0.00624	1572.62	1.46
0.1	0.00726	1572.31	1.46
0.1	0.00799	1572.13	1.46
0.1	0.00868	1571.97	1.46
0.1	0.01043	1571.51	1.46
0.1	0.01218	1571.07	1.46
0.1	0.01392	1570.67	1.46
0.1	0.01741	1569.74	1.46
0.1	0.02091	1568.75	1.46
0.1	0.02797	1567.14	1.46
0.1	0.03474	1565.86	1.46
0.1	0.04208	1564.34	1.46
0.1	0.04922	1562.68	1.46
0.1	0.05946	1560.78	1.46
0.1	0.07445	1558.24	1.46
0.1	0.08496	1556.82	1.46
0.1	0.09571	1555.16	1.46

System: propan-1-ol + sodium dodecane-1-sulfonate + water; phases: Liquid
Fixed: Pressure, kPa = 101
Fixed: Temperature, K = 298.15
Property: Electrical conductivity, S/m (Liquid); method: Alternating current cell with electrodes
Solvent: Mass fraction of propan-1-ol	Molality, mol/kg of sodium dodecane-1-sulfonate	Electrical conductivity, S/m	uncertainty
0	0.0001	0.0009007	4e-07
0	0.00041	0.003149	1e-06
0	0.00063	0.004731	1e-06
0	0.0009	0.00672	1e-06
0	0.00117	0.008592	1e-06
0	0.00162	0.0118	1e-05
0	0.00204	0.0148	1e-05
0	0.00229	0.01648	1e-05
0	0.00257	0.01851	1e-05
0	0.00281	0.02024	1e-05
0	0.0031	0.02212	1e-05
0	0.00336	0.02399	1e-05
0	0.00355	0.0254	1e-05
0	0.00379	0.02705	1e-05
0	0.00401	0.02867	1e-05
0	0.00432	0.03084	1e-05
0	0.00454	0.03248	1e-05
0	0.00478	0.03413	1e-05
0	0.00498	0.03551	1e-05
0	0.00551	0.03932	1e-05
0	0.00601	0.04268	1e-05
0	0.00622	0.04425	1e-05
0	0.00642	0.04566	1e-05
0	0.00665	0.04726	1e-05
0	0.00688	0.04883	1e-05
0	0.00706	0.05025	1e-05
0	0.0073	0.05186	1e-05
0	0.00751	0.05336	1e-05
0	0.00772	0.0549	1e-05
0	0.00795	0.05659	1e-05
0	0.00821	0.05837	1e-05
0	0.00843	0.05993	1e-05
0	0.00864	0.06137	1e-05
0	0.00886	0.06289	1e-05
0	0.00906	0.06432	1e-05
0	0.00928	0.06575	1e-05
0	0.00949	0.06702	1e-05
0	0.00983	0.06891	1e-05
0	0.01008	0.0701	1e-05
0	0.01032	0.0711	1e-05
0	0.01051	0.0718	1e-05
0	0.01071	0.07249	1e-05
0	0.01094	0.07323	1e-05
0	0.01115	0.07387	1e-05
0	0.01141	0.07465	1e-05
0	0.01164	0.07531	1e-05
0	0.01182	0.07584	1e-05
0	0.01202	0.07638	1e-05
0	0.01223	0.07694	1e-05
0	0.01242	0.07748	1e-05
0	0.01262	0.07796	1e-05
0	0.01281	0.07859	1e-05
0	0.01301	0.07918	1e-05
0	0.01318	0.07969	1e-05
0	0.01337	0.08027	1e-05
0	0.0136	0.08084	1e-05
0.025	0.00077	0.005062	1e-06
0.025	0.00118	0.007543	1e-06
0.025	0.00131	0.008348	1e-06
0.025	0.00145	0.009163	1e-06
0.025	0.00181	0.01133	1e-05
0.025	0.00227	0.01409	1e-05
0.025	0.00273	0.01673	1e-05
0.025	0.00301	0.01858	1e-05
0.025	0.00338	0.02075	1e-05
0.025	0.00382	0.02331	1e-05
0.025	0.00418	0.02543	1e-05
0.025	0.00447	0.02716	1e-05
0.025	0.0048	0.02909	1e-05
0.025	0.00513	0.03101	1e-05
0.025	0.00549	0.03305	1e-05
0.025	0.00587	0.03534	1e-05
0.025	0.00641	0.03856	1e-05
0.025	0.00673	0.04036	1e-05
0.025	0.00724	0.04312	1e-05
0.025	0.00756	0.04471	1e-05
0.025	0.00795	0.04648	1e-05
0.025	0.0085	0.04866	1e-05
0.025	0.00886	0.05002	1e-05
0.025	0.0095	0.05223	1e-05
0.025	0.0106	0.05584	1e-05
0.025	0.01221	0.06085	1e-05
0.025	0.01445	0.06767	1e-05
0.025	0.01724	0.07617	1e-05
0.025	0.02148	0.08937	1e-05
0.025	0.02447	0.09775	1e-05
0.05	0.0001	0.0007926	4e-07
0.05	0.00022	0.001512	1e-06
0.05	0.00034	0.002274	1e-06
0.05	0.00049	0.003089	1e-06
0.05	0.0006	0.003771	1e-06
0.05	0.00085	0.005226	1e-06
0.05	0.00137	0.008307	1e-06
0.05	0.00159	0.009574	1e-06
0.05	0.00184	0.01098	1e-05
0.05	0.00207	0.01231	1e-05
0.05	0.0023	0.01363	1e-05
0.05	0.00254	0.01504	1e-05
0.05	0.00275	0.01626	1e-05
0.05	0.00297	0.01778	1e-05
0.05	0.00318	0.01904	1e-05
0.05	0.00341	0.02038	1e-05
0.05	0.00365	0.0217	1e-05
0.05	0.00388	0.02305	1e-05
0.05	0.00411	0.02435	1e-05
0.05	0.00433	0.02583	1e-05
0.05	0.00457	0.02722	1e-05
0.05	0.00493	0.02932	1e-05
0.05	0.00514	0.03049	1e-05
0.05	0.00572	0.03347	1e-05
0.05	0.00605	0.03512	1e-05
0.05	0.00639	0.03678	1e-05
0.05	0.00684	0.03887	1e-05
0.05	0.00718	0.04048	1e-05
0.05	0.00754	0.04206	1e-05
0.05	0.00802	0.04413	1e-05
0.05	0.00836	0.04566	1e-05
0.05	0.0091	0.04883	1e-05
0.05	0.00989	0.0521	1e-05
0.05	0.01076	0.05569	1e-05
0.05	0.01172	0.05951	1e-05
0.05	0.01286	0.06409	1e-05
0.05	0.01432	0.06973	1e-05
0.05	0.01567	0.07484	1e-05
0.05	0.01708	0.08013	1e-05
0.05	0.01856	0.08556	1e-05
0.05	0.02011	0.09116	1e-05
0.05	0.02219	0.09853	1e-05
0.075	0.00023	0.00149	1e-06
0.075	0.00043	0.002568	1e-06
0.075	0.00073	0.004181	1e-06
0.075	0.00105	0.005857	1e-06
0.075	0.00138	0.007561	1e-06
0.075	0.00168	0.009154	1e-06
0.075	0.00201	0.01085	1e-05
0.075	0.00238	0.01281	1e-05
0.075	0.00272	0.01457	1e-05
0.075	0.00304	0.01626	1e-05
0.075	0.00338	0.01818	1e-05
0.075	0.00371	0.01997	1e-05
0.075	0.00406	0.02177	1e-05
0.075	0.00437	0.02344	1e-05
0.075	0.00469	0.02506	1e-05
0.075	0.00501	0.02672	1e-05
0.075	0.00536	0.02845	1e-05
0.075	0.00568	0.03006	1e-05
0.075	0.00611	0.03222	1e-05
0.075	0.00663	0.03467	1e-05
0.075	0.00726	0.0376	1e-05
0.075	0.00801	0.04096	1e-05
0.075	0.00907	0.04573	1e-05
0.075	0.01065	0.05258	1e-05
0.075	0.01268	0.06096	1e-05
0.075	0.01524	0.07101	1e-05
0.075	0.01819	0.08221	1e-05
0.075	0.0214	0.09405	1e-05
0.075	0.02487	0.1067	0.0001
0.075	0.03228	0.1324	0.0001
0.1	0.00019	0.001018	1e-06
0.1	0.00037	0.001957	1e-06
0.1	0.00066	0.003348	1e-06
0.1	0.00094	0.00468	1e-06
0.1	0.00123	0.006046	1e-06
0.1	0.0015	0.007326	1e-06
0.1	0.00178	0.008662	1e-06
0.1	0.00206	0.01003	1e-05
0.1	0.00235	0.01153	1e-05
0.1	0.00265	0.01296	1e-05
0.1	0.00292	0.01433	1e-05
0.1	0.00319	0.01563	1e-05
0.1	0.0035	0.0173	1e-05
0.1	0.00379	0.01871	1e-05
0.1	0.00407	0.02013	1e-05
0.1	0.00434	0.02147	1e-05
0.1	0.00462	0.02287	1e-05
0.1	0.00493	0.02431	1e-05
0.1	0.00524	0.02578	1e-05
0.1	0.00556	0.02727	1e-05
0.1	0.00585	0.0286	1e-05
0.1	0.00615	0.03002	1e-05
0.1	0.00653	0.03178	1e-05
0.1	0.0075	0.03607	1e-05
0.1	0.00899	0.04265	1e-05
0.1	0.01101	0.05111	1e-05
0.1	0.01342	0.06081	1e-05
0.1	0.01618	0.07158	1e-05
0.1	0.01944	0.08422	1e-05
0.1	0.0232	0.09857	1e-05
0.1	0.02744	0.1144	0.0001
0.1	0.03142	0.129	0.0001

System: propan-1-ol + sodium dodecane-1-sulfonate + water; phases: Liquid
Fixed: Pressure, kPa = 101
Fixed: Temperature, K = 298.15
Property: Mass density, kg/m3 (Liquid); method: Vibrating tube method
Solvent: Mass fraction of propan-1-ol	Molality, mol/kg of sodium dodecane-1-sulfonate	Mass density, kg/m3	uncertainty
0	0.00218	997.144	0.132
0	0.00351	997.208	0.132
0	0.00539	997.292	0.131
0	0.00608	997.325	0.132
0	0.0065	997.344	0.132
0	0.0073	997.382	0.132
0	0.00803	997.418	0.133
0	0.00848	997.441	0.132
0	0.00872	997.451	0.13
0	0.00985	997.507	0.129
0	0.01009	997.516	0.128
0	0.01056	997.531	0.129
0	0.01116	997.556	0.128
0	0.01123	997.554	0.129
0	0.01256	997.604	0.129
0	0.01391	997.656	0.128
0	0.01443	997.665	0.127
0	0.01572	997.713	0.129
0	0.01744	997.778	0.128
0	0.02224	997.945	0.128
0	0.02451	998.026	0.128
0	0.02898	998.176	0.128
0	0.03308	998.319	0.128
0	0.0377	998.481	0.128
0	0.04249	998.642	0.128
0	0.04999	998.906	0.128
0.025	0.0022	993.09	0.124
0.025	0.00341	993.158	0.138
0.025	0.00442	993.198	0.124
0.025	0.0051	993.227	0.13
0.025	0.00768	993.347	0.134
0.025	0.00774	993.345	0.134
0.025	0.00919	993.407	0.126
0.025	0.01104	993.454	0.128
0.025	0.01289	993.519	0.129
0.025	0.01473	993.598	0.127
0.025	0.01842	993.71	0.126
0.025	0.02207	993.785	0.127
0.025	0.02963	994.058	0.128
0.025	0.03707	994.3	0.128
0.025	0.04252	994.445	0.127
0.025	0.05031	994.687	0.127
0.025	0.06325	995.123	0.128
0.025	0.0782	995.619	0.128
0.025	0.09054	996.081	0.127
0.025	0.10199	996.35	0.126
0.05	0.00147	989.199	0.136
0.05	0.0022	989.239	0.137
0.05	0.00294	989.286	0.159
0.05	0.00367	989.32	0.126
0.05	0.00441	989.365	0.126
0.05	0.00552	989.389	0.127
0.05	0.00662	989.45	0.149
0.05	0.00773	989.49	0.135
0.05	0.00882	989.518	0.126
0.05	0.00957	989.516	0.126
0.05	0.01105	989.56	0.124
0.05	0.01287	989.624	0.129
0.05	0.01474	989.684	0.126
0.05	0.01845	989.789	0.128
0.05	0.02216	989.916	0.127
0.05	0.02962	990.148	0.128
0.05	0.03708	990.376	0.129
0.05	0.04463	990.65	0.133
0.075	0.00073	985.66	0.17
0.075	0.0011	985.686	0.178
0.075	0.00147	985.757	0.156
0.075	0.0022	985.798	0.126
0.075	0.00294	985.785	0.127
0.075	0.00441	985.848	0.128
0.075	0.00552	985.859	0.126
0.075	0.00662	985.899	0.128
0.075	0.00834	985.936	0.133
0.075	0.00939	986.029	0.129
0.075	0.01287	986.099	0.129
0.075	0.01474	986.205	0.13
0.075	0.01842	986.303	0.131
0.075	0.02216	986.494	0.131
0.075	0.02961	986.73	0.129
0.075	0.03716	986.945	0.127
0.075	0.04464	987.095	0.141
0.1	0.00069	982.223	0.151
0.1	0.00139	982.282	0.141
0.1	0.00208	982.312	0.131
0.1	0.00277	982.335	0.127
0.1	0.00347	982.341	0.127
0.1	0.00417	982.358	0.131
0.1	0.00506	982.401	0.13
0.1	0.00625	982.429	0.129
0.1	0.00693	982.457	0.126
0.1	0.008	982.451	0.127
0.1	0.00904	982.5	0.129
0.1	0.01041	982.528	0.128
0.1	0.01215	982.579	0.129
0.1	0.01395	982.628	0.13
0.1	0.01744	982.756	0.13
0.1	0.02093	982.855	0.128
0.1	0.02802	983.007	0.127
0.1	0.03485	983.163	0.128
0.1	0.04219	983.368	0.13
0.1	0.05281	983.748	0.129
0.1	0.06529	984.074	0.128

System: propan-1-ol + sodium dodecane-1-sulfonate + water; phases: Liquid
Fixed: Pressure, kPa = 101
Fixed: Temperature, K = 298.15
Property: Speed of sound, m/s (Liquid); method: Sing-around technique in a fixed-path interferometer
Solvent: Mass fraction of propan-1-ol	Molality, mol/kg of sodium dodecane-1-sulfonate	Speed of sound, m/s	uncertainty
0	0.00218	1497.44	1.3
0	0.00351	1497.73	1.3
0	0.00539	1498.31	1.3
0	0.00608	1498.46	1.3
0	0.0065	1498.54	1.3
0	0.0073	1498.73	1.3
0	0.00803	1499.09	1.3
0	0.00848	1499.03	1.3
0	0.00872	1499.11	1.3
0	0.00985	1499.28	1.3
0	0.01009	1499.34	1.3
0	0.01056	1499.31	1.3
0	0.01116	1499.68	1.3
0	0.01123	1499.68	1.3
0	0.01256	1499.35	1.3
0	0.01391	1499.5	1.3
0	0.01443	1499.73	1.3
0	0.01572	1499.75	1.3
0	0.01744	1499.57	1.3
0	0.02224	1499.76	1.3
0	0.02451	1499.46	1.3
0	0.02898	1499.77	1.3
0	0.03308	1499.98	1.3
0	0.0377	1499.84	1.3
0	0.04249	1499.81	1.3
0.025	0.0022	1518.14	1.3
0.025	0.00341	1518.27	1.3
0.025	0.00442	1518.45	1.3
0.025	0.0051	1518.7	1.3
0.025	0.00768	1519.08	1.3
0.025	0.00774	1519	1.3
0.025	0.00919	1518.94	1.3
0.025	0.01104	1518.93	1.3
0.025	0.01289	1518.82	1.3
0.025	0.01473	1518.63	1.3
0.025	0.01842	1518.43	1.3
0.025	0.02207	1518.43	1.3
0.025	0.02963	1517.97	1.3
0.025	0.03707	1517.58	1.3
0.025	0.04252	1517.41	1.3
0.025	0.05031	1517.13	1.3
0.025	0.06325	1516.59	1.3
0.025	0.0782	1516	1.3
0.025	0.09054	1515.31	1.3
0.025	0.10199	1515.42	1.3
0.05	0.00147	1538.62	1.3
0.05	0.0022	1538.71	1.3
0.05	0.00294	1538.8	1.3
0.05	0.00367	1538.89	1.3
0.05	0.00441	1538.91	1.3
0.05	0.00552	1539.08	1.3
0.05	0.00662	1538.86	1.3
0.05	0.00773	1538.71	1.3
0.05	0.00882	1538.58	1.3
0.05	0.00957	1538.49	1.3
0.05	0.01105	1538.33	1.3
0.05	0.01287	1538.09	1.3
0.05	0.01474	1537.87	1.3
0.05	0.01845	1537.48	1.3
0.05	0.02216	1537.03	1.3
0.05	0.02962	1536.29	1.3
0.05	0.03708	1535.59	1.3
0.05	0.04463	1534.77	1.3
0.075	0.00073	1556.92	1.31
0.075	0.0011	1556.62	1.31
0.075	0.00147	1556.91	1.31
0.075	0.0022	1556.88	1.31
0.075	0.00294	1556.88	1.31
0.075	0.00441	1557.12	1.31
0.075	0.00552	1556.78	1.31
0.075	0.00662	1556.6	1.31
0.075	0.00834	1556.32	1.31
0.075	0.00939	1556.01	1.31
0.075	0.01287	1555.4	1.31
0.075	0.01474	1554.98	1.31
0.075	0.01842	1554.3	1.31
0.075	0.02216	1553.79	1.31
0.075	0.02961	1552.69	1.31
0.075	0.03716	1551.58	1.31
0.075	0.04464	1550.59	1.31
0.075	0.04961	1549.92	1.31
0.075	0.07478	1547.09	1.31
0.1	0.00069	1573.8	1.31
0.1	0.00139	1573.56	1.31
0.1	0.00208	1573.4	1.31
0.1	0.00277	1573.19	1.31
0.1	0.00347	1573.05	1.31
0.1	0.00417	1572.82	1.31
0.1	0.00506	1572.46	1.31
0.1	0.00625	1572.2	1.31
0.1	0.00693	1571.97	1.31
0.1	0.008	1571.76	1.31
0.1	0.00904	1571.44	1.31
0.1	0.01041	1571.03	1.31
0.1	0.01215	1570.55	1.31
0.1	0.01395	1570.21	1.31
0.1	0.01744	1569.18	1.31
0.1	0.02093	1568.38	1.31
0.1	0.02802	1566.89	1.31
0.1	0.03485	1565.73	1.31
0.1	0.04219	1564.24	1.31
0.1	0.05281	1562.18	1.31
0.1	0.06529	1560.15	1.31
