Measured thermophysical data. Branched and cyclic alkyl groups in imidazolium-based ionic liquids: molecular organization and physico-chemical properties
Source: Fluid Phase Equilib., 2014, 10.1016/j.fluid.2014.03.004
Compound 1: 1-butyl-3-pentylimidazolium bis((trifluoromethyl)sulfonyl)imide, C14H23F6N3O4S2, InChI=1S/C12H23N2.C2F6NO4S2/c1-3-5-7-9-14-11-10-13(12-14)8-6-4-2;3-1(4,5)14(10,11)9-15(12,13)2(6,7)8/h10-12H,3-9H2,1-2H3;/q+1;-1
Compound 2: 1-butyl-3-isopentylimidazolium bis((trifluoromethyl)sulfonyl)amide, C14H23F6N3O4S2, InChI=1S/C12H23N2.C2F6NO4S2/c1-4-5-7-13-9-10-14(11-13)8-6-12(2)3;3-1(4,5)14(10,11)9-15(12,13)2(6,7)8/h9-12H,4-8H2,1-3H3;/q+1;-1
Compound 3: 1-cyclopentyl-3-butylimidazolium bis((trifluoromethyl)sulfonyl)imide, C14H21F6N3O4S2, InChI=1S/C12H21N2.C2F6NO4S2/c1-2-3-8-13-9-10-14(11-13)12-6-4-5-7-12;3-1(4,5)14(10,11)9-15(12,13)2(6,7)8/h9-12H,2-8H2,1H3;/q+1;-1

System: 1-butyl-3-pentylimidazolium bis((trifluoromethyl)sulfonyl)imide; phases: Liquid
Fixed: Pressure, kPa = 101.325
Property: Mass density, kg/m3 (Liquid); method: Vibrating tube method
Temperature, K	Mass density, kg/m3	uncertainty
293.15	1322.07	3.4
298.15	1317.6	3.37
303.15	1313.16	3.35
313.15	1304.29	3.3
323.15	1295.48	3.26
333.15	1286.72	3.21
343.15	1278.02	3.17
353.15	1269.36	3.12

System: 1-butyl-3-pentylimidazolium bis((trifluoromethyl)sulfonyl)imide; phases: Liquid
Fixed: Pressure, kPa = 101.325
Property: Viscosity, Pa*s (Liquid); method: Falling or rolling sphere viscometry
Temperature, K	Viscosity, Pa*s	uncertainty
298.15	0.0759	0.0027
303.15	0.0615	0.0021
313.15	0.0403	0.0014
323.15	0.028	0.001
333.15	0.0202	0.0007
353.15	0.0116	0.0004

System: 1-butyl-3-pentylimidazolium bis((trifluoromethyl)sulfonyl)imide; phases: Liquid
Fixed: Pressure, kPa = 101.325
Property: Electrical conductivity, S/m (Liquid); method: Alternating current cell with electrodes
Temperature, K	Electrical conductivity, S/m	uncertainty
298.15	0.164	0.007
303.16	0.205	0.008
313.15	0.303	0.012
323.15	0.427	0.017
333.15	0.58	0.023
343.15	0.757	0.03
353.16	0.96	0.038

System: 1-butyl-3-isopentylimidazolium bis((trifluoromethyl)sulfonyl)amide; phases: Liquid
Fixed: Pressure, kPa = 101.325
Property: Mass density, kg/m3 (Liquid); method: Vibrating tube method
Temperature, K	Mass density, kg/m3	uncertainty
293.15	1322.37	3.4
298.15	1318.1	3.38
303.15	1313.65	3.35
313.15	1304.82	3.31
323.15	1296.03	3.26
333.15	1287.3	3.22
343.15	1278.62	3.17
353.15	1269.99	3.13

System: 1-butyl-3-isopentylimidazolium bis((trifluoromethyl)sulfonyl)amide; phases: Liquid
Fixed: Pressure, kPa = 101.325
Property: Viscosity, Pa*s (Liquid); method: Falling or rolling sphere viscometry
Temperature, K	Viscosity, Pa*s	uncertainty
298.15	0.093	0.0036
303.15	0.0732	0.0026
313.15	0.0465	0.0016
323.15	0.0315	0.0011
333.15	0.0224	0.0008
353.15	0.0126	0.0004

System: 1-butyl-3-isopentylimidazolium bis((trifluoromethyl)sulfonyl)amide; phases: Liquid
Fixed: Pressure, kPa = 101.325
Property: Electrical conductivity, S/m (Liquid); method: Alternating current cell with electrodes
Temperature, K	Electrical conductivity, S/m	uncertainty
298.15	0.145	0.006
303.16	0.182	0.007
313.15	0.273	0.011
323.15	0.389	0.016
333.15	0.529	0.021
343.15	0.694	0.028
353.16	0.883	0.035

System: 1-cyclopentyl-3-butylimidazolium bis((trifluoromethyl)sulfonyl)imide; phases: Liquid
Fixed: Pressure, kPa = 101.325
Property: Mass density, kg/m3 (Liquid); method: Vibrating tube method
Temperature, K	Mass density, kg/m3	uncertainty
293.15	1383.1	3.73
298.15	1378.52	3.7
303.15	1373.96	3.68
313.15	1364.86	3.63
323.15	1355.84	3.58
333.15	1346.87	3.53
343.15	1337.96	3.48
353.15	1329.11	3.44

System: 1-cyclopentyl-3-butylimidazolium bis((trifluoromethyl)sulfonyl)imide; phases: Liquid
Fixed: Pressure, kPa = 101.325
Property: Viscosity, Pa*s (Liquid); method: Falling or rolling sphere viscometry
Temperature, K	Viscosity, Pa*s	uncertainty
298.15	0.0851	0.0032
303.15	0.0679	0.0024
313.15	0.0443	0.0015
323.15	0.0308	0.0011
333.15	0.0223	0.0008
343.15	0.0167	0.0006
353.15	0.013	0.0004

System: 1-cyclopentyl-3-butylimidazolium bis((trifluoromethyl)sulfonyl)imide; phases: Liquid
Fixed: Pressure, kPa = 101.325
Property: Electrical conductivity, S/m (Liquid); method: Alternating current cell with electrodes
Temperature, K	Electrical conductivity, S/m	uncertainty
298.15	0.197	0.008
303.16	0.246	0.01
313.15	0.361	0.014
323.15	0.504	0.02
333.15	0.668	0.027
343.15	0.878	0.035
353.15	1.113	0.045
