Measured thermophysical data. Solubility and preferential solvation of meloxicam in ethanol + water mixtures
Source: Fluid Phase Equilib., 2011, 10.1016/j.fluid.2011.03.012
Compound 1: meloxicam, C14H13N3O4S2, InChI=1S/C14H13N3O4S2/c1-8-7-15-14(22-8)16-13(19)11-12(18)9-5-3-4-6-10(9)23(20,21)17(11)2/h3-7,18H,1-2H3,(H,15,16,19), purity 99.8%
Compound 2: ethanol, C2H6O, InChI=1S/C2H6O/c1-2-3/h3H,2H2,1H3, purity 99.8%
Compound 3: water, H2O, InChI=1S/H2O/h1H2, purity 99.9%

System: meloxicam; phases: Crystal, Liquid, Air at 1 atmosphere
Property: Molar enthalpy of transition or fusion, kJ/mol (Crystal); method: DSC
Molar enthalpy of transition or fusion, kJ/mol	uncertainty
43.9	1.2

System: meloxicam; phases: Crystal, Liquid, Air at 1 atmosphere
Property: Normal melting temperature, K (Crystal); method: DTA
Normal melting temperature, K	uncertainty
536.7	1.4

System: water + meloxicam; phases: Liquid, Crystal
Fixed: Pressure, kPa = 101
Property: Mole fraction of meloxicam (Liquid); method: OTHER::sMethod:UV absorbance
Temperature, K	Mole fraction of meloxicam	uncertainty
293.15	1.088e-06	3.9e-08
298.15	1.137e-06	2.4e-08
303.15	1.187e-06	2e-08
308.15	1.262e-06	2.2e-08
313.15	1.329e-06	1.2e-08

System: ethanol + water + meloxicam; phases: Liquid, Crystal
Fixed: Pressure, kPa = 101
Property: Mole fraction of meloxicam (Liquid); method: UV absorbance
Temperature, K	Mass fraction of ethanol	Mole fraction of meloxicam	uncertainty
293.15	0	1.088e-06	3.9e-08
293.15	0.1	1.514e-06	3.7e-08
293.15	0.2	1.864e-06	5e-08
293.15	0.3	2.72e-06	1.1e-07
293.15	0.4	4.55e-06	1.9e-07
293.15	0.5	8.19e-06	3.4e-07
293.15	0.6	1.473e-05	3.8e-07
293.15	0.7	2.09e-05	7.2e-07
293.15	0.75	2.361e-05	6e-07
293.15	0.8	2.41e-05	9e-07
293.15	0.85	2.478e-05	6.7e-07
293.15	0.9	2.248e-05	6.2e-07
293.15	0.95	2.168e-05	7.4e-07
293.15	1	1.878e-05	7.4e-07
298.15	0	1.137e-06	2.4e-08
298.15	0.1	1.634e-06	2.5e-08
298.15	0.2	2.18e-06	1.2e-07
298.15	0.3	3.19e-06	1.1e-07
298.15	0.4	5.29e-06	2.5e-07
298.15	0.5	9.62e-06	8.1e-07
298.15	0.6	1.622e-05	3.3e-07
298.15	0.7	2.567e-05	5.5e-07
298.15	0.75	3.179e-05	7.6e-07
298.15	0.8	3.44e-05	1.1e-06
298.15	0.85	3.609e-05	8.1e-07
298.15	0.9	3.51e-05	1.2e-06
298.15	0.95	3.4e-05	1.3e-06
298.15	1	2.72e-05	9e-07
303.15	0	1.187e-06	2e-08
303.15	0.1	1.803e-06	4.4e-08
303.15	0.2	2.41e-06	1.2e-07
303.15	0.3	3.75e-06	1.9e-07
303.15	0.4	6.28e-06	3.3e-07
303.15	0.5	1.112e-05	4.7e-07
303.15	0.6	2.023e-05	4.6e-07
303.15	0.7	3.035e-05	7.5e-07
303.15	0.75	3.997e-05	6.6e-07
303.15	0.8	4.54e-05	1.1e-06
303.15	0.85	4.988e-05	6.5e-07
303.15	0.9	4.873e-05	7.8e-07
303.15	0.95	4.79e-05	1.7e-06
303.15	1	4.12e-05	1.4e-06
308.15	0	1.262e-06	2.2e-08
308.15	0.1	1.945e-06	6.2e-08
308.15	0.2	2.644e-06	7.1e-08
308.15	0.3	4.1e-06	1.5e-07
308.15	0.4	7.01e-06	3e-07
308.15	0.5	1.29e-05	4.2e-07
308.15	0.6	2.44e-05	9e-07
308.15	0.7	3.78e-05	1.1e-06
308.15	0.75	4.78e-05	1e-06
308.15	0.8	5.357e-05	8.5e-07
308.15	0.85	5.98e-05	8.3e-07
308.15	0.9	6.19e-05	1.1e-06
308.15	0.95	6.01e-05	1.2e-06
308.15	1	5.41e-05	1.6e-06
313.15	0	1.329e-06	1.2e-08
313.15	0.1	2.08e-06	8e-08
313.15	0.2	2.935e-06	5.3e-08
313.15	0.3	4.72e-06	1.6e-07
313.15	0.4	8.19e-06	4.1e-07
313.15	0.5	1.513e-05	3.2e-07
313.15	0.6	2.806e-05	6.4e-07
313.15	0.7	4.405e-05	8.2e-07
313.15	0.75	5.77e-05	1.6e-06
313.15	0.8	6.558e-05	9e-07
313.15	0.85	7.8e-05	1.5e-06
313.15	0.9	8.16e-05	2e-06
313.15	0.95	8.29e-05	2.4e-06
313.15	1	7.35e-05	3.1e-06
