Measured thermophysical data. Binary and ternary solubility of amino- and nitro-benzoic acids in supercritical carbon dioxide
Source: Fluid Phase Equilib., 2013, 10.1016/j.fluid.2013.01.021
Compound 1: 3-aminobenzoic acid, C7H7NO2, InChI=1S/C7H7NO2/c8-6-3-1-2-5(4-6)7(9)10/h1-4H,8H2,(H,9,10), purity 99%
Compound 2: 3-nitrobenzoic acid, C7H5NO4, InChI=1S/C7H5NO4/c9-7(10)5-2-1-3-6(4-5)8(11)12/h1-4H,(H,9,10), purity 99%
Compound 3: carbon dioxide, CO2, InChI=1S/CO2/c2-1-3, purity 99.9%

System: 3-aminobenzoic acid + carbon dioxide; phases: Fluid (supercritical or subcritical phases), Crystal
Property: Mole fraction of 3-aminobenzoic acid (Fluid (supercritical or subcritical phases)); method: UV Spectrophotometry
Pressure, kPa	Temperature, K	Mole fraction of 3-aminobenzoic acid	uncertainty
10000	308	1.9e-06	1.14e-06
12000	308	1.99e-06	1.24e-06
15000	308	2.45e-06	1.52e-06
18000	308	2.79e-06	1.78e-06
21000	308	2.92e-06	1.88e-06
10000	318	1.75e-06	1.04e-06
12000	318	2.92e-06	1.78e-06
15000	318	3.5e-06	2.2e-06
18000	318	4.24e-06	2.64e-06
21000	318	4.87e-06	2.78e-06
10000	328	1.79e-06	1.14e-06
12000	328	3.07e-06	1.88e-06
15000	328	4.68e-06	2.9e-06
18000	328	5.65e-06	3.28e-06
21000	328	6.57e-06	4.14e-06

System: 3-aminobenzoic acid + 3-nitrobenzoic acid + carbon dioxide; phases: Fluid (supercritical or subcritical phases), Crystal
Property: Mole fraction of 3-nitrobenzoic acid (Fluid (supercritical or subcritical phases)); method: UV Spectrophotometry
Temperature, K	Pressure, kPa	Mole fraction of 3-aminobenzoic acid	Mole fraction of 3-nitrobenzoic acid	uncertainty
308	10000	1.16e-06	9.4e-07	6e-08
308	12000	1.73e-06	1.2e-06	8e-08
308	15000	1.97e-06	1.47e-06	1.2e-07
308	18000	2.56e-06	1.87e-06	1.4e-07
308	21000	2.79e-06	2.08e-06	1.8e-07
318	10000	1.55e-06	9.2e-07	6e-08
318	12000	2.23e-06	1.5e-06	7e-08
318	15000	2.76e-06	2.31e-06	1.5e-07
318	18000	3.1e-06	2.97e-06	1.9e-07
318	21000	3.7e-06	3.67e-06	2.5e-07
328	10000	1.68e-06	7.4e-07	7e-08
328	12000	2.47e-06	1.84e-06	1.3e-07
328	15000	3.07e-06	3.37e-06	2.2e-07
328	18000	3.49e-06	4.45e-06	3.2e-07
328	21000	4.72e-06	5.69e-06	3.6e-07
