Measured thermophysical data. Liquid-liquid equilibria containing fluorous solvents as environmentally benign solvent
Source: Fluid Phase Equilib., 2013, 10.1016/j.fluid.2012.12.037
Compound 1: heptane, C7H16, InChI=1S/C7H16/c1-3-5-7-6-4-2/h3-7H2,1-2H3, purity 99.3%
Compound 2: perfluorohexane, C6F14, InChI=1S/C6F14/c7-1(8,3(11,12)5(15,16)17)2(9,10)4(13,14)6(18,19)20, purity 99.9%
Compound 3: nonane, C9H20, InChI=1S/C9H20/c1-3-5-7-9-8-6-4-2/h3-9H2,1-2H3, purity 98.5%
Compound 4: decane, C10H22, InChI=1S/C10H22/c1-3-5-7-9-10-8-6-4-2/h3-10H2,1-2H3, purity 99.5%

System: heptane + perfluorohexane; phases: Liquid mixture 1, Liquid mixture 2
Fixed: Pressure, kPa = 101
Property: Mole fraction of perfluorohexane (Liquid mixture 1); method: Phase equilibration
Temperature, K	Mole fraction of perfluorohexane	uncertainty
276.97	0.0485	0.0011
289.57	0.0725	0.0017
296.96	0.0963	0.0022
303.81	0.1245	0.0029
308.49	0.1576	0.0037
312.12	0.1893	0.0044
314.66	0.2394	0.0056
315.59	0.2879	0.0067
316.04	0.3283	0.0076
316.32	0.3587	0.0083
316.42	0.3973	0.0092
316.27	0.4697	0.0109
314.54	0.5715	0.01
313.62	0.6063	0.0091
311.49	0.649	0.0082
307.37	0.7073	0.0068
304.63	0.7355	0.0061
296.04	0.7955	0.0048
288.86	0.8437	0.0036
284.61	0.8642	0.0032
274.82	0.8982	0.0024

System: nonane + perfluorohexane; phases: Liquid mixture 1, Liquid mixture 2
Fixed: Pressure, kPa = 101
Property: Mole fraction of perfluorohexane (Liquid mixture 1); method: Phase equilibration
Temperature, K	Mole fraction of perfluorohexane	uncertainty
299.19	0.0569	0.0013
311.35	0.0798	0.0019
322.99	0.1094	0.0025
327.95	0.127	0.003
334.2	0.1558	0.0036
342.84	0.2056	0.0048
347.58	0.2499	0.0058
349.98	0.3002	0.007
351.93	0.3477	0.0081
352.43	0.3687	0.0086
352.84	0.4022	0.0093
353.28	0.4454	0.0104
353.26	0.4923	0.0114
353.07	0.5333	0.0108
351.94	0.5878	0.0096
350.52	0.648	0.0082
348.39	0.6857	0.0073
342.23	0.7499	0.0058
335.09	0.8055	0.0045
324.2	0.8641	0.0032
322.08	0.8688	0.003
313.41	0.8991	0.0023

System: decane + perfluorohexane; phases: Liquid mixture 1, Liquid mixture 2
Fixed: Pressure, kPa = 101
Property: Mole fraction of perfluorohexane (Liquid mixture 1); method: Phase equilibration
Temperature, K	Mole fraction of perfluorohexane	uncertainty
306.09	0.0603	0.0014
327.11	0.091	0.0021
336.02	0.1081	0.0025
347.58	0.1414	0.0033
351.4	0.1562	0.0036
360.48	0.2066	0.0048
365.55	0.2489	0.0058
369.12	0.3083	0.0072
370.71	0.3572	0.0083
371.67	0.4145	0.0096
371.89	0.453	0.0105
371.92	0.4886	0.0114
371.4	0.5546	0.0104
368.07	0.6523	0.0081
364.26	0.7077	0.0068
360.49	0.7497	0.0058
353.71	0.8059	0.0045
344.24	0.854	0.0034
339.65	0.872	0.003
