Measured thermophysical data. Experimental study of the LL, VL and VLL equilibria of water + 1-butanol + 2-octanol at 101.3 kPa
Source: Fluid Phase Equilib., 2018, 10.1016/j.fluid.2018.07.037
Compound 1: butan-1-ol, C4H10O, InChI=1S/C4H10O/c1-2-3-4-5/h5H,2-4H2,1H3, purity 99.5%
Compound 2: 2-octanol, C8H18O, InChI=1S/C8H18O/c1-3-4-5-6-7-8(2)9/h8-9H,3-7H2,1-2H3, purity 98%
Compound 3: water, H2O, InChI=1S/H2O/h1H2, purity 99.9%

System: water + butan-1-ol + 2-octanol; phases: Liquid mixture 2, Liquid mixture 1
Fixed: Pressure, kPa = 101.3
Property: Mole fraction of water (Liquid mixture 2); method: Titration method
Property: Mole fraction of butan-1-ol (Liquid mixture 1); method: Titration method
Property: Mole fraction of water (Liquid mixture 1); method: Titration method
Temperature, K	Mole fraction of butan-1-ol	Mole fraction of water	uncertainty	Mole fraction of butan-1-ol	uncertainty	Mole fraction of water	uncertainty
303.15	0	0.2231	0.0109	0		0.9999	
303.15	0.2186	0.2512	0.0124	0.0027	0.0002	0.9973	
303.15	0.3175	0.2862	0.0152	0.0082	0.0005	0.9927	
303.15	0.4127	0.3354	0.019	0.0088	0.0005	0.9913	
303.15	0.4698	0.3749	0.0266	0.0103	0.0012	0.9908	
303.15	0.4971	0.4264	0.1934	0.0131	0.0011	0.9867	
303.15	0.501	0.4641	0.1943	0.0143	0.0012	0.986	
313.15	0	0.2297	0.0113	0		0.9999	
313.15	0.2207	0.2645	0.0134	0.0049	0.0003	0.9949	
313.15	0.3297	0.3171	0.0166	0.0053	0.0004	0.9946	
313.15	0.4137	0.3421	0.019	0.0066	0.0004	0.9934	
313.15	0.4608	0.3893	0.0316	0.0092	0.0006	0.9908	
313.15	0.4866	0.4439	0.0495	0.0111	0.0018	0.9896	
313.15	0.4965	0.4718	0.0607	0.0119	0.0018	0.9894	

System: water + butan-1-ol + 2-octanol; phases: Liquid mixture 2, Liquid mixture 1, Gas
Fixed: Pressure, kPa = 101.3
Property: Mole fraction of water (Liquid mixture 2); method: Chromatography
Property: Mole fraction of butan-1-ol (Liquid mixture 2); method: Chromatography
Property: Mole fraction of butan-1-ol (Liquid mixture 1); method: Chromatography
Property: Mole fraction of water (Liquid mixture 1); method: Chromatography
Property: Mole fraction of water (Gas); method: Chromatography
Property: Mole fraction of butan-1-ol (Gas); method: Chromatography
Temperature, K	Mole fraction of water	uncertainty	Mole fraction of butan-1-ol	uncertainty	Mole fraction of butan-1-ol	uncertainty	Mole fraction of water	uncertainty	Mole fraction of water	uncertainty	Mole fraction of butan-1-ol	uncertainty
371.99	0.9998	0.0002	0		0		0.3078	0.0126	0.9654	0.0099	0	
371.68	0.9992	0.0003	0.0006	0.0003	0.0281	0.0141	0.3112	0.0128	0.94	0.0084	0.0267	0.0088
371.31	0.998	0.0002	0.0018	0.0002	0.0789	0.0099	0.32	0.013	0.9196	0.0065	0.0499	0.0066
370.07	0.9967	0.0002	0.0032	0.0002	0.1604	0.0108	0.3185	0.013	0.8633	0.0078	0.1119	0.0076
369.57	0.9957	0.0003	0.0042	0.0003	0.2061	0.0135	0.3313	0.0135	0.8397	0.0078	0.1394	0.0076
368.55	0.994	0.0003	0.0059	0.0003	0.2946	0.0161	0.3332	0.0136	0.8075	0.0086	0.1778	0.0084
368.24	0.9933	0.0004	0.0065	0.0003	0.3276	0.0177	0.3445	0.0149	0.8006	0.0092	0.1873	0.0092
367.85	0.9927	0.0005	0.0072	0.0005	0.3631	0.0181	0.3636	0.0159	0.7829	0.0096	0.2076	0.0096
367.49	0.9906	0.0006	0.0093	0.0006	0.3926	0.0178	0.3813	0.0172	0.7766	0.0094	0.2163	0.0093
367.15	0.9904	0.0004	0.0095	0.0004	0.4093	0.018	0.4069	0.0191	0.7681	0.0102	0.2258	0.0102
366.86	0.9902	0.0004	0.0097	0.0004	0.4288	0.0195	0.4311	0.0189	0.7564	0.0102	0.2397	0.0102
366.53	0.9896	0.0006	0.0103	0.0006	0.4544	0.0192	0.4439	0.0216	0.7541	0.0101	0.2426	0.01
366.44	0.9886	0.0006	0.0113	0.0006	0.4544	0.0192	0.4537	0.0215	0.751	0.0102	0.2459	0.0102
366.28	0.9884	0.0007	0.0116	0.0007	0.4527	0.0192	0.4905	0.0287	0.7497	0.0102	0.2485	0.0102
365.9	0.9865	0.0008	0.0134	0.0008	0.4304	0.0188	0.549	0.026	0.7457	0.0104	0.2536	0.0104

System: water + butan-1-ol + 2-octanol; phases: Liquid, Gas
Fixed: Pressure, kPa = 101.3
Property: Mole fraction of water (Liquid); method: Chromatography
Property: Mole fraction of water (Gas); method: Chromatography
Property: Mole fraction of butan-1-ol (Gas); method: Chromatography
Temperature, K	Mole fraction of butan-1-ol	Mole fraction of water	uncertainty	Mole fraction of water	uncertainty	Mole fraction of butan-1-ol	uncertainty
368.04	0.4859	0.3524	0.0143	0.759	0.0099	0.2378	
369.34	0.5533	0.292	0.0119	0.7458	0.0104	0.2524	
370	0.5845	0.2821	0.0115	0.741	0.0106	0.2575	
371.57	0.6623	0.2267	0.0092	0.7076	0.012	0.2914	
373.77	0.7349	0.1829	0.0074	0.6589	0.014	0.3403	
375.83	0.7892	0.1521	0.0062	0.5986	0.0164	0.4009	
377.99	0.8359	0.1225	0.005	0.5276	0.0194	0.472	
378.1	0.7567	0.1218	0.0049	0.5661	0.0178	0.4327	
379.15	0.7219	0.1152	0.0047	0.5564	0.0182	0.4418	
379.97	0.699	0.1068	0.0043	0.5521	0.0184	0.4448	
380.74	0.6495	0.1072	0.0044	0.5701	0.0176	0.4261	
382.9	0.5745	0.0973	0.004	0.5883	0.0169	0.4063	
384.92	0.5055	0.0857	0.0035	0.5914	0.0167	0.4008	
388.19	0.4632	0.0847	0.0034	0.5755	0.0174	0.4128	
391.11	0.4045	0.0698	0.0028	0.5683	0.0177	0.4164	
393.91	0.3422	0.0639	0.0026	0.5865	0.017	0.3963	
397.7	0.2808	0.066	0.0027	0.5912	0.0168	0.3885	
401.82	0.2371	0.0532	0.0022	0.5922	0.0167	0.3801	
405.32	0.2151	0.0578	0.0023	0.6078	0.0161	0.3645	
410.45	0.17	0.0462	0.0019	0.6122	0.0159	0.3518	

System: water + 2-octanol; phases: Liquid mixture 1, Liquid mixture 2
Fixed: Pressure, kPa = 101.3
Property: Mole fraction of 2-octanol (Liquid mixture 1); method: Chromatography
Temperature, K	Mole fraction of 2-octanol	uncertainty
303.15	0.000118	4.7e-05
313.15	0.00013	5.2e-05

System: water + 2-octanol; phases: Liquid mixture 2, Liquid mixture 1
Fixed: Pressure, kPa = 101.3
Property: Mole fraction of 2-octanol (Liquid mixture 2); method: Chromatography
Temperature, K	Mole fraction of 2-octanol	uncertainty
303.15	0.7769	0.0091
313.15	0.7703	0.0094

System: water + 2-octanol; phases: Liquid mixture 2, Liquid mixture 1, Gas
Property: Mole fraction of 2-octanol (Liquid mixture 2); method: Chromatography
Temperature, K	Mole fraction of 2-octanol	uncertainty
371.99	0.000241	1e-05

System: water + 2-octanol; phases: Liquid mixture 1, Liquid mixture 2, Gas
Property: Mole fraction of 2-octanol (Liquid mixture 1); method: Chromatography
Temperature, K	Mole fraction of 2-octanol	uncertainty
371.99	0.6922	0.0125

System: water + 2-octanol; phases: Gas, Liquid mixture 2, Liquid mixture 1
Property: Mole fraction of 2-octanol (Gas); method: Chromatography
Temperature, K	Mole fraction of 2-octanol	uncertainty
371.99	0.0346	0.0014

System: water + 2-octanol; phases: Liquid mixture 1, Liquid mixture 2, Gas
Property: Triple point temperature, K (Liquid mixture 1); method: Closed cell (Static) method
Pressure, kPa	Triple point temperature, K	uncertainty
101.3	371.99	0.39
