Measured thermophysical data. (Solid + liquid) and (liquid + liquid) phase equilibria study and correlation of the binary systems {N-butyl-3-methylpyridinium tosylate + water, or + an alcohol, or + a hydrocarbon}
Source: Fluid Phase Equilib., 2010, 10.1016/j.fluid.2010.01.025
Compound 1: 1-butyl-3-methylpyridinium 4-methylbenzenesulfonate, C17H23NO3S, InChI=1S/C10H16N.C7H8O3S/c1-3-4-7-11-8-5-6-10(2)9-11;1-6-2-4-7(5-3-6)11(8,9)10/h5-6,8-9H,3-4,7H2,1-2H3;2-5H,1H3,(H,8,9,10)/q+1;/p-1, purity 98%
Compound 2: water, H2O, InChI=1S/H2O/h1H2, purity 99.9%
Compound 3: hexane, C6H14, InChI=1S/C6H14/c1-3-5-6-4-2/h3-6H2,1-2H3, purity 99%
Compound 4: heptane, C7H16, InChI=1S/C7H16/c1-3-5-7-6-4-2/h3-7H2,1-2H3, purity 99%
Compound 5: octane, C8H18, InChI=1S/C8H18/c1-3-5-7-8-6-4-2/h3-8H2,1-2H3, purity 99%
Compound 6: benzene, C6H6, InChI=1S/C6H6/c1-2-4-6-5-3-1/h1-6H, purity 99.97%
Compound 7: toluene, C7H8, InChI=1S/C7H8/c1-7-5-3-2-4-6-7/h2-6H,1H3, purity 99.7%
Compound 8: ethylbenzene, C8H10, InChI=1S/C8H10/c1-2-8-6-4-3-5-7-8/h3-7H,2H2,1H3, purity 99%
Compound 9: propylbenzene, C9H12, InChI=1S/C9H12/c1-2-6-9-7-4-3-5-8-9/h3-5,7-8H,2,6H2,1H3, purity 98%
Compound 10: butan-1-ol, C4H10O, InChI=1S/C4H10O/c1-2-3-4-5/h5H,2-4H2,1H3
Compound 11: hexan-1-ol, C6H14O, InChI=1S/C6H14O/c1-2-3-4-5-6-7/h7H,2-6H2,1H3
Compound 12: octan-1-ol, C8H18O, InChI=1S/C8H18O/c1-2-3-4-5-6-7-8-9/h9H,2-8H2,1H3
Compound 13: decan-1-ol, C10H22O, InChI=1S/C10H22O/c1-2-3-4-5-6-7-8-9-10-11/h11H,2-10H2,1H3

System: 1-butyl-3-methylpyridinium 4-methylbenzenesulfonate; phases: Crystal, Liquid, Air at 1 atmosphere
Property: Molar enthalpy of transition or fusion, kJ/mol (Crystal); method: DSC
Molar enthalpy of transition or fusion, kJ/mol	uncertainty
11.34	0.351

System: 1-butyl-3-methylpyridinium 4-methylbenzenesulfonate; phases: Crystal, Liquid, Air at 1 atmosphere
Property: Normal melting temperature, K (Crystal); method: DTA
Normal melting temperature, K	uncertainty
315.8	0.4

System: butan-1-ol + 1-butyl-3-methylpyridinium 4-methylbenzenesulfonate; phases: Liquid, Crystal
Fixed: Pressure, kPa = 101
Property: Solid-liquid equilibrium temperature, K (Liquid); method: VISOBS
Mole fraction of 1-butyl-3-methylpyridinium 4-methylbenzenesulfonate	Solid-liquid equilibrium temperature, K	uncertainty
0.263	259.73	0.28
0.3043	264.92	0.28
0.3383	270.09	0.27
0.3736	273.39	0.27
0.4243	279.53	0.27
0.4512	282.73	0.26
0.4917	284.77	0.26
0.5278	288.79	0.27
0.5717	293.51	0.26
0.6025	296.19	0.26
0.6409	299.96	0.26
0.6805	302.57	0.26
0.7278	306.5	0.26
0.7845	310.95	0.25
0.8378	314.07	0.25
0.9117	318.26	0.25
0.9473	321.18	0.25
1	323.7	0.25

System: hexan-1-ol + 1-butyl-3-methylpyridinium 4-methylbenzenesulfonate; phases: Liquid, Crystal
Fixed: Pressure, kPa = 101
Property: Solid-liquid equilibrium temperature, K (Liquid); method: VISOBS
Mole fraction of 1-butyl-3-methylpyridinium 4-methylbenzenesulfonate	Solid-liquid equilibrium temperature, K	uncertainty
0.237	261.24	0.32
0.2593	265.8	0.3
0.2845	269.76	0.28
0.3142	273.47	0.27
0.3464	277.25	0.28
0.379	282.38	0.27
0.4258	285.54	0.26
0.4568	288.99	0.26
0.5103	294.08	0.26
0.5655	297.67	0.25
0.6119	301.04	0.26
0.6581	304.56	0.26
0.6903	306.56	0.25
0.7338	309.55	0.25
0.7935	313.21	0.25
0.8508	315.73	0.25
0.9218	320.14	0.25
0.9606	321.89	0.25
1	323.7	0.25

System: octan-1-ol + 1-butyl-3-methylpyridinium 4-methylbenzenesulfonate; phases: Liquid, Crystal
Fixed: Pressure, kPa = 101
Property: Solid-liquid equilibrium temperature, K (Liquid); method: VISOBS
Mole fraction of 1-butyl-3-methylpyridinium 4-methylbenzenesulfonate	Solid-liquid equilibrium temperature, K	uncertainty
0.1302	258.8	0.25
0.1528	260.38	0.27
0.1795	263.94	0.28
0.2085	267.67	0.28
0.2545	273.66	0.27
0.2868	277.17	0.27
0.3108	279.94	0.27
0.3421	283.33	0.27
0.3696	287.06	0.28
0.405	291.53	0.27
0.446	295.27	0.26
0.484	298.12	0.26
0.5207	301.54	0.26
0.5661	304.36	0.25
0.607	306.23	0.25
0.6513	308.04	0.25
0.685	309.09	0.25
0.735	311.53	0.25
0.7793	313.76	0.25
0.8206	315.58	0.25
0.8519	316.38	0.25
0.8856	318.44	0.25
0.9381	321.05	0.25
0.9779	322.11	0.25
1	323.7	0.25

System: decan-1-ol + 1-butyl-3-methylpyridinium 4-methylbenzenesulfonate; phases: Liquid, Crystal
Fixed: Pressure, kPa = 101
Property: Solid-liquid equilibrium temperature, K (Liquid); method: VISOBS
Mole fraction of 1-butyl-3-methylpyridinium 4-methylbenzenesulfonate	Solid-liquid equilibrium temperature, K	uncertainty
0.2314	278.4	0.28
0.2595	282.43	0.28
0.2847	285.18	0.27
0.3178	288.81	0.27
0.3528	292.13	0.26
0.402	296.24	0.26
0.4522	300.33	0.26
0.4872	302.85	0.26
0.5319	306.56	0.25
0.5767	308.64	0.25
0.6382	311.28	0.25
0.6841	313.23	0.25
0.7405	314.36	0.25
0.805	316.21	0.25
0.839	318.11	0.25
0.9003	319.8	0.25
0.9302	320.68	0.25
0.9657	321.62	0.25
1	323.7	0.25

System: hexane + 1-butyl-3-methylpyridinium 4-methylbenzenesulfonate; phases: Liquid, Crystal
Fixed: Pressure, kPa = 101
Property: Solid-liquid equilibrium temperature, K (Liquid); method: VISOBS
Mole fraction of 1-butyl-3-methylpyridinium 4-methylbenzenesulfonate	Solid-liquid equilibrium temperature, K	uncertainty
0.9295	320.6	0.3
0.9533	321.1	0.3
0.9739	322.1	0.3
1	323.7	0.3

System: hexane + 1-butyl-3-methylpyridinium 4-methylbenzenesulfonate; phases: Liquid mixture 1, Liquid mixture 2
Fixed: Pressure, kPa = 101
Property: Liquid-liquid equilibrium temperature, K (Liquid mixture 1); method: VISOBS
Mole fraction of 1-butyl-3-methylpyridinium 4-methylbenzenesulfonate	Liquid-liquid equilibrium temperature, K	uncertainty
0.8633	353.9	0.6
0.8793	345	0.6
0.8902	339.6	0.5
0.8952	337.7	0.4
0.9035	336	0.3
0.9133	333.4	0.4
0.9189	330.3	0.5
0.9295	326.6	0.4

System: heptane + 1-butyl-3-methylpyridinium 4-methylbenzenesulfonate; phases: Liquid mixture 1, Liquid mixture 2
Fixed: Pressure, kPa = 101
Property: Liquid-liquid equilibrium temperature, K (Liquid mixture 1); method: VISOBS
Mole fraction of 1-butyl-3-methylpyridinium 4-methylbenzenesulfonate	Liquid-liquid equilibrium temperature, K	uncertainty
0.9295	357.6	0.9
0.9387	349.6	1.1
0.9453	339.6	1
0.9555	332.4	0.8
0.9638	325.7	0.8

System: heptane + 1-butyl-3-methylpyridinium 4-methylbenzenesulfonate; phases: Liquid, Crystal
Fixed: Pressure, kPa = 101
Property: Solid-liquid equilibrium temperature, K (Liquid); method: VISOBS
Mole fraction of 1-butyl-3-methylpyridinium 4-methylbenzenesulfonate	Solid-liquid equilibrium temperature, K	uncertainty
0.9733	321.9	0.3
0.9808	322.4	0.3
0.9895	323.1	0.3
1	323.7	0.3

System: octane + 1-butyl-3-methylpyridinium 4-methylbenzenesulfonate; phases: Liquid mixture 1, Liquid mixture 2
Fixed: Pressure, kPa = 101
Property: Liquid-liquid equilibrium temperature, K (Liquid mixture 1); method: VISOBS
Mole fraction of 1-butyl-3-methylpyridinium 4-methylbenzenesulfonate	Liquid-liquid equilibrium temperature, K	uncertainty
0.9526	353.2	1.4
0.9567	347.6	1.3
0.9622	340.8	1.1
0.9678	335.3	0.9
0.9741	330.1	0.9

System: octane + 1-butyl-3-methylpyridinium 4-methylbenzenesulfonate; phases: Liquid, Crystal
Fixed: Pressure, kPa = 101
Property: Solid-liquid equilibrium temperature, K (Liquid); method: VISOBS
Mole fraction of 1-butyl-3-methylpyridinium 4-methylbenzenesulfonate	Solid-liquid equilibrium temperature, K	uncertainty
0.9819	322.8	0.3
0.9894	323.1	0.3
1	323.7	0.3

System: benzene + 1-butyl-3-methylpyridinium 4-methylbenzenesulfonate; phases: Liquid, Crystal
Fixed: Pressure, kPa = 101
Property: Solid-liquid equilibrium temperature, K (Liquid); method: VISOBS
Mole fraction of 1-butyl-3-methylpyridinium 4-methylbenzenesulfonate	Solid-liquid equilibrium temperature, K	uncertainty
0.3743	278.8	0.3
0.406	279.9	0.3
0.4182	280.4	0.3
0.4501	282.8	0.3
0.482	286.9	0.3
0.5204	291.7	0.3
0.5584	295.5	0.3
0.5958	298.2	0.3
0.6237	300.3	0.3
0.6594	302.6	0.3
0.701	305.8	0.3
0.7387	308.1	0.3
0.7834	311	0.3
0.8316	315	0.3
0.8599	316.3	0.3
0.8928	318	0.3
0.9274	319.2	0.3
0.9629	321	0.3
1	323.7	0.3

System: benzene + 1-butyl-3-methylpyridinium 4-methylbenzenesulfonate; phases: Liquid mixture 1, Liquid mixture 2
Fixed: Pressure, kPa = 101
Property: Liquid-liquid equilibrium temperature, K (Liquid mixture 1); method: VISOBS
Mole fraction of 1-butyl-3-methylpyridinium 4-methylbenzenesulfonate	Liquid-liquid equilibrium temperature, K	uncertainty
0.3372	350.7	1.2
0.342	344.9	1.4
0.346	338.6	1.6
0.3512	330	1.6
0.3563	322.8	1.2
0.3604	319.7	1
0.3694	310.1	1.3
0.3743	301.5	1.8

System: water + 1-butyl-3-methylpyridinium 4-methylbenzenesulfonate; phases: Liquid, Crystal
Fixed: Pressure, kPa = 101
Property: Solid-liquid equilibrium temperature, K (Liquid); method: VISOBS
Mole fraction of 1-butyl-3-methylpyridinium 4-methylbenzenesulfonate	Solid-liquid equilibrium temperature, K	uncertainty
0.4221	274.08	0.27
0.4591	278.6	0.28
0.4852	282.41	0.28
0.5116	286.19	0.27
0.5836	294.1	0.26
0.6585	300.09	0.26
0.7034	304.32	0.26
0.7373	307.56	0.26
0.7908	311.2	0.26
0.8412	315.93	0.26
0.8604	317.61	0.26
0.9482	321.93	0.25
1	323.7	0.25

System: toluene + 1-butyl-3-methylpyridinium 4-methylbenzenesulfonate; phases: Liquid, Crystal
Fixed: Pressure, kPa = 101
Property: Solid-liquid equilibrium temperature, K (Liquid); method: VISOBS
Mole fraction of 1-butyl-3-methylpyridinium 4-methylbenzenesulfonate	Solid-liquid equilibrium temperature, K	uncertainty
0.5746	301.7	0.3
0.6465	305.8	0.3
0.6899	308.2	0.3
0.7342	310.4	0.3
0.7645	312.5	0.3
0.7963	314.6	0.3
0.8272	316.6	0.3
0.8612	318.3	0.3
0.8974	320.4	0.3
0.9273	321.5	0.3
0.9652	322.3	0.3
1	323.7	0.3

System: toluene + 1-butyl-3-methylpyridinium 4-methylbenzenesulfonate; phases: Liquid mixture 1, Liquid mixture 2
Fixed: Pressure, kPa = 101
Property: Liquid-liquid equilibrium temperature, K (Liquid mixture 1); method: VISOBS
Mole fraction of 1-butyl-3-methylpyridinium 4-methylbenzenesulfonate	Liquid-liquid equilibrium temperature, K	uncertainty
0.509	358.4	1.1
0.5219	344	1.3
0.534	326.9	1.2
0.5463	315.8	0.9

System: ethylbenzene + 1-butyl-3-methylpyridinium 4-methylbenzenesulfonate; phases: Liquid mixture 1, Liquid mixture 2
Fixed: Pressure, kPa = 101
Property: Liquid-liquid equilibrium temperature, K (Liquid mixture 1); method: VISOBS
Mole fraction of 1-butyl-3-methylpyridinium 4-methylbenzenesulfonate	Liquid-liquid equilibrium temperature, K	uncertainty
0.6693	345.1	0.8
0.6716	343.3	0.8
0.685	332.4	0.8
0.6922	327.4	0.7
0.6984	323.2	1
0.7043	316.1	1.2

System: ethylbenzene + 1-butyl-3-methylpyridinium 4-methylbenzenesulfonate; phases: Liquid, Crystal
Fixed: Pressure, kPa = 101
Property: Solid-liquid equilibrium temperature, K (Liquid); method: VISOBS
Mole fraction of 1-butyl-3-methylpyridinium 4-methylbenzenesulfonate	Solid-liquid equilibrium temperature, K	uncertainty
0.7092	307.6	0.3
0.7203	308.1	0.3
0.7366	308.7	0.3
0.7501	309	0.3
0.7678	309.2	0.3
0.7887	310.1	0.3
0.8179	312.6	0.3
0.8532	315	0.3
0.8918	317.2	0.3
0.9469	320.6	0.3
1	323.7	0.3

System: propylbenzene + 1-butyl-3-methylpyridinium 4-methylbenzenesulfonate; phases: Liquid, Crystal
Fixed: Pressure, kPa = 101
Property: Solid-liquid equilibrium temperature, K (Liquid); method: VISOBS
Mole fraction of 1-butyl-3-methylpyridinium 4-methylbenzenesulfonate	Solid-liquid equilibrium temperature, K	uncertainty
0.8019	313.4	0.3
0.835	314.9	0.3
0.8749	316.9	0.3
0.9093	318.7	0.3
0.9265	318.9	0.3
0.9564	320.3	0.3
0.9759	321.1	0.3
1	323.7	0.3

System: propylbenzene + 1-butyl-3-methylpyridinium 4-methylbenzenesulfonate; phases: Liquid mixture 1, Liquid mixture 2
Fixed: Pressure, kPa = 101
Property: Liquid-liquid equilibrium temperature, K (Liquid mixture 1); method: VISOBS
Mole fraction of 1-butyl-3-methylpyridinium 4-methylbenzenesulfonate	Liquid-liquid equilibrium temperature, K	uncertainty
0.7053	351.7	1.1
0.7129	343.4	0.7
0.7274	336.3	0.6
0.7383	328.2	0.7
0.7495	322.8	0.5
0.7708	313.7	0.5
