Measured thermophysical data. Effect of ionic liquid, 1-octyl-3-methylimidazolium bromide on the thermophysical properties of aqueous d-glucose solutions at 298.15 K
Source: Fluid Phase Equilib., 2011, 10.1016/j.fluid.2011.06.021
Compound 1: 1-methyl-3-octylimidazolium bromide, C12H23BrN2, InChI=1S/C12H23N2.BrH/c1-3-4-5-6-7-8-9-14-11-10-13(2)12-14;/h10-12H,3-9H2,1-2H3;1H/q+1;/p-1
Compound 2: D-glucose, C6H12O6, InChI=1S/C6H12O6/c7-1-3(9)5(11)6(12)4(10)2-8/h1,3-6,8-12H,2H2/t3-,4+,5+,6+/m0/s1, purity 99.6%
Compound 3: water, H2O, InChI=1S/H2O/h1H2

System: D-glucose + water + 1-methyl-3-octylimidazolium bromide; phases: Liquid
Fixed: Pressure, kPa = 101
Fixed: Temperature, K = 298.15
Property: Molar conductivity, S*m2/mol (Liquid); method: Alternating current cell with electrodes
Solvent: Amount concentration (molarity), mol/dm3 of 1-methyl-3-octylimidazolium bromide	Molality, mol/kg of D-glucose	Molar conductivity, S*m2/mol	uncertainty
0	0.3331	0.010741	0.000215
0	0.6735	0.010628	0.000213
0	0.9125	0.010535	0.000211
0	1.289	0.010421	0.000208
0	1.6004	0.010324	0.000206
0	1.7959	0.010264	0.000205
0	1.9842	0.010217	0.000204
0	2.187	0.010171	0.000203
0	2.4042	0.010125	0.000203
0	2.5708	0.010088	0.000202
0.2	0.2864	0.009571	0.000191
0.2	0.5508	0.009503	0.00019
0.2	0.8079	0.009445	0.000189
0.2	1.0355	0.009391	0.000188
0.2	1.2705	0.009346	0.000187
0.2	1.579	0.009287	0.000186
0.2	1.8434	0.009241	0.000185
0.2	2.0711	0.009205	0.000184
0.2	2.3208	0.009163	0.000183
0.2	2.5558	0.009126	0.000183
0.5	0.2015	0.008154	0.000163
0.5	0.4926	0.008056	0.000161
0.5	0.8209	0.007936	0.000159
0.5	1.1045	0.007845	0.000157
0.5	1.4105	0.007751	0.000155
0.5	1.7015	0.007665	0.000153
0.5	1.9851	0.007593	0.000152
0.5	2.2762	0.007422	0.000148
0.5	2.5896	0.007357	0.000147
0.5	2.918	0.007366	0.000147
0.8	0.3193	0.007074	0.000141
0.8	0.6234	0.006791	0.000136
0.8	0.9275	0.006807	0.000136
0.8	1.2696	0.00667	0.000133
0.8	1.6345	0.006533	0.000131
0.8	1.9233	0.006467	0.000129
0.8	2.2198	0.006378	0.000128
0.8	2.5543	0.006287	0.000126
0.8	2.8584	0.00622	0.000124
0.8	3.1777	0.00613	0.000123

System: D-glucose + water + 1-methyl-3-octylimidazolium bromide; phases: Liquid
Fixed: Pressure, kPa = 101
Fixed: Temperature, K = 298.15
Property: Viscosity, Pa*s (Liquid); method: Capillary tube (Ostwald; Ubbelohde) method
Solvent: Molality, mol/kg of 1-methyl-3-octylimidazolium bromide	Amount concentration (molarity), mol/dm3 of D-glucose	Viscosity, Pa*s	uncertainty
0	0.0104	0.000907	8e-06
0	0.03	0.000913	8e-06
0	0.05	0.000922	8e-06
0	0.0706	0.000929	8e-06
0	0.0902	0.000935	8e-06
0	0.1107	0.000945	8e-06
0	0.1308	0.000954	8e-06
0	0.1507	0.00096	8e-06
0	0.1705	0.000969	8e-06
0.1045	0.0106	0.000973	8e-06
0.1045	0.0203	0.000978	8e-06
0.1045	0.0314	0.000983	8e-06
0.1045	0.0423	0.000988	9e-06
0.1045	0.0512	0.000991	9e-06
0.1045	0.0598	0.000995	9e-06
0.1045	0.0699	0.001001	9e-06
0.1045	0.08	0.001005	9e-06
0.1045	0.09	0.001009	9e-06
0.1919	0.0108	0.001028	9e-06
0.1919	0.0203	0.001033	9e-06
0.1919	0.0299	0.001039	9e-06
0.1919	0.0404	0.001044	9e-06
0.1919	0.0504	0.001049	9e-06
0.1919	0.0592	0.001053	9e-06
0.1919	0.0699	0.001057	9e-06
0.1919	0.0805	0.001063	9e-06
0.1919	0.0894	0.001068	9e-06
0.2952	0.0101	0.001106	9e-06
0.2952	0.0211	0.001112	9e-06
0.2952	0.0313	0.001119	9e-06
0.2952	0.0404	0.001124	9e-06
0.2952	0.0506	0.00113	9e-06
0.2952	0.0611	0.001136	1e-05
0.2952	0.0698	0.00114	1e-05
0.2952	0.0794	0.001145	1e-05
0.2952	0.0919	0.001152	1e-05
0.392	0.0129	0.001185	1e-05
0.392	0.0221	0.00119	1e-05
0.392	0.0325	0.001195	1e-05
0.392	0.0423	0.001201	1e-05
0.392	0.0506	0.001206	1e-05
0.392	0.0607	0.001214	1e-05
0.392	0.0698	0.00122	1e-05
0.392	0.0821	0.001228	1e-05
0.392	0.0899	0.001232	1e-05

System: D-glucose + water + 1-methyl-3-octylimidazolium bromide; phases: Liquid
Fixed: Pressure, kPa = 100
Fixed: Temperature, K = 298.15
Property: Refractive index (Na D-line) (Liquid); method: Standard Abbe refractometry
Solvent: Molality, mol/kg of 1-methyl-3-octylimidazolium bromide	Molality, mol/kg of D-glucose	Refractive index (Na D-line)	uncertainty
0	0.0104	1.3328	0.0007
0	0.03	1.3334	0.0007
0	0.05	1.3339	0.0007
0	0.0705	1.3343	0.0007
0	0.0899	1.3349	0.0007
0	0.1102	1.3352	0.0007
0	0.1301	1.3357	0.0007
0	0.1496	1.3361	0.0007
0	0.1691	1.3366	0.0007
0.1045	0.0106	1.337	0.0007
0.1045	0.0202	1.3373	0.0007
0.1045	0.0313	1.3375	0.0007
0.1045	0.0421	1.3378	0.0007
0.1045	0.051	1.338	0.0007
0.1045	0.0595	1.3384	0.0007
0.1045	0.0695	1.3387	0.0007
0.1045	0.0795	1.3389	0.0007
0.1045	0.0893	1.3392	0.0007
0.1919	0.0107	1.3406	0.0007
0.1919	0.0202	1.3409	0.0007
0.1919	0.0297	1.3411	0.0007
0.1919	0.0401	1.3412	0.0007
0.1919	0.05	1.3414	0.0007
0.1919	0.0587	1.3417	0.0007
0.1919	0.0693	1.3419	0.0007
0.1919	0.0797	1.3422	0.0007
0.1919	0.0885	1.3425	0.0007
0.2952	0.01	1.3443	0.0007
0.2952	0.0209	1.3445	0.0007
0.2952	0.031	1.3448	0.0007
0.2952	0.04	1.345	0.0007
0.2952	0.05	1.3452	0.0007
0.2952	0.0604	1.3455	0.0007
0.2952	0.0689	1.3457	0.0007
0.2952	0.0783	1.346	0.0007
0.2952	0.0906	1.3463	0.0007
0.392	0.0127	1.3477	0.0007
0.392	0.0218	1.348	0.0007
0.392	0.0321	1.3482	0.0007
0.392	0.0417	1.3484	0.0007
0.392	0.0499	1.3487	0.0007
0.392	0.0598	1.3489	0.0007
0.392	0.0687	1.3492	0.0007
0.392	0.0807	1.3494	0.0007
0.392	0.0884	1.3495	0.0007

System: D-glucose + water + 1-methyl-3-octylimidazolium bromide; phases: Liquid
Fixed: Pressure, kPa = 101
Fixed: Temperature, K = 298.15
Property: Mass density, kg/m3 (Liquid); method: Vibrating tube method
Solvent: Molality, mol/kg of 1-methyl-3-octylimidazolium bromide	Molality, mol/kg of D-glucose	Mass density, kg/m3	uncertainty
0	0	997.04	0.19
0	0.0104	997.75	0.19
0	0.03	999.09	0.19
0	0.05	1000.45	0.19
0	0.0705	1001.83	0.19
0	0.0899	1003.13	0.19
0	0.1102	1004.48	0.19
0.1045	0	1001.3	0.19
0.1045	0.0106	1002.01	0.19
0.1045	0.0202	1002.66	0.19
0.1045	0.0313	1003.4	0.19
0.1045	0.0421	1004.13	0.19
0.1045	0.051	1004.73	0.19
0.1045	0.0595	1005.3	0.19
0.1045	0.0695	1005.97	0.19
0.1045	0.0795	1006.64	0.19
0.1919	0	1004.71	0.19
0.1919	0.0107	1005.42	0.19
0.1919	0.0202	1006.04	0.19
0.1919	0.0297	1006.67	0.19
0.1919	0.0401	1007.36	0.2
0.1919	0.05	1008.02	0.2
0.1919	0.0587	1008.6	0.2
0.1919	0.0693	1009.3	0.2
0.1919	0.0797	1009.99	0.2
0.2952	0	1008.33	0.2
0.2952	0.01	1008.98	0.2
0.2952	0.0209	1009.69	0.2
0.2952	0.031	1010.35	0.2
0.2952	0.04	1010.94	0.2
0.2952	0.05	1011.6	0.2
0.2952	0.0604	1012.29	0.2
0.2952	0.0689	1012.85	0.2
0.2952	0.0783	1013.48	0.2
0.392	0	1011.49	0.2
0.392	0.0127	1012.31	0.2
0.392	0.0218	1012.9	0.2
0.392	0.0321	1013.57	0.2
0.392	0.0417	1014.2	0.2
0.392	0.0499	1014.74	0.2
0.392	0.0598	1015.39	0.2
0.392	0.0687	1015.98	0.2
0.392	0.0807	1016.77	0.2
