Measured thermophysical data. Transpiration method: Vapor pressures and enthalpies of vaporization of some low-boiling esters
Source: Fluid Phase Equilib., 2008, 10.1016/j.fluid.2008.02.001
Compound 1: methyl butanoate, C5H10O2, InChI=1S/C5H10O2/c1-3-4-5(6)7-2/h3-4H2,1-2H3
Compound 2: methyl pentanoate, C6H12O2, InChI=1S/C6H12O2/c1-3-4-5-6(7)8-2/h3-5H2,1-2H3
Compound 3: methyl hexanoate, C7H14O2, InChI=1S/C7H14O2/c1-3-4-5-6-7(8)9-2/h3-6H2,1-2H3
Compound 4: methyl heptanoate, C8H16O2, InChI=1S/C8H16O2/c1-3-4-5-6-7-8(9)10-2/h3-7H2,1-2H3
Compound 5: 1,1-dimethylpropyl acetate, C7H14O2, InChI=1S/C7H14O2/c1-5-7(3,4)9-6(2)8/h5H2,1-4H3
Compound 6: 1,1-dimethylpropyl propanoate, C8H16O2, InChI=1S/C8H16O2/c1-5-7(9)10-8(3,4)6-2/h5-6H2,1-4H3
Compound 7: 1,1-dimethylpropyl butanoate, C9H18O2, InChI=1S/C9H18O2/c1-5-7-8(10)11-9(3,4)6-2/h5-7H2,1-4H3
Compound 8: butyl 2,2-dimethylpropanoate, C9H18O2, InChI=1S/C9H18O2/c1-5-6-7-11-8(10)9(2,3)4/h5-7H2,1-4H3
Compound 9: 2-methylpropyl 2-methylpropanoate, C8H16O2, InChI=1S/C8H16O2/c1-6(2)5-10-8(9)7(3)4/h6-7H,5H2,1-4H3
Compound 10: butanoic acid, 2-methyl-, butyl ester, C9H18O2, InChI=1S/C9H18O2/c1-4-6-7-11-9(10)8(3)5-2/h8H,4-7H2,1-3H3
Compound 11: methyl 3,3-dimethylbutanoate, C7H14O2, InChI=1S/C7H14O2/c1-7(2,3)5-6(8)9-4/h5H2,1-4H3

System: methyl butanoate; phases: Liquid, Gas
Property: Vapor or sublimation pressure, kPa (Liquid); method: Transpiration method
Temperature, K	Vapor or sublimation pressure, kPa	uncertainty
274.3	1.0595	0.077
276.4	1.2919	0.0916
278.2	1.3969	0.0982
279.4	1.4916	0.1049
281.3	1.6272	0.1247
281.6	1.7054	0.1297
283.4	1.854	0.1488
283.7	1.9648	0.1555
285.5	2.1021	0.1729
285.8	2.2401	0.1811
288.3	2.5374	0.1793
288.3	2.5229	0.1783
288.3	2.4665	0.1744
290.3	2.9269	0.2073
291.2	3.0853	0.217
291.2	2.9367	0.2068
292.2	3.2137	0.2258
293.2	3.3822	0.2404
294.3	3.7167	0.2669
295.3	4.0653	0.2856
298.1	4.4789	0.3153
300.2	5.2243	0.3681
301.2	5.303	0.3707
303.2	5.6967	0.3987

System: methyl pentanoate; phases: Liquid, Gas
Property: Vapor or sublimation pressure, kPa (Liquid); method: Transpiration method
Temperature, K	Vapor or sublimation pressure, kPa	uncertainty
274.9	0.3386	0.0239
275.2	0.3442	0.0243
278.2	0.4198	0.0297
279.4	0.4589	0.0326
281.2	0.5173	0.0366
282.6	0.5608	0.0399
284.2	0.6396	0.0468
284.3	0.6	0.0427
284.5	0.6182	0.0441
285.5	0.6907	0.0489
287.4	0.7539	0.0529
288.4	0.7888	0.0559
288.4	0.7837	0.0555
288.5	0.8195	0.0586
288.7	0.8268	0.0612
289.2	0.873	0.0621
290.3	0.9304	0.0655
292.4	1.0289	0.0724
293.3	1.0901	0.0783
293.4	1.1254	0.0806
294.5	1.2273	0.0866
296.2	1.3273	0.0943
297.5	1.5107	0.1069
298.3	1.5171	0.1064
299.2	1.6145	0.1149
299.2	1.5816	0.1128
302.2	1.9744	0.1392
302.2	1.9365	0.1366
305.2	2.2726	0.1599
308.2	2.653	0.1869
311.2	3.1101	0.2187

System: methyl hexanoate; phases: Liquid, Gas
Property: Vapor or sublimation pressure, kPa (Liquid); method: Transpiration method
Temperature, K	Vapor or sublimation pressure, kPa	uncertainty
280.7	0.1387	0.0099
283.6	0.1707	0.0121
284.6	0.1839	0.0131
286.6	0.2147	0.0152
287.6	0.2219	0.0158
289.5	0.2598	0.0185
290.5	0.2793	0.0197
290.5	0.2693	0.0191
292.5	0.3111	0.022
293.3	0.3367	0.024
293.4	0.3489	0.0248
293.5	0.3435	0.0244
295.4	0.3851	0.0273
296.4	0.4226	0.0298
298.3	0.4594	0.0326
298.4	0.4697	0.0333
300.3	0.5403	0.0383
303.3	0.6501	0.0461
304.3	0.7261	0.0514
308.3	0.8925	0.0627
309.3	0.9193	0.0654
312.3	1.147	0.0814
312.3	1.0483	0.0747
316.3	1.458	0.1027
320.4	1.7644	0.1243
324.4	2.2175	0.1561
328.4	2.6781	0.1885
331.4	3.1783	0.2238

System: methyl heptanoate; phases: Liquid, Gas
Property: Vapor or sublimation pressure, kPa (Liquid); method: Transpiration method
Temperature, K	Vapor or sublimation pressure, kPa	uncertainty
278.1	0.03453	0.00251
283.5	0.05365	0.00382
286.4	0.06767	0.00483
288.3	0.0791	0.00564
290.3	0.09122	0.00654
293.2	0.11643	0.00829
296.2	0.14244	0.0101
298.2	0.16418	0.01166
300.3	0.18924	0.01347
303.1	0.23255	0.01652
306.1	0.28381	0.02014
308.2	0.33214	0.02361
310.2	0.38037	0.02703
313.2	0.46579	0.03293

System: 1,1-dimethylpropyl acetate; phases: Liquid, Gas
Property: Vapor or sublimation pressure, kPa (Liquid); method: Transpiration method
Temperature, K	Vapor or sublimation pressure, kPa	uncertainty
273.7	0.3855	0.0289
274	0.4017	0.03
275.5	0.4449	0.0316
277.5	0.5063	0.0356
278.6	0.5244	0.037
279.5	0.5659	0.0401
281.6	0.6399	0.0452
283.5	0.716	0.0508
283.6	0.7353	0.0521
286.6	0.878	0.0618
288.4	0.9539	0.0674
289.7	1.053	0.0743
292.7	1.2176	0.0859
293.5	1.3356	0.0945
295.8	1.4919	0.105
298.4	1.6984	0.126
298.8	1.7851	0.1317
301.9	2.0786	0.1466
303.4	2.3304	0.1639
304.9	2.4176	0.1699
307.9	2.8287	0.2078
308.4	2.9941	0.2188

System: 1,1-dimethylpropyl propanoate; phases: Liquid, Gas
Property: Vapor or sublimation pressure, kPa (Liquid); method: Transpiration method
Temperature, K	Vapor or sublimation pressure, kPa	uncertainty
273.9	0.1147	0.0082
274.9	0.123	0.0088
276.9	0.1423	0.0101
278.9	0.1651	0.0117
281	0.1902	0.0135
283	0.2208	0.0157
286	0.2725	0.0193
289.1	0.3316	0.0235
292.2	0.4061	0.0288
295.2	0.4966	0.0352
298.2	0.5971	0.0423
301.2	0.7239	0.0511
304.3	0.8484	0.0599
307.4	1.0248	0.0725
310.4	1.2366	0.0873

System: 1,1-dimethylpropyl butanoate; phases: Liquid, Gas
Property: Vapor or sublimation pressure, kPa (Liquid); method: Transpiration method
Temperature, K	Vapor or sublimation pressure, kPa	uncertainty
274.5	0.04772	0.00346
276.5	0.05746	0.00411
278.2	0.06508	0.00462
278.6	0.06692	0.00475
280.6	0.07832	0.00558
282.6	0.09058	0.00645
283.3	0.09732	0.00693
285.6	0.11281	0.0081
288.2	0.14557	0.01016
288.7	0.14409	0.01005
291.7	0.1788	0.01271
293.2	0.20206	0.01432
294.8	0.22004	0.01565
297.4	0.26783	0.01911
298.2	0.2935	0.02084
300.4	0.33154	0.02354
303.2	0.40736	0.02859
303.5	0.40203	0.02822
306.5	0.49057	0.03479
308.2	0.55878	0.03954
309.5	0.59462	0.04178

System: butyl 2,2-dimethylpropanoate; phases: Liquid, Gas
Property: Vapor or sublimation pressure, kPa (Liquid); method: Transpiration method
Temperature, K	Vapor or sublimation pressure, kPa	uncertainty
273.6	0.0462	0.00346
273.9	0.04812	0.00349
274.7	0.0517	0.00373
276.5	0.06076	0.00432
278.4	0.06784	0.00486
282.6	0.09472	0.00679
283.2	0.09954	0.00712
285.6	0.12391	0.00881
288.3	0.1447	0.01062
288.7	0.15141	0.01107
291.7	0.18716	0.01327
293.2	0.20731	0.01476
294.8	0.23434	0.0167
297.8	0.28857	0.02026
298.1	0.28469	0.01999
300.8	0.34725	0.0247
303.3	0.41494	0.02928
303.9	0.42902	0.03024
307	0.51756	0.0365
308.3	0.55522	0.0394
309	0.59596	0.04311
313.3	0.74735	0.05252

System: 2-methylpropyl 2-methylpropanoate; phases: Liquid, Gas
Property: Vapor or sublimation pressure, kPa (Liquid); method: Transpiration method
Temperature, K	Vapor or sublimation pressure, kPa	uncertainty
274.2	0.10536	0.0076
276.2	0.12533	0.00898
278.2	0.14788	0.01059
283.2	0.21181	0.01505
288.2	0.29615	0.0211
293.2	0.43457	0.03087
298.2	0.60027	0.04252
303.3	0.82736	0.05857
308.4	1.137	0.0803
311.2	1.3631	0.096
313.4	1.4966	0.1061
316.2	1.8515	0.1314
319.2	2.2235	0.1568

System: butanoic acid, 2-methyl-, butyl ester; phases: Liquid, Gas
Property: Vapor or sublimation pressure, kPa (Liquid); method: Transpiration method
Temperature, K	Vapor or sublimation pressure, kPa	uncertainty
274.2	0.02305	0.00163
276.2	0.02587	0.00185
278.2	0.03181	0.00227
280.2	0.0362	0.0026
283.2	0.04723	0.0034
288.1	0.06951	0.00498
293.1	0.10434	0.00745
298.1	0.15173	0.01079
303.2	0.21421	0.01524
308.2	0.30991	0.022
313.3	0.43053	0.03053
316.2	0.54542	0.03884
319.2	0.66941	0.04735

System: methyl 3,3-dimethylbutanoate; phases: Liquid, Gas
Property: Vapor or sublimation pressure, kPa (Liquid); method: Transpiration method
Temperature, K	Vapor or sublimation pressure, kPa	uncertainty
273.9	0.3046	0.0218
274.4	0.3169	0.0226
275.9	0.3519	0.0251
277.4	0.3954	0.0282
278.7	0.436	0.0311
279.5	0.4645	0.0329
281.5	0.5226	0.037
282.5	0.5675	0.0403
283.3	0.5937	0.0421
285.5	0.6878	0.0488
288.2	0.8223	0.0574
288.6	0.8158	0.0569
291.6	0.9977	0.0708
293.2	1.1305	0.0798
294.6	1.1948	0.0844
297.7	1.4364	0.1072
298.2	1.5326	0.1135
301.8	1.8542	0.1307
303.2	2.0419	0.1442
303.8	2.0888	0.1463
306.9	2.4983	0.1764
308.2	2.7372	0.1927
309	2.7827	0.1941
313.2	3.5911	0.253
