Measured thermophysical data. Thermodynamic equilibrium of hexamethylenediammonium glutarate in mono-solvents and binary solvent systems
Source: Fluid Phase Equilib., 2019, 10.1016/j.fluid.2018.12.008
Compound 1: hexamethylenediamine adipate, C12H26N2O4, InChI=1S/C6H16N2.C6H10O4/c7-5-3-1-2-4-6-8;7-5(8)3-1-2-4-6(9)10/h1-8H2;1-4H2,(H,7,8)(H,9,10), purity 99.5%
Compound 2: water, H2O, InChI=1S/H2O/h1H2, purity 99.8%
Compound 3: hexamethylenediammonium glutarate, C11H24N2O4, InChI=1S/C6H16N2.C5H8O4/c7-5-3-1-2-4-6-8;6-4(7)2-1-3-5(8)9/h1-8H2;1-3H2,(H,6,7)(H,8,9), purity 99.5%
Compound 4: methanol, CH4O, InChI=1S/CH4O/c1-2/h2H,1H3, purity 99.5%
Compound 5: acetic acid, C2H4O2, InChI=1S/C2H4O2/c1-2(3)4/h1H3,(H,3,4), purity 99.5%
Compound 6: 1,2-ethanediol, C2H6O2, InChI=1S/C2H6O2/c3-1-2-4/h3-4H,1-2H2, purity 99.5%
Compound 7: ethanol, C2H6O, InChI=1S/C2H6O/c1-2-3/h3H,2H2,1H3, purity 99.5%
Compound 8: propan-2-ol, C3H8O, InChI=1S/C3H8O/c1-3(2)4/h3-4H,1-2H3, purity 99.5%
Compound 9: butan-1-ol, C4H10O, InChI=1S/C4H10O/c1-2-3-4-5/h5H,2-4H2,1H3, purity 99.5%
Compound 10: dimethylformamide, C3H7NO, InChI=1S/C3H7NO/c1-4(2)3-5/h3H,1-2H3, purity 99.5%

System: hexamethylenediamine adipate + water; phases: Liquid, Crystal
Fixed: Pressure, kPa = 101
Property: Mole fraction of hexamethylenediamine adipate (Liquid); method: Phase equilibration
Temperature, K	Mole fraction of hexamethylenediamine adipate	uncertainty
306.35	0.0664	0.012
314.5	0.0706	0.0127
317.57	0.0716	0.0129
322.93	0.0742	0.0134
325.44	0.0756	0.0136
330.28	0.0776	0.014
337.47	0.0818	0.0147
340.15	0.0836	0.015
346.65	0.087	0.0157
351.25	0.0895	0.0161

System: hexamethylenediammonium glutarate + methanol; phases: Liquid, Crystal
Fixed: Pressure, kPa = 101
Property: Mole fraction of hexamethylenediammonium glutarate (Liquid); method: Phase equilibration
Temperature, K	Mole fraction of hexamethylenediammonium glutarate	uncertainty
293.55	0.0578	0.0104
296.95	0.0639	0.0115
299.25	0.0684	0.0123
301.85	0.0737	0.0133
305.84	0.0826	0.0149
309.2	0.0908	0.0163
310.64	0.0945	0.017
315.56	0.1081	0.0195
318.76	0.1177	0.0212
321.35	0.1259	0.0227
326.13	0.1429	0.0257
329.88	0.1498	0.027

System: hexamethylenediammonium glutarate + water; phases: Liquid, Crystal
Fixed: Pressure, kPa = 101
Property: Mole fraction of hexamethylenediammonium glutarate (Liquid); method: Phase equilibration
Temperature, K	Mole fraction of hexamethylenediammonium glutarate	uncertainty
294.95	0.1107	0.0199
297.76	0.1206	0.0217
300.56	0.1305	0.0235
302.31	0.1367	0.0246
304.77	0.1454	0.0262
306.87	0.1528	0.0275
308.63	0.159	0.029
311.43	0.1689	0.0304
313.54	0.1764	0.0318
319.5	0.1974	0.0355
324.41	0.2138	0.0385
329.52	0.2311	0.0416

System: hexamethylenediammonium glutarate + acetic acid; phases: Liquid, Crystal
Fixed: Pressure, kPa = 101
Property: Mole fraction of hexamethylenediammonium glutarate (Liquid); method: Phase equilibration
Temperature, K	Mole fraction of hexamethylenediammonium glutarate	uncertainty
293.17	0.16	0.0288
294.65	0.165	0.0297
296.67	0.1713	0.0308
299.13	0.1801	0.0324
302.97	0.1927	0.0347
305.13	0.2003	0.0361
307.23	0.2079	0.0374
311.65	0.223	0.0401
316.45	0.2394	0.0431
320.44	0.2533	0.0456
326.32	0.2734	0.0492
329.89	0.2848	0.0513

System: hexamethylenediammonium glutarate + 1,2-ethanediol; phases: Liquid, Crystal
Fixed: Pressure, kPa = 101
Property: Mole fraction of hexamethylenediammonium glutarate (Liquid); method: Phase equilibration
Temperature, K	Mole fraction of hexamethylenediammonium glutarate	uncertainty
294.05	0.1555	0.028
295.06	0.1583	0.0285
303.57	0.1788	0.0322
309.85	0.1947	0.035
312.88	0.2022	0.0364
315.86	0.2097	0.0377
318.61	0.2171	0.0391
320.47	0.2218	0.0399
322.05	0.2256	0.0406
323.65	0.2302	0.0414
326.75	0.2377	0.0428
330.95	0.248	0.0446

System: hexamethylenediammonium glutarate + methanol + ethanol; phases: Liquid, Crystal
Fixed: Pressure, kPa = 101
Property: Mole fraction of hexamethylenediammonium glutarate (Liquid); method: Phase equilibration
Solvent: Mass fraction of methanol	Temperature, K	Mole fraction of hexamethylenediammonium glutarate	uncertainty
0.0533	293.25	0.0002864	5.16e-05
0.0533	298.15	0.0003847	6.93e-05
0.0533	303.65	0.0004705	8.47e-05
0.0533	307.15	0.000553	9.96e-05
0.0533	312.45	0.0006184	0.0001113
0.0533	318.25	0.0007367	0.0001326
0.0533	325.45	0.0009615	0.0001731
0.0533	330.55	0.0012131	0.0002184
0.0533	334.45	0.0014371	0.0002588
0.0933	293.65	0.0003894	7.01e-05
0.0933	297.85	0.000463	8.34e-05
0.0933	302.05	0.0005207	9.38e-05
0.0933	307.75	0.0006859	0.0001235
0.0933	311.95	0.0008381	0.0001509
0.0933	317.25	0.0010127	0.0001823
0.0933	323.15	0.0012199	0.0002196
0.0933	328.15	0.0014192	0.0002555
0.0933	332.35	0.0016891	0.0003042
0.1438	292.95	0.0005023	9.05e-05
0.1438	298.15	0.0006558	0.0001181
0.1438	303.45	0.0008443	0.000152
0.1438	307.85	0.0009877	0.0001778
0.1438	313.25	0.0012216	0.0002199
0.1438	317.95	0.0014468	0.0002605
0.1438	324.55	0.0017157	0.0003089
0.1438	328.55	0.002034	0.0003662
0.1438	333.55	0.0023846	0.0004293
0.1993	293.65	0.0006732	0.0001212
0.1993	298.15	0.0008254	0.0001486
0.1993	302.45	0.0009988	0.0001798
0.1993	307.33	0.001186	0.0002136
0.1993	312.2	0.0015752	0.0002836
0.1993	317.85	0.0019422	0.0003497
0.1993	323.13	0.0023171	0.0004172
0.1993	327.25	0.0028042	0.0005049
0.1993	332.3	0.0033978	0.0006119
0.2574	293.15	0.0009698	0.0001746
0.2574	296.88	0.0011587	0.0002087
0.2574	301.98	0.0014709	0.0002649
0.2574	307.83	0.0019588	0.0003527
0.2574	316.6	0.002793	0.0005029
0.2574	320.95	0.0033896	0.0006104
0.2574	325.55	0.004189	0.0007543
0.2574	329.45	0.004874	0.0008776
0.2574	332.75	0.0056351	0.0010147

System: hexamethylenediammonium glutarate + methanol + propan-2-ol; phases: Liquid, Crystal
Fixed: Pressure, kPa = 101
Property: Mole fraction of hexamethylenediammonium glutarate (Liquid); method: Phase equilibration
Solvent: Mass fraction of methanol	Temperature, K	Mole fraction of hexamethylenediammonium glutarate	uncertainty
0.2957	293.25	0.0001491	2.69e-05
0.2957	298.15	0.0001918	3.45e-05
0.2957	303.65	0.0002502	4.51e-05
0.2957	307.95	0.0003046	5.48e-05
0.2957	313.45	0.0003862	6.95e-05
0.2957	317.53	0.0004562	8.21e-05
0.2957	322.95	0.0005625	0.0001013
0.2957	329.55	0.0007134	0.0001284
0.2957	333.54	0.0008165	0.000147
0.3378	293.65	0.0002462	4.43e-05
0.3378	297.85	0.0002942	5.3e-05
0.3378	302.05	0.0003513	6.33e-05
0.3378	306.75	0.0004279	7.7e-05
0.3378	311.05	0.0005117	9.21e-05
0.3378	316.95	0.0006523	0.0001175
0.3378	322.85	0.0008278	0.0001491
0.3378	328.85	0.0010497	0.000189
0.3378	334.05	0.0012848	0.0002313
0.3953	293.25	0.0003462	6.23e-05
0.3953	298.15	0.0003942	7.1e-05
0.3953	305.7	0.000628	0.0001131
0.3953	309.65	0.0007378	0.0001329
0.3953	315.45	0.000971	0.0001748
0.3953	319.85	0.001171	0.0002108
0.3953	323.45	0.001271	0.0002288
0.3953	327.05	0.0014585	0.0002626
0.3953	332.85	0.0017483	0.0003149
0.4503	293.55	0.000452	8.14e-05
0.4503	297.75	0.0005133	9.24e-05
0.4503	302.15	0.0006703	0.0001207
0.4503	305.75	0.0008242	0.0001484
0.4503	310.25	0.0010527	0.0001896
0.4503	315.35	0.0013649	0.0002458
0.4503	320.95	0.0017787	0.0003203
0.4503	328.55	0.0024678	0.0004443
0.4503	333.65	0.0030157	0.0005431
0.5	293.25	0.0007302	0.0001315
0.5	297.45	0.0009186	0.0001654
0.5	302.85	0.0012246	0.0002205
0.5	306.85	0.0015072	0.0002714
0.5	311.25	0.0019132	0.0003445
0.5	316.05	0.002391	0.0004306
0.5	320.1	0.0029097	0.000524
0.5	325.65	0.0037838	0.0006814
0.5	332.05	0.0050775	0.0009142

System: hexamethylenediammonium glutarate + methanol + butan-1-ol; phases: Liquid, Crystal
Fixed: Pressure, kPa = 101
Property: Mole fraction of hexamethylenediammonium glutarate (Liquid); method: Phase equilibration
Solvent: Mass fraction of methanol	Temperature, K	Mole fraction of hexamethylenediammonium glutarate	uncertainty
0.3627	293.25	0.001076	0.0001937
0.3627	298.65	0.0013155	0.0002369
0.3627	303.95	0.0015901	0.0002863
0.3627	307.15	0.0017768	0.0003199
0.3627	314.85	0.0022868	0.0004117
0.3627	321.4	0.0028512	0.0005133
0.3627	328.15	0.003459	0.0006228
0.3627	333.25	0.0042319	0.0007619
0.408	293.35	0.0016436	0.0002959
0.408	298.15	0.0019844	0.0003573
0.408	303.25	0.0024128	0.0004344
0.408	307.15	0.0028297	0.0005095
0.408	312.95	0.0033783	0.0006082
0.408	317.75	0.0039339	0.0007083
0.408	322.65	0.0048732	0.0008775
0.408	328.25	0.0059225	0.0010663
0.408	333.05	0.0069136	0.0012446
0.45	293.35	0.0023993	0.0004319
0.45	298.65	0.0028642	0.0005157
0.45	304.25	0.0034362	0.0006186
0.45	307.75	0.0038405	0.0006914
0.45	311.15	0.004311	0.0007763
0.45	316.15	0.0050465	0.0009087
0.45	321.65	0.0058584	0.0010547
0.45	327.65	0.006709	0.001208
0.45	332.35	0.0081646	0.0014728
0.5	293.55	0.004345	0.0007823
0.5	299.43	0.0054213	0.0009761
0.5	303.45	0.0064063	0.0011535
0.5	307.45	0.0074987	0.0013501
0.5	312.35	0.0087792	0.0015805
0.5	317.95	0.0101156	0.0018213
0.5	321.65	0.0124329	0.0022388
0.5	327.95	0.0159219	0.0028668
0.5	332.65	0.019499	0.003513
0.5512	293.45	0.0065284	0.0011754
0.5512	298.25	0.00763	0.0013742
0.5512	303.75	0.0109859	0.0019783
0.5512	307.35	0.0122195	0.0022002
0.5512	312.65	0.015347	0.0027632
0.5512	317.05	0.0177745	0.0032005
0.5512	321.85	0.0222109	0.0040005
0.5512	326.74	0.030701	0.0055291
0.5512	332.85	0.0408264	0.0073511

System: hexamethylenediammonium glutarate + methanol + dimethylformamide; phases: Liquid, Crystal
Fixed: Pressure, kPa = 101
Property: Mole fraction of hexamethylenediammonium glutarate (Liquid); method: Phase equilibration
Solvent: Mass fraction of methanol	Temperature, K	Mole fraction of hexamethylenediammonium glutarate	uncertainty
0.4316	293.65	0.000304	5.47e-05
0.4316	298.35	0.0003487	6.28e-05
0.4316	300.65	0.0003738	6.73e-05
0.4316	305.15	0.0004301	7.74e-05
0.4316	309.35	0.0004924	8.87e-05
0.4316	315.15	0.0005978	0.0001076
0.4316	320.05	0.0007082	0.0001275
0.4316	322.95	0.0007847	0.0001413
0.4316	327.65	0.0009297	0.0001674
0.4316	333.45	0.0011524	0.0002075
0.4983	293.45	0.0006067	0.0001092
0.4983	298.35	0.0007035	0.0001267
0.4983	300.75	0.0007573	0.0001363
0.4983	305.25	0.0008859	0.0001595
0.4983	309.35	0.0010109	0.000182
0.4983	315.4	0.0012295	0.0002214
0.4983	319.25	0.0013942	0.000251
0.4983	322.15	0.0015331	0.000276
0.4983	327.55	0.001818	0.0003273
0.4983	332.75	0.0020886	0.0003766
0.5519	293.25	0.0010054	0.000181
0.5519	298.45	0.0012109	0.000218
0.5519	300.75	0.0013162	0.000237
0.5519	305.25	0.0015523	0.0002795
0.5519	307.65	0.0016966	0.0003055
0.5519	314.47	0.0021902	0.0003944
0.5519	319.25	0.0026248	0.0004726
0.5519	323.8	0.0031218	0.0005621
0.5519	328.15	0.0036869	0.0006641
0.5519	333.04	0.0051879	0.000935
0.6013	293.45	0.0015424	0.0002778
0.6013	298.35	0.0018491	0.0003329
0.6013	300.75	0.0020406	0.0003674
0.6013	307.15	0.0025044	0.0004509
0.6013	311.25	0.0030412	0.0005477
0.6013	315.15	0.0036973	0.0006658
0.6013	320.15	0.0045174	0.0008134
0.6013	324.73	0.005665	0.0010203
0.6013	329.53	0.0076326	0.0013749
0.6013	334.45	0.0104276	0.0018779
0.6541	293.65	0.0018842	0.0003395
0.6541	298.35	0.0025424	0.0004578
0.6541	303.65	0.0030501	0.0005492
0.6541	307.95	0.0038697	0.0006968
0.6541	312.8	0.0044429	0.0008
0.6541	316.9	0.0056442	0.0010168
0.6541	320.81	0.0077175	0.0013902
0.6541	324.65	0.0096991	0.0017464
0.6541	329.65	0.0112839	0.0020318
0.6541	333.6	0.0140622	0.0025323
