Measured thermophysical data. The influence of temperature on liquid-liquid-solid equilibria for (water + 2-propanol + KCl +NH4Cl) quaternary system
Source: Fluid Phase Equilib., 2016, 10.1016/j.fluid.2016.05.029
Compound 1: potassium chloride, ClK, InChI=1S/ClH.K/h1H;/q;+1/p-1, purity 99.5%
Compound 2: water, H2O, InChI=1S/H2O/h1H2, purity 99.8%
Compound 3: ammonium chloride (NH4Cl), ClH4N, InChI=1S/ClH.H3N/h1H;1H3, purity 99.5%
Compound 4: propan-2-ol, C3H8O, InChI=1S/C3H8O/c1-3(2)4/h3-4H,1-2H3, purity 99.5%

System: potassium chloride + water; phases: Liquid, Crystal
Fixed: Pressure, kPa = 101
Property: Mass fraction of potassium chloride (Liquid); method: Titration method
Temperature, K	Mass fraction of potassium chloride	uncertainty
298.15	0.2635	0.004
303.15	0.2708	0.0041
308.15	0.2784	0.0041
313.15	0.2862	0.0041
318.15	0.2941	0.0041

System: water + ammonium chloride (NH4Cl); phases: Liquid, Crystal
Fixed: Pressure, kPa = 101.325
Property: Mass fraction of ammonium chloride (NH4Cl) (Liquid); method: Titration method
Temperature, K	Mass fraction of ammonium chloride (NH4Cl)	uncertainty
298.15	0.2803	0.0041
303.15	0.2925	0.0041
308.15	0.3036	0.0041
313.15	0.3141	0.0041
318.15	0.325	0.0041

System: propan-2-ol + potassium chloride + water; phases: Liquid, Crystal
Fixed: Pressure, kPa = 101.325
Fixed: Solvent: Mass fraction of propan-2-ol = 0.05
Property: Mass fraction of potassium chloride (Liquid); method: Titration method
Temperature, K	Mass fraction of potassium chloride	uncertainty
298.15	0.2347	0.004
303.15	0.2413	0.004
308.15	0.2486	0.004
313.15	0.2567	0.0041
318.15	0.2652	0.0041

System: propan-2-ol + potassium chloride + water; phases: Liquid, Crystal
Fixed: Pressure, kPa = 101.325
Fixed: Temperature, K = 298.45
Property: Mass fraction of potassium chloride (Liquid); method: Titration method
Mass fraction of propan-2-ol	Mass fraction of potassium chloride	uncertainty
0	0.264	0.006
0.113	0.194	0.006
0.865	0.003	0.003
0.735	0.015	0.006
0.602	0.04	0.006
0.431	0.089	0.006
0.236	0.186	0.006

System: propan-2-ol + potassium chloride + water; phases: Liquid mixture 1, Liquid mixture 2
Fixed: Pressure, kPa = 101.325
Property: Mass fraction of water (Liquid mixture 1); method: concentration of potassium was calculated by subtracting the concentration of ammonium ion from the total anion
Temperature, K	Mass fraction of potassium chloride	Mass fraction of water	uncertainty
303.15	0.365	0.594	0.013
303.15	0.389	0.565	0.013
303.15	0.409	0.538	0.014
303.15	0.419	0.525	0.014
303.15	0.438	0.501	0.014
303.15	0.451	0.483	0.014
303.15	0.465	0.465	0.014
303.15	0.478	0.448	0.014
303.15	0.486	0.437	0.014
303.15	0.494	0.426	0.014
303.15	0.51	0.404	0.013
303.15	0.517	0.394	0.013
303.15	0.528	0.379	0.013
303.15	0.532	0.374	0.013
303.15	0.538	0.365	0.013
303.15	0.545	0.355	0.013
303.15	0.558	0.336	0.013
303.15	0.568	0.322	0.013
303.15	0.576	0.31	0.013
303.15	0.59	0.289	0.013
303.15	0.597	0.277	0.013
303.15	0.605	0.265	0.013
303.15	0.615	0.248	0.013
303.15	0.619	0.241	0.013
303.15	0.627	0.227	0.012
303.15	0.638	0.21	0.013
303.15	0.643	0.201	0.013
303.15	0.647	0.193	0.014
303.15	0.651	0.185	0.016
303.15	0.654	0.178	0.017
303.15	0.655	0.173	0.019
303.15	0.658	0.166	0.018
303.15	0.66	0.16	0.035
303.15	0.661	0.156	0.02
303.15	0.663	0.146	0.021
303.15	0.664	0.14	0.023
303.15	0.664	0.135	0.026
303.15	0.663	0.13	0.033
303.15	0.658	0.124	0.053
303.15	0.653	0.12	0.018
303.15	0.649	0.119	0.02
303.15	0.642	0.118	0.033
308.15	0.333	0.632	0.012
308.15	0.349	0.612	0.013
308.15	0.368	0.588	0.013
308.15	0.384	0.568	0.013
308.15	0.405	0.541	0.014
308.15	0.423	0.519	0.014
308.15	0.44	0.497	0.014
308.15	0.453	0.48	0.014
308.15	0.468	0.461	0.014
308.15	0.481	0.443	0.014
308.15	0.495	0.425	0.013
308.15	0.508	0.408	0.013
308.15	0.522	0.389	0.013
308.15	0.531	0.376	0.013
308.15	0.542	0.361	0.013
308.15	0.553	0.346	0.013
308.15	0.566	0.327	0.013
308.15	0.577	0.311	0.012
308.15	0.586	0.299	0.012
308.15	0.598	0.28	0.013
308.15	0.605	0.269	0.012
308.15	0.614	0.256	0.012
308.15	0.623	0.241	0.013
308.15	0.629	0.231	0.013
308.15	0.635	0.22	0.012
308.15	0.645	0.205	0.013
308.15	0.649	0.197	0.013
308.15	0.654	0.187	0.014
308.15	0.658	0.179	0.014
308.15	0.662	0.17	0.016
308.15	0.665	0.163	0.019
308.15	0.667	0.156	0.037
308.15	0.669	0.15	0.02
308.15	0.671	0.144	0.023
308.15	0.672	0.136	0.023
308.15	0.672	0.131	0.028
308.15	0.671	0.127	0.011
308.15	0.67	0.122	0.012
308.15	0.667	0.117	0.015
308.15	0.663	0.115	0.028
308.15	0.659	0.113	0.018
313.15	0.301	0.669	0.012
313.15	0.309	0.659	0.012
313.15	0.326	0.639	0.012
313.15	0.349	0.61	0.013
313.15	0.372	0.582	0.013
313.15	0.394	0.555	0.014
313.15	0.415	0.528	0.014
313.15	0.429	0.511	0.014
313.15	0.449	0.485	0.014
313.15	0.468	0.461	0.014
313.15	0.48	0.445	0.014
313.15	0.498	0.422	0.013
313.15	0.515	0.4	0.013
313.15	0.531	0.378	0.013
313.15	0.546	0.358	0.013
313.15	0.561	0.337	0.013
313.15	0.574	0.319	0.012
313.15	0.587	0.3	0.012
313.15	0.596	0.288	0.012
313.15	0.607	0.271	0.012
313.15	0.614	0.261	0.012
313.15	0.624	0.246	0.013
313.15	0.63	0.236	0.012
313.15	0.638	0.222	0.013
313.15	0.644	0.213	0.013
313.15	0.651	0.2	0.013
313.15	0.656	0.192	0.013
313.15	0.662	0.181	0.028
313.15	0.665	0.174	0.032
313.15	0.67	0.164	0.015
313.15	0.674	0.154	0.016
313.15	0.677	0.146	0.018
313.15	0.678	0.141	0.019
313.15	0.68	0.133	0.014
313.15	0.68	0.127	0.01
313.15	0.68	0.121	0.007
313.15	0.679	0.117	0.007
313.15	0.677	0.115	0.037
313.15	0.675	0.112	0.031
313.15	0.672	0.11	0.028
313.15	0.669	0.108	0.016
318.15	0.269	0.707	0.011
318.15	0.27	0.704	0.011
318.15	0.284	0.69	0.011
318.15	0.314	0.653	0.012
318.15	0.339	0.623	0.012
318.15	0.366	0.59	0.013
318.15	0.391	0.559	0.013
318.15	0.405	0.542	0.014
318.15	0.431	0.509	0.014
318.15	0.455	0.478	0.014
318.15	0.466	0.465	0.014
318.15	0.488	0.436	0.014
318.15	0.508	0.41	0.013
318.15	0.531	0.38	0.013
318.15	0.55	0.354	0.013
318.15	0.568	0.329	0.012
318.15	0.582	0.31	0.012
318.15	0.597	0.289	0.012
318.15	0.605	0.278	0.012
318.15	0.615	0.263	0.012
318.15	0.622	0.253	0.012
318.15	0.633	0.236	0.012
318.15	0.637	0.23	0.012
318.15	0.649	0.212	0.012
318.15	0.653	0.205	0.012
318.15	0.658	0.195	0.013
318.15	0.662	0.188	0.013
318.15	0.669	0.175	0.014
318.15	0.673	0.168	0.025
318.15	0.678	0.156	0.026
318.15	0.683	0.145	0.015
318.15	0.686	0.136	0.016
318.15	0.687	0.131	0.018
318.15	0.689	0.121	0.015
318.15	0.689	0.118	0.013
318.15	0.689	0.111	0.008
318.15	0.687	0.109	0.032
318.15	0.685	0.106	0.043
318.15	0.684	0.105	0.035
318.15	0.682	0.105	0.02
318.15	0.678	0.104	0.028

System: propan-2-ol + potassium chloride + water; phases: Liquid mixture 1, Liquid mixture 2
Property: Mass fraction of potassium chloride (Liquid mixture 1); method: Titration method
Property: Mass fraction of potassium chloride (Liquid mixture 2); method: Titration method
Property: Mass fraction of propan-2-ol (Liquid mixture 2); method: Titration method
Mass fraction of propan-2-ol	Temperature, K	Pressure, kPa	Mass fraction of potassium chloride	uncertainty	Mass fraction of potassium chloride	uncertainty	Mass fraction of propan-2-ol	uncertainty
0.431	298.45	101.325	0.089	0.007	0.186	0.008	0.236	

System: propan-2-ol + water + ammonium chloride (NH4Cl); phases: Liquid, Crystal
Fixed: Pressure, kPa = 101.325
Fixed: Solvent: Mass fraction of propan-2-ol = 0.05
Property: Mass fraction of ammonium chloride (NH4Cl) (Liquid); method: Titration method
Temperature, K	Mass fraction of ammonium chloride (NH4Cl)	uncertainty
298.15	0.27	0.0041
303.15	0.2809	0.0041
308.15	0.2907	0.0041
313.15	0.3006	0.0041
318.15	0.3122	0.0041

System: propan-2-ol + water + ammonium chloride (NH4Cl); phases: Liquid, Crystal
Fixed: Pressure, kPa = 101.325
Property: Mass fraction of ammonium chloride (NH4Cl) (Liquid); method: Titration method
Temperature, K	Mass fraction of propan-2-ol	Mass fraction of ammonium chloride (NH4Cl)	uncertainty
310.35	0	0.28	0.009
310.35	0.101	0.207	0.007
310.35	0.858	0.014	0.006
310.35	0.718	0.038	0.006
310.35	0.583	0.07	0.006
310.35	0.457	0.113	0.006
310.35	0.346	0.14	0.006
310.35	0.288	0.158	0.007
310.35	0.202	0.181	0.007
311.15	0	0.304	0.006
311.15	0.107	0.23	0.007
311.15	0.847	0.021	0.006
311.15	0.698	0.041	0.006
311.15	0.566	0.077	0.006
311.15	0.442	0.115	0.006
311.15	0.331	0.148	0.006
311.15	0.298	0.168	0.006
311.15	0.187	0.171	0.006
313.15	0	0.314	0.006
313.15	0.822	0.036	0.006
313.15	0.67	0.05	0.006
313.15	0.54	0.09	0.006
313.15	0.414	0.129	0.006
313.15	0.284	0.16	0.006
313.15	0.248	0.17	0.006
313.15	0.153	0.183	0.007

System: propan-2-ol + water + ammonium chloride (NH4Cl); phases: Liquid mixture 2, Liquid mixture 1
Fixed: Pressure, kPa = 101.325
Property: Mass fraction of ammonium chloride (NH4Cl) (Liquid mixture 2); method: Titration method
Property: Mass fraction of ammonium chloride (NH4Cl) (Liquid mixture 1); method: Titration method
Property: Mass fraction of propan-2-ol (Liquid mixture 1); method: Titration method
Temperature, K	Mass fraction of propan-2-ol	Mass fraction of ammonium chloride (NH4Cl)	uncertainty	Mass fraction of ammonium chloride (NH4Cl)	uncertainty	Mass fraction of propan-2-ol	uncertainty
310.35	0.202	0.181	0.008	0.158	0.01	0.288	
311.15	0.187	0.171	0.021	0.168	0.008	0.298	
313.15	0.142	0.221	0.025	0.133	0.008	0.313	
313.15	0.169	0.202	0.012	0.146	0.008	0.276	
313.15	0.153	0.183	0.009	0.17	0.009	0.248	

System: propan-2-ol + water + ammonium chloride (NH4Cl); phases: Liquid mixture 1, Liquid mixture 2
Fixed: Pressure, kPa = 101.325
Property: Mass fraction of ammonium chloride (NH4Cl) (Liquid mixture 1); method: determined by means of oxidation with potassium
Temperature, K	Mass fraction of propan-2-ol	Mass fraction of ammonium chloride (NH4Cl)	uncertainty
313.15	0.126	0.416	0.015
313.15	0.128	0.421	0.014
313.15	0.133	0.427	0.015
313.15	0.137	0.433	0.015
313.15	0.141	0.438	0.016
313.15	0.145	0.444	0.016
313.15	0.148	0.449	0.016
313.15	0.152	0.453	0.016
313.15	0.156	0.458	0.016
313.15	0.16	0.462	0.016
313.15	0.164	0.465	0.016
313.15	0.168	0.467	0.016
313.15	0.172	0.47	0.017
313.15	0.176	0.473	0.017
313.15	0.18	0.476	0.017
313.15	0.184	0.478	0.017
313.15	0.188	0.481	0.018
313.15	0.192	0.482	0.018
313.15	0.196	0.485	0.018
313.15	0.199	0.487	0.018
313.15	0.204	0.487	0.019
313.15	0.207	0.489	0.019
313.15	0.212	0.49	0.019
313.15	0.215	0.491	0.019
313.15	0.219	0.489	0.019
313.15	0.223	0.488	0.02
318.15	0.114	0.369	0.025
318.15	0.12	0.346	0.023
318.15	0.126	0.323	0.024
318.15	0.131	0.308	0.023
318.15	0.136	0.289	0.022
318.15	0.141	0.274	0.022
318.15	0.146	0.259	0.021
318.15	0.151	0.243	0.021
318.15	0.155	0.231	0.02
318.15	0.159	0.22	0.02
318.15	0.166	0.203	0.019
318.15	0.17	0.193	0.019
318.15	0.175	0.182	0.019
318.15	0.178	0.175	0.019
318.15	0.182	0.167	0.018
318.15	0.186	0.159	0.018
318.15	0.192	0.148	0.018
318.15	0.197	0.14	0.018
318.15	0.202	0.132	0.018
318.15	0.208	0.124	0.018
318.15	0.214	0.116	0.017
318.15	0.219	0.112	0.017
318.15	0.226	0.106	0.017
318.15	0.23	0.102	0.017
318.15	0.237	0.098	0.017
318.15	0.242	0.096	0.017
318.15	0.248	0.094	0.017
318.15	0.252	0.094	0.017
318.15	0.258	0.095	0.017
318.15	0.263	0.095	0.017

System: propan-2-ol + potassium chloride; phases: Liquid, Crystal
Fixed: Pressure, kPa = 101.325
Property: Mass fraction of potassium chloride (Liquid); method: Titration method
Temperature, K	Mass fraction of potassium chloride	uncertainty
298.15	0.00014	0.00014
303.15	0.00019	0.00019
308.15	0.0002	0.0002
313.15	0.00021	0.00021
318.15	0.00022	0.00022

System: propan-2-ol + ammonium chloride (NH4Cl); phases: Liquid, Crystal
Fixed: Pressure, kPa = 101.325
Property: Mass fraction of ammonium chloride (NH4Cl) (Liquid); method: Titration method
Temperature, K	Mass fraction of ammonium chloride (NH4Cl)	uncertainty
298.15	0.00374	0.00374
303.15	0.00387	0.00387
308.15	0.00401	0.004
313.15	0.00426	0.004
318.15	0.00459	0.004
