Measured thermophysical data. Isobaric vapor-liquid equilibrium for 2-butanone + ethanol + phosphate-based ionic liquids at 101.3 kPa
Source: Fluid Phase Equilib., 2018, 10.1016/j.fluid.2017.10.001
Compound 1: butanone, C4H8O, InChI=1S/C4H8O/c1-3-4(2)5/h3H2,1-2H3, purity 99.5%
Compound 2: ethanol, C2H6O, InChI=1S/C2H6O/c1-2-3/h3H,2H2,1H3, purity 99.5%
Compound 3: 1-ethyl-3-methylimidazolium diethyl phosphate, C10H21N2O4P, InChI=1S/C6H11N2.C4H11O4P/c1-3-8-5-4-7(2)6-8;1-3-7-9(5,6)8-4-2/h4-6H,3H2,1-2H3;3-4H2,1-2H3,(H,5,6)/q+1;/p-1, purity 98%
Compound 4: 1-butyl-3-methylimidazolium diethyl phosphate, C12H25N2O4P, InChI=1S/C8H15N2.C4H11O4P/c1-3-4-5-10-7-6-9(2)8-10;1-3-7-9(5,6)8-4-2/h6-8H,3-5H2,1-2H3;3-4H2,1-2H3,(H,5,6)/q+1;/p-1, purity 98%
Compound 5: 1-butyl-3-methylimidazolium dibutyl phosphate, C16H33N2O4P, InChI=1S/C8H15N2.C8H19O4P/c1-3-4-5-10-7-6-9(2)8-10;1-3-5-7-11-13(9,10)12-8-6-4-2/h6-8H,3-5H2,1-2H3;3-8H2,1-2H3,(H,9,10)/q+1;/p-1, purity 98%

System: butanone; phases: Liquid, Gas
Property: Vapor or sublimation pressure, kPa (Liquid); method: Ebulliometric method (Recirculating still)
Temperature, K	Vapor or sublimation pressure, kPa	uncertainty
352.72	101.3	0.45585

System: ethanol; phases: Liquid, Gas
Property: Vapor or sublimation pressure, kPa (Liquid); method: Ebulliometric method (Recirculating still)
Temperature, K	Vapor or sublimation pressure, kPa	uncertainty
351.45	101.3	0.1

System: butanone + ethanol; phases: Liquid, Gas
Fixed: Pressure, kPa = 101.3
Property: Boiling temperature at pressure P, K (Liquid); method: Ebulliometric method (Recirculating still)
Mole fraction of butanone	Boiling temperature at pressure P, K	uncertainty
0	351.45	0.09
0.029	350.78	0.1
0.063	350.21	0.09
0.094	349.79	0.09
0.139	349.25	0.09
0.18	348.85	0.09
0.237	348.31	0.09
0.332	347.79	0.09
0.429	347.54	0.09
0.47	347.5	0.09
0.544	347.51	0.09
0.638	347.72	0.09
0.744	348.35	0.09
0.815	349.08	0.09
0.852	349.63	0.09
0.906	350.59	0.09
0.945	351.34	0.1
0.974	351.89	0.1
1	352.72	0.09

System: butanone + ethanol; phases: Gas, Liquid
Fixed: Pressure, kPa = 101.3
Property: Mole fraction of butanone (Gas); method: Chromatography
Mole fraction of butanone	Mole fraction of butanone	uncertainty
0	0	
0.029	0.05	0.004
0.063	0.101	0.004
0.094	0.143	0.003
0.139	0.196	0.004
0.18	0.241	0.004
0.237	0.297	0.004
0.332	0.374	0.004
0.429	0.445	0.005
0.47	0.476	0.005
0.544	0.527	0.005
0.638	0.589	0.005
0.744	0.676	0.004
0.815	0.747	0.004
0.852	0.785	0.004
0.906	0.849	0.004
0.945	0.903	0.004
0.974	0.951	0.004
1	1	

System: butanone + ethanol + 1-ethyl-3-methylimidazolium diethyl phosphate; phases: Liquid, Gas
Fixed: Pressure, kPa = 101.3
Property: Mole fraction of 1-ethyl-3-methylimidazolium diethyl phosphate (Liquid); method: Chromatography
Property: Mole fraction of 1-ethyl-3-methylimidazolium diethyl phosphate (Gas); method: Chromatography
Property: Mole fraction of butanone (Gas); method: Chromatography
Temperature, K	Mole fraction of butanone	Mole fraction of 1-ethyl-3-methylimidazolium diethyl phosphate	uncertainty	Mole fraction of 1-ethyl-3-methylimidazolium diethyl phosphate	uncertainty	Mole fraction of butanone	uncertainty
351.9	0.026	0.022	0.002	0		0.051	
351.15	0.062	0.022	0.002	0		0.114	
350.43	0.107	0.02	0.002	0		0.18	
349.86	0.158	0.023	0.002	0		0.245	
349.4	0.212	0.021	0.002	0		0.302	
348.95	0.28	0.023	0.002	0		0.372	
348.75	0.318	0.023	0.002	0		0.401	
348.55	0.389	0.023	0.002	0		0.466	
348.5	0.466	0.023	0.002	0		0.527	
348.71	0.554	0.023	0.002	0		0.597	
349.1	0.628	0.023	0.002	0		0.655	
349.62	0.699	0.023	0.002	0		0.707	
350.19	0.757	0.023	0.002	0		0.76	
350.71	0.802	0.023	0.002	0		0.8	
351.35	0.85	0.023	0.002	0		0.85	
351.95	0.901	0.021	0.002	0		0.903	
353.77	0.018	0.05	0.002	0		0.04	
353.2	0.041	0.051	0.002	0		0.087	
352.45	0.077	0.05	0.002	0		0.154	
351.81	0.121	0.05	0.002	0		0.225	
351.2	0.168	0.051	0.002	0		0.291	
350.61	0.227	0.051	0.002	0		0.365	
349.92	0.325	0.05	0.002	0		0.459	
349.72	0.431	0.052	0.002	0		0.556	
349.91	0.497	0.051	0.002	0		0.619	
350.22	0.553	0.053	0.002	0		0.662	
350.69	0.627	0.054	0.002	0		0.73	
351.15	0.686	0.052	0.002	0		0.773	
352.28	0.785	0.053	0.002	0		0.857	
352.71	0.82	0.053	0.002	0		0.886	
353.28	0.866	0.054	0.002	0		0.93	
357.36	0.03	0.104	0.002	0		0.084	
356.24	0.068	0.101	0.002	0		0.169	
355.01	0.12	0.1	0.002	0		0.274	
353.9	0.183	0.102	0.002	0		0.379	
353.14	0.26	0.104	0.002	0		0.494	
352.69	0.336	0.105	0.002	0		0.579	
352.42	0.411	0.105	0.002	0		0.663	
352.4	0.494	0.105	0.002	0		0.738	
352.57	0.564	0.104	0.002	0		0.794	
353.1	0.636	0.104	0.002	0		0.849	
353.77	0.705	0.102	0.002	0		0.896	
354.48	0.768	0.1	0.002	0		0.934	
355.3	0.816	0.1	0.002	0		0.961	

System: butanone + ethanol + 1-butyl-3-methylimidazolium diethyl phosphate; phases: Liquid, Gas
Fixed: Pressure, kPa = 101.3
Property: Mole fraction of 1-butyl-3-methylimidazolium diethyl phosphate (Liquid); method: Chromatography
Property: Mole fraction of 1-butyl-3-methylimidazolium diethyl phosphate (Gas); method: Chromatography
Property: Mole fraction of butanone (Gas); method: Chromatography
Temperature, K	Mole fraction of butanone	Mole fraction of 1-butyl-3-methylimidazolium diethyl phosphate	uncertainty	Mole fraction of 1-butyl-3-methylimidazolium diethyl phosphate	uncertainty	Mole fraction of butanone	uncertainty
351.9	0.027	0.02	0.002	0		0.053	
351.12	0.079	0.02	0.002	0		0.138	
350.43	0.135	0.021	0.002	0		0.213	
349.86	0.201	0.02	0.002	0		0.291	
349.3	0.278	0.022	0.002	0		0.363	
348.85	0.377	0.022	0.002	0		0.437	
348.67	0.435	0.021	0.002	0		0.493	
348.62	0.489	0.02	0.002	0		0.533	
348.7	0.536	0.021	0.002	0		0.568	
348.95	0.6	0.021	0.002	0		0.618	
349.37	0.669	0.022	0.002	0		0.678	
350.2	0.766	0.022	0.002	0		0.761	
350.86	0.817	0.022	0.002	0		0.81	
352.01	0.882	0.022	0.002	0		0.874	
353.44	0.022	0.05	0.002	0		0.047	
352.64	0.06	0.051	0.002	0		0.122	
351.73	0.113	0.051	0.002	0		0.206	
350.97	0.175	0.049	0.002	0		0.291	
350.4	0.251	0.049	0.002	0		0.38	
350.09	0.335	0.05	0.002	0		0.469	
349.89	0.44	0.05	0.002	0		0.558	
349.91	0.482	0.051	0.002	0		0.588	
350.05	0.541	0.049	0.002	0		0.64	
350.52	0.622	0.05	0.002	0		0.704	
351.3	0.711	0.05	0.002	0		0.787	
352.13	0.785	0.051	0.002	0		0.85	
353.21	0.855	0.051	0.002	0		0.914	
354.1	0.889	0.053	0.002	0		0.948	
357.05	0.055	0.105	0.002	0		0.137	
355.2	0.105	0.102	0.002	0		0.235	
354.41	0.146	0.101	0.002	0		0.31	
353.74	0.199	0.1	0.002	0		0.385	
353.19	0.264	0.101	0.002	0		0.476	
352.85	0.319	0.102	0.002	0		0.537	
352.54	0.386	0.103	0.002	0		0.612	
352.49	0.459	0.102	0.002	0		0.682	
352.74	0.542	0.103	0.002	0		0.757	
353.23	0.626	0.103	0.002	0		0.832	
353.65	0.67	0.103	0.002	0		0.861	
354.62	0.748	0.103	0.002	0		0.919	
355.35	0.792	0.104	0.002	0		0.947	
356.1	0.838	0.104	0.002	0		0.974	

System: butanone + ethanol + 1-butyl-3-methylimidazolium dibutyl phosphate; phases: Liquid, Gas
Fixed: Pressure, kPa = 101.3
Property: Mole fraction of 1-butyl-3-methylimidazolium dibutyl phosphate (Liquid); method: Chromatography
Property: Mole fraction of 1-butyl-3-methylimidazolium dibutyl phosphate (Gas); method: Chromatography
Property: Mole fraction of butanone (Gas); method: Chromatography
Temperature, K	Mole fraction of butanone	Mole fraction of 1-butyl-3-methylimidazolium dibutyl phosphate	uncertainty	Mole fraction of 1-butyl-3-methylimidazolium dibutyl phosphate	uncertainty	Mole fraction of butanone	uncertainty
351.2	0.077	0.02	0.002	0		0.128	
350.63	0.114	0.021	0.002	0		0.181	
350.03	0.158	0.021	0.002	0		0.237	
349.32	0.227	0.021	0.002	0		0.311	
348.89	0.281	0.021	0.002	0		0.358	
348.69	0.321	0.021	0.002	0		0.387	
348.49	0.411	0.021	0.002	0		0.467	
348.49	0.464	0.02	0.002	0		0.511	
348.61	0.536	0.02	0.002	0		0.557	
348.94	0.608	0.02	0.002	0		0.62	
349.62	0.698	0.022	0.002	0		0.691	
350.12	0.752	0.022	0.002	0		0.732	
350.78	0.803	0.023	0.002	0		0.793	
352.23	0.894	0.023	0.002	0		0.89	
353.17	0.035	0.05	0.002	0		0.074	
352.61	0.067	0.051	0.002	0		0.13	
352.21	0.09	0.052	0.002	0		0.169	
351.48	0.146	0.051	0.002	0		0.247	
350.88	0.206	0.05	0.002	0		0.323	
350.41	0.269	0.052	0.002	0		0.389	
349.87	0.401	0.052	0.002	0		0.522	
349.89	0.468	0.051	0.002	0		0.575	
350.18	0.545	0.051	0.002	0		0.633	
350.77	0.638	0.052	0.002	0		0.715	
351.71	0.736	0.051	0.002	0		0.798	
352.84	0.815	0.053	0.002	0		0.874	
353.97	0.89	0.052	0.002	0		0.944	
357.05	0.054	0.1	0.002	0		0.13	
355.99	0.081	0.101	0.002	0		0.182	
355.03	0.118	0.1	0.002	0		0.253	
354.12	0.173	0.101	0.002	0		0.335	
353.65	0.216	0.101	0.002	0		0.399	
353.04	0.284	0.101	0.002	0		0.486	
352.55	0.376	0.102	0.002	0		0.584	
352.48	0.468	0.101	0.002	0		0.673	
352.73	0.523	0.102	0.002	0		0.722	
353.52	0.623	0.102	0.002	0		0.807	
354.26	0.694	0.102	0.002	0		0.866	
355.32	0.769	0.104	0.002	0		0.924	
356.63	0.838	0.104	0.002	0		0.968	
