Measured thermophysical data. High-pressure densities and interfacial tensions of binary systems containing carbon dioxide + n-alkanes: (n-Dodecane, n-tridecane, n-tetradecane)
Source: Fluid Phase Equilib., 2014, 10.1016/j.fluid.2014.07.039
Compound 1: carbon dioxide, CO2, InChI=1S/CO2/c2-1-3, purity 99.9%
Compound 2: dodecane, C12H26, InChI=1S/C12H26/c1-3-5-7-9-11-12-10-8-6-4-2/h3-12H2,1-2H3, purity 99.9%
Compound 3: tridecane, C13H28, InChI=1S/C13H28/c1-3-5-7-9-11-13-12-10-8-6-4-2/h3-13H2,1-2H3, purity 99.9%
Compound 4: tetradecane, C14H30, InChI=1S/C14H30/c1-3-5-7-9-11-13-14-12-10-8-6-4-2/h3-14H2,1-2H3, purity 99.9%

System: carbon dioxide; phases: Gas
Property: Mass density, kg/m3 (Gas); method: Vibrating tube method
Temperature, K	Pressure, kPa	Mass density, kg/m3	uncertainty
344.15	101.325	1.563	0.0317

System: dodecane; phases: Liquid
Property: Mass density, kg/m3 (Liquid); method: Vibrating tube method
Temperature, K	Pressure, kPa	Mass density, kg/m3	uncertainty
344.15	101.3	712.1	0.22

System: dodecane; phases: Liquid, Gas
Property: Surface tension liquid-gas, N/m (Liquid); method: Pendant drop shape
Temperature, K	Surface tension liquid-gas, N/m	uncertainty
344.15	0.02072	0.00024

System: tridecane; phases: Liquid
Property: Mass density, kg/m3 (Liquid); method: Vibrating tube method
Temperature, K	Pressure, kPa	Mass density, kg/m3	uncertainty
344.15	101.3	720.2	0.22

System: tridecane; phases: Liquid, Air at 1 atmosphere
Property: Surface tension liquid-gas, N/m (Liquid); method: Pendant drop shape
Temperature, K	Surface tension liquid-gas, N/m	uncertainty
344.15	0.02156	0.00024

System: tetradecane; phases: Liquid
Property: Mass density, kg/m3 (Liquid); method: Vibrating tube method
Temperature, K	Pressure, kPa	Mass density, kg/m3	uncertainty
344.15	101.3	727.1	0.22

System: tetradecane; phases: Liquid, Air at 1 atmosphere
Property: Surface tension liquid-gas, N/m (Liquid); method: Pendant drop shape
Temperature, K	Surface tension liquid-gas, N/m	uncertainty
344.15	0.02207	0.00025

System: dodecane + carbon dioxide; phases: Liquid, Gas
Fixed: Temperature, K = 344.15
Property: Mass density, kg/m3 (Liquid); method: Vibrating tube method
Pressure, kPa	Mass density, kg/m3	uncertainty
100	712.109	0.224
1000	727.014	0.229
2000	729.249	0.236
3000	728.841	0.243
4000	730.27	0.25
5000	733.681	0.257
6000	737.708	0.263
7000	741.052	0.27
8000	743.119	0.276
9000	744.015	0.284
10000	744.215	0.291
11000	744.202	0.299
12000	744.393	0.307

System: dodecane + carbon dioxide; phases: Gas, Liquid
Fixed: Temperature, K = 344.15
Property: Mass density, kg/m3 (Gas); method: Vibrating tube method
Pressure, kPa	Mass density, kg/m3	uncertainty
100	1.702	0.032
1000	15.48	0.038
2000	33.789	0.047
3000	52.283	0.058
4000	71.883	0.07
5000	93.97	0.086
6000	119.002	0.105
7000	146.718	0.128
8000	177.146	0.155
9000	211.629	0.187
10000	253.074	0.227
11000	304.649	0.279
12000	366.129	0.344

System: dodecane + carbon dioxide; phases: Liquid, Gas
Fixed: Temperature, K = 344.15
Property: Interfacial tension, N/m (Liquid); method: pendant drop shape
Pressure, kPa	Interfacial tension, N/m	uncertainty
100	0.02072	2e-05
1000	0.01854	2e-05
2000	0.01653	2e-05
3000	0.01474	2e-05
4000	0.01303	2e-05
5000	0.01131	2e-05
6000	0.00957	2e-05
7000	0.00782	2e-05
8000	0.00612	2e-05
9000	0.00457	2e-05
10000	0.00324	2e-05
11000	0.00226	2e-05

System: carbon dioxide + tridecane; phases: Gas, Liquid
Fixed: Temperature, K = 344.15
Property: Mass density, kg/m3 (Gas); method: Vibrating tube method
Pressure, kPa	Mass density, kg/m3	uncertainty
100	1.365	0.032
1000	15.718	0.038
2000	32.801	0.046
3000	51.268	0.057
4000	71.41	0.07
5000	93.616	0.086
6000	118.373	0.105
7000	146.265	0.128
8000	177.975	0.155
9000	214.283	0.189
10000	256.066	0.23
11000	304.3	0.279
12000	360.058	0.338
13000	424.511	0.41

System: carbon dioxide + tridecane; phases: Liquid, Gas
Fixed: Temperature, K = 344.15
Property: Mass density, kg/m3 (Liquid); method: Vibrating tube method
Pressure, kPa	Mass density, kg/m3	uncertainty
100	720.65	0.223
1000	735.265	0.228
2000	738.868	0.235
3000	739.281	0.241
4000	740.199	0.248
5000	741.803	0.255
6000	743.154	0.262
7000	743.618	0.269
8000	743.476	0.276
9000	743.866	0.284
10000	746.21	0.291
11000	751.271	0.296
12000	757.994	0.3
13000	762.28	0.305

System: carbon dioxide + tridecane; phases: Liquid, Gas
Fixed: Temperature, K = 344.15
Property: Interfacial tension, N/m (Liquid); method: pendant drop shape
Pressure, kPa	Interfacial tension, N/m	uncertainty
100	0.02156	2e-05
1000	0.01968	2e-05
2000	0.01765	2e-05
3000	0.01567	2e-05
4000	0.01377	2e-05
5000	0.01194	2e-05
6000	0.01018	2e-05
7000	0.00852	2e-05
8000	0.00695	2e-05
9000	0.00549	2e-05
10000	0.00413	2e-05
11000	0.00289	2e-05
12000	0.00177	2e-05
13000	0.00078	2e-05

System: carbon dioxide + tetradecane; phases: Liquid, Gas
Fixed: Temperature, K = 344.15
Property: Mass density, kg/m3 (Liquid); method: Vibrating tube method
Pressure, kPa	Mass density, kg/m3	uncertainty
100	727.098	0.223
1000	728.281	0.229
2000	730.234	0.236
3000	732.045	0.242
4000	733.325	0.249
5000	734.05	0.257
6000	734.457	0.264
7000	734.937	0.272
8000	735.931	0.279
9000	737.827	0.286
10000	740.852	0.293
11000	744.97	0.299
12000	749.776	0.304
13000	754.39	0.309
14000	757.357	0.315

System: carbon dioxide + tetradecane; phases: Gas, Liquid
Fixed: Temperature, K = 344.15
Property: Mass density, kg/m3 (Gas); method: Vibrating tube method
Pressure, kPa	Mass density, kg/m3	uncertainty
100	1.694	0.032
1000	12.768	0.037
2000	30.997	0.046
3000	52.049	0.057
4000	74.023	0.071
5000	96.355	0.087
6000	119.506	0.105
7000	144.635	0.126
8000	173.28	0.152
9000	207.041	0.184
10000	247.256	0.223
11000	294.682	0.271
12000	349.174	0.329
13000	409.364	0.396
14000	472.346	0.471

System: carbon dioxide + tetradecane; phases: Liquid, Gas
Fixed: Temperature, K = 344.15
Property: Interfacial tension, N/m (Liquid); method: pendant drop shape
Pressure, kPa	Interfacial tension, N/m	uncertainty
100	0.02207	2e-05
1000	0.02041	2e-05
2000	0.01855	2e-05
3000	0.0167	2e-05
4000	0.01487	2e-05
5000	0.01306	2e-05
6000	0.01131	2e-05
7000	0.00961	2e-05
8000	0.008	2e-05
9000	0.00648	2e-05
10000	0.00507	2e-05
11000	0.00378	2e-05
12000	0.00263	2e-05
13000	0.00164	2e-05
14000	0.00082	2e-05
