Measured thermophysical data. Solubility of lansoprazole in different solvents
Source: Fluid Phase Equilib., 2012, 10.1016/j.fluid.2012.06.011
Compound 1: lansoprazole, C16H14F3N3O2S, InChI=1S/C16H14F3N3O2S/c1-10-13(20-7-6-14(10)24-9-16(17,18)19)8-25(23)15-21-11-4-2-3-5-12(11)22-15/h2-7H,8-9H2,1H3,(H,21,22), purity 98%
Compound 2: acetone, C3H6O, InChI=1S/C3H6O/c1-3(2)4/h1-2H3, purity 99.5%
Compound 3: butanone, C4H8O, InChI=1S/C4H8O/c1-3-4(2)5/h3H2,1-2H3, purity 99%
Compound 4: 4-methylpentan-2-one, C6H12O, InChI=1S/C6H12O/c1-5(2)4-6(3)7/h5H,4H2,1-3H3, purity 99%
Compound 5: ethyl acetate, C4H8O2, InChI=1S/C4H8O2/c1-3-6-4(2)5/h3H2,1-2H3, purity 99.5%
Compound 6: butyl ethanoate, C6H12O2, InChI=1S/C6H12O2/c1-3-4-5-8-6(2)7/h3-5H2,1-2H3, purity 99%
Compound 7: 2-methylpropyl ethanoate, C6H12O2, InChI=1S/C6H12O2/c1-5(2)4-8-6(3)7/h5H,4H2,1-3H3, purity 98.5%
Compound 8: propan-1-ol, C3H8O, InChI=1S/C3H8O/c1-2-3-4/h4H,2-3H2,1H3, purity 99%
Compound 9: propan-2-ol, C3H8O, InChI=1S/C3H8O/c1-3(2)4/h3-4H,1-2H3, purity 99.7%
Compound 10: butan-1-ol, C4H10O, InChI=1S/C4H10O/c1-2-3-4-5/h5H,2-4H2,1H3, purity 99.5%
Compound 11: pentan-1-ol, C5H12O, InChI=1S/C5H12O/c1-2-3-4-5-6/h6H,2-5H2,1H3, purity 98.5%

System: acetone + lansoprazole; phases: Liquid, Crystal
Fixed: Pressure, kPa = 101
Property: Mole fraction of lansoprazole (Liquid); method: laser monitoring
Temperature, K	Mole fraction of lansoprazole	uncertainty
283.15	0.00248845	6.07e-05
290.15	0.00309621	7.549e-05
297.15	0.0039476	9.626e-05
304.15	0.00493747	0.0001204
311.15	0.00625728	0.0001528
318.15	0.00801419	0.0001955

System: butanone + lansoprazole; phases: Liquid, Crystal
Fixed: Pressure, kPa = 101
Property: Mole fraction of lansoprazole (Liquid); method: laser monitoring
Temperature, K	Mole fraction of lansoprazole	uncertainty
283.15	0.00288501	6.683e-05
288.15	0.00349459	8.056e-05
293.15	0.00412466	9.5e-05
298.15	0.00488764	0.0001126
303.15	0.00578435	0.0001335
308.15	0.00696662	0.0001608
313.15	0.00830156	0.0001912

System: 4-methylpentan-2-one + lansoprazole; phases: Liquid, Crystal
Fixed: Pressure, kPa = 101
Property: Mole fraction of lansoprazole (Liquid); method: laser monitoring
Temperature, K	Mole fraction of lansoprazole	uncertainty
283.15	0.0012993	2.832e-05
288.15	0.00154004	3.351e-05
293.15	0.00183231	3.985e-05
298.15	0.0021636	4.703e-05
303.15	0.00254973	5.551e-05
308.15	0.00306523	6.672e-05
313.15	0.00362036	7.858e-05

System: ethyl acetate + lansoprazole; phases: Liquid, Crystal
Fixed: Pressure, kPa = 101
Property: Mole fraction of lansoprazole (Liquid); method: laser monitoring
Temperature, K	Mole fraction of lansoprazole	uncertainty
283.15	0.00137023	3.047e-05
288.15	0.00163598	3.637e-05
293.15	0.00200259	4.46e-05
298.15	0.00245115	5.444e-05
303.15	0.00291372	6.455e-05
308.15	0.00342901	7.612e-05
313.15	0.00415695	9.192e-05
318.15	0.00468958	0.0001033

System: butyl ethanoate + lansoprazole; phases: Liquid, Crystal
Fixed: Pressure, kPa = 101
Property: Mole fraction of lansoprazole (Liquid); method: laser monitoring
Temperature, K	Mole fraction of lansoprazole	uncertainty
283.15	0.00098697	2.128e-05
288.15	0.00120475	2.584e-05
293.15	0.00144339	3.09e-05
298.15	0.00172143	3.669e-05
303.15	0.00195096	4.162e-05
308.15	0.00232077	4.958e-05
313.15	0.00270887	5.772e-05

System: 2-methylpropyl ethanoate + lansoprazole; phases: Liquid, Crystal
Fixed: Pressure, kPa = 101
Property: Mole fraction of lansoprazole (Liquid); method: laser monitoring
Temperature, K	Mole fraction of lansoprazole	uncertainty
283.15	0.00078406	1.694e-05
288.15	0.00096465	2.072e-05
293.15	0.00116704	2.495e-05
298.15	0.00136029	2.906e-05
303.15	0.0016147	3.456e-05
308.15	0.00193123	4.13e-05
313.15	0.00227572	4.854e-05

System: propan-1-ol + lansoprazole; phases: Liquid, Crystal
Fixed: Pressure, kPa = 101
Property: Mole fraction of lansoprazole (Liquid); method: laser monitoring
Temperature, K	Mole fraction of lansoprazole	uncertainty
283.15	0.00166045	4.047e-05
288.15	0.00206148	5.014e-05
293.15	0.00260075	6.308e-05
298.15	0.00314462	7.624e-05
303.15	0.00388435	9.411e-05
308.15	0.00468428	0.0001138
313.15	0.0058834	0.0001427

System: propan-2-ol + lansoprazole; phases: Liquid, Crystal
Fixed: Pressure, kPa = 101
Property: Mole fraction of lansoprazole (Liquid); method: laser monitoring
Temperature, K	Mole fraction of lansoprazole	uncertainty
283.15	0.00082015	1.969e-05
288.15	0.00092222	2.242e-05
293.15	0.00124159	3.044e-05
298.15	0.00160954	3.922e-05
303.15	0.00201558	4.917e-05
308.15	0.00260662	6.364e-05
313.15	0.00332608	8.112e-05
318.15	0.00422492	0.0001026

System: butan-1-ol + lansoprazole; phases: Liquid, Crystal
Fixed: Pressure, kPa = 101
Property: Mole fraction of lansoprazole (Liquid); method: laser monitoring
Temperature, K	Mole fraction of lansoprazole	uncertainty
283.15	0.00119857	2.865e-05
288.15	0.00165969	3.874e-05
293.15	0.00214652	4.967e-05
298.15	0.00269623	6.222e-05
303.15	0.00335594	7.743e-05
308.15	0.00419289	9.662e-05
313.15	0.0051485	0.0001182

System: pentan-1-ol + lansoprazole; phases: Liquid, Crystal
Fixed: Pressure, kPa = 101
Property: Mole fraction of lansoprazole (Liquid); method: laser monitoring
Temperature, K	Mole fraction of lansoprazole	uncertainty
283.15	0.00138212	3.159e-05
288.15	0.0018359	4.116e-05
293.15	0.00227088	5.067e-05
298.15	0.00281331	6.27e-05
303.15	0.00343689	7.639e-05
308.15	0.00412064	9.191e-05
313.15	0.00517883	0.0001154

System: propan-2-ol + acetone + lansoprazole; phases: Liquid, Crystal
Fixed: Pressure, kPa = 101
Property: Mole fraction of lansoprazole (Liquid); method: laser monitoring
Temperature, K	Solvent: Mole fraction of acetone	Mole fraction of lansoprazole	uncertainty
283.15	0	0.0008201	1.97e-05
283.15	0.2024	0.0019928	8.78e-05
283.15	0.2528	0.0029059	8.64e-05
283.15	0.3367	0.0033503	9.39e-05
283.15	0.5037	0.0046413	0.0001234
283.15	0.67	0.0049395	0.0001203
283.15	0.7528	0.0046551	0.0001345
283.15	0.8024	0.004281	0.0001772
283.15	1	0.00247	6.03e-05
288.15	0	0.0009222	2.24e-05
288.15	0.2024	0.0023588	0.0001021
288.15	0.2528	0.0034385	0.0001004
288.15	0.3367	0.0039921	0.0001105
288.15	0.5037	0.0053973	0.00014
288.15	0.67	0.0056478	0.000137
288.15	0.7528	0.0053437	0.0001478
288.15	0.8024	0.0049785	0.000204
288.15	1	0.00291	7.09e-05
293.15	0	0.0012416	3.04e-05
293.15	0.2024	0.0028031	0.0001166
293.15	0.2528	0.0040246	0.0001164
293.15	0.3367	0.0046647	0.0001277
293.15	0.5037	0.0062275	0.000161
293.15	0.67	0.006528	0.0001586
293.15	0.7528	0.0061708	0.000169
293.15	0.8024	0.0057941	0.0002333
293.15	1	0.00344	8.39e-05
298.15	0	0.0016095	3.92e-05
298.15	0.2024	0.0033698	0.0001354
298.15	0.2528	0.0047504	0.0001336
298.15	0.3367	0.0053714	0.0001461
298.15	0.5037	0.0071933	0.000187
298.15	0.67	0.0076215	0.0001852
298.15	0.7528	0.0071761	0.0001967
298.15	0.8024	0.006775	0.0002686
298.15	1	0.00407	9.93e-05
303.15	0	0.0020156	4.92e-05
303.15	0.2024	0.0040427	0.0001546
303.15	0.2528	0.0055747	0.0001571
303.15	0.3367	0.0063882	0.0001712
303.15	0.5037	0.008278	0.000212
303.15	0.67	0.0087491	0.0002135
303.15	0.7528	0.0084254	0.0002225
303.15	0.8024	0.0079048	0.0003122
303.15	1	0.00481	0.0001173
308.15	0	0.0026066	6.34e-05
308.15	0.2024	0.0048444	0.0001843
308.15	0.2528	0.006615	0.0001852
308.15	0.3367	0.0074906	0.000188
308.15	0.5037	0.00857234	0.0002242
308.15	0.67	0.0103768	0.0002649
308.15	0.7528	0.0099451	0.0002693
308.15	0.8024	0.0092887	0.0003608
308.15	1	0.00568	0.0001384
