Measured thermophysical data. Phase behaviour of ionic liquid 1-butyl-1-methylpyrrolidinium tris(pentafluoroethyl)trifluorophosphate with alcohols, water and aromatic hydrocarbons
Source: Fluid Phase Equilib., 2013, 10.1016/j.fluid.2013.01.027
Compound 1: 1-butyl-1-methylpyrrolidinium tris(pentafluoroethyl)trifluorophosphate, C15H20F18NP, InChI=1S/C9H20N.C6F18P/c1-3-4-7-10(2)8-5-6-9-10;7-1(8,9)4(16,17)25(22,23,24,5(18,19)2(10,11)12)6(20,21)3(13,14)15/h3-9H2,1-2H3;/q+1;-1, purity 99%
Compound 2: butan-1-ol, C4H10O, InChI=1S/C4H10O/c1-2-3-4-5/h5H,2-4H2,1H3, purity 99.8%
Compound 3: hexan-1-ol, C6H14O, InChI=1S/C6H14O/c1-2-3-4-5-6-7/h7H,2-6H2,1H3, purity 99%
Compound 4: octan-1-ol, C8H18O, InChI=1S/C8H18O/c1-2-3-4-5-6-7-8-9/h9H,2-8H2,1H3, purity 99%
Compound 5: decan-1-ol, C10H22O, InChI=1S/C10H22O/c1-2-3-4-5-6-7-8-9-10-11/h11H,2-10H2,1H3, purity 99%
Compound 6: dodecan-1-ol, C12H26O, InChI=1S/C12H26O/c1-2-3-4-5-6-7-8-9-10-11-12-13/h13H,2-12H2,1H3, purity 98.5%
Compound 7: water, H2O, InChI=1S/H2O/h1H2, purity 99.8%
Compound 8: benzene, C6H6, InChI=1S/C6H6/c1-2-4-6-5-3-1/h1-6H, purity 99.5%
Compound 9: toluene, C7H8, InChI=1S/C7H8/c1-7-5-3-2-4-6-7/h2-6H,1H3, purity 99.5%
Compound 10: ethylbenzene, C8H10, InChI=1S/C8H10/c1-2-8-6-4-3-5-7-8/h3-7H,2H2,1H3, purity 99%
Compound 11: propylbenzene, C9H12, InChI=1S/C9H12/c1-2-6-9-7-4-3-5-8-9/h3-5,7-8H,2,6H2,1H3, purity 99%
Compound 12: thiophene, C4H4S, InChI=1S/C4H4S/c1-2-4-5-3-1/h1-4H, purity 99%

System: 1-butyl-1-methylpyrrolidinium tris(pentafluoroethyl)trifluorophosphate; phases: Liquid
Property: Mass density, kg/m3 (Liquid); method: Vibrating tube method
Temperature, K	Pressure, kPa	Mass density, kg/m3	uncertainty
298.15	101.325	1582.63	0.76

System: butan-1-ol; phases: Liquid
Property: Mass density, kg/m3 (Liquid); method: Vibrating tube method
Temperature, K	Pressure, kPa	Mass density, kg/m3	uncertainty
298.15	101.325	805.78	0.15

System: hexan-1-ol; phases: Liquid
Property: Mass density, kg/m3 (Liquid); method: Vibrating tube method
Temperature, K	Pressure, kPa	Mass density, kg/m3	uncertainty
298.15	101.325	814.94	0.15

System: octan-1-ol; phases: Liquid
Property: Mass density, kg/m3 (Liquid); method: Vibrating tube method
Temperature, K	Pressure, kPa	Mass density, kg/m3	uncertainty
298.15	101.325	823.27	0.14

System: decan-1-ol; phases: Liquid
Property: Mass density, kg/m3 (Liquid); method: Vibrating tube method
Temperature, K	Pressure, kPa	Mass density, kg/m3	uncertainty
298.15	101.325	826.38	0.14

System: dodecan-1-ol; phases: Liquid
Property: Mass density, kg/m3 (Liquid); method: Vibrating tube method
Temperature, K	Pressure, kPa	Mass density, kg/m3	uncertainty
298.15	101.325	823.35	0.24

System: water; phases: Liquid
Property: Mass density, kg/m3 (Liquid); method: Vibrating tube method
Temperature, K	Pressure, kPa	Mass density, kg/m3	uncertainty
298.15	101.325	997.04	0.12

System: benzene; phases: Liquid
Property: Mass density, kg/m3 (Liquid); method: Vibrating tube method
Temperature, K	Pressure, kPa	Mass density, kg/m3	uncertainty
298.15	101.325	873.53	0.14

System: toluene; phases: Liquid
Property: Mass density, kg/m3 (Liquid); method: Vibrating tube method
Temperature, K	Pressure, kPa	Mass density, kg/m3	uncertainty
298.15	101.325	863.67	0.14

System: ethylbenzene; phases: Liquid
Property: Mass density, kg/m3 (Liquid); method: Vibrating tube method
Temperature, K	Pressure, kPa	Mass density, kg/m3	uncertainty
298.15	101.325	862.97	0.16

System: propylbenzene; phases: Liquid
Property: Mass density, kg/m3 (Liquid); method: Vibrating tube method
Temperature, K	Pressure, kPa	Mass density, kg/m3	uncertainty
298.15	101.325	858.62	0.24

System: thiophene; phases: Liquid
Property: Mass density, kg/m3 (Liquid); method: Vibrating tube method
Temperature, K	Pressure, kPa	Mass density, kg/m3	uncertainty
298.15	101.325	1058.48	0.28

System: butan-1-ol + 1-butyl-1-methylpyrrolidinium tris(pentafluoroethyl)trifluorophosphate; phases: Liquid mixture 1, Liquid mixture 2
Fixed: Pressure, kPa = 101.33
Property: Liquid-liquid equilibrium temperature, K (Liquid mixture 1); method: VISOBS
Mole fraction of 1-butyl-1-methylpyrrolidinium tris(pentafluoroethyl)trifluorophosphate	Liquid-liquid equilibrium temperature, K	uncertainty
0.698	297.4	0.4
0.6499	298.7	0.4
0.6231	300.1	0.4
0.592	301.5	0.4
0.5618	303.3	0.4
0.5144	305.5	0.4
0.4776	308.3	0.4
0.4429	310.4	0.4
0.4158	311.7	0.4
0.3816	313	0.4
0.3491	314.5	0.4
0.3181	315.4	0.4
0.2918	316.2	0.4
0.2604	316.7	0.4
0.2244	317.1	0.4
0.182	317.6	0.4
0.1387	317.5	0.4
0.1001	316.8	0.4
0.0697	315	0.4
0.0495	312.9	0.5
0.0409	309.6	0.6
0.033	306.1	0.7
0.0269	301.9	0.9
0.0221	296.9	1.1

System: hexan-1-ol + 1-butyl-1-methylpyrrolidinium tris(pentafluoroethyl)trifluorophosphate; phases: Liquid mixture 1, Liquid mixture 2
Fixed: Pressure, kPa = 101.33
Property: Liquid-liquid equilibrium temperature, K (Liquid mixture 1); method: VISOBS
Mole fraction of 1-butyl-1-methylpyrrolidinium tris(pentafluoroethyl)trifluorophosphate	Liquid-liquid equilibrium temperature, K	uncertainty
0.9559	304.7	0.4
0.9312	306.2	0.4
0.88	309.9	0.4
0.8331	313.9	0.4
0.7954	318.5	0.4
0.7518	323.7	0.4
0.7206	327.8	0.4
0.6889	332.2	0.5
0.6618	336.1	0.4
0.6282	339.5	0.4
0.5912	343	0.4
0.5534	346.5	0.4
0.5228	349.2	0.4
0.4983	351.4	0.4
0.4646	353.7	0.4
0.4328	355.5	0.4
0.4047	357.4	0.4
0.3811	358.8	0.4
0.3541	359.9	0.4
0.3345	360.7	0.4
0.2973	361.9	0.4
0.2677	362.5	0.4
0.2478	362.9	0.4
0.2157	363.3	0.4
0.1863	363.4	0.4
0.1514	363.5	0.4
0.1172	363.4	0.4
0.0891	362.6	0.4
0.0499	357.6	0.5
0.0286	350.7	0.6
0.0193	344.2	0.8
0.014	340	1.2
0.0096	333.6	2.2
0.0068	324.3	5
0.0047	314.3	7.1
0.0036	303.9	6.9
0.0023	292.8	9

System: octan-1-ol + 1-butyl-1-methylpyrrolidinium tris(pentafluoroethyl)trifluorophosphate; phases: Liquid mixture 1, Liquid mixture 2
Fixed: Pressure, kPa = 101.33
Property: Liquid-liquid equilibrium temperature, K (Liquid mixture 1); method: VISOBS
Mole fraction of 1-butyl-1-methylpyrrolidinium tris(pentafluoroethyl)trifluorophosphate	Liquid-liquid equilibrium temperature, K	uncertainty
0.9659	308.5	0.5
0.9239	316.3	0.5
0.894	324.6	0.5
0.866	335	0.5
0.845	339.7	0.5
0.7938	347.3	0.5
0.7547	355.6	0.5
0.7058	363.3	0.5
0.666	368.5	0.4
0.6344	372.4	0.4
0.6086	375.7	0.4
0.5786	379.8	0.4
0.5423	383.8	0.4
0.5148	386.4	0.4
0.4864	388.8	0.4
0.4662	390.5	0.4
0.4369	392.7	0.4
0.4112	395.1	0.4
0.3883	397.2	0.4
0.3624	397.7	0.4
0.3208	399.3	0.4
0.2756	401.3	0.4
0.2417	402.2	0.4
0.1833	403.3	0.4
0.1349	403.5	0.4
0.0953	402.6	0.4
0.0618	398.7	0.5
0.0261	392.5	0.5
0.017	385.8	1
0.0121	380.3	1.4
0.009	374.7	2.1
0.006	367.6	3.3
0.0038	359.2	4.3
0.0023	352.7	4.2
0.0007	345	3.2

System: decan-1-ol + 1-butyl-1-methylpyrrolidinium tris(pentafluoroethyl)trifluorophosphate; phases: Liquid mixture 1, Liquid mixture 2
Fixed: Pressure, kPa = 101.33
Property: Liquid-liquid equilibrium temperature, K (Liquid mixture 1); method: VISOBS
Mole fraction of 1-butyl-1-methylpyrrolidinium tris(pentafluoroethyl)trifluorophosphate	Liquid-liquid equilibrium temperature, K	uncertainty
0.9693	310	0.6
0.9377	321.2	0.6
0.9103	331.1	0.6
0.8826	343.5	0.6
0.8614	352.2	0.6
0.8375	360.2	0.5
0.82	365.3	0.5
0.8018	369.9	0.5
0.788	373.7	0.5
0.769	376.8	0.5
0.7569	379.2	0.5
0.7351	384	0.5
0.7221	386.3	0.5
0.7074	389.2	0.5
0.6935	392.7	0.5
0.6673	398.7	0.5
0.6425	402.7	0.4
0.6194	405.3	0.4
0.0167	408.4	1.1
0.0104	402.3	1.3
0.0075	396.9	3
0.006	391.6	3.8
0.0045	384.8	7.4
0.0031	373.8	9.3
0.0016	353.3	10.9
0.0009	343.2	10.4

System: dodecan-1-ol + 1-butyl-1-methylpyrrolidinium tris(pentafluoroethyl)trifluorophosphate; phases: Liquid mixture 1, Liquid mixture 2
Fixed: Pressure, kPa = 101.33
Property: Liquid-liquid equilibrium temperature, K (Liquid mixture 1); method: VISOBS
Mole fraction of 1-butyl-1-methylpyrrolidinium tris(pentafluoroethyl)trifluorophosphate	Liquid-liquid equilibrium temperature, K	uncertainty
0.9735	321.4	1.2
0.9561	341.6	0.9
0.9219	364.2	0.7
0.8825	381.2	0.6
0.8461	394.5	0.6
0.83	399.2	0.5
0.8171	404.2	0.5
0.7882	413.5	0.5
0.0036	413.3	20.9
0.003	403.4	22.3
0.0021	384.9	18.9
0.0012	363.2	20.9

System: water + 1-butyl-1-methylpyrrolidinium tris(pentafluoroethyl)trifluorophosphate; phases: Liquid mixture 1, Liquid mixture 2
Fixed: Pressure, kPa = 101.33
Property: Liquid-liquid equilibrium temperature, K (Liquid mixture 1); method: VISOBS
Mole fraction of 1-butyl-1-methylpyrrolidinium tris(pentafluoroethyl)trifluorophosphate	Liquid-liquid equilibrium temperature, K	uncertainty
0.9171	320.4	0.5
0.8634	332.7	0.5
0.8	342.7	0.5
0.7659	348.5	0.5
0.7268	354.8	0.5
0.6195	372.7	0.5
0.5951	376.4	0.5
0.5707	380.5	0.5
0.5512	382.6	0.5
0.5073	389.7	0.5
0.478	393.3	0.4
0.4488	396.5	0.4
0.4244	397.4	0.4
0.3951	397.5	0.4
0.3756	397.3	0.4
0.3415	396.8	0.4
0.2829	393.4	0.4
0.2244	383.7	0.5
0.161	369.1	0.5
0.0732	333.2	0.6

System: benzene + 1-butyl-1-methylpyrrolidinium tris(pentafluoroethyl)trifluorophosphate; phases: Liquid mixture 1, Liquid mixture 2
Fixed: Pressure, kPa = 101.33
Property: Liquid-liquid equilibrium temperature, K (Liquid mixture 1); method: VISOBS
Mole fraction of 1-butyl-1-methylpyrrolidinium tris(pentafluoroethyl)trifluorophosphate	Liquid-liquid equilibrium temperature, K	uncertainty
0.1816	291	0.7
0.1729	295.9	1.2
0.163	311.6	2.1
0.1551	332.6	2.4
0.1457	353	2.1
0.1364	371.1	1.8
0.1286	383.3	1.8
0.1171	404.9	1.9

System: toluene + 1-butyl-1-methylpyrrolidinium tris(pentafluoroethyl)trifluorophosphate; phases: Liquid mixture 1, Liquid mixture 2
Fixed: Pressure, kPa = 101.33
Property: Liquid-liquid equilibrium temperature, K (Liquid mixture 1); method: VISOBS
Mole fraction of 1-butyl-1-methylpyrrolidinium tris(pentafluoroethyl)trifluorophosphate	Liquid-liquid equilibrium temperature, K	uncertainty
0.2765	292	0.7
0.2529	304.7	0.9
0.2349	324.4	1
0.222	332.6	1.1
0.2122	347.1	1.4
0.1954	367.4	1.6
0.1827	394	2.1

System: ethylbenzene + 1-butyl-1-methylpyrrolidinium tris(pentafluoroethyl)trifluorophosphate; phases: Liquid mixture 1, Liquid mixture 2
Fixed: Pressure, kPa = 101.33
Property: Liquid-liquid equilibrium temperature, K (Liquid mixture 1); method: VISOBS
Mole fraction of 1-butyl-1-methylpyrrolidinium tris(pentafluoroethyl)trifluorophosphate	Liquid-liquid equilibrium temperature, K	uncertainty
0.615	292.7	0.6
0.5876	303.2	0.8
0.567	323.1	1.2
0.5386	355.4	1.3
0.5175	383.2	1.4

System: propylbenzene + 1-butyl-1-methylpyrrolidinium tris(pentafluoroethyl)trifluorophosphate; phases: Liquid mixture 1, Liquid mixture 2
Fixed: Pressure, kPa = 101.33
Property: Liquid-liquid equilibrium temperature, K (Liquid mixture 1); method: VISOBS
Mole fraction of 1-butyl-1-methylpyrrolidinium tris(pentafluoroethyl)trifluorophosphate	Liquid-liquid equilibrium temperature, K	uncertainty
0.8752	290	0.9
0.8549	305.7	0.8
0.8197	328.4	0.8
0.8009	344	1
0.7888	355.4	1.1
0.7757	370.2	1.2

System: thiophene + 1-butyl-1-methylpyrrolidinium tris(pentafluoroethyl)trifluorophosphate; phases: Liquid mixture 1, Liquid mixture 2
Fixed: Pressure, kPa = 101.33
Property: Liquid-liquid equilibrium temperature, K (Liquid mixture 1); method: VISOBS
Mole fraction of 1-butyl-1-methylpyrrolidinium tris(pentafluoroethyl)trifluorophosphate	Liquid-liquid equilibrium temperature, K	uncertainty
0.2009	295.4	0.7
0.1767	310.2	1
0.1595	333.2	1.3
0.1251	374.6	2.6
0.1191	390	2.6
