Measured thermophysical data. Henry s law constants of propane, propene, butane, and 2-methylpropane in methanol at 374-490K
Source: Fluid Phase Equilib., 2006, 10.1016/j.fluid.2005.12.001
Compound 1: propane, C3H8, InChI=1S/C3H8/c1-3-2/h3H2,1-2H3, purity 99.5%
Compound 2: butane, C4H10, InChI=1S/C4H10/c1-3-4-2/h3-4H2,1-2H3, purity 99.8%
Compound 3: 2-methylpropane, C4H10, InChI=1S/C4H10/c1-4(2)3/h4H,1-3H3, purity 99%
Compound 4: methanol, CH4O, InChI=1S/CH4O/c1-2/h2H,1H3
Compound 5: propene, C3H6, InChI=1S/C3H6/c1-3-2/h3H,1H2,2H3, purity 99.5%

System: methanol + propane; phases: Liquid, Gas
Fixed: Mole fraction of propane = 0
Property: Henry's Law constant (mole fraction scale), kPa of propane (Liquid); method: Chromatography
Temperature, K	Henry's Law constant (mole fraction scale), kPa of propane	uncertainty
374	21800	2617
394.8	25800	3098
412.7	27400	3290
431.6	28500	3422
452.8	27800	3338
513.38	12900	1549

System: methanol + propene; phases: Liquid, Gas
Fixed: Mole fraction of propene = 0
Property: Henry's Law constant (mole fraction scale), kPa of propene (Liquid); method: Chromatography
Temperature, K	Henry's Law constant (mole fraction scale), kPa of propene	uncertainty
374	17500	2101
393.3	20200	2425
412.5	22200	2665
431.6	22800	2737
451	22800	2737
470.1	24100	2893
489.5	20900	2510
513.38	13000	1562

System: methanol + butane; phases: Liquid, Gas
Fixed: Mole fraction of butane = 0
Property: Henry's Law constant (mole fraction scale), kPa of butane (Liquid); method: Chromatography
Temperature, K	Henry's Law constant (mole fraction scale), kPa of butane	uncertainty
374	11500	1381
393.3	14000	1681
412.4	16200	1945
431.6	16700	2005
451	17000	2041
470.1	16000	1921
489.5	15800	1897
513.38	9900	1190

System: methanol + 2-methylpropane; phases: Liquid, Gas
Fixed: Mole fraction of 2-methylpropane = 0
Property: Henry's Law constant (mole fraction scale), kPa of 2-methylpropane (Liquid); method: Chromatography
Temperature, K	Henry's Law constant (mole fraction scale), kPa of 2-methylpropane	uncertainty
374	14600	1753
394.8	16900	2029
412.5	18900	2269
431.9	19200	2305
454.6	17800	2137
472.5	17000	2041
493.2	16300	1957
513.38	10100	1214
