Measured thermophysical data. Solubility evaluation and thermodynamic modeling of beta-lapachone in water and ten organic solvents at different temperatures
Source: Fluid Phase Equilib., 2018, 10.1016/j.fluid.2018.05.005
Compound 1: 3,4-dihydro-2,2-dimethyl-2H-naphtho[1,2-b]pyran-5,6-dione, C15H14O3, InChI=1S/C15H14O3/c1-15(2)8-7-11-13(17)12(16)9-5-3-4-6-10(9)14(11)18-15/h3-6H,7-8H2,1-2H3, purity 99.9%
Compound 2: methanol, CH4O, InChI=1S/CH4O/c1-2/h2H,1H3, purity 99.9%
Compound 3: ethanol, C2H6O, InChI=1S/C2H6O/c1-2-3/h3H,2H2,1H3, purity 99.9%
Compound 4: propan-1-ol, C3H8O, InChI=1S/C3H8O/c1-2-3-4/h4H,2-3H2,1H3, purity 99.5%
Compound 5: propan-2-ol, C3H8O, InChI=1S/C3H8O/c1-3(2)4/h3-4H,1-2H3, purity 99.7%
Compound 6: butan-1-ol, C4H10O, InChI=1S/C4H10O/c1-2-3-4-5/h5H,2-4H2,1H3, purity 99.5%
Compound 7: butan-2-ol, C4H10O, InChI=1S/C4H10O/c1-3-4(2)5/h4-5H,3H2,1-2H3, purity 99.5%
Compound 8: acetonitrile, C2H3N, InChI=1S/C2H3N/c1-2-3/h1H3, purity 99.9%
Compound 9: acetone, C3H6O, InChI=1S/C3H6O/c1-3(2)4/h1-2H3, purity 99.8%
Compound 10: ethyl acetate, C4H8O2, InChI=1S/C4H8O2/c1-3-6-4(2)5/h3H2,1-2H3, purity 99.5%
Compound 11: 1,2-propanediol, C3H8O2, InChI=1S/C3H8O2/c1-3(5)2-4/h3-5H,2H2,1H3, purity 99%
Compound 12: water, H2O, InChI=1S/H2O/h1H2, purity 99.8%

System: 3,4-dihydro-2,2-dimethyl-2H-naphtho[1,2-b]pyran-5,6-dione; phases: Crystal, Liquid, Air at 1 atmosphere
Property: Triple point temperature, K (Crystal); method: DSC
Triple point temperature, K	uncertainty
428.99	1.9

System: 3,4-dihydro-2,2-dimethyl-2H-naphtho[1,2-b]pyran-5,6-dione; phases: Crystal, Liquid, Air at 1 atmosphere
Property: Molar enthalpy of transition or fusion, kJ/mol (Crystal); method: DSC
Molar enthalpy of transition or fusion, kJ/mol	uncertainty
24.52	1.14

System: 3,4-dihydro-2,2-dimethyl-2H-naphtho[1,2-b]pyran-5,6-dione + methanol; phases: Liquid, Crystal
Fixed: Pressure, kPa = 100
Property: Mole fraction of 3,4-dihydro-2,2-dimethyl-2H-naphtho[1,2-b]pyran-5,6-dione (Liquid); method: UV spectrophotometer
Temperature, K	Mole fraction of 3,4-dihydro-2,2-dimethyl-2H-naphtho[1,2-b]pyran-5,6-dione	uncertainty
298.15	0.0054	0.00019
303.15	0.00654	0.00023
308.15	0.0076	0.00027
313.15	0.0101	0.0004
318.15	0.0153	0.0006

System: 3,4-dihydro-2,2-dimethyl-2H-naphtho[1,2-b]pyran-5,6-dione + ethanol; phases: Liquid, Crystal
Fixed: Pressure, kPa = 100
Property: Mole fraction of 3,4-dihydro-2,2-dimethyl-2H-naphtho[1,2-b]pyran-5,6-dione (Liquid); method: UV spectrophotometer
Temperature, K	Mole fraction of 3,4-dihydro-2,2-dimethyl-2H-naphtho[1,2-b]pyran-5,6-dione	uncertainty
298.15	0.00499	0.00017
303.15	0.00595	0.00021
308.15	0.00664	0.00023
313.15	0.00909	0.00034
318.15	0.0134	0.0005

System: 3,4-dihydro-2,2-dimethyl-2H-naphtho[1,2-b]pyran-5,6-dione + propan-1-ol; phases: Liquid, Crystal
Fixed: Pressure, kPa = 100
Property: Mole fraction of 3,4-dihydro-2,2-dimethyl-2H-naphtho[1,2-b]pyran-5,6-dione (Liquid); method: UV spectrophotometer
Temperature, K	Mole fraction of 3,4-dihydro-2,2-dimethyl-2H-naphtho[1,2-b]pyran-5,6-dione	uncertainty
298.15	0.00669	0.00023
303.15	0.00793	0.00028
308.15	0.00969	0.00036
313.15	0.0146	0.0005
318.15	0.0203	0.0007

System: 3,4-dihydro-2,2-dimethyl-2H-naphtho[1,2-b]pyran-5,6-dione + propan-2-ol; phases: Liquid, Crystal
Fixed: Pressure, kPa = 100
Property: Mole fraction of 3,4-dihydro-2,2-dimethyl-2H-naphtho[1,2-b]pyran-5,6-dione (Liquid); method: UV spectrophotometer
Temperature, K	Mole fraction of 3,4-dihydro-2,2-dimethyl-2H-naphtho[1,2-b]pyran-5,6-dione	uncertainty
298.15	0.00376	0.00013
303.15	0.00432	0.00015
308.15	0.00528	0.00019
313.15	0.00754	0.00028
318.15	0.0111	0.0004

System: 3,4-dihydro-2,2-dimethyl-2H-naphtho[1,2-b]pyran-5,6-dione + butan-1-ol; phases: Liquid, Crystal
Fixed: Pressure, kPa = 100
Property: Mole fraction of 3,4-dihydro-2,2-dimethyl-2H-naphtho[1,2-b]pyran-5,6-dione (Liquid); method: UV spectrophotometer
Temperature, K	Mole fraction of 3,4-dihydro-2,2-dimethyl-2H-naphtho[1,2-b]pyran-5,6-dione	uncertainty
298.15	0.00743	0.00026
303.15	0.00895	0.00031
308.15	0.0108	0.0004
313.15	0.0142	0.0005
318.15	0.0203	0.0007

System: 3,4-dihydro-2,2-dimethyl-2H-naphtho[1,2-b]pyran-5,6-dione + butan-2-ol; phases: Liquid, Crystal
Fixed: Pressure, kPa = 100
Property: Mole fraction of 3,4-dihydro-2,2-dimethyl-2H-naphtho[1,2-b]pyran-5,6-dione (Liquid); method: UV spectrophotometer
Temperature, K	Mole fraction of 3,4-dihydro-2,2-dimethyl-2H-naphtho[1,2-b]pyran-5,6-dione	uncertainty
298.15	0.00565	0.0002
303.15	0.00671	0.00023
308.15	0.0079	0.00028
313.15	0.0104	0.0004
318.15	0.0162	0.0006

System: 3,4-dihydro-2,2-dimethyl-2H-naphtho[1,2-b]pyran-5,6-dione + acetonitrile; phases: Liquid, Crystal
Fixed: Pressure, kPa = 100
Property: Mole fraction of 3,4-dihydro-2,2-dimethyl-2H-naphtho[1,2-b]pyran-5,6-dione (Liquid); method: UV spectrophotometer
Temperature, K	Mole fraction of 3,4-dihydro-2,2-dimethyl-2H-naphtho[1,2-b]pyran-5,6-dione	uncertainty
298.15	0.018	0.0006
303.15	0.0209	0.0007
308.15	0.0227	0.0008
313.15	0.0269	0.0009
318.15	0.0325	0.0011

System: 3,4-dihydro-2,2-dimethyl-2H-naphtho[1,2-b]pyran-5,6-dione + acetone; phases: Liquid, Crystal
Fixed: Pressure, kPa = 100
Property: Mole fraction of 3,4-dihydro-2,2-dimethyl-2H-naphtho[1,2-b]pyran-5,6-dione (Liquid); method: UV spectrophotometer
Temperature, K	Mole fraction of 3,4-dihydro-2,2-dimethyl-2H-naphtho[1,2-b]pyran-5,6-dione	uncertainty
298.15	0.0205	0.0007
303.15	0.0216	0.0007
308.15	0.0245	0.0009
313.15	0.0296	0.001
318.15	0.0342	0.0012

System: 3,4-dihydro-2,2-dimethyl-2H-naphtho[1,2-b]pyran-5,6-dione + ethyl acetate; phases: Liquid, Crystal
Fixed: Pressure, kPa = 100
Property: Mole fraction of 3,4-dihydro-2,2-dimethyl-2H-naphtho[1,2-b]pyran-5,6-dione (Liquid); method: UV spectrophotometer
Temperature, K	Mole fraction of 3,4-dihydro-2,2-dimethyl-2H-naphtho[1,2-b]pyran-5,6-dione	uncertainty
298.15	0.00853	0.00029
303.15	0.00936	0.00032
308.15	0.0104	0.0004
313.15	0.0121	0.0004
318.15	0.0165	0.0006

System: 3,4-dihydro-2,2-dimethyl-2H-naphtho[1,2-b]pyran-5,6-dione + 1,2-propanediol; phases: Liquid, Crystal
Fixed: Pressure, kPa = 100
Property: Mole fraction of 3,4-dihydro-2,2-dimethyl-2H-naphtho[1,2-b]pyran-5,6-dione (Liquid); method: UV spectrophotometer
Temperature, K	Mole fraction of 3,4-dihydro-2,2-dimethyl-2H-naphtho[1,2-b]pyran-5,6-dione	uncertainty
298.15	0.00306	0.0001
303.15	0.00308	0.00011
308.15	0.0037	0.00013
313.15	0.00531	0.00019
318.15	0.00724	0.00026

System: 3,4-dihydro-2,2-dimethyl-2H-naphtho[1,2-b]pyran-5,6-dione + water; phases: Liquid, Crystal
Fixed: Pressure, kPa = 100
Property: Mole fraction of 3,4-dihydro-2,2-dimethyl-2H-naphtho[1,2-b]pyran-5,6-dione (Liquid); method: UV spectrophotometer
Temperature, K	Mole fraction of 3,4-dihydro-2,2-dimethyl-2H-naphtho[1,2-b]pyran-5,6-dione	uncertainty
298.15	2.85e-06	1e-07
303.15	3.72e-06	1.3e-07
308.15	4.46e-06	1.6e-07
313.15	5.26e-06	1.8e-07
318.15	6.12e-06	2.1e-07
