Measured thermophysical data. Liquid phase equilibria of (water + propionic acid + oleyl alcohol) ternary system at several temperatures
Source: Fluid Phase Equilib., 2006, 10.1016/j.fluid.2006.10.005
Compound 1: water, H2O, InChI=1S/H2O/h1H2
Compound 2: propanoic acid, C3H6O2, InChI=1S/C3H6O2/c1-2-3(4)5/h2H2,1H3,(H,4,5), purity 99%
Compound 3: (Z)-9-octadecen-1-ol, C18H36O, InChI=1S/C18H36O/c1-2-3-4-5-6-7-8-9-10-11-12-13-14-15-16-17-18-19/h9-10,19H,2-8,11-18H2,1H3/b10-9-, purity 85%

System: propanoic acid; phases: Liquid
Property: Refractive index (Na D-line) (Liquid); method: Standard Abbe refractometry
Temperature, K	Pressure, kPa	Refractive index (Na D-line)	uncertainty
293.15	101.325	1.3808	0.0008

System: propanoic acid; phases: Liquid, Gas
Property: Boiling temperature at pressure P, K (Liquid); method: Distillation
Pressure, kPa	Boiling temperature at pressure P, K	uncertainty
101.325	414.2	0.21

System: propanoic acid; phases: Liquid
Property: Mass density, kg/m3 (Liquid); method: VIBTUB:UFactor:2
Temperature, K	Pressure, kPa	Mass density, kg/m3	uncertainty
298.15	101.325	988.1	0.35

System: (Z)-9-octadecen-1-ol; phases: Liquid
Property: Refractive index (Na D-line) (Liquid); method: Standard Abbe refractometry
Temperature, K	Pressure, kPa	Refractive index (Na D-line)	uncertainty
293.15	101.325	1.4603	0.02

System: (Z)-9-octadecen-1-ol; phases: Liquid, Gas
Property: Boiling temperature at pressure P, K (Liquid); method: Distillation
Pressure, kPa	Boiling temperature at pressure P, K	uncertainty
2	480.05	3

System: (Z)-9-octadecen-1-ol; phases: Liquid
Property: Mass density, kg/m3 (Liquid); method: VIBTUB:UFactor:2
Temperature, K	Pressure, kPa	Mass density, kg/m3	uncertainty
293.15	101.325	848.5	56.3

System: propanoic acid + (Z)-9-octadecen-1-ol + water; phases: Liquid mixture 1, Liquid mixture 2
Fixed: Pressure, kPa = 101
Property: Mole fraction of propanoic acid (Liquid mixture 1); method: Titration method
Property: Mole fraction of propanoic acid (Liquid mixture 2); method: Titration method
Property: Mole fraction of water (Liquid mixture 2); method: Titration method
Temperature, K	Mole fraction of water	Mole fraction of propanoic acid	uncertainty	Mole fraction of propanoic acid	uncertainty	Mole fraction of water	uncertainty
298.15	0.977	0.0229	0.0057	0.1832	0.0852	0.019	
298.15	0.9496	0.0502	0.0058	0.3212	0.0855	0.0255	
298.15	0.9083	0.0915	0.0062	0.4164	0.0136	0.0931	
298.15	0.8656	0.134	0.0068	0.4565	0.0142	0.155	
298.15	0.8082	0.1913	0.0078	0.4647	0.0144	0.2547	
298.15	0.7622	0.2367	0.0087	0.4619	0.0143	0.292	
308.15	0.9746	0.0253	0.0057	0.2055	0.0146	0.0225	
308.15	0.9515	0.0483	0.0058	0.3016	0.0121	0.0483	
308.15	0.9095	0.0902	0.0062	0.3768	0.0125	0.1005	
308.15	0.8647	0.1349	0.0068	0.4251	0.0133	0.1609	
308.15	0.8073	0.1922	0.0078	0.4345	0.0135	0.264	
308.15	0.7567	0.2421	0.0089	0.4318	0.0134	0.3262	
318.15	0.9796	0.0203	0.0057	0.1669	0.0167	0.0268	
318.15	0.9534	0.0464	0.0058	0.2982	0.011	0.0608	
318.15	0.9158	0.0839	0.0061	0.3799	0.0122	0.1604	
318.15	0.8906	0.109	0.0064	0.4061	0.0126	0.2139	
318.15	0.8474	0.1521	0.0071	0.4148	0.0129	0.3041	
318.15	0.8119	0.1875	0.0077	0.4159	0.0129	0.3445	
