Measured thermophysical data. Solubility of carbon dioxide in methanol from 213.15 K to 273.15 K: Measurement and modeling
Source: Fluid Phase Equilib., 2018, 10.1016/j.fluid.2018.04.014
Compound 1: carbon dioxide, CO2, InChI=1S/CO2/c2-1-3, purity 99.99%
Compound 2: methanol, CH4O, InChI=1S/CH4O/c1-2/h2H,1H3, purity 99.9%

System: carbon dioxide + methanol; phases: Gas, Liquid
Property: Vapor or sublimation pressure, kPa (Gas); method: Closed cell (Static) method
Temperature, K	Mole fraction of carbon dioxide	Vapor or sublimation pressure, kPa	uncertainty
273.15	0.0212	187	7.4
273.15	0.0771	667	22.5
273.15	0.1689	1363.7	50
273.15	0.2784	2018.7	29.9
273.15	0.4055	2754.3	46.3
273.15	0.5203	3028.7	21.3
273.15	0.9204	3345	17.8
258.15	0.0499	286.7	19.5
258.15	0.0861	518	18.2
258.15	0.2004	1099.3	62.8
258.15	0.2956	1538	9.4
258.15	0.4796	1983	20.7
258.15	0.5801	2125.7	17.3
258.15	0.7271	2236	16.9
243.15	0.0451	195.7	12.4
243.15	0.1043	440.7	9.6
243.15	0.1673	651.7	16.8
243.15	0.2275	847.3	38.4
243.15	0.3589	1066.3	54.1
243.15	0.467	1256.7	23.2
243.15	0.79	1447.3	34.7
228.15	0.0495	103.3	3.7
228.15	0.0972	205.3	16.2
228.15	0.1523	306.7	8.6
228.15	0.204	405	45.9
228.15	0.2599	511.7	35.3
228.15	0.3521	617.3	16.8
228.15	0.482	731.3	9.6
228.15	0.5812	762	9.4
228.15	0.9048	794.7	5.3
213.15	0.0856	105.7	3.9
213.15	0.1523	171.3	7.2
213.15	0.207	221.3	5.7
213.15	0.3043	308.3	8
213.15	0.4064	360.3	6
213.15	0.5231	426	5.5
213.15	0.8044	466.3	5.1
