Measured thermophysical data. CO2 and alkane minimum miscible pressure estimation by the extrapolation of interfacial tension
Source: Fluid Phase Equilib., 2019, 10.1016/j.fluid.2019.05.002
Compound 1: carbon dioxide, CO2, InChI=1S/CO2/c2-1-3, purity 99.9%
Compound 2: undecane, C11H24, InChI=1S/C11H24/c1-3-5-7-9-11-10-8-6-4-2/h3-11H2,1-2H3, purity 99%
Compound 3: tridecane, C13H28, InChI=1S/C13H28/c1-3-5-7-9-11-13-12-10-8-6-4-2/h3-13H2,1-2H3, purity 98%
Compound 4: tetradecane, C14H30, InChI=1S/C14H30/c1-3-5-7-9-11-13-14-12-10-8-6-4-2/h3-14H2,1-2H3, purity 98%

System: carbon dioxide + undecane; phases: Liquid, Gas
Property: Interfacial tension, N/m (Liquid); method: Pendant drop shape
Temperature, K	Pressure, kPa	Interfacial tension, N/m	uncertainty
298.2	101	0.02304	0.00277
298.2	994	0.02088	0.00251
298.2	2021	0.018	0.00216
298.2	2995	0.01476	0.00177
298.2	3991	0.0111	0.00134
298.2	5014	0.00713	0.00087
298.2	5988	0.0028	0.00042
298.2	6389	0.00154	0.00093
313.1	98	0.02288	0.00275
313.1	1001	0.02047	0.00246
313.1	2015	0.01805	0.00217
313.1	3002	0.01486	0.00178
313.1	3992	0.01238	0.00149
313.1	4980	0.00917	0.0011
313.1	5991	0.00665	0.00081
313.1	6986	0.00319	0.00107
313.1	7768	0.00093	0.00039
344.2	97	0.02001	0.0024
344.2	1003	0.01864	0.00224
344.2	1981	0.01687	0.00203
344.2	3014	0.01501	0.0018
344.2	4025	0.01315	0.00158
344.2	5026	0.01129	0.00136
344.2	5977	0.00945	0.00114
344.2	7028	0.00791	0.00095
344.2	8017	0.00646	0.00078
344.2	8998	0.00462	0.00056
344.2	10035	0.00332	0.0004
344.2	11008	0.00184	0.00029
344.2	11971	0.00073	0.00043
373.1	103	0.01868	0.00224
373.1	973	0.01653	0.00199
373.1	2013	0.0151	0.00181
373.1	2996	0.01419	0.0017
373.1	3968	0.01328	0.00159
373.1	5310	0.01216	0.00146
373.1	5970	0.01045	0.00126
373.1	6978	0.00866	0.00104
373.1	7958	0.00758	0.00091
373.1	8976	0.00636	0.00077
373.1	9989	0.00531	0.00064
373.1	11003	0.00422	0.00051
373.1	11993	0.00326	0.0004
373.1	12983	0.00223	0.00034
373.1	13699	0.00162	0.00056
373.1	14923	0.00091	0.00013

System: carbon dioxide + tridecane; phases: Liquid, Gas
Property: Interfacial tension, N/m (Liquid); method: Pendant drop shape
Temperature, K	Pressure, kPa	Interfacial tension, N/m	uncertainty
298.3	99	0.02356	0.00283
298.3	973	0.02141	0.00257
298.3	1968	0.01919	0.00231
298.3	2965	0.01592	0.00191
298.3	4013	0.01199	0.00144
298.3	4979	0.00794	0.00098
298.3	5970	0.00283	0.00048
298.3	6398	0.00162	0.00083
313.1	101	0.02396	0.00288
313.1	989	0.02098	0.00252
313.1	1983	0.01898	0.00228
313.1	2970	0.01641	0.00197
313.1	4007	0.01324	0.00159
313.1	5004	0.01065	0.00128
313.1	5981	0.0081	0.00099
313.1	6992	0.00493	0.00062
313.1	7978	0.00157	0.00034
344.2	103	0.02111	0.00254
344.2	943	0.01913	0.0023
344.2	1968	0.01723	0.00207
344.2	2992	0.01595	0.00192
344.2	3963	0.01393	0.00167
344.2	4982	0.01233	0.00148
344.2	6004	0.01081	0.0013
344.2	6982	0.00882	0.00106
344.2	7987	0.00764	0.00093
344.2	8978	0.00575	0.0007
344.2	9996	0.00481	0.00058
344.2	10982	0.00311	0.00038
344.2	11972	0.00218	0.00029
373.1	97	0.0203	0.00244
373.1	967	0.01907	0.00229
373.1	1995	0.01686	0.00203
373.1	2988	0.01502	0.0018
373.1	3982	0.01346	0.00162
373.1	4968	0.01251	0.0015
373.1	5989	0.01149	0.00138
373.1	7016	0.00998	0.0012
373.1	7978	0.00889	0.00107
373.1	8986	0.00772	0.00093
373.1	9986	0.00663	0.0008
373.1	10986	0.00554	0.00067
373.1	11973	0.00462	0.00056
373.1	12981	0.00348	0.00043
373.1	13994	0.00276	0.00067
373.1	14483	0.00233	0.00029
373.1	15005	0.00178	0.00051

System: carbon dioxide + tetradecane; phases: Liquid, Gas
Property: Interfacial tension, N/m (Liquid); method: Pendant drop shape
Temperature, K	Pressure, kPa	Interfacial tension, N/m	uncertainty
297.9	101	0.02502	0.00301
297.9	2002	0.01983	0.00238
297.9	2489	0.01798	0.00216
297.9	3010	0.01606	0.00193
297.9	3485	0.0147	0.00177
297.9	3998	0.01235	0.00148
297.9	4495	0.00994	0.0012
297.9	4987	0.00782	0.00096
297.9	5501	0.00544	0.00069
297.9	5978	0.00341	0.00051
313.1	102	0.02483	0.00298
313.1	2001	0.01781	0.00214
313.1	2489	0.01666	0.002
313.1	3012	0.01544	0.00186
313.1	3508	0.0141	0.00169
313.1	3998	0.01279	0.00154
313.1	4497	0.01146	0.00138
313.1	4997	0.01028	0.00124
313.1	5484	0.00891	0.00109
313.1	5982	0.00787	0.00097
313.1	6504	0.00645	0.00079
313.1	6981	0.00495	0.00062
313.1	7601	0.00312	0.00045
313.1	8050	0.00159	0.00035
313.1	8400	0.0003	0.00048
323.2	998	0.02376	0.00286
323.2	1987	0.01681	0.00202
323.2	2498	0.01609	0.00193
323.2	3006	0.01512	0.00182
323.2	3504	0.0141	0.00169
323.2	3996	0.01309	0.00157
323.2	4508	0.01199	0.00144
323.2	4988	0.01092	0.00132
323.2	5496	0.00987	0.00119
323.2	5986	0.00888	0.00107
323.2	6509	0.0078	0.001
323.2	6968	0.00677	0.00083
323.2	7503	0.00592	0.00074
323.2	7968	0.00484	0.00063
323.2	8508	0.00383	0.00053
323.2	8991	0.00294	0.0004
323.2	9486	0.00193	0.0003
323.2	9800	0.00143	0.00027
323.2	10495	0.00026	0.00024
333.2	978	0.02432	0.00292
333.2	2010	0.01823	0.00219
333.2	2504	0.01726	0.00208
333.2	3003	0.01627	0.00196
333.2	3495	0.01526	0.00184
333.2	3984	0.01422	0.00171
333.2	4495	0.01332	0.00161
333.2	4982	0.01266	0.00153
333.2	5496	0.01147	0.00139
333.2	6003	0.01047	0.00127
333.2	6509	0.00969	0.00118
333.2	6978	0.00865	0.00105
333.2	7492	0.00759	0.00091
333.2	8006	0.00648	0.0008
333.2	8489	0.00549	0.00068
333.2	9006	0.00469	0.00059
333.2	9492	0.00393	0.00051
333.2	9995	0.00313	0.00042
333.2	10502	0.0024	0.00036
333.2	11005	0.00178	0.00027
333.2	11400	0.00127	0.00022
333.2	12004	0.00078	0.0002
344.3	109	0.02321	0.00279
344.3	1000	0.02138	0.00257
344.3	2007	0.0198	0.00238
344.3	2981	0.01789	0.00215
344.3	3988	0.01536	0.00185
344.3	4988	0.01385	0.00166
344.3	5981	0.0119	0.00143
344.3	6976	0.01017	0.00122
344.3	7966	0.00841	0.00101
344.3	8982	0.00661	0.0008
344.3	9979	0.00495	0.0006
344.3	10968	0.00358	0.00044
344.3	11956	0.00265	0.00076
344.3	12954	0.00168	0.00037
344.3	13988	0.00082	0.00053
373.2	99	0.02101	0.00252
373.2	984	0.02062	0.00248
373.2	1978	0.01893	0.00227
373.2	2975	0.01735	0.00208
373.2	3997	0.01503	0.00181
373.2	5005	0.01377	0.00165
373.2	5980	0.01184	0.00142
373.2	6953	0.0106	0.00127
373.2	7971	0.0094	0.00113
373.2	8969	0.00812	0.00098
373.2	9954	0.00709	0.00086
373.2	11002	0.00628	0.00076
373.2	11980	0.00519	0.00063
373.2	12968	0.00403	0.00049
373.2	13961	0.00256	0.00031
