Measured thermophysical data. Liquid phase behavior of imidazolium-based ionic liquids with alcohols: effect of hydrogen bonding and non-polar interactions
Source: Fluid Phase Equilib., 2005, 10.1016/j.fluid.2004.07.014
Compound 1: 1-hexyl-3-methylimidazolium bis[(trifluoromethyl)sulfonyl]imide, C12H19F6N3O4S2, InChI=1S/C10H19N2.C2F6NO4S2/c1-3-4-5-6-7-12-9-8-11(2)10-12;3-1(4,5)14(10,11)9-15(12,13)2(6,7)8/h8-10H,3-7H2,1-2H3;/q+1;-1
Compound 2: 1-octyl-3-methylimidazolium bis[(trifluoromethyl)sulfonyl]imide, C14H23F6N3O4S2, InChI=1S/C12H23N2.C2F6NO4S2/c1-3-4-5-6-7-8-9-14-11-10-13(2)12-14;3-1(4,5)14(10,11)9-15(12,13)2(6,7)8/h10-12H,3-9H2,1-2H3;/q+1;-1
Compound 3: 1-hexyl-2,3-dimethylimidazolium bis[(trifluoromethyl)sulfonyl]imide, C13H21F6N3O4S2, InChI=1S/C11H21N2.C2F6NO4S2/c1-4-5-6-7-8-13-10-9-12(3)11(13)2;3-1(4,5)14(10,11)9-15(12,13)2(6,7)8/h9-10H,4-8H2,1-3H3;/q+1;-1
Compound 4: octan-1-ol, C8H18O, InChI=1S/C8H18O/c1-2-3-4-5-6-7-8-9/h9H,2-8H2,1H3
Compound 5: hexan-1-ol, C6H14O, InChI=1S/C6H14O/c1-2-3-4-5-6-7/h7H,2-6H2,1H3
Compound 6: 1-methyl-3-octylimidazolium tetrafluoroborate, C12H23BF4N2, InChI=1S/C12H23N2.BF4/c1-3-4-5-6-7-8-9-14-11-10-13(2)12-14;2-1(3,4)5/h10-12H,3-9H2,1-2H3;/q+1;-1

System: octan-1-ol + 1-methyl-3-octylimidazolium tetrafluoroborate; phases: Liquid mixture 1, Liquid mixture 2
Fixed: Pressure, kPa = 101
Property: Liquid-liquid equilibrium temperature, K (Liquid mixture 1); method: VISOBS
Mole fraction of 1-methyl-3-octylimidazolium tetrafluoroborate	Liquid-liquid equilibrium temperature, K	uncertainty
0.0098	303.7	1
0.02	309.4	1
0.0446	314.3	1
0.0767	314.9	1
0.1266	315.2	1
0.1764	315	1
0.2335	314.1	1
0.3056	312.2	1
0.357	308.5	1
0.3995	305.3	1
0.4667	298.8	1

System: hexan-1-ol + 1-methyl-3-octylimidazolium tetrafluoroborate; phases: Liquid mixture 1, Liquid mixture 2
Fixed: Pressure, kPa = 101
Property: Liquid-liquid equilibrium temperature, K (Liquid mixture 1); method: VISOBS
Mole fraction of 1-methyl-3-octylimidazolium tetrafluoroborate	Liquid-liquid equilibrium temperature, K	uncertainty
0.02	296.5	1
0.0432	300.3	1
0.0766	301.1	1
0.1262	301	1
0.1744	300.8	1
0.2309	299.3	1
0.2771	297.4	1
0.3269	294.3	1

System: hexan-1-ol + 1-hexyl-3-methylimidazolium bis[(trifluoromethyl)sulfonyl]imide; phases: Liquid mixture 1, Liquid mixture 2
Fixed: Pressure, kPa = 101
Property: Liquid-liquid equilibrium temperature, K (Liquid mixture 1); method: VISOBS
Mole fraction of 1-hexyl-3-methylimidazolium bis[(trifluoromethyl)sulfonyl]imide	Liquid-liquid equilibrium temperature, K	uncertainty
0.0198	294.3	1
0.04	302.1	1
0.0782	305.5	1
0.128	306.1	1
0.1701	306	1
0.2131	305.5	1
0.2803	303.9	1
0.3406	300.3	1
0.3957	296.4	1

System: octan-1-ol + 1-hexyl-3-methylimidazolium bis[(trifluoromethyl)sulfonyl]imide; phases: Liquid mixture 1, Liquid mixture 2
Fixed: Pressure, kPa = 101
Property: Liquid-liquid equilibrium temperature, K (Liquid mixture 1); method: VISOBS
Mole fraction of 1-hexyl-3-methylimidazolium bis[(trifluoromethyl)sulfonyl]imide	Liquid-liquid equilibrium temperature, K	uncertainty
0.0106	309.3	1
0.0203	320.3	1
0.0399	328.4	1
0.0787	332.6	1
0.1284	333.6	1
0.1706	333.5	1
0.2154	333.3	1
0.2638	332.9	1
0.3483	329.2	1
0.4249	324.9	1
0.5154	316.9	1
0.6014	306.6	1

System: octan-1-ol + 1-octyl-3-methylimidazolium bis[(trifluoromethyl)sulfonyl]imide; phases: Liquid mixture 1, Liquid mixture 2
Fixed: Pressure, kPa = 101
Property: Liquid-liquid equilibrium temperature, K (Liquid mixture 1); method: VISOBS
Mole fraction of 1-octyl-3-methylimidazolium bis[(trifluoromethyl)sulfonyl]imide	Liquid-liquid equilibrium temperature, K	uncertainty
0.0198	298.2	1
0.0396	305.3	1
0.0783	308.5	1
0.1291	309	1
0.1698	308.8	1
0.2139	308.2	1
0.2953	306	1
0.3469	303	1
0.4016	299.2	1

System: hexan-1-ol + 1-hexyl-2,3-dimethylimidazolium bis[(trifluoromethyl)sulfonyl]imide; phases: Liquid mixture 1, Liquid mixture 2
Fixed: Pressure, kPa = 101
Property: Liquid-liquid equilibrium temperature, K (Liquid mixture 1); method: VISOBS
Mole fraction of 1-hexyl-2,3-dimethylimidazolium bis[(trifluoromethyl)sulfonyl]imide	Liquid-liquid equilibrium temperature, K	uncertainty
0.0102	309.8	1
0.0203	320.6	1
0.0403	327.9	1
0.0774	330.6	1
0.1277	331	1
0.1695	330.9	1
0.2116	330.1	1
0.2675	328.5	1
0.3423	324.1	1
0.4203	317.8	1
0.4951	310.3	1
0.5873	298.5	1
