Measured thermophysical data. Vapor liquid equilibrium, densities, and interfacial tensions for the system ethyl 1,1-dimethylethyl ether (ETBE) + propan-1-ol
Source: Fluid Phase Equilib., 2007, 10.1016/j.fluid.2007.04.009
Compound 1: 2-ethoxy-2-methylpropane, C6H14O, InChI=1S/C6H14O/c1-5-7-6(2,3)4/h5H2,1-4H3, purity 96%
Compound 2: propan-1-ol, C3H8O, InChI=1S/C3H8O/c1-2-3-4/h4H,2-3H2,1H3, purity 99.9%

System: 2-ethoxy-2-methylpropane; phases: Liquid
Property: Refractive index (Na D-line) (Liquid); method: Standard Abbe refractometry
Temperature, K	Pressure, kPa	Refractive index (Na D-line)	uncertainty
298.15	101.325	1.37319	0.00072

System: 2-ethoxy-2-methylpropane; phases: Liquid
Property: Mass density, kg/m3 (Liquid); method: VIBTUB:UFactor:2
Temperature, K	Pressure, kPa	Mass density, kg/m3	uncertainty
298.15	101.325	735.44	0.35

System: 2-ethoxy-2-methylpropane; phases: Liquid, Air at 1 atmosphere
Property: Surface tension liquid-gas, N/m (Liquid); method: Pendant drop shape
Temperature, K	Surface tension liquid-gas, N/m	uncertainty
298.15	0.01973	0.00023

System: propan-1-ol; phases: Liquid
Property: Refractive index (Na D-line) (Liquid); method: Standard Abbe refractometry
Temperature, K	Pressure, kPa	Refractive index (Na D-line)	uncertainty
298.15	101.325	1.38333	0.00072

System: propan-1-ol; phases: Liquid
Property: Mass density, kg/m3 (Liquid); method: VIBTUB:UFactor:2
Temperature, K	Pressure, kPa	Mass density, kg/m3	uncertainty
298.15	101.325	799.49	0.29

System: propan-1-ol; phases: Liquid, Air at 1 atmosphere
Property: Surface tension liquid-gas, N/m (Liquid); method: Pendant drop shape
Temperature, K	Surface tension liquid-gas, N/m	uncertainty
298.15	0.02389	0.00026

System: propan-1-ol + 2-ethoxy-2-methylpropane; phases: Liquid, Air at 1 atmosphere
Fixed: Temperature, K = 298.15
Property: Surface tension liquid-gas, N/m (Liquid); method: Pendant drop shape
Mole fraction of 2-ethoxy-2-methylpropane	Surface tension liquid-gas, N/m	uncertainty
0.067	0.02358	0.00026
0.171	0.02281	0.00025
0.315	0.02212	0.00025
0.412	0.02148	0.00024
0.579	0.02081	0.00024
0.763	0.02025	0.00023

System: propan-1-ol + 2-ethoxy-2-methylpropane; phases: Liquid, Gas
Property: Azeotropic temperature, K (Liquid); method: By T(X) extreme
Pressure, kPa	Azeotropic temperature, K	uncertainty
75	336.51	0.3
94	343.36	0.3

System: propan-1-ol + 2-ethoxy-2-methylpropane; phases: Liquid
Fixed: Pressure, kPa = 101.3
Fixed: Temperature, K = 298.15
Property: Mass density, kg/m3 (Liquid); method: VIBTUB:UFactor:2
Mole fraction of 2-ethoxy-2-methylpropane	Mass density, kg/m3	uncertainty
0.0572	795.04	0.27
0.1043	791.43	0.27
0.1752	786.11	0.28
0.2085	783.67	0.27
0.27	779.29	0.28
0.3317	775.03	0.28
0.3732	772.24	0.28
0.4205	769.2	0.28
0.4756	765.72	0.28
0.5326	762.15	0.28
0.5639	760.27	0.28
0.621	756.93	0.28
0.682	753.59	0.28
0.7188	751.55	0.28
0.7551	749.37	0.28
0.8334	745.06	0.29
0.8737	742.66	0.29
0.9142	740.45	0.29
0.9567	737.98	0.29

System: propan-1-ol + 2-ethoxy-2-methylpropane; phases: Liquid, Gas
Property: Azeotropic composition: mole fraction of 2-ethoxy-2-methylpropane (Liquid); method: By T or P extreme
Pressure, kPa	Azeotropic composition: mole fraction of 2-ethoxy-2-methylpropane	uncertainty
75	0.972	0.002
94	0.955	0.002

System: propan-1-ol + 2-ethoxy-2-methylpropane; phases: Liquid, Gas
Property: Boiling temperature at pressure P, K (Liquid); method: EBULLIO:UFactor:2
Mole fraction of 2-ethoxy-2-methylpropane	Pressure, kPa	Boiling temperature at pressure P, K	uncertainty
0	50	352.76	0.18
0	75	362.57	0.24
0	94	368.34	0.25
0.054	50	347.18	0.26
0.055	75	357.21	0.3
0.056	94	363.28	0.32
0.1	50	343.4	0.24
0.103	75	353.75	0.29
0.103	94	359.97	0.3
0.143	50	340.59	0.23
0.145	75	351.23	0.28
0.145	94	357.19	0.29
0.19	94	355.03	0.28
0.191	50	338.14	0.22
0.191	75	348.81	0.27
0.236	50	336.15	0.21
0.237	94	353.28	0.28
0.238	75	346.84	0.27
0.282	75	345.36	0.27
0.282	94	351.88	0.29
0.284	50	334.53	0.21
0.333	75	344.03	0.27
0.333	94	350.46	0.28
0.334	50	333.04	0.21
0.371	50	332.12	0.21
0.372	75	343.07	0.27
0.375	94	349.43	0.28
0.427	94	348.42	0.29
0.428	50	330.94	0.21
0.429	75	341.73	0.27
0.481	94	347.44	0.28
0.482	50	329.91	0.21
0.484	75	340.92	0.27
0.535	50	329.19	0.21
0.536	75	340.19	0.27
0.537	94	346.69	0.28
0.584	50	328.48	0.21
0.584	94	346.01	0.28
0.586	75	339.56	0.27
0.635	50	327.78	0.21
0.637	75	338.85	0.27
0.637	94	345.3	0.28
0.683	50	327.26	0.21
0.685	75	338.43	0.27
0.685	94	344.94	0.28
0.732	50	326.84	0.21
0.732	75	337.94	0.27
0.733	94	344.46	0.28
0.771	50	326.34	0.21
0.773	75	337.46	0.27
0.773	94	344.08	0.28
0.831	50	325.7	0.21
0.831	75	336.96	0.27
0.832	94	343.58	0.29
0.909	50	325.36	0.21
0.91	75	336.68	0.27
0.91	94	343.46	0.29
0.961	50	325.07	0.22
0.961	75	336.6	0.28
0.961	94	343.46	0.29
1	50	324.94	0.22
1	75	336.56	0.28
1	94	343.48	0.29

System: propan-1-ol + 2-ethoxy-2-methylpropane; phases: Gas, Liquid
Property: Mole fraction of 2-ethoxy-2-methylpropane (Gas); method: Chromatography
Mole fraction of 2-ethoxy-2-methylpropane	Pressure, kPa	Mole fraction of 2-ethoxy-2-methylpropane	uncertainty
0	50	0	0.001
0	75	0	0.001
0	94	0	0.001
0.054	50	0.267	0.009
0.055	75	0.244	0.008
0.056	94	0.229	0.008
0.1	50	0.408	0.007
0.103	75	0.381	0.006
0.103	94	0.359	0.006
0.143	50	0.505	0.006
0.145	75	0.465	0.006
0.145	94	0.443	0.006
0.19	94	0.512	0.005
0.191	50	0.579	0.005
0.191	75	0.538	0.005
0.236	50	0.635	0.004
0.237	94	0.567	0.005
0.238	75	0.594	0.005
0.282	75	0.638	0.004
0.282	94	0.609	0.004
0.284	50	0.678	0.004
0.333	75	0.674	0.004
0.333	94	0.652	0.004
0.334	50	0.713	0.003
0.371	50	0.733	0.003
0.372	75	0.7	0.003
0.375	94	0.678	0.004
0.427	94	0.706	0.003
0.428	50	0.76	0.003
0.429	75	0.729	0.003
0.481	94	0.733	0.003
0.482	50	0.784	0.003
0.484	75	0.754	0.003
0.535	50	0.802	0.003
0.536	75	0.773	0.003
0.537	94	0.756	0.003
0.584	50	0.819	0.003
0.584	94	0.775	0.003
0.586	75	0.792	0.003
0.635	50	0.836	0.003
0.637	75	0.811	0.003
0.637	94	0.796	0.003
0.683	50	0.852	0.003
0.685	75	0.827	0.003
0.685	94	0.814	0.003
0.732	50	0.865	0.002
0.732	75	0.846	0.003
0.733	94	0.833	0.003
0.771	50	0.881	0.002
0.773	75	0.862	0.003
0.773	94	0.85	0.003
0.831	50	0.903	0.002
0.831	75	0.888	0.002
0.832	94	0.878	0.003
0.909	50	0.935	0.002
0.91	75	0.927	0.002
0.91	94	0.922	0.003
0.961	50	0.968	0.003
0.961	75	0.964	0.003
0.961	94	0.962	0.003
1	50	1	0.001
1	75	1	0.001
1	94	1	0.001
