Measured thermophysical data. Measurement and modeling of osmotic coefficients of aqueous solution of ionic liquids using vapor pressure osmometry method
Source: Fluid Phase Equilib., 2009, 10.1016/j.fluid.2009.02.007
Compound 1: water, H2O, InChI=1S/H2O/h1H2, purity 99.9%
Compound 2: 1-butyl-3-methylimidazolium tetrafluoroborate, C8H15BF4N2, InChI=1S/C8H15N2.BF4/c1-3-4-5-10-7-6-9(2)8-10;2-1(3,4)5/h6-8H,3-5H2,1-2H3;/q+1;-1, purity 99%
Compound 3: 1-ethyl-3-methylimidazolium ethyl sulfate, C8H16N2O4S, InChI=1S/C6H11N2.C2H6O4S/c1-3-8-5-4-7(2)6-8;1-2-6-7(3,4)5/h4-6H,3H2,1-2H3;2H2,1H3,(H,3,4,5)/q+1;/p-1, purity 99%
Compound 4: 1-butyl-3-methylimidazolium methyl sulfate, C9H18N2O4S, InChI=1S/C8H15N2.CH4O4S/c1-3-4-5-10-7-6-9(2)8-10;1-5-6(2,3)4/h6-8H,3-5H2,1-2H3;1H3,(H,2,3,4)/q+1;/p-1, purity 98%

System: water + 1-butyl-3-methylimidazolium tetrafluoroborate; phases: Liquid
Fixed: Pressure, kPa = 101
Property: Osmotic coefficient (Liquid); method: Vapor pressure osmometry
Temperature, K	Molality, mol/kg of 1-butyl-3-methylimidazolium tetrafluoroborate	Osmotic coefficient	uncertainty
298.15	0.012	1.023	0.001
298.15	0.0223	0.994	0.001
298.15	0.0369	0.987	0.001
298.15	0.045	0.956	0.002
298.15	0.0652	0.952	0.002
298.15	0.0855	0.862	0.007
298.15	0.1058	0.854	0.007
298.15	0.1629	0.825	0.009
298.15	0.2108	0.804	0.01
298.15	0.2695	0.749	0.013
298.15	0.3284	0.699	0.015
298.15	0.4307	0.677	0.016
298.15	0.533	0.648	0.018
298.15	0.6375	0.619	0.019
298.15	0.7233	0.575	0.021
298.15	0.9322	0.523	0.024
298.15	1.2923	0.462	0.027
298.15	2.0659	0.392	0.03
308.15	0.012	1.009	0.001
308.15	0.0223	0.974	0.001
308.15	0.0369	0.959	0.002
308.15	0.045	0.956	0.002
308.15	0.0652	0.926	0.004
308.15	0.0855	0.879	0.006
308.15	0.1058	0.872	0.006
308.15	0.1629	0.823	0.009
308.15	0.2108	0.787	0.011
308.15	0.2695	0.766	0.012
308.15	0.3284	0.708	0.015
308.15	0.4307	0.685	0.016
308.15	0.533	0.666	0.017
308.15	0.6375	0.622	0.019
308.15	0.7233	0.587	0.021
308.15	0.9322	0.545	0.023
308.15	1.2923	0.495	0.025
308.15	2.0659	0.396	0.03
318.15	0.012	1.006	0.001
318.15	0.0223	0.986	0.001
318.15	0.0369	0.955	0.002
318.15	0.045	0.96	0.002
318.15	0.0652	0.937	0.003
318.15	0.0855	0.892	0.005
318.15	0.1058	0.887	0.006
318.15	0.1629	0.826	0.009
318.15	0.2108	0.802	0.01
318.15	0.2695	0.766	0.012
318.15	0.3284	0.748	0.013
318.15	0.4307	0.693	0.015
318.15	0.533	0.673	0.016
318.15	0.6375	0.634	0.018
318.15	0.7233	0.61	0.02
318.15	0.9322	0.564	0.022
318.15	1.2923	0.508	0.025
318.15	2.0659	0.412	0.029
328.15	0.012	0.994	0.001
328.15	0.0223	0.978	0.001
328.15	0.0369	0.965	0.002
328.15	0.045	0.959	0.002
328.15	0.0652	0.92	0.004
328.15	0.0855	0.9	0.005
328.15	0.1058	0.883	0.006
328.15	0.1629	0.839	0.008
328.15	0.2108	0.797	0.01
328.15	0.2695	0.772	0.011
328.15	0.3284	0.761	0.012
328.15	0.4307	0.726	0.014
328.15	0.533	0.685	0.016
328.15	0.6375	0.647	0.018
328.15	0.7233	0.632	0.018
328.15	0.9322	0.589	0.021
328.15	1.2923	0.517	0.024
328.15	2.0659	0.415	0.029

System: water + 1-ethyl-3-methylimidazolium ethyl sulfate; phases: Liquid
Fixed: Pressure, kPa = 101
Property: Osmotic coefficient (Liquid); method: Vapor pressure osmometry
Temperature, K	Molality, mol/kg of 1-ethyl-3-methylimidazolium ethyl sulfate	Osmotic coefficient	uncertainty
298.15	0.0086	0.973	0.001
298.15	0.0185	0.957	0.002
298.15	0.0284	0.937	0.003
298.15	0.0376	0.921	0.004
298.15	0.057	0.871	0.006
298.15	0.0749	0.852	0.007
298.15	0.0938	0.83	0.009
298.15	0.1269	0.815	0.009
298.15	0.1704	0.782	0.011
298.15	0.2087	0.774	0.011
298.15	0.2648	0.754	0.012
298.15	0.3276	0.751	0.012
298.15	0.4235	0.736	0.013
298.15	0.5106	0.724	0.014
298.15	0.6979	0.712	0.014
298.15	0.8919	0.706	0.015
298.15	1.1198	0.697	0.015
298.15	1.6061	0.696	0.015
298.15	1.8889	0.694	0.015
298.15	2.7627	0.733	0.013
308.15	0.0086	0.981	0.001
308.15	0.0185	0.943	0.003
308.15	0.0284	0.921	0.004
308.15	0.0376	0.917	0.004
308.15	0.057	0.862	0.007
308.15	0.0749	0.862	0.007
308.15	0.0938	0.838	0.008
308.15	0.1269	0.817	0.0092
308.15	0.1704	0.797	0.01
308.15	0.2087	0.779	0.011
308.15	0.2648	0.764	0.012
308.15	0.3276	0.766	0.012
308.15	0.4235	0.755	0.012
308.15	0.5106	0.745	0.013
308.15	0.6979	0.727	0.014
308.15	0.8919	0.721	0.014
308.15	1.1198	0.711	0.014
308.15	1.6061	0.707	0.015
308.15	1.8889	0.707	0.015
308.15	2.7627	0.747	0.013
318.15	0.0086	1.019	0.001
318.15	0.0185	0.972	0.002
318.15	0.0284	0.934	0.003
318.15	0.0376	0.93	0.01
318.15	0.057	0.868	0.007
318.15	0.0749	0.859	0.007
318.15	0.0938	0.845	0.008
318.15	0.1269	0.831	0.008
318.15	0.1704	0.813	0.009
318.15	0.2087	0.797	0.01
318.15	0.2648	0.797	0.01
318.15	0.3276	0.793	0.01
318.15	0.4235	0.776	0.011
318.15	0.5106	0.772	0.011
318.15	0.6979	0.742	0.013
318.15	0.8919	0.73	0.014
318.15	1.1198	0.717	0.014
318.15	1.6061	0.715	0.014
318.15	1.8889	0.717	0.014
318.15	2.7627	0.759	0.012
328.15	0.0086	1.018	0.001
328.15	0.0185	0.975	0.001
328.15	0.0284	0.955	0.002
328.15	0.0376	0.936	0.003
328.15	0.057	0.886	0.006
328.15	0.0749	0.858	0.007
328.15	0.0938	0.85	0.008
328.15	0.1269	0.842	0.008
328.15	0.1704	0.815	0.009
328.15	0.2087	0.815	0.009
328.15	0.2648	0.8	0.01
328.15	0.3276	0.796	0.01
328.15	0.4235	0.787	0.011
328.15	0.5106	0.781	0.011
328.15	0.6979	0.755	0.012
328.15	0.8919	0.747	0.013
328.15	1.1198	0.729	0.014
328.15	1.6061	0.719	0.014
328.15	1.8889	0.726	0.014
328.15	2.7627	0.766	0.012

System: water + 1-butyl-3-methylimidazolium methyl sulfate; phases: Liquid
Fixed: Pressure, kPa = 101
Property: Osmotic coefficient (Liquid); method: Vapor pressure osmometry
Temperature, K	Molality, mol/kg of 1-butyl-3-methylimidazolium methyl sulfate	Osmotic coefficient	uncertainty
298.15	0.0132	0.923	0.004
298.15	0.0225	0.895	0.005
298.15	0.0328	0.884	0.006
298.15	0.0434	0.863	0.007
298.15	0.0634	0.837	0.008
298.15	0.078	0.821	0.009
298.15	0.1205	0.809	0.01
298.15	0.157	0.791	0.01
298.15	0.1944	0.78	0.011
298.15	0.2801	0.767	0.012
298.15	0.3552	0.741	0.013
298.15	0.4687	0.721	0.014
298.15	0.7057	0.71	0.015
298.15	0.9552	0.698	0.015
298.15	1.4403	0.692	0.015
298.15	2.177	0.693	0.015
308.15	0.0132	0.937	0.003
308.15	0.0225	0.921	0.004
308.15	0.0328	0.897	0.005
308.15	0.0434	0.885	0.006
308.15	0.0634	0.872	0.006
308.15	0.078	0.836	0.008
308.15	0.1205	0.813	0.009
308.15	0.157	0.809	0.01
308.15	0.1944	0.802	0.01
308.15	0.2801	0.779	0.011
308.15	0.3552	0.758	0.012
308.15	0.4687	0.749	0.013
308.15	0.7057	0.74	0.013
308.15	0.9552	0.716	0.014
308.15	1.4403	0.708	0.015
308.15	2.177	0.7	0.015
318.15	0.0132	0.968	0.002
318.15	0.0225	0.958	0.002
318.15	0.0328	0.94	0.01
318.15	0.0434	0.896	0.005
318.15	0.0634	0.882	0.006
318.15	0.078	0.877	0.006
318.15	0.1205	0.839	0.008
318.15	0.157	0.839	0.008
318.15	0.1944	0.814	0.009
318.15	0.2801	0.802	0.01
318.15	0.3552	0.775	0.011
318.15	0.4687	0.762	0.012
318.15	0.7057	0.756	0.012
318.15	0.9552	0.732	0.013
318.15	1.4403	0.73	0.014
318.15	2.177	0.726	0.014
328.15	0.0132	0.987	0.001
328.15	0.0225	0.977	0.001
328.15	0.0328	0.966	0.002
328.15	0.0434	0.959	0.002
328.15	0.0634	0.896	0.005
328.15	0.078	0.887	0.006
328.15	0.1205	0.874	0.006
328.15	0.157	0.858	0.007
328.15	0.1944	0.857	0.007
328.15	0.2801	0.84	0.008
328.15	0.3552	0.81	0.01
328.15	0.4687	0.8	0.01
328.15	0.7057	0.786	0.011
328.15	0.9552	0.76	0.01
328.15	1.4403	0.752	0.012
328.15	2.177	0.743	0.013
