Measured thermophysical data. Solubility for dilute sulfur dioxide, viscosities, excess properties, and viscous flow thermodynamics of binary system N, N-dimethylformamide + diethylene glycol
Source: Fluid Phase Equilib., 2014, 10.1016/j.fluid.2014.04.019
Compound 1: sulfur dioxide, O2S, InChI=1S/O2S/c1-3-2
Compound 2: nitrogen, N2, InChI=1S/N2/c1-2
Compound 3: dimethylformamide, C3H7NO, InChI=1S/C3H7NO/c1-4(2)3-5/h3H,1-2H3, purity 98%
Compound 4: diethylene glycol, C4H10O3, InChI=1S/C4H10O3/c5-1-3-7-4-2-6/h5-6H,1-4H2, purity 98%

System: dimethylformamide; phases: Liquid
Fixed: Pressure, kPa = 101
Property: Mass density, kg/m3 (Liquid); method: PYCNOM:UFactor:10
Temperature, K	Mass density, kg/m3	uncertainty
298.15	943.9	2.4
303.15	939.6	2.5
308.15	934.2	2.6
313.15	929.9	2.7
318.15	924.7	2.8

System: dimethylformamide; phases: Liquid
Fixed: Pressure, kPa = 101
Property: Kinematic viscosity, m2/s (Liquid); method: CAPTUB:UFactor:10
Temperature, K	Kinematic viscosity, m2/s	uncertainty
298.15	8.15e-07	5.2e-08
303.15	7.6e-07	4.9e-08
308.15	7.22e-07	4.7e-08
313.15	6.75e-07	4.4e-08
318.15	6.38e-07	4.2e-08

System: diethylene glycol; phases: Liquid
Fixed: Pressure, kPa = 101
Property: Mass density, kg/m3 (Liquid); method: PYCNOM:UFactor:10
Temperature, K	Mass density, kg/m3	uncertainty
298.15	1113	2.9
303.15	1109.2	3
308.15	1106.1	3.1
313.15	1103	3.2
318.15	1099.3	3.3

System: diethylene glycol; phases: Liquid
Fixed: Pressure, kPa = 101
Property: Kinematic viscosity, m2/s (Liquid); method: CAPTUB:UFactor:10
Temperature, K	Kinematic viscosity, m2/s	uncertainty
298.15	2.76e-05	1.2e-06
303.15	2.13e-05	9e-07
308.15	1.68e-05	7e-07
313.15	1.45e-05	6e-07
318.15	1.12e-05	5e-07

System: diethylene glycol + sulfur dioxide + nitrogen; phases: Gas, Liquid
Fixed: Pressure, kPa = 122.6
Property: Partial pressure, kPa of sulfur dioxide (Gas); method: Gas chromatography
Temperature, K	Amount concentration (molarity), mol/dm3 of sulfur dioxide	Partial pressure, kPa of sulfur dioxide	uncertainty
298.15	0.00116	0.0073	0.0004
298.15	0.00212	0.0157	0.0009
298.15	0.00426	0.0357	0.0019
298.15	0.0057	0.0477	0.0025
298.15	0.00813	0.0655	0.0035
298.15	0.0111	0.0865	0.0046
298.15	0.0134	0.106	0.006
303.15	0.00205	0.0123	0.0006
303.15	0.00318	0.0217	0.0012
303.15	0.0048	0.0386	0.0021
303.15	0.00671	0.0554	0.003
303.15	0.00896	0.0774	0.0041
303.15	0.011	0.0925	0.0049
308.15	0.000931	0.0102	0.0006
308.15	0.00183	0.0251	0.0014
308.15	0.00289	0.0431	0.0023
308.15	0.00496	0.0636	0.0034
308.15	0.00687	0.0813	0.0043
308.15	0.00849	0.0989	0.0052
313.15	0.00109	0.012	0.0006
313.15	0.00274	0.0331	0.0018
313.15	0.00357	0.0479	0.0025
313.15	0.00481	0.0595	0.0032
313.15	0.0063	0.0836	0.0045
313.15	0.00679	0.0922	0.0049
313.15	0.00816	0.106	0.006
318.15	0.00117	0.0187	0.001
318.15	0.00178	0.028	0.0015
318.15	0.00235	0.0403	0.0021
318.15	0.00331	0.0532	0.0028
318.15	0.00381	0.064	0.0034
318.15	0.00485	0.0813	0.0043
318.15	0.0057	0.095	0.0051

System: dimethylformamide + sulfur dioxide + nitrogen; phases: Gas, Liquid
Fixed: Pressure, kPa = 122.6
Property: Partial pressure, kPa of sulfur dioxide (Gas); method: Gas chromatography
Temperature, K	Amount concentration (molarity), mol/dm3 of sulfur dioxide	Partial pressure, kPa of sulfur dioxide	uncertainty
298.15	0.0108	0.00804	0.00044
298.15	0.0203	0.0174	0.0009
298.15	0.0329	0.0278	0.0015
298.15	0.0674	0.0495	0.0026
298.15	0.106	0.0813	0.0043
298.15	0.128	0.0938	0.005
303.15	0.0132	0.0147	0.0008
303.15	0.0258	0.0266	0.0014
303.15	0.0398	0.0449	0.0024
303.15	0.0704	0.0714	0.0038
303.15	0.1	0.107	0.006
303.15	0.12	0.112	0.006
308.15	0.01	0.0137	0.0007
308.15	0.0269	0.0388	0.0021
308.15	0.0316	0.0414	0.0022
308.15	0.0384	0.0505	0.0027
308.15	0.0527	0.0709	0.0038
308.15	0.0613	0.0805	0.0043
308.15	0.0908	0.116	0.006
313.15	0.00971	0.0187	0.001
313.15	0.02	0.0322	0.0017
313.15	0.028	0.0464	0.0025
313.15	0.0449	0.0758	0.004
313.15	0.0589	0.0897	0.0048
313.15	0.0692	0.109	0.006

System: dimethylformamide + diethylene glycol; phases: Liquid
Fixed: Pressure, kPa = 101
Property: Mass density, kg/m3 (Liquid); method: PYCNOM:UFactor:10
Temperature, K	Mole fraction of dimethylformamide	Mass density, kg/m3	uncertainty
298.15	0	1113	2.9
298.15	0.0714	1104.1	2.9
298.15	0.1393	1094.9	2.8
298.15	0.2041	1085.9	2.8
298.15	0.2683	1076.7	2.8
298.15	0.3266	1068.1	2.8
298.15	0.3834	1059.4	2.7
298.15	0.4384	1050.9	2.7
298.15	0.4917	1042.3	2.7
298.15	0.5429	1033.8	2.7
298.15	0.5865	1026.4	2.6
298.15	0.6394	1017.2	2.6
298.15	0.6819	1009.5	2.6
298.15	0.7294	1000.7	2.6
298.15	0.7721	992.5	2.5
298.15	0.813	984.5	2.5
298.15	0.8531	976.4	2.5
298.15	0.891	968.5	2.5
298.15	0.9288	960.2	2.4
298.15	0.9648	952.2	2.4
298.15	1	943.9	2.4
303.15	0	1109.2	3
303.15	0.0714	1100	3
303.15	0.1393	1090.8	2.9
303.15	0.2041	1081.9	2.9
303.15	0.2683	1072.6	2.9
303.15	0.3266	1063.9	2.9
303.15	0.3834	1055.2	2.8
303.15	0.4384	1046.5	2.8
303.15	0.4917	1037.9	2.8
303.15	0.5429	1029.4	2.8
303.15	0.5865	1022	2.7
303.15	0.6394	1012.7	2.7
303.15	0.6819	1005	2.7
303.15	0.7294	996.1	2.7
303.15	0.7721	987.9	2.6
303.15	0.813	979.7	2.6
303.15	0.8531	971.5	2.6
303.15	0.891	963.6	2.6
303.15	0.9288	955.4	2.5
303.15	0.9648	947.6	2.5
303.15	1	939.6	2.5
308.15	0	1106.1	3.1
308.15	0.0714	1096.7	3.1
308.15	0.1393	1087.3	3
308.15	0.2041	1078.2	3
308.15	0.2683	1068.7	3
308.15	0.3266	1059.9	3
308.15	0.3834	1051	2.9
308.15	0.4384	1042.2	2.9
308.15	0.4917	1033.5	2.9
308.15	0.5429	1024.8	2.9
308.15	0.5865	1017.3	2.8
308.15	0.6394	1007.9	2.8
308.15	0.6819	1000.1	2.8
308.15	0.7294	991.1	2.8
308.15	0.7721	982.8	2.7
308.15	0.813	974.5	2.7
308.15	0.8531	966.3	2.7
308.15	0.891	958.3	2.7
308.15	0.9288	950	2.6
308.15	0.9648	942.3	2.6
308.15	1	934.2	2.6
313.15	0	1103	3.2
313.15	0.0714	1093.4	3.2
313.15	0.1393	1083.9	3.1
313.15	0.2041	1074.6	3.1
313.15	0.2683	1065.1	3.1
313.15	0.3266	1056.2	3.1
313.15	0.3834	1047.3	3
313.15	0.4384	1038.5	3
313.15	0.4917	1029.7	3
313.15	0.5429	1021	3
313.15	0.5865	1013.4	2.9
313.15	0.6394	1004	2.9
313.15	0.6819	996.2	2.9
313.15	0.7294	987.1	2.9
313.15	0.7721	978.6	2.8
313.15	0.813	970.3	2.8
313.15	0.8531	962.1	2.8
313.15	0.891	954.1	2.8
313.15	0.9288	945.8	2.7
313.15	0.9648	937.9	2.7
313.15	1	929.9	2.7
318.15	0	1099.3	3.3
318.15	0.0714	1089.5	3.3
318.15	0.1393	1079.8	3.2
318.15	0.2041	1070.3	3.2
318.15	0.2683	1060.7	3.2
318.15	0.3266	1051.7	3.2
318.15	0.3834	1042.7	3.1
318.15	0.4384	1033.9	3.1
318.15	0.4917	1024.9	3.1
318.15	0.5429	1016.2	3.1
318.15	0.5865	1008.6	3
318.15	0.6394	999.1	3
318.15	0.6819	991.2	3
318.15	0.7294	982.1	3
318.15	0.7721	973.6	2.9
318.15	0.813	965.2	2.9
318.15	0.8531	956.9	2.9
318.15	0.891	948.9	2.9
318.15	0.9288	940.7	2.8
318.15	0.9648	932.6	2.8
318.15	1	924.7	2.8

System: dimethylformamide + diethylene glycol; phases: Liquid
Fixed: Pressure, kPa = 101
Property: Kinematic viscosity, m2/s (Liquid); method: CAPTUB:UFactor:10
Temperature, K	Mole fraction of dimethylformamide	Kinematic viscosity, m2/s	uncertainty
298.15	0	2.76e-05	1.2e-06
298.15	0.0714	1.96e-05	8e-07
298.15	0.1393	1.57e-05	7e-07
298.15	0.2041	1.26e-05	6e-07
298.15	0.2683	1.02e-05	5e-07
298.15	0.3266	8.33e-06	4e-07
298.15	0.3834	6.84e-06	3.4e-07
298.15	0.4384	5.66e-06	3e-07
298.15	0.4917	4.71e-06	2.6e-07
298.15	0.5429	3.94e-06	2.2e-07
298.15	0.5865	3.4e-06	1.9e-07
298.15	0.6394	2.83e-06	1.6e-07
298.15	0.6819	2.44e-06	1.4e-07
298.15	0.7294	2.08e-06	1.2e-07
298.15	0.7721	1.8e-06	1e-07
298.15	0.813	1.57e-06	9e-08
298.15	0.8531	1.38e-06	8e-08
298.15	0.891	1.22e-06	7e-08
298.15	0.9288	1.08e-06	7e-08
298.15	0.9648	9.67e-07	6e-08
298.15	1	8.15e-07	5.2e-08
303.15	0	2.13e-05	9e-07
303.15	0.0714	1.53e-05	7e-07
303.15	0.1393	1.24e-05	6e-07
303.15	0.2041	1.01e-05	5e-07
303.15	0.2683	8.29e-06	4e-07
303.15	0.3266	6.84e-06	3.4e-07
303.15	0.3834	5.68e-06	3e-07
303.15	0.4384	4.76e-06	2.6e-07
303.15	0.4917	4e-06	2.2e-07
303.15	0.5429	3.38e-06	1.9e-07
303.15	0.5865	2.93e-06	1.6e-07
303.15	0.6394	2.47e-06	1.4e-07
303.15	0.6819	2.15e-06	1.2e-07
303.15	0.7294	1.85e-06	1.1e-07
303.15	0.7721	1.62e-06	1e-07
303.15	0.813	1.42e-06	8e-08
303.15	0.8531	1.25e-06	8e-08
303.15	0.891	1.12e-06	7e-08
303.15	0.9288	1e-06	6e-08
303.15	0.9648	9.04e-07	5.7e-08
303.15	1	7.6e-07	4.9e-08
308.15	0	1.68e-05	7e-07
308.15	0.0714	1.19e-05	5e-07
308.15	0.1393	9.67e-06	4.5e-07
308.15	0.2041	8.08e-06	3.9e-07
308.15	0.2683	6.7e-06	3.4e-07
308.15	0.3266	5.59e-06	2.9e-07
308.15	0.3834	4.69e-06	2.6e-07
308.15	0.4384	3.98e-06	2.2e-07
308.15	0.4917	3.38e-06	1.9e-07
308.15	0.5429	2.88e-06	1.6e-07
308.15	0.5865	2.53e-06	1.4e-07
308.15	0.6394	2.16e-06	1.2e-07
308.15	0.6819	1.89e-06	1.1e-07
308.15	0.7294	1.64e-06	1e-07
308.15	0.7721	1.44e-06	9e-08
308.15	0.813	1.28e-06	8e-08
308.15	0.8531	1.14e-06	7e-08
308.15	0.891	1.03e-06	6e-08
308.15	0.9288	9.23e-07	5.8e-08
308.15	0.9648	8.37e-07	5.3e-08
308.15	1	7.22e-07	4.7e-08
313.15	0	1.45e-05	6e-07
313.15	0.0714	1.07e-05	5e-07
313.15	0.1393	8.49e-06	4.1e-07
313.15	0.2041	7.39e-06	3.6e-07
313.15	0.2683	6.18e-06	3.2e-07
313.15	0.3266	5.2e-06	2.8e-07
313.15	0.3834	4.4e-06	2.4e-07
313.15	0.4384	3.74e-06	2.1e-07
313.15	0.4917	3.2e-06	1.8e-07
313.15	0.5429	2.75e-06	1.5e-07
313.15	0.5865	2.41e-06	1.4e-07
313.15	0.6394	2.07e-06	1.2e-07
313.15	0.6819	1.82e-06	1.1e-07
313.15	0.7294	1.59e-06	9e-08
313.15	0.7721	1.39e-06	8e-08
313.15	0.813	1.23e-06	7e-08
313.15	0.8531	1.1e-06	7e-08
313.15	0.891	9.92e-07	6.1e-08
313.15	0.9288	8.88e-07	5.6e-08
313.15	0.9648	8.06e-07	5.1e-08
313.15	1	6.75e-07	4.4e-08
318.15	0	1.12e-05	5e-07
318.15	0.0714	8.43e-06	4e-07
318.15	0.1393	6.68e-06	3.4e-07
318.15	0.2041	5.77e-06	3e-07
318.15	0.2683	4.88e-06	2.7e-07
318.15	0.3266	4.16e-06	2.3e-07
318.15	0.3834	3.54e-06	2e-07
318.15	0.4384	3.06e-06	1.7e-07
318.15	0.4917	2.64e-06	1.5e-07
318.15	0.5429	2.29e-06	1.3e-07
318.15	0.5865	2.03e-06	1.2e-07
318.15	0.6394	1.76e-06	1e-07
318.15	0.6819	1.56e-06	9e-08
318.15	0.7294	1.37e-06	8e-08
318.15	0.7721	1.22e-06	7e-08
318.15	0.813	1.09e-06	7e-08
318.15	0.8531	9.94e-07	6.1e-08
318.15	0.891	8.99e-07	5.6e-08
318.15	0.9288	8.16e-07	5.2e-08
318.15	0.9648	7.44e-07	4.8e-08
318.15	1	6.38e-07	4.2e-08

System: diethylene glycol + sulfur dioxide; phases: Gas, Liquid
Property: Partial pressure, kPa of sulfur dioxide (Gas); method: Gas chromatography
Temperature, K	Amount concentration (molarity), mol/dm3 of sulfur dioxide	Partial pressure, kPa of sulfur dioxide	uncertainty
298.15	0.00116	0.0073	0.0004
298.15	0.00212	0.0157	0.0009
298.15	0.00426	0.0357	0.0019
298.15	0.0057	0.0477	0.0025
298.15	0.00813	0.0655	0.0035
298.15	0.0111	0.0865	0.0046
298.15	0.0134	0.106	0.006
303.15	0.00205	0.0123	0.0006
303.15	0.00318	0.0217	0.0012
303.15	0.0048	0.0386	0.0021
303.15	0.00671	0.0554	0.003
303.15	0.00896	0.0774	0.0041
303.15	0.011	0.0925	0.0049
308.15	0.000931	0.0102	0.0006
308.15	0.00183	0.0251	0.0014
308.15	0.00289	0.0431	0.0023
308.15	0.00496	0.0636	0.0034
308.15	0.00687	0.0813	0.0043
308.15	0.00849	0.0989	0.0052
313.15	0.00109	0.012	0.0006
313.15	0.00274	0.0331	0.0018
313.15	0.00357	0.0479	0.0025
313.15	0.00481	0.0595	0.0032
313.15	0.0063	0.0836	0.0045
313.15	0.00679	0.0922	0.0049
313.15	0.00816	0.106	0.006
318.15	0.00117	0.0187	0.001
318.15	0.00178	0.028	0.0015
318.15	0.00235	0.0403	0.0021
318.15	0.00331	0.0532	0.0028
318.15	0.00381	0.064	0.0034
318.15	0.00485	0.0813	0.0043
318.15	0.0057	0.095	0.0051

System: diethylene glycol + sulfur dioxide; phases: Gas, Liquid
Fixed: Temperature, K = 308.15
Property: Partial pressure, kPa of sulfur dioxide (Gas); method: Gas chromatography
Amount concentration (molarity), mol/dm3 of sulfur dioxide	Partial pressure, kPa of sulfur dioxide	uncertainty
0.000931	0.0102	0.0002
0.00183	0.0251	0.0005
0.00289	0.0431	0.0009
0.00496	0.0636	0.0013
0.00687	0.0813	0.0016
0.00849	0.0989	0.002

System: dimethylformamide + sulfur dioxide; phases: Gas, Liquid
Property: Partial pressure, kPa of sulfur dioxide (Gas); method: Gas chromatography
Temperature, K	Amount concentration (molarity), mol/dm3 of sulfur dioxide	Partial pressure, kPa of sulfur dioxide	uncertainty
298.15	0.0108	0.00804	0.00044
298.15	0.0203	0.0174	0.0009
298.15	0.0329	0.0278	0.0015
298.15	0.0674	0.0495	0.0026
298.15	0.106	0.0813	0.0043
298.15	0.128	0.0938	0.005
303.15	0.0132	0.0147	0.0008
303.15	0.0258	0.0266	0.0014
303.15	0.0398	0.0449	0.0024
303.15	0.0704	0.0714	0.0038
303.15	0.1	0.107	0.006
303.15	0.12	0.112	0.006
308.15	0.01	0.0137	0.0007
308.15	0.0269	0.0388	0.0021
308.15	0.0316	0.0414	0.0022
308.15	0.0384	0.0505	0.0027
308.15	0.0527	0.0709	0.0038
308.15	0.0613	0.0805	0.0043
308.15	0.0908	0.116	0.006
313.15	0.00971	0.0187	0.001
313.15	0.02	0.0322	0.0017
313.15	0.028	0.0464	0.0025
313.15	0.0449	0.0758	0.004
313.15	0.0589	0.0897	0.0048
313.15	0.0692	0.109	0.006

System: dimethylformamide + sulfur dioxide; phases: Gas, Liquid
Fixed: Temperature, K = 308.15
Property: Partial pressure, kPa of sulfur dioxide (Gas); method: Gas chromatography
Amount concentration (molarity), mol/dm3 of sulfur dioxide	Partial pressure, kPa of sulfur dioxide	uncertainty
0.01	0.0137	0.0003
0.0269	0.0388	0.0008
0.0316	0.0414	0.0008
0.0384	0.0505	0.001
0.0527	0.0709	0.0014
0.0613	0.0805	0.0016
0.0908	0.116	0.002

System: dimethylformamide + diethylene glycol + sulfur dioxide; phases: Gas, Liquid
Fixed: Temperature, K = 308.15
Property: Partial pressure, kPa of sulfur dioxide (Gas); method: Gas chromatography
Solvent: Mole fraction of dimethylformamide	Amount concentration (molarity), mol/dm3 of sulfur dioxide	Partial pressure, kPa of sulfur dioxide	uncertainty
0	0.000931	0.0102	0.0002
0	0.00183	0.0251	0.0005
0	0.00289	0.0431	0.0009
0	0.00496	0.0636	0.0013
0	0.00687	0.0813	0.0016
0	0.00849	0.0989	0.002
0.1294	0.00103	0.0127	0.0003
0.1294	0.00208	0.0225	0.0005
0.1294	0.00393	0.0399	0.0008
0.1294	0.00587	0.06	0.0012
0.1294	0.00735	0.0728	0.0015
0.1294	0.0102	0.0971	0.0019
0.2507	0.00124	0.0153	0.0003
0.2507	0.00285	0.032	0.0006
0.2507	0.00556	0.052	0.001
0.2507	0.00744	0.0719	0.0014
0.2507	0.00952	0.0863	0.0017
0.2507	0.0135	0.111	0.002
0.3645	0.00198	0.0176	0.0004
0.3645	0.00307	0.0216	0.0004
0.3645	0.00659	0.0449	0.0009
0.3645	0.00801	0.0543	0.0011
0.3645	0.0101	0.0663	0.0013
0.3645	0.0141	0.0946	0.0019
0.4715	0.00112	0.00804	0.00016
0.4715	0.00494	0.0318	0.0006
0.4715	0.00674	0.042	0.0008
0.4715	0.0082	0.051	0.001
0.4715	0.0116	0.0689	0.0014
0.4715	0.0159	0.0959	0.0019
0.5723	0.00191	0.00811	0.00016
0.5723	0.00407	0.0146	0.0003
0.5723	0.00603	0.0229	0.0005
0.5723	0.00792	0.036	0.0007
0.5723	0.00945	0.043	0.0009
0.5723	0.013	0.0628	0.0013
0.5723	0.0147	0.0738	0.0015
0.5723	0.0163	0.0847	0.0017
0.5723	0.0168	0.088	0.0018
0.5723	0.0195	0.11	0.002
0.6675	0.00472	0.0163	0.0003
0.6675	0.00611	0.0236	0.0005
0.6675	0.0116	0.0422	0.0008
0.6675	0.0166	0.0571	0.0011
0.6675	0.0204	0.0716	0.0014
0.6675	0.0246	0.0852	0.0017
0.6675	0.0366	0.113	0.002
0.7574	0.00508	0.0149	0.0003
0.7574	0.00781	0.021	0.0004
0.7574	0.0138	0.0379	0.0008
0.7574	0.0246	0.0582	0.0012
0.7574	0.0308	0.0721	0.0014
0.7574	0.0399	0.0888	0.0018
0.7574	0.0501	0.115	0.002
0.8426	0.00326	0.0105	0.0002
0.8426	0.00612	0.016	0.0003
0.8426	0.0161	0.036	0.0007
0.8426	0.0236	0.0514	0.001
0.8426	0.0318	0.0661	0.0013
0.8426	0.0415	0.0845	0.0017
0.8426	0.057	0.106	0.002
0.9233	0.00587	0.0144	0.0003
0.9233	0.0114	0.0188	0.0004
0.9233	0.0287	0.0434	0.0009
0.9233	0.048	0.0697	0.0014
0.9233	0.0553	0.079	0.0016
0.9233	0.0816	0.121	0.002
1	0.01	0.0137	0.0003
1	0.0269	0.0388	0.0008
1	0.0316	0.0414	0.0008
1	0.0384	0.0505	0.001
1	0.0527	0.0709	0.0014
1	0.0613	0.0805	0.0016
1	0.0908	0.116	0.002
