Measured thermophysical data. 1-Butanol + hexylamine + n-heptane at temperature range (288.15 323.15 K): Experimental density data, excess molar volumes determination and modeling with cubic EOS
Source: Fluid Phase Equilib., 2010, 10.1016/j.fluid.2010.07.011
Compound 1: butan-1-ol, C4H10O, InChI=1S/C4H10O/c1-2-3-4-5/h5H,2-4H2,1H3, purity 99.5%
Compound 2: 1-hexanamine, C6H15N, InChI=1S/C6H15N/c1-2-3-4-5-6-7/h2-7H2,1H3, purity 98%
Compound 3: heptane, C7H16, InChI=1S/C7H16/c1-3-5-7-6-4-2/h3-7H2,1-2H3, purity 99.5%

System: butan-1-ol + 1-hexanamine; phases: Liquid
Fixed: Pressure, kPa = 101.325
Property: Mass density, kg/m3 (Liquid); method: Vibrating tube method
Temperature, K	Mole fraction of butan-1-ol	Mass density, kg/m3	uncertainty
288.15	0	768.637	0.598
288.15	0.0503	771.284	0.564
288.15	0.1108	774.579	0.525
288.15	0.1615	777.172	0.493
288.15	0.2004	779.327	0.469
288.15	0.2455	781.707	0.442
288.15	0.3004	784.53	0.411
288.15	0.4	789.735	0.357
288.15	0.4802	793.847	0.317
288.15	0.6294	800.788	0.251
288.15	0.6999	803.655	0.224
288.15	0.75	805.487	0.206
288.15	0.7997	807.332	0.189
288.15	0.8495	808.927	0.174
288.15	0.8994	810.567	0.161
288.15	0.9504	812.092	0.148
288.15	1	813.373	0.137
293.15	0	764.385	0.595
293.15	0.0503	767.06	0.561
293.15	0.1108	770.381	0.522
293.15	0.1615	772.994	0.491
293.15	0.2004	775.161	0.467
293.15	0.2455	777.556	0.441
293.15	0.3004	780.391	0.409
293.15	0.4	785.619	0.356
293.15	0.4802	789.75	0.317
293.15	0.6294	796.75	0.251
293.15	0.6999	799.656	0.224
293.15	0.75	801.517	0.206
293.15	0.7997	803.397	0.19
293.15	0.8495	805.024	0.175
293.15	0.8994	806.697	0.162
293.15	0.9504	808.261	0.149
293.15	1	809.573	0.138
298.15	0	760.128	0.591
298.15	0.0503	762.826	0.558
298.15	0.1108	766.172	0.52
298.15	0.1615	768.799	0.488
298.15	0.2004	770.98	0.465
298.15	0.2455	773.386	0.439
298.15	0.3004	776.235	0.408
298.15	0.4	781.483	0.355
298.15	0.4802	785.637	0.316
298.15	0.6294	792.692	0.251
298.15	0.6999	795.637	0.224
298.15	0.75	797.53	0.207
298.15	0.7997	799.441	0.191
298.15	0.8495	801.1	0.176
298.15	0.8994	802.808	0.163
298.15	0.9504	804.406	0.15
298.15	1	805.762	0.14
303.15	0	755.856	0.588
303.15	0.0503	758.576	0.555
303.15	0.1108	761.947	0.517
303.15	0.1615	764.593	0.486
303.15	0.2004	766.783	0.463
303.15	0.2455	769.201	0.437
303.15	0.3004	772.062	0.407
303.15	0.4	777.33	0.355
303.15	0.4802	781.501	0.316
303.15	0.6294	788.612	0.252
303.15	0.6999	791.594	0.225
303.15	0.75	793.517	0.208
303.15	0.7997	795.46	0.192
303.15	0.8495	797.154	0.177
303.15	0.8994	798.893	0.164
303.15	0.9504	800.528	0.151
303.15	1	801.923	0.141
308.15	0	751.573	0.584
308.15	0.0503	754.314	0.552
308.15	0.1108	757.705	0.514
308.15	0.1615	760.366	0.484
308.15	0.2004	762.567	0.461
308.15	0.2455	764.996	0.435
308.15	0.3004	767.867	0.405
308.15	0.4	773.155	0.354
308.15	0.4802	777.345	0.315
308.15	0.6294	784.508	0.252
308.15	0.6999	787.526	0.225
308.15	0.75	789.481	0.208
308.15	0.7997	791.45	0.192
308.15	0.8495	793.178	0.178
308.15	0.8994	794.95	0.165
308.15	0.9504	796.618	0.153
308.15	1	798.053	0.142
313.15	0	747.276	0.58
313.15	0.0503	750.035	0.549
313.15	0.1108	753.444	0.511
313.15	0.1615	756.118	0.481
313.15	0.2004	758.331	0.459
313.15	0.2455	760.77	0.433
313.15	0.3004	763.651	0.404
313.15	0.4	768.956	0.353
313.15	0.4802	773.162	0.315
313.15	0.6294	780.377	0.252
313.15	0.6999	783.429	0.226
313.15	0.75	785.41	0.209
313.15	0.7997	787.411	0.193
313.15	0.8495	789.169	0.179
313.15	0.8994	790.973	0.166
313.15	0.9504	792.674	0.154
313.15	1	794.147	0.143
318.15	0	742.962	0.577
318.15	0.0503	745.737	0.546
318.15	0.1108	749.165	0.509
318.15	0.1615	751.85	0.479
318.15	0.2004	754.072	0.457
318.15	0.2455	756.52	0.432
318.15	0.3004	759.41	0.402
318.15	0.4	764.732	0.352
318.15	0.4802	768.953	0.314
318.15	0.6294	776.215	0.252
318.15	0.6999	779.299	0.226
318.15	0.75	781.306	0.209
318.15	0.7997	783.336	0.194
318.15	0.8495	785.123	0.18
318.15	0.8994	786.956	0.167
318.15	0.9504	788.687	0.155
318.15	1	790.231	0.144
323.15	0	738.636	0.574
323.15	0.0503	741.427	0.542
323.15	0.1108	744.868	0.506
323.15	0.1615	747.565	0.477
323.15	0.2004	749.795	0.455
323.15	0.2455	752.247	0.43
323.15	0.3004	755.147	0.401
323.15	0.4	760.481	0.351
323.15	0.4802	764.717	0.314
323.15	0.6294	772.02	0.252
323.15	0.6999	775.138	0.227
323.15	0.75	777.172	0.21
323.15	0.7997	779.228	0.195
323.15	0.8495	781.043	0.181
323.15	0.8994	782.9	0.168
323.15	0.9504	784.663	0.156
323.15	1	786.238	0.146

System: butan-1-ol + 1-hexanamine; phases: Liquid
Fixed: Pressure, kPa = 101.325
Property: Excess molar volume, m3/mol (Liquid); method: Calculated with densities of this investigation
Temperature, K	Mole fraction of butan-1-ol	Excess molar volume, m3/mol	uncertainty
288.15	0	0	0.001
288.15	0.0503	-1.789e-07	9.6e-09
288.15	0.1108	-3.923e-07	9.9e-09
288.15	0.1615	-5.267e-07	1.02e-08
288.15	0.2004	-6.461e-07	1.04e-08
288.15	0.2455	-7.545e-07	1.06e-08
288.15	0.3004	-8.593e-07	1.07e-08
288.15	0.4	-1.019e-06	1.1e-08
288.15	0.4802	-1.097e-06	1.1e-08
288.15	0.6294	-1.057e-06	1.1e-08
288.15	0.6999	-9.502e-07	1.09e-08
288.15	0.75	-8.365e-07	1.07e-08
288.15	0.7997	-7.185e-07	1.05e-08
288.15	0.8495	-5.613e-07	1.02e-08
288.15	0.8994	-4.014e-07	1e-08
288.15	0.9504	-2.128e-07	9.7e-09
288.15	1	0	0.001
293.15	0	0	0.001
293.15	0.0503	-1.832e-07	9.6e-09
293.15	0.1108	-4.001e-07	1e-08
293.15	0.1615	-5.365e-07	1.02e-08
293.15	0.2004	-6.57e-07	1.04e-08
293.15	0.2455	-7.663e-07	1.06e-08
293.15	0.3004	-8.71e-07	1.08e-08
293.15	0.4	-1.03e-06	1.1e-08
293.15	0.4802	-1.107e-06	1.1e-08
293.15	0.6294	-1.065e-06	1.1e-08
293.15	0.6999	-9.576e-07	1.09e-08
293.15	0.75	-8.43e-07	1.07e-08
293.15	0.7997	-7.247e-07	1.05e-08
293.15	0.8495	-5.663e-07	1.02e-08
293.15	0.8994	-4.049e-07	1e-08
293.15	0.9504	-2.152e-07	9.7e-09
293.15	1	0	0.001
298.15	0	0	0.001
298.15	0.0503	-1.867e-07	9.6e-09
298.15	0.1108	-4.071e-07	1e-08
298.15	0.1615	-5.447e-07	1.02e-08
298.15	0.2004	-6.666e-07	1.04e-08
298.15	0.2455	-7.764e-07	1.06e-08
298.15	0.3004	-8.813e-07	1.08e-08
298.15	0.4	-1.04e-06	1.1e-08
298.15	0.4802	-1.115e-06	1.1e-08
298.15	0.6294	-1.072e-06	1.1e-08
298.15	0.6999	-9.636e-07	1.09e-08
298.15	0.75	-8.486e-07	1.07e-08
298.15	0.7997	-7.296e-07	1.05e-08
298.15	0.8495	-5.699e-07	1.02e-08
298.15	0.8994	-4.075e-07	1e-08
298.15	0.9504	-2.161e-07	9.7e-09
298.15	1	0	0.001
303.15	0	0	0.001
303.15	0.0503	-1.902e-07	9.6e-09
303.15	0.1108	-4.143e-07	1e-08
303.15	0.1615	-5.539e-07	1.02e-08
303.15	0.2004	-6.766e-07	1.04e-08
303.15	0.2455	-7.871e-07	1.06e-08
303.15	0.3004	-8.92e-07	1.08e-08
303.15	0.4	-1.049e-06	1.1e-08
303.15	0.4802	-1.124e-06	1.1e-08
303.15	0.6294	-1.079e-06	1.1e-08
303.15	0.6999	-9.697e-07	1.09e-08
303.15	0.75	-8.541e-07	1.07e-08
303.15	0.7997	-7.345e-07	1.05e-08
303.15	0.8495	-5.741e-07	1.03e-08
303.15	0.8994	-4.102e-07	1e-08
303.15	0.9504	-2.175e-07	9.7e-09
303.15	1	0	0.001
308.15	0	0	0.001
308.15	0.0503	-1.937e-07	9.6e-09
308.15	0.1108	-4.209e-07	1e-08
308.15	0.1615	-5.621e-07	1.02e-08
308.15	0.2004	-6.859e-07	1.04e-08
308.15	0.2455	-7.971e-07	1.06e-08
308.15	0.3004	-9.019e-07	1.08e-08
308.15	0.4	-1.059e-06	1.1e-08
308.15	0.4802	-1.132e-06	1.1e-08
308.15	0.6294	-1.085e-06	1.1e-08
308.15	0.6999	-9.756e-07	1.09e-08
308.15	0.75	-8.599e-07	1.07e-08
308.15	0.7997	-7.391e-07	1.05e-08
308.15	0.8495	-5.779e-07	1.03e-08
308.15	0.8994	-4.13e-07	1e-08
308.15	0.9504	-2.186e-07	9.7e-09
308.15	1	0	0.001
313.15	0	0	0.001
313.15	0.0503	-1.969e-07	9.6e-09
313.15	0.1108	-4.27e-07	1e-08
313.15	0.1615	-5.696e-07	1.02e-08
313.15	0.2004	-6.95e-07	1.05e-08
313.15	0.2455	-8.069e-07	1.06e-08
313.15	0.3004	-9.117e-07	1.08e-08
313.15	0.4	-1.068e-06	1.1e-08
313.15	0.4802	-1.14e-06	1.1e-08
313.15	0.6294	-1.092e-06	1.1e-08
313.15	0.6999	-9.816e-07	1.1e-08
313.15	0.75	-8.649e-07	1.07e-08
313.15	0.7997	-7.44e-07	1.05e-08
313.15	0.8495	-5.817e-07	1.03e-08
313.15	0.8994	-4.157e-07	1e-08
313.15	0.9504	-2.198e-07	9.7e-09
313.15	1	0	0.001
318.15	0	0	0.001
318.15	0.0503	-1.998e-07	9.6e-09
318.15	0.1108	-4.331e-07	1e-08
318.15	0.1615	-5.767e-07	1.03e-08
318.15	0.2004	-7.032e-07	1.05e-08
318.15	0.2455	-8.155e-07	1.07e-08
318.15	0.3004	-9.202e-07	1.08e-08
318.15	0.4	-1.075e-06	1.1e-08
318.15	0.4802	-1.147e-06	1.1e-08
318.15	0.6294	-1.096e-06	1.1e-08
318.15	0.6999	-9.849e-07	1.1e-08
318.15	0.75	-8.674e-07	1.08e-08
318.15	0.7997	-7.458e-07	1.05e-08
318.15	0.8495	-5.823e-07	1.03e-08
318.15	0.8994	-4.149e-07	1e-08
318.15	0.9504	-2.171e-07	9.7e-09
318.15	1	0	0.001
323.15	0	0	0.001
323.15	0.0503	-2.032e-07	9.6e-09
323.15	0.1108	-4.39e-07	1e-08
323.15	0.1615	-5.844e-07	1.03e-08
323.15	0.2004	-7.12e-07	1.05e-08
323.15	0.2455	-8.244e-07	1.07e-08
323.15	0.3004	-9.295e-07	1.09e-08
323.15	0.4	-1.084e-06	1.1e-08
323.15	0.4802	-1.155e-06	1.1e-08
323.15	0.6294	-1.103e-06	1.1e-08
323.15	0.6999	-9.911e-07	1.1e-08
323.15	0.75	-8.734e-07	1.08e-08
323.15	0.7997	-7.512e-07	1.06e-08
323.15	0.8495	-5.868e-07	1.03e-08
323.15	0.8994	-4.177e-07	1e-08
323.15	0.9504	-2.187e-07	9.7e-09
323.15	1	0	0.001

System: 1-hexanamine + heptane; phases: Liquid
Fixed: Pressure, kPa = 101.325
Property: Mass density, kg/m3 (Liquid); method: Vibrating tube method
Temperature, K	Mole fraction of 1-hexanamine	Mass density, kg/m3	uncertainty
288.15	0	687.954	0.177
288.15	0.0497	691.084	0.184
288.15	0.0712	692.472	0.187
288.15	0.1	694.376	0.192
288.15	0.1394	697.059	0.199
288.15	0.2017	701.458	0.211
288.15	0.3011	708.825	0.236
288.15	0.4001	716.491	0.266
288.15	0.5105	725.411	0.307
288.15	0.5996	732.829	0.346
288.15	0.6802	739.756	0.386
288.15	0.7495	745.832	0.425
288.15	0.7984	750.175	0.454
288.15	0.8484	754.693	0.487
288.15	0.8999	759.4	0.522
288.15	0.9467	763.694	0.557
288.15	1	768.637	0.598
293.15	0	683.733	0.178
293.15	0.0497	686.872	0.185
293.15	0.0712	688.259	0.188
293.15	0.1	690.164	0.193
293.15	0.1394	692.841	0.2
293.15	0.2017	697.235	0.212
293.15	0.3011	704.586	0.236
293.15	0.4001	712.241	0.266
293.15	0.5105	721.153	0.306
293.15	0.5996	728.568	0.345
293.15	0.6802	735.495	0.385
293.15	0.7495	741.569	0.423
293.15	0.7984	745.914	0.452
293.15	0.8484	750.434	0.484
293.15	0.8999	755.143	0.52
293.15	0.9467	759.441	0.554
293.15	1	764.385	0.595
298.15	0	679.494	0.18
298.15	0.0497	682.638	0.186
298.15	0.0712	684.023	0.19
298.15	0.1	685.929	0.194
298.15	0.1394	688.603	0.201
298.15	0.2017	692.989	0.213
298.15	0.3011	700.331	0.237
298.15	0.4001	707.974	0.266
298.15	0.5105	716.879	0.306
298.15	0.5996	724.292	0.344
298.15	0.6802	731.219	0.384
298.15	0.7495	737.294	0.421
298.15	0.7984	741.641	0.45
298.15	0.8484	746.164	0.482
298.15	0.8999	750.877	0.517
298.15	0.9467	755.177	0.551
298.15	1	760.128	0.591
303.15	0	675.229	0.181
303.15	0.0497	678.375	0.188
303.15	0.0712	679.762	0.191
303.15	0.1	681.666	0.195
303.15	0.1394	684.341	0.202
303.15	0.2017	688.722	0.214
303.15	0.3011	696.055	0.238
303.15	0.4001	703.691	0.267
303.15	0.5105	712.593	0.306
303.15	0.5996	720.004	0.344
303.15	0.6802	726.929	0.382
303.15	0.7495	733.009	0.42
303.15	0.7984	737.357	0.448
303.15	0.8484	741.883	0.48
303.15	0.8999	746.597	0.514
303.15	0.9467	750.901	0.547
303.15	1	755.856	0.588
308.15	0	670.941	0.183
308.15	0.0497	674.087	0.189
308.15	0.0712	675.473	0.192
308.15	0.1	677.379	0.196
308.15	0.1394	680.052	0.203
308.15	0.2017	684.431	0.215
308.15	0.3011	691.758	0.238
308.15	0.4001	699.388	0.267
308.15	0.5105	708.285	0.306
308.15	0.5996	715.698	0.343
308.15	0.6802	722.623	0.381
308.15	0.7495	728.705	0.418
308.15	0.7984	733.056	0.446
308.15	0.8484	737.584	0.477
308.15	0.8999	742.304	0.511
308.15	0.9467	746.613	0.544
308.15	1	751.573	0.584
313.15	0	666.621	0.184
313.15	0.0497	669.766	0.19
313.15	0.0712	671.155	0.193
313.15	0.1	673.063	0.198
313.15	0.1394	675.736	0.204
313.15	0.2017	680.114	0.216
313.15	0.3011	687.436	0.239
313.15	0.4001	695.063	0.267
313.15	0.5105	703.959	0.305
313.15	0.5996	711.371	0.342
313.15	0.6802	718.301	0.38
313.15	0.7495	724.386	0.417
313.15	0.7984	728.74	0.445
313.15	0.8484	733.272	0.475
313.15	0.8999	737.996	0.509
313.15	0.9467	742.31	0.541
313.15	1	747.276	0.58
318.15	0	662.273	0.185
318.15	0.0497	665.416	0.192
318.15	0.0712	666.804	0.195
318.15	0.1	668.716	0.199
318.15	0.1394	671.39	0.205
318.15	0.2017	675.766	0.217
318.15	0.3011	683.088	0.239
318.15	0.4001	690.714	0.267
318.15	0.5105	699.61	0.305
318.15	0.5996	707.026	0.341
318.15	0.6802	713.958	0.379
318.15	0.7495	720.046	0.415
318.15	0.7984	724.406	0.443
318.15	0.8484	728.943	0.473
318.15	0.8999	733.672	0.506
318.15	0.9467	737.99	0.538
318.15	1	742.962	0.577
323.15	0	657.896	0.187
323.15	0.0497	661.034	0.193
323.15	0.0712	662.428	0.196
323.15	0.1	664.339	0.2
323.15	0.1394	667.016	0.206
323.15	0.2017	671.395	0.218
323.15	0.3011	678.716	0.24
323.15	0.4001	686.344	0.268
323.15	0.5105	695.241	0.305
323.15	0.5996	702.664	0.341
323.15	0.6802	709.598	0.378
323.15	0.7495	715.689	0.413
323.15	0.7984	720.058	0.441
323.15	0.8484	724.594	0.471
323.15	0.8999	729.332	0.503
323.15	0.9467	733.656	0.535
323.15	1	738.636	0.574

System: 1-hexanamine + heptane; phases: Liquid
Fixed: Pressure, kPa = 101.325
Property: Excess molar volume, m3/mol (Liquid); method: Calculated with densities of this investigation
Temperature, K	Mole fraction of 1-hexanamine	Excess molar volume, m3/mol	uncertainty
288.15	0	0	0.001
288.15	0.0503	1.073e-07	9.5e-09
288.15	0.1108	1.483e-07	9.5e-09
288.15	0.1615	1.955e-07	9.6e-09
288.15	0.2004	2.47e-07	9.7e-09
288.15	0.2455	3.044e-07	9.8e-09
288.15	0.3004	3.473e-07	9.8e-09
288.15	0.4	3.531e-07	9.9e-09
288.15	0.4802	3.23e-07	9.8e-09
288.15	0.6294	2.856e-07	9.7e-09
288.15	0.6999	2.34e-07	9.7e-09
288.15	0.75	1.854e-07	9.6e-09
288.15	0.7997	1.511e-07	9.5e-09
288.15	0.8495	1.108e-07	9.5e-09
288.15	0.8994	6.92e-08	9.39e-09
288.15	0.9504	3.67e-08	9.33e-09
288.15	1	0	0.001
293.15	0	0	0.001
293.15	0.0503	1.06e-07	9.4e-09
293.15	0.1108	1.473e-07	9.5e-09
293.15	0.1615	1.945e-07	9.6e-09
293.15	0.2004	2.475e-07	9.7e-09
293.15	0.2455	3.058e-07	9.8e-09
293.15	0.3004	3.513e-07	9.9e-09
293.15	0.4	3.585e-07	9.9e-09
293.15	0.4802	3.287e-07	9.8e-09
293.15	0.6294	2.909e-07	9.8e-09
293.15	0.6999	2.383e-07	9.7e-09
293.15	0.75	1.893e-07	9.6e-09
293.15	0.7997	1.542e-07	9.5e-09
293.15	0.8495	1.131e-07	9.5e-09
293.15	0.8994	7.06e-08	9.39e-09
293.15	0.9504	3.71e-08	9.33e-09
293.15	1	0	0.001
298.15	0	0	0.001
298.15	0.0503	1.056e-07	9.4e-09
298.15	0.1108	1.476e-07	9.5e-09
298.15	0.1615	1.948e-07	9.6e-09
298.15	0.2004	2.486e-07	9.7e-09
298.15	0.2455	3.087e-07	9.8e-09
298.15	0.3004	3.557e-07	9.9e-09
298.15	0.4	3.647e-07	9.9e-09
298.15	0.4802	3.352e-07	9.8e-09
298.15	0.6294	2.97e-07	9.8e-09
298.15	0.6999	2.437e-07	9.7e-09
298.15	0.75	1.939e-07	9.6e-09
298.15	0.7997	1.58e-07	9.5e-09
298.15	0.8495	1.16e-07	9.5e-09
298.15	0.8994	7.25e-08	9.39e-09
298.15	0.9504	3.85e-08	9.34e-09
298.15	1	0	0.001
303.15	0	0	0.001
303.15	0.0503	1.059e-07	9.4e-09
303.15	0.1108	1.478e-07	9.5e-09
303.15	0.1615	1.958e-07	9.6e-09
303.15	0.2004	2.496e-07	9.7e-09
303.15	0.2455	3.11e-07	9.8e-09
303.15	0.3004	3.598e-07	9.9e-09
303.15	0.4	3.697e-07	9.9e-09
303.15	0.4802	3.401e-07	9.8e-09
303.15	0.6294	3.017e-07	9.8e-09
303.15	0.6999	2.482e-07	9.7e-09
303.15	0.75	1.97e-07	9.6e-09
303.15	0.7997	1.606e-07	9.5e-09
303.15	0.8495	1.178e-07	9.5e-09
303.15	0.8994	7.4e-08	9.4e-09
303.15	0.9504	3.92e-08	9.34e-09
303.15	1	0	0.001
308.15	0	0	0.001
308.15	0.0503	1.068e-07	9.5e-09
308.15	0.1108	1.493e-07	9.5e-09
308.15	0.1615	1.971e-07	9.6e-09
308.15	0.2004	2.518e-07	9.7e-09
308.15	0.2455	3.14e-07	9.8e-09
308.15	0.3004	3.641e-07	9.9e-09
308.15	0.4	3.75e-07	9.9e-09
308.15	0.4802	3.46e-07	9.8e-09
308.15	0.6294	3.068e-07	9.8e-09
308.15	0.6999	2.528e-07	9.7e-09
308.15	0.75	2.01e-07	9.6e-09
308.15	0.7997	1.639e-07	9.5e-09
308.15	0.8495	1.206e-07	9.5e-09
308.15	0.8994	7.56e-08	9.4e-09
308.15	0.9504	3.99e-08	9.34e-09
308.15	1	0	0.001
313.15	0	0	0.001
313.15	0.0503	1.08e-07	9.5e-09
313.15	0.1108	1.503e-07	9.5e-09
313.15	0.1615	1.982e-07	9.6e-09
313.15	0.2004	2.534e-07	9.7e-09
313.15	0.2455	3.163e-07	9.8e-09
313.15	0.3004	3.68e-07	9.9e-09
313.15	0.4	3.797e-07	9.9e-09
313.15	0.4802	3.508e-07	9.9e-09
313.15	0.6294	3.117e-07	9.8e-09
313.15	0.6999	2.566e-07	9.7e-09
313.15	0.75	2.042e-07	9.6e-09
313.15	0.7997	1.666e-07	9.5e-09
313.15	0.8495	1.226e-07	9.5e-09
313.15	0.8994	7.7e-08	9.4e-09
313.15	0.9504	4.06e-08	9.34e-09
313.15	1	0	0.001
318.15	0	0	0.001
318.15	0.0503	1.097e-07	9.5e-09
318.15	0.1108	1.526e-07	9.5e-09
318.15	0.1615	2.001e-07	9.6e-09
318.15	0.2004	2.557e-07	9.7e-09
318.15	0.2455	3.198e-07	9.8e-09
318.15	0.3004	3.721e-07	9.9e-09
318.15	0.4	3.844e-07	9.9e-09
318.15	0.4802	3.556e-07	9.9e-09
318.15	0.6294	3.158e-07	9.8e-09
318.15	0.6999	2.605e-07	9.7e-09
318.15	0.75	2.076e-07	9.6e-09
318.15	0.7997	1.69e-07	9.6e-09
318.15	0.8495	1.242e-07	9.5e-09
318.15	0.8994	7.8e-08	9.4e-09
318.15	0.9504	4.12e-08	9.34e-09
318.15	1	0	0.001
323.15	0	0	0.001
323.15	0.0503	1.122e-07	9.5e-09
323.15	0.1108	1.543e-07	9.5e-09
323.15	0.1615	2.026e-07	9.6e-09
323.15	0.2004	2.582e-07	9.7e-09
323.15	0.2455	3.226e-07	9.8e-09
323.15	0.3004	3.761e-07	9.9e-09
323.15	0.4	3.887e-07	9.9e-09
323.15	0.4802	3.602e-07	9.9e-09
323.15	0.6294	3.195e-07	9.8e-09
323.15	0.6999	2.641e-07	9.7e-09
323.15	0.75	2.11e-07	9.6e-09
323.15	0.7997	1.711e-07	9.6e-09
323.15	0.8495	1.268e-07	9.5e-09
323.15	0.8994	7.93e-08	9.4e-09
323.15	0.9504	4.2e-08	9.34e-09
323.15	1	0	0.001

System: butan-1-ol + 1-hexanamine + heptane; phases: Liquid
Fixed: Pressure, kPa = 101.325
Property: Mass density, kg/m3 (Liquid); method: Vibrating tube method
Temperature, K	Mole fraction of butan-1-ol	Mole fraction of 1-hexanamine	Mass density, kg/m3	uncertainty
288.15	0.0198	0.8002	753.256	0.458
288.15	0.0206	0.8994	762.266	0.525
288.15	0.0306	0.6997	745.559	0.399
288.15	0.0395	0.5916	737.371	0.344
288.15	0.0399	0.8001	756.005	0.459
288.15	0.0399	0.9002	765.214	0.527
288.15	0.0503	0.499	730.69	0.304
288.15	0.0597	0.4006	723.64	0.267
288.15	0.0604	0.8997	768.221	0.529
288.15	0.0606	0.7	749.705	0.4
288.15	0.07	0.3001	716.681	0.236
288.15	0.0803	0.7991	761.437	0.461
288.15	0.0803	0.8993	771.011	0.531
288.15	0.0807	0.5997	743.447	0.349
288.15	0.0808	0.2001	709.911	0.21
288.15	0.0895	0.1059	703.397	0.192
288.15	0.0904	0.8997	772.645	0.532
288.15	0.0995	0.5002	737.06	0.305
288.15	0.1195	0.701	757.88	0.404
288.15	0.1203	0.7996	767.318	0.464
288.15	0.1211	0.3991	730.934	0.266
288.15	0.1401	0.3002	724.829	0.235
288.15	0.1599	0.2005	718.36	0.209
288.15	0.1601	0.5997	753.888	0.351
288.15	0.1602	0.7998	773.289	0.468
288.15	0.1798	0.8002	776.197	0.469
288.15	0.1799	0.7001	766.397	0.406
288.15	0.1801	0.1002	711.659	0.189
288.15	0.1999	0.5007	750.11	0.306
288.15	0.2395	0.4032	746.165	0.267
288.15	0.2401	0.5996	765.183	0.353
288.15	0.2402	0.6997	775.36	0.409
288.15	0.2699	0.7002	779.988	0.411
288.15	0.2803	0.3	741.443	0.233
288.15	0.3043	0.4893	763.299	0.302
288.15	0.32	0.5997	777.122	0.356
288.15	0.3201	0.2	736.359	0.206
288.15	0.3599	0.1002	730.574	0.184
288.15	0.3599	0.5995	783.307	0.357
288.15	0.36	0.4002	761.985	0.266
288.15	0.3999	0.4998	778.64	0.308
288.15	0.4133	0.3112	759.869	0.235
288.15	0.4481	0.502	786.504	0.31
288.15	0.4797	0.2004	756.525	0.203
288.15	0.4798	0.4002	779.843	0.266
288.15	0.5396	0.4	789.307	0.266
288.15	0.5397	0.1003	752.588	0.18
288.15	0.5598	0.3	780.242	0.229
288.15	0.63	0.3004	791.628	0.229
288.15	0.64	0.2	779.941	0.199
288.15	0.7199	0.2002	793.016	0.197
288.15	0.72	0.0997	778.833	0.174
288.15	0.8106	0.0996	793.975	0.17
293.15	0.0198	0.8002	749.004	0.456
293.15	0.0206	0.8994	758.02	0.522
293.15	0.0306	0.6997	741.312	0.398
293.15	0.0395	0.5916	733.126	0.343
293.15	0.0399	0.8001	751.764	0.457
293.15	0.0399	0.9002	760.98	0.524
293.15	0.0503	0.499	726.447	0.303
293.15	0.0597	0.4006	719.4	0.267
293.15	0.0604	0.8997	763.997	0.526
293.15	0.0606	0.7	745.471	0.399
293.15	0.07	0.3001	712.443	0.236
293.15	0.0803	0.7991	757.216	0.459
293.15	0.0803	0.8993	766.799	0.528
293.15	0.0807	0.5997	739.215	0.348
293.15	0.0808	0.2001	705.667	0.211
293.15	0.0895	0.1059	699.148	0.193
293.15	0.0904	0.8997	768.439	0.529
293.15	0.0995	0.5002	732.832	0.304
293.15	0.1195	0.701	753.67	0.402
293.15	0.1203	0.7996	763.118	0.462
293.15	0.1211	0.3991	726.703	0.266
293.15	0.1401	0.3002	720.597	0.235
293.15	0.1599	0.2005	714.121	0.21
293.15	0.1601	0.5997	749.685	0.35
293.15	0.1602	0.7998	769.106	0.465
293.15	0.1798	0.8002	772.024	0.467
293.15	0.1799	0.7001	762.211	0.405
293.15	0.1801	0.1002	707.416	0.19
293.15	0.1999	0.5007	745.909	0.306
293.15	0.2395	0.4032	741.964	0.267
293.15	0.2401	0.5996	761.008	0.353
293.15	0.2402	0.6997	771.199	0.408
293.15	0.2699	0.7002	775.839	0.41
293.15	0.2803	0.3	737.24	0.233
293.15	0.3043	0.4893	759.128	0.302
293.15	0.32	0.5997	772.976	0.355
293.15	0.3201	0.2	732.159	0.206
293.15	0.3599	0.1002	726.377	0.185
293.15	0.3599	0.5995	779.175	0.357
293.15	0.36	0.4002	757.822	0.266
293.15	0.3999	0.4998	774.508	0.308
293.15	0.4133	0.3112	755.715	0.235
293.15	0.4481	0.502	782.391	0.31
293.15	0.4797	0.2004	752.393	0.203
293.15	0.4798	0.4002	775.729	0.266
293.15	0.5396	0.4	785.222	0.266
293.15	0.5397	0.1003	748.47	0.18
293.15	0.5598	0.3	776.16	0.23
293.15	0.63	0.3004	787.585	0.229
293.15	0.64	0.2	775.898	0.199
293.15	0.7199	0.2002	789.025	0.197
293.15	0.72	0.0997	774.829	0.174
293.15	0.8106	0.0996	790.039	0.171
298.15	0.0198	0.8002	744.742	0.454
298.15	0.0206	0.8994	753.764	0.519
298.15	0.0306	0.6997	737.048	0.396
298.15	0.0395	0.5916	728.86	0.343
298.15	0.0399	0.8001	747.512	0.455
298.15	0.0399	0.9002	756.735	0.522
298.15	0.0503	0.499	722.187	0.303
298.15	0.0597	0.4006	715.139	0.267
298.15	0.0604	0.8997	759.761	0.523
298.15	0.0606	0.7	741.22	0.398
298.15	0.07	0.3001	708.182	0.237
298.15	0.0803	0.7991	752.983	0.457
298.15	0.0803	0.8993	762.572	0.525
298.15	0.0807	0.5997	734.967	0.347
298.15	0.0808	0.2001	701.401	0.212
298.15	0.0895	0.1059	694.869	0.194
298.15	0.0904	0.8997	764.218	0.526
298.15	0.0995	0.5002	728.585	0.304
298.15	0.1195	0.701	749.444	0.401
298.15	0.1203	0.7996	758.902	0.46
298.15	0.1211	0.3991	722.454	0.267
298.15	0.1401	0.3002	716.34	0.236
298.15	0.1599	0.2005	709.857	0.211
298.15	0.1601	0.5997	745.465	0.349
298.15	0.1602	0.7998	764.907	0.463
298.15	0.1798	0.8002	767.835	0.465
298.15	0.1799	0.7001	758.008	0.403
298.15	0.1801	0.1002	703.143	0.191
298.15	0.1999	0.5007	741.691	0.305
298.15	0.2395	0.4032	737.741	0.268
298.15	0.2401	0.5996	756.815	0.352
298.15	0.2402	0.6997	767.02	0.406
298.15	0.2699	0.7002	771.672	0.408
298.15	0.2803	0.3	733.011	0.234
298.15	0.3043	0.4893	754.939	0.302
298.15	0.32	0.5997	768.811	0.354
298.15	0.3201	0.2	727.935	0.207
298.15	0.3599	0.1002	722.148	0.186
298.15	0.3599	0.5995	775.026	0.356
298.15	0.36	0.4002	753.637	0.266
298.15	0.3999	0.4998	770.356	0.308
298.15	0.4133	0.3112	751.538	0.236
298.15	0.4481	0.502	778.259	0.31
298.15	0.4797	0.2004	748.232	0.204
298.15	0.4798	0.4002	771.596	0.266
298.15	0.5396	0.4	781.117	0.266
298.15	0.5397	0.1003	744.325	0.181
298.15	0.5598	0.3	772.056	0.23
298.15	0.63	0.3004	783.52	0.23
298.15	0.64	0.2	771.83	0.2
298.15	0.7199	0.2002	785.011	0.198
298.15	0.72	0.0997	770.796	0.175
298.15	0.8106	0.0996	786.076	0.172
303.15	0.0198	0.8002	740.465	0.452
303.15	0.0206	0.8994	749.498	0.517
303.15	0.0306	0.6997	732.771	0.395
303.15	0.0395	0.5916	724.584	0.342
303.15	0.0399	0.8001	743.243	0.453
303.15	0.0399	0.9002	752.476	0.519
303.15	0.0503	0.499	717.91	0.303
303.15	0.0597	0.4006	710.859	0.268
303.15	0.0604	0.8997	755.516	0.521
303.15	0.0606	0.7	736.956	0.396
303.15	0.07	0.3001	703.898	0.237
303.15	0.0803	0.7991	748.736	0.455
303.15	0.0803	0.8993	758.334	0.522
303.15	0.0807	0.5997	730.7	0.347
303.15	0.0808	0.2001	697.106	0.213
303.15	0.0895	0.1059	690.562	0.195
303.15	0.0904	0.8997	759.985	0.524
303.15	0.0995	0.5002	724.316	0.304
303.15	0.1195	0.701	745.202	0.4
303.15	0.1203	0.7996	754.671	0.458
303.15	0.1211	0.3991	718.181	0.267
303.15	0.1401	0.3002	712.059	0.236
303.15	0.1599	0.2005	705.563	0.212
303.15	0.1601	0.5997	741.224	0.349
303.15	0.1602	0.7998	760.692	0.461
303.15	0.1798	0.8002	763.628	0.463
303.15	0.1799	0.7001	753.79	0.402
303.15	0.1801	0.1002	698.838	0.192
303.15	0.1999	0.5007	737.45	0.305
303.15	0.2395	0.4032	733.495	0.268
303.15	0.2401	0.5996	752.601	0.351
303.15	0.2402	0.6997	762.824	0.405
303.15	0.2699	0.7002	767.488	0.407
303.15	0.2803	0.3	728.759	0.235
303.15	0.3043	0.4893	750.729	0.301
303.15	0.32	0.5997	764.626	0.354
303.15	0.3201	0.2	723.679	0.208
303.15	0.3599	0.1002	717.887	0.187
303.15	0.3599	0.5995	770.856	0.355
303.15	0.36	0.4002	749.429	0.267
303.15	0.3999	0.4998	766.182	0.307
303.15	0.4133	0.3112	747.337	0.236
303.15	0.4481	0.502	774.107	0.309
303.15	0.4797	0.2004	744.043	0.205
303.15	0.4798	0.4002	767.439	0.266
303.15	0.5396	0.4	776.991	0.266
303.15	0.5397	0.1003	740.145	0.183
303.15	0.5598	0.3	767.928	0.231
303.15	0.63	0.3004	779.434	0.23
303.15	0.64	0.2	767.735	0.201
303.15	0.7199	0.2002	780.973	0.199
303.15	0.72	0.0997	766.733	0.177
303.15	0.8106	0.0996	782.088	0.173
308.15	0.0198	0.8002	736.172	0.45
308.15	0.0206	0.8994	745.214	0.514
308.15	0.0306	0.6997	728.477	0.394
308.15	0.0395	0.5916	720.283	0.341
308.15	0.0399	0.8001	738.96	0.451
308.15	0.0399	0.9002	748.202	0.516
308.15	0.0503	0.499	713.609	0.303
308.15	0.0597	0.4006	706.555	0.268
308.15	0.0604	0.8997	751.251	0.518
308.15	0.0606	0.7	732.671	0.395
308.15	0.07	0.3001	699.586	0.238
308.15	0.0803	0.7991	744.471	0.453
308.15	0.0803	0.8993	754.08	0.519
308.15	0.0807	0.5997	726.413	0.346
308.15	0.0808	0.2001	692.781	0.214
308.15	0.0895	0.1059	686.22	0.196
308.15	0.0904	0.8997	755.735	0.521
308.15	0.0995	0.5002	720.027	0.304
308.15	0.1195	0.701	740.941	0.398
308.15	0.1203	0.7996	750.421	0.456
308.15	0.1211	0.3991	713.884	0.267
308.15	0.1401	0.3002	707.747	0.237
308.15	0.1599	0.2005	701.239	0.213
308.15	0.1601	0.5997	736.963	0.348
308.15	0.1602	0.7998	756.461	0.459
308.15	0.1798	0.8002	759.404	0.461
308.15	0.1799	0.7001	749.549	0.401
308.15	0.1801	0.1002	694.497	0.193
308.15	0.1999	0.5007	733.183	0.305
308.15	0.2395	0.4032	729.221	0.268
308.15	0.2401	0.5996	748.366	0.35
308.15	0.2402	0.6997	758.606	0.404
308.15	0.2699	0.7002	763.28	0.405
308.15	0.2803	0.3	724.477	0.235
308.15	0.3043	0.4893	746.494	0.301
308.15	0.32	0.5997	760.42	0.353
308.15	0.3201	0.2	719.391	0.209
308.15	0.3599	0.1002	713.59	0.189
308.15	0.3599	0.5995	766.664	0.354
308.15	0.36	0.4002	745.195	0.267
308.15	0.3999	0.4998	761.986	0.307
308.15	0.4133	0.3112	743.106	0.237
308.15	0.4481	0.502	769.93	0.309
308.15	0.4797	0.2004	739.822	0.206
308.15	0.4798	0.4002	763.26	0.267
308.15	0.5396	0.4	772.84	0.267
308.15	0.5397	0.1003	735.93	0.184
308.15	0.5598	0.3	763.77	0.231
308.15	0.63	0.3004	775.318	0.231
308.15	0.64	0.2	763.608	0.202
308.15	0.7199	0.2002	776.902	0.2
308.15	0.72	0.0997	762.636	0.178
308.15	0.8106	0.0996	778.063	0.174
313.15	0.0198	0.8002	731.861	0.448
313.15	0.0206	0.8994	740.914	0.511
313.15	0.0306	0.6997	724.164	0.392
313.15	0.0395	0.5916	715.965	0.341
313.15	0.0399	0.8001	734.659	0.449
313.15	0.0399	0.9002	743.911	0.514
313.15	0.0503	0.499	709.287	0.302
313.15	0.0597	0.4006	702.225	0.268
313.15	0.0604	0.8997	746.971	0.515
313.15	0.0606	0.7	728.366	0.394
313.15	0.07	0.3001	695.247	0.239
313.15	0.0803	0.7991	740.186	0.451
313.15	0.0803	0.8993	749.807	0.517
313.15	0.0807	0.5997	722.104	0.345
313.15	0.0808	0.2001	688.425	0.215
313.15	0.0895	0.1059	681.841	0.197
313.15	0.0904	0.8997	751.467	0.518
313.15	0.0995	0.5002	715.711	0.303
313.15	0.1195	0.701	736.656	0.397
313.15	0.1203	0.7996	746.153	0.454
313.15	0.1211	0.3991	709.559	0.267
313.15	0.1401	0.3002	703.408	0.238
313.15	0.1599	0.2005	696.88	0.213
313.15	0.1601	0.5997	732.678	0.347
313.15	0.1602	0.7998	752.208	0.457
313.15	0.1798	0.8002	755.16	0.459
313.15	0.1799	0.7001	745.287	0.399
313.15	0.1801	0.1002	690.116	0.194
313.15	0.1999	0.5007	728.89	0.304
313.15	0.2395	0.4032	724.92	0.268
313.15	0.2401	0.5996	744.107	0.349
313.15	0.2402	0.6997	754.367	0.402
313.15	0.2699	0.7002	759.053	0.404
313.15	0.2803	0.3	720.163	0.236
313.15	0.3043	0.4893	742.23	0.301
313.15	0.32	0.5997	756.188	0.352
313.15	0.3201	0.2	715.066	0.21
313.15	0.3599	0.1002	709.252	0.19
313.15	0.3599	0.5995	762.449	0.353
313.15	0.36	0.4002	740.931	0.267
313.15	0.3999	0.4998	757.763	0.307
313.15	0.4133	0.3112	738.845	0.237
313.15	0.4481	0.502	765.73	0.308
313.15	0.4797	0.2004	735.563	0.207
313.15	0.4798	0.4002	759.049	0.267
313.15	0.5396	0.4	768.662	0.267
313.15	0.5397	0.1003	731.67	0.185
313.15	0.5598	0.3	759.583	0.232
313.15	0.63	0.3004	771.174	0.231
313.15	0.64	0.2	759.447	0.202
313.15	0.7199	0.2002	772.798	0.201
313.15	0.72	0.0997	758.499	0.179
313.15	0.8106	0.0996	774.004	0.175
318.15	0.0198	0.8002	727.532	0.446
318.15	0.0206	0.8994	736.599	0.508
318.15	0.0306	0.6997	719.83	0.391
318.15	0.0395	0.5916	711.623	0.34
318.15	0.0399	0.8001	730.336	0.447
318.15	0.0399	0.9002	739.601	0.511
318.15	0.0503	0.499	704.938	0.302
318.15	0.0597	0.4006	697.866	0.268
318.15	0.0604	0.8997	742.671	0.512
318.15	0.0606	0.7	724.04	0.392
318.15	0.07	0.3001	690.876	0.239
318.15	0.0803	0.7991	735.881	0.449
318.15	0.0803	0.8993	745.516	0.514
318.15	0.0807	0.5997	717.772	0.344
318.15	0.0808	0.2001	684.032	0.216
318.15	0.0895	0.1059	677.425	0.199
318.15	0.0904	0.8997	747.179	0.515
318.15	0.0995	0.5002	711.368	0.303
318.15	0.1195	0.701	732.351	0.396
318.15	0.1203	0.7996	741.864	0.452
318.15	0.1211	0.3991	705.204	0.268
318.15	0.1401	0.3002	699.033	0.238
318.15	0.1599	0.2005	692.483	0.214
318.15	0.1601	0.5997	728.366	0.346
318.15	0.1602	0.7998	747.935	0.455
318.15	0.1798	0.8002	750.894	0.457
318.15	0.1799	0.7001	741.001	0.398
318.15	0.1801	0.1002	685.691	0.196
318.15	0.1999	0.5007	724.571	0.304
318.15	0.2395	0.4032	720.584	0.268
318.15	0.2401	0.5996	739.82	0.349
318.15	0.2402	0.6997	750.102	0.401
318.15	0.2699	0.7002	754.799	0.403
318.15	0.2803	0.3	715.813	0.236
318.15	0.3043	0.4893	737.94	0.301
318.15	0.32	0.5997	751.932	0.351
318.15	0.3201	0.2	710.702	0.211
318.15	0.3599	0.1002	704.868	0.191
318.15	0.3599	0.5995	758.206	0.352
318.15	0.36	0.4002	736.637	0.267
318.15	0.3999	0.4998	753.51	0.306
318.15	0.4133	0.3112	734.547	0.238
318.15	0.4481	0.502	761.5	0.308
318.15	0.4797	0.2004	731.269	0.207
318.15	0.4798	0.4002	754.808	0.267
318.15	0.5396	0.4	764.452	0.267
318.15	0.5397	0.1003	727.367	0.186
318.15	0.5598	0.3	755.359	0.232
318.15	0.63	0.3004	766.995	0.232
318.15	0.64	0.2	755.247	0.203
318.15	0.7199	0.2002	768.659	0.202
318.15	0.72	0.0997	754.319	0.18
318.15	0.8106	0.0996	769.903	0.177
323.15	0.0198	0.8002	723.183	0.444
323.15	0.0206	0.8994	732.266	0.506
323.15	0.0306	0.6997	715.477	0.39
323.15	0.0395	0.5916	707.256	0.339
323.15	0.0399	0.8001	726	0.445
323.15	0.0399	0.9002	735.278	0.508
323.15	0.0503	0.499	700.565	0.302
323.15	0.0597	0.4006	693.48	0.268
323.15	0.0604	0.8997	738.356	0.51
323.15	0.0606	0.7	719.696	0.391
323.15	0.07	0.3001	686.474	0.24
323.15	0.0803	0.7991	731.562	0.447
323.15	0.0803	0.8993	741.21	0.511
323.15	0.0807	0.5997	713.415	0.344
323.15	0.0808	0.2001	679.608	0.217
323.15	0.0895	0.1059	672.972	0.2
323.15	0.0904	0.8997	742.876	0.513
323.15	0.0995	0.5002	707.003	0.303
323.15	0.1195	0.701	728.024	0.394
323.15	0.1203	0.7996	737.553	0.45
323.15	0.1211	0.3991	700.816	0.268
323.15	0.1401	0.3002	694.626	0.239
323.15	0.1599	0.2005	688.051	0.215
323.15	0.1601	0.5997	724.034	0.346
323.15	0.1602	0.7998	743.639	0.453
323.15	0.1798	0.8002	746.606	0.455
323.15	0.1799	0.7001	736.692	0.397
323.15	0.1801	0.1002	681.228	0.197
323.15	0.1999	0.5007	720.221	0.304
323.15	0.2395	0.4032	716.22	0.268
323.15	0.2401	0.5996	735.507	0.348
323.15	0.2402	0.6997	745.815	0.399
323.15	0.2699	0.7002	750.524	0.401
323.15	0.2803	0.3	711.431	0.237
323.15	0.3043	0.4893	733.62	0.3
323.15	0.32	0.5997	747.648	0.35
323.15	0.3201	0.2	706.3	0.211
323.15	0.3599	0.1002	700.442	0.192
323.15	0.3599	0.5995	753.947	0.351
323.15	0.36	0.4002	732.311	0.267
323.15	0.3999	0.4998	749.232	0.306
323.15	0.4133	0.3112	730.217	0.238
323.15	0.4481	0.502	757.244	0.308
323.15	0.4797	0.2004	726.931	0.208
323.15	0.4798	0.4002	750.536	0.267
323.15	0.5396	0.4	760.222	0.267
323.15	0.5397	0.1003	723.019	0.187
323.15	0.5598	0.3	751.102	0.233
323.15	0.63	0.3004	762.785	0.232
323.15	0.64	0.2	751.008	0.204
323.15	0.7199	0.2002	764.482	0.202
323.15	0.72	0.0997	750.092	0.181
323.15	0.8106	0.0996	765.761	0.178

System: butan-1-ol + 1-hexanamine + heptane; phases: Liquid
Fixed: Pressure, kPa = 101.325
Property: Excess molar volume, m3/mol (Liquid); method: Calculated with densities of this investigation
Temperature, K	Mole fraction of butan-1-ol	Mole fraction of 1-hexanamine	Excess molar volume, m3/mol	uncertainty
288.15	0.0198	0.8002	2.2e-08	9.36e-09
288.15	0.0206	0.8994	-2.06e-08	9.37e-09
288.15	0.0306	0.6997	6.96e-08	9.43e-09
288.15	0.0395	0.5916	7.22e-08	9.44e-09
288.15	0.0399	0.8001	-6.2e-08	9.41e-09
288.15	0.0399	0.9002	-1.22e-07	9.5e-09
288.15	0.0503	0.499	9.06e-08	9.46e-09
288.15	0.0597	0.4006	7.58e-08	9.43e-09
288.15	0.0604	0.8997	-2.196e-07	9.7e-09
288.15	0.0606	0.7	-7.62e-08	9.44e-09
288.15	0.07	0.3001	4.7e-08	9.38e-09
288.15	0.0803	0.7991	-2.014e-07	9.6e-09
288.15	0.0803	0.8993	-2.826e-07	9.8e-09
288.15	0.0807	0.5997	-1.082e-07	9.5e-09
288.15	0.0808	0.2001	1.26e-08	9.31e-09
288.15	0.0895	0.1059	-4.8e-09	9.283e-09
288.15	0.0904	0.8997	-3.382e-07	9.9e-09
288.15	0.0995	0.5002	-1.248e-07	9.5e-09
288.15	0.1195	0.701	-3.052e-07	9.8e-09
288.15	0.1203	0.7996	-3.678e-07	9.9e-09
288.15	0.1211	0.3991	-1.547e-07	9.5e-09
288.15	0.1401	0.3002	-1.994e-07	9.6e-09
288.15	0.1599	0.2005	-1.688e-07	9.6e-09
288.15	0.1601	0.5997	-3.643e-07	9.9e-09
288.15	0.1602	0.7998	-5.197e-07	1.02e-08
288.15	0.1798	0.8002	-5.725e-07	1.02e-08
288.15	0.1799	0.7001	-5.148e-07	1.02e-08
288.15	0.1801	0.1002	-9.01e-08	9.42e-09
288.15	0.1999	0.5007	-4.493e-07	1e-08
288.15	0.2395	0.4032	-4.958e-07	1.01e-08
288.15	0.2401	0.5996	-6.224e-07	1.03e-08
288.15	0.2402	0.6997	-7.124e-07	1.05e-08
288.15	0.2699	0.7002	-8.026e-07	1.06e-08
288.15	0.2803	0.3	-4.837e-07	1.01e-08
288.15	0.3043	0.4893	-6.98e-07	1.05e-08
288.15	0.32	0.5997	-8.438e-07	1.07e-08
288.15	0.3201	0.2	-3.901e-07	9.9e-09
288.15	0.3599	0.1002	-1.835e-07	9.6e-09
288.15	0.3599	0.5995	-9.391e-07	1.09e-08
288.15	0.36	0.4002	-7.212e-07	1.05e-08
288.15	0.3999	0.4998	-9.213e-07	1.08e-08
288.15	0.4133	0.3112	-6.732e-07	1.04e-08
288.15	0.4481	0.502	-1.017e-06	1.1e-08
288.15	0.4797	0.2004	-5.163e-07	1.01e-08
288.15	0.4798	0.4002	-9.367e-07	1.09e-08
288.15	0.5396	0.4	-1.009e-06	1.1e-08
288.15	0.5397	0.1003	-2.496e-07	9.7e-09
288.15	0.5598	0.3	-8.368e-07	1.07e-08
288.15	0.63	0.3004	-8.992e-07	1.08e-08
288.15	0.64	0.2	-6.303e-07	1.03e-08
288.15	0.7199	0.2002	-6.681e-07	1.04e-08
288.15	0.72	0.0997	-3.265e-07	9.8e-09
288.15	0.8106	0.0996	-3.604e-07	9.9e-09
293.15	0.0198	0.8002	2.3e-08	9.35e-09
293.15	0.0206	0.8994	-2.1e-08	9.37e-09
293.15	0.0306	0.6997	7.07e-08	9.44e-09
293.15	0.0395	0.5916	7.37e-08	9.44e-09
293.15	0.0399	0.8001	-6.3e-08	9.41e-09
293.15	0.0399	0.9002	-1.247e-07	9.5e-09
293.15	0.0503	0.499	9.28e-08	9.46e-09
293.15	0.0597	0.4006	7.82e-08	9.43e-09
293.15	0.0604	0.8997	-2.24e-07	9.7e-09
293.15	0.0606	0.7	-7.76e-08	9.44e-09
293.15	0.07	0.3001	4.99e-08	9.38e-09
293.15	0.0803	0.7991	-2.054e-07	9.6e-09
293.15	0.0803	0.8993	-2.886e-07	9.8e-09
293.15	0.0807	0.5997	-1.093e-07	9.5e-09
293.15	0.0808	0.2001	1.76e-08	9.31e-09
293.15	0.0895	0.1059	2.3e-09	9.279e-09
293.15	0.0904	0.8997	-3.452e-07	9.9e-09
293.15	0.0995	0.5002	-1.257e-07	9.5e-09
293.15	0.1195	0.701	-3.104e-07	9.8e-09
293.15	0.1203	0.7996	-3.75e-07	9.9e-09
293.15	0.1211	0.3991	-1.541e-07	9.5e-09
293.15	0.1401	0.3002	-1.978e-07	9.6e-09
293.15	0.1599	0.2005	-1.639e-07	9.5e-09
293.15	0.1601	0.5997	-3.694e-07	9.9e-09
293.15	0.1602	0.7998	-5.289e-07	1.02e-08
293.15	0.1798	0.8002	-5.827e-07	1.03e-08
293.15	0.1799	0.7001	-5.23e-07	1.02e-08
293.15	0.1801	0.1002	-8.19e-08	9.41e-09
293.15	0.1999	0.5007	-4.538e-07	1e-08
293.15	0.2395	0.4032	-4.988e-07	1.01e-08
293.15	0.2401	0.5996	-6.305e-07	1.03e-08
293.15	0.2402	0.6997	-7.231e-07	1.05e-08
293.15	0.2699	0.7002	-8.142e-07	1.07e-08
293.15	0.2803	0.3	-4.842e-07	1.01e-08
293.15	0.3043	0.4893	-7.045e-07	1.05e-08
293.15	0.32	0.5997	-8.54e-07	1.07e-08
293.15	0.3201	0.2	-3.879e-07	9.9e-09
293.15	0.3599	0.1002	-1.773e-07	9.6e-09
293.15	0.3599	0.5995	-9.498e-07	1.09e-08
293.15	0.36	0.4002	-7.264e-07	1.05e-08
293.15	0.3999	0.4998	-9.3e-07	1.09e-08
293.15	0.4133	0.3112	-6.766e-07	1.04e-08
293.15	0.4481	0.502	-1.026e-06	1.1e-08
293.15	0.4797	0.2004	-5.179e-07	1.01e-08
293.15	0.4798	0.4002	-9.439e-07	1.09e-08
293.15	0.5396	0.4	-1.017e-06	1.1e-08
293.15	0.5397	0.1003	-2.472e-07	9.7e-09
293.15	0.5598	0.3	-8.43e-07	1.07e-08
293.15	0.63	0.3004	-9.061e-07	1.08e-08
293.15	0.64	0.2	-6.352e-07	1.04e-08
293.15	0.7199	0.2002	-6.738e-07	1.04e-08
293.15	0.72	0.0997	-3.287e-07	9.8e-09
293.15	0.8106	0.0996	-3.641e-07	9.9e-09
298.15	0.0198	0.8002	2.43e-08	9.35e-09
298.15	0.0206	0.8994	-2.09e-08	9.37e-09
298.15	0.0306	0.6997	7.33e-08	9.45e-09
298.15	0.0395	0.5916	7.71e-08	9.44e-09
298.15	0.0399	0.8001	-6.35e-08	9.41e-09
298.15	0.0399	0.9002	-1.266e-07	9.5e-09
298.15	0.0503	0.499	9.6e-08	9.47e-09
298.15	0.0597	0.4006	8.22e-08	9.44e-09
298.15	0.0604	0.8997	-2.274e-07	9.7e-09
298.15	0.0606	0.7	-7.76e-08	9.44e-09
298.15	0.07	0.3001	5.45e-08	9.39e-09
298.15	0.0803	0.7991	-2.087e-07	9.6e-09
298.15	0.0803	0.8993	-2.931e-07	9.8e-09
298.15	0.0807	0.5997	-1.094e-07	9.5e-09
298.15	0.0808	0.2001	2.4e-08	9.32e-09
298.15	0.0895	0.1059	1.24e-08	9.3e-09
298.15	0.0904	0.8997	-3.508e-07	9.9e-09
298.15	0.0995	0.5002	-1.253e-07	9.5e-09
298.15	0.1195	0.701	-3.144e-07	9.8e-09
298.15	0.1203	0.7996	-3.808e-07	9.9e-09
298.15	0.1211	0.3991	-1.525e-07	9.5e-09
298.15	0.1401	0.3002	-1.94e-07	9.6e-09
298.15	0.1599	0.2005	-1.571e-07	9.5e-09
298.15	0.1601	0.5997	-3.734e-07	9.9e-09
298.15	0.1602	0.7998	-5.368e-07	1.02e-08
298.15	0.1798	0.8002	-5.916e-07	1.03e-08
298.15	0.1799	0.7001	-5.298e-07	1.02e-08
298.15	0.1801	0.1002	-7.09e-08	9.39e-09
298.15	0.1999	0.5007	-4.573e-07	1.01e-08
298.15	0.2395	0.4032	-5.002e-07	1.01e-08
298.15	0.2401	0.5996	-6.374e-07	1.04e-08
298.15	0.2402	0.6997	-7.323e-07	1.05e-08
298.15	0.2699	0.7002	-8.243e-07	1.07e-08
298.15	0.2803	0.3	-4.825e-07	1.01e-08
298.15	0.3043	0.4893	-7.097e-07	1.05e-08
298.15	0.32	0.5997	-8.626e-07	1.08e-08
298.15	0.3201	0.2	-3.84e-07	9.9e-09
298.15	0.3599	0.1002	-1.681e-07	9.6e-09
298.15	0.3599	0.5995	-9.592e-07	1.09e-08
298.15	0.36	0.4002	-7.299e-07	1.05e-08
298.15	0.3999	0.4998	-9.373e-07	1.09e-08
298.15	0.4133	0.3112	-6.782e-07	1.04e-08
298.15	0.4481	0.502	-1.034e-06	1.1e-08
298.15	0.4797	0.2004	-5.17e-07	1.01e-08
298.15	0.4798	0.4002	-9.499e-07	1.09e-08
298.15	0.5396	0.4	-1.024e-06	1.1e-08
298.15	0.5397	0.1003	-2.429e-07	9.7e-09
298.15	0.5598	0.3	-8.477e-07	1.07e-08
298.15	0.63	0.3004	-9.115e-07	1.08e-08
298.15	0.64	0.2	-6.383e-07	1.04e-08
298.15	0.7199	0.2002	-6.781e-07	1.04e-08
298.15	0.72	0.0997	-3.287e-07	9.8e-09
298.15	0.8106	0.0996	-3.659e-07	9.9e-09
303.15	0.0198	0.8002	2.51e-08	9.36e-09
303.15	0.0206	0.8994	-2.19e-08	9.38e-09
303.15	0.0306	0.6997	7.48e-08	9.45e-09
303.15	0.0395	0.5916	7.87e-08	9.45e-09
303.15	0.0399	0.8001	-6.4e-08	9.41e-09
303.15	0.0399	0.9002	-1.289e-07	9.5e-09
303.15	0.0503	0.499	9.85e-08	9.47e-09
303.15	0.0597	0.4006	8.56e-08	9.44e-09
303.15	0.0604	0.8997	-2.321e-07	9.7e-09
303.15	0.0606	0.7	-7.88e-08	9.44e-09
303.15	0.07	0.3001	5.92e-08	9.4e-09
303.15	0.0803	0.7991	-2.126e-07	9.7e-09
303.15	0.0803	0.8993	-2.986e-07	9.8e-09
303.15	0.0807	0.5997	-1.097e-07	9.5e-09
303.15	0.0808	0.2001	3.15e-08	9.34e-09
303.15	0.0895	0.1059	2.32e-08	9.31e-09
303.15	0.0904	0.8997	-3.571e-07	9.9e-09
303.15	0.0995	0.5002	-1.248e-07	9.5e-09
303.15	0.1195	0.701	-3.19e-07	9.8e-09
303.15	0.1203	0.7996	-3.871e-07	9.9e-09
303.15	0.1211	0.3991	-1.506e-07	9.5e-09
303.15	0.1401	0.3002	-1.901e-07	9.6e-09
303.15	0.1599	0.2005	-1.491e-07	9.5e-09
303.15	0.1601	0.5997	-3.772e-07	9.9e-09
303.15	0.1602	0.7998	-5.45e-07	1.02e-08
303.15	0.1798	0.8002	-6.005e-07	1.03e-08
303.15	0.1799	0.7001	-5.374e-07	1.02e-08
303.15	0.1801	0.1002	-5.83e-08	9.37e-09
303.15	0.1999	0.5007	-4.606e-07	1.01e-08
303.15	0.2395	0.4032	-5.015e-07	1.01e-08
303.15	0.2401	0.5996	-6.442e-07	1.04e-08
303.15	0.2402	0.6997	-7.419e-07	1.05e-08
303.15	0.2699	0.7002	-8.348e-07	1.07e-08
303.15	0.2803	0.3	-4.808e-07	1.01e-08
303.15	0.3043	0.4893	-7.152e-07	1.05e-08
303.15	0.32	0.5997	-8.714e-07	1.08e-08
303.15	0.3201	0.2	-3.788e-07	9.9e-09
303.15	0.3599	0.1002	-1.576e-07	9.5e-09
303.15	0.3599	0.5995	-9.685e-07	1.09e-08
303.15	0.36	0.4002	-7.333e-07	1.05e-08
303.15	0.3999	0.4998	-9.445e-07	1.09e-08
303.15	0.4133	0.3112	-6.798e-07	1.04e-08
303.15	0.4481	0.502	-1.042e-06	1.1e-08
303.15	0.4797	0.2004	-5.157e-07	1.01e-08
303.15	0.4798	0.4002	-9.557e-07	1.09e-08
303.15	0.5396	0.4	-1.03e-06	1.1e-08
303.15	0.5397	0.1003	-2.371e-07	9.7e-09
303.15	0.5598	0.3	-8.524e-07	1.07e-08
303.15	0.63	0.3004	-9.173e-07	1.08e-08
303.15	0.64	0.2	-6.411e-07	1.04e-08
303.15	0.7199	0.2002	-6.825e-07	1.04e-08
303.15	0.72	0.0997	-3.283e-07	9.8e-09
303.15	0.8106	0.0996	-3.679e-07	9.9e-09
308.15	0.0198	0.8002	2.63e-08	9.36e-09
308.15	0.0206	0.8994	-2.19e-08	9.38e-09
308.15	0.0306	0.6997	7.67e-08	9.46e-09
308.15	0.0395	0.5916	8.19e-08	9.45e-09
308.15	0.0399	0.8001	-6.46e-08	9.41e-09
308.15	0.0399	0.9002	-1.309e-07	9.5e-09
308.15	0.0503	0.499	1.021e-07	9.5e-09
308.15	0.0597	0.4006	9.01e-08	9.45e-09
308.15	0.0604	0.8997	-2.357e-07	9.7e-09
308.15	0.0606	0.7	-7.89e-08	9.44e-09
308.15	0.07	0.3001	6.54e-08	9.41e-09
308.15	0.0803	0.7991	-2.159e-07	9.7e-09
308.15	0.0803	0.8993	-3.035e-07	9.8e-09
308.15	0.0807	0.5997	-1.094e-07	9.5e-09
308.15	0.0808	0.2001	4.09e-08	9.35e-09
308.15	0.0895	0.1059	3.69e-08	9.34e-09
308.15	0.0904	0.8997	-3.629e-07	9.9e-09
308.15	0.0995	0.5002	-1.238e-07	9.5e-09
308.15	0.1195	0.701	-3.23e-07	9.8e-09
308.15	0.1203	0.7996	-3.926e-07	1e-08
308.15	0.1211	0.3991	-1.478e-07	9.5e-09
308.15	0.1401	0.3002	-1.842e-07	9.6e-09
308.15	0.1599	0.2005	-1.394e-07	9.5e-09
308.15	0.1601	0.5997	-3.807e-07	9.9e-09
308.15	0.1602	0.7998	-5.531e-07	1.02e-08
308.15	0.1798	0.8002	-6.09e-07	1.03e-08
308.15	0.1799	0.7001	-5.439e-07	1.02e-08
308.15	0.1801	0.1002	-4.3e-08	9.35e-09
308.15	0.1999	0.5007	-4.626e-07	1.01e-08
308.15	0.2395	0.4032	-5.013e-07	1.01e-08
308.15	0.2401	0.5996	-6.504e-07	1.04e-08
308.15	0.2402	0.6997	-7.506e-07	1.06e-08
308.15	0.2699	0.7002	-8.442e-07	1.07e-08
308.15	0.2803	0.3	-4.776e-07	1.01e-08
308.15	0.3043	0.4893	-7.197e-07	1.05e-08
308.15	0.32	0.5997	-8.797e-07	1.08e-08
308.15	0.3201	0.2	-3.718e-07	9.9e-09
308.15	0.3599	0.1002	-1.448e-07	9.5e-09
308.15	0.3599	0.5995	-9.773e-07	1.1e-08
308.15	0.36	0.4002	-7.359e-07	1.05e-08
308.15	0.3999	0.4998	-9.514e-07	1.09e-08
308.15	0.4133	0.3112	-6.801e-07	1.04e-08
308.15	0.4481	0.502	-1.05e-06	1.1e-08
308.15	0.4797	0.2004	-5.131e-07	1.01e-08
308.15	0.4798	0.4002	-9.614e-07	1.09e-08
308.15	0.5396	0.4	-1.036e-06	1.1e-08
308.15	0.5397	0.1003	-2.297e-07	9.7e-09
308.15	0.5598	0.3	-8.562e-07	1.07e-08
308.15	0.63	0.3004	-9.223e-07	1.09e-08
308.15	0.64	0.2	-6.43e-07	1.04e-08
308.15	0.7199	0.2002	-6.86e-07	1.05e-08
308.15	0.72	0.0997	-3.269e-07	9.8e-09
308.15	0.8106	0.0996	-3.688e-07	9.9e-09
313.15	0.0198	0.8002	2.75e-08	9.36e-09
313.15	0.0206	0.8994	-2.2e-08	9.38e-09
313.15	0.0306	0.6997	7.83e-08	9.46e-09
313.15	0.0395	0.5916	8.41e-08	9.46e-09
313.15	0.0399	0.8001	-6.53e-08	9.42e-09
313.15	0.0399	0.9002	-1.327e-07	9.6e-09
313.15	0.0503	0.499	1.052e-07	9.5e-09
313.15	0.0597	0.4006	9.46e-08	9.46e-09
313.15	0.0604	0.8997	-2.394e-07	9.7e-09
313.15	0.0606	0.7	-7.9e-08	9.44e-09
313.15	0.07	0.3001	7.17e-08	9.42e-09
313.15	0.0803	0.7991	-2.189e-07	9.7e-09
313.15	0.0803	0.8993	-3.081e-07	9.8e-09
313.15	0.0807	0.5997	-1.092e-07	9.5e-09
313.15	0.0808	0.2001	5.08e-08	9.37e-09
313.15	0.0895	0.1059	5.22e-08	9.36e-09
313.15	0.0904	0.8997	-3.683e-07	1e-08
313.15	0.0995	0.5002	-1.224e-07	9.5e-09
313.15	0.1195	0.701	-3.264e-07	9.8e-09
313.15	0.1203	0.7996	-3.983e-07	1e-08
313.15	0.1211	0.3991	-1.445e-07	9.5e-09
313.15	0.1401	0.3002	-1.782e-07	9.6e-09
313.15	0.1599	0.2005	-1.283e-07	9.5e-09
313.15	0.1601	0.5997	-3.838e-07	9.9e-09
313.15	0.1602	0.7998	-5.606e-07	1.02e-08
313.15	0.1798	0.8002	-6.174e-07	1.03e-08
313.15	0.1799	0.7001	-5.502e-07	1.02e-08
313.15	0.1801	0.1002	-2.55e-08	9.32e-09
313.15	0.1999	0.5007	-4.643e-07	1.01e-08
313.15	0.2395	0.4032	-5.01e-07	1.01e-08
313.15	0.2401	0.5996	-6.565e-07	1.04e-08
313.15	0.2402	0.6997	-7.593e-07	1.06e-08
313.15	0.2699	0.7002	-8.537e-07	1.07e-08
313.15	0.2803	0.3	-4.735e-07	1.01e-08
313.15	0.3043	0.4893	-7.235e-07	1.05e-08
313.15	0.32	0.5997	-8.875e-07	1.08e-08
313.15	0.3201	0.2	-3.634e-07	9.9e-09
313.15	0.3599	0.1002	-1.301e-07	9.5e-09
313.15	0.3599	0.5995	-9.86e-07	1.1e-08
313.15	0.36	0.4002	-7.379e-07	1.05e-08
313.15	0.3999	0.4998	-9.58e-07	1.09e-08
313.15	0.4133	0.3112	-6.801e-07	1.04e-08
313.15	0.4481	0.502	-1.057e-06	1.1e-08
313.15	0.4797	0.2004	-5.091e-07	1.01e-08
313.15	0.4798	0.4002	-9.664e-07	1.09e-08
313.15	0.5396	0.4	-1.043e-06	1.1e-08
313.15	0.5397	0.1003	-2.202e-07	9.7e-09
313.15	0.5598	0.3	-8.6e-07	1.07e-08
313.15	0.63	0.3004	-9.274e-07	1.09e-08
313.15	0.64	0.2	-6.445e-07	1.04e-08
313.15	0.7199	0.2002	-6.893e-07	1.05e-08
313.15	0.72	0.0997	-3.245e-07	9.8e-09
313.15	0.8106	0.0996	-3.696e-07	9.9e-09
318.15	0.0198	0.8002	2.84e-08	9.37e-09
318.15	0.0206	0.8994	-2.26e-08	9.38e-09
318.15	0.0306	0.6997	8.01e-08	9.47e-09
318.15	0.0395	0.5916	8.67e-08	9.46e-09
318.15	0.0399	0.8001	-6.54e-08	9.42e-09
318.15	0.0399	0.9002	-1.343e-07	9.6e-09
318.15	0.0503	0.499	1.093e-07	9.5e-09
318.15	0.0597	0.4006	1.004e-07	9.5e-09
318.15	0.0604	0.8997	-2.428e-07	9.7e-09
318.15	0.0606	0.7	-7.9e-08	9.45e-09
318.15	0.07	0.3001	7.97e-08	9.43e-09
318.15	0.0803	0.7991	-2.218e-07	9.7e-09
318.15	0.0803	0.8993	-3.125e-07	9.8e-09
318.15	0.0807	0.5997	-1.086e-07	9.5e-09
318.15	0.0808	0.2001	6.35e-08	9.39e-09
318.15	0.0895	0.1059	7.02e-08	9.39e-09
318.15	0.0904	0.8997	-3.732e-07	1e-08
318.15	0.0995	0.5002	-1.199e-07	9.5e-09
318.15	0.1195	0.701	-3.298e-07	9.9e-09
318.15	0.1203	0.7996	-4.034e-07	1e-08
318.15	0.1211	0.3991	-1.397e-07	9.5e-09
318.15	0.1401	0.3002	-1.697e-07	9.6e-09
318.15	0.1599	0.2005	-1.143e-07	9.5e-09
318.15	0.1601	0.5997	-3.857e-07	9.9e-09
318.15	0.1602	0.7998	-5.677e-07	1.03e-08
318.15	0.1798	0.8002	-6.249e-07	1.03e-08
318.15	0.1799	0.7001	-5.557e-07	1.02e-08
318.15	0.1801	0.1002	-3.8e-09	9.285e-09
318.15	0.1999	0.5007	-4.65e-07	1.01e-08
318.15	0.2395	0.4032	-4.982e-07	1.01e-08
318.15	0.2401	0.5996	-6.61e-07	1.04e-08
318.15	0.2402	0.6997	-7.666e-07	1.06e-08
318.15	0.2699	0.7002	-8.617e-07	1.08e-08
318.15	0.2803	0.3	-4.669e-07	1.01e-08
318.15	0.3043	0.4893	-7.262e-07	1.05e-08
318.15	0.32	0.5997	-8.943e-07	1.08e-08
318.15	0.3201	0.2	-3.518e-07	9.9e-09
318.15	0.3599	0.1002	-1.109e-07	9.5e-09
318.15	0.3599	0.5995	-9.93e-07	1.1e-08
318.15	0.36	0.4002	-7.382e-07	1.05e-08
318.15	0.3999	0.4998	-9.625e-07	1.09e-08
318.15	0.4133	0.3112	-6.772e-07	1.04e-08
318.15	0.4481	0.502	-1.063e-06	1.1e-08
318.15	0.4797	0.2004	-5.026e-07	1.01e-08
318.15	0.4798	0.4002	-9.694e-07	1.09e-08
318.15	0.5396	0.4	-1.046e-06	1.1e-08
318.15	0.5397	0.1003	-2.068e-07	9.6e-09
318.15	0.5598	0.3	-8.607e-07	1.08e-08
318.15	0.63	0.3004	-9.297e-07	1.09e-08
318.15	0.64	0.2	-6.427e-07	1.04e-08
318.15	0.7199	0.2002	-6.898e-07	1.05e-08
318.15	0.72	0.0997	-3.182e-07	9.8e-09
318.15	0.8106	0.0996	-3.667e-07	9.9e-09
323.15	0.0198	0.8002	3e-08	9.38e-09
323.15	0.0206	0.8994	-2.26e-08	9.38e-09
323.15	0.0306	0.6997	8.19e-08	9.46e-09
323.15	0.0395	0.5916	9.02e-08	9.47e-09
323.15	0.0399	0.8001	-6.63e-08	9.42e-09
323.15	0.0399	0.9002	-1.363e-07	9.6e-09
323.15	0.0503	0.499	1.136e-07	9.5e-09
323.15	0.0597	0.4006	1.067e-07	9.5e-09
323.15	0.0604	0.8997	-2.463e-07	9.7e-09
323.15	0.0606	0.7	-7.93e-08	9.45e-09
323.15	0.07	0.3001	8.88e-08	9.45e-09
323.15	0.0803	0.7991	-2.254e-07	9.7e-09
323.15	0.0803	0.8993	-3.172e-07	9.8e-09
323.15	0.0807	0.5997	-1.074e-07	9.5e-09
323.15	0.0808	0.2001	7.69e-08	9.41e-09
323.15	0.0895	0.1059	9.02e-08	9.42e-09
323.15	0.0904	0.8997	-3.785e-07	1e-08
323.15	0.0995	0.5002	-1.178e-07	9.5e-09
323.15	0.1195	0.701	-3.33e-07	9.9e-09
323.15	0.1203	0.7996	-4.082e-07	1e-08
323.15	0.1211	0.3991	-1.336e-07	9.5e-09
323.15	0.1401	0.3002	-1.603e-07	9.6e-09
323.15	0.1599	0.2005	-9.91e-08	9.45e-09
323.15	0.1601	0.5997	-3.885e-07	9.9e-09
323.15	0.1602	0.7998	-5.745e-07	1.03e-08
323.15	0.1798	0.8002	-6.324e-07	1.04e-08
323.15	0.1799	0.7001	-5.613e-07	1.02e-08
323.15	0.1801	0.1002	1.95e-08	9.31e-09
323.15	0.1999	0.5007	-4.651e-07	1.01e-08
323.15	0.2395	0.4032	-4.958e-07	1.01e-08
323.15	0.2401	0.5996	-6.657e-07	1.04e-08
323.15	0.2402	0.6997	-7.745e-07	1.06e-08
323.15	0.2699	0.7002	-8.707e-07	1.08e-08
323.15	0.2803	0.3	-4.603e-07	1.01e-08
323.15	0.3043	0.4893	-7.291e-07	1.05e-08
323.15	0.32	0.5997	-9.015e-07	1.08e-08
323.15	0.3201	0.2	-3.397e-07	9.8e-09
323.15	0.3599	0.1002	-9.07e-08	9.44e-09
323.15	0.3599	0.5995	-1.003e-06	1.1e-08
323.15	0.36	0.4002	-7.389e-07	1.05e-08
323.15	0.3999	0.4998	-9.687e-07	1.09e-08
323.15	0.4133	0.3112	-6.753e-07	1.04e-08
323.15	0.4481	0.502	-1.07e-06	1.1e-08
323.15	0.4797	0.2004	-4.958e-07	1.01e-08
323.15	0.4798	0.4002	-9.737e-07	1.09e-08
323.15	0.5396	0.4	-1.053e-06	1.1e-08
323.15	0.5397	0.1003	-1.934e-07	9.6e-09
323.15	0.5598	0.3	-8.633e-07	1.08e-08
323.15	0.63	0.3004	-9.345e-07	1.09e-08
323.15	0.64	0.2	-6.426e-07	1.04e-08
323.15	0.7199	0.2002	-6.926e-07	1.05e-08
323.15	0.72	0.0997	-3.132e-07	9.8e-09
323.15	0.8106	0.0996	-3.665e-07	9.9e-09
