Measured thermophysical data. Determination and modeling of solid-liquid equilibrium for ternary system of 3,4-dichloronitrobenzene + 2,3-dichloronitrobenzene + methanol
Source: Fluid Phase Equilib., 2016, 10.1016/j.fluid.2015.10.043
Compound 1: methanol, CH4O, InChI=1S/CH4O/c1-2/h2H,1H3, purity 99.5%
Compound 2: 3,4-dichloro-1-nitrobenzene, C6H3Cl2NO2, InChI=1S/C6H3Cl2NO2/c7-5-2-1-4(9(10)11)3-6(5)8/h1-3H, purity 98%
Compound 3: 1,2-dichloro-3-nitrobenzene, C6H3Cl2NO2, InChI=1S/C6H3Cl2NO2/c7-4-2-1-3-5(6(4)8)9(10)11/h1-3H, purity 96.5%

System: methanol + 3,4-dichloro-1-nitrobenzene + 1,2-dichloro-3-nitrobenzene; phases: Liquid, Crystal
Fixed: Pressure, kPa = 101.3
Property: Mass fraction of 1,2-dichloro-3-nitrobenzene (Liquid); method: Chromatography
Temperature, K	Mass fraction of 3,4-dichloro-1-nitrobenzene	Mass fraction of 1,2-dichloro-3-nitrobenzene	uncertainty
283.15	0	0.0873	0.0005
283.15	0.0219	0.0857	0.0005
283.15	0.0459	0.0841	0.0005
283.15	0.0701	0.0822	0.0005
283.15	0.0911	0.0806	0.0005
283.15	0.1144	0.0792	0.0005
283.15	0.1319	0.0782	0.0005
283.15	0.149	0.0773	0.0005
293.15	0	0.1372	0.0005
293.15	0.0333	0.135	0.0005
293.15	0.0632	0.1339	0.0005
293.15	0.101	0.1319	0.0005
293.15	0.1231	0.131	0.0005
293.15	0.1511	0.1302	0.0005
293.15	0.1849	0.1285	0.0005
293.15	0.2266	0.1277	0.0005
293.15	0.2599	0.1272	0.0005
303.15	0	0.1897	0.0006
303.15	0.0384	0.187	0.0006
303.15	0.0799	0.1841	0.0006
303.15	0.1314	0.1804	0.0006
303.15	0.1772	0.1773	0.0006
303.15	0.2251	0.1755	0.0006
303.15	0.2781	0.1733	0.0006
303.15	0.3497	0.1702	0.0006
303.15	0.4277	0.1672	0.0006

System: methanol + 3,4-dichloro-1-nitrobenzene + 1,2-dichloro-3-nitrobenzene; phases: Liquid, Crystal
Fixed: Pressure, kPa = 101.3
Property: Mass fraction of 1,2-dichloro-3-nitrobenzene (Liquid); method: Chromatography
Temperature, K	Mass fraction of 3,4-dichloro-1-nitrobenzene	Mass fraction of 1,2-dichloro-3-nitrobenzene	uncertainty
283.15	0.149	0.0773	0.0187
283.15	0.1497	0.0556	0.0139
283.15	0.1512	0.0256	0.0068
283.15	0.1545	0	
293.15	0.2599	0.1272	0.0063
293.15	0.2626	0.0996	0.0068
293.15	0.2644	0.0769	0.0041
293.15	0.2694	0.0529	0.0032
293.15	0.2744	0.0272	0.003
293.15	0.2809	0	
303.15	0.4277	0.1672	0.0071
303.15	0.4312	0.1351	0.0052
303.15	0.4385	0.0954	0.0041
303.15	0.4449	0.0563	0.0038
303.15	0.452	0.0232	0.0025
303.15	0.4609	0	

System: methanol + 1,2-dichloro-3-nitrobenzene; phases: Liquid, Crystal
Fixed: Pressure, kPa = 101.3
Property: Mass fraction of 1,2-dichloro-3-nitrobenzene (Liquid); method: Chromatography
Temperature, K	Mass fraction of 1,2-dichloro-3-nitrobenzene	uncertainty
283.15	0.0873	0.0005
293.15	0.1372	0.0005
303.15	0.1897	0.0006

System: methanol + 3,4-dichloro-1-nitrobenzene; phases: Liquid, Crystal
Fixed: Pressure, kPa = 101.3
Property: Solid-liquid equilibrium temperature, K (Liquid); method: Chromatography
Mass fraction of 3,4-dichloro-1-nitrobenzene	Solid-liquid equilibrium temperature, K	uncertainty
0.1545	283.15	
0.2809	293.15	
0.4609	303.15	
