Measured thermophysical data. Liquid liquid equlibria of the system dimethyl carbonate + methanol +water at different temperatures
Source: Fluid Phase Equilib., 2006, 10.1016/j.fluid.2006.05.029
Compound 1: dimethyl carbonate, C3H6O3, InChI=1S/C3H6O3/c1-5-3(4)6-2/h1-2H3, purity 99%
Compound 2: methanol, CH4O, InChI=1S/CH4O/c1-2/h2H,1H3, purity 99.9%
Compound 3: water, H2O, InChI=1S/H2O/h1H2

System: dimethyl carbonate; phases: Liquid
Property: Refractive index (Na D-line) (Liquid); method: Standard Abbe refractometry
Temperature, K	Pressure, kPa	Refractive index (Na D-line)	uncertainty
298.15	101.325	1.3672	0.0008

System: dimethyl carbonate; phases: Liquid
Property: Mass density, kg/m3 (Liquid); method: PYCNOM:UFactor:2
Temperature, K	Pressure, kPa	Mass density, kg/m3	uncertainty
298.15	101.325	1063.33	1.32

System: methanol; phases: Liquid
Property: Refractive index (Na D-line) (Liquid); method: Standard Abbe refractometry
Temperature, K	Pressure, kPa	Refractive index (Na D-line)	uncertainty
298.15	101.325	1.3262	0.0007

System: methanol; phases: Liquid
Property: Mass density, kg/m3 (Liquid); method: Pycnometric method
Temperature, K	Pressure, kPa	Mass density, kg/m3	uncertainty
298.15	101.325	786.49	0.71

System: dimethyl carbonate + water; phases: Liquid mixture 1, Liquid mixture 2
Fixed: Pressure, kPa = 101.3
Property: Mole fraction of dimethyl carbonate (Liquid mixture 1); method: CHROM:UFactor:8
Temperature, K	Mole fraction of dimethyl carbonate	uncertainty
283.15	0.891	0.007
293.15	0.874	0.008
303.15	0.849	0.009
313.15	0.825	0.011
323.15	0.8	0.012
333.15	0.77	0.014

System: dimethyl carbonate + water; phases: Liquid mixture 2, Liquid mixture 1
Fixed: Pressure, kPa = 101.3
Property: Mole fraction of dimethyl carbonate (Liquid mixture 2); method: CHROM:UFactor:8
Temperature, K	Mole fraction of dimethyl carbonate	uncertainty
283.15	0.011	0.002
293.15	0.011	0.002
303.15	0.012	0.002
313.15	0.014	0.002
323.15	0.014	0.002
333.15	0.017	0.002

System: methanol + dimethyl carbonate + water; phases: Liquid mixture 1, Liquid mixture 2
Fixed: Pressure, kPa = 101.3
Property: Mole fraction of methanol (Liquid mixture 1); method: CHROM:UFactor:8
Property: Mole fraction of dimethyl carbonate (Liquid mixture 2); method: CHROM:UFactor:8
Property: Mole fraction of methanol (Liquid mixture 2); method: CHROM:UFactor:8
Temperature, K	Mole fraction of dimethyl carbonate	Mole fraction of methanol	uncertainty	Mole fraction of dimethyl carbonate	uncertainty	Mole fraction of methanol	uncertainty
283.15	0.891	0	0.001	0.011	0.002	0	
283.15	0.836	0.035	0.003	0.019	0.002	0.062	
283.15	0.816	0.045	0.003	0.024	0.003	0.081	
283.15	0.769	0.068	0.004	0.033	0.003	0.114	
283.15	0.712	0.093	0.006	0.044	0.003	0.143	
283.15	0.633	0.125	0.008	0.064	0.005	0.171	
283.15	0.565	0.149	0.009	0.08	0.006	0.187	
283.15	0.537	0.158	0.01	0.089	0.007	0.192	
293.15	0.874	0	0.001	0.011	0.002	0	
293.15	0.775	0.052	0.004	0.03	0.003	0.078	
293.15	0.734	0.069	0.005	0.037	0.003	0.099	
293.15	0.677	0.093	0.006	0.05	0.004	0.125	
293.15	0.634	0.109	0.007	0.059	0.004	0.137	
293.15	0.566	0.132	0.008	0.076	0.005	0.155	
293.15	0.472	0.158	0.01	0.103	0.007	0.172	
293.15	0.422	0.168	0.01	0.121	0.009	0.179	
303.15	0.849	0	0.001	0.012	0.002	0	
303.15	0.759	0.046	0.003	0.031	0.003	0.061	
303.15	0.723	0.061	0.004	0.039	0.003	0.08	
303.15	0.684	0.077	0.005	0.049	0.004	0.097	
303.15	0.627	0.097	0.006	0.06	0.004	0.116	
303.15	0.543	0.126	0.008	0.084	0.006	0.14	
303.15	0.503	0.136	0.008	0.094	0.007	0.147	
303.15	0.433	0.15	0.009	0.116	0.008	0.157	
313.15	0.825	0	0.001	0.014	0.002	0	
313.15	0.769	0.029	0.003	0.026	0.003	0.032	
313.15	0.737	0.047	0.003	0.032	0.003	0.055	
313.15	0.7	0.058	0.004	0.042	0.003	0.067	
313.15	0.649	0.078	0.005	0.055	0.004	0.09	
313.15	0.579	0.1	0.006	0.069	0.005	0.107	
313.15	0.508	0.12	0.007	0.089	0.006	0.124	
323.15	0.8	0	0.001	0.014	0.002	0	
323.15	0.763	0.017	0.002	0.022	0.003	0.013	
323.15	0.723	0.034	0.003	0.03	0.003	0.034	
323.15	0.705	0.043	0.003	0.035	0.003	0.044	
323.15	0.653	0.062	0.004	0.046	0.004	0.065	
323.15	0.618	0.074	0.005	0.055	0.004	0.078	
323.15	0.572	0.089	0.006	0.069	0.005	0.091	
323.15	0.532	0.102	0.006	0.086	0.006	0.1	
323.15	0.483	0.118	0.007	0.089	0.006	0.114	
333.15	0.77	0	0.001	0.017	0.002	0	
333.15	0.746	0.018	0.003	0.024	0.003	0.013	
333.15	0.713	0.032	0.003	0.03	0.003	0.028	
333.15	0.652	0.056	0.004	0.047	0.004	0.054	
333.15	0.602	0.077	0.005	0.066	0.005	0.073	
333.15	0.546	0.09	0.006	0.083	0.006	0.084	
333.15	0.482	0.101	0.006	0.094	0.006	0.095	
