Measured thermophysical data. Measurements of isothermal vapor-liquid equilibrium of binary methanol/dimethyl carbonate system under pressure
Source: Fluid Phase Equilib., 2005, 10.1016/j.fluid.2005.05.002
Compound 1: dimethyl carbonate, C3H6O3, InChI=1S/C3H6O3/c1-5-3(4)6-2/h1-2H3, purity 98.5%
Compound 2: methanol, CH4O, InChI=1S/CH4O/c1-2/h2H,1H3, purity 99.5%

System: dimethyl carbonate; phases: Liquid, Gas
Property: Vapor or sublimation pressure, kPa (Liquid); method: CCELL:UFactor:2
Temperature, K	Vapor or sublimation pressure, kPa	uncertainty
337.35	41.02	0.47
377.15	154.63	1.32
391.15	229.39	1.99
411.15	382.5	3.23
428.15	566.47	4.7

System: methanol; phases: Liquid, Gas
Property: Vapor or sublimation pressure, kPa (Liquid); method: CCELL:UFactor:2
Temperature, K	Vapor or sublimation pressure, kPa	uncertainty
337.35	99.91	1.13
377.15	400.41	3.37
391.15	604.68	5.24
411.15	1042.57	8.77
428.15	1565.62	12.94

System: methanol + dimethyl carbonate; phases: Liquid, Gas
Property: Azeotropic pressure, kPa (Liquid); method: PX:UFactor:3
Temperature, K	Azeotropic pressure, kPa	uncertainty
337.35	102.73	2.56
377.15	405.7	7.95
391.15	613	11.8
411.15	1077	20.15
428.15	1576	29.12

System: methanol + dimethyl carbonate; phases: Liquid, Gas
Property: Azeotropic composition: mole fraction of methanol (Liquid); method: TPX:UFactor:16
Temperature, K	Azeotropic composition: mole fraction of methanol	uncertainty
337.35	0.85	0.0448
377.15	0.91	0.0333
391.15	0.915	0.0323
411.15	0.92	0.0314
428.15	0.9625	0.0232

System: methanol + dimethyl carbonate; phases: Gas, Liquid
Property: Vapor or sublimation pressure, kPa (Gas); method: CCELL:UFactor:2
Mole fraction of methanol	Temperature, K	Vapor or sublimation pressure, kPa	uncertainty
0	337.35	41.02	0.47
0	377.15	154.63	1.32
0	391.15	229.39	1.99
0	411.15	382.5	3.23
0	428.15	566.47	4.7
0.0062	428.15	576.56	4.78
0.0069	337.35	42.11	0.47
0.007	411.15	389.09	3.28
0.093	428.15	719.04	5.98
0.0942	391.15	295.17	2.53
0.0949	411.15	469.65	3.96
0.0955	337.35	55.19	0.61
0.0956	377.15	203.31	1.72
0.1838	428.15	862.38	7.18
0.1911	391.15	354.05	3.03
0.1934	377.15	245.31	2.07
0.1981	411.15	565.91	4.77
0.1999	337.35	68.23	0.74
0.2758	428.15	996.22	8.28
0.2809	411.15	644.18	5.44
0.2879	391.15	407.44	3.48
0.2912	377.15	282.39	2.37
0.3033	337.35	78.79	0.85
0.3757	428.15	1127.59	9.35
0.3786	411.15	733.7	6.19
0.3886	391.15	456.75	3.91
0.3919	377.15	315.39	2.64
0.3974	337.35	86.55	0.93
0.4759	428.15	1245.56	10.32
0.4785	411.15	818.53	6.89
0.4887	391.15	500.06	4.29
0.4921	377.15	343.46	2.88
0.4993	337.35	93.16	1.01
0.5716	428.15	1345.49	11.13
0.5848	411.15	900.31	7.57
0.5907	391.15	539.09	4.64
0.5937	377.15	367.35	3.08
0.5986	337.35	97.96	1.07
0.6849	411.15	971.57	8.16
0.6855	428.15	1445.39	11.92
0.693	391.15	572.75	4.95
0.6955	377.15	386.46	3.24
0.6982	337.35	101.23	1.11
0.7932	411.15	1039.66	8.72
0.7935	428.15	1515.8	12.48
0.7962	391.15	599.09	5.2
0.7978	377.15	399.83	3.35
0.7999	337.35	102.91	1.14
0.85	337.35	103.05	1.15
0.8992	411.15	1078.76	9.04
0.8993	391.15	612.6	5.33
0.8998	377.15	405.36	3.41
0.9001	337.35	102.67	1.15
0.9001	428.15	1556.04	12.8
0.91	377.15	405.38	3.4
0.9148	391.15	613.02	5.33
0.9426	428.15	1563.29	12.88
0.9502	337.35	101.71	1.14
0.9502	377.15	404.36	3.39
0.9503	391.15	611.92	5.33
0.9519	411.15	1073.47	9
1	337.35	99.91	1.13
1	377.15	400.41	3.37
1	391.15	604.68	5.24
1	411.15	1042.57	8.77
1	428.15	1565.62	12.94
