Measured thermophysical data. Influence of temperature on thermodynamics of ethers + xylenes
Source: Fluid Phase Equilib., 2008, 10.1016/j.fluid.2008.03.004
Compound 1: 2-methoxy-2-methylpropane, C5H12O, InChI=1S/C5H12O/c1-5(2,3)6-4/h1-4H3
Compound 2: 2-ethoxy-2-methylpropane, C6H14O, InChI=1S/C6H14O/c1-5-7-6(2,3)4/h5H2,1-4H3
Compound 3: 1,2-dimethylbenzene, C8H10, InChI=1S/C8H10/c1-7-5-3-4-6-8(7)2/h3-6H,1-2H3
Compound 4: 1,3-dimethylbenzene, C8H10, InChI=1S/C8H10/c1-7-4-3-5-8(2)6-7/h3-6H,1-2H3
Compound 5: 1,4-dimethylbenzene, C8H10, InChI=1S/C8H10/c1-7-3-5-8(2)6-4-7/h3-6H,1-2H3

System: 2-methoxy-2-methylpropane; phases: Liquid
Fixed: Pressure, kPa = 101
Property: Speed of sound, m/s (Liquid); method: Sing-around technique in a fixed-path interferometer
Temperature, K	Speed of sound, m/s	uncertainty
288.15	1083.38	2.18
290.65	1071.61	2.18
293.15	1060.05	2.17
295.65	1048.48	2.17
298.15	1036.94	2.17
300.65	1025.42	2.17
303.15	1013.9	2.17
305.65	1002.41	2.17
308.15	990.99	2.17
310.65	979.62	2.17
313.15	968.16	2.17
315.65	956.8	2.16
318.15	945.54	2.16
320.65	934.24	2.16
323.15	922.97	2.16

System: 2-methoxy-2-methylpropane; phases: Liquid
Fixed: Pressure, kPa = 101
Property: Mass density, kg/m3 (Liquid); method: VIBTUB:UFactor:4
Temperature, K	Mass density, kg/m3	uncertainty
288.15	744.861	0.552
290.65	742.259	0.556
293.15	739.654	0.56
295.65	737.036	0.564
298.15	734.406	0.568
300.65	731.766	0.572
303.15	729.112	0.576
305.65	726.444	0.58
308.15	723.763	0.584
310.65	721.069	0.588
313.15	718.357	0.592
315.65	715.636	0.596
318.15	712.897	0.6
320.65	710.141	0.604
323.15	707.381	0.609

System: 2-ethoxy-2-methylpropane; phases: Liquid
Fixed: Pressure, kPa = 101
Property: Speed of sound, m/s (Liquid); method: Sing-around technique in a fixed-path interferometer
Temperature, K	Speed of sound, m/s	uncertainty
288.15	1076.43	2.17
290.65	1065.09	2.17
293.15	1053.72	2.17
295.65	1042.23	2.17
298.15	1031.01	2.17
300.65	1019.76	2.17
303.15	1008.62	2.17
305.65	997.52	2.17
308.15	986.39	2.16
310.65	975.42	2.16
313.15	964.53	2.16
315.65	953.54	2.16
318.15	942.67	2.16
320.65	931.73	2.16
323.15	920.73	2.16

System: 2-ethoxy-2-methylpropane; phases: Liquid
Fixed: Pressure, kPa = 101
Property: Mass density, kg/m3 (Liquid); method: VIBTUB:UFactor:4
Temperature, K	Mass density, kg/m3	uncertainty
288.15	744.955	0.552
290.65	742.482	0.556
293.15	739.947	0.559
295.65	737.374	0.563
298.15	734.806	0.567
300.65	732.225	0.571
303.15	729.647	0.575
305.65	727.038	0.579
308.15	724.443	0.583
310.65	721.826	0.587
313.15	719.179	0.591
315.65	716.527	0.595
318.15	713.96	0.599
320.65	711.25	0.603
323.15	708.642	0.606

System: 1,2-dimethylbenzene; phases: Liquid
Fixed: Pressure, kPa = 101
Property: Speed of sound, m/s (Liquid); method: Sing-around technique in a fixed-path interferometer
Temperature, K	Speed of sound, m/s	uncertainty
288.15	1381.29	2.19
290.65	1371.75	2.19
293.15	1362.16	2.19
295.65	1351.83	2.19
298.15	1341.51	2.19
300.65	1331.21	2.19
303.15	1320.96	2.19
305.65	1310.79	2.19
308.15	1300.66	2.19
310.65	1290.59	2.18
313.15	1280.61	2.18
315.65	1270.55	2.18
318.15	1260.62	2.18
320.65	1250.66	2.18
323.15	1240.87	2.18

System: 1,2-dimethylbenzene; phases: Liquid
Fixed: Pressure, kPa = 101
Property: Mass density, kg/m3 (Liquid); method: VIBTUB::UFactor:4
Temperature, K	Mass density, kg/m3	uncertainty
288.15	883.36	0.346
290.65	881.265	0.35
293.15	879.168	0.353
295.65	877.069	0.356
298.15	874.968	0.359
300.65	872.865	0.362
303.15	870.759	0.365
305.65	868.65	0.368
308.15	866.538	0.372
310.65	864.422	0.375
313.15	862.302	0.378
315.65	860.179	0.381
318.15	858.054	0.384
320.65	855.927	0.387
323.15	853.803	0.39

System: 1,3-dimethylbenzene; phases: Liquid
Fixed: Pressure, kPa = 101
Property: Speed of sound, m/s (Liquid); method: Sing-around technique in a fixed-path interferometer
Temperature, K	Speed of sound, m/s	uncertainty
288.15	1362.66	2.19
290.65	1352.14	2.19
293.15	1341.72	2.19
295.65	1331.31	2.19
298.15	1320.92	2.19
300.65	1310.57	2.19
303.15	1300.27	2.19
305.65	1290	2.19
308.15	1279.79	2.18
310.65	1269.59	2.18
313.15	1259.46	2.18
315.65	1249.33	2.18
318.15	1239.28	2.18
320.65	1229.26	2.18
323.15	1219.51	2.17

System: 1,3-dimethylbenzene; phases: Liquid
Fixed: Pressure, kPa = 101
Property: Mass density, kg/m3 (Liquid); method: VIBTUB:UFactor:4
Temperature, K	Mass density, kg/m3	uncertainty
288.15	868.459	0.369
290.65	866.318	0.372
293.15	864.177	0.375
295.65	862.035	0.378
298.15	859.89	0.381
300.65	857.742	0.384
303.15	855.593	0.388
305.65	853.441	0.391
308.15	851.282	0.394
310.65	849.122	0.397
313.15	846.958	0.401
315.65	844.792	0.404
318.15	842.622	0.407
320.65	840.452	0.41
323.15	838.289	0.413

System: 1,4-dimethylbenzene; phases: Liquid
Fixed: Pressure, kPa = 101
Property: Speed of sound, m/s (Liquid); method: Sing-around technique in a fixed-path interferometer
Temperature, K	Speed of sound, m/s	uncertainty
288.15	1347.94	2.2
290.65	1336.86	2.19
293.15	1326.13	2.19
295.65	1315.6	2.19
298.15	1305.39	2.19
300.65	1295.34	2.18
303.15	1285.42	2.18
305.65	1275.64	2.18
308.15	1266.13	2.18
310.65	1256.41	2.18
313.15	1246.85	2.17
315.65	1237.6	2.17
318.15	1228.14	2.17
320.65	1220.47	2.17
323.15	1211	2.17

System: 1,4-dimethylbenzene; phases: Liquid
Fixed: Pressure, kPa = 101
Property: Mass density, kg/m3 (Liquid); method: VIBTUB::UFactor:4
Temperature, K	Mass density, kg/m3	uncertainty
288.15	865.354	0.373
290.65	863.184	0.376
293.15	861.015	0.38
295.65	858.846	0.383
298.15	856.675	0.386
300.65	854.501	0.389
303.15	852.326	0.392
305.65	850.148	0.396
308.15	847.969	0.399
310.65	845.784	0.402
313.15	843.599	0.406
315.65	841.41	0.409
318.15	839.22	0.412
320.65	837.031	0.415
323.15	834.849	0.419

System: 1,2-dimethylbenzene + 2-methoxy-2-methylpropane; phases: Liquid
Fixed: Pressure, kPa = 101
Property: Speed of sound, m/s (Liquid); method: Sing-around technique in a fixed-path interferometer
Temperature, K	Mole fraction of 2-methoxy-2-methylpropane	Speed of sound, m/s	uncertainty
288.15	0	1381.29	2.19
288.15	0.052	1374.15	2.18
288.15	0.101	1361.19	2.21
288.15	0.203	1332.69	2.21
288.15	0.303	1302.68	2.21
288.15	0.401	1274.17	2.2
288.15	0.499	1243.35	2.21
288.15	0.604	1212.82	2.2
288.15	0.707	1178.96	2.21
288.15	0.8	1148.42	2.22
288.15	0.9	1119.53	2.18
288.15	0.95	1099.06	2.22
288.15	1	1083.38	2.18
290.65	0	1371.75	2.19
290.65	0.052	1364.93	2.2
290.65	0.101	1350.72	2.21
290.65	0.203	1322.09	2.21
290.65	0.303	1291.96	2.21
290.65	0.401	1263.29	2.21
290.65	0.499	1232.41	2.21
290.65	0.604	1201.46	2.21
290.65	0.707	1167.69	2.21
290.65	0.8	1136.85	2.2
290.65	0.9	1107.93	2.2
290.65	0.95	1087.41	2.21
290.65	1	1071.61	2.18
293.15	0	1362.16	2.19
293.15	0.052	1354.77	2.2
293.15	0.101	1340.3	2.21
293.15	0.203	1311.59	2.21
293.15	0.303	1281.36	2.21
293.15	0.401	1252.55	2.21
293.15	0.499	1221.58	2.2
293.15	0.604	1190.35	2.2
293.15	0.707	1156.58	2.2
293.15	0.8	1125.49	2.2
293.15	0.9	1096.51	2.2
293.15	0.95	1075.91	2.21
293.15	1	1060.05	2.17
295.65	0	1351.83	2.19
295.65	0.052	1344.45	2.2
295.65	0.101	1329.85	2.21
295.65	0.203	1301.1	2.21
295.65	0.303	1270.74	2.21
295.65	0.401	1241.79	2.21
295.65	0.499	1210.72	2.2
295.65	0.604	1179.27	2.2
295.65	0.707	1145.42	2.2
295.65	0.8	1114.14	2.2
295.65	0.9	1085.08	2.2
295.65	0.95	1064.4	2.21
295.65	1	1048.48	2.17
298.15	0	1341.51	2.19
298.15	0.052	1334.16	2.2
298.15	0.101	1319.61	2.21
298.15	0.203	1290.63	2.21
298.15	0.303	1260.14	2.21
298.15	0.401	1231.06	2.2
298.15	0.499	1199.89	2.2
298.15	0.604	1168.25	2.2
298.15	0.707	1134.26	2.2
298.15	0.8	1102.74	2.2
298.15	0.9	1073.66	2.2
298.15	0.95	1052.92	2.2
298.15	1	1036.94	2.17
300.65	0	1331.21	2.19
300.65	0.052	1323.91	2.2
300.65	0.101	1309.38	2.21
300.65	0.203	1280.22	2.21
300.65	0.303	1249.58	2.2
300.65	0.401	1220.34	2.2
300.65	0.499	1189.11	2.2
300.65	0.604	1157.25	2.2
300.65	0.707	1123.16	2.2
300.65	0.8	1091.39	2.2
300.65	0.9	1062.25	2.2
300.65	0.95	1041.46	2.2
300.65	1	1025.42	2.17
303.15	0	1320.96	2.19
303.15	0.052	1313.69	2.2
303.15	0.101	1299.17	2.2
303.15	0.203	1269.81	2.2
303.15	0.303	1239.07	2.2
303.15	0.401	1209.66	2.2
303.15	0.499	1178.38	2.2
303.15	0.604	1146.29	2.2
303.15	0.707	1112.08	2.2
303.15	0.8	1080.15	2.2
303.15	0.9	1050.66	2.2
303.15	0.95	1030.03	2.2
303.15	1	1013.9	2.17
305.65	0	1310.79	2.19
305.65	0.052	1303.57	2.2
305.65	0.101	1289.03	2.2
305.65	0.203	1259.46	2.2
305.65	0.303	1228.62	2.2
305.65	0.401	1199.03	2.2
305.65	0.499	1167.68	2.2
305.65	0.604	1135.34	2.2
305.65	0.707	1100.97	2.2
305.65	0.8	1069.02	2.2
305.65	0.9	1038.7	2.2
305.65	0.95	1018.64	2.2
305.65	1	1002.41	2.17
308.15	0	1300.66	2.19
308.15	0.052	1293.47	2.19
308.15	0.101	1278.93	2.2
308.15	0.203	1249.13	2.2
308.15	0.303	1218.23	2.2
308.15	0.401	1188.48	2.2
308.15	0.499	1157.04	2.2
308.15	0.604	1124.46	2.2
308.15	0.707	1089.86	2.2
308.15	0.8	1057.96	2.19
308.15	0.9	1026.94	2.2
308.15	0.95	1007.28	2.2
308.15	1	990.99	2.17
310.65	0	1290.59	2.18
310.65	0.052	1283.45	2.19
310.65	0.101	1268.91	2.2
310.65	0.203	1238.87	2.2
310.65	0.303	1207.92	2.2
310.65	0.401	1178.02	2.2
310.65	0.499	1146.46	2.2
310.65	0.604	1113.64	2.2
310.65	0.707	1078.77	2.2
310.65	0.8	1046.93	2.19
310.65	0.9	1015.39	2.2
310.65	0.95	996.05	2.2
310.65	1	979.62	2.17
313.15	0	1280.61	2.18
313.15	0.052	1273.41	2.19
313.15	0.101	1258.88	2.2
313.15	0.203	1228.68	2.2
313.15	0.303	1197.57	2.2
313.15	0.401	1167.52	2.2
313.15	0.499	1135.88	2.2
313.15	0.604	1102.79	2.2
313.15	0.707	1067.68	2.2
313.15	0.8	1035.92	2.19
313.15	0.9	1003.78	2.2
313.15	0.95	984.72	2.2
313.15	1	968.16	2.17
315.65	0	1270.55	2.18
315.65	0.052	1263.43	2.19
315.65	0.101	1248.88	2.2
315.65	0.203	1218.48	2.2
315.65	0.303	1187.28	2.2
315.65	0.401	1157.09	2.2
315.65	0.499	1125.34	2.2
315.65	0.604	1092.05	2.2
315.65	0.707	1056.81	2.2
315.65	0.8	1024.94	2.19
315.65	0.9	992.02	2.2
315.65	0.95	973.42	2.19
315.65	1	956.8	2.16
318.15	0	1260.62	2.18
318.15	0.052	1253.52	2.19
318.15	0.101	1238.99	2.2
318.15	0.203	1208.37	2.2
318.15	0.303	1177.09	2.2
318.15	0.401	1146.72	2.2
318.15	0.499	1114.89	2.19
318.15	0.604	1081.25	2.2
318.15	0.707	1045.83	2.2
318.15	0.8	1014.04	2.19
318.15	0.9	980.41	2.2
318.15	0.95	962.22	2.19
318.15	1	945.54	2.16
320.65	0	1250.66	2.18
320.65	0.052	1243.63	2.19
320.65	0.101	1229.14	2.2
320.65	0.203	1198.29	2.2
320.65	0.303	1166.9	2.19
320.65	0.401	1136.37	2.19
320.65	0.499	1104.44	2.19
320.65	0.604	1070.55	2.19
320.65	0.707	1034.78	2.19
320.65	0.8	1003.18	2.19
320.65	0.9	968.31	2.2
320.65	0.95	951.04	2.19
320.65	1	934.24	2.16
323.15	0	1240.87	2.18
323.15	0.052	1233.91	2.21
323.15	0.101	1219.54	2.2
323.15	0.203	1188.34	2.2
323.15	0.303	1156.89	2.19
323.15	0.401	1126.18	2.2
323.15	0.499	1094.11	2.19
323.15	0.604	1059.92	2.2
323.15	0.707	1024.25	2.19
323.15	0.8	992.41	2.19
323.15	0.9	957.28	2.19
323.15	0.95	940.07	2.19
323.15	1	922.97	2.16

System: 1,2-dimethylbenzene + 2-methoxy-2-methylpropane; phases: Liquid
Fixed: Pressure, kPa = 101
Property: Mass density, kg/m3 (Liquid); method: VIBTUB:UFactor:4
Temperature, K	Mole fraction of 2-methoxy-2-methylpropane	Mass density, kg/m3	uncertainty
288.15	0	883.36	0.346
288.15	0.052	876.722	0.378
288.15	0.101	870.811	0.386
288.15	0.203	857.652	0.406
288.15	0.303	844.603	0.424
288.15	0.401	831.766	0.443
288.15	0.499	818.201	0.464
288.15	0.604	803.537	0.486
288.15	0.707	788.841	0.507
288.15	0.8	775.294	0.528
288.15	0.9	760.339	0.55
288.15	0.95	752.593	0.562
288.15	1	744.861	0.552
290.65	0	881.265	0.35
290.65	0.052	874.606	0.38
290.65	0.101	868.675	0.39
290.65	0.203	855.478	0.409
290.65	0.303	842.386	0.428
290.65	0.401	829.505	0.447
290.65	0.499	815.897	0.468
290.65	0.604	801.177	0.489
290.65	0.707	786.421	0.511
290.65	0.8	772.825	0.532
290.65	0.9	757.801	0.554
290.65	0.95	750.025	0.566
290.65	1	742.259	0.556
293.15	0	879.168	0.353
293.15	0.052	872.486	0.384
293.15	0.101	866.535	0.393
293.15	0.203	853.3	0.412
293.15	0.303	840.168	0.431
293.15	0.401	827.242	0.45
293.15	0.499	813.586	0.471
293.15	0.604	798.814	0.493
293.15	0.707	783.998	0.515
293.15	0.8	770.35	0.535
293.15	0.9	755.264	0.558
293.15	0.95	747.451	0.57
293.15	1	739.654	0.56
295.65	0	877.069	0.356
295.65	0.052	870.364	0.387
295.65	0.101	864.394	0.396
295.65	0.203	851.12	0.415
295.65	0.303	837.944	0.434
295.65	0.401	824.973	0.454
295.65	0.499	811.273	0.475
295.65	0.604	796.444	0.496
295.65	0.707	781.567	0.518
295.65	0.8	767.869	0.539
295.65	0.9	752.717	0.562
295.65	0.95	744.871	0.574
295.65	1	737.036	0.564
298.15	0	874.968	0.359
298.15	0.052	868.242	0.39
298.15	0.101	862.253	0.399
298.15	0.203	848.937	0.419
298.15	0.303	835.714	0.438
298.15	0.401	822.702	0.457
298.15	0.499	808.953	0.478
298.15	0.604	794.069	0.5
298.15	0.707	779.131	0.522
298.15	0.8	765.379	0.543
298.15	0.9	750.16	0.566
298.15	0.95	742.284	0.578
298.15	1	734.406	0.568
300.65	0	872.865	0.362
300.65	0.052	866.116	0.393
300.65	0.101	860.108	0.402
300.65	0.203	846.749	0.422
300.65	0.303	833.484	0.441
300.65	0.401	820.426	0.461
300.65	0.499	806.626	0.482
300.65	0.604	791.685	0.503
300.65	0.707	776.688	0.526
300.65	0.8	762.882	0.547
300.65	0.9	747.591	0.569
300.65	0.95	739.686	0.582
300.65	1	731.766	0.572
303.15	0	870.759	0.365
303.15	0.052	863.985	0.396
303.15	0.101	857.959	0.405
303.15	0.203	844.558	0.425
303.15	0.303	831.25	0.444
303.15	0.401	818.144	0.464
303.15	0.499	804.296	0.485
303.15	0.604	789.298	0.507
303.15	0.707	774.237	0.529
303.15	0.8	760.378	0.55
303.15	0.9	745.002	0.573
303.15	0.95	737.076	0.586
303.15	1	729.112	0.576
305.65	0	868.65	0.368
305.65	0.052	861.853	0.399
305.65	0.101	855.807	0.409
305.65	0.203	842.365	0.428
305.65	0.303	829.01	0.448
305.65	0.401	815.857	0.467
305.65	0.499	801.959	0.489
305.65	0.604	786.901	0.511
305.65	0.707	771.779	0.533
305.65	0.8	757.862	0.554
305.65	0.9	742.391	0.577
305.65	0.95	734.452	0.59
305.65	1	726.444	0.58
308.15	0	866.538	0.372
308.15	0.052	859.718	0.402
308.15	0.101	853.654	0.412
308.15	0.203	840.166	0.432
308.15	0.303	826.764	0.451
308.15	0.401	813.564	0.471
308.15	0.499	799.615	0.492
308.15	0.604	784.495	0.514
308.15	0.707	769.312	0.537
308.15	0.8	755.336	0.558
308.15	0.9	739.788	0.581
308.15	0.95	731.817	0.594
308.15	1	723.763	0.584
310.65	0	864.422	0.375
310.65	0.052	857.577	0.406
310.65	0.101	851.495	0.415
310.65	0.203	837.963	0.435
310.65	0.303	824.515	0.454
310.65	0.401	811.267	0.474
310.65	0.499	797.264	0.496
310.65	0.604	782.083	0.518
310.65	0.707	766.837	0.541
310.65	0.8	752.799	0.562
310.65	0.9	737.174	0.585
310.65	0.95	729.169	0.598
310.65	1	721.069	0.588
313.15	0	862.302	0.378
313.15	0.052	855.433	0.409
313.15	0.101	849.333	0.418
313.15	0.203	835.755	0.438
313.15	0.303	822.257	0.458
313.15	0.401	808.961	0.478
313.15	0.499	794.906	0.499
313.15	0.604	779.664	0.522
313.15	0.707	764.349	0.544
313.15	0.8	750.25	0.566
313.15	0.9	734.547	0.589
313.15	0.95	726.508	0.602
313.15	1	718.357	0.592
315.65	0	860.179	0.381
315.65	0.052	853.286	0.412
315.65	0.101	847.168	0.421
315.65	0.203	833.542	0.441
315.65	0.303	819.996	0.461
315.65	0.401	806.651	0.481
315.65	0.499	792.544	0.503
315.65	0.604	777.236	0.525
315.65	0.707	761.858	0.548
315.65	0.8	747.693	0.57
315.65	0.9	731.912	0.593
315.65	0.95	723.834	0.606
315.65	1	715.636	0.596
318.15	0	858.054	0.384
318.15	0.052	851.136	0.415
318.15	0.101	845	0.424
318.15	0.203	831.325	0.445
318.15	0.303	817.731	0.464
318.15	0.401	804.337	0.485
318.15	0.499	790.173	0.506
318.15	0.604	774.802	0.529
318.15	0.707	759.355	0.552
318.15	0.8	745.123	0.574
318.15	0.9	729.271	0.597
318.15	0.95	721.145	0.61
318.15	1	712.897	0.6
320.65	0	855.927	0.387
320.65	0.052	848.981	0.418
320.65	0.101	842.834	0.428
320.65	0.203	829.108	0.448
320.65	0.303	815.461	0.468
320.65	0.401	802.016	0.488
320.65	0.499	787.797	0.51
320.65	0.604	772.358	0.533
320.65	0.707	756.834	0.556
320.65	0.8	742.544	0.578
320.65	0.9	726.621	0.601
320.65	0.95	718.446	0.614
320.65	1	710.141	0.604
323.15	0	853.803	0.39
323.15	0.052	846.833	0.421
323.15	0.101	840.678	0.431
323.15	0.203	826.892	0.451
323.15	0.303	813.194	0.471
323.15	0.401	799.699	0.492
323.15	0.499	785.421	0.514
323.15	0.604	769.917	0.537
323.15	0.707	754.356	0.56
323.15	0.8	739.964	0.582
323.15	0.9	723.991	0.606
323.15	0.95	715.742	0.619
323.15	1	707.381	0.609

System: 1,3-dimethylbenzene + 2-methoxy-2-methylpropane; phases: Liquid
Fixed: Pressure, kPa = 101
Property: Speed of sound, m/s (Liquid); method: Sing-around technique in a fixed-path interferometer
Temperature, K	Mole fraction of 2-methoxy-2-methylpropane	Speed of sound, m/s	uncertainty
288.15	0	1362.66	2.19
288.15	0.047	1350.59	2.21
288.15	0.115	1332.61	2.2
288.15	0.212	1306.84	2.21
288.15	0.304	1282.38	2.2
288.15	0.399	1256.5	2.2
288.15	0.5	1228.34	2.2
288.15	0.601	1200.91	2.2
288.15	0.651	1185.28	2.21
288.15	0.794	1143.4	2.2
288.15	0.898	1113.23	2.2
288.15	0.954	1097.45	2.2
288.15	1	1083.38	2.18
290.65	0	1352.14	2.19
290.65	0.047	1340.08	2.21
290.65	0.115	1322.54	2.21
290.65	0.212	1296.12	2.21
290.65	0.304	1271.47	2.2
290.65	0.399	1245.56	2.2
290.65	0.5	1217.4	2.2
290.65	0.601	1189.67	2.2
290.65	0.651	1173.78	2.2
290.65	0.794	1131.99	2.2
290.65	0.898	1101.55	2.2
290.65	0.954	1085.73	2.2
290.65	1	1071.61	2.18
293.15	0	1341.72	2.19
293.15	0.047	1329.66	2.21
293.15	0.115	1311.98	2.21
293.15	0.212	1285.51	2.2
293.15	0.304	1260.78	2.2
293.15	0.399	1234.74	2.2
293.15	0.5	1206.52	2.2
293.15	0.601	1178.49	2.2
293.15	0.651	1162.57	2.2
293.15	0.794	1120.68	2.2
293.15	0.898	1089.99	2.2
293.15	0.954	1074.13	2.2
293.15	1	1060.05	2.17
295.65	0	1331.31	2.19
295.65	0.047	1319.03	2.2
295.65	0.115	1301.45	2.2
295.65	0.212	1274.92	2.2
295.65	0.304	1250.08	2.2
295.65	0.399	1223.93	2.2
295.65	0.5	1195.6	2.2
295.65	0.601	1167.27	2.2
295.65	0.651	1151.45	2.2
295.65	0.794	1109.39	2.2
295.65	0.898	1078.45	2.2
295.65	0.954	1062.53	2.2
295.65	1	1048.48	2.17
298.15	0	1320.92	2.19
298.15	0.047	1308.83	2.2
298.15	0.115	1290.95	2.2
298.15	0.212	1264.35	2.2
298.15	0.304	1239.43	2.2
298.15	0.399	1213.13	2.2
298.15	0.5	1184.72	2.2
298.15	0.601	1156.04	2.2
298.15	0.651	1140.36	2.2
298.15	0.794	1098.11	2.2
298.15	0.898	1066.92	2.19
298.15	0.954	1050.94	2.19
298.15	1	1036.94	2.17
300.65	0	1310.57	2.19
300.65	0.047	1298.47	2.2
300.65	0.115	1280.51	2.2
300.65	0.212	1253.81	2.2
300.65	0.304	1228.81	2.2
300.65	0.399	1202.35	2.2
300.65	0.5	1173.89	2.2
300.65	0.601	1144.88	2.2
300.65	0.651	1129.31	2.2
300.65	0.794	1086.87	2.19
300.65	0.898	1055.48	2.19
300.65	0.954	1039.38	2.19
300.65	1	1025.42	2.17
303.15	0	1300.27	2.19
303.15	0.047	1288.13	2.2
303.15	0.115	1270.02	2.2
303.15	0.212	1243.31	2.2
303.15	0.304	1218.24	2.2
303.15	0.399	1191.62	2.2
303.15	0.5	1163.1	2.2
303.15	0.601	1133.82	2.2
303.15	0.651	1118.31	2.2
303.15	0.794	1075.74	2.19
303.15	0.898	1044.05	2.19
303.15	0.954	1027.82	2.19
303.15	1	1013.9	2.17
305.65	0	1290	2.19
305.65	0.047	1277.83	2.2
305.65	0.115	1259.71	2.2
305.65	0.212	1232.87	2.2
305.65	0.304	1207.69	2.2
305.65	0.399	1180.94	2.2
305.65	0.5	1152.32	2.2
305.65	0.601	1122.85	2.2
305.65	0.651	1107.34	2.19
305.65	0.794	1064.7	2.19
305.65	0.898	1032.68	2.19
305.65	0.954	1016.3	2.19
305.65	1	1002.41	2.17
308.15	0	1279.79	2.18
308.15	0.047	1267.56	2.2
308.15	0.115	1249.35	2.2
308.15	0.212	1222.45	2.2
308.15	0.304	1197.2	2.2
308.15	0.399	1170.32	2.2
308.15	0.5	1141.59	2.19
308.15	0.601	1111.96	2.19
308.15	0.651	1096.41	2.19
308.15	0.794	1053.29	2.19
308.15	0.898	1021.35	2.19
308.15	0.954	1004.82	2.19
308.15	1	990.99	2.17
310.65	0	1269.59	2.18
310.65	0.047	1257.33	2.2
310.65	0.115	1239.07	2.2
310.65	0.212	1212.13	2.2
310.65	0.304	1186.75	2.19
310.65	0.399	1159.77	2.19
310.65	0.5	1130.89	2.19
310.65	0.601	1101.1	2.19
310.65	0.651	1085.51	2.19
310.65	0.794	1042.27	2.19
310.65	0.898	1010.06	2.19
310.65	0.954	993.4	2.19
310.65	1	979.62	2.17
313.15	0	1259.46	2.18
313.15	0.047	1247.17	2.2
313.15	0.115	1228.82	2.2
313.15	0.212	1201.76	2.2
313.15	0.304	1176.31	2.19
313.15	0.399	1149.27	2.19
313.15	0.5	1120.28	2.19
313.15	0.601	1090.25	2.19
313.15	0.651	1074.65	2.19
313.15	0.794	1031.23	2.19
313.15	0.898	998.84	2.19
313.15	0.954	981.87	2.19
313.15	1	968.16	2.17
315.65	0	1249.33	2.18
315.65	0.047	1237.01	2.2
315.65	0.115	1218.62	2.2
315.65	0.212	1191.45	2.19
315.65	0.304	1165.91	2.19
315.65	0.399	1138.76	2.19
315.65	0.5	1109.65	2.19
315.65	0.601	1079.53	2.19
315.65	0.651	1063.89	2.19
315.65	0.794	1020.22	2.19
315.65	0.898	987.66	2.19
315.65	0.954	970.42	2.19
315.65	1	956.8	2.16
318.15	0	1239.28	2.18
318.15	0.047	1226.94	2.19
318.15	0.115	1208.46	2.19
318.15	0.212	1181.25	2.19
318.15	0.304	1155.6	2.19
318.15	0.399	1128.35	2.19
318.15	0.5	1099.12	2.19
318.15	0.601	1068.8	2.19
318.15	0.651	1053.12	2.19
318.15	0.794	1009.31	2.19
318.15	0.898	976.53	2.19
318.15	0.954	959.09	2.19
318.15	1	945.54	2.16
320.65	0	1229.26	2.18
320.65	0.047	1216.93	2.19
320.65	0.115	1198.35	2.19
320.65	0.212	1171.05	2.19
320.65	0.304	1145.26	2.19
320.65	0.399	1117.95	2.19
320.65	0.5	1088.58	2.19
320.65	0.601	1058.19	2.19
320.65	0.651	1042.42	2.19
320.65	0.794	998.4	2.19
320.65	0.898	965.42	2.19
320.65	0.954	947.81	2.18
320.65	1	934.24	2.16
323.15	0	1219.51	2.17
323.15	0.047	1207.03	2.19
323.15	0.115	1188.37	2.19
323.15	0.212	1161.06	2.19
323.15	0.304	1135.1	2.19
323.15	0.399	1107.66	2.19
323.15	0.5	1078.16	2.19
323.15	0.601	1047.68	2.19
323.15	0.651	1031.86	2.19
323.15	0.794	987.59	2.19
323.15	0.898	954.46	2.18
323.15	0.954	936.68	2.18
323.15	1	922.97	2.16

System: 1,3-dimethylbenzene + 2-methoxy-2-methylpropane; phases: Liquid
Fixed: Pressure, kPa = 101
Property: Mass density, kg/m3 (Liquid); method: VIBTUB:UFactor:4
Temperature, K	Mole fraction of 2-methoxy-2-methylpropane	Mass density, kg/m3	uncertainty
288.15	0	868.459	0.369
288.15	0.047	863.235	0.393
288.15	0.115	855.522	0.404
288.15	0.212	844.315	0.42
288.15	0.304	833.627	0.436
288.15	0.399	822.223	0.453
288.15	0.5	809.928	0.471
288.15	0.601	797.423	0.49
288.15	0.651	791.063	0.5
288.15	0.794	772.47	0.527
288.15	0.898	758.81	0.547
288.15	0.954	751.317	0.559
288.15	1	744.861	0.552
290.65	0	866.318	0.372
290.65	0.047	861.081	0.396
290.65	0.115	853.297	0.408
290.65	0.212	842.102	0.424
290.65	0.304	831.375	0.44
290.65	0.399	819.939	0.457
290.65	0.5	807.6	0.475
290.65	0.601	795.051	0.493
290.65	0.651	788.663	0.504
290.65	0.794	769.999	0.531
290.65	0.898	756.279	0.551
290.65	0.954	748.754	0.563
290.65	1	742.259	0.556
293.15	0	864.177	0.375
293.15	0.047	858.922	0.399
293.15	0.115	851.118	0.411
293.15	0.212	839.887	0.427
293.15	0.304	829.126	0.443
293.15	0.399	817.65	0.46
293.15	0.5	805.27	0.478
293.15	0.601	792.671	0.497
293.15	0.651	786.26	0.508
293.15	0.794	767.519	0.535
293.15	0.898	753.738	0.555
293.15	0.954	746.179	0.567
293.15	1	739.654	0.56
295.65	0	862.035	0.378
295.65	0.047	856.763	0.402
295.65	0.115	848.935	0.414
295.65	0.212	837.67	0.43
295.65	0.304	826.872	0.446
295.65	0.399	815.358	0.464
295.65	0.5	802.93	0.482
295.65	0.601	790.285	0.501
295.65	0.651	783.85	0.511
295.65	0.794	765.033	0.539
295.65	0.898	751.19	0.559
295.65	0.954	743.594	0.571
295.65	1	737.036	0.564
298.15	0	859.89	0.381
298.15	0.047	854.604	0.406
298.15	0.115	846.749	0.417
298.15	0.212	835.447	0.434
298.15	0.304	824.615	0.45
298.15	0.399	813.059	0.467
298.15	0.5	800.588	0.485
298.15	0.601	787.899	0.504
298.15	0.651	781.433	0.515
298.15	0.794	762.537	0.542
298.15	0.898	748.629	0.563
298.15	0.954	740.997	0.575
298.15	1	734.406	0.568
300.65	0	857.742	0.384
300.65	0.047	852.439	0.409
300.65	0.115	844.562	0.42
300.65	0.212	833.221	0.437
300.65	0.304	822.354	0.453
300.65	0.399	810.758	0.47
300.65	0.5	798.24	0.489
300.65	0.601	785.504	0.508
300.65	0.651	779.011	0.518
300.65	0.794	760.033	0.546
300.65	0.898	746.061	0.567
300.65	0.954	738.393	0.579
300.65	1	731.766	0.572
303.15	0	855.593	0.388
303.15	0.047	850.273	0.412
303.15	0.115	842.425	0.424
303.15	0.212	830.994	0.44
303.15	0.304	820.086	0.456
303.15	0.399	808.453	0.474
303.15	0.5	795.888	0.492
303.15	0.601	783.103	0.511
303.15	0.651	776.58	0.522
303.15	0.794	757.521	0.55
303.15	0.898	743.481	0.571
303.15	0.954	735.774	0.583
303.15	1	729.112	0.576
305.65	0	853.441	0.391
305.65	0.047	848.1	0.415
305.65	0.115	840.172	0.427
305.65	0.212	828.758	0.443
305.65	0.304	817.815	0.46
305.65	0.399	806.139	0.477
305.65	0.5	793.525	0.496
305.65	0.601	780.692	0.515
305.65	0.651	774.141	0.526
305.65	0.794	755.009	0.554
305.65	0.898	740.889	0.575
305.65	0.954	733.146	0.587
305.65	1	726.444	0.58
308.15	0	851.282	0.394
308.15	0.047	845.927	0.418
308.15	0.115	837.974	0.43
308.15	0.212	826.519	0.447
308.15	0.304	815.538	0.463
308.15	0.399	803.818	0.481
308.15	0.5	791.157	0.5
308.15	0.601	778.273	0.519
308.15	0.651	771.692	0.53
308.15	0.794	752.457	0.558
308.15	0.898	738.286	0.579
308.15	0.954	730.505	0.591
308.15	1	723.763	0.584
310.65	0	849.122	0.397
310.65	0.047	843.75	0.422
310.65	0.115	835.768	0.433
310.65	0.212	824.276	0.45
310.65	0.304	813.255	0.467
310.65	0.399	801.494	0.484
310.65	0.5	788.781	0.503
310.65	0.601	775.847	0.522
310.65	0.651	769.237	0.533
310.65	0.794	749.912	0.561
310.65	0.898	735.671	0.583
310.65	0.954	727.852	0.595
310.65	1	721.069	0.588
313.15	0	846.958	0.401
313.15	0.047	841.566	0.425
313.15	0.115	833.56	0.437
313.15	0.212	822.027	0.454
313.15	0.304	810.966	0.47
313.15	0.399	799.161	0.488
313.15	0.5	786.398	0.507
313.15	0.601	773.412	0.526
313.15	0.651	766.771	0.537
313.15	0.794	747.356	0.565
313.15	0.898	733.042	0.587
313.15	0.954	725.183	0.599
313.15	1	718.357	0.592
315.65	0	844.792	0.404
315.65	0.047	839.381	0.428
315.65	0.115	831.348	0.44
315.65	0.212	819.775	0.457
315.65	0.304	808.673	0.474
315.65	0.399	796.825	0.491
315.65	0.5	784.01	0.51
315.65	0.601	770.967	0.53
315.65	0.651	764.3	0.541
315.65	0.794	744.791	0.569
315.65	0.898	730.402	0.591
315.65	0.954	722.504	0.603
315.65	1	715.636	0.596
318.15	0	842.622	0.407
318.15	0.047	837.193	0.431
318.15	0.115	829.131	0.443
318.15	0.212	817.518	0.46
318.15	0.304	806.375	0.477
318.15	0.399	794.481	0.495
318.15	0.5	781.614	0.514
318.15	0.601	768.518	0.533
318.15	0.651	761.816	0.545
318.15	0.794	742.213	0.573
318.15	0.898	727.749	0.595
318.15	0.954	719.811	0.608
318.15	1	712.897	0.6
320.65	0	840.452	0.41
320.65	0.047	835	0.435
320.65	0.115	826.912	0.447
320.65	0.212	815.256	0.464
320.65	0.304	804.075	0.48
320.65	0.399	792.132	0.498
320.65	0.5	779.21	0.518
320.65	0.601	766.061	0.537
320.65	0.651	759.325	0.548
320.65	0.794	739.628	0.577
320.65	0.898	725.085	0.599
320.65	0.954	717.105	0.612
320.65	1	710.141	0.604
323.15	0	838.289	0.413
323.15	0.047	832.812	0.438
323.15	0.115	824.696	0.45
323.15	0.212	813.002	0.467
323.15	0.304	801.776	0.484
323.15	0.399	789.785	0.502
323.15	0.5	776.809	0.521
323.15	0.601	763.606	0.541
323.15	0.651	756.839	0.552
323.15	0.794	737.044	0.581
323.15	0.898	722.414	0.603
323.15	0.954	714.398	0.616
323.15	1	707.381	0.609

System: 1,4-dimethylbenzene + 2-methoxy-2-methylpropane; phases: Liquid
Fixed: Pressure, kPa = 101
Property: Speed of sound, m/s (Liquid); method: Sing-around technique in a fixed-path interferometer
Temperature, K	Mole fraction of 2-methoxy-2-methylpropane	Speed of sound, m/s	uncertainty
288.15	0	1347.94	2.2
288.15	0.051	1337.81	2.2
288.15	0.111	1325.02	2.2
288.15	0.199	1302.92	2.21
288.15	0.297	1278.6	2.2
288.15	0.394	1253.01	2.2
288.15	0.5	1223.89	2.2
288.15	0.591	1199.54	2.2
288.15	0.7	1169.78	2.2
288.15	0.799	1140.73	2.2
288.15	0.898	1112.12	2.2
288.15	0.949	1096.36	2.2
288.15	1	1083.38	2.18
290.65	0	1336.86	2.19
290.65	0.051	1327.21	2.2
290.65	0.111	1314.18	2.2
290.65	0.199	1292.19	2.2
290.65	0.297	1267.74	2.2
290.65	0.394	1242.01	2.2
290.65	0.5	1212.84	2.2
290.65	0.591	1188.36	2.2
290.65	0.7	1158.42	2.2
290.65	0.799	1129.23	2.2
290.65	0.898	1100.53	2.2
290.65	0.949	1084.74	2.2
290.65	1	1071.61	2.18
293.15	0	1326.13	2.19
293.15	0.051	1316.85	2.2
293.15	0.111	1303.67	2.2
293.15	0.199	1281.61	2.2
293.15	0.297	1256.98	2.2
293.15	0.394	1231.11	2.2
293.15	0.5	1201.89	2.2
293.15	0.591	1177.3	2.2
293.15	0.7	1147.16	2.2
293.15	0.799	1117.92	2.2
293.15	0.898	1088.96	2.2
293.15	0.949	1073.22	2.19
293.15	1	1060.05	2.17
295.65	0	1315.6	2.19
295.65	0.051	1306.5	2.2
295.65	0.111	1293.14	2.2
295.65	0.199	1271.02	2.2
295.65	0.297	1246.2	2.2
295.65	0.394	1220.23	2.2
295.65	0.5	1190.97	2.2
295.65	0.591	1166.24	2.2
295.65	0.7	1135.9	2.2
295.65	0.799	1106.6	2.2
295.65	0.898	1077.46	2.2
295.65	0.949	1061.71	2.19
295.65	1	1048.48	2.17
298.15	0	1305.39	2.19
298.15	0.051	1296.33	2.2
298.15	0.111	1282.67	2.2
298.15	0.199	1260.46	2.2
298.15	0.297	1235.47	2.2
298.15	0.394	1209.42	2.2
298.15	0.5	1180.08	2.2
298.15	0.591	1155.22	2.2
298.15	0.7	1124.68	2.2
298.15	0.799	1095.27	2.2
298.15	0.898	1066.02	2.19
298.15	0.949	1050.25	2.19
298.15	1	1036.94	2.17
300.65	0	1295.34	2.18
300.65	0.051	1286.11	2.19
300.65	0.111	1272.23	2.2
300.65	0.199	1249.9	2.2
300.65	0.297	1224.8	2.2
300.65	0.394	1198.66	2.2
300.65	0.5	1169.24	2.2
300.65	0.591	1144.19	2.2
300.65	0.7	1113.53	2.2
300.65	0.799	1083.98	2.19
300.65	0.898	1054.61	2.19
300.65	0.949	1038.82	2.19
300.65	1	1025.42	2.17
303.15	0	1285.42	2.18
303.15	0.051	1275.86	2.19
303.15	0.111	1261.84	2.2
303.15	0.199	1239.41	2.2
303.15	0.297	1214.17	2.2
303.15	0.394	1187.92	2.2
303.15	0.5	1158.41	2.19
303.15	0.591	1133.21	2.19
303.15	0.7	1102.4	2.19
303.15	0.799	1072.77	2.19
303.15	0.898	1043.26	2.19
303.15	0.949	1027.42	2.19
303.15	1	1013.9	2.17
305.65	0	1275.64	2.18
305.65	0.051	1265.66	2.19
305.65	0.111	1251.46	2.2
305.65	0.199	1228.94	2.2
305.65	0.297	1203.55	2.2
305.65	0.394	1177.26	2.2
305.65	0.5	1147.62	2.19
305.65	0.591	1122.29	2.19
305.65	0.7	1091.27	2.19
305.65	0.799	1061.59	2.19
305.65	0.898	1031.93	2.19
305.65	0.949	1016.04	2.19
305.65	1	1002.41	2.17
308.15	0	1266.13	2.18
308.15	0.051	1255.6	2.19
308.15	0.111	1241.16	2.2
308.15	0.199	1218.54	2.19
308.15	0.297	1193.01	2.19
308.15	0.394	1166.63	2.19
308.15	0.5	1136.87	2.19
308.15	0.591	1111.43	2.19
308.15	0.7	1080.23	2.19
308.15	0.799	1050.46	2.19
308.15	0.898	1020.65	2.19
308.15	0.949	1004.7	2.19
308.15	1	990.99	2.17
310.65	0	1256.41	2.18
310.65	0.051	1245.59	2.19
310.65	0.111	1230.93	2.19
310.65	0.199	1208.16	2.19
310.65	0.297	1182.58	2.19
310.65	0.394	1156.08	2.19
310.65	0.5	1126.21	2.19
310.65	0.591	1100.62	2.19
310.65	0.7	1069.26	2.19
310.65	0.799	1039.42	2.19
310.65	0.898	1009.42	2.19
310.65	0.949	993.41	2.19
310.65	1	979.62	2.17
313.15	0	1246.85	2.17
313.15	0.051	1235.62	2.19
313.15	0.111	1220.68	2.19
313.15	0.199	1197.81	2.19
313.15	0.297	1172.15	2.19
313.15	0.394	1145.52	2.19
313.15	0.5	1115.54	2.19
313.15	0.591	1089.87	2.19
313.15	0.7	1058.38	2.19
313.15	0.799	1028.34	2.19
313.15	0.898	998.27	2.19
313.15	0.949	982.13	2.19
313.15	1	968.16	2.17
315.65	0	1237.6	2.17
315.65	0.051	1225.62	2.19
315.65	0.111	1210.48	2.19
315.65	0.199	1187.55	2.19
315.65	0.297	1161.76	2.19
315.65	0.394	1135.02	2.19
315.65	0.5	1104.9	2.19
315.65	0.591	1079.13	2.19
315.65	0.7	1047.47	2.19
315.65	0.799	1017.32	2.19
315.65	0.898	987.1	2.19
315.65	0.949	970.91	2.18
315.65	1	956.8	2.16
318.15	0	1228.14	2.17
318.15	0.051	1215.68	2.19
318.15	0.111	1200.39	2.19
318.15	0.199	1177.31	2.19
318.15	0.297	1151.45	2.19
318.15	0.394	1124.6	2.19
318.15	0.5	1094.34	2.19
318.15	0.591	1068.49	2.19
318.15	0.7	1036.74	2.19
318.15	0.799	1006.4	2.19
318.15	0.898	976.02	2.19
318.15	0.949	959.76	2.18
318.15	1	945.54	2.16
320.65	0	1220.47	2.17
320.65	0.051	1205.75	2.19
320.65	0.111	1190.33	2.19
320.65	0.199	1167.14	2.19
320.65	0.297	1141.14	2.19
320.65	0.394	1114.19	2.19
320.65	0.5	1083.78	2.19
320.65	0.591	1057.9	2.19
320.65	0.7	1025.91	2.19
320.65	0.799	995.49	2.19
320.65	0.898	964.93	2.18
320.65	0.949	948.61	2.18
320.65	1	934.24	2.16
323.15	0	1211	2.17
323.15	0.051	1195.99	2.19
323.15	0.111	1180.43	2.19
323.15	0.199	1157.12	2.19
323.15	0.297	1130.95	2.19
323.15	0.394	1103.91	2.19
323.15	0.5	1073.34	2.18
323.15	0.591	1047.44	2.19
323.15	0.7	1015.21	2.19
323.15	0.799	984.7	2.18
323.15	0.898	954	2.19
323.15	0.949	937.58	2.18
323.15	1	922.97	2.16

System: 1,4-dimethylbenzene + 2-methoxy-2-methylpropane; phases: Liquid
Fixed: Pressure, kPa = 101
Property: Mass density, kg/m3 (Liquid); method: VIBTUB:UFactor:4
Temperature, K	Mole fraction of 2-methoxy-2-methylpropane	Mass density, kg/m3	uncertainty
288.15	0	865.354	0.373
288.15	0.051	859.904	0.396
288.15	0.111	853.391	0.406
288.15	0.199	843.55	0.42
288.15	0.297	832.629	0.436
288.15	0.394	821.398	0.454
288.15	0.5	808.782	0.472
288.15	0.591	797.744	0.489
288.15	0.7	784.294	0.509
288.15	0.799	771.481	0.529
288.15	0.898	758.534	0.548
288.15	0.949	751.828	0.558
288.15	1	744.861	0.552
290.65	0	863.184	0.376
290.65	0.051	857.719	0.399
290.65	0.111	851.187	0.409
290.65	0.199	841.317	0.424
290.65	0.297	830.36	0.44
290.65	0.394	819.092	0.457
290.65	0.5	806.435	0.476
290.65	0.591	795.358	0.492
290.65	0.7	781.856	0.513
290.65	0.799	768.993	0.532
290.65	0.898	755.997	0.551
290.65	0.949	749.262	0.562
290.65	1	742.259	0.556
293.15	0	861.015	0.38
293.15	0.051	855.534	0.403
293.15	0.111	848.983	0.413
293.15	0.199	839.08	0.427
293.15	0.297	828.088	0.443
293.15	0.394	816.783	0.461
293.15	0.5	804.082	0.479
293.15	0.591	792.963	0.496
293.15	0.7	779.412	0.517
293.15	0.799	766.5	0.536
293.15	0.898	753.452	0.555
293.15	0.949	746.689	0.566
293.15	1	739.654	0.56
295.65	0	858.846	0.383
295.65	0.051	853.348	0.406
295.65	0.111	846.775	0.416
295.65	0.199	836.841	0.43
295.65	0.297	825.813	0.447
295.65	0.394	814.47	0.464
295.65	0.5	801.723	0.483
295.65	0.591	790.564	0.5
295.65	0.7	776.96	0.52
295.65	0.799	763.998	0.54
295.65	0.898	750.898	0.559
295.65	0.949	744.102	0.57
295.65	1	737.036	0.564
298.15	0	856.675	0.386
298.15	0.051	851.161	0.409
298.15	0.111	844.568	0.419
298.15	0.199	834.598	0.434
298.15	0.297	823.534	0.45
298.15	0.394	812.151	0.467
298.15	0.5	799.359	0.486
298.15	0.591	788.159	0.503
298.15	0.7	774.504	0.524
298.15	0.799	761.487	0.544
298.15	0.898	748.333	0.563
298.15	0.949	741.507	0.574
298.15	1	734.406	0.568
300.65	0	854.501	0.389
300.65	0.051	848.97	0.412
300.65	0.111	842.356	0.422
300.65	0.199	832.351	0.437
300.65	0.297	821.251	0.453
300.65	0.394	809.83	0.471
300.65	0.5	796.99	0.49
300.65	0.591	785.75	0.507
300.65	0.7	772.04	0.528
300.65	0.799	758.97	0.548
300.65	0.898	745.759	0.567
300.65	0.949	738.9	0.578
300.65	1	731.766	0.572
303.15	0	852.326	0.392
303.15	0.051	846.775	0.415
303.15	0.111	840.14	0.426
303.15	0.199	830.102	0.44
303.15	0.297	818.963	0.457
303.15	0.394	807.503	0.474
303.15	0.5	794.615	0.494
303.15	0.591	783.333	0.511
303.15	0.7	769.567	0.531
303.15	0.799	756.446	0.551
303.15	0.898	743.176	0.571
303.15	0.949	736.284	0.582
303.15	1	729.112	0.576
305.65	0	850.148	0.396
305.65	0.051	844.579	0.419
305.65	0.111	837.921	0.429
305.65	0.199	827.849	0.444
305.65	0.297	816.672	0.46
305.65	0.394	805.171	0.478
305.65	0.5	792.236	0.497
305.65	0.591	780.907	0.514
305.65	0.7	767.085	0.535
305.65	0.799	753.909	0.555
305.65	0.898	740.58	0.575
305.65	0.949	733.654	0.586
305.65	1	726.444	0.58
308.15	0	847.969	0.399
308.15	0.051	842.382	0.422
308.15	0.111	835.701	0.432
308.15	0.199	825.592	0.447
308.15	0.297	814.375	0.464
308.15	0.394	802.832	0.481
308.15	0.5	789.848	0.501
308.15	0.591	778.473	0.518
308.15	0.7	764.594	0.539
308.15	0.799	751.361	0.559
308.15	0.898	737.971	0.579
308.15	0.949	731.009	0.59
308.15	1	723.763	0.584
310.65	0	845.784	0.402
310.65	0.051	840.182	0.425
310.65	0.111	833.476	0.436
310.65	0.199	823.333	0.45
310.65	0.297	812.074	0.467
310.65	0.394	800.49	0.485
310.65	0.5	787.456	0.504
310.65	0.591	776.037	0.522
310.65	0.7	762.097	0.543
310.65	0.799	748.806	0.563
310.65	0.898	735.351	0.583
310.65	0.949	728.354	0.594
310.65	1	721.069	0.588
313.15	0	843.599	0.406
313.15	0.051	837.972	0.429
313.15	0.111	831.247	0.439
313.15	0.199	821.068	0.454
313.15	0.297	809.766	0.471
313.15	0.394	798.142	0.488
313.15	0.5	785.055	0.508
313.15	0.591	773.588	0.525
313.15	0.7	759.588	0.546
313.15	0.799	746.238	0.567
313.15	0.898	732.717	0.587
313.15	0.949	725.685	0.598
313.15	1	718.357	0.592
315.65	0	841.41	0.409
315.65	0.051	835.765	0.432
315.65	0.111	829.014	0.442
315.65	0.199	818.798	0.457
315.65	0.297	807.454	0.474
315.65	0.394	795.788	0.492
315.65	0.5	782.649	0.512
315.65	0.591	771.132	0.529
315.65	0.7	757.069	0.55
315.65	0.799	743.66	0.571
315.65	0.898	730.073	0.591
315.65	0.949	723.003	0.602
315.65	1	715.636	0.596
318.15	0	839.22	0.412
318.15	0.051	833.554	0.435
318.15	0.111	826.778	0.446
318.15	0.199	816.524	0.461
318.15	0.297	805.138	0.478
318.15	0.394	793.428	0.495
318.15	0.5	780.236	0.515
318.15	0.591	768.668	0.533
318.15	0.7	754.544	0.554
318.15	0.799	741.073	0.575
318.15	0.898	727.417	0.595
318.15	0.949	720.308	0.606
318.15	1	712.897	0.6
320.65	0	837.031	0.415
320.65	0.051	831.342	0.438
320.65	0.111	824.54	0.449
320.65	0.199	814.248	0.464
320.65	0.297	802.819	0.481
320.65	0.394	791.063	0.499
320.65	0.5	777.817	0.519
320.65	0.591	766.199	0.536
320.65	0.7	752.007	0.558
320.65	0.799	738.474	0.579
320.65	0.898	724.747	0.599
320.65	0.949	717.599	0.61
320.65	1	710.141	0.604
323.15	0	834.849	0.419
323.15	0.051	829.134	0.442
323.15	0.111	822.307	0.452
323.15	0.199	811.976	0.467
323.15	0.297	800.501	0.485
323.15	0.394	788.703	0.503
323.15	0.5	775.403	0.523
323.15	0.591	763.728	0.54
323.15	0.7	749.471	0.562
323.15	0.799	735.877	0.583
323.15	0.898	722.077	0.603
323.15	0.949	714.887	0.615
323.15	1	707.381	0.609

System: 1,2-dimethylbenzene + 2-ethoxy-2-methylpropane; phases: Liquid
Fixed: Pressure, kPa = 101
Property: Speed of sound, m/s (Liquid); method: Sing-around technique in a fixed-path interferometer
Temperature, K	Mole fraction of 2-ethoxy-2-methylpropane	Speed of sound, m/s	uncertainty
288.15	0	1381.29	2.19
288.15	0.055	1371.16	2.19
288.15	0.098	1357.77	2.22
288.15	0.201	1324.81	2.21
288.15	0.307	1290.13	2.22
288.15	0.4	1261.64	2.2
288.15	0.502	1228.92	2.21
288.15	0.601	1199.03	2.2
288.15	0.661	1180.08	2.2
288.15	0.803	1137.36	2.2
288.15	0.895	1110.23	2.19
288.15	0.947	1095.03	2.19
288.15	1	1076.43	2.17
290.65	0	1371.75	2.19
290.65	0.055	1360.79	2.21
290.65	0.098	1347.31	2.22
290.65	0.201	1314.29	2.21
290.65	0.307	1279.39	2.21
290.65	0.4	1251.04	2.21
290.65	0.502	1218.15	2.2
290.65	0.601	1188.17	2.2
290.65	0.661	1169.2	2.2
290.65	0.803	1126.4	2.2
290.65	0.895	1099.43	2.19
290.65	0.947	1084.46	2.19
290.65	1	1065.09	2.17
293.15	0	1362.16	2.19
293.15	0.055	1350.41	2.21
293.15	0.098	1336.84	2.22
293.15	0.201	1303.79	2.21
293.15	0.307	1268.67	2.21
293.15	0.4	1240.39	2.21
293.15	0.502	1207.37	2.2
293.15	0.601	1177.31	2.2
293.15	0.661	1158.28	2.2
293.15	0.803	1115.41	2.2
293.15	0.895	1088.45	2.19
293.15	0.947	1073.53	2.2
293.15	1	1053.72	2.17
295.65	0	1351.83	2.19
295.65	0.055	1339.84	2.21
295.65	0.098	1326.28	2.21
295.65	0.201	1293.24	2.21
295.65	0.307	1257.9	2.21
295.65	0.4	1229.61	2.21
295.65	0.502	1196.48	2.2
295.65	0.601	1166.34	2.2
295.65	0.661	1147.27	2.2
295.65	0.803	1104.3	2.2
295.65	0.895	1077.31	2.19
295.65	0.947	1062.45	2.2
295.65	1	1042.23	2.17
298.15	0	1341.51	2.19
298.15	0.055	1329.33	2.21
298.15	0.098	1315.85	2.21
298.15	0.201	1282.74	2.21
298.15	0.307	1247.27	2.21
298.15	0.4	1218.91	2.2
298.15	0.502	1185.7	2.2
298.15	0.601	1155.47	2.2
298.15	0.661	1136.39	2.2
298.15	0.803	1093.3	2.19
298.15	0.895	1066.28	2.19
298.15	0.947	1051.4	2.2
298.15	1	1031.01	2.17
300.65	0	1331.21	2.19
300.65	0.055	1318.86	2.2
300.65	0.098	1305.49	2.21
300.65	0.201	1272.32	2.21
300.65	0.307	1236.72	2.21
300.65	0.4	1208.31	2.2
300.65	0.502	1174.98	2.2
300.65	0.601	1144.65	2.2
300.65	0.661	1125.5	2.2
300.65	0.803	1082.27	2.19
300.65	0.895	1055.23	2.19
300.65	0.947	1040.26	2.2
300.65	1	1019.76	2.17
303.15	0	1320.96	2.19
303.15	0.055	1308.39	2.2
303.15	0.098	1295.23	2.21
303.15	0.201	1261.96	2.21
303.15	0.307	1226.24	2.2
303.15	0.4	1197.78	2.2
303.15	0.502	1164.28	2.2
303.15	0.601	1133.87	2.2
303.15	0.661	1114.69	2.2
303.15	0.803	1071.3	2.19
303.15	0.895	1044.18	2.19
303.15	0.947	1029.14	2.19
303.15	1	1008.62	2.17
305.65	0	1310.79	2.19
305.65	0.055	1297.96	2.2
305.65	0.098	1285.01	2.21
305.65	0.201	1251.61	2.21
305.65	0.307	1215.78	2.2
305.65	0.4	1187.26	2.2
305.65	0.502	1153.59	2.2
305.65	0.601	1123.13	2.2
305.65	0.661	1103.87	2.19
305.65	0.803	1060.33	2.19
305.65	0.895	1033.15	2.19
305.65	0.947	1018.05	2.19
305.65	1	997.52	2.17
308.15	0	1300.66	2.19
308.15	0.055	1287.57	2.2
308.15	0.098	1274.84	2.21
308.15	0.201	1241.37	2.21
308.15	0.307	1205.36	2.2
308.15	0.4	1176.77	2.2
308.15	0.502	1143.02	2.2
308.15	0.601	1112.44	2.19
308.15	0.661	1093.11	2.19
308.15	0.803	1049.44	2.19
308.15	0.895	1022.15	2.19
308.15	0.947	1007.02	2.19
308.15	1	986.39	2.16
310.65	0	1290.59	2.18
310.65	0.055	1277.22	2.2
310.65	0.098	1264.76	2.2
310.65	0.201	1231.12	2.2
310.65	0.307	1194.98	2.2
310.65	0.4	1166.31	2.2
310.65	0.502	1132.44	2.2
310.65	0.601	1101.77	2.19
310.65	0.661	1082.37	2.19
310.65	0.803	1038.57	2.19
310.65	0.895	1011.19	2.19
310.65	0.947	996	2.19
310.65	1	975.42	2.16
313.15	0	1280.61	2.18
313.15	0.055	1267.08	2.2
313.15	0.098	1254.66	2.2
313.15	0.201	1220.92	2.2
313.15	0.307	1184.63	2.2
313.15	0.4	1155.9	2.2
313.15	0.502	1121.89	2.2
313.15	0.601	1091.13	2.19
313.15	0.661	1071.68	2.19
313.15	0.803	1027.74	2.19
313.15	0.895	1000.29	2.18
313.15	0.947	985.03	2.19
313.15	1	964.53	2.16
315.65	0	1270.55	2.18
315.65	0.055	1256.93	2.2
315.65	0.098	1244.58	2.2
315.65	0.201	1210.74	2.2
315.65	0.307	1174.34	2.2
315.65	0.4	1145.51	2.2
315.65	0.502	1111.37	2.19
315.65	0.601	1080.52	2.19
315.65	0.661	1061.01	2.19
315.65	0.803	1016.96	2.19
315.65	0.895	989.44	2.18
315.65	0.947	974.07	2.19
315.65	1	953.54	2.16
318.15	0	1260.62	2.18
318.15	0.055	1246.82	2.2
318.15	0.098	1234.54	2.2
318.15	0.201	1200.6	2.2
318.15	0.307	1164.07	2.2
318.15	0.4	1135.14	2.2
318.15	0.502	1100.89	2.19
318.15	0.601	1069.96	2.19
318.15	0.661	1050.4	2.19
318.15	0.803	1006.2	2.19
318.15	0.895	978.59	2.18
318.15	0.947	963.16	2.19
318.15	1	942.67	2.16
320.65	0	1250.66	2.18
320.65	0.055	1236.74	2.19
320.65	0.098	1224.51	2.2
320.65	0.201	1190.47	2.2
320.65	0.307	1153.79	2.2
320.65	0.4	1124.79	2.19
320.65	0.502	1090.42	2.19
320.65	0.601	1059.42	2.19
320.65	0.661	1039.8	2.19
320.65	0.803	995.53	2.18
320.65	0.895	967.79	2.18
320.65	0.947	952.29	2.19
320.65	1	931.73	2.16
323.15	0	1240.87	2.18
323.15	0.055	1226.72	2.2
323.15	0.098	1214.51	2.21
323.15	0.201	1180.37	2.2
323.15	0.307	1143.63	2.19
323.15	0.4	1114.51	2.2
323.15	0.502	1079.99	2.19
323.15	0.601	1048.95	2.19
323.15	0.661	1029.24	2.18
323.15	0.803	984.84	2.18
323.15	0.895	957.05	2.18
323.15	0.947	941.53	2.2
323.15	1	920.73	2.16

System: 1,2-dimethylbenzene + 2-ethoxy-2-methylpropane; phases: Liquid
Fixed: Pressure, kPa = 101
Property: Mass density, kg/m3 (Liquid); method: VIBTUB:UFactor:4
Temperature, K	Mole fraction of 2-ethoxy-2-methylpropane	Mass density, kg/m3	uncertainty
288.15	0	883.36	0.346
288.15	0.055	875.654	0.383
288.15	0.098	870.017	0.391
288.15	0.201	855.684	0.412
288.15	0.307	840.866	0.433
288.15	0.4	827.772	0.451
288.15	0.502	813.516	0.471
288.15	0.601	800.311	0.488
288.15	0.661	791.943	0.501
288.15	0.803	772.557	0.529
288.15	0.895	759.896	0.547
288.15	0.947	752.872	0.558
288.15	1	744.955	0.552
290.65	0	881.265	0.35
290.65	0.055	873.542	0.386
290.65	0.098	867.884	0.394
290.65	0.201	853.503	0.415
290.65	0.307	838.637	0.436
290.65	0.4	825.503	0.454
290.65	0.502	811.198	0.474
290.65	0.601	797.952	0.492
290.65	0.661	789.556	0.505
290.65	0.803	770.105	0.532
290.65	0.895	757.404	0.551
290.65	0.947	750.354	0.562
290.65	1	742.482	0.556
293.15	0	879.168	0.353
293.15	0.055	871.419	0.389
293.15	0.098	865.74	0.397
293.15	0.201	851.313	0.418
293.15	0.307	836.397	0.439
293.15	0.4	823.223	0.458
293.15	0.502	808.871	0.477
293.15	0.601	795.578	0.496
293.15	0.661	787.156	0.508
293.15	0.803	767.641	0.536
293.15	0.895	754.895	0.555
293.15	0.947	747.821	0.566
293.15	1	739.947	0.559
295.65	0	877.069	0.356
295.65	0.055	869.295	0.392
295.65	0.098	863.594	0.401
295.65	0.201	849.119	0.421
295.65	0.307	834.156	0.443
295.65	0.4	820.937	0.461
295.65	0.502	806.537	0.481
295.65	0.601	793.199	0.499
295.65	0.661	784.75	0.512
295.65	0.803	765.167	0.54
295.65	0.895	752.377	0.558
295.65	0.947	745.278	0.57
295.65	1	737.374	0.563
298.15	0	874.968	0.359
298.15	0.055	867.167	0.395
298.15	0.098	861.446	0.404
298.15	0.201	846.922	0.425
298.15	0.307	831.91	0.446
298.15	0.4	818.651	0.465
298.15	0.502	804.2	0.484
298.15	0.601	790.817	0.503
298.15	0.661	782.341	0.515
298.15	0.803	762.689	0.544
298.15	0.895	749.853	0.562
298.15	0.947	742.726	0.574
298.15	1	734.806	0.567
300.65	0	872.865	0.362
300.65	0.055	865.039	0.399
300.65	0.098	859.296	0.407
300.65	0.201	844.725	0.428
300.65	0.307	829.661	0.449
300.65	0.4	816.36	0.468
300.65	0.502	801.859	0.488
300.65	0.601	788.431	0.506
300.65	0.661	779.923	0.519
300.65	0.803	760.203	0.547
300.65	0.895	747.321	0.566
300.65	0.947	740.169	0.577
300.65	1	732.225	0.571
303.15	0	870.759	0.365
303.15	0.055	862.904	0.402
303.15	0.098	857.143	0.41
303.15	0.201	842.523	0.431
303.15	0.307	827.409	0.453
303.15	0.4	814.064	0.471
303.15	0.502	799.512	0.491
303.15	0.601	786.037	0.51
303.15	0.661	777.502	0.523
303.15	0.803	757.711	0.551
303.15	0.895	744.78	0.57
303.15	0.947	737.602	0.581
303.15	1	729.647	0.575
305.65	0	868.65	0.368
305.65	0.055	860.769	0.405
305.65	0.098	854.986	0.413
305.65	0.201	840.317	0.434
305.65	0.307	825.151	0.456
305.65	0.4	811.766	0.475
305.65	0.502	797.158	0.495
305.65	0.601	783.634	0.513
305.65	0.661	775.073	0.526
305.65	0.803	755.208	0.555
305.65	0.895	742.232	0.574
305.65	0.947	735.025	0.585
305.65	1	727.038	0.579
308.15	0	866.538	0.372
308.15	0.055	858.631	0.408
308.15	0.098	852.826	0.416
308.15	0.201	838.108	0.438
308.15	0.307	822.889	0.459
308.15	0.4	809.458	0.478
308.15	0.502	794.798	0.498
308.15	0.601	781.229	0.517
308.15	0.661	772.636	0.53
308.15	0.803	752.697	0.559
308.15	0.895	739.673	0.577
308.15	0.947	732.438	0.589
308.15	1	724.443	0.583
310.65	0	864.422	0.375
310.65	0.055	856.488	0.411
310.65	0.098	850.664	0.42
310.65	0.201	835.894	0.441
310.65	0.307	820.623	0.463
310.65	0.4	807.147	0.482
310.65	0.502	792.433	0.502
310.65	0.601	778.816	0.521
310.65	0.661	770.192	0.534
310.65	0.803	750.176	0.562
310.65	0.895	737.1	0.581
310.65	0.947	729.838	0.593
310.65	1	721.826	0.587
313.15	0	862.302	0.378
313.15	0.055	854.337	0.414
313.15	0.098	848.496	0.423
313.15	0.201	833.676	0.444
313.15	0.307	818.351	0.466
313.15	0.4	804.83	0.485
313.15	0.502	790.061	0.505
313.15	0.601	776.395	0.524
313.15	0.661	767.738	0.537
313.15	0.803	747.65	0.566
313.15	0.895	734.522	0.585
313.15	0.947	727.227	0.597
313.15	1	719.179	0.591
315.65	0	860.179	0.381
315.65	0.055	852.189	0.418
315.65	0.098	846.323	0.426
315.65	0.201	831.454	0.448
315.65	0.307	816.076	0.469
315.65	0.4	802.508	0.489
315.65	0.502	787.684	0.509
315.65	0.601	773.969	0.528
315.65	0.661	765.278	0.541
315.65	0.803	745.112	0.57
315.65	0.895	731.932	0.589
315.65	0.947	724.606	0.601
315.65	1	716.527	0.595
318.15	0	858.054	0.384
318.15	0.055	850.034	0.421
318.15	0.098	844.148	0.429
318.15	0.201	829.229	0.451
318.15	0.307	813.795	0.473
318.15	0.4	800.179	0.492
318.15	0.502	785.298	0.512
318.15	0.601	771.536	0.532
318.15	0.661	762.809	0.545
318.15	0.803	742.564	0.574
318.15	0.895	729.329	0.593
318.15	0.947	721.974	0.605
318.15	1	713.96	0.599
320.65	0	855.927	0.387
320.65	0.055	847.874	0.424
320.65	0.098	841.964	0.433
320.65	0.201	826.995	0.454
320.65	0.307	811.507	0.476
320.65	0.4	797.84	0.496
320.65	0.502	782.908	0.516
320.65	0.601	769.096	0.535
320.65	0.661	760.332	0.549
320.65	0.803	740.007	0.578
320.65	0.895	726.717	0.597
320.65	0.947	719.329	0.609
320.65	1	711.25	0.603
323.15	0	853.803	0.39
323.15	0.055	845.711	0.427
323.15	0.098	839.779	0.436
323.15	0.201	824.757	0.458
323.15	0.307	809.216	0.48
323.15	0.4	795.504	0.499
323.15	0.502	780.509	0.519
323.15	0.601	766.647	0.539
323.15	0.661	757.845	0.552
323.15	0.803	737.438	0.582
323.15	0.895	724.092	0.601
323.15	0.947	716.673	0.613
323.15	1	708.642	0.606

System: 1,3-dimethylbenzene + 2-ethoxy-2-methylpropane; phases: Liquid
Fixed: Pressure, kPa = 101
Property: Speed of sound, m/s (Liquid); method: Sing-around technique in a fixed-path interferometer
Temperature, K	Mole fraction of 2-ethoxy-2-methylpropane	Speed of sound, m/s	uncertainty
288.15	0	1362.66	2.19
288.15	0.05	1345.64	2.23
288.15	0.099	1332.17	2.21
288.15	0.2	1303.22	2.21
288.15	0.3	1274.6	2.21
288.15	0.4	1245.45	2.2
288.15	0.497	1217.22	2.2
288.15	0.598	1188.63	2.2
288.15	0.698	1161.65	2.19
288.15	0.8	1133.58	2.19
288.15	0.898	1106.81	2.19
288.15	0.95	1092.75	2.19
288.15	1	1076.43	2.17
290.65	0	1352.14	2.19
290.65	0.05	1334.69	2.22
290.65	0.099	1321.53	2.21
290.65	0.2	1292.64	2.21
290.65	0.3	1263.78	2.21
290.65	0.4	1234.8	2.2
290.65	0.497	1206.39	2.2
290.65	0.598	1177.8	2.2
290.65	0.698	1150.83	2.19
290.65	0.8	1122.54	2.19
290.65	0.898	1096.05	2.19
290.65	0.95	1081.87	2.19
290.65	1	1065.09	2.17
293.15	0	1341.72	2.19
293.15	0.05	1324.08	2.21
293.15	0.099	1310.94	2.21
293.15	0.2	1282.02	2.21
293.15	0.3	1253.08	2.2
293.15	0.4	1224.12	2.2
293.15	0.497	1195.58	2.2
293.15	0.598	1166.95	2.2
293.15	0.698	1139.95	2.19
293.15	0.8	1111.51	2.19
293.15	0.898	1085.15	2.19
293.15	0.95	1070.84	2.19
293.15	1	1053.72	2.17
295.65	0	1331.31	2.19
295.65	0.05	1313.41	2.21
295.65	0.099	1300.27	2.21
295.65	0.2	1271.31	2.21
295.65	0.3	1242.31	2.2
295.65	0.4	1213.32	2.2
295.65	0.497	1184.67	2.2
295.65	0.598	1155.96	2.2
295.65	0.698	1129.07	2.19
295.65	0.8	1100.48	2.19
295.65	0.898	1074.07	2.19
295.65	0.95	1059.8	2.19
295.65	1	1042.23	2.17
298.15	0	1320.92	2.19
298.15	0.05	1302.89	2.21
298.15	0.099	1289.77	2.21
298.15	0.2	1260.76	2.2
298.15	0.3	1231.61	2.2
298.15	0.4	1202.59	2.2
298.15	0.497	1173.85	2.2
298.15	0.598	1145.08	2.19
298.15	0.698	1118.22	2.19
298.15	0.8	1089.47	2.19
298.15	0.898	1063.02	2.19
298.15	0.95	1048.74	2.19
298.15	1	1031.01	2.17
300.65	0	1310.57	2.19
300.65	0.05	1292.46	2.21
300.65	0.099	1279.33	2.2
300.65	0.2	1250.24	2.2
300.65	0.3	1220.96	2.2
300.65	0.4	1191.85	2.2
300.65	0.497	1163.07	2.2
300.65	0.598	1134.15	2.19
300.65	0.698	1107.27	2.19
300.65	0.8	1078.44	2.19
300.65	0.898	1051.91	2.19
300.65	0.95	1037.58	2.19
300.65	1	1019.76	2.17
303.15	0	1300.27	2.19
303.15	0.05	1282.08	2.21
303.15	0.099	1268.94	2.2
303.15	0.2	1239.77	2.2
303.15	0.3	1210.35	2.2
303.15	0.4	1181.15	2.2
303.15	0.497	1152.33	2.2
303.15	0.598	1123.27	2.19
303.15	0.698	1096.34	2.19
303.15	0.8	1067.45	2.19
303.15	0.898	1040.84	2.19
303.15	0.95	1026.45	2.19
303.15	1	1008.62	2.17
305.65	0	1290	2.19
305.65	0.05	1271.69	2.21
305.65	0.099	1258.6	2.2
305.65	0.2	1229.35	2.2
305.65	0.3	1199.77	2.2
305.65	0.4	1170.47	2.2
305.65	0.497	1141.62	2.19
305.65	0.598	1112.47	2.19
305.65	0.698	1085.39	2.19
305.65	0.8	1056.49	2.19
305.65	0.898	1029.78	2.19
305.65	0.95	1015.33	2.19
305.65	1	997.52	2.17
308.15	0	1279.79	2.18
308.15	0.05	1261.43	2.21
308.15	0.099	1248.28	2.2
308.15	0.2	1218.95	2.2
308.15	0.3	1189.26	2.2
308.15	0.4	1159.86	2.2
308.15	0.497	1130.96	2.19
308.15	0.598	1101.74	2.19
308.15	0.698	1074.51	2.19
308.15	0.8	1045.57	2.19
308.15	0.898	1018.75	2.18
308.15	0.95	1004.29	2.19
308.15	1	986.39	2.16
310.65	0	1269.59	2.18
310.65	0.05	1251.19	2.2
310.65	0.099	1238	2.2
310.65	0.2	1208.6	2.2
310.65	0.3	1178.77	2.2
310.65	0.4	1149.31	2.19
310.65	0.497	1120.34	2.19
310.65	0.598	1091.02	2.19
310.65	0.698	1063.71	2.19
310.65	0.8	1034.72	2.18
310.65	0.898	1007.78	2.18
310.65	0.95	993.27	2.19
310.65	1	975.42	2.16
313.15	0	1259.46	2.18
313.15	0.05	1241.02	2.2
313.15	0.099	1227.77	2.2
313.15	0.2	1198.3	2.2
313.15	0.3	1168.34	2.2
313.15	0.4	1138.89	2.19
313.15	0.497	1109.77	2.19
313.15	0.598	1080.36	2.19
313.15	0.698	1052.99	2.19
313.15	0.8	1024.01	2.18
313.15	0.898	996.88	2.18
313.15	0.95	982.39	2.19
313.15	1	964.53	2.16
315.65	0	1249.33	2.18
315.65	0.05	1230.86	2.2
315.65	0.099	1217.58	2.2
315.65	0.2	1188.05	2.2
315.65	0.3	1157.94	2.19
315.65	0.4	1128.47	2.19
315.65	0.497	1099.24	2.19
315.65	0.598	1069.74	2.19
315.65	0.698	1042.3	2.18
315.65	0.8	1013.18	2.18
315.65	0.898	985.99	2.18
315.65	0.95	971.39	2.19
315.65	1	953.54	2.16
318.15	0	1239.28	2.18
318.15	0.05	1220.73	2.2
318.15	0.099	1207.37	2.2
318.15	0.2	1177.82	2.19
318.15	0.3	1147.58	2.19
318.15	0.4	1118.04	2.19
318.15	0.497	1088.73	2.19
318.15	0.598	1059.17	2.19
318.15	0.698	1031.75	2.18
318.15	0.8	1002.4	2.18
318.15	0.898	975.1	2.18
318.15	0.95	960.42	2.18
318.15	1	942.67	2.16
320.65	0	1229.26	2.18
320.65	0.05	1210.6	2.2
320.65	0.099	1197.3	2.19
320.65	0.2	1167.58	2.19
320.65	0.3	1137.27	2.19
320.65	0.4	1107.63	2.19
320.65	0.497	1078.26	2.19
320.65	0.598	1048.63	2.18
320.65	0.698	1021.08	2.18
320.65	0.8	991.66	2.18
320.65	0.898	964.24	2.18
320.65	0.95	949.5	2.18
320.65	1	931.73	2.16
323.15	0	1219.51	2.17
323.15	0.05	1200.58	2.19
323.15	0.099	1187.19	2.2
323.15	0.2	1157.41	2.2
323.15	0.3	1126.95	2.19
323.15	0.4	1097.29	2.19
323.15	0.497	1067.8	2.18
323.15	0.598	1038.18	2.18
323.15	0.698	1010.44	2.18
323.15	0.8	980.96	2.18
323.15	0.898	953.5	2.18
323.15	0.95	938.66	2.19
323.15	1	920.73	2.16

System: 1,3-dimethylbenzene + 2-ethoxy-2-methylpropane; phases: Liquid
Fixed: Pressure, kPa = 101
Property: Mass density, kg/m3 (Liquid); method: VIBTUB:UFactor:4
Temperature, K	Mole fraction of 2-ethoxy-2-methylpropane	Mass density, kg/m3	uncertainty
288.15	0	868.459	0.369
288.15	0.05	862.187	0.398
288.15	0.099	856.037	0.406
288.15	0.2	843.698	0.423
288.15	0.3	831.159	0.442
288.15	0.4	818.865	0.459
288.15	0.497	806.713	0.476
288.15	0.598	794.326	0.494
288.15	0.698	782.295	0.511
288.15	0.8	770.134	0.528
288.15	0.898	757.936	0.547
288.15	0.95	751.668	0.556
288.15	1	744.955	0.552
290.65	0	866.318	0.372
290.65	0.05	860.034	0.401
290.65	0.099	853.866	0.409
290.65	0.2	841.488	0.427
290.65	0.3	828.907	0.445
290.65	0.4	816.576	0.462
290.65	0.497	804.386	0.48
290.65	0.598	791.955	0.497
290.65	0.698	779.883	0.514
290.65	0.8	767.68	0.532
290.65	0.898	755.44	0.55
290.65	0.95	749.148	0.56
290.65	1	742.482	0.556
293.15	0	864.177	0.375
293.15	0.05	857.873	0.404
293.15	0.099	851.684	0.412
293.15	0.2	839.267	0.43
293.15	0.3	826.644	0.448
293.15	0.4	814.272	0.466
293.15	0.497	802.042	0.483
293.15	0.598	789.571	0.501
293.15	0.698	777.456	0.518
293.15	0.8	765.209	0.536
293.15	0.898	752.927	0.554
293.15	0.95	746.612	0.564
293.15	1	739.947	0.559
295.65	0	862.035	0.378
295.65	0.05	855.708	0.408
295.65	0.099	849.502	0.416
295.65	0.2	837.044	0.433
295.65	0.3	824.379	0.452
295.65	0.4	811.966	0.469
295.65	0.497	799.693	0.487
295.65	0.598	787.18	0.504
295.65	0.698	775.026	0.521
295.65	0.8	762.735	0.54
295.65	0.898	750.406	0.558
295.65	0.95	744.068	0.568
295.65	1	737.374	0.563
298.15	0	859.89	0.381
298.15	0.05	853.541	0.411
298.15	0.099	847.315	0.419
298.15	0.2	834.815	0.437
298.15	0.3	822.108	0.455
298.15	0.4	809.656	0.473
298.15	0.497	797.343	0.49
298.15	0.598	784.785	0.508
298.15	0.698	772.587	0.525
298.15	0.8	760.251	0.543
298.15	0.898	747.878	0.562
298.15	0.95	741.515	0.572
298.15	1	734.806	0.567
300.65	0	857.742	0.384
300.65	0.05	851.372	0.414
300.65	0.099	845.128	0.422
300.65	0.2	832.584	0.44
300.65	0.3	819.837	0.458
300.65	0.4	807.341	0.476
300.65	0.497	794.987	0.494
300.65	0.598	782.385	0.511
300.65	0.698	770.145	0.529
300.65	0.8	757.762	0.547
300.65	0.898	745.343	0.566
300.65	0.95	738.954	0.576
300.65	1	732.225	0.571
303.15	0	855.593	0.388
303.15	0.05	849.201	0.417
303.15	0.099	842.934	0.425
303.15	0.2	830.351	0.443
303.15	0.3	817.559	0.462
303.15	0.4	805.022	0.48
303.15	0.497	792.628	0.497
303.15	0.598	779.979	0.515
303.15	0.698	767.695	0.532
303.15	0.8	755.266	0.551
303.15	0.898	742.8	0.569
303.15	0.95	736.382	0.579
303.15	1	729.647	0.575
305.65	0	853.441	0.391
305.65	0.05	847.026	0.42
305.65	0.099	840.74	0.429
305.65	0.2	828.116	0.447
305.65	0.3	815.278	0.465
305.65	0.4	802.699	0.483
305.65	0.497	790.26	0.501
305.65	0.598	777.566	0.519
305.65	0.698	765.236	0.536
305.65	0.8	752.76	0.555
305.65	0.898	740.246	0.573
305.65	0.95	733.801	0.583
305.65	1	727.038	0.579
308.15	0	851.282	0.394
308.15	0.05	844.847	0.424
308.15	0.099	838.542	0.432
308.15	0.2	825.874	0.45
308.15	0.3	812.993	0.469
308.15	0.4	800.369	0.487
308.15	0.497	787.887	0.504
308.15	0.598	775.147	0.522
308.15	0.698	762.77	0.54
308.15	0.8	750.245	0.558
308.15	0.898	737.68	0.577
308.15	0.95	731.212	0.587
308.15	1	724.443	0.583
310.65	0	849.122	0.397
310.65	0.05	842.667	0.427
310.65	0.099	836.338	0.435
310.65	0.2	823.629	0.453
310.65	0.3	810.701	0.472
310.65	0.4	798.033	0.49
310.65	0.497	785.51	0.508
310.65	0.598	772.72	0.526
310.65	0.698	760.296	0.544
310.65	0.8	747.726	0.562
310.65	0.898	735.108	0.581
310.65	0.95	728.609	0.591
310.65	1	721.826	0.587
313.15	0	846.958	0.401
313.15	0.05	840.482	0.43
313.15	0.099	834.132	0.438
313.15	0.2	821.379	0.457
313.15	0.3	808.405	0.475
313.15	0.4	795.695	0.494
313.15	0.497	783.123	0.512
313.15	0.598	770.288	0.53
313.15	0.698	757.817	0.547
313.15	0.8	745.2	0.566
313.15	0.898	732.523	0.585
313.15	0.95	726.007	0.595
313.15	1	719.179	0.591
315.65	0	844.792	0.404
315.65	0.05	838.29	0.433
315.65	0.099	831.922	0.442
315.65	0.2	819.125	0.46
315.65	0.3	806.105	0.479
315.65	0.4	793.351	0.497
315.65	0.497	780.733	0.515
315.65	0.598	767.848	0.533
315.65	0.698	755.328	0.551
315.65	0.8	742.656	0.57
315.65	0.898	729.931	0.589
315.65	0.95	723.382	0.599
315.65	1	716.527	0.595
318.15	0	842.622	0.407
318.15	0.05	836.094	0.437
318.15	0.099	829.704	0.445
318.15	0.2	816.865	0.463
318.15	0.3	803.8	0.482
318.15	0.4	790.999	0.501
318.15	0.497	778.333	0.519
318.15	0.598	765.399	0.537
318.15	0.698	752.842	0.555
318.15	0.8	740.101	0.574
318.15	0.898	727.323	0.593
318.15	0.95	720.743	0.603
318.15	1	713.96	0.599
320.65	0	840.452	0.41
320.65	0.05	833.892	0.44
320.65	0.099	827.484	0.448
320.65	0.2	814.602	0.467
320.65	0.3	801.489	0.486
320.65	0.4	788.639	0.504
320.65	0.497	775.926	0.522
320.65	0.598	762.944	0.541
320.65	0.698	750.335	0.559
320.65	0.8	737.539	0.578
320.65	0.898	724.705	0.597
320.65	0.95	718.093	0.607
320.65	1	711.25	0.603
323.15	0	838.289	0.413
323.15	0.05	831.689	0.443
323.15	0.099	825.258	0.451
323.15	0.2	812.331	0.47
323.15	0.3	799.17	0.489
323.15	0.4	786.273	0.508
323.15	0.497	773.51	0.526
323.15	0.598	760.487	0.544
323.15	0.698	747.817	0.562
323.15	0.8	734.964	0.582
323.15	0.898	722.075	0.601
323.15	0.95	715.433	0.611
323.15	1	708.642	0.606

System: 1,4-dimethylbenzene + 2-ethoxy-2-methylpropane; phases: Liquid
Fixed: Pressure, kPa = 101
Property: Speed of sound, m/s (Liquid); method: Sing-around technique in a fixed-path interferometer
Temperature, K	Mole fraction of 2-ethoxy-2-methylpropane	Speed of sound, m/s	uncertainty
288.15	0	1347.94	2.2
288.15	0.062	1332.53	2.2
288.15	0.123	1315.26	2.21
288.15	0.238	1283.58	2.21
288.15	0.35	1252.56	2.21
288.15	0.455	1223.7	2.2
288.15	0.557	1195.81	2.2
288.15	0.654	1169.25	2.2
288.15	0.746	1144.41	2.2
288.15	0.834	1120.82	2.2
288.15	0.902	1102.51	2.19
288.15	0.959	1087.24	2.19
288.15	1	1076.43	2.17
290.65	0	1336.86	2.19
290.65	0.062	1321.77	2.21
290.65	0.123	1304.43	2.21
290.65	0.238	1272.66	2.21
290.65	0.35	1241.5	2.2
290.65	0.455	1212.62	2.2
290.65	0.557	1184.56	2.2
290.65	0.654	1158.03	2.2
290.65	0.746	1133.1	2.2
290.65	0.834	1109.39	2.19
290.65	0.902	1091.05	2.19
290.65	0.959	1075.99	2.19
290.65	1	1065.09	2.17
293.15	0	1326.13	2.19
293.15	0.062	1310.99	2.21
293.15	0.123	1293.65	2.21
293.15	0.238	1261.73	2.21
293.15	0.35	1230.57	2.2
293.15	0.455	1201.5	2.2
293.15	0.557	1173.44	2.2
293.15	0.654	1146.8	2.2
293.15	0.746	1121.74	2.19
293.15	0.834	1098.07	2.19
293.15	0.902	1079.64	2.19
293.15	0.959	1064.54	2.19
293.15	1	1053.72	2.17
295.65	0	1315.6	2.19
295.65	0.062	1300.29	2.2
295.65	0.123	1282.94	2.21
295.65	0.238	1250.87	2.2
295.65	0.35	1219.61	2.2
295.65	0.455	1190.47	2.2
295.65	0.557	1162.25	2.2
295.65	0.654	1135.53	2.2
295.65	0.746	1110.45	2.19
295.65	0.834	1086.69	2.19
295.65	0.902	1068.23	2.19
295.65	0.959	1053.11	2.19
295.65	1	1042.23	2.17
298.15	0	1305.39	2.19
298.15	0.062	1289.8	2.2
298.15	0.123	1272.46	2.2
298.15	0.238	1240.22	2.2
298.15	0.35	1208.9	2.2
298.15	0.455	1179.6	2.2
298.15	0.557	1151.37	2.19
298.15	0.654	1124.54	2.19
298.15	0.746	1099.39	2.19
298.15	0.834	1075.53	2.19
298.15	0.902	1057.01	2.19
298.15	0.959	1041.86	2.19
298.15	1	1031.01	2.17
300.65	0	1295.34	2.18
300.65	0.062	1279.43	2.2
300.65	0.123	1262.09	2.2
300.65	0.238	1229.66	2.2
300.65	0.35	1198.25	2.2
300.65	0.455	1168.9	2.19
300.65	0.557	1140.51	2.19
300.65	0.654	1113.62	2.19
300.65	0.746	1088.42	2.19
300.65	0.834	1064.49	2.19
300.65	0.902	1045.88	2.19
300.65	0.959	1030.64	2.19
300.65	1	1019.76	2.17
303.15	0	1285.42	2.18
303.15	0.062	1269.22	2.2
303.15	0.123	1251.75	2.2
303.15	0.238	1219.24	2.2
303.15	0.35	1187.68	2.2
303.15	0.455	1158.24	2.19
303.15	0.557	1129.81	2.19
303.15	0.654	1102.77	2.19
303.15	0.746	1077.48	2.19
303.15	0.834	1053.47	2.19
303.15	0.902	1034.82	2.19
303.15	0.959	1019.57	2.18
303.15	1	1008.62	2.17
305.65	0	1275.64	2.18
305.65	0.062	1258.93	2.2
305.65	0.123	1241.43	2.2
305.65	0.238	1208.78	2.2
305.65	0.35	1177.14	2.19
305.65	0.455	1147.54	2.19
305.65	0.557	1118.98	2.19
305.65	0.654	1091.94	2.19
305.65	0.746	1066.58	2.19
305.65	0.834	1042.5	2.19
305.65	0.902	1023.79	2.18
305.65	0.959	1008.47	2.18
305.65	1	997.52	2.17
308.15	0	1266.13	2.18
308.15	0.062	1248.68	2.2
308.15	0.123	1231.12	2.2
308.15	0.238	1198.4	2.2
308.15	0.35	1166.67	2.19
308.15	0.455	1137.09	2.19
308.15	0.557	1108.31	2.19
308.15	0.654	1081.2	2.19
308.15	0.746	1055.74	2.19
308.15	0.834	1031.63	2.18
308.15	0.902	1012.84	2.18
308.15	0.959	997.44	2.18
308.15	1	986.39	2.16
310.65	0	1256.41	2.18
310.65	0.062	1238.5	2.2
310.65	0.123	1220.9	2.2
310.65	0.238	1187.95	2.19
310.65	0.35	1156.14	2.19
310.65	0.455	1126.33	2.19
310.65	0.557	1097.63	2.19
310.65	0.654	1070.38	2.19
310.65	0.746	1044.88	2.19
310.65	0.834	1020.59	2.18
310.65	0.902	1001.78	2.18
310.65	0.959	986.36	2.18
310.65	1	975.42	2.16
313.15	0	1246.85	2.17
313.15	0.062	1228.35	2.2
313.15	0.123	1210.68	2.2
313.15	0.238	1177.78	2.19
313.15	0.35	1145.74	2.19
313.15	0.455	1115.84	2.19
313.15	0.557	1087.05	2.19
313.15	0.654	1059.65	2.19
313.15	0.746	1034.12	2.18
313.15	0.834	1009.82	2.18
313.15	0.902	990.86	2.18
313.15	0.959	975.56	2.18
313.15	1	964.53	2.16
315.65	0	1237.6	2.17
315.65	0.062	1218.31	2.2
315.65	0.123	1200.62	2.2
315.65	0.238	1167.5	2.19
315.65	0.35	1135.43	2.19
315.65	0.455	1105.43	2.19
315.65	0.557	1076.43	2.19
315.65	0.654	1049.06	2.18
315.65	0.746	1023.37	2.18
315.65	0.834	998.93	2.18
315.65	0.902	980.02	2.18
315.65	0.959	964.74	2.18
315.65	1	953.54	2.16
318.15	0	1228.14	2.17
318.15	0.062	1208.11	2.2
318.15	0.123	1190.24	2.2
318.15	0.238	1157.01	2.19
318.15	0.35	1124.88	2.19
318.15	0.455	1094.8	2.19
318.15	0.557	1065.84	2.19
318.15	0.654	1038.54	2.18
318.15	0.746	1012.57	2.18
318.15	0.834	988.25	2.18
318.15	0.902	969.29	2.18
318.15	0.959	953.77	2.18
318.15	1	942.67	2.16
320.65	0	1220.47	2.17
320.65	0.062	1197.89	2.2
320.65	0.123	1179.97	2.19
320.65	0.238	1146.74	2.19
320.65	0.35	1114.43	2.19
320.65	0.455	1084.33	2.19
320.65	0.557	1055.21	2.19
320.65	0.654	1027.74	2.18
320.65	0.746	1001.84	2.18
320.65	0.834	977.45	2.18
320.65	0.902	958.35	2.18
320.65	0.959	942.81	2.18
320.65	1	931.73	2.16
323.15	0	1211	2.17
323.15	0.062	1187.69	2.19
323.15	0.123	1169.67	2.19
323.15	0.238	1136.34	2.19
323.15	0.35	1103.93	2.19
323.15	0.455	1073.69	2.19
323.15	0.557	1044.57	2.18
323.15	0.654	1017.13	2.18
323.15	0.746	991.05	2.18
323.15	0.834	966.6	2.18
323.15	0.902	947.53	2.18
323.15	0.959	931.92	2.18
323.15	1	920.73	2.16

System: 1,4-dimethylbenzene + 2-ethoxy-2-methylpropane; phases: Liquid
Fixed: Pressure, kPa = 101
Property: Mass density, kg/m3 (Liquid); method: VIBTUB:UFactor:4
Temperature, K	Mole fraction of 2-ethoxy-2-methylpropane	Mass density, kg/m3	uncertainty
288.15	0	865.354	0.373
288.15	0.062	857.461	0.405
288.15	0.123	849.969	0.414
288.15	0.238	836.401	0.432
288.15	0.35	822.903	0.452
288.15	0.455	810.328	0.47
288.15	0.557	798.162	0.487
288.15	0.654	786.517	0.504
288.15	0.746	775.593	0.52
288.15	0.834	764.97	0.536
288.15	0.902	756.828	0.547
288.15	0.959	749.995	0.558
288.15	1	744.955	0.552
290.65	0	863.184	0.376
290.65	0.062	855.329	0.407
290.65	0.123	847.837	0.416
290.65	0.238	834.222	0.436
290.65	0.35	820.676	0.455
290.65	0.455	808.058	0.473
290.65	0.557	795.855	0.491
290.65	0.654	784.174	0.508
290.65	0.746	773.205	0.524
290.65	0.834	762.549	0.539
290.65	0.902	754.379	0.551
290.65	0.959	747.527	0.561
290.65	1	742.482	0.556
293.15	0	861.015	0.38
293.15	0.062	853.16	0.411
293.15	0.123	845.64	0.42
293.15	0.238	831.974	0.439
293.15	0.35	818.389	0.459
293.15	0.455	805.723	0.477
293.15	0.557	793.481	0.495
293.15	0.654	781.767	0.511
293.15	0.746	770.753	0.527
293.15	0.834	760.076	0.543
293.15	0.902	751.872	0.555
293.15	0.959	745.006	0.565
293.15	1	739.947	0.559
295.65	0	858.846	0.383
295.65	0.062	850.963	0.414
295.65	0.123	843.426	0.423
295.65	0.238	829.705	0.443
295.65	0.35	816.087	0.462
295.65	0.455	803.381	0.48
295.65	0.557	791.102	0.498
295.65	0.654	779.339	0.515
295.65	0.746	768.276	0.531
295.65	0.834	757.573	0.547
295.65	0.902	749.342	0.559
295.65	0.959	742.457	0.569
295.65	1	737.374	0.563
298.15	0	856.675	0.386
298.15	0.062	848.771	0.417
298.15	0.123	841.223	0.426
298.15	0.238	827.443	0.446
298.15	0.35	813.789	0.466
298.15	0.455	801.037	0.484
298.15	0.557	788.722	0.502
298.15	0.654	776.911	0.519
298.15	0.746	765.812	0.535
298.15	0.834	755.077	0.551
298.15	0.902	746.808	0.563
298.15	0.959	739.904	0.573
298.15	1	734.806	0.567
300.65	0	854.501	0.389
300.65	0.062	846.559	0.42
300.65	0.123	839.002	0.43
300.65	0.238	825.16	0.449
300.65	0.35	811.468	0.469
300.65	0.455	798.683	0.487
300.65	0.557	786.313	0.505
300.65	0.654	774.466	0.522
300.65	0.746	763.325	0.539
300.65	0.834	752.561	0.554
300.65	0.902	744.252	0.566
300.65	0.959	737.326	0.577
300.65	1	732.225	0.571
303.15	0	852.326	0.392
303.15	0.062	844.378	0.424
303.15	0.123	836.793	0.433
303.15	0.238	822.9	0.453
303.15	0.35	809.173	0.473
303.15	0.455	796.342	0.491
303.15	0.557	783.933	0.509
303.15	0.654	772.039	0.526
303.15	0.746	760.846	0.542
303.15	0.834	750.063	0.558
303.15	0.902	741.716	0.57
303.15	0.959	734.772	0.58
303.15	1	729.647	0.575
305.65	0	850.148	0.396
305.65	0.062	842.155	0.427
305.65	0.123	834.557	0.436
305.65	0.238	820.611	0.456
305.65	0.35	806.841	0.476
305.65	0.455	793.966	0.494
305.65	0.557	781.512	0.512
305.65	0.654	769.583	0.53
305.65	0.746	758.333	0.546
305.65	0.834	747.515	0.562
305.65	0.902	739.137	0.574
305.65	0.959	732.166	0.584
305.65	1	727.038	0.579
308.15	0	847.969	0.399
308.15	0.062	839.962	0.43
308.15	0.123	832.343	0.44
308.15	0.238	818.339	0.46
308.15	0.35	804.54	0.479
308.15	0.455	791.627	0.498
308.15	0.557	779.104	0.516
308.15	0.654	767.142	0.533
308.15	0.746	755.854	0.55
308.15	0.834	745.002	0.566
308.15	0.902	736.575	0.578
308.15	0.959	729.598	0.588
308.15	1	724.443	0.583
310.65	0	845.784	0.402
310.65	0.062	837.759	0.433
310.65	0.123	830.128	0.443
310.65	0.238	816.051	0.463
310.65	0.35	802.206	0.483
310.65	0.455	789.243	0.502
310.65	0.557	776.705	0.52
310.65	0.654	764.679	0.537
310.65	0.746	753.335	0.554
310.65	0.834	742.455	0.57
310.65	0.902	733.99	0.582
310.65	0.959	726.994	0.592
310.65	1	721.826	0.587
313.15	0	843.599	0.406
313.15	0.062	835.532	0.437
313.15	0.123	827.882	0.446
313.15	0.238	813.765	0.466
313.15	0.35	799.872	0.486
313.15	0.455	786.866	0.505
313.15	0.557	774.27	0.523
313.15	0.654	762.204	0.541
313.15	0.746	750.812	0.557
313.15	0.834	739.901	0.573
313.15	0.902	731.4	0.586
313.15	0.959	724.383	0.596
313.15	1	719.179	0.591
315.65	0	841.41	0.409
315.65	0.062	833.306	0.44
315.65	0.123	825.641	0.45
315.65	0.238	811.445	0.47
315.65	0.35	797.52	0.49
315.65	0.455	784.471	0.509
315.65	0.557	771.824	0.527
315.65	0.654	759.71	0.545
315.65	0.746	748.28	0.561
315.65	0.834	737.319	0.577
315.65	0.902	728.791	0.59
315.65	0.959	721.749	0.6
315.65	1	716.527	0.595
318.15	0	839.22	0.412
318.15	0.062	831.175	0.443
318.15	0.123	823.476	0.453
318.15	0.238	809.233	0.473
318.15	0.35	795.26	0.493
318.15	0.455	782.164	0.512
318.15	0.557	769.47	0.531
318.15	0.654	757.309	0.548
318.15	0.746	745.827	0.565
318.15	0.834	734.831	0.581
318.15	0.902	726.264	0.594
318.15	0.959	719.189	0.604
318.15	1	713.96	0.599
320.65	0	837.031	0.415
320.65	0.062	828.907	0.446
320.65	0.123	821.186	0.456
320.65	0.238	806.89	0.477
320.65	0.35	792.863	0.497
320.65	0.455	779.723	0.516
320.65	0.557	766.974	0.534
320.65	0.654	754.765	0.552
320.65	0.746	743.239	0.569
320.65	0.834	732.197	0.585
320.65	0.902	723.589	0.598
320.65	0.959	716.494	0.608
320.65	1	711.25	0.603
323.15	0	834.849	0.419
323.15	0.062	826.773	0.449
323.15	0.123	819.029	0.459
323.15	0.238	804.681	0.48
323.15	0.35	790.599	0.5
323.15	0.455	777.399	0.519
323.15	0.557	764.613	0.538
323.15	0.654	752.347	0.556
323.15	0.746	740.77	0.572
323.15	0.834	729.685	0.589
323.15	0.902	721.039	0.601
323.15	0.959	713.92	0.612
323.15	1	708.642	0.606
