Measured thermophysical data. Temperature dependent solubility of sodium cyclamate in selected pure solvents and binary methanol + water mixed solvents
Source: Fluid Phase Equilib., 2015, 10.1016/j.fluid.2015.01.012
Compound 1: sodium cyclohexylsulfamate, C6H12NNaO3S, InChI=1S/C6H13NO3S.Na/c8-11(9,10)7-6-4-2-1-3-5-6;/h6-7H,1-5H2,(H,8,9,10);/q;+1/p-1, purity 99%
Compound 2: methanol, CH4O, InChI=1S/CH4O/c1-2/h2H,1H3, purity 99.5%
Compound 3: formamide, CH3NO, InChI=1S/CH3NO/c2-1-3/h1H,(H2,2,3), purity 99.5%
Compound 4: formic acid, CH2O2, InChI=1S/CH2O2/c2-1-3/h1H,(H,2,3), purity 98%
Compound 5: acetic acid, C2H4O2, InChI=1S/C2H4O2/c1-2(3)4/h1H3,(H,3,4), purity 99.5%
Compound 6: water, H2O, InChI=1S/H2O/h1H2, purity 98%
Compound 7: dimethylformamide, C3H7NO, InChI=1S/C3H7NO/c1-4(2)3-5/h3H,1-2H3, purity 99.5%
Compound 8: dimethyl sulfoxide, C2H6OS, InChI=1S/C2H6OS/c1-4(2)3/h1-2H3, purity 99.5%

System: methanol + sodium cyclohexylsulfamate; phases: Liquid, Crystal
Fixed: Pressure, kPa = 101
Property: Mole fraction of sodium cyclohexylsulfamate (Liquid); method: Phase equilibration
Temperature, K	Mole fraction of sodium cyclohexylsulfamate	uncertainty
283.1	0.002713	0.0002
288.15	0.002946	0.0002
293.24	0.003135	0.0002
298.1	0.003313	0.0002
303.15	0.003525	0.0002
308.2	0.003755	0.0002
313.19	0.004054	0.0002
318.2	0.004355	0.0002
323.15	0.004666	0.0002

System: formamide + sodium cyclohexylsulfamate; phases: Liquid, Crystal
Fixed: Pressure, kPa = 101
Property: Mole fraction of sodium cyclohexylsulfamate (Liquid); method: Phase equilibration
Temperature, K	Mole fraction of sodium cyclohexylsulfamate	uncertainty
283.13	0.03187	0.00022
288.15	0.03907	0.00022
293.16	0.04378	0.00022
298.17	0.04721	0.00023
303.15	0.05061	0.00023
308.14	0.05264	0.00023
313.15	0.05432	0.00023
318.12	0.05538	0.00023
323.15	0.05666	0.00023

System: formic acid + sodium cyclohexylsulfamate; phases: Liquid, Crystal
Fixed: Pressure, kPa = 101
Property: Mole fraction of sodium cyclohexylsulfamate (Liquid); method: Phase equilibration
Temperature, K	Mole fraction of sodium cyclohexylsulfamate	uncertainty
283.13	0.01596	0.0002
288.13	0.01791	0.0002
293.1	0.02094	0.00021
299.12	0.02391	0.00021
303.15	0.02747	0.00021
308.17	0.03195	0.00021
313.13	0.03701	0.00022
318.2	0.04239	0.00022
323.15	0.04871	0.00023

System: acetic acid + sodium cyclohexylsulfamate; phases: Liquid, Crystal
Fixed: Pressure, kPa = 101
Property: Mole fraction of sodium cyclohexylsulfamate (Liquid); method: Phase equilibration
Temperature, K	Mole fraction of sodium cyclohexylsulfamate	uncertainty
293.15	0.003704	0.0002
298.14	0.005009	0.000201
303.15	0.00649	0.000201
308.17	0.007527	0.000201
313.15	0.008775	0.000201
318.13	0.01032	0.0002
323.15	0.01151	0.0002
328.17	0.01285	0.0002
333.2	0.0134	0.0002

System: sodium cyclohexylsulfamate + water; phases: Liquid, Crystal
Fixed: Pressure, kPa = 101
Property: Mole fraction of sodium cyclohexylsulfamate (Liquid); method: Phase equilibration
Temperature, K	Mole fraction of sodium cyclohexylsulfamate	uncertainty
283.13	0.01521	0.0002
288.17	0.01659	0.0002
293.15	0.01797	0.0002
298.14	0.02002	0.00021
303.17	0.02327	0.00021
308.13	0.02837	0.00022
313.15	0.03629	0.00023
318.14	0.04613	0.00023
323.15	0.05116	0.00023

System: dimethylformamide + sodium cyclohexylsulfamate; phases: Liquid, Crystal
Fixed: Pressure, kPa = 101
Property: Mole fraction of sodium cyclohexylsulfamate (Liquid); method: Phase equilibration
Temperature, K	Mole fraction of sodium cyclohexylsulfamate	uncertainty
283.15	3.1e-05	3.1e-05
288.14	0.000121	0.000121
293.17	0.000214	0.0002
298.15	0.000364	0.0002
303.13	0.00051	0.0002
308.15	0.000724	0.0002
313.14	0.00095	0.0002
318.13	0.001192	0.0002
323.17	0.001409	0.0002

System: dimethyl sulfoxide + sodium cyclohexylsulfamate; phases: Liquid, Crystal
Fixed: Pressure, kPa = 101
Property: Mole fraction of sodium cyclohexylsulfamate (Liquid); method: Phase equilibration
Temperature, K	Mole fraction of sodium cyclohexylsulfamate	uncertainty
293.13	0.000997	0.0002
298.15	0.00226	0.000201
303.14	0.004333	0.000201
308.15	0.007922	0.000203
313.16	0.01167	0.0002
318.15	0.01541	0.0002
323.2	0.0183	0.0002
328.15	0.01983	0.0002
333.17	0.02027	0.0002

System: methanol + sodium cyclohexylsulfamate + water; phases: Liquid, Crystal
Fixed: Pressure, kPa = 101
Property: Mole fraction of sodium cyclohexylsulfamate (Liquid); method: Phase equilibration
Solvent: Mole fraction of methanol	Temperature, K	Mole fraction of sodium cyclohexylsulfamate	uncertainty
0	283.13	0.01521	0.0002
0	288.15	0.01659	0.0002
0	293.17	0.01797	0.0002
0	298.14	0.02002	0.00021
0	303.17	0.02327	0.00021
0	308.14	0.02837	0.00022
0	313.16	0.03629	0.00023
0	318.13	0.04613	0.00023
0	323.15	0.05116	0.00023
0.0908	283.13	0.01105	0.0002
0.0908	288.15	0.01298	0.0002
0.0908	293.14	0.01521	0.0002
0.0908	298.17	0.01802	0.00021
0.0908	303.15	0.02174	0.00021
0.0908	308.17	0.02704	0.00021
0.0908	313.15	0.03307	0.00022
0.0908	318.1	0.03747	0.00022
0.0908	323.15	0.04304	0.00023
0.2306	283.13	0.00895	0.0002
0.2306	288.12	0.01121	0.0002
0.2306	293.1	0.01369	0.0002
0.2306	299.13	0.01622	0.0002
0.2306	303.15	0.01957	0.00021
0.2306	308.17	0.02299	0.00021
0.2306	313.15	0.02607	0.00021
0.2306	318.2	0.0292	0.0002
0.2306	323.15	0.03291	0.00021
0.2857	283.13	0.008335	0.000201
0.2857	288.12	0.01046	0.0002
0.2857	293.1	0.01247	0.0002
0.2857	299.13	0.01475	0.0002
0.2857	303.15	0.01731	0.0002
0.2857	308.14	0.02022	0.00021
0.2857	313.15	0.02293	0.00021
0.2857	318.2	0.02583	0.00021
0.2857	323.15	0.02945	0.00021
0.3996	283.13	0.008629	0.000201
0.3996	288.17	0.01004	0.0002
0.3996	293.15	0.01141	0.0002
0.3996	298.16	0.0134	0.0002
0.3996	303.18	0.01529	0.0002
0.3996	308.14	0.01732	0.0002
0.3996	313.15	0.01962	0.00021
0.3996	318.16	0.02213	0.00021
0.3996	323.15	0.0246	0.00021
0.5	283.12	0.007157	0.000201
0.5	288.14	0.008416	0.000201
0.5	293.15	0.009284	0.000201
0.5	298.13	0.01043	0.0002
0.5	303.16	0.01251	0.0002
0.5	308.15	0.01399	0.0002
0.5	313.14	0.01591	0.0002
0.5	318.13	0.01792	0.0002
0.5	323.17	0.01982	0.0002
0.6	283.13	0.005409	0.0002
0.6	288.14	0.006308	0.000201
0.6	293.1	0.007299	0.000201
0.6	299.13	0.008383	0.000201
0.6	303.15	0.009525	0.000201
0.6	308.16	0.01076	0.0002
0.6	313.15	0.01207	0.0002
0.6	318.2	0.01343	0.0002
0.6	323.14	0.01487	0.0002
0.6996	283.13	0.003855	0.0002
0.6996	288.17	0.004927	0.0002
0.6996	293.14	0.005929	0.000201
0.6996	298.15	0.006642	0.000201
0.6996	303.17	0.007269	0.000201
0.6996	308.13	0.008197	0.000201
0.6996	313.15	0.009075	0.000201
0.6996	318.14	0.01019	0.0002
0.6996	323.16	0.01139	0.0002
0.8	283.13	0.003497	0.0002
0.8	288.15	0.003851	0.0002
0.8	293.14	0.004377	0.0002
0.8	298.17	0.004727	0.0002
0.8	303.15	0.00536	0.0002
0.8	308.18	0.005973	0.0002
0.8	313.15	0.006806	0.000201
0.8	318.1	0.007585	0.000201
0.8	323.15	0.008232	0.000201
0.8813	283.13	0.003061	0.0002
0.8813	288.17	0.003536	0.0002
0.8813	293.15	0.004108	0.0002
0.8813	298.16	0.004553	0.0002
0.8813	303.17	0.004909	0.0002
0.8813	308.14	0.005386	0.0002
0.8813	313.15	0.006021	0.0002
0.8813	318.13	0.006437	0.000201
0.8813	323.15	0.007227	0.000201
1	283.1	0.002713	0.0002
1	288.15	0.002946	0.0002
1	293.24	0.003135	0.0002
1	298.1	0.003313	0.0002
1	303.15	0.003525	0.0002
1	308.2	0.003755	0.0002
1	313.21	0.004054	0.0002
1	318.22	0.004355	0.0002
1	323.15	0.004666	0.0002
