Measured thermophysical data. Solidification and computational analysis of o-nitroaniline a-naphthol eutectic system
Source: Fluid Phase Equilib., 2015, 10.1016/j.fluid.2014.12.001
Compound 1: 2-nitroaniline, C6H6N2O2, InChI=1S/C6H6N2O2/c7-5-3-1-2-4-6(5)8(9)10/h1-4H,7H2, purity 98%
Compound 2: 1-naphthol, C10H8O, InChI=1S/C10H8O/c11-10-7-3-5-8-4-1-2-6-9(8)10/h1-7,11H, purity 99%

System: 2-nitroaniline; phases: Crystal, Liquid, Air at 1 atmosphere
Property: Normal melting temperature, K (Crystal); method: VISOBS
Normal melting temperature, K	uncertainty
342.8	1.1

System: 2-nitroaniline; phases: Crystal, Liquid, Air at 1 atmosphere
Property: Molar enthalpy of transition or fusion, kJ/mol (Crystal); method: DSC
Molar enthalpy of transition or fusion, kJ/mol	uncertainty
19.25	0.88

System: 1-naphthol; phases: Crystal, Liquid, Air at 1 atmosphere
Property: Normal melting temperature, K (Crystal); method: VISOBS
Normal melting temperature, K	uncertainty
368.25	1.06

System: 1-naphthol; phases: Crystal, Liquid, Air at 1 atmosphere
Property: Molar enthalpy of transition or fusion, kJ/mol (Crystal); method: DSC
Molar enthalpy of transition or fusion, kJ/mol	uncertainty
21.77	0.99

System: 2-nitroaniline + 1-naphthol; phases: Crystal, Crystal, Liquid, Air at 1 atmosphere
Property: Eutectic temperature, K (Crystal); method: Derived from phase diagram analysis
Eutectic temperature, K	uncertainty
317.3	0.1

System: 2-nitroaniline + 1-naphthol; phases: Crystal, Crystal, Liquid, Air at 1 atmosphere
Property: Eutectic composition: mole fraction of 2-nitroaniline (Crystal); method: Derived from phase diagram analysis
Eutectic composition: mole fraction of 2-nitroaniline	uncertainty
0.5616	0.0034

System: 2-nitroaniline + 1-naphthol; phases: Liquid, Crystal
Fixed: Pressure, kPa = 101
Property: Solid-liquid equilibrium temperature, K (Liquid); method: VISOBS
Mole fraction of 2-nitroaniline	Solid-liquid equilibrium temperature, K	uncertainty
1	342.8	0.4
0.9028	341.7	0.3
0.8056	339.1	0.6
0.6986	335.9	0.6
0.6528	333.2	0.4
0.5972	329.6	0.4

System: 2-nitroaniline + 1-naphthol; phases: Liquid, Crystal
Fixed: Pressure, kPa = 101
Property: Solid-liquid equilibrium temperature, K (Liquid); method: VISOBS
Mole fraction of 2-nitroaniline	Solid-liquid equilibrium temperature, K	uncertainty
0.5205	325.7	0.6
0.4658	332	0.4
0.4383	336.1	0.3
0.4167	338.3	0.3
0.3099	348.1	0.6
0.2	357.7	0.6
0.0986	362.8	0.4
0	368.3	0.4
