Measured thermophysical data. Ionic liquids effect on critical micelle concentration of SDS: conductivity, fluorescence and NMR studies
Source: Fluid Phase Equilib., 2014, 10.1016/j.fluid.2014.03.024
Compound 1: sodium dodecyl sulfate, C12H25NaO4S, InChI=1S/C12H26O4S.Na/c1-2-3-4-5-6-7-8-9-10-11-12-16-17(13,14)15;/h2-12H2,1H3,(H,13,14,15);/q;+1/p-1, purity 99%
Compound 2: 1-pentyl-3-methylimidazolium bromide, C9H17BrN2, InChI=1S/C9H17N2.BrH/c1-3-4-5-6-11-8-7-10(2)9-11;/h7-9H,3-6H2,1-2H3;1H/q+1;/p-1, purity 98%
Compound 3: 1-heptyl-3-methylimidazolium bromide, C11H21BrN2, InChI=1S/C11H21N2.BrH/c1-3-4-5-6-7-8-13-10-9-12(2)11-13;/h9-11H,3-8H2,1-2H3;1H/q+1;/p-1, purity 98%
Compound 4: water, H2O, InChI=1S/H2O/h1H2, purity 99.9%

System: sodium dodecyl sulfate + water + 1-pentyl-3-methylimidazolium bromide; phases: Liquid, Crystal
Fixed: Temperature, K = 298.15
Fixed: Solvent: Mass fraction of 1-pentyl-3-methylimidazolium bromide = 0.001
Property: Electrical conductivity, S/m (Liquid); method: Direct current cell with electrodes
Amount concentration (molarity), mol/dm3 of sodium dodecyl sulfate	Electrical conductivity, S/m	uncertainty
19.7118	0.086	0.007
18.199	0.085	0.007
16.901	0.083	0.007
15.7759	0.081	0.007
14.7911	0.08	0.006
13.9221	0.078	0.006
13.1496	0.076	0.006

System: sodium dodecyl sulfate + water + 1-pentyl-3-methylimidazolium bromide; phases: Liquid, Crystal
Fixed: Temperature, K = 298.15
Fixed: Solvent: Mass fraction of 1-pentyl-3-methylimidazolium bromide = 0.001
Property: Electrical conductivity, S/m (Liquid); method: Direct current cell with electrodes
Amount concentration (molarity), mol/dm3 of sodium dodecyl sulfate	Electrical conductivity, S/m	uncertainty
12.4582	0.075	0.006
11.836	0.074	0.006
11.2729	0.073	0.006
10.761	0.072	0.006
10.2935	0.071	0.006
9.865	0.07	0.006
9.4707	0.069	0.006
9.1068	0.068	0.005
8.4553	0.066	0.005
7.8907	0.065	0.005
7.3962	0.064	0.005
6.9615	0.063	0.005
6.5736	0.062	0.005
6.227	0.061	0.005
5.9157	0.06	0.005
5.6341	0.059	0.005
5.3769	0.059	0.005
5.1433	0.058	0.005
4.9288	0.058	0.005
4.7315	0.057	0.005
4.5488	0.057	0.005
4.381	0.056	0.005
4.2242	0.056	0.005
4.0784	0.055	0.004
3.9423	0.055	0.004

System: sodium dodecyl sulfate + water + 1-heptyl-3-methylimidazolium bromide; phases: Liquid, Crystal
Fixed: Temperature, K = 298.15
Fixed: Solvent: Mass fraction of 1-heptyl-3-methylimidazolium bromide = 0.001
Property: Electrical conductivity, S/m (Liquid); method: Direct current cell with electrodes
Amount concentration (molarity), mol/dm3 of sodium dodecyl sulfate	Electrical conductivity, S/m	uncertainty
19.9536	0.082	0.007
18.4216	0.08	0.006
17.1075	0.078	0.006
15.9692	0.076	0.006
14.9731	0.075	0.006
14.0904	0.073	0.006
13.3102	0.072	0.006
12.6105	0.071	0.006
11.9806	0.069	0.006
11.4107	0.068	0.005
10.8925	0.067	0.005
10.4193	0.066	0.005

System: sodium dodecyl sulfate + water + 1-heptyl-3-methylimidazolium bromide; phases: Liquid, Crystal
Fixed: Temperature, K = 298.15
Fixed: Solvent: Mass fraction of 1-heptyl-3-methylimidazolium bromide = 0.001
Property: Electrical conductivity, S/m (Liquid); method: Direct current cell with electrodes
Amount concentration (molarity), mol/dm3 of sodium dodecyl sulfate	Electrical conductivity, S/m	uncertainty
9.9856	0.064	0.005
9.5865	0.063	0.005
9.2181	0.062	0.005
8.5585	0.06	0.005
7.9871	0.059	0.005
7.4872	0.057	0.005
7.0461	0.055	0.004
6.6542	0.054	0.004
6.3035	0.053	0.004
5.988	0.051	0.004
5.7025	0.05	0.004
5.443	0.049	0.004
5.2061	0.048	0.004
4.989	0.048	0.004
4.7893	0.047	0.004
4.6049	0.046	0.004
4.4342	0.046	0.004
4.2757	0.045	0.004
4.1281	0.045	0.004
3.9904	0.045	0.004
