Measured thermophysical data. Effect of 1-methyl 3-octylimidazolium thiocyanate on vapor-liquid equilibria of binary mixtures of hydrocarbons
Source: Fluid Phase Equilib., 2012, 10.1016/j.fluid.2012.08.004
Compound 1: benzene, C6H6, InChI=1S/C6H6/c1-2-4-6-5-3-1/h1-6H, purity 99%
Compound 2: ethylbenzene, C8H10, InChI=1S/C8H10/c1-2-8-6-4-3-5-7-8/h3-7H,2H2,1H3, purity 99%
Compound 3: methylcyclohexane, C7H14, InChI=1S/C7H14/c1-7-5-3-2-4-6-7/h7H,2-6H2,1H3, purity 98%
Compound 4: toluene, C7H8, InChI=1S/C7H8/c1-7-5-3-2-4-6-7/h2-6H,1H3, purity 99%
Compound 5: hex-1-ene, C6H12, InChI=1S/C6H12/c1-3-5-6-4-2/h3H,1,4-6H2,2H3, purity 99%
Compound 6: 1-methyl-3-octyl-1H-imidazolium thiocyanate, C13H23N3S, InChI=1S/C12H23N2.CHNS/c1-3-4-5-6-7-8-9-14-11-10-13(2)12-14;2-1-3/h10-12H,3-9H2,1-2H3;3H/q+1;/p-1
Compound 7: cyclohexane, C6H12, InChI=1S/C6H12/c1-2-4-6-5-3-1/h1-6H2, purity 99%

System: 1-methyl-3-octyl-1H-imidazolium thiocyanate; phases: Liquid
Fixed: Pressure, kPa = 101.325
Property: Mass density, kg/m3 (Liquid); method: Vibrating tube method
Temperature, K	Mass density, kg/m3	uncertainty
288.15	1014.05	0.24
293.15	1011.1	0.24
298.15	1008.27	0.24
303.15	1005.42	0.23
308.15	1002.57	0.23
313.15	999.7	0.23
318.15	996.67	0.23
323.15	994.1	0.23
328.15	991.28	0.23
333.15	988.41	0.23
338.15	985.63	0.23
343.15	982.86	0.23

System: benzene + ethylbenzene + 1-methyl-3-octyl-1H-imidazolium thiocyanate; phases: Liquid, Gas
Fixed: Temperature, K = 323.15
Fixed: Pressure, kPa = 101.3
Property: Mole fraction of 1-methyl-3-octyl-1H-imidazolium thiocyanate (Liquid); method: Chromatography
Property: Mole fraction of 1-methyl-3-octyl-1H-imidazolium thiocyanate (Gas); method: Chromatography
Property: Mole fraction of benzene (Gas); method: Chromatography
Mole fraction of benzene	Mole fraction of 1-methyl-3-octyl-1H-imidazolium thiocyanate	uncertainty	Mole fraction of 1-methyl-3-octyl-1H-imidazolium thiocyanate	uncertainty	Mole fraction of benzene	uncertainty
0.0168	0.8	0.01	0		0.374	
0.0336	0.8	0.01	0		0.575	
0.052	0.8	0.01	0		0.695	
0.0738	0.8	0.01	0		0.803	
0.0994	0.8	0.01	0		0.873	
0.1154	0.8	0.01	0		0.925	
0.1382	0.8	0.01	0		0.947	
0.1584	0.8	0.01	0		0.968	
0.178	0.8	0.01	0		0.991	

System: benzene + methylcyclohexane + 1-methyl-3-octyl-1H-imidazolium thiocyanate; phases: Liquid, Gas
Fixed: Temperature, K = 323.15
Fixed: Pressure, kPa = 101.3
Property: Mole fraction of 1-methyl-3-octyl-1H-imidazolium thiocyanate (Liquid); method: Chromatography
Property: Mole fraction of 1-methyl-3-octyl-1H-imidazolium thiocyanate (Gas); method: Chromatography
Property: Mole fraction of benzene (Gas); method: Chromatography
Mole fraction of benzene	Mole fraction of 1-methyl-3-octyl-1H-imidazolium thiocyanate	uncertainty	Mole fraction of 1-methyl-3-octyl-1H-imidazolium thiocyanate	uncertainty	Mole fraction of benzene	uncertainty
0.007	0.8	0.01	0		0.28	
0.023	0.8	0.01	0		0.413	
0.042	0.8	0.01	0		0.528	
0.059	0.8	0.01	0		0.605	
0.08	0.8	0.01	0		0.686	
0.103	0.8	0.01	0		0.754	
0.126	0.8	0.01	0		0.838	
0.147	0.8	0.01	0		0.909	
0.166	0.8	0.01	0		0.977	

System: ethylbenzene + toluene + 1-methyl-3-octyl-1H-imidazolium thiocyanate; phases: Liquid, Gas
Fixed: Temperature, K = 323.15
Fixed: Pressure, kPa = 101.3
Property: Mole fraction of 1-methyl-3-octyl-1H-imidazolium thiocyanate (Liquid); method: Chromatography
Property: Mole fraction of 1-methyl-3-octyl-1H-imidazolium thiocyanate (Gas); method: Chromatography
Property: Mole fraction of toluene (Gas); method: Chromatography
Mole fraction of toluene	Mole fraction of 1-methyl-3-octyl-1H-imidazolium thiocyanate	uncertainty	Mole fraction of 1-methyl-3-octyl-1H-imidazolium thiocyanate	uncertainty	Mole fraction of toluene	uncertainty
0.056	0.8	0.01	0		0.261	
0.083	0.8	0.01	0		0.443	
0.106	0.8	0.01	0		0.571	
0.121	0.8	0.01	0		0.667	
0.137	0.8	0.01	0		0.756	
0.151	0.8	0.01	0		0.825	
0.168	0.8	0.01	0		0.887	
0.182	0.8	0.01	0		0.938	
0.195	0.8	0.01	0		0.976	

System: methylcyclohexane + toluene + 1-methyl-3-octyl-1H-imidazolium thiocyanate; phases: Liquid, Gas
Fixed: Temperature, K = 323.15
Fixed: Pressure, kPa = 101.3
Property: Mole fraction of 1-methyl-3-octyl-1H-imidazolium thiocyanate (Liquid); method: Chromatography
Property: Mole fraction of 1-methyl-3-octyl-1H-imidazolium thiocyanate (Gas); method: Chromatography
Property: Mole fraction of methylcyclohexane (Gas); method: Chromatography
Mole fraction of methylcyclohexane	Mole fraction of 1-methyl-3-octyl-1H-imidazolium thiocyanate	uncertainty	Mole fraction of 1-methyl-3-octyl-1H-imidazolium thiocyanate	uncertainty	Mole fraction of methylcyclohexane	uncertainty
0.018	0.8	0.01	0		0.018	
0.039	0.8	0.01	0		0.039	
0.06	0.8	0.01	0		0.06	
0.079	0.8	0.01	0		0.079	
0.099	0.8	0.01	0		0.099	
0.119	0.8	0.01	0		0.119	
0.136	0.8	0.01	0		0.136	
0.157	0.8	0.01	0		0.157	
0.179	0.8	0.01	0		0.179	

System: toluene + cyclohexane + 1-methyl-3-octyl-1H-imidazolium thiocyanate; phases: Liquid, Gas
Fixed: Temperature, K = 323.15
Fixed: Pressure, kPa = 101.3
Property: Mole fraction of 1-methyl-3-octyl-1H-imidazolium thiocyanate (Liquid); method: Chromatography
Property: Mole fraction of 1-methyl-3-octyl-1H-imidazolium thiocyanate (Gas); method: Chromatography
Property: Mole fraction of toluene (Gas); method: Chromatography
Mole fraction of toluene	Mole fraction of 1-methyl-3-octyl-1H-imidazolium thiocyanate	uncertainty	Mole fraction of 1-methyl-3-octyl-1H-imidazolium thiocyanate	uncertainty	Mole fraction of toluene	uncertainty
0.005	0.8	0.01	0		0.476	
0.023	0.8	0.01	0		0.626	
0.054	0.8	0.01	0		0.75	
0.061	0.8	0.01	0		0.801	
0.076	0.8	0.01	0		0.853	
0.094	0.8	0.01	0		0.909	
0.104	0.8	0.01	0		0.932	
0.131	0.8	0.01	0		0.973	
0.174	0.8	0.01	0		0.988	

System: toluene + hex-1-ene + 1-methyl-3-octyl-1H-imidazolium thiocyanate; phases: Liquid, Gas
Fixed: Temperature, K = 323.15
Fixed: Pressure, kPa = 101.3
Property: Mole fraction of 1-methyl-3-octyl-1H-imidazolium thiocyanate (Liquid); method: Chromatography
Property: Mole fraction of 1-methyl-3-octyl-1H-imidazolium thiocyanate (Gas); method: Chromatography
Property: Mole fraction of hex-1-ene (Gas); method: Chromatography
Mole fraction of hex-1-ene	Mole fraction of 1-methyl-3-octyl-1H-imidazolium thiocyanate	uncertainty	Mole fraction of 1-methyl-3-octyl-1H-imidazolium thiocyanate	uncertainty	Mole fraction of hex-1-ene	uncertainty
0.006	0.8	0.01	0		0.279	
0.01	0.8	0.01	0		0.376	
0.029	0.8	0.01	0		0.621	
0.045	0.8	0.01	0		0.724	
0.094	0.8	0.01	0		0.884	
0.107	0.8	0.01	0		0.906	
0.136	0.8	0.01	0		0.964	
0.145	0.8	0.01	0		0.973	
0.177	0.8	0.01	0		0.99	
0.188	0.8	0.01	0		0.999	
