Measured thermophysical data. New measurements and modeling of high pressure thermodynamic properties of glycols
Source: Fluid Phase Equilib., 2017, 10.1016/j.fluid.2017.01.003
Compound 1: 1,2-ethanediol, C2H6O2, InChI=1S/C2H6O2/c3-1-2-4/h3-4H,1-2H2, purity 99.5%
Compound 2: diethylene glycol, C4H10O3, InChI=1S/C4H10O3/c5-1-3-7-4-2-6/h5-6H,1-4H2, purity 99%
Compound 3: triethylene glycol, C6H14O4, InChI=1S/C6H14O4/c7-1-3-9-5-6-10-4-2-8/h7-8H,1-6H2, purity 99%
Compound 4: tetraethylene glycol, C8H18O5, InChI=1S/C8H18O5/c9-1-3-11-5-7-13-8-6-12-4-2-10/h9-10H,1-8H2, purity 99%
Compound 5: 3,6,9,12-tetraoxatetradecane-1,14-diol, C10H22O6, InChI=1S/C10H22O6/c11-1-3-13-5-7-15-9-10-16-8-6-14-4-2-12/h11-12H,1-10H2, purity 98%
Compound 6: 3,6,9,12,15-pentaoxaheptadecane-1,17-diol, C12H26O7, InChI=1S/C12H26O7/c13-1-3-15-5-7-17-9-11-19-12-10-18-8-6-16-4-2-14/h13-14H,1-12H2, purity 98%

System: 1,2-ethanediol; phases: Liquid
Property: Mass density, kg/m3 (Liquid); method: Vibrating tube method
Temperature, K	Pressure, kPa	Mass density, kg/m3	uncertainty
283.11	100	1120.2	1
283.11	1000	1120.5	1
283.11	2000	1120.9	1
283.11	5000	1122.1	1
283.11	7000	1123	1
283.11	10000	1124.3	1
283.11	12000	1125.1	1
283.11	16000	1126.7	1
283.11	20000	1128.2	1
283.11	25000	1130.1	1
283.11	30000	1132	1
283.11	35000	1133.9	1
283.11	40000	1135.7	1.1
283.11	45000	1137.5	1.1
283.11	50000	1139.3	1.1
283.11	55000	1141	1.1
283.11	60000	1142.9	1.1
283.11	65000	1144.5	1.1
283.11	70000	1146.1	1.1
283.11	75000	1147.8	1.1
283.11	80000	1149.4	1.2
283.11	85000	1151.1	1.2
283.11	90000	1152.6	1.2
283.11	95000	1154.2	1.2
293.13	100	1113	1
293.13	1000	1113.4	1
293.13	2000	1113.9	1
293.13	5000	1115.1	1
293.13	7000	1116	1
293.13	10000	1117.2	1
293.13	12000	1118	1
293.13	16000	1119.8	1
293.13	20000	1121.3	1
293.13	25000	1123.3	1
293.13	30000	1125.3	1
293.13	35000	1127.1	1
293.13	40000	1129	1.1
293.13	45000	1130.7	1.1
293.13	50000	1132.7	1.1
293.13	55000	1134.5	1.1
293.13	60000	1136.3	1.1
293.13	65000	1138	1.1
293.13	70000	1139.7	1.1
293.13	75000	1141.3	1.1
293.13	80000	1143.1	1.1
293.13	85000	1144.6	1.2
293.13	90000	1146.3	1.2
293.13	95000	1147.8	1.2
303.13	100	1106	1
303.13	1000	1106.4	1
303.13	2000	1106.8	1
303.13	5000	1108.2	1
303.13	7000	1109.2	1
303.13	10000	1110.4	1
303.13	12000	1111.2	1
303.13	16000	1112.9	1
303.13	20000	1114.6	1
303.13	25000	1116.6	1
303.13	30000	1118.6	1
303.13	35000	1120.7	1
303.13	40000	1122.6	1
303.13	45000	1124.5	1.1
303.13	50000	1126.2	1.1
303.13	55000	1128	1.1
303.13	60000	1129.8	1.1
303.13	65000	1131.7	1.1
303.13	70000	1133.4	1.1
303.13	75000	1135.2	1.1
303.13	80000	1136.9	1.1
303.13	85000	1138.4	1.2
303.13	90000	1140.1	1.2
303.13	95000	1141.7	1.2
313.16	100	1099.1	1
313.16	1000	1099.4	1
313.16	2000	1099.8	1
313.16	5000	1101.2	1
313.16	7000	1102.1	1
313.16	10000	1103.5	1
313.16	12000	1104.2	1
313.16	16000	1106.1	1
313.16	20000	1107.8	1
313.16	25000	1109.8	1
313.16	30000	1111.8	1
313.16	35000	1113.8	1
313.16	40000	1115.9	1
313.16	45000	1117.9	1.1
313.16	50000	1119.8	1.1
313.16	55000	1121.5	1.1
313.16	60000	1123.4	1.1
313.16	65000	1125.2	1.1
313.16	70000	1127	1.1
313.16	75000	1128.8	1.1
313.16	80000	1130.6	1.1
313.16	85000	1132.3	1.1
313.16	90000	1133.9	1.2
313.16	95000	1135.5	1.2
323.15	100	1092	1
323.15	1000	1092.3	1
323.15	2000	1092.9	1
323.15	5000	1094.2	1
323.15	7000	1095.2	1
323.15	10000	1096.5	1
323.15	12000	1097.4	1
323.15	16000	1099.3	1
323.15	20000	1100.9	1
323.15	25000	1103.1	1
323.15	30000	1105.2	1
323.15	35000	1107.3	1
323.15	40000	1109.3	1
323.15	45000	1111.3	1
323.15	50000	1113.3	1.1
323.15	55000	1115.1	1.1
323.15	60000	1117.1	1.1
323.15	65000	1119.1	1.1
323.15	70000	1120.9	1.1
323.15	75000	1122.7	1.1
323.15	80000	1124.4	1.1
323.15	85000	1126.2	1.1
323.15	90000	1127.8	1.1
323.15	95000	1129.5	1.2
333.18	100	1084.7	1
333.18	1000	1085.1	1
333.18	2000	1085.6	1
333.18	5000	1087.1	1
333.18	7000	1088	1
333.18	10000	1089.5	1
333.18	12000	1090.4	1
333.18	16000	1092.2	1
333.18	20000	1094	1
333.18	25000	1096.3	1
333.18	30000	1098.4	1
333.18	35000	1100.4	1
333.18	40000	1102.6	1
333.18	45000	1104.5	1
333.18	50000	1106.4	1.1
333.18	55000	1108.5	1.1
333.18	60000	1110.6	1.1
333.18	65000	1112.5	1.1
333.18	70000	1114.3	1.1
333.18	75000	1116.2	1.1
333.18	80000	1118	1.1
333.18	85000	1119.7	1.1
333.18	90000	1121.5	1.1
333.18	95000	1123.1	1.2
343.16	100	1077.3	1
343.16	1000	1077.8	1
343.16	2000	1078.3	1
343.16	5000	1080	1
343.16	7000	1080.9	1
343.16	10000	1082.3	1
343.16	12000	1083.1	1
343.16	16000	1085.1	1
343.16	20000	1086.9	1
343.16	25000	1089.3	1
343.16	30000	1091.5	1
343.16	35000	1093.7	1
343.16	40000	1095.8	1
343.16	45000	1097.8	1
343.16	50000	1100	1
343.16	55000	1102	1.1
343.16	60000	1104	1.1
343.16	65000	1106.1	1.1
343.16	70000	1108	1.1
343.16	75000	1109.8	1.1
343.16	80000	1111.7	1.1
343.16	85000	1113.5	1.1
343.16	90000	1115.3	1.1
343.16	95000	1117	1.1
353.18	100	1069.9	1
353.18	1000	1070.5	1
353.18	2000	1071	1
353.18	5000	1072.5	1
353.18	7000	1073.5	1
353.18	10000	1075	1
353.18	12000	1076	1
353.18	16000	1078	1
353.18	20000	1079.9	1
353.18	25000	1082.2	1
353.18	30000	1084.5	1
353.18	35000	1086.8	1
353.18	40000	1089	1
353.18	45000	1091	1
353.18	50000	1093.2	1
353.18	55000	1095.4	1
353.18	60000	1097.4	1.1
353.18	65000	1099.4	1.1
353.18	70000	1101.3	1.1
353.18	75000	1103.2	1.1
353.18	80000	1105.2	1.1
353.18	85000	1106.9	1.1
353.18	90000	1108.8	1.1
353.18	95000	1110.6	1.1
363.18	100	1062.4	1
363.18	1000	1062.8	1
363.18	2000	1063.4	1
363.18	5000	1065	1
363.18	7000	1066	1
363.18	10000	1067.6	1
363.18	12000	1068.6	1
363.18	16000	1070.6	1
363.18	20000	1072.5	1
363.18	25000	1075	1
363.18	30000	1077.4	1
363.18	35000	1079.6	1
363.18	40000	1082	1
363.18	45000	1084.2	1
363.18	50000	1086.2	1
363.18	55000	1088.4	1
363.18	60000	1090.5	1.1
363.18	65000	1092.6	1.1
363.18	70000	1094.5	1.1
363.18	75000	1096.6	1.1
363.18	80000	1098.5	1.1
363.18	85000	1100.4	1.1
363.18	90000	1102.3	1.1
363.18	95000	1104.1	1.1

System: diethylene glycol; phases: Liquid
Property: Mass density, kg/m3 (Liquid); method: Vibrating tube method
Temperature, K	Pressure, kPa	Mass density, kg/m3	uncertainty
283.15	100	1124.3	1
283.15	1000	1124.7	1
283.15	2000	1125.3	1
283.15	5000	1126.5	1.1
283.15	7000	1127.4	1.1
283.15	10000	1128.8	1.1
283.15	12000	1129.6	1.1
283.15	16000	1131.3	1.1
283.15	20000	1133	1.1
283.15	25000	1135.1	1.1
283.15	30000	1137.2	1.1
283.15	35000	1139.2	1.1
283.15	40000	1141.2	1.1
283.15	45000	1143	1.1
283.15	50000	1145.1	1.2
283.15	55000	1146.9	1.2
283.15	60000	1148.8	1.2
283.15	65000	1150.7	1.2
283.15	70000	1152.4	1.2
283.15	75000	1154.2	1.2
283.15	80000	1155.8	1.3
283.15	85000	1157.5	1.3
283.15	90000	1159.2	1.3
283.15	95000	1160.9	1.3
293.15	100	1117.1	1
293.15	1000	1117.5	1
293.15	2000	1118	1
293.15	5000	1119.3	1.1
293.15	7000	1120.2	1.1
293.15	10000	1121.6	1.1
293.15	12000	1122.5	1.1
293.15	16000	1124.3	1.1
293.15	20000	1126	1.1
293.15	25000	1128.2	1.1
293.15	30000	1130.3	1.1
293.15	35000	1132.4	1.1
293.15	40000	1134.3	1.1
293.15	45000	1136.4	1.1
293.15	50000	1138.4	1.1
293.15	55000	1140.4	1.2
293.15	60000	1142.2	1.2
293.15	65000	1144.1	1.2
293.15	70000	1145.8	1.2
293.15	75000	1147.7	1.2
293.15	80000	1149.4	1.3
293.15	85000	1151.2	1.3
293.15	90000	1152.9	1.3
293.15	95000	1154.6	1.3
303.14	100	1109.9	1
303.14	1000	1110.3	1
303.14	2000	1110.7	1
303.14	5000	1112.2	1
303.14	7000	1113.1	1.1
303.14	10000	1114.5	1.1
303.14	12000	1115.4	1.1
303.14	16000	1117.3	1.1
303.14	20000	1119	1.1
303.14	25000	1121.2	1.1
303.14	30000	1123.4	1.1
303.14	35000	1125.5	1.1
303.14	40000	1127.5	1.1
303.14	45000	1129.6	1.1
303.14	50000	1131.6	1.1
303.14	55000	1133.6	1.2
303.14	60000	1135.5	1.2
303.14	65000	1137.4	1.2
303.14	70000	1139.3	1.2
303.14	75000	1141.1	1.2
303.14	80000	1142.9	1.2
303.14	85000	1144.6	1.3
303.14	90000	1146.4	1.3
303.14	95000	1148.2	1.3
313.15	100	1102.7	1
313.15	1000	1103.2	1
313.15	2000	1103.6	1
313.15	5000	1105.2	1
313.15	7000	1106.2	1
313.15	10000	1107.7	1.1
313.15	12000	1108.6	1.1
313.15	16000	1110.4	1.1
313.15	20000	1112.3	1.1
313.15	25000	1114.5	1.1
313.15	30000	1116.7	1.1
313.15	35000	1118.9	1.1
313.15	40000	1121	1.1
313.15	45000	1123.1	1.1
313.15	50000	1125.1	1.1
313.15	55000	1127.1	1.1
313.15	60000	1129.1	1.2
313.15	65000	1131.1	1.2
313.15	70000	1132.9	1.2
313.15	75000	1134.8	1.2
313.15	80000	1136.6	1.2
313.15	85000	1138.4	1.2
313.15	90000	1140.2	1.3
313.15	95000	1141.9	1.3
323.2	100	1095.4	1
323.2	1000	1095.8	1
323.2	2000	1096.3	1
323.2	5000	1097.8	1
323.2	7000	1098.8	1
323.2	10000	1100.3	1.1
323.2	12000	1101.3	1.1
323.2	16000	1103.3	1.1
323.2	20000	1105.2	1.1
323.2	25000	1107.5	1.1
323.2	30000	1109.9	1.1
323.2	35000	1112	1.1
323.2	40000	1114.2	1.1
323.2	45000	1116.3	1.1
323.2	50000	1118.4	1.1
323.2	55000	1120.5	1.1
323.2	60000	1122.5	1.2
323.2	65000	1124.5	1.2
323.2	70000	1126.5	1.2
323.2	75000	1128.3	1.2
323.2	80000	1130.3	1.2
323.2	85000	1132.2	1.2
323.2	90000	1133.9	1.3
323.2	95000	1135.7	1.3
333.2	100	1088.1	1
333.2	1000	1088.7	1
333.2	2000	1089.2	1
333.2	5000	1090.8	1
333.2	7000	1091.8	1
333.2	10000	1093.3	1
333.2	12000	1094.4	1.1
333.2	16000	1096.4	1.1
333.2	20000	1098.3	1.1
333.2	25000	1100.7	1.1
333.2	30000	1103	1.1
333.2	35000	1105.3	1.1
333.2	40000	1107.6	1.1
333.2	45000	1109.7	1.1
333.2	50000	1111.9	1.1
333.2	55000	1113.9	1.1
333.2	60000	1116	1.1
333.2	65000	1118	1.2
333.2	70000	1120.1	1.2
333.2	75000	1121.9	1.2
333.2	80000	1123.8	1.2
333.2	85000	1125.9	1.2
333.2	90000	1127.7	1.2
333.2	95000	1129.5	1.3
343.2	100	1080.7	1
343.2	1000	1081.2	1
343.2	2000	1081.7	1
343.2	5000	1083.4	1
343.2	7000	1084.5	1
343.2	10000	1086.1	1
343.2	12000	1087.1	1
343.2	16000	1089.1	1.1
343.2	20000	1091.2	1.1
343.2	25000	1093.7	1.1
343.2	30000	1096.1	1.1
343.2	35000	1098.5	1.1
343.2	40000	1100.8	1.1
343.2	45000	1103.1	1.1
343.2	50000	1105.2	1.1
343.2	55000	1107.4	1.1
343.2	60000	1109.5	1.1
343.2	65000	1111.6	1.1
343.2	70000	1113.7	1.2
343.2	75000	1115.7	1.2
343.2	80000	1117.6	1.2
343.2	85000	1119.5	1.2
343.2	90000	1121.4	1.2
343.2	95000	1123.3	1.2
353.19	100	1073.2	1
353.19	1000	1073.8	1
353.19	2000	1074.3	1
353.19	5000	1076	1
353.19	7000	1077.1	1
353.19	10000	1078.7	1
353.19	12000	1079.8	1
353.19	16000	1081.9	1.1
353.19	20000	1084	1.1
353.19	25000	1086.6	1.1
353.19	30000	1089.1	1.1
353.19	35000	1091.6	1.1
353.19	40000	1093.9	1.1
353.19	45000	1096.3	1.1
353.19	50000	1098.5	1.1
353.19	55000	1100.8	1.1
353.19	60000	1102.9	1.1
353.19	65000	1105	1.1
353.19	70000	1107.2	1.2
353.19	75000	1109.2	1.2
353.19	80000	1111.2	1.2
353.19	85000	1113.2	1.2
353.19	90000	1115.1	1.2
353.19	95000	1117	1.2
363.17	100	1065.6	1
363.17	1000	1066.2	1
363.17	2000	1066.8	1
363.17	5000	1068.5	1
363.17	7000	1069.6	1
363.17	10000	1071.4	1
363.17	12000	1072.5	1
363.17	16000	1074.6	1
363.17	20000	1076.9	1.1
363.17	25000	1079.4	1.1
363.17	30000	1082	1.1
363.17	35000	1084.6	1.1
363.17	40000	1087	1.1
363.17	45000	1089.4	1.1
363.17	50000	1091.8	1.1
363.17	55000	1094.1	1.1
363.17	60000	1096.3	1.1
363.17	65000	1098.5	1.1
363.17	70000	1100.5	1.1
363.17	75000	1102.6	1.2
363.17	80000	1104.8	1.2
363.17	85000	1106.8	1.2
363.17	90000	1108.8	1.2
363.17	95000	1110.7	1.2

System: triethylene glycol; phases: Liquid
Property: Mass density, kg/m3 (Liquid); method: Vibrating tube method
Temperature, K	Pressure, kPa	Mass density, kg/m3	uncertainty
283.08	100	1131.7	1
283.08	1000	1132.4	1
283.08	2000	1132.8	1.1
283.08	5000	1134.1	1.1
283.08	7000	1134.9	1.1
283.08	10000	1136.2	1.1
283.08	12000	1137.1	1.1
283.08	16000	1138.8	1.1
283.08	20000	1140.5	1.1
283.08	25000	1142.5	1.1
283.08	30000	1144.5	1.1
283.08	35000	1146.5	1.1
283.08	40000	1148.4	1.1
283.08	45000	1150.2	1.1
283.08	50000	1152.1	1.2
283.08	55000	1154	1.2
283.08	60000	1155.8	1.2
283.08	65000	1157.6	1.2
283.08	70000	1159.4	1.2
283.08	75000	1161	1.3
283.08	80000	1162.8	1.3
283.08	85000	1164.5	1.3
283.08	90000	1166.1	1.3
283.08	95000	1167.7	1.4
293.14	100	1124.1	1
293.14	1000	1124.5	1
293.14	2000	1124.9	1
293.14	5000	1126.3	1.1
293.14	7000	1127.3	1.1
293.14	10000	1128.6	1.1
293.14	12000	1129.4	1.1
293.14	16000	1131.3	1.1
293.14	20000	1132.9	1.1
293.14	25000	1135	1.1
293.14	30000	1137.1	1.1
293.14	35000	1139.2	1.1
293.14	40000	1141.1	1.1
293.14	45000	1143	1.1
293.14	50000	1145	1.2
293.14	55000	1146.9	1.2
293.14	60000	1148.7	1.2
293.14	65000	1150.5	1.2
293.14	70000	1152.4	1.2
293.14	75000	1154.2	1.2
293.14	80000	1155.9	1.3
293.14	85000	1157.6	1.3
293.14	90000	1159.2	1.3
293.14	95000	1160.9	1.3
303.12	100	1116.2	1
303.12	1000	1116.6	1
303.12	2000	1117.1	1
303.12	5000	1118.5	1.1
303.12	7000	1119.5	1.1
303.12	10000	1120.9	1.1
303.12	12000	1121.8	1.1
303.12	16000	1123.6	1.1
303.12	20000	1125.4	1.1
303.12	25000	1127.6	1.1
303.12	30000	1129.7	1.1
303.12	35000	1131.8	1.1
303.12	40000	1133.9	1.1
303.12	45000	1135.9	1.1
303.12	50000	1137.9	1.1
303.12	55000	1139.9	1.2
303.12	60000	1141.8	1.2
303.12	65000	1143.7	1.2
303.12	70000	1145.5	1.2
303.12	75000	1147.3	1.2
303.12	80000	1149.1	1.3
303.12	85000	1150.8	1.3
303.12	90000	1152.6	1.3
303.12	95000	1154.2	1.3
313.18	100	1108.3	1
313.18	1000	1108.7	1
313.18	2000	1109.2	1
313.18	5000	1110.7	1
313.18	7000	1111.7	1.1
313.18	10000	1113.1	1.1
313.18	12000	1114.1	1.1
313.18	16000	1115.9	1.1
313.18	20000	1117.8	1.1
313.18	25000	1120	1.1
313.18	30000	1122.3	1.1
313.18	35000	1124.4	1.1
313.18	40000	1126.6	1.1
313.18	45000	1128.7	1.1
313.18	50000	1130.6	1.1
313.18	55000	1132.6	1.2
313.18	60000	1134.6	1.2
313.18	65000	1136.6	1.2
313.18	70000	1138.5	1.2
313.18	75000	1140.3	1.2
313.18	80000	1142.1	1.2
313.18	85000	1143.9	1.3
313.18	90000	1145.6	1.3
313.18	95000	1147.4	1.3
323.14	100	1100.5	1
323.14	1000	1101	1
323.14	2000	1101.5	1
323.14	5000	1103	1
323.14	7000	1104.1	1
323.14	10000	1105.5	1.1
323.14	12000	1106.5	1.1
323.14	16000	1108.4	1.1
323.14	20000	1110.3	1.1
323.14	25000	1112.6	1.1
323.14	30000	1114.9	1.1
323.14	35000	1117.1	1.1
323.14	40000	1119.4	1.1
323.14	45000	1121.5	1.1
323.14	50000	1123.7	1.1
323.14	55000	1125.7	1.1
323.14	60000	1127.7	1.2
323.14	65000	1129.7	1.2
323.14	70000	1131.7	1.2
323.14	75000	1133.5	1.2
323.14	80000	1135.4	1.2
323.14	85000	1137.3	1.2
323.14	90000	1139	1.3
323.14	95000	1140.8	1.3
333.1	100	1092.7	1
333.1	1000	1093.2	1
333.1	2000	1093.8	1
333.1	5000	1095.4	1
333.1	7000	1096.4	1
333.1	10000	1098	1.1
333.1	12000	1098.9	1.1
333.1	16000	1100.9	1.1
333.1	20000	1102.9	1.1
333.1	25000	1105.3	1.1
333.1	30000	1107.7	1.1
333.1	35000	1110.1	1.1
333.1	40000	1112.3	1.1
333.1	45000	1114.5	1.1
333.1	50000	1116.6	1.1
333.1	55000	1118.9	1.1
333.1	60000	1120.8	1.1
333.1	65000	1122.9	1.2
333.1	70000	1124.9	1.2
333.1	75000	1126.9	1.2
333.1	80000	1128.8	1.2
333.1	85000	1130.7	1.2
333.1	90000	1132.5	1.3
333.1	95000	1134.4	1.3
343.14	100	1084.7	1
343.14	1000	1085.3	1
343.14	2000	1086	1
343.14	5000	1087.6	1
343.14	7000	1088.6	1
343.14	10000	1090.2	1
343.14	12000	1091.3	1
343.14	16000	1093.4	1.1
343.14	20000	1095.4	1.1
343.14	25000	1097.9	1.1
343.14	30000	1100.4	1.1
343.14	35000	1102.8	1.1
343.14	40000	1105.1	1.1
343.14	45000	1107.4	1.1
343.14	50000	1109.6	1.1
343.14	55000	1111.9	1.1
343.14	60000	1114	1.1
343.14	65000	1116.1	1.2
343.14	70000	1118.1	1.2
343.14	75000	1120.1	1.2
343.14	80000	1122.1	1.2
343.14	85000	1124.1	1.2
343.14	90000	1126	1.2
343.14	95000	1128	1.3
353.1	100	1077	1
353.1	1000	1076.9	1
353.1	2000	1078	1
353.1	5000	1079.8	1
353.1	7000	1080.9	1
353.1	10000	1082.6	1
353.1	12000	1083.6	1
353.1	16000	1085.7	1.1
353.1	20000	1088	1.1
353.1	25000	1090.5	1.1
353.1	30000	1093.2	1.1
353.1	35000	1095.5	1.1
353.1	40000	1098	1.1
353.1	45000	1100.3	1.1
353.1	50000	1102.6	1.1
353.1	55000	1104.9	1.1
353.1	60000	1107.3	1.1
353.1	65000	1109.1	1.1
353.1	70000	1111.5	1.2
353.1	75000	1113.3	1.2
353.1	80000	1115.6	1.2
353.1	85000	1117.4	1.2
353.1	90000	1119.5	1.2
353.1	95000	1121.3	1.2
363.16	100	1068.9	1
363.16	1000	1069.4	1
363.16	2000	1070.1	1
363.16	5000	1071.8	1
363.16	7000	1073	1
363.16	10000	1074.6	1
363.16	12000	1075.8	1
363.16	16000	1078.2	1
363.16	20000	1080.3	1.1
363.16	25000	1082.9	1.1
363.16	30000	1085.6	1.1
363.16	35000	1088.1	1.1
363.16	40000	1090.6	1.1
363.16	45000	1093	1.1
363.16	50000	1095.4	1.1
363.16	55000	1097.8	1.1
363.16	60000	1100.1	1.1
363.16	65000	1102.3	1.1
363.16	70000	1104.5	1.1
363.16	75000	1106.6	1.2
363.16	80000	1108.7	1.2
363.16	85000	1110.7	1.2
363.16	90000	1112.8	1.2
363.16	95000	1114.8	1.2

System: tetraethylene glycol; phases: Liquid
Property: Mass density, kg/m3 (Liquid); method: Vibrating tube method
Temperature, K	Pressure, kPa	Mass density, kg/m3	uncertainty
283.13	100	1132	1
283.13	1000	1132.4	1
283.13	2000	1132.8	1.1
283.13	5000	1134.1	1.1
283.13	7000	1135	1.1
283.13	10000	1136.4	1.1
283.13	12000	1137.2	1.1
283.13	16000	1138.9	1.1
283.13	20000	1140.6	1.1
283.13	25000	1142.8	1.1
283.13	30000	1144.8	1.1
283.13	35000	1146.9	1.1
283.13	40000	1148.8	1.1
283.13	45000	1150.7	1.1
283.13	50000	1152.6	1.2
283.13	55000	1154.5	1.2
283.13	60000	1156.3	1.2
283.13	65000	1158.2	1.2
283.13	70000	1159.9	1.2
283.13	75000	1161.7	1.3
283.13	80000	1163.3	1.3
283.13	85000	1165.1	1.3
283.13	90000	1166.7	1.3
283.13	95000	1168.4	1.4
293.11	100	1123.8	1
293.11	1000	1124.2	1
293.11	2000	1124.7	1
293.11	5000	1126.1	1.1
293.11	7000	1127	1.1
293.11	10000	1128.4	1.1
293.11	12000	1129.2	1.1
293.11	16000	1131.1	1.1
293.11	20000	1132.8	1.1
293.11	25000	1134.9	1.1
293.11	30000	1137.1	1.1
293.11	35000	1139	1.1
293.11	40000	1141.1	1.1
293.11	45000	1143.1	1.1
293.11	50000	1145.1	1.2
293.11	55000	1147	1.2
293.11	60000	1148.9	1.2
293.11	65000	1150.8	1.2
293.11	70000	1152.6	1.2
293.11	75000	1154.4	1.2
293.11	80000	1156.2	1.3
293.11	85000	1157.9	1.3
293.11	90000	1159.6	1.3
293.11	95000	1161.3	1.3
303.13	100	1115.8	1
303.13	1000	1116.1	1
303.13	2000	1116.7	1
303.13	5000	1118.1	1.1
303.13	7000	1119.1	1.1
303.13	10000	1120.5	1.1
303.13	12000	1121.4	1.1
303.13	16000	1123.3	1.1
303.13	20000	1125	1.1
303.13	25000	1127.3	1.1
303.13	30000	1129.5	1.1
303.13	35000	1131.6	1.1
303.13	40000	1133.7	1.1
303.13	45000	1135.7	1.1
303.13	50000	1137.7	1.1
303.13	55000	1139.7	1.2
303.13	60000	1141.7	1.2
303.13	65000	1143.6	1.2
303.13	70000	1145.5	1.2
303.13	75000	1147.4	1.2
303.13	80000	1149.1	1.3
303.13	85000	1150.8	1.3
303.13	90000	1152.6	1.3
303.13	95000	1154.4	1.3
313.22	100	1107.8	1
313.22	1000	1108.1	1
313.22	2000	1108.6	1
313.22	5000	1110.1	1
313.22	7000	1111.1	1.1
313.22	10000	1112.6	1.1
313.22	12000	1113.6	1.1
313.22	16000	1115.5	1.1
313.22	20000	1117.3	1.1
313.22	25000	1119.7	1.1
313.22	30000	1121.9	1.1
313.22	35000	1124.1	1.1
313.22	40000	1126.3	1.1
313.22	45000	1128.4	1.1
313.22	50000	1130.4	1.1
313.22	55000	1132.5	1.2
313.22	60000	1134.5	1.2
313.22	65000	1136.5	1.2
313.22	70000	1138.4	1.2
313.22	75000	1140.3	1.2
313.22	80000	1142.2	1.2
313.22	85000	1144	1.3
313.22	90000	1145.8	1.3
313.22	95000	1147.7	1.3
323.2	100	1099.8	1
323.2	1000	1100.1	1
323.2	2000	1100.6	1
323.2	5000	1102.2	1
323.2	7000	1103.2	1
323.2	10000	1104.7	1.1
323.2	12000	1105.6	1.1
323.2	16000	1107.7	1.1
323.2	20000	1109.6	1.1
323.2	25000	1111.9	1.1
323.2	30000	1114.3	1.1
323.2	35000	1116.6	1.1
323.2	40000	1118.8	1.1
323.2	45000	1121	1.1
323.2	50000	1123.2	1.1
323.2	55000	1125.5	1.1
323.2	60000	1127.4	1.2
323.2	65000	1129.4	1.2
323.2	70000	1131.3	1.2
323.2	75000	1133.3	1.2
323.2	80000	1135.2	1.2
323.2	85000	1137.1	1.2
323.2	90000	1139	1.3
323.2	95000	1140.7	1.3
333.2	100	1091.8	1
333.2	1000	1092.3	1
333.2	2000	1092.9	1
333.2	5000	1094.5	1
333.2	7000	1095.6	1
333.2	10000	1097.1	1
333.2	12000	1098.1	1.1
333.2	16000	1100.2	1.1
333.2	20000	1102.2	1.1
333.2	25000	1104.6	1.1
333.2	30000	1107.1	1.1
333.2	35000	1109.4	1.1
333.2	40000	1111.7	1.1
333.2	45000	1113.9	1.1
333.2	50000	1116.2	1.1
333.2	55000	1118.4	1.1
333.2	60000	1120.5	1.1
333.2	65000	1122.5	1.2
333.2	70000	1124.6	1.2
333.2	75000	1126.6	1.2
333.2	80000	1128.5	1.2
333.2	85000	1130.4	1.2
333.2	90000	1132.2	1.3
333.2	95000	1134.1	1.3
343.17	100	1084	1
343.17	1000	1084.4	1
343.17	2000	1085	1
343.17	5000	1086.7	1
343.17	7000	1087.7	1
343.17	10000	1089.4	1
343.17	12000	1090.4	1
343.17	16000	1092.5	1.1
343.17	20000	1094.6	1.1
343.17	25000	1097.1	1.1
343.17	30000	1099.7	1.1
343.17	35000	1102.1	1.1
343.17	40000	1104.5	1.1
343.17	45000	1106.8	1.1
343.17	50000	1109.1	1.1
343.17	55000	1111.3	1.1
343.17	60000	1113.5	1.1
343.17	65000	1115.7	1.2
343.17	70000	1117.7	1.2
343.17	75000	1119.8	1.2
343.17	80000	1121.9	1.2
343.17	85000	1123.8	1.2
343.17	90000	1125.8	1.2
343.17	95000	1127.6	1.3
353.13	100	1075.9	1
353.13	1000	1076.4	1
353.13	2000	1076.9	1
353.13	5000	1078.7	1
353.13	7000	1079.9	1
353.13	10000	1081.6	1
353.13	12000	1082.8	1
353.13	16000	1084.9	1.1
353.13	20000	1087.1	1.1
353.13	25000	1089.8	1.1
353.13	30000	1092.3	1.1
353.13	35000	1094.9	1.1
353.13	40000	1097.3	1.1
353.13	45000	1099.8	1.1
353.13	50000	1102.1	1.1
353.13	55000	1104.3	1.1
353.13	60000	1106.6	1.1
353.13	65000	1108.9	1.1
353.13	70000	1111	1.2
353.13	75000	1113.2	1.2
353.13	80000	1115.2	1.2
353.13	85000	1117.2	1.2
353.13	90000	1119.2	1.2
353.13	95000	1121.1	1.2
363.2	100	1067.8	1
363.2	1000	1068.4	1
363.2	2000	1069	1
363.2	5000	1070.8	1
363.2	7000	1072	1
363.2	10000	1073.7	1
363.2	12000	1074.9	1
363.2	16000	1077.1	1
363.2	20000	1079.5	1.1
363.2	25000	1082.3	1.1
363.2	30000	1084.8	1.1
363.2	35000	1087.5	1.1
363.2	40000	1089.9	1.1
363.2	45000	1092.4	1.1
363.2	50000	1094.8	1.1
363.2	55000	1097.2	1.1
363.2	60000	1099.5	1.1
363.2	65000	1101.8	1.1
363.2	70000	1104	1.1
363.2	75000	1106.2	1.2
363.2	80000	1108.4	1.2
363.2	85000	1110.4	1.2
363.2	90000	1112.5	1.2
363.2	95000	1114.4	1.2

System: 3,6,9,12-tetraoxatetradecane-1,14-diol; phases: Liquid
Property: Mass density, kg/m3 (Liquid); method: Vibrating tube method
Temperature, K	Pressure, kPa	Mass density, kg/m3	uncertainty
283.16	100	1133.5	1
283.16	1000	1134	1
283.16	2000	1134.5	1.1
283.16	5000	1135.8	1.1
283.16	7000	1136.7	1.1
283.16	10000	1137.9	1.1
283.16	12000	1138.9	1.1
283.16	16000	1140.7	1.1
283.16	20000	1142.5	1.1
283.16	25000	1144.6	1.1
283.16	30000	1146.6	1.1
283.16	35000	1148.6	1.1
283.16	40000	1150.5	1.1
283.16	45000	1152.4	1.2
283.16	50000	1154.4	1.2
283.16	55000	1156.2	1.2
283.16	60000	1158.2	1.2
283.16	65000	1160.1	1.2
283.16	70000	1161.8	1.2
283.16	75000	1163.6	1.3
283.16	80000	1165.3	1.3
283.16	85000	1167	1.3
283.16	90000	1168.6	1.3
283.16	95000	1170.3	1.4
293.16	100	1125.5	1
293.16	1000	1126	1
293.16	2000	1126.4	1
293.16	5000	1127.9	1.1
293.16	7000	1128.9	1.1
293.16	10000	1130.2	1.1
293.16	12000	1131.1	1.1
293.16	16000	1132.9	1.1
293.16	20000	1134.6	1.1
293.16	25000	1136.5	1.1
293.16	30000	1138.7	1.1
293.16	35000	1140.8	1.1
293.16	40000	1143	1.1
293.16	45000	1145	1.1
293.16	50000	1146.8	1.2
293.16	55000	1148.8	1.2
293.16	60000	1150.7	1.2
293.16	65000	1152.6	1.2
293.16	70000	1154.5	1.2
293.16	75000	1156.2	1.3
293.16	80000	1158	1.3
293.16	85000	1159.7	1.3
293.16	90000	1161.4	1.3
293.16	95000	1163.3	1.4
303.15	100	1117	1
303.15	1000	1117.5	1
303.15	2000	1118	1
303.15	5000	1119.8	1.1
303.15	7000	1120.8	1.1
303.15	10000	1122.1	1.1
303.15	12000	1123.1	1.1
303.15	16000	1125	1.1
303.15	20000	1126.8	1.1
303.15	25000	1128.3	1.1
303.15	30000	1131	1.1
303.15	35000	1133.2	1.1
303.15	40000	1135.4	1.1
303.15	45000	1137.4	1.1
303.15	50000	1139.5	1.1
303.15	55000	1141.4	1.2
303.15	60000	1143.2	1.2
303.15	65000	1145.1	1.2
303.15	70000	1147.1	1.2
303.15	75000	1148.9	1.2
303.15	80000	1150.8	1.3
303.15	85000	1152.8	1.3
303.15	90000	1154.6	1.3
303.15	95000	1156.4	1.3
313.16	100	1109.3	1
313.16	1000	1109.8	1
313.16	2000	1110.3	1
313.16	5000	1111.9	1
313.16	7000	1112.9	1.1
313.16	10000	1114.4	1.1
313.16	12000	1115.3	1.1
313.16	16000	1117.2	1.1
313.16	20000	1119.1	1.1
313.16	25000	1121.2	1.1
313.16	30000	1123.5	1.1
313.16	35000	1125.5	1.1
313.16	40000	1127.8	1.1
313.16	45000	1129.9	1.1
313.16	50000	1131.9	1.1
313.16	55000	1134	1.2
313.16	60000	1136.1	1.2
313.16	65000	1138.1	1.2
313.16	70000	1140.1	1.2
313.16	75000	1141.9	1.2
313.16	80000	1143.8	1.2
313.16	85000	1145.7	1.3
313.16	90000	1147.5	1.3
313.16	95000	1149.4	1.3
323.15	100	1101.1	1
323.15	1000	1101.5	1
323.15	2000	1102.1	1
323.15	5000	1103.7	1
323.15	7000	1104.7	1
323.15	10000	1106.2	1.1
323.15	12000	1107.2	1.1
323.15	16000	1109.1	1.1
323.15	20000	1111.1	1.1
323.15	25000	1113.6	1.1
323.15	30000	1115.7	1.1
323.15	35000	1118.1	1.1
323.15	40000	1120.4	1.1
323.15	45000	1122.7	1.1
323.15	50000	1124.9	1.1
323.15	55000	1126.6	1.1
323.15	60000	1128.6	1.2
323.15	65000	1130.8	1.2
323.15	70000	1132.7	1.2
323.15	75000	1134.5	1.2
323.15	80000	1136.5	1.2
323.15	85000	1138.6	1.3
323.15	90000	1140.4	1.3
323.15	95000	1142.4	1.3
333.15	100	1092.9	1
333.15	1000	1093.5	1
333.15	2000	1094	1
333.15	5000	1095.7	1
333.15	7000	1096.8	1
333.15	10000	1098.3	1.1
333.15	12000	1099.3	1.1
333.15	16000	1101.4	1.1
333.15	20000	1103.3	1.1
333.15	25000	1105.8	1.1
333.15	30000	1108.1	1.1
333.15	35000	1110.4	1.1
333.15	40000	1112.8	1.1
333.15	45000	1115.1	1.1
333.15	50000	1117.1	1.1
333.15	55000	1119.4	1.1
333.15	60000	1121.3	1.1
333.15	65000	1123.4	1.2
333.15	70000	1125.6	1.2
333.15	75000	1127.7	1.2
333.15	80000	1129.8	1.2
333.15	85000	1131.8	1.2
333.15	90000	1133.6	1.3
333.15	95000	1135.6	1.3
343.16	100	1084.9	1
343.16	1000	1085.4	1
343.16	2000	1086.3	1
343.16	5000	1087.8	1
343.16	7000	1088.8	1
343.16	10000	1090.6	1
343.16	12000	1091.6	1
343.16	16000	1093.7	1.1
343.16	20000	1095.8	1.1
343.16	25000	1097.9	1.1
343.16	30000	1100.4	1.1
343.16	35000	1102.5	1.1
343.16	40000	1104.8	1.1
343.16	45000	1107	1.1
343.16	50000	1109.8	1.1
343.16	55000	1112.2	1.1
343.16	60000	1114.4	1.1
343.16	65000	1116.7	1.2
343.16	70000	1118.3	1.2
343.16	75000	1120.9	1.2
343.16	80000	1122.9	1.2
343.16	85000	1124.9	1.2
343.16	90000	1126.9	1.2
343.16	95000	1129	1.3
353.16	100	1076.7	1
353.16	1000	1077.3	1
353.16	2000	1077.9	1
353.16	5000	1079.7	1
353.16	7000	1080.8	1
353.16	10000	1082.6	1
353.16	12000	1083.6	1
353.16	16000	1085.8	1.1
353.16	20000	1088	1.1
353.16	25000	1090.6	1.1
353.16	30000	1093.2	1.1
353.16	35000	1095.8	1.1
353.16	40000	1098.1	1.1
353.16	45000	1100.5	1.1
353.16	50000	1102.5	1.1
353.16	55000	1104.8	1.1
353.16	60000	1107.2	1.1
353.16	65000	1109.6	1.1
353.16	70000	1111.6	1.2
353.16	75000	1113.8	1.2
353.16	80000	1115.9	1.2
353.16	85000	1118.2	1.2
353.16	90000	1119.9	1.2
353.16	95000	1122.1	1.3
363.16	100	1068.6	1
363.16	1000	1069.2	1
363.16	2000	1069.9	1
363.16	5000	1071.6	1
363.16	7000	1072.9	1
363.16	10000	1074.5	1
363.16	12000	1075.7	1
363.16	16000	1077.9	1
363.16	20000	1080.2	1.1
363.16	25000	1082.9	1.1
363.16	30000	1085.6	1.1
363.16	35000	1088	1.1
363.16	40000	1090.5	1.1
363.16	45000	1092.9	1.1
363.16	50000	1095.4	1.1
363.16	55000	1097.7	1.1
363.16	60000	1100.3	1.1
363.16	65000	1102.5	1.1
363.16	70000	1104.7	1.1
363.16	75000	1106.8	1.2
363.16	80000	1109	1.2
363.16	85000	1111.2	1.2
363.16	90000	1113.2	1.2
363.16	95000	1115.3	1.2

System: 3,6,9,12,15-pentaoxaheptadecane-1,17-diol; phases: Liquid
Property: Mass density, kg/m3 (Liquid); method: Vibrating tube method
Temperature, K	Pressure, kPa	Mass density, kg/m3	uncertainty
283.13	100	1134.5	1.4
283.13	1000	1134.8	1.4
283.13	2000	1135.1	1.4
283.13	5000	1136.4	1.5
283.13	7000	1137.3	1.5
283.13	10000	1138.5	1.5
283.13	12000	1139.3	1.5
283.13	16000	1141.1	1.5
283.13	20000	1142.8	1.5
283.13	25000	1144.6	1.5
283.13	30000	1146.5	1.6
283.13	35000	1148.5	1.6
283.13	40000	1150.6	1.6
283.13	45000	1152.6	1.6
283.13	50000	1154.4	1.7
283.13	55000	1156.4	1.7
283.13	60000	1158.4	1.7
283.13	65000	1160	1.8
283.13	70000	1161.8	1.8
283.13	75000	1163.6	1.8
283.13	80000	1165.3	1.9
283.13	85000	1167.1	1.9
283.13	90000	1168.7	1.9
283.13	95000	1170.5	2
293.16	100	1125.6	1.4
293.16	1000	1126	1.4
293.16	2000	1126.5	1.4
293.16	5000	1127.9	1.4
293.16	7000	1128.9	1.4
293.16	10000	1130.3	1.5
293.16	12000	1131.1	1.5
293.16	16000	1132.9	1.5
293.16	20000	1134.6	1.5
293.16	25000	1136.8	1.5
293.16	30000	1138.3	1.5
293.16	35000	1140.8	1.6
293.16	40000	1143.1	1.6
293.16	45000	1144.9	1.6
293.16	50000	1146.9	1.6
293.16	55000	1148.9	1.7
293.16	60000	1150.8	1.7
293.16	65000	1152.8	1.7
293.16	70000	1154.6	1.8
293.16	75000	1156.4	1.8
293.16	80000	1158.3	1.8
293.16	85000	1160	1.9
293.16	90000	1161.7	1.9
293.16	95000	1163.5	1.9
303.15	100	1117.5	1.4
303.15	1000	1118	1.4
303.15	2000	1118.5	1.4
303.15	5000	1120	1.4
303.15	7000	1120.8	1.4
303.15	10000	1122.3	1.4
303.15	12000	1123.2	1.5
303.15	16000	1124.9	1.5
303.15	20000	1126.8	1.5
303.15	25000	1129.1	1.5
303.15	30000	1131.2	1.5
303.15	35000	1133.4	1.6
303.15	40000	1135.4	1.6
303.15	45000	1137.5	1.6
303.15	50000	1139.4	1.6
303.15	55000	1141.6	1.7
303.15	60000	1143.4	1.7
303.15	65000	1145.2	1.7
303.15	70000	1147.2	1.7
303.15	75000	1149.1	1.8
303.15	80000	1150.8	1.8
303.15	85000	1152.9	1.8
303.15	90000	1154.8	1.9
303.15	95000	1156.4	1.9
313.16	100	1109.2	1.4
313.16	1000	1109.7	1.4
313.16	2000	1110.2	1.4
313.16	5000	1111.9	1.4
313.16	7000	1112.8	1.4
313.16	10000	1114.3	1.4
313.16	12000	1115.2	1.4
313.16	16000	1117.1	1.5
313.16	20000	1119	1.5
313.16	25000	1121.3	1.5
313.16	30000	1123.4	1.5
313.16	35000	1125.7	1.5
313.16	40000	1127.8	1.6
313.16	45000	1129.9	1.6
313.16	50000	1132	1.6
313.16	55000	1134.2	1.6
313.16	60000	1135.7	1.7
313.16	65000	1138.1	1.7
313.16	70000	1140	1.7
313.16	75000	1142.1	1.7
313.16	80000	1144	1.8
313.16	85000	1145.9	1.8
313.16	90000	1147.8	1.8
313.16	95000	1149.7	1.9
323.14	100	1100.9	1.4
323.14	1000	1101.3	1.4
323.14	2000	1101.8	1.4
323.14	5000	1103.5	1.4
323.14	7000	1104.5	1.4
323.14	10000	1106	1.4
323.14	12000	1106.9	1.4
323.14	16000	1109	1.4
323.14	20000	1110.5	1.5
323.14	25000	1113.2	1.5
323.14	30000	1115.6	1.5
323.14	35000	1118	1.5
323.14	40000	1120.2	1.5
323.14	45000	1122.4	1.6
323.14	50000	1124.5	1.6
323.14	55000	1126.4	1.6
323.14	60000	1128.5	1.6
323.14	65000	1130.6	1.7
323.14	70000	1132.6	1.7
323.14	75000	1134.6	1.7
323.14	80000	1136.8	1.7
323.14	85000	1138.6	1.8
323.14	90000	1140.7	1.8
323.14	95000	1142.4	1.8
333.15	100	1092.7	1.4
333.15	1000	1093.3	1.4
333.15	2000	1093.8	1.4
333.15	5000	1095.4	1.4
333.15	7000	1096.5	1.4
333.15	10000	1098.2	1.4
333.15	12000	1099.1	1.4
333.15	16000	1101.3	1.4
333.15	20000	1103.4	1.4
333.15	25000	1105.8	1.5
333.15	30000	1108.2	1.5
333.15	35000	1110.5	1.5
333.15	40000	1112.8	1.5
333.15	45000	1115.1	1.5
333.15	50000	1117.3	1.6
333.15	55000	1119.4	1.6
333.15	60000	1121.7	1.6
333.15	65000	1123.7	1.6
333.15	70000	1125.5	1.7
333.15	75000	1127.8	1.7
333.15	80000	1130	1.7
333.15	85000	1131.9	1.7
333.15	90000	1133.8	1.8
333.15	95000	1135.7	1.8
343.16	100	1084.7	1.4
343.16	1000	1085.3	1.4
343.16	2000	1085.9	1.4
343.16	5000	1087.6	1.4
343.16	7000	1088.7	1.4
343.16	10000	1090.4	1.4
343.16	12000	1091.2	1.4
343.16	16000	1093.5	1.4
343.16	20000	1095.7	1.4
343.16	25000	1097.9	1.4
343.16	30000	1100.5	1.5
343.16	35000	1102.8	1.5
343.16	40000	1105.4	1.5
343.16	45000	1107.6	1.5
343.16	50000	1109.9	1.5
343.16	55000	1112.1	1.6
343.16	60000	1114.5	1.6
343.16	65000	1116.6	1.6
343.16	70000	1118.8	1.6
343.16	75000	1120.9	1.7
343.16	80000	1123.1	1.7
343.16	85000	1125.2	1.7
343.16	90000	1127.2	1.7
343.16	95000	1129.2	1.8
353.14	100	1076.7	1.4
353.14	1000	1077.2	1.4
353.14	2000	1077.9	1.4
353.14	5000	1079.7	1.4
353.14	7000	1080.7	1.4
353.14	10000	1082.4	1.4
353.14	12000	1083.6	1.4
353.14	16000	1085.7	1.4
353.14	20000	1087.8	1.4
353.14	25000	1090.4	1.4
353.14	30000	1093	1.4
353.14	35000	1095.6	1.5
353.14	40000	1098.2	1.5
353.14	45000	1100.3	1.5
353.14	50000	1102.7	1.5
353.14	55000	1105	1.5
353.14	60000	1107.4	1.6
353.14	65000	1109.6	1.6
353.14	70000	1111.8	1.6
353.14	75000	1114.2	1.6
353.14	80000	1116.1	1.7
353.14	85000	1118.3	1.7
353.14	90000	1120.3	1.7
353.14	95000	1122.4	1.7
363.13	100	1068.4	1.3
363.13	1000	1068.6	1.3
363.13	2000	1069	1.3
363.13	5000	1071.6	1.4
363.13	7000	1072.7	1.4
363.13	10000	1074.6	1.4
363.13	12000	1075.6	1.4
363.13	16000	1078	1.4
363.13	20000	1080.2	1.4
363.13	25000	1083	1.4
363.13	30000	1085.4	1.4
363.13	35000	1088.1	1.4
363.13	40000	1090.6	1.5
363.13	45000	1092.7	1.5
363.13	50000	1095.2	1.5
363.13	55000	1097.6	1.5
363.13	60000	1100.1	1.5
363.13	65000	1102.5	1.6
363.13	70000	1104.8	1.6
363.13	75000	1107	1.6
363.13	80000	1109.2	1.6
363.13	85000	1111.2	1.7
363.13	90000	1113.5	1.7
363.13	95000	1115.6	1.7
