Measured thermophysical data. Experimental and modeled volumetric behavior of linear and branched ethers
Source: Fluid Phase Equilib., 2016, 10.1016/j.fluid.2016.02.009
Compound 1: butyl methyl ether, C5H12O, InChI=1S/C5H12O/c1-3-4-5-6-2/h3-5H2,1-2H3, purity 99%
Compound 2: 2-methoxy-2-methylpropane, C5H12O, InChI=1S/C5H12O/c1-5(2,3)6-4/h1-4H3, purity 99%
Compound 3: butyl ethyl ether, C6H14O, InChI=1S/C6H14O/c1-3-5-6-7-4-2/h3-6H2,1-2H3, purity 99%
Compound 4: 2-ethoxy-2-methylpropane, C6H14O, InChI=1S/C6H14O/c1-5-7-6(2,3)4/h5H2,1-4H3, purity 99%
Compound 5: dipropyl ether, C6H14O, InChI=1S/C6H14O/c1-3-5-7-6-4-2/h3-6H2,1-2H3, purity 99%
Compound 6: diisopropyl ether, C6H14O, InChI=1S/C6H14O/c1-5(2)7-6(3)4/h5-6H,1-4H3, purity 99%
Compound 7: dibutyl ether, C8H18O, InChI=1S/C8H18O/c1-3-5-7-9-8-6-4-2/h3-8H2,1-2H3, purity 99%
Compound 8: dipentyl ether, C10H22O, InChI=1S/C10H22O/c1-3-5-7-9-11-10-8-6-4-2/h3-10H2,1-2H3, purity 99%
Compound 9: di-(3-methylbutyl) ether, C10H22O, InChI=1S/C10H22O/c1-9(2)5-7-11-8-6-10(3)4/h9-10H,5-8H2,1-4H3, purity 99%

System: butyl methyl ether; phases: Liquid
Property: Mass density, kg/m3 (Liquid); method: Vibrating tube method
Temperature, K	Pressure, kPa	Mass density, kg/m3	uncertainty
283.15	100	755.88	0.3
288.15	100	750.88	0.3
293.15	100	745.85	0.3
298.15	100	740.78	0.3
303.15	100	735.68	0.3
308.15	100	730.53	0.3
313.15	100	725.34	0.3
318.15	100	720.1	0.3
323.15	100	714.8	0.3
328.15	100	709.45	0.3
333.15	100	704.04	0.3
283.15	5000	760.82	0.33
288.15	5000	756.01	0.33
293.15	5000	751.18	0.33
298.15	5000	746.29	0.33
303.15	5000	741.39	0.33
308.15	5000	736.43	0.33
313.15	5000	731.47	0.33
318.15	5000	726.46	0.34
323.15	5000	721.41	0.34
328.15	5000	716.32	0.34
333.15	5000	711.19	0.34
283.15	10000	765.42	0.36
288.15	10000	760.78	0.36
293.15	10000	756.08	0.36
298.15	10000	751.36	0.37
303.15	10000	746.66	0.37
308.15	10000	741.88	0.37
313.15	10000	737.11	0.37
318.15	10000	732.32	0.37
323.15	10000	727.49	0.38
328.15	10000	722.64	0.38
333.15	10000	717.74	0.38
283.15	15000	769.77	0.39
288.15	15000	765.26	0.4
293.15	15000	760.71	0.4
298.15	15000	756.15	0.4
303.15	15000	751.6	0.4
308.15	15000	746.98	0.41
313.15	15000	742.4	0.41
318.15	15000	737.77	0.41
323.15	15000	733.12	0.41
328.15	15000	728.5	0.42
333.15	15000	723.77	0.42
283.15	20000	773.91	0.43
288.15	20000	769.53	0.43
293.15	20000	765.09	0.43
298.15	20000	760.68	0.44
303.15	20000	756.25	0.44
308.15	20000	751.8	0.44
313.15	20000	747.36	0.45
318.15	20000	742.89	0.45
323.15	20000	738.42	0.45
328.15	20000	733.93	0.45
333.15	20000	729.38	0.46
283.15	25000	777.86	0.46
288.15	25000	773.58	0.46
293.15	25000	769.27	0.47
298.15	25000	764.97	0.47
303.15	25000	760.68	0.47
308.15	25000	756.35	0.48
313.15	25000	752.04	0.48
318.15	25000	747.69	0.48
323.15	25000	743.37	0.49
328.15	25000	739.05	0.49
333.15	25000	734.64	0.5
283.15	30000	781.65	0.49
288.15	30000	777.48	0.5
293.15	30000	773.26	0.5
298.15	30000	769.08	0.51
303.15	30000	764.89	0.51
308.15	30000	760.67	0.52
313.15	30000	756.48	0.52
318.15	30000	752.27	0.53
323.15	30000	748.07	0.53
328.15	30000	743.83	0.54
333.15	30000	739.61	0.54
283.15	35000	785.29	0.53
288.15	35000	781.19	0.53
293.15	35000	777.09	0.54
298.15	35000	772.99	0.55
303.15	35000	768.9	0.55
308.15	35000	764.79	0.56
313.15	35000	760.7	0.56
318.15	35000	756.62	0.57
323.15	35000	752.53	0.57
328.15	35000	748.41	0.58
333.15	35000	744.31	0.59
283.15	40000	788.8	0.56
288.15	40000	784.79	0.57
293.15	40000	780.75	0.58
298.15	40000	776.76	0.58
303.15	40000	772.76	0.59
308.15	40000	768.74	0.6
313.15	40000	764.74	0.6
318.15	40000	760.76	0.61
323.15	40000	756.76	0.62
328.15	40000	752.76	0.62
333.15	40000	748.78	0.63
283.15	45000	792.18	0.6
288.15	45000	788.24	0.61
293.15	45000	784.3	0.61
298.15	45000	780.38	0.62
303.15	45000	776.46	0.63
308.15	45000	772.53	0.63
313.15	45000	768.63	0.64
318.15	45000	764.73	0.65
323.15	45000	760.83	0.66
328.15	45000	756.92	0.66
333.15	45000	753.01	0.67
283.15	50000	795.45	0.63
288.15	50000	791.57	0.64
293.15	50000	787.7	0.65
298.15	50000	783.87	0.65
303.15	50000	780.03	0.66
308.15	50000	776.18	0.67
313.15	50000	772.34	0.68
318.15	50000	768.51	0.69
323.15	50000	764.7	0.69
328.15	50000	760.91	0.7
333.15	50000	757.06	0.71
283.15	55000	798.61	0.66
288.15	55000	794.8	0.67
293.15	55000	791	0.68
298.15	55000	787.24	0.69
303.15	55000	783.46	0.7
308.15	55000	779.69	0.71
313.15	55000	775.93	0.71
318.15	55000	772.16	0.72
323.15	55000	768.43	0.73
328.15	55000	764.72	0.74
333.15	55000	760.97	0.75
283.15	60000	801.68	0.7
288.15	60000	797.94	0.7
293.15	60000	794.21	0.71
298.15	60000	790.51	0.72
303.15	60000	786.77	0.73
308.15	60000	783.07	0.74
313.15	60000	779.39	0.75
318.15	60000	775.71	0.76
323.15	60000	772.05	0.77
328.15	60000	768.39	0.78
333.15	60000	764.71	0.78
283.15	65000	804.67	0.73
288.15	65000	800.98	0.74
293.15	65000	797.33	0.75
298.15	65000	793.65	0.76
303.15	65000	790	0.76
308.15	65000	786.36	0.77
313.15	65000	782.73	0.78
318.15	65000	779.13	0.79
323.15	65000	775.54	0.8
328.15	65000	771.91	0.81
333.15	65000	768.34	0.82

System: 2-methoxy-2-methylpropane; phases: Liquid
Property: Mass density, kg/m3 (Liquid); method: Vibrating tube method
Temperature, K	Pressure, kPa	Mass density, kg/m3	uncertainty
283.15	100	750.94	0.3
288.15	100	745.79	0.3
293.15	100	740.59	0.3
298.15	100	735.34	0.3
303.15	100	730.04	0.3
308.15	100	724.69	0.3
313.15	100	719.29	0.3
318.15	100	713.84	0.3
323.15	100	708.45	0.3
283.15	5000	756.29	0.33
288.15	5000	751.33	0.33
293.15	5000	746.34	0.33
298.15	5000	741.32	0.33
303.15	5000	736.27	0.33
308.15	5000	731.19	0.33
313.15	5000	726.07	0.34
318.15	5000	720.92	0.34
323.15	5000	715.73	0.34
283.15	10000	761.29	0.36
288.15	10000	756.52	0.36
293.15	10000	751.7	0.37
298.15	10000	746.89	0.37
303.15	10000	742.05	0.37
308.15	10000	737.18	0.37
313.15	10000	732.27	0.37
318.15	10000	727.36	0.38
323.15	10000	722.39	0.38
283.15	15000	765.93	0.4
288.15	15000	761.32	0.4
293.15	15000	756.68	0.4
298.15	15000	752.04	0.4
303.15	15000	747.37	0.41
308.15	15000	742.69	0.41
313.15	15000	737.97	0.41
318.15	15000	733.26	0.41
323.15	15000	728.51	0.42
283.15	20000	770.32	0.43
288.15	20000	765.86	0.43
293.15	20000	761.35	0.44
298.15	20000	756.85	0.44
303.15	20000	752.37	0.44
308.15	20000	747.84	0.44
313.15	20000	743.29	0.45
318.15	20000	738.74	0.45
323.15	20000	734.2	0.45
283.15	25000	774.48	0.46
288.15	25000	770.15	0.47
293.15	25000	765.77	0.47
298.15	25000	761.42	0.47
303.15	25000	757.05	0.48
308.15	25000	752.67	0.48
313.15	25000	748.27	0.48
318.15	25000	743.91	0.49
323.15	25000	739.51	0.49
283.15	30000	778.47	0.49
288.15	30000	774.24	0.5
293.15	30000	770.01	0.5
298.15	30000	765.75	0.51
303.15	30000	761.51	0.52
308.15	30000	757.26	0.52
313.15	30000	752.99	0.53
318.15	30000	748.75	0.53
323.15	30000	744.49	0.54
283.15	35000	782.29	0.53
288.15	35000	778.15	0.54
293.15	35000	774	0.54
298.15	35000	769.88	0.55
303.15	35000	765.74	0.56
308.15	35000	761.6	0.56
313.15	35000	757.46	0.57
318.15	35000	753.35	0.57
323.15	35000	749.2	0.58
283.15	40000	785.94	0.57
288.15	40000	781.89	0.57
293.15	40000	777.85	0.58
298.15	40000	773.81	0.59
303.15	40000	769.79	0.59
308.15	40000	765.75	0.6
313.15	40000	761.71	0.61
318.15	40000	757.7	0.61
323.15	40000	753.67	0.62
283.15	45000	789.45	0.6
288.15	45000	785.49	0.61
293.15	45000	781.54	0.62
298.15	45000	777.6	0.62
303.15	45000	773.65	0.63
308.15	45000	769.71	0.64
313.15	45000	765.77	0.65
318.15	45000	761.86	0.65
323.15	45000	757.92	0.66
283.15	50000	792.86	0.64
288.15	50000	788.97	0.64
293.15	50000	785.09	0.65
298.15	50000	781.23	0.66
303.15	50000	777.36	0.67
308.15	50000	773.49	0.68
313.15	50000	769.65	0.68
318.15	50000	765.83	0.69
323.15	50000	761.98	0.7
283.15	55000	796.13	0.67
288.15	55000	792.3	0.68
293.15	55000	788.51	0.69
298.15	55000	784.71	0.69
303.15	55000	780.95	0.7
308.15	55000	777.14	0.71
313.15	55000	773.39	0.72
318.15	55000	769.63	0.73
323.15	55000	765.85	0.74
283.15	60000	799.29	0.7
288.15	60000	795.55	0.71
293.15	60000	791.81	0.72
298.15	60000	788.1	0.73
303.15	60000	784.37	0.74
308.15	60000	780.65	0.75
313.15	60000	776.97	0.76
318.15	60000	773.29	0.76
323.15	60000	769.61	0.77
283.15	65000	802.37	0.73
288.15	65000	798.67	0.74
293.15	65000	795	0.75
298.15	65000	791.36	0.76
303.15	65000	787.7	0.77
308.15	65000	784.04	0.78
313.15	65000	780.41	0.79
318.15	65000	776.82	0.8
323.15	65000	773.22	0.81

System: butyl ethyl ether; phases: Liquid
Property: Mass density, kg/m3 (Liquid); method: Vibrating tube method
Temperature, K	Pressure, kPa	Mass density, kg/m3	uncertainty
283.15	100	759.63	0.3
288.15	100	754.84	0.3
293.15	100	750.02	0.3
298.15	100	745.17	0.3
303.15	100	740.3	0.3
308.15	100	735.39	0.3
313.15	100	730.45	0.3
318.15	100	725.44	0.3
323.15	100	720.43	0.3
328.15	100	715.37	0.3
333.15	100	710.26	0.3
283.15	5000	764.45	0.33
288.15	5000	759.82	0.33
293.15	5000	755.18	0.33
298.15	5000	750.51	0.33
303.15	5000	745.81	0.33
308.15	5000	741.09	0.33
313.15	5000	736.34	0.33
318.15	5000	731.57	0.33
323.15	5000	726.77	0.34
328.15	5000	721.95	0.34
333.15	5000	717.05	0.34
283.15	10000	768.96	0.36
288.15	10000	764.48	0.36
293.15	10000	759.98	0.36
298.15	10000	755.44	0.36
303.15	10000	750.9	0.37
308.15	10000	746.35	0.37
313.15	10000	741.76	0.37
318.15	10000	737.2	0.37
323.15	10000	732.59	0.37
328.15	10000	727.94	0.37
333.15	10000	723.28	0.38
283.15	15000	773.2	0.39
288.15	15000	768.83	0.39
293.15	15000	764.45	0.4
298.15	15000	760.05	0.4
303.15	15000	755.66	0.4
308.15	15000	751.24	0.4
313.15	15000	746.82	0.41
318.15	15000	742.41	0.41
323.15	15000	738	0.41
328.15	15000	733.52	0.41
333.15	15000	729.03	0.42
283.15	20000	777.2	0.42
288.15	20000	772.96	0.43
293.15	20000	768.69	0.43
298.15	20000	764.43	0.43
303.15	20000	760.15	0.44
308.15	20000	755.87	0.44
313.15	20000	751.59	0.44
318.15	20000	747.31	0.45
323.15	20000	743.03	0.45
328.15	20000	738.72	0.45
333.15	20000	734.4	0.45
283.15	25000	781.05	0.46
288.15	25000	776.9	0.46
293.15	25000	772.75	0.46
298.15	25000	768.58	0.47
303.15	25000	764.45	0.47
308.15	25000	760.26	0.47
313.15	25000	756.09	0.48
318.15	25000	751.96	0.48
323.15	25000	747.78	0.48
328.15	25000	743.64	0.49
333.15	25000	739.43	0.49
283.15	30000	784.72	0.49
288.15	30000	780.66	0.49
293.15	30000	776.62	0.5
298.15	30000	772.55	0.5
303.15	30000	768.49	0.51
308.15	30000	764.45	0.51
313.15	30000	760.38	0.52
318.15	30000	756.38	0.52
323.15	30000	752.29	0.53
328.15	30000	748.27	0.53
333.15	30000	744.2	0.54
283.15	35000	788.24	0.52
288.15	35000	784.28	0.53
293.15	35000	780.33	0.53
298.15	35000	776.36	0.54
303.15	35000	772.35	0.55
308.15	35000	768.44	0.55
313.15	35000	764.5	0.56
318.15	35000	760.54	0.56
323.15	35000	756.59	0.57
328.15	35000	752.68	0.57
333.15	35000	748.71	0.58
283.15	40000	791.65	0.56
288.15	40000	787.77	0.56
293.15	40000	783.87	0.57
298.15	40000	780.01	0.58
303.15	40000	776.1	0.58
308.15	40000	772.26	0.59
313.15	40000	768.36	0.6
318.15	40000	764.55	0.6
323.15	40000	760.68	0.61
328.15	40000	756.87	0.62
333.15	40000	753.02	0.62
283.15	45000	794.97	0.59
288.15	45000	791.13	0.6
293.15	45000	787.34	0.61
298.15	45000	783.52	0.61
303.15	45000	779.71	0.62
308.15	45000	775.95	0.63
313.15	45000	772.14	0.63
318.15	45000	768.4	0.64
323.15	45000	764.61	0.65
328.15	45000	760.88	0.65
333.15	45000	757.13	0.66
283.15	50000	798.13	0.63
288.15	50000	794.37	0.63
293.15	50000	790.66	0.64
298.15	50000	786.91	0.65
303.15	50000	783.18	0.66
308.15	50000	779.48	0.66
313.15	50000	775.74	0.67
318.15	50000	772.07	0.68
323.15	50000	768.4	0.69
328.15	50000	764.73	0.69
333.15	50000	761.02	0.7
283.15	55000	801.25	0.66
288.15	55000	797.51	0.67
293.15	55000	793.86	0.67
298.15	55000	790.19	0.68
303.15	55000	786.51	0.69
308.15	55000	782.89	0.7
313.15	55000	779.22	0.71
318.15	55000	775.65	0.71
323.15	55000	771.97	0.72
328.15	55000	768.42	0.73
333.15	55000	764.8	0.74
283.15	60000	804.23	0.69
288.15	60000	800.57	0.7
293.15	60000	796.96	0.71
298.15	60000	793.36	0.72
303.15	60000	789.75	0.72
308.15	60000	786.19	0.73
313.15	60000	782.57	0.74
318.15	60000	779.08	0.75
323.15	60000	775.47	0.76
328.15	60000	771.99	0.77
333.15	60000	768.41	0.78
283.15	65000	807.14	0.72
288.15	65000	803.54	0.73
293.15	65000	799.99	0.74
298.15	65000	796.44	0.75
303.15	65000	792.89	0.76
308.15	65000	789.36	0.77
313.15	65000	785.85	0.78
318.15	65000	782.35	0.78
323.15	65000	778.87	0.79
328.15	65000	775.41	0.8
333.15	65000	771.92	0.81

System: 2-ethoxy-2-methylpropane; phases: Liquid
Property: Mass density, kg/m3 (Liquid); method: Vibrating tube method
Temperature, K	Pressure, kPa	Mass density, kg/m3	uncertainty
283.15	100	751.23	0.3
288.15	100	746.2	0.3
293.15	100	741.05	0.3
298.15	100	735.9	0.3
303.15	100	730.67	0.3
308.15	100	725.44	0.3
313.15	100	720.14	0.3
318.15	100	714.82	0.3
323.15	100	709.43	0.3
328.15	100	703.95	0.3
333.15	100	698.45	0.3
283.15	5000	756.42	0.33
288.15	5000	751.53	0.33
293.15	5000	746.6	0.33
298.15	5000	741.67	0.33
303.15	5000	736.68	0.33
308.15	5000	731.69	0.33
313.15	5000	726.68	0.34
318.15	5000	721.59	0.34
323.15	5000	716.51	0.34
328.15	5000	711.38	0.34
333.15	5000	706.19	0.34
283.15	10000	761.33	0.36
288.15	10000	756.63	0.36
293.15	10000	751.89	0.37
298.15	10000	747.14	0.37
303.15	10000	742.38	0.37
308.15	10000	737.6	0.37
313.15	10000	732.78	0.37
318.15	10000	727.94	0.37
323.15	10000	723.13	0.38
328.15	10000	718.21	0.38
333.15	10000	713.35	0.38
283.15	15000	765.98	0.4
288.15	15000	761.42	0.4
293.15	15000	756.83	0.4
298.15	15000	752.27	0.4
303.15	15000	747.69	0.41
308.15	15000	743.07	0.41
313.15	15000	738.45	0.41
318.15	15000	733.82	0.41
323.15	15000	729.2	0.42
328.15	15000	724.52	0.42
333.15	15000	719.84	0.42
283.15	20000	770.36	0.43
288.15	20000	765.93	0.43
293.15	20000	761.5	0.44
298.15	20000	757.08	0.44
303.15	20000	752.63	0.44
308.15	20000	748.18	0.44
313.15	20000	743.71	0.45
318.15	20000	739.27	0.45
323.15	20000	734.81	0.45
328.15	20000	730.3	0.46
333.15	20000	725.83	0.46
283.15	25000	774.54	0.46
288.15	25000	770.23	0.47
293.15	25000	765.92	0.47
298.15	25000	761.61	0.47
303.15	25000	757.33	0.48
308.15	25000	753.01	0.48
313.15	25000	748.69	0.48
318.15	25000	744.39	0.49
323.15	25000	740.06	0.49
328.15	25000	735.75	0.5
333.15	25000	731.42	0.5
283.15	30000	778.52	0.49
288.15	30000	774.31	0.5
293.15	30000	770.13	0.5
298.15	30000	765.96	0.51
303.15	30000	761.74	0.52
308.15	30000	757.57	0.52
313.15	30000	753.36	0.53
318.15	30000	749.2	0.53
323.15	30000	745.02	0.54
328.15	30000	740.83	0.54
333.15	30000	736.64	0.55
283.15	35000	782.33	0.53
288.15	35000	778.21	0.54
293.15	35000	774.13	0.54
298.15	35000	770.04	0.55
303.15	35000	765.95	0.56
308.15	35000	761.9	0.56
313.15	35000	757.81	0.57
318.15	35000	753.76	0.57
323.15	35000	749.69	0.58
328.15	35000	745.64	0.58
333.15	35000	741.54	0.59
283.15	40000	785.98	0.57
288.15	40000	781.97	0.57
293.15	40000	777.97	0.58
298.15	40000	773.96	0.59
303.15	40000	769.98	0.59
308.15	40000	766.03	0.6
313.15	40000	762.03	0.61
318.15	40000	758.08	0.61
323.15	40000	754.13	0.62
328.15	40000	750.18	0.63
333.15	40000	746.21	0.63
283.15	45000	789.49	0.6
288.15	45000	785.55	0.61
293.15	45000	781.65	0.62
298.15	45000	777.75	0.62
303.15	45000	773.86	0.63
308.15	45000	769.97	0.64
313.15	45000	766.08	0.65
318.15	45000	762.23	0.65
323.15	45000	758.36	0.66
328.15	45000	754.48	0.67
333.15	45000	750.65	0.67
283.15	50000	792.89	0.64
288.15	50000	789.02	0.64
293.15	50000	785.19	0.65
298.15	50000	781.37	0.66
303.15	50000	777.57	0.67
308.15	50000	773.76	0.68
313.15	50000	769.94	0.68
318.15	50000	766.19	0.69
323.15	50000	762.39	0.7
328.15	50000	758.63	0.71
333.15	50000	754.86	0.71
283.15	55000	796.17	0.67
288.15	55000	792.37	0.68
293.15	55000	788.63	0.69
298.15	55000	784.85	0.69
303.15	55000	781.12	0.7
308.15	55000	777.4	0.71
313.15	55000	773.66	0.72
318.15	55000	769.98	0.73
323.15	55000	766.26	0.74
328.15	55000	762.55	0.74
333.15	55000	758.88	0.75
283.15	60000	799.33	0.7
288.15	60000	795.56	0.71
293.15	60000	791.91	0.72
298.15	60000	788.21	0.73
303.15	60000	784.56	0.74
308.15	60000	780.9	0.75
313.15	60000	777.23	0.75
318.15	60000	773.61	0.76
323.15	60000	770	0.77
328.15	60000	766.37	0.78
333.15	60000	762.77	0.79
283.15	65000	802.42	0.73
288.15	65000	798.71	0.74
293.15	65000	795.1	0.75
298.15	65000	791.48	0.76
303.15	65000	787.89	0.77
308.15	65000	784.29	0.78
313.15	65000	780.69	0.79
318.15	65000	777.13	0.8
323.15	65000	773.58	0.81
328.15	65000	770.52	0.82
333.15	65000	766.51	0.83

System: dipropyl ether; phases: Liquid
Property: Mass density, kg/m3 (Liquid); method: Vibrating tube method
Temperature, K	Pressure, kPa	Mass density, kg/m3	uncertainty
283.15	100	757.39	0.3
288.15	100	752.52	0.3
293.15	100	747.63	0.3
298.15	100	742.71	0.3
303.15	100	737.77	0.3
308.15	100	732.8	0.3
313.15	100	727.8	0.3
318.15	100	722.77	0.3
323.15	100	717.7	0.3
328.15	100	712.59	0.3
333.15	100	707.45	0.3
283.15	5000	762.38	0.33
288.15	5000	757.69	0.33
293.15	5000	752.98	0.33
298.15	5000	748.24	0.33
303.15	5000	743.49	0.33
308.15	5000	738.69	0.33
313.15	5000	733.9	0.33
318.15	5000	729.04	0.34
323.15	5000	724.25	0.34
328.15	5000	719.28	0.34
333.15	5000	714.57	0.34
283.15	10000	767.05	0.36
288.15	10000	762.5	0.36
293.15	10000	757.94	0.36
298.15	10000	753.37	0.37
303.15	10000	748.78	0.37
308.15	10000	744.18	0.37
313.15	10000	739.57	0.37
318.15	10000	735.01	0.37
323.15	10000	730.31	0.37
328.15	10000	725.68	0.38
333.15	10000	721.03	0.38
283.15	15000	771.45	0.39
288.15	15000	767.01	0.4
293.15	15000	762.58	0.4
298.15	15000	758.15	0.4
303.15	15000	753.68	0.4
308.15	15000	749.22	0.4
313.15	15000	744.77	0.41
318.15	15000	740.33	0.41
323.15	15000	735.84	0.41
328.15	15000	731.37	0.41
333.15	15000	726.88	0.42
283.15	20000	775.62	0.43
288.15	20000	771.21	0.43
293.15	20000	766.89	0.43
298.15	20000	762.57	0.43
303.15	20000	758.26	0.44
308.15	20000	753.95	0.44
313.15	20000	749.62	0.44
318.15	20000	745.32	0.45
323.15	20000	741	0.45
328.15	20000	736.67	0.45
333.15	20000	732.34	0.46
283.15	25000	779.52	0.46
288.15	25000	775.22	0.46
293.15	25000	771.01	0.46
298.15	25000	766.81	0.47
303.15	25000	762.61	0.47
308.15	25000	758.41	0.48
313.15	25000	754.2	0.48
318.15	25000	750.04	0.48
323.15	25000	745.84	0.49
328.15	25000	741.66	0.49
333.15	25000	737.47	0.49
283.15	30000	783.28	0.49
288.15	30000	779.05	0.49
293.15	30000	774.94	0.5
298.15	30000	770.85	0.5
303.15	30000	766.76	0.51
308.15	30000	762.65	0.51
313.15	30000	758.55	0.52
318.15	30000	754.51	0.52
323.15	30000	750.43	0.53
328.15	30000	746.37	0.53
333.15	30000	742.3	0.54
283.15	35000	786.9	0.53
288.15	35000	782.73	0.53
293.15	35000	778.69	0.54
298.15	35000	774.71	0.54
303.15	35000	770.7	0.55
308.15	35000	766.7	0.55
313.15	35000	762.71	0.56
318.15	35000	758.76	0.57
323.15	35000	754.79	0.57
328.15	35000	750.85	0.58
333.15	35000	746.89	0.58
283.15	40000	790.38	0.56
288.15	40000	786.26	0.57
293.15	40000	782.3	0.57
298.15	40000	778.42	0.58
303.15	40000	774.48	0.59
308.15	40000	770.6	0.59
313.15	40000	766.68	0.6
318.15	40000	762.84	0.61
323.15	40000	758.96	0.61
328.15	40000	755.1	0.62
333.15	40000	751.24	0.62
283.15	45000	793.67	0.6
288.15	45000	789.68	0.6
293.15	45000	785.81	0.61
298.15	45000	781.98	0.62
303.15	45000	778.13	0.62
308.15	45000	774.31	0.63
313.15	45000	770.47	0.64
318.15	45000	766.72	0.64
323.15	45000	762.93	0.65
328.15	45000	759.16	0.66
333.15	45000	755.35	0.67
283.15	50000	796.87	0.63
288.15	50000	792.99	0.64
293.15	50000	789.18	0.64
298.15	50000	785.42	0.65
303.15	50000	781.64	0.66
308.15	50000	777.92	0.67
313.15	50000	774.17	0.67
318.15	50000	770.47	0.68
323.15	50000	766.76	0.69
328.15	50000	763.06	0.7
333.15	50000	759.32	0.7
283.15	55000	800.02	0.66
288.15	55000	796.16	0.67
293.15	55000	792.44	0.68
298.15	55000	788.74	0.69
303.15	55000	785.01	0.69
308.15	55000	781.37	0.7
313.15	55000	777.67	0.71
318.15	55000	774.07	0.72
323.15	55000	770.41	0.73
328.15	55000	766.79	0.73
333.15	55000	763.16	0.74
283.15	60000	802.99	0.69
288.15	60000	799.26	0.7
293.15	60000	795.56	0.71
298.15	60000	791.97	0.72
303.15	60000	788.28	0.73
308.15	60000	784.7	0.74
313.15	60000	781.06	0.75
318.15	60000	777.53	0.75
323.15	60000	773.95	0.76
328.15	60000	770.38	0.77
333.15	60000	766.84	0.78
283.15	65000	805.87	0.72
288.15	65000	802.29	0.73
293.15	65000	798.64	0.74
298.15	65000	795.06	0.75
303.15	65000	791.45	0.76
308.15	65000	787.86	0.77
313.15	65000	784.29	0.78
318.15	65000	780.73	0.79
323.15	65000	777.21	0.8
328.15	65000	773.71	0.81
333.15	65000	770.23	0.82

System: diisopropyl ether; phases: Liquid
Property: Mass density, kg/m3 (Liquid); method: Vibrating tube method
Temperature, K	Pressure, kPa	Mass density, kg/m3	uncertainty
283.15	100	733.83	0.3
288.15	100	728.69	0.3
293.15	100	723.51	0.3
298.15	100	718.29	0.3
303.15	100	713.03	0.3
308.15	100	707.73	0.3
313.15	100	702.38	0.3
318.15	100	697.07	0.3
323.15	100	691.61	0.3
328.15	100	686.17	0.3
333.15	100	681	0.3
283.15	5000	739.6	0.33
288.15	5000	734.61	0.33
293.15	5000	729.62	0.34
298.15	5000	724.67	0.34
303.15	5000	719.61	0.34
308.15	5000	714.61	0.34
313.15	5000	709.64	0.34
318.15	5000	704.53	0.34
323.15	5000	699.42	0.34
328.15	5000	694.18	0.34
333.15	5000	688.97	0.34
283.15	10000	744.9	0.37
288.15	10000	740.14	0.37
293.15	10000	735.37	0.37
298.15	10000	730.59	0.37
303.15	10000	725.79	0.38
308.15	10000	720.99	0.38
313.15	10000	716.16	0.38
318.15	10000	711.3	0.38
323.15	10000	706.46	0.38
328.15	10000	701.52	0.39
333.15	10000	696.58	0.39
283.15	15000	749.85	0.4
288.15	15000	745.3	0.41
293.15	15000	740.69	0.41
298.15	15000	736.05	0.41
303.15	15000	731.48	0.41
308.15	15000	726.79	0.42
313.15	15000	722.17	0.42
318.15	15000	717.51	0.42
323.15	15000	712.89	0.42
328.15	15000	708.19	0.43
333.15	15000	703.52	0.43
283.15	20000	754.49	0.44
288.15	20000	750.09	0.44
293.15	20000	745.62	0.45
298.15	20000	741.13	0.45
303.15	20000	736.81	0.45
308.15	20000	732.2	0.46
313.15	20000	727.77	0.46
318.15	20000	723.27	0.46
323.15	20000	718.83	0.47
328.15	20000	714.34	0.47
333.15	20000	709.85	0.47
283.15	25000	758.89	0.48
288.15	25000	754.61	0.48
293.15	25000	750.29	0.48
298.15	25000	745.92	0.49
303.15	25000	741.76	0.49
308.15	25000	737.29	0.49
313.15	25000	732.97	0.5
318.15	25000	728.67	0.5
323.15	25000	724.38	0.51
328.15	25000	720.04	0.51
333.15	25000	715.73	0.52
283.15	30000	763.08	0.51
288.15	30000	758.9	0.52
293.15	30000	754.71	0.52
298.15	30000	750.46	0.53
303.15	30000	746.43	0.53
308.15	30000	742.07	0.54
313.15	30000	737.92	0.54
318.15	30000	733.74	0.55
323.15	30000	729.58	0.56
328.15	30000	725.37	0.56
333.15	30000	721.21	0.57
283.15	35000	767.08	0.55
288.15	35000	763.01	0.56
293.15	35000	758.91	0.57
298.15	35000	754.77	0.57
303.15	35000	750.85	0.58
308.15	35000	746.63	0.58
313.15	35000	742.55	0.59
318.15	35000	738.49	0.59
323.15	35000	734.45	0.6
328.15	35000	730.4	0.61
333.15	35000	726.36	0.61
283.15	40000	770.91	0.59
288.15	40000	766.92	0.6
293.15	40000	762.93	0.61
298.15	40000	758.89	0.61
303.15	40000	755.09	0.62
308.15	40000	750.94	0.62
313.15	40000	746.98	0.63
318.15	40000	743.01	0.64
323.15	40000	739.08	0.64
328.15	40000	735.15	0.65
333.15	40000	731.23	0.66
283.15	45000	774.59	0.63
288.15	45000	770.68	0.64
293.15	45000	766.78	0.64
298.15	45000	762.82	0.65
303.15	45000	759.12	0.66
308.15	45000	755.05	0.67
313.15	45000	751.2	0.67
318.15	45000	747.34	0.68
323.15	45000	743.5	0.69
328.15	45000	739.67	0.69
333.15	45000	735.85	0.7
283.15	50000	778.13	0.67
288.15	50000	774.31	0.67
293.15	50000	770.48	0.68
298.15	50000	766.6	0.69
303.15	50000	763	0.7
308.15	50000	759.01	0.71
313.15	50000	755.21	0.71
318.15	50000	751.47	0.72
323.15	50000	747.72	0.73
328.15	50000	743.94	0.74
333.15	50000	740.18	0.74
283.15	55000	781.56	0.7
288.15	55000	777.77	0.71
293.15	55000	774.06	0.72
298.15	55000	770.25	0.73
303.15	55000	766.7	0.73
308.15	55000	762.79	0.74
313.15	55000	759.09	0.75
318.15	55000	755.41	0.76
323.15	55000	751.72	0.77
328.15	55000	748.05	0.78
333.15	55000	744.38	0.78
283.15	60000	784.88	0.74
288.15	60000	781.16	0.75
293.15	60000	777.49	0.75
298.15	60000	773.75	0.76
303.15	60000	770.24	0.77
308.15	60000	766.45	0.78
313.15	60000	762.83	0.79
318.15	60000	759.21	0.8
323.15	60000	755.59	0.81
328.15	60000	751.94	0.82
333.15	60000	748.24	0.82
283.15	65000	788.07	0.77
288.15	65000	784.42	0.78
293.15	65000	780.83	0.79
298.15	65000	777.14	0.8
303.15	65000	773.7	0.81
308.15	65000	769.97	0.82
313.15	65000	766.39	0.83
318.15	65000	762.85	0.83
323.15	65000	759.26	0.84
328.15	65000	755.64	0.85
333.15	65000	752.02	0.86

System: dibutyl ether; phases: Liquid
Property: Mass density, kg/m3 (Liquid); method: Vibrating tube method
Temperature, K	Pressure, kPa	Mass density, kg/m3	uncertainty
283.15	100	777	0.3
288.15	100	772.71	0.3
293.15	100	768.41	0.3
298.15	100	764.09	0.3
303.15	100	759.76	0.3
308.15	100	755.41	0.3
318.15	100	746.7	0.3
323.15	100	742.29	0.3
328.15	100	737.85	0.3
333.15	100	733.4	0.3
283.15	5000	781.24	0.32
288.15	5000	777.03	0.33
293.15	5000	772.85	0.33
298.15	5000	768.6	0.33
303.15	5000	764.4	0.33
308.15	5000	760.14	0.33
318.15	5000	751.63	0.33
323.15	5000	747.39	0.33
328.15	5000	743.06	0.33
333.15	5000	738.78	0.33
283.15	10000	785.22	0.35
288.15	10000	781.07	0.36
293.15	10000	777.07	0.36
298.15	10000	772.95	0.36
303.15	10000	768.85	0.36
308.15	10000	764.73	0.36
318.15	10000	756.5	0.36
323.15	10000	752.4	0.37
328.15	10000	748.22	0.37
333.15	10000	744.06	0.37
283.15	15000	789.01	0.38
288.15	15000	785	0.39
293.15	15000	781.04	0.39
298.15	15000	777.05	0.39
303.15	15000	773.07	0.39
308.15	15000	769.04	0.39
318.15	15000	761.07	0.4
323.15	15000	757.08	0.4
328.15	15000	753.05	0.4
333.15	15000	749.04	0.4
283.15	20000	792.62	0.41
288.15	20000	788.61	0.42
293.15	20000	784.83	0.42
298.15	20000	780.93	0.42
303.15	20000	777.07	0.42
308.15	20000	773.17	0.43
318.15	20000	765.43	0.43
323.15	20000	761.57	0.43
328.15	20000	757.64	0.44
333.15	20000	753.72	0.44
283.15	25000	796.12	0.44
288.15	25000	792.26	0.45
293.15	25000	788.51	0.45
298.15	25000	784.66	0.45
303.15	25000	780.91	0.46
308.15	25000	777.08	0.46
318.15	25000	769.53	0.47
323.15	25000	765.77	0.47
328.15	25000	761.95	0.47
333.15	25000	758.2	0.48
283.15	30000	799.48	0.47
288.15	30000	795.67	0.48
293.15	30000	792.02	0.48
298.15	30000	788.29	0.48
303.15	30000	784.58	0.49
308.15	30000	780.86	0.49
318.15	30000	773.46	0.5
323.15	30000	769.82	0.5
328.15	30000	766.06	0.51
333.15	30000	762.39	0.51
283.15	35000	802.7	0.5
288.15	35000	799.01	0.51
293.15	35000	795.4	0.51
298.15	35000	791.72	0.52
303.15	35000	788.11	0.52
308.15	35000	784.45	0.53
318.15	35000	777.24	0.54
323.15	35000	773.67	0.54
328.15	35000	770.02	0.55
333.15	35000	766.45	0.55
283.15	40000	805.84	0.54
288.15	40000	802.2	0.54
293.15	40000	798.65	0.55
298.15	40000	795.05	0.55
303.15	40000	791.5	0.56
308.15	40000	787.91	0.56
318.15	40000	780.87	0.58
323.15	40000	777.34	0.58
328.15	40000	773.78	0.59
333.15	40000	770.3	0.59
283.15	45000	808.84	0.57
288.15	45000	805.31	0.57
293.15	45000	801.84	0.58
298.15	45000	798.27	0.59
303.15	45000	794.77	0.59
308.15	45000	791.25	0.6
318.15	45000	784.34	0.61
323.15	45000	780.89	0.62
328.15	45000	777.42	0.62
333.15	45000	773.98	0.63
283.15	50000	811.78	0.6
288.15	50000	808.25	0.61
293.15	50000	804.88	0.61
298.15	50000	801.34	0.62
303.15	50000	797.96	0.63
308.15	50000	794.48	0.63
318.15	50000	787.7	0.65
323.15	50000	784.31	0.65
328.15	50000	780.92	0.66
333.15	50000	777.5	0.67
283.15	55000	814.68	0.63
288.15	55000	811.16	0.64
293.15	55000	807.8	0.64
298.15	55000	804.38	0.65
303.15	55000	801.03	0.66
308.15	55000	797.62	0.67
318.15	55000	790.93	0.68
323.15	55000	787.61	0.69
328.15	55000	784.25	0.7
333.15	55000	780.96	0.7
283.15	60000	817.42	0.66
288.15	60000	814.04	0.67
293.15	60000	810.68	0.67
298.15	60000	807.34	0.68
303.15	60000	804.04	0.69
308.15	60000	800.63	0.7
318.15	60000	794.06	0.71
323.15	60000	790.8	0.72
328.15	60000	787.5	0.73
333.15	60000	784.27	0.74
283.15	65000	820.1	0.69
288.15	65000	816.76	0.7
293.15	65000	813.46	0.7
298.15	65000	810.16	0.71
303.15	65000	806.89	0.72
308.15	65000	803.58	0.73
318.15	65000	797.14	0.75
323.15	65000	793.92	0.75
328.15	65000	790.65	0.76
333.15	65000	787.49	0.77

System: dipentyl ether; phases: Liquid
Property: Mass density, kg/m3 (Liquid); method: Vibrating tube method
Temperature, K	Pressure, kPa	Mass density, kg/m3	uncertainty
283.15	100	790.99	0.29
288.15	100	786.98	0.3
293.15	100	782.96	0.3
298.15	100	778.94	0.3
303.15	100	774.9	0.3
308.15	100	770.87	0.3
313.15	100	766.82	0.3
318.15	100	762.76	0.3
323.15	100	758.69	0.3
328.15	100	754.6	0.3
333.15	100	750.51	0.3
283.15	5000	794.85	0.32
288.15	5000	790.95	0.32
293.15	5000	787.04	0.32
298.15	5000	783.12	0.32
303.15	5000	779.22	0.32
308.15	5000	775.29	0.33
313.15	5000	771.35	0.33
318.15	5000	767.42	0.33
323.15	5000	763.48	0.33
328.15	5000	759.51	0.33
333.15	5000	755.54	0.33
283.15	10000	798.47	0.35
288.15	10000	794.65	0.35
293.15	10000	790.83	0.35
298.15	10000	787.02	0.35
303.15	10000	783.2	0.35
308.15	10000	779.38	0.36
313.15	10000	775.57	0.36
318.15	10000	771.74	0.36
323.15	10000	767.94	0.36
328.15	10000	764.08	0.36
333.15	10000	760.26	0.36
283.15	15000	801.9	0.38
288.15	15000	798.17	0.38
293.15	15000	794.44	0.38
298.15	15000	790.73	0.38
303.15	15000	787	0.38
308.15	15000	783.28	0.39
313.15	15000	779.56	0.39
318.15	15000	775.84	0.39
323.15	15000	772.13	0.39
328.15	15000	768.39	0.39
333.15	15000	764.69	0.4
283.15	20000	805.2	0.41
288.15	20000	801.55	0.41
293.15	20000	797.91	0.41
298.15	20000	794.27	0.41
303.15	20000	790.65	0.41
308.15	20000	787	0.42
313.15	20000	783.37	0.42
318.15	20000	779.77	0.42
323.15	20000	776.12	0.42
328.15	20000	772.51	0.43
333.15	20000	768.87	0.43
283.15	25000	808.38	0.43
288.15	25000	804.81	0.44
293.15	25000	801.23	0.44
298.15	25000	797.69	0.44
303.15	25000	794.13	0.44
308.15	25000	790.57	0.45
313.15	25000	787.03	0.45
318.15	25000	783.5	0.45
323.15	25000	779.95	0.46
328.15	25000	776.42	0.46
333.15	25000	772.87	0.46
283.15	30000	811.47	0.46
288.15	30000	807.94	0.46
293.15	30000	804.44	0.47
298.15	30000	800.97	0.47
303.15	30000	797.48	0.47
308.15	30000	793.99	0.48
313.15	30000	790.53	0.48
318.15	30000	787.08	0.48
323.15	30000	783.62	0.49
328.15	30000	780.18	0.49
333.15	30000	776.68	0.5
283.15	35000	814.44	0.49
288.15	35000	810.97	0.49
293.15	35000	807.54	0.5
298.15	35000	804.13	0.5
303.15	35000	800.72	0.51
308.15	35000	797.3	0.51
313.15	35000	793.9	0.51
318.15	35000	790.52	0.52
323.15	35000	787.13	0.52
328.15	35000	783.75	0.53
333.15	35000	780.35	0.53
283.15	40000	817.31	0.52
288.15	40000	813.93	0.52
293.15	40000	810.53	0.53
298.15	40000	807.2	0.53
303.15	40000	803.84	0.54
308.15	40000	800.48	0.54
313.15	40000	797.15	0.55
318.15	40000	793.82	0.55
323.15	40000	790.51	0.56
328.15	40000	787.17	0.57
333.15	40000	783.87	0.57
283.15	45000	820.12	0.55
288.15	45000	816.78	0.55
293.15	45000	813.44	0.56
298.15	45000	810.16	0.57
303.15	45000	806.86	0.57
308.15	45000	803.56	0.58
313.15	45000	800.28	0.58
318.15	45000	797.02	0.59
323.15	45000	793.75	0.6
328.15	45000	790.5	0.6
333.15	45000	787.29	0.61
283.15	50000	822.84	0.58
288.15	50000	819.54	0.58
293.15	50000	816.26	0.59
298.15	50000	813.04	0.6
303.15	50000	809.78	0.6
308.15	50000	806.55	0.61
313.15	50000	803.33	0.62
318.15	50000	800.1	0.62
323.15	50000	796.9	0.63
328.15	50000	793.7	0.64
333.15	50000	790.54	0.64
283.15	55000	825.48	0.61
288.15	55000	822.24	0.61
293.15	55000	819.01	0.62
298.15	55000	815.82	0.63
303.15	55000	812.62	0.63
308.15	55000	809.43	0.64
313.15	55000	806.26	0.65
318.15	55000	803.09	0.65
323.15	55000	799.95	0.66
328.15	55000	796.82	0.67
333.15	55000	793.66	0.68
283.15	60000	828.06	0.63
288.15	60000	824.87	0.64
293.15	60000	821.67	0.65
298.15	60000	818.54	0.66
303.15	60000	815.39	0.66
308.15	60000	812.24	0.67
313.15	60000	809.11	0.68
318.15	60000	806	0.69
323.15	60000	802.89	0.69
328.15	60000	799.82	0.7
333.15	60000	796.72	0.71
283.15	65000	830.58	0.66
288.15	65000	827.41	0.67
293.15	65000	824.26	0.68
298.15	65000	821.19	0.68
303.15	65000	818.05	0.69
308.15	65000	814.95	0.7
313.15	65000	811.88	0.71
318.15	65000	808.83	0.72
323.15	65000	805.77	0.72
328.15	65000	802.72	0.73
333.15	65000	799.67	0.74

System: di-(3-methylbutyl) ether; phases: Liquid
Property: Mass density, kg/m3 (Liquid); method: Vibrating tube method
Temperature, K	Pressure, kPa	Mass density, kg/m3	uncertainty
283.15	100	782.76	0.3
288.15	100	778.71	0.3
293.15	100	774.66	0.3
298.15	100	770.6	0.3
303.15	100	766.54	0.3
308.15	100	762.46	0.3
313.15	100	758.37	0.3
318.15	100	754.27	0.3
323.15	100	750.16	0.3
328.15	100	746.03	0.3
333.15	100	741.88	0.3
283.15	5000	786.88	0.32
288.15	5000	782.95	0.32
293.15	5000	779.03	0.32
298.15	5000	775.09	0.33
303.15	5000	771.15	0.33
308.15	5000	767.21	0.33
313.15	5000	763.24	0.33
318.15	5000	759.27	0.33
323.15	5000	755.32	0.33
328.15	5000	751.35	0.33
333.15	5000	747.34	0.33
283.15	10000	790.71	0.35
288.15	10000	786.89	0.35
293.15	10000	783.04	0.35
298.15	10000	779.24	0.36
303.15	10000	775.41	0.36
308.15	10000	771.57	0.36
313.15	10000	767.74	0.36
318.15	10000	763.91	0.36
323.15	10000	760.1	0.36
328.15	10000	756.23	0.36
333.15	10000	752.39	0.37
283.15	15000	794.36	0.38
288.15	15000	790.64	0.38
293.15	15000	786.89	0.38
298.15	15000	783.18	0.39
303.15	15000	779.46	0.39
308.15	15000	775.74	0.39
313.15	15000	772.01	0.39
318.15	15000	768.28	0.39
323.15	15000	764.59	0.4
328.15	15000	760.85	0.4
333.15	15000	757.12	0.4
283.15	20000	797.85	0.41
288.15	20000	794.22	0.41
293.15	20000	790.55	0.41
298.15	20000	786.94	0.42
303.15	20000	783.3	0.42
308.15	20000	779.67	0.42
313.15	20000	776.05	0.42
318.15	20000	772.42	0.43
323.15	20000	768.84	0.43
328.15	20000	765.22	0.43
333.15	20000	761.58	0.43
283.15	25000	801.22	0.44
288.15	25000	797.65	0.44
293.15	25000	794.08	0.44
298.15	25000	790.54	0.45
303.15	25000	786.98	0.45
308.15	25000	783.45	0.45
313.15	25000	779.9	0.46
318.15	25000	776.38	0.46
323.15	25000	772.87	0.46
328.15	25000	769.33	0.47
333.15	25000	765.79	0.47
283.15	30000	804.45	0.47
288.15	30000	800.95	0.47
293.15	30000	797.46	0.47
298.15	30000	793.99	0.48
303.15	30000	790.53	0.48
308.15	30000	787.05	0.48
313.15	30000	783.59	0.49
318.15	30000	780.14	0.49
323.15	30000	776.74	0.5
328.15	30000	773.28	0.5
333.15	30000	769.84	0.5
283.15	35000	807.58	0.5
288.15	35000	804.15	0.5
293.15	35000	800.71	0.51
298.15	35000	797.31	0.51
303.15	35000	793.91	0.51
308.15	35000	790.52	0.52
313.15	35000	787.12	0.52
318.15	35000	783.75	0.53
323.15	35000	780.43	0.53
328.15	35000	777.06	0.54
333.15	35000	773.7	0.54
283.15	40000	810.61	0.53
288.15	40000	807.23	0.53
293.15	40000	803.86	0.54
298.15	40000	800.51	0.54
303.15	40000	797.19	0.55
308.15	40000	793.86	0.55
313.15	40000	790.53	0.56
318.15	40000	787.22	0.57
323.15	40000	783.97	0.57
328.15	40000	780.66	0.58
333.15	40000	777.39	0.58
283.15	45000	813.52	0.56
288.15	45000	810.19	0.57
293.15	45000	806.9	0.57
298.15	45000	803.61	0.58
303.15	45000	800.34	0.58
308.15	45000	797.07	0.59
313.15	45000	793.81	0.59
318.15	45000	790.57	0.6
323.15	45000	787.37	0.61
328.15	45000	784.15	0.61
333.15	45000	780.93	0.62
283.15	50000	816.37	0.59
288.15	50000	813.09	0.6
293.15	50000	809.84	0.6
298.15	50000	806.62	0.61
303.15	50000	803.4	0.62
308.15	50000	800.19	0.62
313.15	50000	796.97	0.63
318.15	50000	793.81	0.63
323.15	50000	790.66	0.64
328.15	50000	787.49	0.65
333.15	50000	784.33	0.65
283.15	55000	819.14	0.62
288.15	55000	815.91	0.63
293.15	55000	812.71	0.63
298.15	55000	809.51	0.64
303.15	55000	806.36	0.65
308.15	55000	803.2	0.65
313.15	55000	800.03	0.66
318.15	55000	796.91	0.67
323.15	55000	793.83	0.67
328.15	55000	790.7	0.68
333.15	55000	787.59	0.69
283.15	60000	821.82	0.65
288.15	60000	818.64	0.66
293.15	60000	815.48	0.66
298.15	60000	812.33	0.67
303.15	60000	809.23	0.68
308.15	60000	806.11	0.69
313.15	60000	803	0.69
318.15	60000	799.93	0.7
323.15	60000	796.89	0.71
328.15	60000	793.83	0.71
333.15	60000	790.76	0.72
283.15	65000	824.44	0.68
288.15	65000	821.33	0.68
293.15	65000	818.18	0.69
298.15	65000	815.07	0.7
303.15	65000	812.01	0.71
308.15	65000	808.94	0.72
313.15	65000	805.88	0.72
318.15	65000	802.85	0.73
323.15	65000	799.86	0.74
328.15	65000	796.84	0.75
333.15	65000	793.83	0.75
