Measured thermophysical data. Thermophysical properties of phosphonium-based ionic liquids
Source: Fluid Phase Equilib., 2015, 10.1016/j.fluid.2015.05.009
Compound 1: triisobutylmethylphosphonium p-toluenesulfonate, C20H37O3PS, InChI=1S/C13H30P.C7H8O3S/c1-11(2)8-14(7,9-12(3)4)10-13(5)6;1-6-2-4-7(5-3-6)11(8,9)10/h11-13H,8-10H2,1-7H3;2-5H,1H3,(H,8,9,10)/q+1;/p-1, purity 98%
Compound 2: tributylmethylphosphonium methyl sulfate, C14H33O4PS, InChI=1S/C13H30P.CH4O4S/c1-5-8-11-14(4,12-9-6-2)13-10-7-3;1-5-6(2,3)4/h5-13H2,1-4H3;1H3,(H,2,3,4)/q+1;/p-1, purity 98%
Compound 3: tributylethylphosphonium diethylphosphate, C18H42O4P2, InChI=1S/C14H32P.C4H11O4P/c1-5-9-12-15(8-4,13-10-6-2)14-11-7-3;1-3-7-9(5,6)8-4-2/h5-14H2,1-4H3;3-4H2,1-2H3,(H,5,6)/q+1;/p-1, purity 98%
Compound 4: tetraoctylphosphonium bromide, C32H68BrP, InChI=1S/C32H68P.BrH/c1-5-9-13-17-21-25-29-33(30-26-22-18-14-10-6-2,31-27-23-19-15-11-7-3)32-28-24-20-16-12-8-4;/h5-32H2,1-4H3;1H/q+1;/p-1, purity 98%

System: triisobutylmethylphosphonium p-toluenesulfonate; phases: Liquid
Fixed: Pressure, kPa = 101.325
Property: Mass density, kg/m3 (Liquid); method: Vibrating tube method
Temperature, K	Mass density, kg/m3	uncertainty
283.15	1082.4	1
288.15	1079.3	1
293.15	1076.2	1
298.15	1073.2	1
303.15	1070.1	1
308.15	1067	1
313.15	1064	1
318.15	1060.9	1
323.15	1057.7	1
328.15	1054.7	1
333.15	1051.8	1
338.15	1048.8	1
343.15	1045.9	1
348.15	1043.1	1
353.15	1040.2	1

System: triisobutylmethylphosphonium p-toluenesulfonate; phases: Liquid
Fixed: Pressure, kPa = 101.325
Property: Viscosity, Pa*s (Liquid); method: Concentric cylinders viscometry
Temperature, K	Viscosity, Pa*s	uncertainty
283.15	21.829	1.801
288.15	11.305	0.8348
293.15	6.2319	0.4107
298.15	3.6124	0.2118
303.15	2.1999	0.1146
308.15	1.3973	0.0644
313.15	0.9179	0.0373
318.15	0.6237	0.0222
323.15	0.4362	0.0135
328.15	0.3131	0.0084
333.15	0.2301	0.0053
338.15	0.1727	0.0034
343.15	0.1321	0.0022
348.15	0.1028	0.0015
353.15	0.0813	0.001

System: triisobutylmethylphosphonium p-toluenesulfonate; phases: Liquid
Fixed: Pressure, kPa = 101.325
Property: Refractive index (Na D-line) (Liquid); method: Standard Abbe refractometry
Temperature, K	Refractive index (Na D-line)	uncertainty
283.15	1.52489	0.00051
288.15	1.52338	0.00051
293.15	1.5217	0.00051
298.15	1.5203	0.00051
303.15	1.51828	0.00051
308.15	1.51635	0.00051
313.15	1.51433	0.00051
318.15	1.51233	0.00051
323.15	1.51055	0.00051
328.15	1.50872	0.00051
333.15	1.50698	0.00051
338.15	1.50537	0.00051
343.15	1.50391	0.00051
348.15	1.50252	0.00051
353.15	1.50124	0.00051

System: triisobutylmethylphosphonium p-toluenesulfonate; phases: Liquid, Air at 1 atmosphere
Property: Surface tension liquid-gas, N/m (Liquid); method: Pendant drop shape
Temperature, K	Surface tension liquid-gas, N/m	uncertainty
293.2	0.0381	0.0005
298.2	0.0373	0.0005
303.2	0.0366	0.0005
313.1	0.0355	0.0005
323.1	0.035	0.0005
333.1	0.0343	0.0005
343.1	0.0381	0.0005

System: tributylmethylphosphonium methyl sulfate; phases: Liquid
Fixed: Pressure, kPa = 101.325
Property: Mass density, kg/m3 (Liquid); method: Vibrating tube method
Temperature, K	Mass density, kg/m3	uncertainty
283.15	1076.5	1
288.15	1073.4	1
293.15	1070.3	1
298.15	1067.2	1
303.15	1064.1	1
308.15	1061	1
313.15	1057.9	1
318.15	1054.8	1
323.15	1051.8	1
328.15	1048.9	1
333.15	1045.9	1
338.15	1043	1
343.15	1040.1	1
348.15	1037.3	1
353.15	1034.4	1

System: tributylmethylphosphonium methyl sulfate; phases: Liquid
Fixed: Pressure, kPa = 101.325
Property: Viscosity, Pa*s (Liquid); method: Concentric cylinders viscometry
Temperature, K	Viscosity, Pa*s	uncertainty
283.15	6.2141	0.4085
288.15	3.8401	0.2281
293.15	2.4764	0.1327
298.15	1.6292	0.0783
303.15	1.1091	0.0477
308.15	0.7745	0.0297
313.15	0.555	0.0189
318.15	0.4036	0.0121
323.15	0.3	0.0079
328.15	0.227	0.0052
333.15	0.1747	0.0035
338.15	0.1363	0.0023
343.15	0.1079	0.0016
348.15	0.0864	0.0011
353.15	0.07	0.0008

System: tributylmethylphosphonium methyl sulfate; phases: Liquid
Fixed: Pressure, kPa = 101.325
Property: Refractive index (Na D-line) (Liquid); method: Standard Abbe refractometry
Temperature, K	Refractive index (Na D-line)	uncertainty
283.15	1.48038	0.00051
288.15	1.47891	0.00051
293.15	1.47742	0.00051
298.15	1.47632	0.00051
303.15	1.47427	0.00051
308.15	1.47232	0.00051
313.15	1.47072	0.00051
318.15	1.46912	0.00051
323.15	1.46758	0.00051
328.15	1.46603	0.00051
333.15	1.46457	0.00051
338.15	1.46318	0.00051
343.15	1.46185	0.00051
348.15	1.46067	0.00051
353.15	1.45965	0.00051

System: tributylmethylphosphonium methyl sulfate; phases: Liquid, Air at 1 atmosphere
Property: Surface tension liquid-gas, N/m (Liquid); method: Pendant drop shape
Temperature, K	Surface tension liquid-gas, N/m	uncertainty
293.2	0.0355	0.0005
298.2	0.0347	0.0005
303.2	0.0341	0.0005
313.1	0.0335	0.0005
323.1	0.0329	0.0005
333.1	0.0322	0.0005
343.1	0.0355	0.0005

System: tributylethylphosphonium diethylphosphate; phases: Liquid
Fixed: Pressure, kPa = 101.325
Property: Mass density, kg/m3 (Liquid); method: Vibrating tube method
Temperature, K	Mass density, kg/m3	uncertainty
283.15	1021.5	0.9
288.15	1018	0.9
293.15	1014.4	0.9
298.15	1010.9	0.9
303.15	1007.5	0.9
308.15	1004.1	0.9
313.15	1000.7	0.9
318.15	997.6	0.9
323.15	994.3	0.9
328.15	990.9	0.9
333.15	987.6	0.9
338.15	984.3	0.9
343.15	980.9	0.9
348.15	977.6	0.9
353.15	974.3	0.9

System: tributylethylphosphonium diethylphosphate; phases: Liquid
Fixed: Pressure, kPa = 101.325
Property: Viscosity, Pa*s (Liquid); method: Concentric cylinders viscometry
Temperature, K	Viscosity, Pa*s	uncertainty
283.15	1.0184	0.0427
288.15	0.6695	0.0245
293.15	0.4664	0.0149
298.15	0.3168	0.0086
303.15	0.2267	0.0052
308.15	0.166	0.0032
313.15	0.1247	0.002
318.15	0.0946	0.0013
323.15	0.0734	0.0008
328.15	0.0579	0.0006
333.15	0.0464	0.0005
338.15	0.0375	0.0004
343.15	0.0308	0.0003
348.15	0.0256	0.0003
353.15	0.0216	0.0002

System: tributylethylphosphonium diethylphosphate; phases: Liquid
Fixed: Pressure, kPa = 101.325
Property: Refractive index (Na D-line) (Liquid); method: Standard Abbe refractometry
Temperature, K	Refractive index (Na D-line)	uncertainty
283.15	1.47176	0.00051
288.15	1.46996	0.00051
293.15	1.46809	0.00051
298.15	1.46618	0.00051
303.15	1.46474	0.00051
308.15	1.46308	0.00051
313.15	1.4611	0.00051
318.15	1.45923	0.00051
323.15	1.45738	0.00051
328.15	1.45563	0.00051
333.15	1.45385	0.00051
338.15	1.45212	0.00051
343.15	1.45045	0.00051
348.15	1.4488	0.00051
353.15	1.447176	0.000506

System: tributylethylphosphonium diethylphosphate; phases: Liquid, Air at 1 atmosphere
Property: Surface tension liquid-gas, N/m (Liquid); method: Pendant drop shape
Temperature, K	Surface tension liquid-gas, N/m	uncertainty
293.2	0.0314	0.0005
298.2	0.0305	0.0004
303.2	0.0298	0.0004
313.1	0.0292	0.0004
323.1	0.0285	0.0004
333.1	0.0275	0.0004
343.1	0.0314	0.0005

System: tetraoctylphosphonium bromide; phases: Liquid
Fixed: Pressure, kPa = 101.325
Property: Mass density, kg/m3 (Liquid); method: Vibrating tube method
Temperature, K	Mass density, kg/m3	uncertainty
318.15	945	0.9
323.15	942	0.9
328.15	938.9	0.9
333.15	935.9	0.9
338.15	932.9	0.9
343.15	929.8	0.9
348.15	926.8	0.9
353.15	923.7	0.8

System: tetraoctylphosphonium bromide; phases: Liquid
Fixed: Pressure, kPa = 101.325
Property: Viscosity, Pa*s (Liquid); method: Concentric cylinders viscometry
Temperature, K	Viscosity, Pa*s	uncertainty
318.15	0.3765	0.011
323.15	0.2899	0.0075
328.15	0.2264	0.0052
333.15	0.1787	0.0036
338.15	0.1421	0.0025
343.15	0.1144	0.0017
348.15	0.0934	0.0012
353.15	0.0768	0.0009

System: tetraoctylphosphonium bromide; phases: Liquid
Fixed: Pressure, kPa = 101.325
Property: Refractive index (Na D-line) (Liquid); method: Standard Abbe refractometry
Temperature, K	Refractive index (Na D-line)	uncertainty
318.15	1.48262	0.00051
323.15	1.48092	0.00051
328.15	1.47916	0.00051
333.15	1.47699	0.00051
338.15	1.47523	0.00051
343.15	1.47354	0.00051
348.15	1.47195	0.00051
353.15	1.47035	0.00051

System: tetraoctylphosphonium bromide; phases: Liquid, Air at 1 atmosphere
Property: Surface tension liquid-gas, N/m (Liquid); method: Pendant drop shape
Temperature, K	Surface tension liquid-gas, N/m	uncertainty
318.1	0.0274	0.0004
323.1	0.0271	0.0004
333.1	0.0266	0.0004
343.1	0.026	0.0004
