Measured thermophysical data. Activity coefficients at infinite dilution measurements for organic solutes  and water in the 1-hexyloxymethyl-3-methyl-imidazolium and  1,3-dihexyloxymethyl-imidazolium bis(trifluoromethylsulfonyl)-imide ionic  liquids The cation influence
Source: Fluid Phase Equilib., 2009, 10.1016/j.fluid.2009.08.017
Compound 1: 1-(hexyloxymethyl)-3-methylimidazolium bis((trifluoromethyl)sulfonyl)amide, C13H21F6N3O5S2, InChI=1S/C11H21N2O.C2F6NO4S2/c1-3-4-5-6-9-14-11-13-8-7-12(2)10-13;3-1(4,5)14(10,11)9-15(12,13)2(6,7)8/h7-8,10H,3-6,9,11H2,1-2H3;/q+1;-1, purity 99%
Compound 2: 1,3-dihexyloxymethylimidazolium (bis(trifluoromethyl)sulfonyl)imide, C19H33F6N3O6S2, InChI=1S/C17H33N2O2.C2F6NO4S2/c1-3-5-7-9-13-20-16-18-11-12-19(15-18)17-21-14-10-8-6-4-2;3-1(4,5)14(10,11)9-15(12,13)2(6,7)8/h11-12,15H,3-10,13-14,16-17H2,1-2H3;/q+1;-1, purity 99%
Compound 3: pentane, C5H12, InChI=1S/C5H12/c1-3-5-4-2/h3-5H2,1-2H3, purity 99%
Compound 4: hexane, C6H14, InChI=1S/C6H14/c1-3-5-6-4-2/h3-6H2,1-2H3, purity 99%
Compound 5: heptane, C7H16, InChI=1S/C7H16/c1-3-5-7-6-4-2/h3-7H2,1-2H3, purity 99%
Compound 6: octane, C8H18, InChI=1S/C8H18/c1-3-5-7-8-6-4-2/h3-8H2,1-2H3, purity 99%
Compound 7: nonane, C9H20, InChI=1S/C9H20/c1-3-5-7-9-8-6-4-2/h3-9H2,1-2H3, purity 99%
Compound 8: decane, C10H22, InChI=1S/C10H22/c1-3-5-7-9-10-8-6-4-2/h3-10H2,1-2H3, purity 99%
Compound 9: cyclopentane, C5H10, InChI=1S/C5H10/c1-2-4-5-3-1/h1-5H2, purity 99%
Compound 10: cyclohexane, C6H12, InChI=1S/C6H12/c1-2-4-6-5-3-1/h1-6H2, purity 99%
Compound 11: cycloheptane, C7H14, InChI=1S/C7H14/c1-2-4-6-7-5-3-1/h1-7H2, purity 99%
Compound 12: cyclooctane, C8H16, InChI=1S/C8H16/c1-2-4-6-8-7-5-3-1/h1-8H2, purity 99%
Compound 13: 1-pentene, C5H10, InChI=1S/C5H10/c1-3-5-4-2/h3H,1,4-5H2,2H3, purity 99%
Compound 14: hex-1-ene, C6H12, InChI=1S/C6H12/c1-3-5-6-4-2/h3H,1,4-6H2,2H3, purity 99%
Compound 15: 1-heptene, C7H14, InChI=1S/C7H14/c1-3-5-7-6-4-2/h3H,1,4-7H2,2H3, purity 99%
Compound 16: oct-1-ene, C8H16, InChI=1S/C8H16/c1-3-5-7-8-6-4-2/h3H,1,4-8H2,2H3, purity 99%
Compound 17: 1-pentyne, C5H8, InChI=1S/C5H8/c1-3-5-4-2/h1H,4-5H2,2H3, purity 99%
Compound 18: 1-hexyne, C6H10, InChI=1S/C6H10/c1-3-5-6-4-2/h1H,4-6H2,2H3, purity 99%
Compound 19: 1-heptyne, C7H12, InChI=1S/C7H12/c1-3-5-7-6-4-2/h1H,4-7H2,2H3, purity 99%
Compound 20: 1-octyne, C8H14, InChI=1S/C8H14/c1-3-5-7-8-6-4-2/h1H,4-8H2,2H3, purity 99%
Compound 21: benzene, C6H6, InChI=1S/C6H6/c1-2-4-6-5-3-1/h1-6H, purity 99%
Compound 22: toluene, C7H8, InChI=1S/C7H8/c1-7-5-3-2-4-6-7/h2-6H,1H3, purity 99%
Compound 23: ethylbenzene, C8H10, InChI=1S/C8H10/c1-2-8-6-4-3-5-7-8/h3-7H,2H2,1H3, purity 99%
Compound 24: 1,2-dimethylbenzene, C8H10, InChI=1S/C8H10/c1-7-5-3-4-6-8(7)2/h3-6H,1-2H3, purity 99%
Compound 25: 1,3-dimethylbenzene, C8H10, InChI=1S/C8H10/c1-7-4-3-5-8(2)6-7/h3-6H,1-2H3, purity 99%
Compound 26: 1,4-dimethylbenzene, C8H10, InChI=1S/C8H10/c1-7-3-5-8(2)6-4-7/h3-6H,1-2H3, purity 99%
Compound 27: methanol, CH4O, InChI=1S/CH4O/c1-2/h2H,1H3, purity 99%
Compound 28: ethanol, C2H6O, InChI=1S/C2H6O/c1-2-3/h3H,2H2,1H3, purity 99%
Compound 29: propan-1-ol, C3H8O, InChI=1S/C3H8O/c1-2-3-4/h4H,2-3H2,1H3, purity 99%
Compound 30: butan-1-ol, C4H10O, InChI=1S/C4H10O/c1-2-3-4-5/h5H,2-4H2,1H3, purity 99%
Compound 31: water, H2O, InChI=1S/H2O/h1H2, purity 99%
Compound 32: thiophene, C4H4S, InChI=1S/C4H4S/c1-2-4-5-3-1/h1-4H, purity 99%
Compound 33: tetrahydrofuran, C4H8O, InChI=1S/C4H8O/c1-2-4-5-3-1/h1-4H2, purity 99%
Compound 34: 2-methoxy-2-methylpropane, C5H12O, InChI=1S/C5H12O/c1-5(2,3)6-4/h1-4H3, purity 99%
Compound 35: diethyl ether, C4H10O, InChI=1S/C4H10O/c1-3-5-4-2/h3-4H2,1-2H3, purity 99%
Compound 36: dipropyl ether, C6H14O, InChI=1S/C6H14O/c1-3-5-7-6-4-2/h3-6H2,1-2H3, purity 99%
Compound 37: acetone, C3H6O, InChI=1S/C3H6O/c1-3(2)4/h1-2H3, purity 99%

System: pentane + 1-(hexyloxymethyl)-3-methylimidazolium bis((trifluoromethyl)sulfonyl)amide; phases: Liquid
Fixed: Pressure, kPa = 101
Fixed: Mole fraction of pentane = 0
Property: Activity coefficient of pentane (Liquid); method: Chromatography
Temperature, K	Activity coefficient of pentane	uncertainty
298.15	7.34	0.5
308.15	6.93	0.47
318.15	6.54	0.45
328.15	6.25	0.43
338.15	5.92	0.4
348.15	5.68	0.39
358.15	5.43	0.37
368.15	5.21	0.36

System: hexane + 1-(hexyloxymethyl)-3-methylimidazolium bis((trifluoromethyl)sulfonyl)amide; phases: Liquid
Fixed: Pressure, kPa = 101
Fixed: Mole fraction of hexane = 0
Property: Activity coefficient of hexane (Liquid); method: Chromatography
Temperature, K	Activity coefficient of hexane	uncertainty
298.15	8.36	0.57
308.15	7.96	0.54
318.15	7.59	0.52
328.15	7.27	0.5
338.15	6.98	0.48
348.15	6.71	0.46
358.15	6.46	0.44
368.15	6.24	0.43

System: heptane + 1-(hexyloxymethyl)-3-methylimidazolium bis((trifluoromethyl)sulfonyl)amide; phases: Liquid
Fixed: Pressure, kPa = 101
Fixed: Mole fraction of heptane = 0
Property: Activity coefficient of heptane (Liquid); method: Chromatography
Temperature, K	Activity coefficient of heptane	uncertainty
298.15	10.6	0.7
308.15	10	0.7
318.15	9.51	0.65
328.15	9.07	0.62
338.15	8.65	0.59
348.15	8.28	0.56
358.15	7.95	0.54
368.15	7.66	0.52

System: octane + 1-(hexyloxymethyl)-3-methylimidazolium bis((trifluoromethyl)sulfonyl)amide; phases: Liquid
Fixed: Pressure, kPa = 101
Fixed: Mole fraction of octane = 0
Property: Activity coefficient of octane (Liquid); method: Chromatography
Temperature, K	Activity coefficient of octane	uncertainty
298.15	13.6	0.9
308.15	12.8	0.9
318.15	12.1	0.8
328.15	11.5	0.8
338.15	10.9	0.7
348.15	10.4	0.7
358.15	10	0.7
368.15	9.51	0.65

System: nonane + 1-(hexyloxymethyl)-3-methylimidazolium bis((trifluoromethyl)sulfonyl)amide; phases: Liquid
Fixed: Pressure, kPa = 101
Fixed: Mole fraction of nonane = 0
Property: Activity coefficient of nonane (Liquid); method: Chromatography
Temperature, K	Activity coefficient of nonane	uncertainty
298.15	17.8	1.2
308.15	16.6	1.1
318.15	15.5	1.1
328.15	14.6	1
338.15	13.8	0.9
348.15	13.2	0.9
358.15	12.4	0.8
368.15	11.9	0.8

System: decane + 1-(hexyloxymethyl)-3-methylimidazolium bis((trifluoromethyl)sulfonyl)amide; phases: Liquid
Fixed: Pressure, kPa = 101
Fixed: Mole fraction of decane = 0
Property: Activity coefficient of decane (Liquid); method: Chromatography
Temperature, K	Activity coefficient of decane	uncertainty
298.15	23.5	1.6
308.15	21.7	1.5
318.15	20.2	1.4
328.15	18.9	1.3
338.15	17.7	1.2
348.15	16.7	1.1
358.15	15.8	1.1
368.15	14.9	1

System: cyclopentane + 1-(hexyloxymethyl)-3-methylimidazolium bis((trifluoromethyl)sulfonyl)amide; phases: Liquid
Fixed: Pressure, kPa = 101
Fixed: Mole fraction of cyclopentane = 0
Property: Activity coefficient of cyclopentane (Liquid); method: Chromatography
Temperature, K	Activity coefficient of cyclopentane	uncertainty
298.15	4.19	0.29
308.15	3.99	0.27
318.15	3.82	0.26
328.15	3.66	0.25
338.15	3.51	0.24
348.15	3.38	0.23
358.15	3.27	0.22
368.15	3.16	0.22

System: cyclohexane + 1-(hexyloxymethyl)-3-methylimidazolium bis((trifluoromethyl)sulfonyl)amide; phases: Liquid
Fixed: Pressure, kPa = 101
Fixed: Mole fraction of cyclohexane = 0
Property: Activity coefficient of cyclohexane (Liquid); method: Chromatography
Temperature, K	Activity coefficient of cyclohexane	uncertainty
298.15	5.44	0.37
308.15	5.14	0.35
318.15	4.87	0.33
328.15	4.63	0.32
338.15	4.43	0.3
348.15	4.24	0.29
358.15	4.07	0.28
368.15	3.91	0.27

System: cycloheptane + 1-(hexyloxymethyl)-3-methylimidazolium bis((trifluoromethyl)sulfonyl)amide; phases: Liquid
Fixed: Pressure, kPa = 101
Fixed: Mole fraction of cycloheptane = 0
Property: Activity coefficient of cycloheptane (Liquid); method: Chromatography
Temperature, K	Activity coefficient of cycloheptane	uncertainty
298.15	6.51	0.44
308.15	6.15	0.42
318.15	5.8	0.4
328.15	5.49	0.37
338.15	5.23	0.36
348.15	5.02	0.34
358.15	4.79	0.33
368.15	4.6	0.31

System: cyclooctane + 1-(hexyloxymethyl)-3-methylimidazolium bis((trifluoromethyl)sulfonyl)amide; phases: Liquid
Fixed: Pressure, kPa = 101
Fixed: Mole fraction of cyclooctane = 0
Property: Activity coefficient of cyclooctane (Liquid); method: Chromatography
Temperature, K	Activity coefficient of cyclooctane	uncertainty
298.15	8.12	0.55
308.15	7.57	0.52
318.15	7.11	0.48
328.15	6.74	0.46
338.15	6.35	0.43
348.15	6.06	0.41
358.15	5.75	0.39
368.15	5.48	0.37

System: 1-pentene + 1-(hexyloxymethyl)-3-methylimidazolium bis((trifluoromethyl)sulfonyl)amide; phases: Liquid
Fixed: Pressure, kPa = 101
Fixed: Mole fraction of 1-pentene = 0
Property: Activity coefficient of 1-pentene (Liquid); method: Chromatography
Temperature, K	Activity coefficient of 1-pentene	uncertainty
298.15	3.96	0.27
308.15	3.86	0.26
318.15	3.77	0.26
328.15	3.69	0.25
338.15	3.61	0.25
348.15	3.53	0.24
358.15	3.47	0.24
368.15	3.41	0.23

System: hex-1-ene + 1-(hexyloxymethyl)-3-methylimidazolium bis((trifluoromethyl)sulfonyl)amide; phases: Liquid
Fixed: Pressure, kPa = 101
Fixed: Mole fraction of hex-1-ene = 0
Property: Activity coefficient of hex-1-ene (Liquid); method: Chromatography
Temperature, K	Activity coefficient of hex-1-ene	uncertainty
298.15	4.89	0.33
308.15	4.72	0.32
318.15	4.59	0.31
328.15	4.46	0.3
338.15	4.33	0.29
348.15	4.23	0.29
358.15	4.12	0.28
368.15	4.03	0.27

System: 1-heptene + 1-(hexyloxymethyl)-3-methylimidazolium bis((trifluoromethyl)sulfonyl)amide; phases: Liquid
Fixed: Pressure, kPa = 101
Fixed: Mole fraction of 1-heptene = 0
Property: Activity coefficient of 1-heptene (Liquid); method: Chromatography
Temperature, K	Activity coefficient of 1-heptene	uncertainty
298.15	6.16	0.42
308.15	5.96	0.41
318.15	5.79	0.39
328.15	5.61	0.38
338.15	5.44	0.37
348.15	5.3	0.36
358.15	5.18	0.35
368.15	5.05	0.34

System: oct-1-ene + 1-(hexyloxymethyl)-3-methylimidazolium bis((trifluoromethyl)sulfonyl)amide; phases: Liquid
Fixed: Pressure, kPa = 101
Fixed: Mole fraction of oct-1-ene = 0
Property: Activity coefficient of oct-1-ene (Liquid); method: Chromatography
Temperature, K	Activity coefficient of oct-1-ene	uncertainty
298.15	7.97	0.54
308.15	7.67	0.52
318.15	7.39	0.5
328.15	7.12	0.49
338.15	6.89	0.47
348.15	6.69	0.46
358.15	6.5	0.44
368.15	6.34	0.43

System: 1-pentyne + 1-(hexyloxymethyl)-3-methylimidazolium bis((trifluoromethyl)sulfonyl)amide; phases: Liquid
Fixed: Pressure, kPa = 101
Fixed: Mole fraction of 1-pentyne = 0
Property: Activity coefficient of 1-pentyne (Liquid); method: Chromatography
Temperature, K	Activity coefficient of 1-pentyne	uncertainty
298.15	1.54	0.1
308.15	1.56	0.1
318.15	1.57	0.1
328.15	1.58	0.1
338.15	1.59	0.11
348.15	1.59	0.11
358.15	1.6	0.11
368.15	1.61	0.11

System: 1-hexyne + 1-(hexyloxymethyl)-3-methylimidazolium bis((trifluoromethyl)sulfonyl)amide; phases: Liquid
Fixed: Pressure, kPa = 101
Fixed: Mole fraction of 1-hexyne = 0
Property: Activity coefficient of 1-hexyne (Liquid); method: Chromatography
Temperature, K	Activity coefficient of 1-hexyne	uncertainty
298.15	1.93	0.13
308.15	1.94	0.13
318.15	1.95	0.13
328.15	1.96	0.13
338.15	1.97	0.13
348.15	1.98	0.13
358.15	1.98	0.13
368.15	1.99	0.14

System: 1-heptyne + 1-(hexyloxymethyl)-3-methylimidazolium bis((trifluoromethyl)sulfonyl)amide; phases: Liquid
Fixed: Pressure, kPa = 101
Fixed: Mole fraction of 1-heptyne = 0
Property: Activity coefficient of 1-heptyne (Liquid); method: Chromatography
Temperature, K	Activity coefficient of 1-heptyne	uncertainty
298.15	2.44	0.17
308.15	2.45	0.17
318.15	2.45	0.17
328.15	2.46	0.17
338.15	2.47	0.17
348.15	2.48	0.17
358.15	2.48	0.17
368.15	2.49	0.17

System: 1-octyne + 1-(hexyloxymethyl)-3-methylimidazolium bis((trifluoromethyl)sulfonyl)amide; phases: Liquid
Fixed: Pressure, kPa = 101
Fixed: Mole fraction of 1-octyne = 0
Property: Activity coefficient of 1-octyne (Liquid); method: Chromatography
Temperature, K	Activity coefficient of 1-octyne	uncertainty
298.15	3.15	0.21
308.15	3.14	0.21
318.15	3.13	0.21
328.15	3.13	0.21
338.15	3.12	0.21
348.15	3.11	0.21
358.15	3.11	0.21
368.15	3.1	0.21

System: benzene + 1-(hexyloxymethyl)-3-methylimidazolium bis((trifluoromethyl)sulfonyl)amide; phases: Liquid
Fixed: Pressure, kPa = 101
Fixed: Mole fraction of benzene = 0
Property: Activity coefficient of benzene (Liquid); method: Chromatography
Temperature, K	Activity coefficient of benzene	uncertainty
298.15	0.802	0.052
308.15	0.807	0.052
318.15	0.812	0.053
328.15	0.816	0.053
338.15	0.82	0.053
348.15	0.824	0.053
358.15	0.827	0.053
368.15	0.832	0.054

System: toluene + 1-(hexyloxymethyl)-3-methylimidazolium bis((trifluoromethyl)sulfonyl)amide; phases: Liquid
Fixed: Pressure, kPa = 101
Fixed: Mole fraction of toluene = 0
Property: Activity coefficient of toluene (Liquid); method: Chromatography
Temperature, K	Activity coefficient of toluene	uncertainty
298.15	1.051	0.066
308.15	1.06	0.067
318.15	1.07	0.068
328.15	1.08	0.068
338.15	1.087	0.069
348.15	1.096	0.069
358.15	1.103	0.07
368.15	1.111	0.07

System: ethylbenzene + 1-(hexyloxymethyl)-3-methylimidazolium bis((trifluoromethyl)sulfonyl)amide; phases: Liquid
Fixed: Pressure, kPa = 101
Fixed: Mole fraction of ethylbenzene = 0
Property: Activity coefficient of ethylbenzene (Liquid); method: Chromatography
Temperature, K	Activity coefficient of ethylbenzene	uncertainty
308.15	1.488	0.098
318.15	1.491	0.098
328.15	1.493	0.098
338.15	1.496	0.098
348.15	1.499	0.099
358.15	1.5	0.099
368.15	1.503	0.099

System: 1,2-dimethylbenzene + 1-(hexyloxymethyl)-3-methylimidazolium bis((trifluoromethyl)sulfonyl)amide; phases: Liquid
Fixed: Pressure, kPa = 101
Fixed: Mole fraction of 1,2-dimethylbenzene = 0
Property: Activity coefficient of 1,2-dimethylbenzene (Liquid); method: Chromatography
Temperature, K	Activity coefficient of 1,2-dimethylbenzene	uncertainty
318.15	1.332	0.086
328.15	1.339	0.087
338.15	1.346	0.087
348.15	1.353	0.088
358.15	1.359	0.088
368.15	1.364	0.089

System: 1,3-dimethylbenzene + 1-(hexyloxymethyl)-3-methylimidazolium bis((trifluoromethyl)sulfonyl)amide; phases: Liquid
Fixed: Pressure, kPa = 101
Fixed: Mole fraction of 1,3-dimethylbenzene = 0
Property: Activity coefficient of 1,3-dimethylbenzene (Liquid); method: Chromatography
Temperature, K	Activity coefficient of 1,3-dimethylbenzene	uncertainty
318.15	1.454	0.095
328.15	1.462	0.096
338.15	1.469	0.096
348.15	1.476	0.097
358.15	1.483	0.098
368.15	1.488	0.098

System: 1,4-dimethylbenzene + 1-(hexyloxymethyl)-3-methylimidazolium bis((trifluoromethyl)sulfonyl)amide; phases: Liquid
Fixed: Pressure, kPa = 101
Fixed: Mole fraction of 1,4-dimethylbenzene = 0
Property: Activity coefficient of 1,4-dimethylbenzene (Liquid); method: Chromatography
Temperature, K	Activity coefficient of 1,4-dimethylbenzene	uncertainty
318.15	1.463	0.096
328.15	1.472	0.097
338.15	1.48	0.097
348.15	1.489	0.098
358.15	1.496	0.098
368.15	1.503	0.099

System: methanol + 1-(hexyloxymethyl)-3-methylimidazolium bis((trifluoromethyl)sulfonyl)amide; phases: Liquid
Fixed: Pressure, kPa = 101
Fixed: Mole fraction of methanol = 0
Property: Activity coefficient of methanol (Liquid); method: Chromatography
Temperature, K	Activity coefficient of methanol	uncertainty
298.15	1.36	0.09
308.15	1.24	0.08
318.15	1.13	0.07
328.15	1.04	0.07
338.15	0.959	0.06
348.15	0.894	0.057
358.15	0.832	0.054
368.15	0.775	0.051

System: ethanol + 1-(hexyloxymethyl)-3-methylimidazolium bis((trifluoromethyl)sulfonyl)amide; phases: Liquid
Fixed: Pressure, kPa = 101
Fixed: Mole fraction of ethanol = 0
Property: Activity coefficient of ethanol (Liquid); method: Chromatography
Temperature, K	Activity coefficient of ethanol	uncertainty
298.15	1.59	0.11
308.15	1.44	0.09
318.15	1.31	0.09
328.15	1.2	0.08
338.15	1.1	0.07
348.15	1.03	0.06
358.15	0.952	0.06
368.15	0.891	0.057

System: propan-1-ol + 1-(hexyloxymethyl)-3-methylimidazolium bis((trifluoromethyl)sulfonyl)amide; phases: Liquid
Fixed: Pressure, kPa = 101
Fixed: Mole fraction of propan-1-ol = 0
Property: Activity coefficient of propan-1-ol (Liquid); method: Chromatography
Temperature, K	Activity coefficient of propan-1-ol	uncertainty
298.15	1.83	0.12
308.15	1.64	0.11
318.15	1.49	0.1
328.15	1.36	0.09
338.15	1.24	0.08
348.15	1.15	0.07
358.15	1.07	0.07
368.15	0.989	0.062

System: butan-1-ol + 1-(hexyloxymethyl)-3-methylimidazolium bis((trifluoromethyl)sulfonyl)amide; phases: Liquid
Fixed: Pressure, kPa = 101
Fixed: Mole fraction of butan-1-ol = 0
Property: Activity coefficient of butan-1-ol (Liquid); method: Chromatography
Temperature, K	Activity coefficient of butan-1-ol	uncertainty
318.15	1.74	0.12
328.15	1.58	0.1
338.15	1.45	0.1
348.15	1.34	0.09
358.15	1.24	0.08
368.15	1.15	0.07

System: water + 1-(hexyloxymethyl)-3-methylimidazolium bis((trifluoromethyl)sulfonyl)amide; phases: Liquid
Fixed: Pressure, kPa = 101
Fixed: Mole fraction of water = 0
Property: Activity coefficient of water (Liquid); method: Chromatography
Temperature, K	Activity coefficient of water	uncertainty
298.15	4.37	0.3
308.15	3.81	0.26
318.15	3.32	0.23
328.15	2.9	0.2
338.15	2.57	0.17
348.15	2.28	0.16
358.15	2.04	0.14

System: thiophene + 1-(hexyloxymethyl)-3-methylimidazolium bis((trifluoromethyl)sulfonyl)amide; phases: Liquid
Fixed: Pressure, kPa = 101
Fixed: Mole fraction of thiophene = 0
Property: Activity coefficient of thiophene (Liquid); method: Chromatography
Temperature, K	Activity coefficient of thiophene	uncertainty
298.15	0.743	0.049
308.15	0.744	0.049
318.15	0.744	0.049
328.15	0.745	0.049
338.15	0.746	0.049
348.15	0.746	0.049
358.15	0.747	0.049
368.15	0.747	0.049

System: tetrahydrofuran + 1-(hexyloxymethyl)-3-methylimidazolium bis((trifluoromethyl)sulfonyl)amide; phases: Liquid
Fixed: Pressure, kPa = 101
Fixed: Mole fraction of tetrahydrofuran = 0
Property: Activity coefficient of tetrahydrofuran (Liquid); method: Chromatography
Temperature, K	Activity coefficient of tetrahydrofuran	uncertainty
298.15	0.424	0.035
308.15	0.438	0.035
318.15	0.452	0.036
328.15	0.466	0.036
338.15	0.479	0.037
348.15	0.491	0.037
358.15	0.504	0.038
368.15	0.515	0.038

System: 2-methoxy-2-methylpropane + 1-(hexyloxymethyl)-3-methylimidazolium bis((trifluoromethyl)sulfonyl)amide; phases: Liquid
Fixed: Pressure, kPa = 101
Fixed: Mole fraction of 2-methoxy-2-methylpropane = 0
Property: Activity coefficient of 2-methoxy-2-methylpropane (Liquid); method: Chromatography
Temperature, K	Activity coefficient of 2-methoxy-2-methylpropane	uncertainty
298.15	1.26	0.08
308.15	1.29	0.08
318.15	1.32	0.09
328.15	1.36	0.09
338.15	1.39	0.09
348.15	1.41	0.09
358.15	1.44	0.09
368.15	1.46	0.1

System: diethyl ether + 1-(hexyloxymethyl)-3-methylimidazolium bis((trifluoromethyl)sulfonyl)amide; phases: Liquid
Fixed: Pressure, kPa = 101
Fixed: Mole fraction of diethyl ether = 0
Property: Activity coefficient of diethyl ether (Liquid); method: Chromatography
Temperature, K	Activity coefficient of diethyl ether	uncertainty
298.15	1.35	0.09
308.15	1.37	0.09
318.15	1.38	0.09
328.15	1.4	0.09
338.15	1.41	0.09
348.15	1.43	0.09
358.15	1.44	0.09
368.15	1.45	0.1

System: dipropyl ether + 1-(hexyloxymethyl)-3-methylimidazolium bis((trifluoromethyl)sulfonyl)amide; phases: Liquid
Fixed: Pressure, kPa = 101
Fixed: Mole fraction of dipropyl ether = 0
Property: Activity coefficient of dipropyl ether (Liquid); method: Chromatography
Temperature, K	Activity coefficient of dipropyl ether	uncertainty
298.15	2.92	0.2
308.15	2.89	0.2
318.15	2.87	0.2
328.15	2.85	0.19
338.15	2.83	0.19
348.15	2.81	0.19
358.15	2.79	0.19
368.15	2.77	0.19

System: acetone + 1-(hexyloxymethyl)-3-methylimidazolium bis((trifluoromethyl)sulfonyl)amide; phases: Liquid
Fixed: Pressure, kPa = 101
Fixed: Mole fraction of acetone = 0
Property: Activity coefficient of acetone (Liquid); method: Chromatography
Temperature, K	Activity coefficient of acetone	uncertainty
298.15	0.3	0.031
308.15	0.308	0.031
318.15	0.315	0.031
328.15	0.322	0.031
338.15	0.328	0.032
348.15	0.336	0.032
358.15	0.342	0.032
368.15	0.348	0.032

System: pentane + 1,3-dihexyloxymethylimidazolium (bis(trifluoromethyl)sulfonyl)imide; phases: Liquid
Fixed: Pressure, kPa = 101
Fixed: Mole fraction of pentane = 0
Property: Activity coefficient of pentane (Liquid); method: Chromatography
Temperature, K	Activity coefficient of pentane	uncertainty
298.15	2.78	0.19
308.15	2.69	0.18
318.15	2.62	0.18
328.15	2.54	0.17
338.15	2.48	0.17
348.15	2.43	0.17
358.15	2.38	0.16
368.15	2.33	0.16

System: hexane + 1,3-dihexyloxymethylimidazolium (bis(trifluoromethyl)sulfonyl)imide; phases: Liquid
Fixed: Pressure, kPa = 101
Fixed: Mole fraction of hexane = 0
Property: Activity coefficient of hexane (Liquid); method: Chromatography
Temperature, K	Activity coefficient of hexane	uncertainty
298.15	3.22	0.22
308.15	3.13	0.21
318.15	3.04	0.21
328.15	2.97	0.2
338.15	2.9	0.2
348.15	2.83	0.19
358.15	2.77	0.19
368.15	2.72	0.19

System: heptane + 1,3-dihexyloxymethylimidazolium (bis(trifluoromethyl)sulfonyl)imide; phases: Liquid
Fixed: Pressure, kPa = 101
Fixed: Mole fraction of heptane = 0
Property: Activity coefficient of heptane (Liquid); method: Chromatography
Temperature, K	Activity coefficient of heptane	uncertainty
298.15	3.94	0.27
308.15	3.81	0.26
318.15	3.68	0.25
328.15	3.57	0.24
338.15	3.46	0.24
348.15	3.36	0.23
358.15	3.27	0.22
368.15	3.19	0.22

System: octane + 1,3-dihexyloxymethylimidazolium (bis(trifluoromethyl)sulfonyl)imide; phases: Liquid
Fixed: Pressure, kPa = 101
Fixed: Mole fraction of octane = 0
Property: Activity coefficient of octane (Liquid); method: Chromatography
Temperature, K	Activity coefficient of octane	uncertainty
298.15	4.8	0.33
308.15	4.62	0.31
318.15	4.45	0.3
328.15	4.3	0.29
338.15	4.16	0.28
348.15	4.03	0.27
358.15	3.92	0.27
368.15	3.81	0.26

System: nonane + 1,3-dihexyloxymethylimidazolium (bis(trifluoromethyl)sulfonyl)imide; phases: Liquid
Fixed: Pressure, kPa = 101
Fixed: Mole fraction of nonane = 0
Property: Activity coefficient of nonane (Liquid); method: Chromatography
Temperature, K	Activity coefficient of nonane	uncertainty
298.15	5.93	0.4
308.15	5.67	0.39
318.15	5.42	0.37
328.15	5.22	0.36
338.15	5.01	0.34
348.15	4.84	0.33
358.15	4.68	0.32
368.15	4.53	0.31

System: decane + 1,3-dihexyloxymethylimidazolium (bis(trifluoromethyl)sulfonyl)imide; phases: Liquid
Fixed: Pressure, kPa = 101
Fixed: Mole fraction of decane = 0
Property: Activity coefficient of decane (Liquid); method: Chromatography
Temperature, K	Activity coefficient of decane	uncertainty
298.15	7.38	0.5
308.15	7	0.48
318.15	6.66	0.45
328.15	6.38	0.43
338.15	6.11	0.42
348.15	5.87	0.4
358.15	5.65	0.39
368.15	5.46	0.37

System: cyclopentane + 1,3-dihexyloxymethylimidazolium (bis(trifluoromethyl)sulfonyl)imide; phases: Liquid
Fixed: Pressure, kPa = 101
Fixed: Mole fraction of cyclopentane = 0
Property: Activity coefficient of cyclopentane (Liquid); method: Chromatography
Temperature, K	Activity coefficient of cyclopentane	uncertainty
298.15	1.84	0.12
308.15	1.78	0.12
318.15	1.74	0.12
328.15	1.69	0.11
338.15	1.65	0.11
348.15	1.61	0.11
358.15	1.57	0.1
368.15	1.54	0.1

System: cyclohexane + 1,3-dihexyloxymethylimidazolium (bis(trifluoromethyl)sulfonyl)imide; phases: Liquid
Fixed: Pressure, kPa = 101
Fixed: Mole fraction of cyclohexane = 0
Property: Activity coefficient of cyclohexane (Liquid); method: Chromatography
Temperature, K	Activity coefficient of cyclohexane	uncertainty
298.15	2.32	0.16
308.15	2.22	0.15
318.15	2.15	0.15
328.15	2.08	0.14
338.15	2.01	0.14
348.15	1.94	0.13
358.15	1.89	0.13
368.15	1.84	0.12

System: cycloheptane + 1,3-dihexyloxymethylimidazolium (bis(trifluoromethyl)sulfonyl)imide; phases: Liquid
Fixed: Pressure, kPa = 101
Fixed: Mole fraction of cycloheptane = 0
Property: Activity coefficient of cycloheptane (Liquid); method: Chromatography
Temperature, K	Activity coefficient of cycloheptane	uncertainty
298.15	2.71	0.18
308.15	2.6	0.18
318.15	2.5	0.17
328.15	2.41	0.16
338.15	2.33	0.16
348.15	2.25	0.15
358.15	2.19	0.15
368.15	2.12	0.14

System: cyclooctane + 1,3-dihexyloxymethylimidazolium (bis(trifluoromethyl)sulfonyl)imide; phases: Liquid
Fixed: Pressure, kPa = 101
Fixed: Mole fraction of cyclooctane = 0
Property: Activity coefficient of cyclooctane (Liquid); method: Chromatography
Temperature, K	Activity coefficient of cyclooctane	uncertainty
298.15	3.2	0.22
308.15	3.06	0.21
318.15	2.94	0.2
328.15	2.82	0.19
338.15	2.72	0.19
348.15	2.63	0.18
358.15	2.54	0.17
368.15	2.47	0.17

System: 1-pentene + 1,3-dihexyloxymethylimidazolium (bis(trifluoromethyl)sulfonyl)imide; phases: Liquid
Fixed: Pressure, kPa = 101
Fixed: Mole fraction of 1-pentene = 0
Property: Activity coefficient of 1-pentene (Liquid); method: Chromatography
Temperature, K	Activity coefficient of 1-pentene	uncertainty
298.15	1.9	0.13
308.15	1.87	0.13
318.15	1.83	0.12
328.15	1.8	0.12
338.15	1.77	0.12
348.15	1.75	0.12
358.15	1.72	0.12
368.15	1.7	0.11

System: hex-1-ene + 1,3-dihexyloxymethylimidazolium (bis(trifluoromethyl)sulfonyl)imide; phases: Liquid
Fixed: Pressure, kPa = 101
Fixed: Mole fraction of hex-1-ene = 0
Property: Activity coefficient of hex-1-ene (Liquid); method: Chromatography
Temperature, K	Activity coefficient of hex-1-ene	uncertainty
298.15	2.25	0.15
308.15	2.2	0.15
318.15	2.15	0.15
328.15	2.11	0.14
338.15	2.07	0.14
348.15	2.04	0.14
358.15	2.01	0.14
368.15	1.97	0.13

System: 1-heptene + 1,3-dihexyloxymethylimidazolium (bis(trifluoromethyl)sulfonyl)imide; phases: Liquid
Fixed: Pressure, kPa = 101
Fixed: Mole fraction of 1-heptene = 0
Property: Activity coefficient of 1-heptene (Liquid); method: Chromatography
Temperature, K	Activity coefficient of 1-heptene	uncertainty
298.15	2.7	0.18
308.15	2.64	0.18
318.15	2.59	0.18
328.15	2.54	0.17
338.15	2.49	0.17
348.15	2.45	0.17
358.15	2.41	0.16
368.15	2.37	0.16

System: oct-1-ene + 1,3-dihexyloxymethylimidazolium (bis(trifluoromethyl)sulfonyl)imide; phases: Liquid
Fixed: Pressure, kPa = 101
Fixed: Mole fraction of oct-1-ene = 0
Property: Activity coefficient of oct-1-ene (Liquid); method: Chromatography
Temperature, K	Activity coefficient of oct-1-ene	uncertainty
298.15	3.28	0.22
308.15	3.2	0.22
318.15	3.12	0.21
328.15	3.05	0.21
338.15	2.99	0.2
348.15	2.93	0.2
358.15	2.87	0.2
368.15	2.83	0.19

System: 1-pentyne + 1,3-dihexyloxymethylimidazolium (bis(trifluoromethyl)sulfonyl)imide; phases: Liquid
Fixed: Pressure, kPa = 101
Fixed: Mole fraction of 1-pentyne = 0
Property: Activity coefficient of 1-pentyne (Liquid); method: Chromatography
Temperature, K	Activity coefficient of 1-pentyne	uncertainty
298.15	0.992	0.062
308.15	0.997	0.062
318.15	1.002	0.063
328.15	1.007	0.063
338.15	1.012	0.063
348.15	1.016	0.064
358.15	1.02	0.064
368.15	1.025	0.064

System: 1-hexyne + 1,3-dihexyloxymethylimidazolium (bis(trifluoromethyl)sulfonyl)imide; phases: Liquid
Fixed: Pressure, kPa = 101
Fixed: Mole fraction of 1-hexyne = 0
Property: Activity coefficient of 1-hexyne (Liquid); method: Chromatography
Temperature, K	Activity coefficient of 1-hexyne	uncertainty
298.15	1.164	0.074
308.15	1.169	0.075
318.15	1.173	0.075
328.15	1.178	0.075
338.15	1.183	0.076
348.15	1.186	0.076
358.15	1.19	0.076
368.15	1.194	0.076

System: 1-heptyne + 1,3-dihexyloxymethylimidazolium (bis(trifluoromethyl)sulfonyl)imide; phases: Liquid
Fixed: Pressure, kPa = 101
Fixed: Mole fraction of 1-heptyne = 0
Property: Activity coefficient of 1-heptyne (Liquid); method: Chromatography
Temperature, K	Activity coefficient of 1-heptyne	uncertainty
298.15	1.369	0.089
308.15	1.377	0.09
318.15	1.385	0.09
328.15	1.391	0.091
338.15	1.398	0.091
348.15	1.403	0.092
358.15	1.409	0.092
368.15	1.415	0.093

System: 1-octyne + 1,3-dihexyloxymethylimidazolium (bis(trifluoromethyl)sulfonyl)imide; phases: Liquid
Fixed: Pressure, kPa = 101
Fixed: Mole fraction of 1-octyne = 0
Property: Activity coefficient of 1-octyne (Liquid); method: Chromatography
Temperature, K	Activity coefficient of 1-octyne	uncertainty
298.15	1.654	0.11
308.15	1.657	0.11
318.15	1.659	0.11
328.15	1.662	0.111
338.15	1.665	0.111
348.15	1.666	0.111
358.15	1.668	0.111
368.15	1.67	0.111

System: benzene + 1,3-dihexyloxymethylimidazolium (bis(trifluoromethyl)sulfonyl)imide; phases: Liquid
Fixed: Pressure, kPa = 101
Fixed: Mole fraction of benzene = 0
Property: Activity coefficient of benzene (Liquid); method: Chromatography
Temperature, K	Activity coefficient of benzene	uncertainty
298.15	0.608	0.043
308.15	0.608	0.043
318.15	0.607	0.042
328.15	0.607	0.042
338.15	0.606	0.042
348.15	0.606	0.042
358.15	0.606	0.042
368.15	0.606	0.042

System: toluene + 1,3-dihexyloxymethylimidazolium (bis(trifluoromethyl)sulfonyl)imide; phases: Liquid
Fixed: Pressure, kPa = 101
Fixed: Mole fraction of toluene = 0
Property: Activity coefficient of toluene (Liquid); method: Chromatography
Temperature, K	Activity coefficient of toluene	uncertainty
308.15	0.743	0.049
318.15	0.746	0.049
328.15	0.749	0.049
338.15	0.753	0.05
348.15	0.756	0.05
358.15	0.758	0.05
368.15	0.761	0.05

System: ethylbenzene + 1,3-dihexyloxymethylimidazolium (bis(trifluoromethyl)sulfonyl)imide; phases: Liquid
Fixed: Pressure, kPa = 101
Fixed: Mole fraction of ethylbenzene = 0
Property: Activity coefficient of ethylbenzene (Liquid); method: Chromatography
Temperature, K	Activity coefficient of ethylbenzene	uncertainty
298.15	0.967	0.061
308.15	0.966	0.061
318.15	0.965	0.061
328.15	0.964	0.061
338.15	0.963	0.061
348.15	0.963	0.061
358.15	0.962	0.06

System: 1,2-dimethylbenzene + 1,3-dihexyloxymethylimidazolium (bis(trifluoromethyl)sulfonyl)imide; phases: Liquid
Fixed: Pressure, kPa = 101
Fixed: Mole fraction of 1,2-dimethylbenzene = 0
Property: Activity coefficient of 1,2-dimethylbenzene (Liquid); method: Chromatography
Temperature, K	Activity coefficient of 1,2-dimethylbenzene	uncertainty
318.15	0.89	0.057
328.15	0.891	0.057
338.15	0.892	0.057
348.15	0.894	0.057
358.15	0.895	0.057
368.15	0.896	0.057

System: 1,3-dimethylbenzene + 1,3-dihexyloxymethylimidazolium (bis(trifluoromethyl)sulfonyl)imide; phases: Liquid
Fixed: Pressure, kPa = 101
Fixed: Mole fraction of 1,3-dimethylbenzene = 0
Property: Activity coefficient of 1,3-dimethylbenzene (Liquid); method: Chromatography
Temperature, K	Activity coefficient of 1,3-dimethylbenzene	uncertainty
318.15	0.944	0.06
328.15	0.946	0.06
338.15	0.948	0.06
348.15	0.951	0.06
358.15	0.953	0.06
368.15	0.955	0.06

System: 1,4-dimethylbenzene + 1,3-dihexyloxymethylimidazolium (bis(trifluoromethyl)sulfonyl)imide; phases: Liquid
Fixed: Pressure, kPa = 101
Fixed: Mole fraction of 1,4-dimethylbenzene = 0
Property: Activity coefficient of 1,4-dimethylbenzene (Liquid); method: Chromatography
Temperature, K	Activity coefficient of 1,4-dimethylbenzene	uncertainty
318.15	0.949	0.06
328.15	0.952	0.06
338.15	0.955	0.06
348.15	0.958	0.06
358.15	0.96	0.06
368.15	0.962	0.06

System: methanol + 1,3-dihexyloxymethylimidazolium (bis(trifluoromethyl)sulfonyl)imide; phases: Liquid
Fixed: Pressure, kPa = 101
Fixed: Mole fraction of methanol = 0
Property: Activity coefficient of methanol (Liquid); method: Chromatography
Temperature, K	Activity coefficient of methanol	uncertainty
298.15	1.17	0.07
308.15	1.065	0.067
318.15	0.978	0.061
328.15	0.9	0.057
338.15	0.834	0.054
348.15	0.776	0.051
358.15	0.725	0.048
368.15	0.681	0.046

System: ethanol + 1,3-dihexyloxymethylimidazolium (bis(trifluoromethyl)sulfonyl)imide; phases: Liquid
Fixed: Pressure, kPa = 101
Fixed: Mole fraction of ethanol = 0
Property: Activity coefficient of ethanol (Liquid); method: Chromatography
Temperature, K	Activity coefficient of ethanol	uncertainty
298.15	1.25	0.08
308.15	1.14	0.07
318.15	1.04	0.065
328.15	0.958	0.06
338.15	0.886	0.056
348.15	0.824	0.053
358.15	0.767	0.05
368.15	0.719	0.048

System: propan-1-ol + 1,3-dihexyloxymethylimidazolium (bis(trifluoromethyl)sulfonyl)imide; phases: Liquid
Fixed: Pressure, kPa = 101
Fixed: Mole fraction of propan-1-ol = 0
Property: Activity coefficient of propan-1-ol (Liquid); method: Chromatography
Temperature, K	Activity coefficient of propan-1-ol	uncertainty
298.15	1.31	0.09
308.15	1.19	0.08
318.15	1.09	0.07
328.15	1.003	0.063
338.15	0.929	0.059
348.15	0.861	0.055
358.15	0.803	0.052
368.15	0.752	0.049

System: butan-1-ol + 1,3-dihexyloxymethylimidazolium (bis(trifluoromethyl)sulfonyl)imide; phases: Liquid
Fixed: Pressure, kPa = 101
Fixed: Mole fraction of butan-1-ol = 0
Property: Activity coefficient of butan-1-ol (Liquid); method: Chromatography
Temperature, K	Activity coefficient of butan-1-ol	uncertainty
318.15	1.19	0.08
328.15	1.098	0.07
338.15	1.015	0.064
348.15	0.943	0.059
358.15	0.877	0.056
368.15	0.82	0.053

System: water + 1,3-dihexyloxymethylimidazolium (bis(trifluoromethyl)sulfonyl)imide; phases: Liquid
Fixed: Pressure, kPa = 101
Fixed: Mole fraction of water = 0
Property: Activity coefficient of water (Liquid); method: Chromatography
Temperature, K	Activity coefficient of water	uncertainty
298.15	4.43	0.3
308.15	3.8	0.26
318.15	3.31	0.23
328.15	2.93	0.2
338.15	2.53	0.17
348.15	2.24	0.15
358.15	2.02	0.14
368.15	1.83	0.12

System: thiophene + 1,3-dihexyloxymethylimidazolium (bis(trifluoromethyl)sulfonyl)imide; phases: Liquid
Fixed: Pressure, kPa = 101
Fixed: Mole fraction of thiophene = 0
Property: Activity coefficient of thiophene (Liquid); method: Chromatography
Temperature, K	Activity coefficient of thiophene	uncertainty
298.15	0.578	0.041
308.15	0.575	0.041
318.15	0.571	0.041
328.15	0.568	0.041
338.15	0.565	0.041
348.15	0.562	0.04
358.15	0.559	0.04
368.15	0.557	0.04

System: tetrahydrofuran + 1,3-dihexyloxymethylimidazolium (bis(trifluoromethyl)sulfonyl)imide; phases: Liquid
Fixed: Pressure, kPa = 101
Fixed: Mole fraction of tetrahydrofuran = 0
Property: Activity coefficient of tetrahydrofuran (Liquid); method: Chromatography
Temperature, K	Activity coefficient of tetrahydrofuran	uncertainty
298.15	0.294	0.031
308.15	0.304	0.031
318.15	0.314	0.031
328.15	0.324	0.032
338.15	0.333	0.032
348.15	0.343	0.032
358.15	0.352	0.032
368.15	0.36	0.033

System: 2-methoxy-2-methylpropane + 1,3-dihexyloxymethylimidazolium (bis(trifluoromethyl)sulfonyl)imide; phases: Liquid
Fixed: Pressure, kPa = 101
Fixed: Mole fraction of 2-methoxy-2-methylpropane = 0
Property: Activity coefficient of 2-methoxy-2-methylpropane (Liquid); method: Chromatography
Temperature, K	Activity coefficient of 2-methoxy-2-methylpropane	uncertainty
298.15	0.759	0.05
308.15	0.78	0.051
318.15	0.801	0.052
328.15	0.821	0.053
338.15	0.841	0.054
348.15	0.859	0.055
358.15	0.877	0.056
368.15	0.896	0.057

System: diethyl ether + 1,3-dihexyloxymethylimidazolium (bis(trifluoromethyl)sulfonyl)imide; phases: Liquid
Fixed: Pressure, kPa = 101
Fixed: Mole fraction of diethyl ether = 0
Property: Activity coefficient of diethyl ether (Liquid); method: Chromatography
Temperature, K	Activity coefficient of diethyl ether	uncertainty
298.15	0.811	0.052
308.15	0.826	0.053
318.15	0.839	0.054
328.15	0.854	0.055
338.15	0.867	0.055
348.15	0.879	0.056
358.15	0.89	0.057
368.15	0.904	0.057

System: dipropyl ether + 1,3-dihexyloxymethylimidazolium (bis(trifluoromethyl)sulfonyl)imide; phases: Liquid
Fixed: Pressure, kPa = 101
Fixed: Mole fraction of dipropyl ether = 0
Property: Activity coefficient of dipropyl ether (Liquid); method: Chromatography
Temperature, K	Activity coefficient of dipropyl ether	uncertainty
298.15	1.49	0.098
308.15	1.492	0.098
318.15	1.494	0.098
328.15	1.495	0.098
338.15	1.497	0.099
348.15	1.498	0.099
358.15	1.5	0.099
368.15	1.501	0.099

System: acetone + 1,3-dihexyloxymethylimidazolium (bis(trifluoromethyl)sulfonyl)imide; phases: Liquid
Fixed: Pressure, kPa = 101
Fixed: Mole fraction of acetone = 0
Property: Activity coefficient of acetone (Liquid); method: Chromatography
Temperature, K	Activity coefficient of acetone	uncertainty
298.15	0.262	0.03
308.15	0.267	0.03
318.15	0.272	0.03
328.15	0.277	0.03
338.15	0.281	0.03
348.15	0.286	0.031
358.15	0.29	0.031
368.15	0.294	0.031
