Measured thermophysical data. Vapor liquid equilibrium of methane and methane + nitrogen and an equimolar hexane + decane mixture under isothermal conditions
Source: Fluid Phase Equilib., 2005, 10.1016/j.fluid.2005.09.002
Compound 1: methane, CH4, InChI=1S/CH4/h1H4, purity 99.999%
Compound 2: hexane, C6H14, InChI=1S/C6H14/c1-3-5-6-4-2/h3-6H2,1-2H3, purity 99%
Compound 3: decane, C10H22, InChI=1S/C10H22/c1-3-5-7-9-10-8-6-4-2/h3-10H2,1-2H3, purity 99%

System: methane + hexane + decane; phases: Liquid, Gas
Property: Mole fraction of hexane (Liquid); method: Chromatography
Property: Mole fraction of hexane (Gas); method: Chromatography
Property: Mole fraction of methane (Gas); method: Chromatography
Temperature, K	Pressure, kPa	Mole fraction of methane	Mole fraction of hexane	uncertainty	Mole fraction of hexane	uncertainty	Mole fraction of methane	uncertainty
298.15	900	0.055	0.509	0.014	0.008	0.008	0.991	
298.15	3251	0.118	0.448	0.014	0.003	0.003	0.994	
298.15	7340	0.311	0.322	0.014	0.008	0.008	0.991	
298.15	11560	0.437	0.247	0.014	0.011	0.011	0.987	
298.15	13860	0.518	0.198	0.014	0.012	0.012	0.987	
298.15	15850	0.563	0.171	0.014	0.012	0.012	0.987	
298.15	18230	0.61	0.155	0.014	0.015	0.015	0.982	
273.15	2418	0.137	0.433	0.014	0.008	0.008	0.99	
273.15	3947	0.25	0.305	0.014	0.003	0.003	0.994	
273.15	4985	0.257	0.38	0.014	0.006	0.006	0.993	
273.15	7240	0.367	0.324	0.014	0.005	0.005	0.994	
273.15	9050	0.404	0.287	0.014	0.006	0.006	0.993	
273.15	11232	0.453	0.27	0.014	0.006	0.006	0.991	
273.15	13306	0.555	0.195	0.014	0.01	0.01	0.988	
273.15	16870	0.634	0.126	0.014	0.01	0.01	0.986	
258.15	2982	0.225	0.403	0.014	0.003	0.003	0.996	
258.15	5458	0.332	0.373	0.014	0.002	0.002	0.996	
258.15	7449	0.382	0.368	0.014	0.002	0.002	0.996	
258.15	9380	0.471	0.295	0.014	0.003	0.003	0.996	
258.15	11249	0.497	0.312	0.014	0.003	0.003	0.996	
258.15	12997	0.554	0.276	0.014	0.004	0.004	0.994	
258.15	14319	0.6	0.234	0.014	0.004	0.004	0.994	
258.15	17920	0.707	0.193	0.014	0.008	0.008	0.989	
258.15	18847	0.734	0.18	0.014	0.009	0.009	0.989	
