Measured thermophysical data. Characterizing second generation biofuels: Excess enthalpies and vapour-liquid equilibria of the binary mixtures containing 1-pentanol or 2-pentanol and n-hexane
Source: Fluid Phase Equilib., 2016, 10.1016/j.fluid.2016.05.031
Compound 1: pentan-1-ol, C5H12O, InChI=1S/C5H12O/c1-2-3-4-5-6/h6H,2-5H2,1H3, purity 99.7%
Compound 2: pentan-2-ol, C5H12O, InChI=1S/C5H12O/c1-3-4-5(2)6/h5-6H,3-4H2,1-2H3, purity 99.7%
Compound 3: hexane, C6H14, InChI=1S/C6H14/c1-3-5-6-4-2/h3-6H2,1-2H3, purity 99.7%

System: pentan-1-ol; phases: Liquid, Gas
Property: Vapor or sublimation pressure, kPa (Liquid); method: Closed cell (Static) method
Temperature, K	Vapor or sublimation pressure, kPa	uncertainty
313.15	0.905	0.012

System: pentan-2-ol; phases: Liquid, Gas
Property: Vapor or sublimation pressure, kPa (Liquid); method: Closed cell (Static) method
Temperature, K	Vapor or sublimation pressure, kPa	uncertainty
313.15	2.295	0.015

System: hexane; phases: Liquid, Gas
Property: Vapor or sublimation pressure, kPa (Liquid); method: Closed cell (Static) method
Temperature, K	Vapor or sublimation pressure, kPa	uncertainty
313.15	37.188	0.076

System: pentan-1-ol + hexane; phases: Liquid
Fixed: Pressure, kPa = 101
Property: Excess molar enthalpy (molar enthalpy of mixing), kJ/mol (Liquid); method: Flow calorimetry
Temperature, K	Mole fraction of pentan-1-ol	Excess molar enthalpy (molar enthalpy of mixing), kJ/mol	uncertainty
298.15	0	0	0.001
298.15	0.0504	0.3293	0.0046
298.15	0.0999	0.4132	0.0055
298.15	0.1509	0.4656	0.0061
298.15	0.201	0.5013	0.0066
298.15	0.2524	0.5269	0.0069
298.15	0.3027	0.5336	0.007
298.15	0.3522	0.5378	0.007
298.15	0.403	0.5242	0.0069
298.15	0.4528	0.5058	0.0066
298.15	0.5035	0.4776	0.0063
298.15	0.5535	0.4416	0.0059
298.15	0.6025	0.3971	0.0053
298.15	0.6525	0.3463	0.0047
298.15	0.7015	0.2901	0.004
298.15	0.7514	0.2356	0.0034
298.15	0.8021	0.1788	0.0027
298.15	0.8518	0.1266	0.0021
298.15	0.9004	0.0696	0.0014
298.15	0.9499	0.021	0.001
298.15	1	0	0.001
313.15	0	0	0.001
313.15	0.0504	0.4551	0.0061
313.15	0.1	0.5692	0.0074
313.15	0.151	0.6377	0.0082
313.15	0.2011	0.6801	0.0088
313.15	0.2525	0.7059	0.0091
313.15	0.3007	0.7209	0.0093
313.15	0.3503	0.7245	0.0093
313.15	0.4032	0.7116	0.0091
313.15	0.453	0.6886	0.0089
313.15	0.5039	0.652	0.0084
313.15	0.5539	0.6051	0.0078
313.15	0.6027	0.5473	0.0071
313.15	0.6527	0.4874	0.0064
313.15	0.7016	0.4154	0.0055
313.15	0.7515	0.3401	0.0046
313.15	0.8019	0.2648	0.0037
313.15	0.8517	0.2	0.0029
313.15	0.9004	0.1282	0.0021
313.15	0.9499	0.0674	0.0014
313.15	1	0	0.001

System: pentan-1-ol + hexane; phases: Gas, Liquid
Fixed: Temperature, K = 313.15
Property: Vapor or sublimation pressure, kPa (Gas); method: Closed cell (Static) method
Mole fraction of pentan-1-ol	Vapor or sublimation pressure, kPa	uncertainty
0	37.188	0.138
0.0287	36.627	0.136
0.0813	36.21	0.135
0.1338	35.774	0.133
0.1857	35.31	0.132
0.238	34.807	0.13
0.2899	34.271	0.129
0.3416	33.692	0.127
0.3931	33.04	0.124
0.4013	33.041	0.124
0.4445	32.295	0.122
0.4516	32.289	0.122
0.4957	31.431	0.119
0.5018	31.426	0.119
0.5468	30.411	0.115
0.5521	30.404	0.115
0.5977	29.178	0.111
0.6029	29.141	0.111
0.6526	27.617	0.111
0.7022	25.752	0.108
0.7526	23.409	0.106
0.8024	20.537	0.105
0.8524	16.984	0.106
0.9018	12.652	0.113
0.9502	7.474	0.126
1	0.92	0.018

System: hexane + pentan-2-ol; phases: Liquid
Fixed: Pressure, kPa = 101
Property: Excess molar enthalpy (molar enthalpy of mixing), kJ/mol (Liquid); method: Flow calorimetry
Temperature, K	Mole fraction of pentan-2-ol	Excess molar enthalpy (molar enthalpy of mixing), kJ/mol	uncertainty
298.15	0	0	0.001
298.15	0.05	0.4427	0.006
298.15	0.1016	0.5757	0.0075
298.15	0.1523	0.663	0.0086
298.15	0.2021	0.7249	0.0093
298.15	0.2509	0.7703	0.0099
298.15	0.3012	0.8082	0.0103
298.15	0.3527	0.8348	0.0107
298.15	0.4013	0.8475	0.0108
298.15	0.453	0.8487	0.0108
298.15	0.5018	0.8359	0.0107
298.15	0.5518	0.813	0.0104
298.15	0.6027	0.7697	0.0099
298.15	0.6528	0.7098	0.0091
298.15	0.7018	0.637	0.0082
298.15	0.7519	0.5469	0.0071
298.15	0.7992	0.4497	0.006
298.15	0.8509	0.3413	0.0046
298.15	0.8999	0.2292	0.0033
298.15	0.9496	0.1089	0.0019
298.15	1	0	0.001
313.15	0	0	0.001
313.15	0.0501	0.5599	0.0074
313.15	0.1017	0.7408	0.0095
313.15	0.1524	0.8519	0.0109
313.15	0.2022	0.9237	0.0117
313.15	0.2512	0.9707	0.0123
313.15	0.3014	0.9993	0.0127
313.15	0.353	1.0272	0.013
313.15	0.4015	1.0327	0.0131
313.15	0.4533	1.0287	0.013
313.15	0.5022	1.0064	0.0127
313.15	0.5521	0.9775	0.0124
313.15	0.6031	0.9282	0.0118
313.15	0.6531	0.855	0.0109
313.15	0.7019	0.7748	0.0099
313.15	0.7519	0.67	0.0086
313.15	0.7992	0.5628	0.0073
313.15	0.8509	0.4279	0.0057
313.15	0.9016	0.2845	0.004
313.15	0.9513	0.1331	0.0022
313.15	1	0	0.001

System: hexane + pentan-2-ol; phases: Gas, Liquid
Fixed: Temperature, K = 313.15
Property: Vapor or sublimation pressure, kPa (Gas); method: Closed cell (Static) method
Mole fraction of pentan-2-ol	Vapor or sublimation pressure, kPa	uncertainty
0	37.188	0.138
0.0497	36.773	0.137
0.1005	36.315	0.135
0.1504	35.805	0.134
0.2008	35.258	0.132
0.251	34.647	0.13
0.3012	33.993	0.128
0.3513	33.273	0.126
0.401	32.48	0.123
0.4012	32.453	0.123
0.4514	31.557	0.121
0.4514	31.603	0.121
0.5014	30.574	0.118
0.5016	30.59	0.118
0.5515	29.432	0.115
0.5518	29.459	0.115
0.6013	28.106	0.111
0.6019	28.153	0.111
0.652	26.651	0.108
0.702	24.866	0.105
0.7517	22.75	0.102
0.8018	20.176	0.1
0.852	17.003	0.1
0.9017	13.108	0.105
0.9496	8.456	0.118
1	2.307	0.023
