Measured thermophysical data. Measurement and correlation of the isobaric vapor-liquid equilibria of methanol + methyl carbonate + Bis(trifluoromethylsulfonyl)imide-based ionic liquidsat 101.3 kPa
Source: Fluid Phase Equilib., 2018, 10.1016/j.fluid.2018.09.005
Compound 1: methanol, CH4O, InChI=1S/CH4O/c1-2/h2H,1H3, purity 99.8%
Compound 2: dimethyl carbonate, C3H6O3, InChI=1S/C3H6O3/c1-5-3(4)6-2/h1-2H3, purity 99.5%
Compound 3: 1-butyl-3-methylimidazolium bis(trifluoromethylsulfonyl)imide, C10H15F6N3O4S2, InChI=1S/C8H15N2.C2F6NO4S2/c1-3-4-5-10-7-6-9(2)8-10;3-1(4,5)14(10,11)9-15(12,13)2(6,7)8/h6-8H,3-5H2,1-2H3;/q+1;-1, purity 98%
Compound 4: 1-hexyl-3-methylimidazolium bis[(trifluoromethyl)sulfonyl]imide, C12H19F6N3O4S2, InChI=1S/C10H19N2.C2F6NO4S2/c1-3-4-5-6-7-12-9-8-11(2)10-12;3-1(4,5)14(10,11)9-15(12,13)2(6,7)8/h8-10H,3-7H2,1-2H3;/q+1;-1, purity 98%

System: methanol + dimethyl carbonate; phases: Liquid, Gas
Fixed: Pressure, kPa = 101.3
Property: Boiling temperature at pressure P, K (Liquid); method: Ebulliometric method (Recirculating still)
Mole fraction of methanol	Boiling temperature at pressure P, K	uncertainty
0	363.15	0.41
0.04	355.45	0.56
0.148	348.05	0.47
0.242	343.45	0.43
0.383	340.45	0.42
0.477	338.85	0.41
0.552	338.15	0.41
0.598	337.55	0.41
0.653	337.25	0.41
0.695	337.05	0.41
0.741	336.65	0.41
0.794	336.45	0.41
0.845	336.45	0.41
0.893	336.55	0.41
1	337.85	0.41

System: methanol + dimethyl carbonate; phases: Gas, Liquid
Fixed: Pressure, kPa = 101.3
Property: Mole fraction of methanol (Gas); method: Chromatography
Mole fraction of methanol	Mole fraction of methanol	uncertainty
0	0	
0.04	0.22	0.013
0.148	0.462	0.009
0.242	0.577	0.007
0.383	0.675	0.005
0.477	0.707	0.005
0.552	0.73	0.005
0.598	0.749	0.005
0.653	0.766	0.005
0.695	0.787	0.005
0.741	0.793	0.005
0.794	0.815	0.005
0.845	0.838	0.005
0.893	0.87	0.006
1	1	

System: 1-butyl-3-methylimidazolium bis(trifluoromethylsulfonyl)imide + methanol + dimethyl carbonate; phases: Liquid, Gas
Fixed: Pressure, kPa = 101.3
Property: Mole fraction of 1-butyl-3-methylimidazolium bis(trifluoromethylsulfonyl)imide (Liquid); method: Phase equilibration
Property: Mole fraction of 1-butyl-3-methylimidazolium bis(trifluoromethylsulfonyl)imide (Gas); method: Phase equilibration
Property: Mole fraction of methanol (Gas); method: Phase equilibration
Temperature, K	Mole fraction of methanol	Mole fraction of 1-butyl-3-methylimidazolium bis(trifluoromethylsulfonyl)imide	uncertainty	Mole fraction of 1-butyl-3-methylimidazolium bis(trifluoromethylsulfonyl)imide	uncertainty	Mole fraction of methanol	uncertainty
354.25	0.091	0.049	0.00401	0		0.298	
339.65	0.794	0.1	0.00404	0		0.913	
361.15	0.041	0.15	0.00409	0		0.189	
349.55	0.153	0.05	0.00401	0		0.426	
354.45	0.094	0.15	0.00409	0		0.34	
350.15	0.196	0.15	0.00409	0		0.531	
346.95	0.292	0.15	0.00409	0		0.632	
344.75	0.382	0.15	0.00409	0		0.7	
343.55	0.473	0.15	0.00409	0		0.753	
342.55	0.541	0.15	0.00409	0		0.791	
342.65	0.636	0.15	0.00409	0		0.842	
357.55	0.042	0.1	0.00404	0		0.176	
342.45	0.73	0.149	0.00409	0		0.911	
344.75	0.269	0.05	0.00401	0		0.571	
342.45	0.355	0.05	0.00401	0		0.651	
340.35	0.457	0.05	0.00401	0		0.699	
339.15	0.563	0.05	0.00401	0		0.741	
338.55	0.643	0.051	0.00401	0		0.778	
338.05	0.744	0.05	0.00401	0		0.832	
338.15	0.84	0.05	0.00401	0		0.894	
351.55	0.135	0.1	0.00404	0		0.417	
347.45	0.229	0.1	0.00404	0		0.553	
344.55	0.34	0.1	0.00404	0		0.647	
342.25	0.427	0.101	0.00404	0		0.695	
340.85	0.517	0.1	0.00404	0		0.744	
340.05	0.606	0.1	0.00404	0		0.796	
339.55	0.704	0.1	0.00404	0		0.846	

System: 1-hexyl-3-methylimidazolium bis[(trifluoromethyl)sulfonyl]imide + methanol + dimethyl carbonate; phases: Liquid, Gas
Fixed: Pressure, kPa = 101.3
Property: Mole fraction of 1-hexyl-3-methylimidazolium bis[(trifluoromethyl)sulfonyl]imide (Liquid); method: Phase equilibration
Property: Mole fraction of 1-hexyl-3-methylimidazolium bis[(trifluoromethyl)sulfonyl]imide (Gas); method: Phase equilibration
Property: Mole fraction of methanol (Gas); method: Phase equilibration
Temperature, K	Mole fraction of methanol	Mole fraction of 1-hexyl-3-methylimidazolium bis[(trifluoromethyl)sulfonyl]imide	uncertainty	Mole fraction of 1-hexyl-3-methylimidazolium bis[(trifluoromethyl)sulfonyl]imide	uncertainty	Mole fraction of methanol	uncertainty
355.05	0.071	0.0501	0.00401	0		0.292	
357.45	0.055	0.09989	0.00404	0		0.257	
352.45	0.121	0.09952	0.00404	0		0.429	
347.45	0.236	0.09993	0.00404	0		0.582	
344.45	0.322	0.10024	0.00404	0		0.653	
342.15	0.425	0.09919	0.00404	0		0.711	
340.95	0.53	0.09997	0.00404	0		0.769	
340.25	0.607	0.10005	0.00404	0		0.805	
339.85	0.702	0.09831	0.00404	0		0.853	
339.95	0.793	0.09999	0.00404	0		0.918	
361.05	0.042	0.14994	0.00409	0		0.228	
349.55	0.155	0.05	0.00401	0		0.473	
355.45	0.106	0.15003	0.00409	0		0.425	
350.85	0.194	0.15004	0.00409	0		0.567	
347.65	0.29	0.15001	0.00409	0		0.654	
345.45	0.377	0.14986	0.00409	0		0.712	
343.65	0.482	0.14997	0.00409	0		0.765	
342.85	0.558	0.15001	0.00409	0		0.807	
342.55	0.65	0.14996	0.00409	0		0.865	
342.25	0.746	0.15004	0.00409	0		0.931	
345.45	0.247	0.04998	0.00401	0		0.576	
342.15	0.36	0.04999	0.00401	0		0.652	
340.05	0.457	0.05001	0.00401	0		0.69	
338.95	0.554	0.05	0.00401	0		0.736	
338.45	0.647	0.05002	0.00401	0		0.787	
337.95	0.746	0.05002	0.00401	0		0.831	
337.95	0.848	0.04993	0.00401	0		0.902	
