Measured thermophysical data. Isothermal binary vapour liquid equilibrium for butanes and butenes with dimethylsulphide
Source: Fluid Phase Equilib., 2008, 10.1016/j.fluid.2008.01.030
Compound 1: 2-thiapropane, C2H6S, InChI=1S/C2H6S/c1-3-2/h1-2H3, purity 99%
Compound 2: 1-butene, C4H8, InChI=1S/C4H8/c1-3-4-2/h3H,1,4H2,2H3, purity 99.6%
Compound 3: (Z)-2-butene, C4H8, InChI=1S/C4H8/c1-3-4-2/h3-4H,1-2H3/b4-3-, purity 99.4%
Compound 4: (E)-2-butene, C4H8, InChI=1S/C4H8/c1-3-4-2/h3-4H,1-2H3/b4-3+, purity 99.4%
Compound 5: 2-methylpropene, C4H8, InChI=1S/C4H8/c1-4(2)3/h1H2,2-3H3, purity 99.8%
Compound 6: butane, C4H10, InChI=1S/C4H10/c1-3-4-2/h3-4H2,1-2H3, purity 99.95%
Compound 7: 2-methylpropane, C4H10, InChI=1S/C4H10/c1-4(2)3/h4H,1-3H3, purity 99.95%

System: 2-thiapropane; phases: Liquid, Gas
Property: Vapor or sublimation pressure, kPa (Liquid); method: Closed cell (Static) method
Temperature, K	Vapor or sublimation pressure, kPa	uncertainty
307.86	91.7	1.3
312.58	107.7	1.3
312.59	106.2	1.3
312.6	107.4	1.3
317.32	126	1.3
317.35	126	1.3

System: 1-butene; phases: Liquid, Gas
Property: Vapor or sublimation pressure, kPa (Liquid); method: Closed cell (Static) method
Temperature, K	Vapor or sublimation pressure, kPa	uncertainty
312.57	454.5	2.3

System: (Z)-2-butene; phases: Liquid, Gas
Property: Vapor or sublimation pressure, kPa (Liquid); method: Closed cell (Static) method
Temperature, K	Vapor or sublimation pressure, kPa	uncertainty
312.59	332.2	1.9

System: (E)-2-butene; phases: Liquid, Gas
Property: Vapor or sublimation pressure, kPa (Liquid); method: Closed cell (Static) method
Temperature, K	Vapor or sublimation pressure, kPa	uncertainty
317.29	413.8	2.2

System: 2-methylpropene; phases: Liquid, Gas
Property: Vapor or sublimation pressure, kPa (Liquid); method: Closed cell (Static) method
Temperature, K	Vapor or sublimation pressure, kPa	uncertainty
312.6	465.3	2.3

System: butane; phases: Liquid, Gas
Property: Vapor or sublimation pressure, kPa (Liquid); method: Closed cell (Static) method
Temperature, K	Vapor or sublimation pressure, kPa	uncertainty
317.47	425.7	2.1

System: 2-methylpropane; phases: Liquid, Gas
Property: Vapor or sublimation pressure, kPa (Liquid); method: Closed cell (Static) method
Temperature, K	Vapor or sublimation pressure, kPa	uncertainty
307.86	459.8	2.3

System: 2-thiapropane + 1-butene; phases: Liquid, Gas
Property: Vapor or sublimation pressure, kPa (Liquid); method: Closed cell (Static) method
Temperature, K	Mole fraction of 1-butene	Vapor or sublimation pressure, kPa	uncertainty
312.57	0.8991	424.6	2.6
312.57	1	454.5	2.3
312.58	0	107.7	1.3
312.58	0.0168	116.9	1.6
312.58	0.0339	125.7	1.7
312.58	0.0487	132.9	1.9
312.58	0.1024	158.8	2.6
312.58	0.1476	179.1	3
312.58	0.2008	201.4	3.5
312.58	0.5002	307.2	3.8
312.58	0.5486	321.7	3.8
312.58	0.599	336.7	3.8
312.58	0.651	352	3.6
312.58	0.6989	365.9	3.5
312.58	0.7491	380.5	3.3
312.58	0.7986	394.9	3.1
312.58	0.8494	409.9	2.8
312.58	0.9496	439.7	2.4
312.58	0.9717	446.4	2.3
312.58	0.9889	451.3	2.3
312.59	0.2492	220.3	3.7
312.59	0.2997	239.3	3.9
312.59	0.3496	257	4
312.59	0.4001	274.3	4
312.59	0.4499	290.6	4.1
312.59	0.5003	306.7	4

System: 2-thiapropane + (Z)-2-butene; phases: Liquid, Gas
Fixed: Temperature, K = 312.59
Property: Vapor or sublimation pressure, kPa (Liquid); method: Closed cell (Static) method
Mole fraction of (Z)-2-butene	Vapor or sublimation pressure, kPa	uncertainty
0	106.2	1.3
0.0152	111.7	1.4
0.0363	119	1.6
0.0549	125.3	1.7
0.1068	142.1	2
0.1525	155.8	2.3
0.2016	169.7	2.5
0.2515	183	2.7
0.3008	195.4	2.8
0.3499	207.1	2.9
0.3996	218.5	2.9
0.4498	229.5	2.9
0.4999	240.2	2.8
0.5002	240.3	2.8
0.5495	250	2.7
0.5987	259.4	2.6
0.6497	269	2.6
0.7	278.2	2.5
0.7489	287.1	2.4
0.799	296	2.2
0.8483	304.8	2.1
0.8992	313.6	2
0.9487	322.3	1.9
0.9686	325.7	1.9
0.9891	329.7	1.9
1	332.2	1.9

System: 2-thiapropane + (E)-2-butene; phases: Liquid, Gas
Property: Vapor or sublimation pressure, kPa (Liquid); method: Closed cell (Static) method
Temperature, K	Mole fraction of (E)-2-butene	Vapor or sublimation pressure, kPa	uncertainty
317.28	0.5007	300.6	3.2
317.28	0.5497	312	3.2
317.28	0.8477	379.7	2.5
317.28	0.9693	406.7	2.2
317.28	0.9888	411.1	2.2
317.29	0.5994	323.5	3.1
317.29	0.6495	335.1	3.1
317.29	0.6995	346.5	2.9
317.29	0.7489	357.6	2.8
317.29	0.7986	368.7	2.7
317.29	0.8988	391.1	2.3
317.29	0.9494	402.5	2.2
317.29	1	413.8	2.2
317.31	0.1022	171.4	2.3
317.31	0.1513	190.4	2.8
317.31	0.2001	208.1	3
317.31	0.2506	225.3	3.3
317.31	0.2995	241.1	3.4
317.31	0.3498	256.6	3.5
317.31	0.3997	271.5	3.6
317.31	0.4488	285.9	3.7
317.31	0.4981	300.4	3.8
317.32	0	126	1.3
317.32	0.0115	132.3	1.5
317.32	0.0393	144.9	1.7
317.32	0.0563	152.3	1.9

System: 2-thiapropane + 2-methylpropene; phases: Liquid, Gas
Property: Vapor or sublimation pressure, kPa (Liquid); method: Closed cell (Static) method
Temperature, K	Mole fraction of 2-methylpropene	Vapor or sublimation pressure, kPa	uncertainty
312.59	0.2502	222.3	3.8
312.6	0	107.4	1.3
312.6	0.0084	112	1.5
312.6	0.037	127.1	1.8
312.6	0.0521	134.8	2
312.6	0.1002	158.1	2.6
312.6	0.1502	180.8	3.1
312.6	0.199	201.6	3.6
312.6	0.2998	241.3	3.9
312.6	0.35	259.9	4.1
312.6	0.399	277.5	4.2
312.6	0.4496	295.1	4.3
312.6	0.4999	312.9	4.1
312.6	0.5007	313.6	4.1
312.6	0.5501	328.3	3.8
312.6	0.6	343.2	3.7
312.6	0.6501	358.1	3.6
312.6	0.6993	372.7	3.5
312.6	0.7487	387.5	3.3
312.6	0.7995	402.9	3.1
312.6	0.8494	418	2.9
312.6	0.9011	433.8	2.6
312.6	0.9506	449.5	2.4
312.6	0.9712	455.8	2.4
312.6	0.9928	462.8	2.3
312.6	1	465.3	2.3

System: 2-thiapropane + butane; phases: Liquid, Gas
Property: Vapor or sublimation pressure, kPa (Liquid); method: Closed cell (Static) method
Temperature, K	Mole fraction of butane	Vapor or sublimation pressure, kPa	uncertainty
317.34	0.1532	211.7	3
317.34	0.2023	232.1	3.4
317.34	0.2485	249.3	3.5
317.34	0.2981	266.2	3.5
317.34	0.3478	281.4	3.5
317.34	0.3981	295.9	3.5
317.34	0.4482	309.3	3.4
317.34	0.4985	322.1	3.4
317.35	0	126	1.3
317.35	0.0185	139.5	1.8
317.35	0.0378	152	2
317.35	0.0573	163.4	2.2
317.35	0.1058	189.5	3
317.35	0.5479	334.1	1.9
317.47	1	425.7	2.1
317.48	0.5992	346.5	3
317.48	0.7978	387.7	2.5
317.48	0.9489	416.8	2.2
317.48	0.9685	420.4	2.2
317.48	0.989	423.8	2.1
317.49	0.5154	327.8	3.1
317.49	0.5497	335.6	3.2
317.49	0.6487	357.2	2.9
317.49	0.699	367.7	2.8
317.49	0.7486	377.8	2.7
317.49	0.8487	397.7	2.4
317.49	0.8988	407.4	2.3

System: 2-thiapropane + 2-methylpropane; phases: Liquid, Gas
Property: Vapor or sublimation pressure, kPa (Liquid); method: Closed cell (Static) method
Temperature, K	Mole fraction of 2-methylpropane	Vapor or sublimation pressure, kPa	uncertainty
307.86	0	91.7	1.3
307.86	0.0224	110.3	1.8
307.86	0.0366	121.3	2.1
307.86	0.0596	138.2	2.6
307.86	0.1048	167.8	3.3
307.86	0.1528	195.1	3.6
307.86	0.2004	218.9	3.9
307.86	0.2503	240.9	4.1
307.86	0.4989	324.8	1.8
307.86	0.6484	365.4	3.4
307.86	0.6983	378.5	3.3
307.86	0.906	433.8	2.5
307.86	0.9887	456.5	2.3
307.86	1	459.8	2.3
307.87	0.3	260.5	3.8
307.87	0.3499	278.5	4
307.87	0.3992	294.8	3.9
307.87	0.4494	310.4	3.9
307.87	0.4999	325.1	1.8
307.87	0.5493	338.8	3.6
307.87	0.598	352	3.5
307.87	0.7472	391.4	3.1
307.87	0.7971	404.6	2.9
307.87	0.8485	418.3	2.8
307.87	0.9566	447.7	2.3
307.87	0.969	451.1	2.3
