Measured thermophysical data. Gaseous PvTx measurements of HFO-1234yf + HFC-32 binary mixture by single-sinker magnetic suspension densimeter
Source: Fluid Phase Equilib., 2018, 10.1016/j.fluid.2017.12.037
Compound 1: 2,3,3,3-tetrafluoro-1-propene, C3H2F4, InChI=1S/C3H2F4/c1-2(4)3(5,6)7/h1H2, purity 99.9%
Compound 2: difluoromethane, CH2F2, InChI=1S/CH2F2/c2-1-3/h1H2, purity 99.9%

System: 2,3,3,3-tetrafluoro-1-propene + difluoromethane; phases: Gas
Property: Mass density, kg/m3 (Gas); method: Buoyancy - hydrostatic balance with magnetic suspension - one sinker
Temperature, K	Pressure, kPa	Mole fraction of 2,3,3,3-tetrafluoro-1-propene	Mass density, kg/m3	uncertainty
347.618	2663	0.062	65.472	0.07
347.613	2249	0.062	52.666	0.057
347.62	1445	0.062	31.254	0.034
347.62	1099	0.062	23.044	0.025
347.622	600	0.062	12.06	0.014
337.954	2216	0.062	54.98	0.059
337.947	1871	0.062	44.844	0.049
337.94	1368	0.062	30.983	0.034
337.949	1030	0.062	22.524	0.025
337.945	261	0.062	5.321	0.007
328.343	2027	0.062	52.145	0.056
328.344	1696	0.062	41.656	0.045
328.339	1335	0.062	31.333	0.034
328.338	945	0.062	21.307	0.023
328.338	637	0.062	13.854	0.016
328.335	223	0.062	4.64	0.006
317.779	1625	0.062	42.032	0.045
317.752	1331	0.062	32.968	0.036
317.752	910	0.062	21.311	0.023
317.751	648	0.062	14.699	0.016
317.752	406	0.062	8.95	0.011
317.755	163	0.062	3.497	0.006
308.227	1301	0.062	33.802	0.037
308.21	1102	0.062	27.74	0.03
308.21	839	0.062	20.316	0.022
308.209	692	0.062	16.408	0.018
308.21	465	0.062	10.702	0.012
308.209	285	0.062	6.408	0.008
298.557	1030	0.062	27.002	0.029
298.652	795	0.062	19.996	0.022
298.67	524	0.062	12.632	0.014
298.677	314	0.062	7.355	0.009
289.35	825	0.062	21.899	0.024
289.522	465	0.062	11.568	0.013
289.47	272	0.062	6.547	0.008
346.711	2339	0.202	66.017	0.071
346.718	2053	0.202	55.971	0.06
346.71	1836	0.202	48.831	0.052
346.711	1395	0.202	35.395	0.038
346.703	1075	0.202	26.432	0.029
346.701	754	0.202	17.999	0.02
346.703	514	0.202	11.999	0.014
346.708	314	0.202	7.219	0.009
346.715	102	0.202	2.301	0.005
338.063	2012	0.202	57.214	0.061
338.063	1722	0.202	47.144	0.051
338.063	1440	0.202	38.107	0.041
338.064	1097	0.202	27.951	0.03
338.066	900	0.202	22.468	0.025
338.067	663	0.202	16.152	0.018
338.067	435	0.202	10.38	0.012
338.073	229	0.202	5.349	0.007
328.433	1696	0.202	49.141	0.053
328.431	1427	0.202	39.78	0.043
328.428	1140	0.202	30.631	0.033
328.428	849	0.202	22.032	0.024
328.432	626	0.202	15.83	0.018
328.432	367	0.202	9.049	0.011
328.431	227	0.202	5.515	0.007
318.299	1336	0.202	38.819	0.042
318.294	1058	0.202	29.49	0.032
318.291	790	0.202	21.254	0.023
318.292	586	0.202	15.349	0.017
318.293	398	0.202	10.192	0.012
318.292	219	0.202	5.48	0.007
308.701	1050	0.202	30.682	0.033
308.696	735	0.202	20.457	0.023
308.691	569	0.202	15.462	0.017
308.688	390	0.202	10.341	0.012
308.689	226	0.202	5.868	0.008
299.109	817	0.202	24.131	0.026
299.11	653	0.202	18.744	0.021
299.11	460	0.202	12.798	0.015
299.11	197	0.202	5.25	0.007
289.139	652	0.202	19.613	0.021
289.133	498	0.202	14.57	0.016
289.13	326	0.202	9.243	0.011
289.13	223	0.202	6.201	0.008
279.825	531	0.202	16.362	0.018
279.807	366	0.202	10.881	0.013
279.796	225	0.202	6.518	0.009
347.941	2000	0.366	63.729	0.068
347.931	1753	0.366	54.093	0.058
347.929	1496	0.366	44.776	0.048
347.926	1198	0.366	34.699	0.037
347.925	897	0.366	25.186	0.027
347.925	675	0.366	18.538	0.02
347.925	390	0.366	10.422	0.012
347.928	143	0.366	3.726	0.006
338.275	1611	0.366	51.607	0.056
338.277	1339	0.366	41.354	0.045
338.276	1124	0.366	33.805	0.037
338.278	888	0.366	25.992	0.028
338.276	605	0.366	17.163	0.019
338.275	391	0.366	10.828	0.013
338.277	203	0.366	5.523	0.008
328.578	1280	0.366	41.182	0.044
328.584	1144	0.366	36.066	0.039
328.596	894	0.366	27.268	0.03
328.6	618	0.366	18.221	0.02
328.607	380	0.366	10.866	0.013
328.609	203	0.366	5.679	0.008
318.528	1009	0.366	32.745	0.035
318.528	766	0.366	23.969	0.026
318.528	563	0.366	17.123	0.019
318.53	351	0.366	10.354	0.012
318.526	165	0.366	4.746	0.007
308.471	794	0.366	26.137	0.028
308.47	560	0.366	17.726	0.02
308.47	387	0.366	11.937	0.014
308.471	201	0.366	6.029	0.008
298.973	629	0.366	21.025	0.023
298.961	416	0.366	13.396	0.015
298.954	208	0.366	6.462	0.009
347.815	1715	0.61	65.61	0.07
347.812	1481	0.61	54.813	0.059
347.814	1320	0.61	47.76	0.051
347.812	1108	0.61	38.968	0.042
347.812	880	0.61	30.083	0.033
347.808	667	0.61	22.236	0.024
347.806	464	0.61	15.105	0.017
347.804	256	0.61	8.159	0.01
338.147	1363	0.61	52.402	0.056
338.146	1176	0.61	43.906	0.047
338.141	949	0.61	34.303	0.037
338.136	742	0.61	26.034	0.028
338.133	545	0.61	18.632	0.021
338.134	347	0.61	11.583	0.014
338.131	157	0.61	5.11	0.008
327.542	1122	0.61	43.758	0.047
327.53	930	0.61	35.068	0.038
327.545	734	0.61	26.847	0.029
327.522	536	0.61	19.029	0.021
327.517	329	0.61	11.37	0.013
327.517	157	0.61	5.289	0.008
317.922	929	0.61	36.73	0.04
317.916	735	0.61	28.033	0.031
317.898	527	0.61	19.436	0.022
317.892	309	0.61	11.009	0.013
317.886	139	0.61	4.816	0.008
308.329	769	0.61	30.942	0.034
308.318	577	0.61	22.346	0.025
308.304	340	0.61	12.602	0.015
308.294	170	0.61	6.134	0.009
298.649	448	0.61	17.642	0.02
298.699	309	0.61	11.815	0.014
298.677	146	0.61	5.4	0.008
289.244	435	0.61	17.849	0.02
289.249	300	0.61	11.915	0.014
289.266	142	0.61	5.456	0.009
279.822	422	0.61	18.046	0.02
280.005	292	0.61	12.065	0.014
279.994	139	0.61	5.52	0.009
