Measured thermophysical data. Vapor-liquid equilibria for tetrahydrofuran + ethanol system containing three different ionic liquids at 101.3 kPa
Source: Fluid Phase Equilib., 2014, 10.1016/j.fluid.2014.03.027
Compound 1: tetrahydrofuran, C4H8O, InChI=1S/C4H8O/c1-2-4-5-3-1/h1-4H2, purity 99.9%
Compound 2: ethanol, C2H6O, InChI=1S/C2H6O/c1-2-3/h3H,2H2,1H3, purity 99.8%
Compound 3: 1-butyl-3-methylimidazolium tetrafluoroborate, C8H15BF4N2, InChI=1S/C8H15N2.BF4/c1-3-4-5-10-7-6-9(2)8-10;2-1(3,4)5/h6-8H,3-5H2,1-2H3;/q+1;-1, purity 98%
Compound 4: 1-methyl-3-octylimidazolium tetrafluoroborate, C12H23BF4N2, InChI=1S/C12H23N2.BF4/c1-3-4-5-6-7-8-9-14-11-10-13(2)12-14;2-1(3,4)5/h10-12H,3-9H2,1-2H3;/q+1;-1, purity 98%
Compound 5: 1-butyl-3-methylimidazolium dicyanamide, C10H15N5, InChI=1S/C8H15N2.C2N3/c1-3-4-5-10-7-6-9(2)8-10;3-1-5-2-4/h6-8H,3-5H2,1-2H3;/q+1;-1, purity 98%

System: ethanol + tetrahydrofuran; phases: Liquid, Gas
Fixed: Pressure, kPa = 101.3
Property: Boiling temperature at pressure P, K (Liquid); method: Ebulliometric method (Recirculating still)
Mole fraction of tetrahydrofuran	Boiling temperature at pressure P, K	uncertainty
0.098	348.5	0.2
0.189	346.3	0.2
0.298	344.3	0.2
0.385	342.7	0.2
0.488	341.5	0.2
0.62	340.2	0.2
0.701	339.7	0.2
0.798	339	0.2
0.898	338.8	0.2
0.954	338.9	0.2

System: ethanol + tetrahydrofuran; phases: Gas, Liquid
Fixed: Pressure, kPa = 101.3
Property: Mole fraction of tetrahydrofuran (Gas); method: Chromatography
Mole fraction of tetrahydrofuran	Mole fraction of tetrahydrofuran	uncertainty
0.098	0.202	0.007
0.189	0.34	0.007
0.298	0.467	0.007
0.385	0.55	0.007
0.488	0.635	0.006
0.62	0.72	0.005
0.701	0.771	0.005
0.798	0.825	0.005
0.898	0.901	0.005
0.954	0.951	0.005

System: ethanol + tetrahydrofuran + 1-butyl-3-methylimidazolium tetrafluoroborate; phases: Liquid, Gas
Fixed: Pressure, kPa = 101.3
Property: Boiling temperature at pressure P, K (Liquid); method: Ebulliometric method (Recirculating still)
Mole fraction of 1-butyl-3-methylimidazolium tetrafluoroborate	Solvent: Mole fraction of tetrahydrofuran	Boiling temperature at pressure P, K	uncertainty
0.099	0.102	350	0.3
0.1	0.199	347.6	0.3
0.1	0.305	345.4	0.2
0.098	0.408	343.7	0.2
0.097	0.514	342.1	0.2
0.097	0.622	341	0.2
0.098	0.745	340	0.2
0.097	0.838	339.3	0.2
0.1	0.938	338.9	0.2
0.198	0.093	351.7	0.3
0.198	0.197	349.2	0.3
0.2	0.305	347	0.3
0.199	0.418	345.2	0.2
0.199	0.52	343.4	0.2
0.2	0.613	342	0.2
0.201	0.729	340.8	0.2
0.201	0.83	339.9	0.2
0.2	0.935	338.9	0.2
0.302	0.101	354.6	0.3
0.298	0.199	352.3	0.3
0.299	0.209	352	0.3
0.301	0.311	349.8	0.3
0.301	0.413	347.6	0.3
0.3	0.517	346.1	0.3
0.302	0.618	344.3	0.3
0.302	0.759	342.6	0.2
0.302	0.858	341.3	0.2
0.299	0.952	340	0.2

System: ethanol + tetrahydrofuran + 1-butyl-3-methylimidazolium tetrafluoroborate; phases: Gas, Liquid
Fixed: Pressure, kPa = 101.3
Property: Mole fraction of tetrahydrofuran (Gas); method: Chromatography
Mole fraction of 1-butyl-3-methylimidazolium tetrafluoroborate	Solvent: Mole fraction of tetrahydrofuran	Mole fraction of tetrahydrofuran	uncertainty
0.099	0.102	0.202	0.007
0.1	0.199	0.348	0.008
0.1	0.305	0.48	0.008
0.098	0.408	0.587	0.007
0.097	0.514	0.674	0.006
0.097	0.622	0.755	0.006
0.098	0.745	0.834	0.005
0.097	0.838	0.888	0.005
0.1	0.938	0.959	0.005
0.198	0.093	0.181	0.008
0.198	0.197	0.352	0.008
0.2	0.305	0.478	0.008
0.199	0.418	0.591	0.007
0.199	0.52	0.673	0.006
0.2	0.613	0.75	0.006
0.201	0.729	0.825	0.005
0.201	0.83	0.89	0.005
0.2	0.935	0.956	0.005
0.302	0.101	0.182	0.008
0.298	0.199	0.332	0.008
0.299	0.209	0.348	0.008
0.301	0.311	0.463	0.008
0.301	0.413	0.572	0.007
0.3	0.517	0.666	0.006
0.302	0.618	0.745	0.006
0.302	0.759	0.83	0.005
0.302	0.858	0.895	0.005
0.299	0.952	0.962	0.005

System: ethanol + tetrahydrofuran + 1-methyl-3-octylimidazolium tetrafluoroborate; phases: Liquid, Gas
Fixed: Pressure, kPa = 101.3
Property: Boiling temperature at pressure P, K (Liquid); method: Ebulliometric method (Recirculating still)
Mole fraction of 1-methyl-3-octylimidazolium tetrafluoroborate	Solvent: Mole fraction of tetrahydrofuran	Boiling temperature at pressure P, K	uncertainty
0.098	0.098	351.1	0.3
0.101	0.197	348.7	0.3
0.101	0.301	346.6	0.3
0.099	0.395	344.8	0.3
0.1	0.503	343.3	0.3
0.1	0.619	342.1	0.3
0.099	0.728	341.1	0.3
0.101	0.828	340.4	0.3
0.101	0.925	340	0.2
0.101	0.966	339.9	0.2
0.201	0.102	353.7	0.3
0.199	0.195	351.7	0.3
0.199	0.302	349.9	0.3
0.199	0.433	348.1	0.3
0.198	0.52	346.7	0.3
0.199	0.639	345.3	0.3
0.201	0.723	344.2	0.3
0.2	0.844	343.3	0.3
0.201	0.923	342.6	0.3
0.202	0.963	342.4	0.3
0.301	0.102	358.2	0.3
0.298	0.227	357.1	0.3
0.298	0.335	355.2	0.3
0.301	0.422	353.4	0.3
0.3	0.53	352.2	0.3
0.3	0.674	351	0.3
0.302	0.716	349.5	0.3
0.298	0.859	348.9	0.3
0.298	0.917	348.5	0.3
0.302	0.961	348.2	0.3

System: ethanol + tetrahydrofuran + 1-methyl-3-octylimidazolium tetrafluoroborate; phases: Gas, Liquid
Fixed: Pressure, kPa = 101.3
Property: Mole fraction of tetrahydrofuran (Gas); method: Chromatography
Mole fraction of 1-methyl-3-octylimidazolium tetrafluoroborate	Solvent: Mole fraction of tetrahydrofuran	Mole fraction of tetrahydrofuran	uncertainty
0.098	0.098	0.178	0.008
0.101	0.197	0.336	0.008
0.101	0.301	0.463	0.008
0.099	0.395	0.55	0.007
0.1	0.503	0.647	0.007
0.1	0.619	0.735	0.006
0.099	0.728	0.795	0.005
0.101	0.828	0.87	0.005
0.101	0.925	0.938	0.005
0.101	0.966	0.973	0.005
0.201	0.102	0.165	0.007
0.199	0.195	0.302	0.007
0.199	0.302	0.428	0.007
0.199	0.433	0.55	0.007
0.198	0.52	0.638	0.007
0.199	0.639	0.721	0.006
0.201	0.723	0.789	0.006
0.2	0.844	0.868	0.005
0.201	0.923	0.934	0.005
0.202	0.963	0.965	0.005
0.301	0.102	0.156	0.006
0.298	0.227	0.302	0.007
0.298	0.335	0.419	0.007
0.301	0.422	0.516	0.007
0.3	0.53	0.6	0.007
0.3	0.674	0.722	0.006
0.302	0.716	0.77	0.006
0.298	0.859	0.873	0.005
0.298	0.917	0.93	0.006
0.302	0.961	0.965	0.005

System: ethanol + tetrahydrofuran + 1-butyl-3-methylimidazolium dicyanamide; phases: Liquid, Gas
Fixed: Pressure, kPa = 101.3
Property: Boiling temperature at pressure P, K (Liquid); method: Ebulliometric method (Recirculating still)
Mole fraction of 1-butyl-3-methylimidazolium dicyanamide	Solvent: Mole fraction of tetrahydrofuran	Boiling temperature at pressure P, K	uncertainty
0.098	0.099	352.4	0.3
0.1	0.192	349.8	0.3
0.098	0.301	347.5	0.3
0.1	0.405	345.6	0.3
0.099	0.498	344.1	0.3
0.099	0.609	342.7	0.3
0.099	0.723	341.5	0.2
0.098	0.835	340.7	0.2
0.099	0.927	340	0.2
0.2	0.1	357.3	0.3
0.2	0.194	354.7	0.3
0.198	0.292	352.3	0.3
0.199	0.403	349.6	0.3
0.2	0.505	347.7	0.3
0.2	0.61	345.7	0.3
0.201	0.731	344	0.3
0.199	0.863	342.4	0.3
0.2	0.931	340.9	0.2
0.299	0.098	363.8	0.4
0.3	0.203	360.2	0.4
0.3	0.285	358.4	0.3
0.298	0.394	355.4	0.3
0.3	0.496	352.6	0.3
0.299	0.619	350	0.3
0.301	0.729	348.2	0.3
0.299	0.818	346.2	0.3
0.302	0.925	344.9	0.3
0.3	0.951	344.5	0.3

System: ethanol + tetrahydrofuran + 1-butyl-3-methylimidazolium dicyanamide; phases: Gas, Liquid
Fixed: Pressure, kPa = 101.3
Property: Mole fraction of tetrahydrofuran (Gas); method: Chromatography
Mole fraction of 1-butyl-3-methylimidazolium dicyanamide	Solvent: Mole fraction of tetrahydrofuran	Mole fraction of tetrahydrofuran	uncertainty
0.098	0.099	0.204	0.008
0.1	0.192	0.369	0.008
0.098	0.301	0.508	0.008
0.1	0.405	0.609	0.007
0.099	0.498	0.706	0.006
0.099	0.609	0.788	0.006
0.099	0.723	0.865	0.005
0.098	0.835	0.928	0.005
0.099	0.927	0.969	0.004
0.2	0.1	0.218	0.008
0.2	0.194	0.373	0.008
0.198	0.292	0.522	0.008
0.199	0.403	0.647	0.007
0.2	0.505	0.736	0.006
0.2	0.61	0.809	0.005
0.201	0.731	0.888	0.005
0.199	0.863	0.945	0.004
0.2	0.931	0.978	0.004
0.299	0.098	0.221	0.008
0.3	0.203	0.397	0.008
0.3	0.285	0.52	0.008
0.298	0.394	0.646	0.007
0.3	0.496	0.748	0.006
0.299	0.619	0.827	0.005
0.301	0.729	0.888	0.005
0.299	0.818	0.94	0.004
0.302	0.925	0.976	0.004
0.3	0.951	0.985	0.004
