Measured thermophysical data. Viscosity-induced errors in the density determination of room temperature ionic liquids using vibrating tube densitometry
Source: Fluid Phase Equilib., 2007, 10.1016/j.fluid.2006.12.016
Compound 1: 1-butyl-3-methylimidazolium tetrafluoroborate, C8H15BF4N2, InChI=1S/C8H15N2.BF4/c1-3-4-5-10-7-6-9(2)8-10;2-1(3,4)5/h6-8H,3-5H2,1-2H3;/q+1;-1
Compound 2: 1-hexyl-3-methylimidazolium tetrafluoroborate, C10H19BF4N2, InChI=1S/C10H19N2.BF4/c1-3-4-5-6-7-12-9-8-11(2)10-12;2-1(3,4)5/h8-10H,3-7H2,1-2H3;/q+1;-1
Compound 3: 1-methyl-3-octylimidazolium tetrafluoroborate, C12H23BF4N2, InChI=1S/C12H23N2.BF4/c1-3-4-5-6-7-8-9-14-11-10-13(2)12-14;2-1(3,4)5/h10-12H,3-9H2,1-2H3;/q+1;-1

System: 1-butyl-3-methylimidazolium tetrafluoroborate; phases: Liquid
Fixed: Pressure, kPa = 101.325
Property: Viscosity, Pa*s (Liquid); method: SPHERE:UFactor:4
Temperature, K	Viscosity, Pa*s	uncertainty
293.15	0.1363	0.0184
298.15	0.1038	0.0103
303.15	0.0806	0.0052
308.15	0.064	0.0023
313.15	0.0515	0.0011
318.15	0.0421	0.0016
323.15	0.0349	0.0014

System: 1-butyl-3-methylimidazolium tetrafluoroborate; phases: Liquid
Fixed: Pressure, kPa = 101.325
Property: Mass density, kg/m3 (Liquid); method: VIBTUB:UFactor:16
Temperature, K	Mass density, kg/m3	uncertainty
293.15	1205.891	2.982
294.15	1205.166	2.976
295.15	1204.457	2.97
296.15	1203.726	2.964
297.15	1203.001	2.958
298.15	1202.298	2.953
299.15	1201.571	2.947
300.15	1200.848	2.941
301.15	1200.134	2.935
302.15	1199.433	2.929
303.15	1198.713	2.923
304.15	1197.997	2.918
305.15	1197.284	2.912
306.15	1196.575	2.906
307.15	1195.854	2.9
308.15	1195.165	2.895
309.15	1194.443	2.889
310.15	1193.727	2.883
311.15	1193.024	2.877
312.15	1192.315	2.871
313.15	1191.629	2.866
314.15	1190.903	2.86
315.15	1190.196	2.854
316.15	1189.494	2.848
317.15	1188.784	2.843
318.15	1188.076	2.837
319.15	1187.363	2.831
320.15	1186.663	2.825
321.15	1185.964	2.82
322.15	1185.267	2.814
323.15	1184.553	2.808

System: 1-hexyl-3-methylimidazolium tetrafluoroborate; phases: Liquid
Fixed: Pressure, kPa = 101.325
Property: Viscosity, Pa*s (Liquid); method: SPHERE:UFactor:4
Temperature, K	Viscosity, Pa*s	uncertainty
288.15	0.3157	0.0783
293.15	0.2328	0.0482
298.15	0.1741	0.0293
303.15	0.1321	0.0173
308.15	0.103	0.01
313.15	0.0817	0.0055
318.15	0.0659	0.0025
323.15	0.0539	0.0012

System: 1-hexyl-3-methylimidazolium tetrafluoroborate; phases: Liquid
Fixed: Pressure, kPa = 101.325
Property: Mass density, kg/m3 (Liquid); method: VIBTUB:UFactor:16
Temperature, K	Mass density, kg/m3	uncertainty
288.15	1151.49	2.531
289.15	1150.776	2.525
290.15	1150.076	2.52
291.15	1149.37	2.514
292.15	1148.66	2.508
293.15	1147.958	2.502
294.15	1147.251	2.497
295.15	1146.563	2.491
296.15	1145.846	2.485
297.15	1145.146	2.48
298.15	1144.45	2.474
299.15	1143.754	2.468
300.15	1143.041	2.463
301.15	1142.34	2.457
302.15	1141.647	2.451
303.15	1140.961	2.446
304.15	1140.254	2.44
305.15	1139.555	2.434
306.15	1138.871	2.429
307.15	1138.158	2.423
308.15	1137.476	2.417
309.15	1136.767	2.412
310.15	1136.084	2.406
311.15	1135.388	2.401
312.15	1134.704	2.395
313.15	1134.027	2.39
314.15	1133.326	2.384
315.15	1132.639	2.378
316.15	1131.946	2.373
317.15	1131.282	2.367
318.15	1130.587	2.362
319.15	1129.896	2.356
320.15	1129.22	2.351
321.15	1128.532	2.345
322.15	1127.87	2.34
323.15	1127.175	2.334

System: 1-methyl-3-octylimidazolium tetrafluoroborate; phases: Liquid
Fixed: Pressure, kPa = 101.325
Property: Viscosity, Pa*s (Liquid); method: SPHERE:UFactor:4
Temperature, K	Viscosity, Pa*s	uncertainty
288.15	0.4123	0.1171
293.15	0.3009	0.0727
298.15	0.2228	0.0449
303.15	0.1689	0.0277
308.15	0.1312	0.0171
313.15	0.1029	0.01
318.15	0.0818	0.0055
323.15	0.0667	0.0027

System: 1-methyl-3-octylimidazolium tetrafluoroborate; phases: Liquid
Fixed: Pressure, kPa = 101.325
Property: Mass density, kg/m3 (Liquid); method: VIBTUB:UFactor:16
Temperature, K	Mass density, kg/m3	uncertainty
288.15	1110.365	2.194
289.15	1109.658	2.188
290.15	1108.982	2.183
291.15	1108.293	2.177
292.15	1107.604	2.172
293.15	1106.925	2.166
294.15	1106.24	2.161
295.15	1105.554	2.155
296.15	1104.869	2.149
297.15	1104.18	2.144
298.15	1103.506	2.138
299.15	1102.818	2.133
300.15	1102.135	2.127
301.15	1101.449	2.122
302.15	1100.772	2.116
303.15	1100.088	2.111
304.15	1099.411	2.105
305.15	1098.728	2.1
306.15	1098.049	2.094
307.15	1097.351	2.089
308.15	1096.689	2.083
309.15	1095.998	2.078
310.15	1095.319	2.072
311.15	1094.639	2.067
312.15	1093.962	2.061
313.15	1093.286	2.056
314.15	1092.601	2.05
315.15	1091.924	2.045
316.15	1091.253	2.04
317.15	1090.569	2.034
318.15	1089.888	2.029
319.15	1089.228	2.023
320.15	1088.54	2.018
321.15	1087.876	2.012
322.15	1087.213	2.007
323.15	1086.513	2.001
