Measured thermophysical data. Liquid-liquid equilibria of {n-heptane + toluene + aniline} ternary system: Experimental data and correlation
Source: Fluid Phase Equilib., 2011, 10.1016/j.fluid.2011.06.019
Compound 1: heptane, C7H16, InChI=1S/C7H16/c1-3-5-7-6-4-2/h3-7H2,1-2H3, purity 99%
Compound 2: toluene, C7H8, InChI=1S/C7H8/c1-7-5-3-2-4-6-7/h2-6H,1H3, purity 99%
Compound 3: aniline, C6H7N, InChI=1S/C6H7N/c7-6-4-2-1-3-5-6/h1-5H,7H2, purity 99%

System: aniline + toluene + heptane; phases: Liquid mixture 2, Liquid mixture 1
Fixed: Pressure, kPa = 101.325
Fixed: Temperature, K = 293.15
Property: Mole fraction of aniline (Liquid mixture 2); method: Acid Titration of Aniline and use of Refractive Index
Property: Mole fraction of heptane (Liquid mixture 1); method: Acid Titration of Aniline and use of Refractive Index
Property: Mole fraction of aniline (Liquid mixture 1); method: Acid Titration of Aniline and use of Refractive Index
Mole fraction of heptane	Mole fraction of aniline	uncertainty	Mole fraction of heptane	uncertainty	Mole fraction of aniline	uncertainty
0.8245	0.0647	0.0419	0.0377	0.0377	0.9517	
0.7865	0.0742	0.0425	0.0404	0.0404	0.9261	
0.7313	0.0941	0.045	0.0735	0.0436	0.8492	
0.69	0.125	0.0512	0.1098	0.0444	0.7655	
0.6127	0.1883	0.0498	0.1915	0.0448	0.6036	
0.55	0.2287	0.0476	0.2027	0.0458	0.5994	
