Measured thermophysical data. Phase equilibria of high molecular mass 1-alcohols in supercritical propane
Source: Fluid Phase Equilib., 2007, 10.1016/j.fluid.2007.04.027
Compound 1: propane, C3H8, InChI=1S/C3H8/c1-3-2/h3H2,1-2H3
Compound 2: decan-1-ol, C10H22O, InChI=1S/C10H22O/c1-2-3-4-5-6-7-8-9-10-11/h11H,2-10H2,1H3
Compound 3: dodecan-1-ol, C12H26O, InChI=1S/C12H26O/c1-2-3-4-5-6-7-8-9-10-11-12-13/h13H,2-12H2,1H3
Compound 4: 1-hexadecanol, C16H34O, InChI=1S/C16H34O/c1-2-3-4-5-6-7-8-9-10-11-12-13-14-15-16-17/h17H,2-16H2,1H3
Compound 5: 1-octadecanol, C18H38O, InChI=1S/C18H38O/c1-2-3-4-5-6-7-8-9-10-11-12-13-14-15-16-17-18-19/h19H,2-18H2,1H3
Compound 6: 1-docosanol, C22H46O, InChI=1S/C22H46O/c1-2-3-4-5-6-7-8-9-10-11-12-13-14-15-16-17-18-19-20-21-22-23/h23H,2-22H2,1H3

System: propane + decan-1-ol; phases: Liquid, Gas
Property: Vapor or sublimation pressure, kPa (Liquid); method: CCELL:UFactor:8
Temperature, K	Mass fraction of decan-1-ol	Vapor or sublimation pressure, kPa	uncertainty
378	0.03	4690	160
378	0.052	4660	160
378	0.0809	4640	160
378	0.119	4590	160
378	0.187	4530	160
378	0.23	4540	160
378	0.303	4340	160
378	0.372	4330	160
378	0.465	4160	150
378	0.555	3970	150
378	0.644	3700	150
393	0.03	5470	170
393	0.052	5540	170
393	0.0809	5550	170
393	0.119	5600	180
393	0.187	5630	180
393	0.23	5650	180
393	0.303	5370	170
393	0.372	5350	170
393	0.465	5110	170
393	0.555	4820	170
393	0.644	4460	170
408	0.03	6250	190
408	0.052	6430	190
408	0.0809	6470	190
408	0.119	6620	190
408	0.187	6720	190
408	0.23	6760	200
408	0.303	6410	190
408	0.372	6370	190
408	0.465	6060	190
408	0.555	5680	180
408	0.644	5220	180

System: propane + dodecan-1-ol; phases: Liquid, Gas
Property: Vapor or sublimation pressure, kPa (Liquid); method: CCELL:UFactor:8
Temperature, K	Mass fraction of dodecan-1-ol	Vapor or sublimation pressure, kPa	uncertainty
378	0.02	4660	160
378	0.0303	4700	160
378	0.0488	4630	160
378	0.0736	4570	160
378	0.13	4530	160
378	0.201	4600	160
378	0.292	4420	160
378	0.344	4430	160
378	0.395	4300	160
378	0.473	4270	160
378	0.572	4090	160
378	0.68	3510	160
393	0.02	5420	170
393	0.0303	5500	170
393	0.0488	5630	180
393	0.0736	5610	180
393	0.13	5630	180
393	0.201	5750	180
393	0.292	5570	180
393	0.344	5570	180
393	0.395	5330	170
393	0.473	5320	170
393	0.572	5010	180
393	0.68	4230	180
408	0.02	6170	180
408	0.0303	6310	190
408	0.0488	6620	190
408	0.0736	6640	190
408	0.13	6730	190
408	0.201	6890	200
408	0.292	6710	190
408	0.344	6710	200
408	0.395	6350	190
408	0.473	6360	190
408	0.572	5930	200
408	0.68	4950	210

System: propane + 1-hexadecanol; phases: Liquid, Gas
Property: Vapor or sublimation pressure, kPa (Liquid); method: CCELL:UFactor:8
Temperature, K	Mass fraction of 1-hexadecanol	Vapor or sublimation pressure, kPa	uncertainty
378	0.016	4680	160
378	0.03	4680	160
378	0.0518	4680	160
378	0.0734	4680	160
378	0.119	4790	160
378	0.164	4780	160
378	0.22	4840	160
378	0.263	4810	160
378	0.334	4800	160
378	0.389	4720	160
378	0.45	4670	160
378	0.502	4310	160
378	0.643	4040	150
393	0.016	5550	170
393	0.03	5640	180
393	0.0518	5820	180
393	0.0734	5950	180
393	0.119	6080	180
393	0.164	6140	180
393	0.22	6150	180
393	0.263	6200	190
393	0.334	6140	190
393	0.389	5970	180
393	0.45	5870	180
393	0.502	5460	180
393	0.643	4910	170
408	0.016	6430	190
408	0.03	6610	190
408	0.0518	6960	200
408	0.0734	7220	200
408	0.119	7360	210
408	0.164	7490	210
408	0.22	7460	210
408	0.263	7580	210
408	0.334	7470	210
408	0.389	7230	210
408	0.45	7080	210
408	0.502	6610	200
408	0.643	5790	190

System: propane + 1-octadecanol; phases: Liquid, Gas
Property: Vapor or sublimation pressure, kPa (Liquid); method: CCELL:UFactor:8
Temperature, K	Mass fraction of 1-octadecanol	Vapor or sublimation pressure, kPa	uncertainty
378	0.0162	4780	160
378	0.0274	4760	160
378	0.0506	4860	160
378	0.0813	4750	160
378	0.121	4840	160
378	0.169	4690	160
378	0.229	4720	160
378	0.293	4680	160
378	0.37	4640	160
378	0.43	4580	160
378	0.551	4310	160
378	0.649	3920	160
393	0.0162	5730	180
393	0.0274	5870	180
393	0.0506	6070	180
393	0.0813	6140	180
393	0.121	6130	180
393	0.169	6150	180
393	0.229	6170	190
393	0.293	6170	190
393	0.37	6070	180
393	0.43	5910	180
393	0.551	5460	180
393	0.649	4830	180
408	0.0162	6690	190
408	0.0274	6980	200
408	0.0506	7270	200
408	0.0813	7520	210
408	0.121	7420	210
408	0.169	7600	210
408	0.229	7630	210
408	0.293	7660	210
408	0.37	7500	210
408	0.43	7250	210
408	0.551	6610	210
408	0.649	5740	210

System: propane + 1-docosanol; phases: Liquid, Gas
Property: Vapor or sublimation pressure, kPa (Liquid); method: CCELL:UFactor:8
Temperature, K	Mass fraction of 1-docosanol	Vapor or sublimation pressure, kPa	uncertainty
378	0.016	4800	160
378	0.0273	4790	160
378	0.0521	4880	160
378	0.0739	4890	160
378	0.12	5020	170
378	0.169	5130	170
378	0.229	5150	170
378	0.303	5090	170
378	0.363	4970	170
378	0.453	4740	170
378	0.544	4460	160
378	0.645	4110	160
393	0.016	5970	180
393	0.0273	6080	180
393	0.0521	6310	190
393	0.0739	6360	190
393	0.12	6600	190
393	0.169	6740	200
393	0.229	6760	200
393	0.303	6710	200
393	0.363	6620	190
393	0.453	6320	190
393	0.544	5820	190
393	0.645	5140	190
408	0.016	7150	200
408	0.0273	7370	210
408	0.0521	7740	210
408	0.0739	7830	220
408	0.12	8180	220
408	0.169	8360	230
408	0.229	8370	230
408	0.303	8330	230
408	0.363	8260	230
408	0.453	7900	220
408	0.544	7190	230
408	0.645	6170	230
