Measured thermophysical data. Solid-liquid equilibrium in ternary mixtures of ethyl laurate, ethyl palmitate and ethyl stearate
Source: Fluid Phase Equilib., 2013, 10.1016/j.fluid.2013.08.024
Compound 1: ethyl dodecanoate, C14H28O2, InChI=1S/C14H28O2/c1-3-5-6-7-8-9-10-11-12-13-14(15)16-4-2/h3-13H2,1-2H3, purity 98%
Compound 2: ethyl hexadecanoate, C18H36O2, InChI=1S/C18H36O2/c1-3-5-6-7-8-9-10-11-12-13-14-15-16-17-18(19)20-4-2/h3-17H2,1-2H3, purity 99%
Compound 3: ethyl octadecanoate, C20H40O2, InChI=1S/C20H40O2/c1-3-5-6-7-8-9-10-11-12-13-14-15-16-17-18-19-20(21)22-4-2/h3-19H2,1-2H3, purity 99%

System: ethyl dodecanoate; phases: Crystal, Liquid, Air at 1 atmosphere
Property: Normal melting temperature, K (Crystal); method: DTA
Normal melting temperature, K	uncertainty
273.2	0.7

System: ethyl dodecanoate; phases: Crystal, Liquid, Gas
Property: Molar enthalpy of transition or fusion, kJ/mol (Crystal); method: DSC
Molar enthalpy of transition or fusion, kJ/mol	uncertainty
38.8641631656	1.0756270332

System: ethyl hexadecanoate; phases: Crystal, Liquid, Air at 1 atmosphere
Property: Normal melting temperature, K (Crystal); method: DTA
Normal melting temperature, K	uncertainty
298.23	0.7

System: ethyl hexadecanoate; phases: Crystal, Liquid, Gas
Property: Molar enthalpy of transition or fusion, kJ/mol (Crystal); method: DSC
Molar enthalpy of transition or fusion, kJ/mol	uncertainty
55.7518494952	1.49350551

System: ethyl octadecanoate; phases: Crystal, Liquid, Air at 1 atmosphere
Property: Normal melting temperature, K (Crystal); method: DTA
Normal melting temperature, K	uncertainty
307.4	0.7

System: ethyl octadecanoate; phases: Crystal, Liquid, Gas
Property: Molar enthalpy of transition or fusion, kJ/mol (Crystal); method: DSC
Molar enthalpy of transition or fusion, kJ/mol	uncertainty
59.808942648	1.597030344

System: ethyl dodecanoate + ethyl hexadecanoate; phases: Liquid, Crystal
Fixed: Pressure, kPa = 100
Property: Solid-liquid equilibrium temperature, K (Liquid); method: DTA
Mole fraction of ethyl dodecanoate	Solid-liquid equilibrium temperature, K	uncertainty
0	298.23	0.7
0.1281	295.52	0.7
0.2077	294.31	0.7
0.306	292.4	0.7
0.3935	291.17	0.7
0.5029	288.48	0.7
0.5929	285.75	0.7
0.7033	282.1	0.7
0.7868	278.23	0.7
0.8502	272	0.7

System: ethyl dodecanoate + ethyl hexadecanoate; phases: Liquid, Crystal, Crystal
Property: Triple point temperature, K (Liquid); method: DTA
Mole fraction of ethyl dodecanoate	Triple point temperature, K	uncertainty
0.9106	269.16	0.7

System: ethyl dodecanoate + ethyl hexadecanoate; phases: Liquid, Crystal
Fixed: Pressure, kPa = 100
Property: Solid-liquid equilibrium temperature, K (Liquid); method: DTA
Mole fraction of ethyl dodecanoate	Solid-liquid equilibrium temperature, K	uncertainty
0.9502	271.38	0.7
1	273.2	0.7

System: ethyl dodecanoate + ethyl octadecanoate; phases: Liquid, Crystal
Fixed: Pressure, kPa = 100
Property: Solid-liquid equilibrium temperature, K (Liquid); method: DTA
Mole fraction of ethyl dodecanoate	Solid-liquid equilibrium temperature, K	uncertainty
0	307.4	0.7
0.0893	306.86	0.7
0.1936	304.81	0.7
0.2993	303.09	0.7
0.4094	300.84	0.7
0.5009	298.94	0.7
0.5969	296.85	0.7
0.691	294	0.7
0.7959	289.53	0.7
0.8967	281.62	0.7

System: ethyl dodecanoate + ethyl octadecanoate; phases: Liquid, Crystal
Property: Solid-liquid equilibrium temperature, K (Liquid); method: DTA
Mole fraction of ethyl dodecanoate	Pressure, kPa	Solid-liquid equilibrium temperature, K	uncertainty
1	100	273.2	0.7

System: ethyl octadecanoate + ethyl hexadecanoate; phases: Liquid, Crystal
Property: Solid-liquid equilibrium temperature, K (Liquid); method: DTA
Mole fraction of ethyl hexadecanoate	Pressure, kPa	Solid-liquid equilibrium temperature, K	uncertainty
0	100	307.4	0.7

System: ethyl octadecanoate + ethyl hexadecanoate; phases: Liquid, Crystal
Fixed: Pressure, kPa = 100
Property: Solid-liquid equilibrium temperature, K (Liquid); method: DTA
Mole fraction of ethyl hexadecanoate	Solid-liquid equilibrium temperature, K	uncertainty
0.1132	305.57	0.7
0.2064	303.62	0.7
0.2964	301.98	0.7
0.4089	300.55	0.7
0.5044	299.34	0.7
0.6006	298.23	0.7
0.7026	297.08	0.7
0.8029	295.85	0.7
0.8972	295.46	0.7

System: ethyl octadecanoate + ethyl hexadecanoate; phases: Liquid, Crystal
Property: Solid-liquid equilibrium temperature, K (Liquid); method: DTA
Mole fraction of ethyl hexadecanoate	Pressure, kPa	Solid-liquid equilibrium temperature, K	uncertainty
1	100	298.23	0.7

System: ethyl dodecanoate + ethyl octadecanoate + ethyl hexadecanoate; phases: Liquid, Crystal
Fixed: Pressure, kPa = 100
Property: Solid-liquid equilibrium temperature, K (Liquid); method: DTA
Mole fraction of ethyl dodecanoate	Mole fraction of ethyl hexadecanoate	Solid-liquid equilibrium temperature, K	uncertainty
0.1021	0.1048	304.65	0.7
0.2033	0.0991	303.04	0.7
0.2991	0.1063	301.13	0.7
0.398	0.1062	298.84	0.7
0.4998	0.1056	296.45	0.7
0.5948	0.1002	293.45	0.7
0.7018	0.1001	288.89	0.7
0.7762	0.104	283.08	0.7
0.1155	0.2055	302.26	0.7
0.2249	0.2054	300.49	0.7
0.2789	0.1994	299.46	0.7
0.4016	0.2043	296.14	0.7
0.492	0.2041	292.85	0.7
0.5978	0.1992	288.85	0.7
0.6888	0.2067	277.49	0.7
0.1171	0.3099	299.76	0.7
0.1931	0.3089	298.2	0.7
0.282	0.3303	295.11	0.7
0.3905	0.3074	292.22	0.7
0.4932	0.3128	286.18	0.7
0.5963	0.2971	280.91	0.7
0.1102	0.3963	297.3	0.7
0.2035	0.4012	294.78	0.7
0.2793	0.3626	292.96	0.7
0.3937	0.4073	288.31	0.7
0.488	0.3963	284.47	0.7
0.1053	0.4891	296.45	0.7
0.2033	0.4791	293.79	0.7
0.3209	0.4864	289.71	0.7
0.4415	0.4626	285.63	0.7
0.1344	0.5823	294.38	0.7
0.1861	0.6146	292.23	0.7
0.2974	0.6002	290.17	0.7
0.1062	0.6833	292.64	0.7
0.1951	0.6986	291.9	0.7
0.1086	0.7911	293.67	0.7
