Measured thermophysical data. Solubilities of rutin in eight solvents at T = 283.15, 298.15, 313.15, 323.15, and 333.15K
Source: Fluid Phase Equilib., 2007, 10.1016/j.fluid.2007.07.030
Compound 1: rutin, C27H30O16, InChI=1S/C27H30O16/c1-8-17(32)20(35)22(37)26(40-8)39-7-15-18(33)21(36)23(38)27(42-15)43-25-19(34)16-13(31)5-10(28)6-14(16)41-24(25)9-2-3-11(29)12(30)4-9/h2-6,8,15,17-18,20-23,26-33,35-38H,7H2,1H3/t8-,15+,17-,18+,20+,21-,22+,23+,26+,27-/m0/s1
Compound 2: water, H2O, InChI=1S/H2O/h1H2
Compound 3: methanol, CH4O, InChI=1S/CH4O/c1-2/h2H,1H3
Compound 4: ethanol, C2H6O, InChI=1S/C2H6O/c1-2-3/h3H,2H2,1H3
Compound 5: propan-1-ol, C3H8O, InChI=1S/C3H8O/c1-2-3-4/h4H,2-3H2,1H3
Compound 6: propan-2-ol, C3H8O, InChI=1S/C3H8O/c1-3(2)4/h3-4H,1-2H3
Compound 7: butan-1-ol, C4H10O, InChI=1S/C4H10O/c1-2-3-4-5/h5H,2-4H2,1H3
Compound 8: acetone, C3H6O, InChI=1S/C3H6O/c1-3(2)4/h1-2H3
Compound 9: ethyl acetate, C4H8O2, InChI=1S/C4H8O2/c1-3-6-4(2)5/h3H2,1-2H3

System: rutin + water; phases: Liquid, Crystal
Fixed: Pressure, kPa = 101
Property: Mole fraction of rutin (Liquid); method: Chromatography
Temperature, K	Mole fraction of rutin	uncertainty
283.15	5.3e-06	5e-07
298.15	6.6e-06	8e-07
313.15	1.02e-05	1.2e-06
323.15	1.42e-05	1.3e-06
333.15	1.96e-05	1.8e-06

System: methanol + rutin; phases: Liquid, Crystal
Fixed: Pressure, kPa = 101
Property: Mole fraction of rutin (Liquid); method: Chromatography
Temperature, K	Mole fraction of rutin	uncertainty
283.15	0.002289	0.000102
298.15	0.003034	0.000135
313.15	0.003989	0.000177
323.15	0.00466	0.000207
333.15	0.005238	0.000233

System: ethanol + rutin; phases: Liquid, Crystal
Fixed: Pressure, kPa = 101
Property: Mole fraction of rutin (Liquid); method: Chromatography
Temperature, K	Mole fraction of rutin	uncertainty
283.15	0.003721	0.000124
298.15	0.004365	0.000135
313.15	0.005918	0.000183
323.15	0.006532	0.000202
333.15	0.007543	0.000234

System: propan-1-ol + rutin; phases: Liquid, Crystal
Fixed: Pressure, kPa = 101
Property: Mole fraction of rutin (Liquid); method: Chromatography
Temperature, K	Mole fraction of rutin	uncertainty
283.15	0.001498	3.5e-05
298.15	0.001792	4.8e-05
313.15	0.002347	5.6e-05
323.15	0.002595	7.4e-05
333.15	0.00297	0.00014

System: propan-2-ol + rutin; phases: Liquid, Crystal
Fixed: Pressure, kPa = 101
Property: Mole fraction of rutin (Liquid); method: Chromatography
Temperature, K	Mole fraction of rutin	uncertainty
283.15	0.001303	5.6e-05
298.15	0.00157	5e-05
313.15	0.002077	7.1e-05
323.15	0.002361	5.6e-05
333.15	0.002669	8.5e-05

System: butan-1-ol + rutin; phases: Liquid, Crystal
Fixed: Pressure, kPa = 101
Property: Mole fraction of rutin (Liquid); method: Chromatography
Temperature, K	Mole fraction of rutin	uncertainty
283.15	0.000305	1.1e-05
298.15	0.000346	7e-06
313.15	0.0003969	2.43e-05
323.15	0.000446	2.3e-05
333.15	0.000508	1.5e-05

System: acetone + rutin; phases: Liquid, Crystal
Fixed: Pressure, kPa = 101
Property: Mole fraction of rutin (Liquid); method: Chromatography
Temperature, K	Mole fraction of rutin	uncertainty
283.15	0.000169	3.3e-05
298.15	0.000271	1.9e-05
313.15	0.000541	2.5e-05
323.15	0.000685	1.8e-05

System: ethyl acetate + rutin; phases: Liquid, Crystal
Fixed: Pressure, kPa = 101
Property: Mole fraction of rutin (Liquid); method: Chromatography
Temperature, K	Mole fraction of rutin	uncertainty
283.15	0.001144	7.4e-05
298.15	0.001085	4.4e-05
313.15	0.001003	2.9e-05
323.15	0.000953	1.8e-05
333.15	0.000894	2e-05
