Measured thermophysical data. Density and surface tension in binary mixtures of CnMIM-BF4 ionic liquids with water and ethanol
Source: Fluid Phase Equilib., 2009, 10.1016/j.fluid.2009.07.010
Compound 1: 1-ethyl-3-methylimidazolium tetrafluoroborate, C6H11BF4N2, InChI=1S/C6H11N2.BF4/c1-3-8-5-4-7(2)6-8;2-1(3,4)5/h4-6H,3H2,1-2H3;/q+1;-1, purity 98%
Compound 2: 1-butyl-3-methylimidazolium tetrafluoroborate, C8H15BF4N2, InChI=1S/C8H15N2.BF4/c1-3-4-5-10-7-6-9(2)8-10;2-1(3,4)5/h6-8H,3-5H2,1-2H3;/q+1;-1, purity 99%
Compound 3: 1-hexyl-3-methylimidazolium tetrafluoroborate, C10H19BF4N2, InChI=1S/C10H19N2.BF4/c1-3-4-5-6-7-12-9-8-11(2)10-12;2-1(3,4)5/h8-10H,3-7H2,1-2H3;/q+1;-1, purity 99%
Compound 4: 1-methyl-3-octylimidazolium tetrafluoroborate, C12H23BF4N2, InChI=1S/C12H23N2.BF4/c1-3-4-5-6-7-8-9-14-11-10-13(2)12-14;2-1(3,4)5/h10-12H,3-9H2,1-2H3;/q+1;-1, purity 99%
Compound 5: ethanol, C2H6O, InChI=1S/C2H6O/c1-2-3/h3H,2H2,1H3, purity 99.5%
Compound 6: water, H2O, InChI=1S/H2O/h1H2, purity 99.8%

System: 1-ethyl-3-methylimidazolium tetrafluoroborate; phases: Liquid
Property: Mass density, kg/m3 (Liquid); method: Vibrating tube method
Temperature, K	Pressure, kPa	Mass density, kg/m3	uncertainty
298.1	101.325	1279.9	1.5

System: 1-ethyl-3-methylimidazolium tetrafluoroborate; phases: Liquid, Air at 1 atmosphere
Property: Surface tension liquid-gas, N/m (Liquid); method: Drop volume
Temperature, K	Surface tension liquid-gas, N/m	uncertainty
298.15	0.05281	0.00057

System: 1-butyl-3-methylimidazolium tetrafluoroborate; phases: Liquid
Property: Mass density, kg/m3 (Liquid); method: Vibrating tube method
Temperature, K	Pressure, kPa	Mass density, kg/m3	uncertainty
298.1	101.325	1201.2	0.5

System: 1-butyl-3-methylimidazolium tetrafluoroborate; phases: Liquid, Air at 1 atmosphere
Property: Surface tension liquid-gas, N/m (Liquid); method: Drop volume
Temperature, K	Surface tension liquid-gas, N/m	uncertainty
298.15	0.04533	0.0003

System: 1-hexyl-3-methylimidazolium tetrafluoroborate; phases: Liquid
Property: Mass density, kg/m3 (Liquid); method: Vibrating tube method
Temperature, K	Pressure, kPa	Mass density, kg/m3	uncertainty
298.1	101.325	1145.4	0.4

System: 1-hexyl-3-methylimidazolium tetrafluoroborate; phases: Liquid, Air at 1 atmosphere
Property: Surface tension liquid-gas, N/m (Liquid); method: Drop volume
Temperature, K	Surface tension liquid-gas, N/m	uncertainty
298.15	0.03733	0.00026

System: 1-methyl-3-octylimidazolium tetrafluoroborate; phases: Liquid
Property: Mass density, kg/m3 (Liquid); method: Vibrating tube method
Temperature, K	Pressure, kPa	Mass density, kg/m3	uncertainty
298.1	101.325	1104.2	0.4

System: 1-methyl-3-octylimidazolium tetrafluoroborate; phases: Liquid, Air at 1 atmosphere
Property: Surface tension liquid-gas, N/m (Liquid); method: Drop volume
Temperature, K	Surface tension liquid-gas, N/m	uncertainty
298.15	0.03284	0.00023

System: ethanol; phases: Liquid
Property: Mass density, kg/m3 (Liquid); method: Vibrating tube method
Temperature, K	Pressure, kPa	Mass density, kg/m3	uncertainty
298.1	101.325	785.8	0.2

System: ethanol; phases: Liquid, Air at 1 atmosphere
Property: Surface tension liquid-gas, N/m (Liquid); method: Drop volume
Temperature, K	Surface tension liquid-gas, N/m	uncertainty
298.15	0.022	0.00015

System: water; phases: Liquid
Property: Mass density, kg/m3 (Liquid); method: Vibrating tube method
Temperature, K	Pressure, kPa	Mass density, kg/m3	uncertainty
298.1	101.325	997	0.2

System: water; phases: Liquid, Air at 1 atmosphere
Property: Surface tension liquid-gas, N/m (Liquid); method: Drop volume
Temperature, K	Surface tension liquid-gas, N/m	uncertainty
298.15	0.07135	0.00028

System: water + 1-ethyl-3-methylimidazolium tetrafluoroborate; phases: Liquid, Air at 1 atmosphere
Fixed: Temperature, K = 298.15
Property: Surface tension liquid-gas, N/m (Liquid); method: Drop volume
Mole fraction of 1-ethyl-3-methylimidazolium tetrafluoroborate	Surface tension liquid-gas, N/m	uncertainty
0	0.07135	0.00028
0.004	0.06738	0.00027
0.0077	0.065	0.00026
0.0123	0.06287	0.00026
0.0132	0.06191	0.00025
0.0288	0.05815	0.00025
0.0483	0.05731	0.00025
0.0709	0.05592	0.00025
0.102	0.05524	0.00025
0.1418	0.05443	0.00026
0.2141	0.0538	0.00027
0.2894	0.05415	0.0003
0.4011	0.05401	0.00033
0.5074	0.05388	0.00037
0.6018	0.05373	0.00041
0.7534	0.05351	0.00047
0.9015	0.05325	0.00053
1	0.05304	0.00057

System: water + 1-ethyl-3-methylimidazolium tetrafluoroborate; phases: Liquid
Fixed: Pressure, kPa = 101
Fixed: Temperature, K = 298.15
Property: Mass density, kg/m3 (Liquid); method: Vibrating tube method
Mole fraction of 1-ethyl-3-methylimidazolium tetrafluoroborate	Mass density, kg/m3	uncertainty
0	997	0.2
0.004	1005.5	0.3
0.0077	1013.2	0.3
0.0123	1021.8	0.3
0.0132	1023.4	0.3
0.0288	1046.4	0.3
0.0483	1068.2	0.3
0.0709	1088.6	0.3
0.102	1111.7	0.3
0.1418	1135.8	0.3
0.2141	1169.1	0.4
0.2191	1171	0.4
0.3118	1200.3	0.4
0.4551	1230	0.5
0.4987	1236.7	0.6
0.5923	1248.6	0.7
0.691	1258.5	0.8
0.7774	1265.5	1
1	1279.9	1.5

System: water + 1-butyl-3-methylimidazolium tetrafluoroborate; phases: Liquid, Air at 1 atmosphere
Fixed: Temperature, K = 298.15
Property: Surface tension liquid-gas, N/m (Liquid); method: Drop volume
Mole fraction of 1-butyl-3-methylimidazolium tetrafluoroborate	Surface tension liquid-gas, N/m	uncertainty
0	0.07135	0.00028
0.0001	0.06154	0.00025
0.0003	0.0615	0.00025
0.001	0.05162	0.00022
0.0039	0.0573	0.00024
0.0058	0.05434	0.00023
0.0074	0.05177	0.00022
0.0094	0.05063	0.00022
0.02	0.04693	0.00021
0.0404	0.04602	0.00021
0.0498	0.04627	0.00021
0.0586	0.04625	0.00021
0.0698	0.04614	0.00021
0.0799	0.04599	0.00021
0.0998	0.04619	0.00022
0.1013	0.04563	0.00021
0.1081	0.04623	0.00021
0.139	0.04622	0.00022
0.1621	0.04616	0.00022
0.1788	0.04606	0.00022
0.1818	0.04591	0.00022
0.2128	0.04562	0.00022
0.2963	0.04625	0.00023
0.4067	0.04632	0.00024
0.5304	0.04602	0.00025
0.6326	0.04581	0.00026
0.7065	0.04568	0.00027
0.8003	0.04552	0.00028
0.9005	0.04541	0.00029
1	0.04533	0.0003

System: water + 1-butyl-3-methylimidazolium tetrafluoroborate; phases: Liquid
Fixed: Pressure, kPa = 101
Fixed: Temperature, K = 298.15
Property: Mass density, kg/m3 (Liquid); method: Vibrating tube method
Mole fraction of 1-butyl-3-methylimidazolium tetrafluoroborate	Mass density, kg/m3	uncertainty
0.0017	1000.9	0.2
0.0035	1004.8	0.3
0.0052	1008.5	0.3
0.0069	1011.9	0.3
0.0092	1014.4	0.3
0.0197	1030.6	0.3
0.0335	1048.2	0.3
0.0502	1065.2	0.3
0.0736	1084.1	0.3
0.1072	1103.9	0.3
0.1398	1118	0.3
0.1688	1128	0.3
0.252	1148.2	0.3
0.2963	1156.2	0.3
0.3734	1166.9	0.3
0.4067	1169.4	0.3
0.4408	1171.9	0.3
0.4946	1177.9	0.4
0.5252	1178.7	0.4
0.5304	1181.5	0.4
0.5723	1181.8	0.4
0.6	1185	0.4
0.6326	1187.9	0.4
0.6922	1189.4	0.4
0.7065	1191.1	0.4
0.8167	1193.7	0.4
0.9005	1197.8	0.5
1	1201.2	0.5

System: water + 1-hexyl-3-methylimidazolium tetrafluoroborate; phases: Liquid, Air at 1 atmosphere
Fixed: Temperature, K = 298.15
Property: Surface tension liquid-gas, N/m (Liquid); method: Drop volume
Mole fraction of 1-hexyl-3-methylimidazolium tetrafluoroborate	Surface tension liquid-gas, N/m	uncertainty
0.3032	0.03793	0.0002
0.4059	0.03779	0.00021
0.5058	0.03765	0.00021
0.6061	0.03752	0.00022
0.7057	0.0374	0.00023
0.803	0.03735	0.00024
0.9002	0.03733	0.00025
1	0.03733	0.00026

System: water + 1-hexyl-3-methylimidazolium tetrafluoroborate; phases: Liquid
Fixed: Pressure, kPa = 101
Fixed: Temperature, K = 298.15
Property: Mass density, kg/m3 (Liquid); method: Vibrating tube method
Mole fraction of 1-hexyl-3-methylimidazolium tetrafluoroborate	Mass density, kg/m3	uncertainty
0.3032	1115.8	0.3
0.4059	1123.9	0.3
0.5058	1129.2	0.3
0.6061	1133.8	0.3
0.7057	1137.4	0.4
0.803	1140.3	0.4
0.9002	1142.6	0.4
1	1145.5	0.4

System: ethanol + 1-ethyl-3-methylimidazolium tetrafluoroborate; phases: Liquid, Air at 1 atmosphere
Fixed: Temperature, K = 298.15
Property: Surface tension liquid-gas, N/m (Liquid); method: Drop volume
Mole fraction of 1-ethyl-3-methylimidazolium tetrafluoroborate	Surface tension liquid-gas, N/m	uncertainty
0	0.05281	0.00026
0.6087	0.03358	0.00029
0.7056	0.03737	0.00034
0.8072	0.04277	0.00041
0.9054	0.04741	0.00049
1	0.05304	0.00057

System: ethanol + 1-ethyl-3-methylimidazolium tetrafluoroborate; phases: Liquid
Fixed: Pressure, kPa = 101
Fixed: Temperature, K = 298.15
Property: Mass density, kg/m3 (Liquid); method: Vibrating tube method
Mole fraction of 1-ethyl-3-methylimidazolium tetrafluoroborate	Mass density, kg/m3	uncertainty
0	785.8	0.2
0.6087	1190.3	0.7
0.7056	1225.5	0.9
0.8072	1241.6	1.1
0.9054	1262.6	1.3
1	1279.9	1.5

System: ethanol + 1-butyl-3-methylimidazolium tetrafluoroborate; phases: Liquid, Air at 1 atmosphere
Fixed: Temperature, K = 298.15
Property: Surface tension liquid-gas, N/m (Liquid); method: Drop volume
Mole fraction of 1-butyl-3-methylimidazolium tetrafluoroborate	Surface tension liquid-gas, N/m	uncertainty
0.0986	0.02283	0.00015
0.2002	0.02328	0.00016
0.2553	0.02465	0.00016
0.3284	0.02553	0.00017
0.3999	0.02655	0.00018
0.4202	0.0272	0.00018
0.5024	0.02887	0.00019
0.6082	0.03132	0.00021
0.7107	0.0349	0.00023
0.804	0.03799	0.00025
0.9059	0.04154	0.00027
1	0.04533	0.0003

System: ethanol + 1-butyl-3-methylimidazolium tetrafluoroborate; phases: Liquid
Fixed: Pressure, kPa = 101
Fixed: Temperature, K = 298.15
Property: Mass density, kg/m3 (Liquid); method: Vibrating tube method
Mole fraction of 1-butyl-3-methylimidazolium tetrafluoroborate	Mass density, kg/m3	uncertainty
0.0986	897.2	0.3
0.2002	977.4	0.3
0.2553	1010.7	0.3
0.2881	1027.9	0.3
0.3284	1046.8	0.3
0.3999	1075.5	0.4
0.4202	1082.7	0.4
0.5024	1108.6	0.4
0.6082	1135.9	0.4
0.7107	1157.4	0.4
0.804	1173.7	0.4
0.9059	1188.8	0.5
1	1201.2	0.5

System: ethanol + 1-hexyl-3-methylimidazolium tetrafluoroborate; phases: Liquid, Air at 1 atmosphere
Fixed: Temperature, K = 298.15
Property: Surface tension liquid-gas, N/m (Liquid); method: Drop volume
Mole fraction of 1-hexyl-3-methylimidazolium tetrafluoroborate	Surface tension liquid-gas, N/m	uncertainty
0.098	0.02311	0.00015
0.1998	0.02421	0.00016
0.3	0.02562	0.00017
0.3991	0.02709	0.00018
0.5079	0.02882	0.00019
0.6123	0.03074	0.0002
0.702	0.03247	0.00022
0.803	0.03422	0.00023
0.9	0.03575	0.00024
1	0.03733	0.00026

System: ethanol + 1-hexyl-3-methylimidazolium tetrafluoroborate; phases: Liquid
Fixed: Pressure, kPa = 101
Fixed: Temperature, K = 298.15
Property: Mass density, kg/m3 (Liquid); method: Vibrating tube method
Mole fraction of 1-hexyl-3-methylimidazolium tetrafluoroborate	Mass density, kg/m3	uncertainty
0.098	893.9	0.3
0.1998	964.6	0.3
0.3	1011.9	0.3
0.3991	1046.1	0.3
0.5079	1073.7	0.3
0.6123	1095.5	0.4
0.702	1108.8	0.4
0.803	1123.9	0.4
0.9	1134.7	0.4
1	1145.5	0.4

System: ethanol + 1-methyl-3-octylimidazolium tetrafluoroborate; phases: Liquid, Air at 1 atmosphere
Fixed: Temperature, K = 298.15
Property: Surface tension liquid-gas, N/m (Liquid); method: Drop volume
Mole fraction of 1-methyl-3-octylimidazolium tetrafluoroborate	Surface tension liquid-gas, N/m	uncertainty
0.1012	0.02333	0.00015
0.2034	0.0247	0.00016
0.3	0.02599	0.00017
0.4096	0.02728	0.00018
0.5125	0.0279	0.00019
0.6156	0.02888	0.00019
0.7207	0.0299	0.0002
0.815	0.03086	0.00021
0.9014	0.03184	0.00022
1	0.03282	0.00023

System: ethanol + 1-methyl-3-octylimidazolium tetrafluoroborate; phases: Liquid
Fixed: Pressure, kPa = 101
Fixed: Temperature, K = 298.15
Property: Mass density, kg/m3 (Liquid); method: Vibrating tube method
Mole fraction of 1-methyl-3-octylimidazolium tetrafluoroborate	Mass density, kg/m3	uncertainty
0.1012	893	0.3
0.2034	957.9	0.3
0.3	996.6	0.3
0.4096	1026.4	0.3
0.5125	1047.8	0.3
0.6156	1065.2	0.3
0.7207	1079.3	0.4
0.815	1088.8	0.4
0.9014	1095.6	0.4
1	1104.2	0.4
