Measured thermophysical data. An equipment for dynamic measurements of vapour liquid equilibria and results in binary systems containing cyclohexylamine
Source: Fluid Phase Equilib., 2005, 10.1016/j.fluid.2005.05.003
Compound 1: toluene, C7H8, InChI=1S/C7H8/c1-7-5-3-2-4-6-7/h2-6H,1H3
Compound 2: octane, C8H18, InChI=1S/C8H18/c1-3-5-7-8-6-4-2/h3-8H2,1-2H3
Compound 3: cyclohexylamine, C6H13N, InChI=1S/C6H13N/c7-6-4-2-1-3-5-6/h6H,1-5,7H2
Compound 4: water, H2O, InChI=1S/H2O/h1H2
Compound 5: aniline, C6H7N, InChI=1S/C6H7N/c7-6-4-2-1-3-5-6/h1-5H,7H2

System: toluene; phases: Liquid, Gas
Property: Vapor or sublimation pressure, kPa (Liquid); method: EBULLIO:UFactor:32
Temperature, K	Vapor or sublimation pressure, kPa	uncertainty
333.15	18.56	0.3
343.15	27.24	0.32
353.15	38.82	0.35
363.15	54.22	0.39

System: octane; phases: Liquid, Gas
Property: Vapor or sublimation pressure, kPa (Liquid); method: EBULLIO:UFactor:32
Temperature, K	Vapor or sublimation pressure, kPa	uncertainty
333.15	10.59	0.28
343.15	16.04	0.29
353.15	23.61	0.31
363.15	33.91	0.33

System: cyclohexylamine; phases: Liquid, Gas
Property: Vapor or sublimation pressure, kPa (Liquid); method: EBULLIO:UFactor:32
Temperature, K	Vapor or sublimation pressure, kPa	uncertainty
333.15	7.52	0.27
343.15	11.67	0.28
353.15	17.53	0.29
363.15	25.59	0.31

System: water; phases: Liquid, Gas
Property: Vapor or sublimation pressure, kPa (Liquid); method: EBULLIO:UFactor:8
Temperature, K	Vapor or sublimation pressure, kPa	uncertainty
333.15	19.94	0.77
363.15	70.09	1.27

System: aniline; phases: Liquid, Gas
Property: Vapor or sublimation pressure, kPa (Liquid); method: EBULLIO:UFactor:8
Temperature, K	Vapor or sublimation pressure, kPa	uncertainty
333.15	0.88	0.63
363.15	3.82	0.64

System: aniline + cyclohexylamine; phases: Liquid, Gas
Property: Vapor or sublimation pressure, kPa (Liquid); method: EBULLIO:UFactor:8
Mole fraction of cyclohexylamine	Temperature, K	Vapor or sublimation pressure, kPa	uncertainty
0	333.15	0.88	0.63
0	363.15	3.82	0.64
0.098	333.15	1.23	0.63
0.118	363.15	6.26	0.66
0.183	363.15	7.75	0.67
0.196	333.15	1.79	0.63
0.282	363.15	9.5	0.68
0.295	333.15	2.59	0.64
0.395	363.15	11.9	0.7
0.454	333.15	3.54	0.64
0.523	363.15	14.57	0.72
0.558	333.15	4.26	0.65
0.628	363.15	16.96	0.73
0.663	333.15	5.05	0.65
0.762	363.15	20.05	0.75
0.765	333.15	5.82	0.66
0.835	363.15	21.75	0.76
0.887	333.15	6.71	0.66
1	333.15	7.52	0.67
1	363.15	25.59	0.78

System: aniline + cyclohexylamine; phases: Gas, Liquid
Property: Mole fraction of cyclohexylamine (Gas); method: Density calibration data
Mole fraction of cyclohexylamine	Temperature, K	Mole fraction of cyclohexylamine	uncertainty
0	333.15	0	0.001
0	363.15	0	0.001
0.098	333.15	0.401	0.008
0.118	363.15	0.457	0.009
0.183	363.15	0.588	0.008
0.196	333.15	0.636	0.007
0.282	363.15	0.709	0.006
0.295	333.15	0.763	0.006
0.395	363.15	0.803	0.006
0.454	333.15	0.868	0.007
0.523	363.15	0.879	0.006
0.558	333.15	0.916	0.006
0.628	363.15	0.92	0.006
0.663	333.15	0.946	0.006
0.762	363.15	0.959	0.006
0.765	333.15	0.969	0.006
0.835	363.15	0.974	0.006
0.887	333.15	0.988	0.006
1	333.15	1	0.001
1	363.15	1	0.001

System: cyclohexylamine + water; phases: Liquid, Gas
Property: Vapor or sublimation pressure, kPa (Liquid); method: EBULLIO:UFactor:8
Mole fraction of water	Temperature, K	Vapor or sublimation pressure, kPa	uncertainty
0	333.15	7.52	0.67
0	363.15	25.59	0.78
0.096	363.15	37.06	0.85
0.104	333.15	10.87	0.69
0.141	363.15	42.62	0.89
0.161	333.15	12.3	0.7
0.236	363.15	49.72	0.94
0.242	333.15	14.06	0.71
0.274	333.15	14.84	0.72
0.352	363.15	59.62	1.02
0.417	333.15	17.15	0.73
0.501	363.15	68.43	1.11
0.576	333.15	19.7	0.76
0.633	363.15	75.16	1.2
0.702	333.15	21.28	0.77
0.742	363.15	78.25	1.25
0.778	333.15	21.87	0.78
0.812	363.15	78.84	1.28
0.914	363.15	79.35	1.33
0.939	333.15	22.14	0.79
0.953	363.15	79.43	1.49
1	333.15	19.94	0.77
1	363.15	70.09	1.27

System: cyclohexylamine + water; phases: Gas, Liquid
Property: Mole fraction of water (Gas); method: Density calibration data
Mole fraction of water	Temperature, K	Mole fraction of water	uncertainty
0	333.15	0	0.001
0	363.15	0	0.001
0.096	363.15	0.373	0.005
0.104	333.15	0.382	0.005
0.141	363.15	0.462	0.008
0.161	333.15	0.465	0.008
0.236	363.15	0.582	0.011
0.242	333.15	0.566	0.011
0.274	333.15	0.598	0.011
0.352	363.15	0.694	0.012
0.417	333.15	0.705	0.012
0.501	363.15	0.795	0.01
0.576	333.15	0.805	0.01
0.633	363.15	0.842	0.009
0.702	333.15	0.863	0.009
0.742	363.15	0.873	0.009
0.778	333.15	0.886	0.008
0.812	363.15	0.884	0.008
0.914	363.15	0.889	0.008
0.939	333.15	0.913	0.008
0.953	363.15	0.889	0.011
1	333.15	1	0.001
1	363.15	1	0.001

System: cyclohexylamine + octane; phases: Liquid, Gas
Property: Vapor or sublimation pressure, kPa (Liquid); method: EBULLIO:UFactor:8
Mole fraction of octane	Temperature, K	Vapor or sublimation pressure, kPa	uncertainty
0	333.15	7.52	0.67
0	363.15	25.59	0.78
0.094	363.15	28.33	0.8
0.105	333.15	8.77	0.67
0.152	363.15	29.77	0.8
0.164	333.15	9.32	0.68
0.201	363.15	30.97	0.81
0.235	333.15	9.78	0.68
0.274	363.15	31.69	0.82
0.303	333.15	10.07	0.68
0.35	363.15	32.62	0.82
0.377	333.15	10.37	0.68
0.447	333.15	10.59	0.69
0.487	363.15	33.84	0.83
0.524	333.15	10.76	0.69
0.564	363.15	34.27	0.83
0.654	363.15	34.82	0.84
0.698	333.15	11.13	0.69
0.755	363.15	35.02	0.84
0.816	333.15	11.12	0.69
0.863	363.15	35.01	0.84
0.892	333.15	10.97	0.69
0.944	363.15	34.51	0.84
0.949	333.15	10.71	0.69
1	333.15	10.59	0.69
1	363.15	33.91	0.83

System: cyclohexylamine + octane; phases: Gas, Liquid
Property: Mole fraction of octane (Gas); method: Density calibration data
Mole fraction of octane	Temperature, K	Mole fraction of octane	uncertainty
0	333.15	0	0.001
0	363.15	0	0.001
0.094	363.15	0.187	0.002
0.105	333.15	0.221	0.002
0.152	363.15	0.273	0.002
0.164	333.15	0.307	0.002
0.201	363.15	0.331	0.002
0.235	333.15	0.385	0.003
0.274	363.15	0.396	0.003
0.303	333.15	0.448	0.003
0.35	363.15	0.461	0.003
0.377	333.15	0.502	0.003
0.447	333.15	0.55	0.004
0.487	363.15	0.563	0.004
0.524	333.15	0.601	0.004
0.564	363.15	0.62	0.004
0.654	363.15	0.681	0.005
0.698	333.15	0.714	0.005
0.755	363.15	0.761	0.006
0.816	333.15	0.807	0.006
0.863	363.15	0.854	0.007
0.892	333.15	0.879	0.007
0.944	363.15	0.94	0.008
0.949	333.15	0.937	0.009
1	333.15	1	0.001
1	363.15	1	0.001
