Measured thermophysical data. Isothermal vapor-liquid equilibrium and excess molar enthalpies of the binary mixtures furfural + methyl isobutyl ketone, + 2-butanol and + 2-methyl-2-butanol
Source: Fluid Phase Equilib., 2014, 10.1016/j.fluid.2014.03.033
Compound 1: 4-methylpentan-2-one, C6H12O, InChI=1S/C6H12O/c1-5(2)4-6(3)7/h5H,4H2,1-3H3, purity 99.5%
Compound 2: butan-2-ol, C4H10O, InChI=1S/C4H10O/c1-3-4(2)5/h4-5H,3H2,1-2H3, purity 99.6%
Compound 3: 2-methylbutan-2-ol, C5H12O, InChI=1S/C5H12O/c1-4-5(2,3)6/h6H,4H2,1-3H3, purity 99%
Compound 4: 2-furaldehyde, C5H4O2, InChI=1S/C5H4O2/c6-4-5-2-1-3-7-5/h1-4H, purity 99%

System: 2-furaldehyde + 4-methylpentan-2-one; phases: Liquid
Fixed: Temperature, K = 298.15
Fixed: Pressure, kPa = 101
Property: Excess molar enthalpy (molar enthalpy of mixing), kJ/mol (Liquid); method: isobaric mixing calorimetry
Mole fraction of 2-furaldehyde	Excess molar enthalpy (molar enthalpy of mixing), kJ/mol	uncertainty
0.8995	0.118	0.004
0.8	0.196	0.006
0.698	0.235	0.006
0.599	0.247	0.007
0.499	0.227	0.006
0.399	0.197	0.006
0.2982	0.149	0.004
0.1995	0.091	0.003
0.099	0.0357	0.0014

System: 2-furaldehyde + 4-methylpentan-2-one; phases: Gas, Liquid
Property: Mole fraction of 2-furaldehyde (Gas); method: headspace gas chromatography
Temperature, K	Mole fraction of 2-furaldehyde	Mole fraction of 2-furaldehyde	uncertainty
368.5	0.9478	0.71	0.06
368.5	0.892	0.54	0.02
368.5	0.7808	0.368	0.01
368.5	0.6874	0.272	0.004
368.5	0.5814	0.212	0.002
368.5	0.4837	0.166	0.002
368.5	0.3847	0.128	0.002
368.5	0.3039	0.102	0.002
368.5	0.1907	0.062	0.004
368.5	0.0941	0.03	0.004
368.5	0.0482	0.016	0.004
333.3	0.9466	0.66	0.06
333.3	0.8983	0.49	0.02
333.3	0.798	0.333	0.012
333.3	0.6762	0.221	0.004
333.3	0.595	0.177	0.002
333.3	0.5002	0.136	0.002
333.3	0.4094	0.104	0.002
333.3	0.2928	0.074	0.002
333.3	0.1973	0.047	0.002
333.3	0.1013	0.025	0.002
333.3	0.0493	0.013	0.004

System: 2-furaldehyde + 4-methylpentan-2-one; phases: Liquid, Gas
Fixed: Temperature, K = 353.3
Property: Mole fraction of 2-furaldehyde (Liquid); method: Chromatography
Pressure, kPa	Mole fraction of 2-furaldehyde	uncertainty
32.1	0	
29.5	0.107	0.017
27.5	0.196	0.018
25.2	0.295	0.018
23.2	0.389	0.018
21.3	0.472	0.018
19.7	0.544	0.017
17.7	0.625	0.017
16.1	0.694	0.018

System: 2-furaldehyde + 4-methylpentan-2-one; phases: Gas, Liquid
Fixed: Temperature, K = 353.3
Property: Mole fraction of 2-furaldehyde (Gas); method: Chromatography
Pressure, kPa	Mole fraction of 2-furaldehyde	uncertainty
32.1	0	
29.5	0.032	0.005
27.5	0.058	0.006
25.2	0.088	0.006
23.2	0.119	0.007
21.3	0.148	0.007
19.7	0.173	0.008
17.7	0.216	0.01
16.1	0.257	0.011

System: 2-furaldehyde + 4-methylpentan-2-one; phases: Liquid, Gas
Property: Vapor or sublimation pressure, kPa (Liquid); method: Closed cell (Static) method
Mole fraction of 2-furaldehyde	Temperature, K	Vapor or sublimation pressure, kPa	uncertainty
1	345.8	4.2	0.1
0.948	345.8	6.2	0.1
0.897	345.81	7.7	0.1
0.8141	345.82	9.9	0.1
0.712	345.81	12.2	0.1
0.6139	345.81	14.2	0.1
0.5141	345.81	16.1	0.1
0.6061	345.78	14.3	0.1
0.5093	345.78	15.9	0.1
0.4106	345.77	17.5	0.1
0.31	345.75	19.1	0.1
0.2111	345.77	20.6	0.1
0.1131	345.78	22.2	0.1
0.0627	345.78	23.1	0.1

System: 2-furaldehyde + 4-methylpentan-2-one; phases: Gas, Liquid
Property: Mole fraction of 2-furaldehyde (Gas); method: Chromatography
Mole fraction of 2-furaldehyde	Temperature, K	Mole fraction of 2-furaldehyde	uncertainty
1	345.8	1	
0.948	345.8	0.649	0.016
0.897	345.81	0.494	0.013
0.8141	345.82	0.357	0.012
0.712	345.81	0.261	0.01
0.6139	345.81	0.2	0.008
0.5141	345.81	0.156	0.006
0.6061	345.78	0.196	0.008
0.5093	345.78	0.154	0.006
0.4106	345.77	0.119	0.004
0.31	345.75	0.09	0.004
0.2111	345.77	0.062	0.004
0.1131	345.78	0.034	0.002
0.0627	345.78	0.0191	0.0013

System: butan-2-ol + 2-furaldehyde; phases: Liquid
Fixed: Temperature, K = 298.15
Fixed: Pressure, kPa = 101
Property: Excess molar enthalpy (molar enthalpy of mixing), kJ/mol (Liquid); method: isobaric mixing calorimetry
Mole fraction of 2-furaldehyde	Excess molar enthalpy (molar enthalpy of mixing), kJ/mol	uncertainty
0.8995	0.941	0.025
0.7987	1.604	0.044
0.6996	2.037	0.054
0.5985	2.289	0.062
0.4992	2.352	0.062
0.3979	2.169	0.058
0.2987	1.913	0.052
0.1996	1.503	0.04
0.0993	0.918	0.025

System: butan-2-ol + 2-furaldehyde; phases: Gas, Liquid
Fixed: Temperature, K = 333.3
Property: Mole fraction of 2-furaldehyde (Gas); method: headspace gas chromatography
Mole fraction of 2-furaldehyde	Mole fraction of 2-furaldehyde	uncertainty
0.8981	0.3	0.04
0.898	0.29	0.06
0.795	0.194	0.014
0.7948	0.191	0.01
0.6834	0.143	0.01
0.6832	0.14	0.014
0.5871	0.125	0.01
0.4975	0.105	0.01
0.4973	0.107	0.01
0.3953	0.091	0.01
0.3058	0.081	0.01
0.2	0.058	0.01
0.099	0.038	0.004
0.0509	0.025	0.004
0.0508	0.024	0.004

System: butan-2-ol + 2-furaldehyde; phases: Liquid, Gas
Fixed: Temperature, K = 353.2
Property: Mole fraction of 2-furaldehyde (Liquid); method: Chromatography
Pressure, kPa	Mole fraction of 2-furaldehyde	uncertainty
46.7	0	
44.8	0.084	0.019
43	0.145	0.018
41	0.222	0.019
39	0.303	0.019
37	0.384	0.019
34.6	0.477	0.017
28.2	0.677	0.013
10.1	0.966	0.011
5.9	1	

System: butan-2-ol + 2-furaldehyde; phases: Gas, Liquid
Fixed: Temperature, K = 353.2
Property: Mole fraction of 2-furaldehyde (Gas); method: Chromatography
Pressure, kPa	Mole fraction of 2-furaldehyde	uncertainty
46.7	0	
44.8	0.038	0.012
43	0.052	0.01
41	0.062	0.01
39	0.076	0.01
37	0.083	0.01
34.6	0.1	0.1
28.2	0.148	0.012
10.1	0.526	0.046
5.9	1	

System: butan-2-ol + 2-furaldehyde; phases: Liquid, Gas
Property: Vapor or sublimation pressure, kPa (Liquid); method: Closed cell (Static) method
Mole fraction of 2-furaldehyde	Temperature, K	Vapor or sublimation pressure, kPa	uncertainty
1	345.69	4.2	0.1
0.9572	345.7	7.7	0.1
0.9101	345.68	11.1	0.1
0.8074	345.68	16.6	0.1
0.7077	345.69	20.4	0.1
0.6124	345.69	23	0.1
0.5119	345.69	25.4	0.2
0.4064	345.7	27.5	0.2
0.3057	345.69	28.9	0.2
0.2036	345.7	30.3	0.2
0.1147	345.7	31.7	0.2
0.1058	345.7	31.7	0.2
0.0546	345.7	32.7	0.2
0	345.72	33.6	0.2

System: butan-2-ol + 2-furaldehyde; phases: Gas, Liquid
Property: Mole fraction of 2-furaldehyde (Gas); method: Chromatography
Mole fraction of 2-furaldehyde	Temperature, K	Mole fraction of 2-furaldehyde	uncertainty
1	345.69	1	
0.9572	345.7	0.516	0.018
0.9101	345.68	0.346	0.012
0.8074	345.68	0.211	0.008
0.7077	345.69	0.158	0.006
0.6124	345.69	0.129	0.006
0.5119	345.69	0.107	0.004
0.4064	345.7	0.089	0.004
0.3057	345.69	0.074	0.004
0.2036	345.7	0.058	0.004
0.1147	345.7	0.039	0.002
0.1058	345.7	0.0372	0.0018
0.0546	345.7	0.0222	0.0015
0	345.72	0	

System: 2-methylbutan-2-ol + 2-furaldehyde; phases: Liquid
Fixed: Temperature, K = 298.15
Fixed: Pressure, kPa = 101
Property: Excess molar enthalpy (molar enthalpy of mixing), kJ/mol (Liquid); method: isobaric mixing calorimetry
Mole fraction of 2-furaldehyde	Excess molar enthalpy (molar enthalpy of mixing), kJ/mol	uncertainty
0.9504	0.476	0.014
0.8993	0.902	0.027
0.8497	1.228	0.035
0.799	1.547	0.043
0.749	1.696	0.047
0.698	1.969	0.052
0.598	2.201	0.058
0.499	2.238	0.06
0.399	2.075	0.056
0.348	1.926	0.052
0.3	1.803	0.048
0.2487	1.596	0.044
0.1999	1.404	0.038
0.15	1.146	0.032
0.0999	0.798	0.022
0.0501	0.415	0.011

System: 2-methylbutan-2-ol + 2-furaldehyde; phases: Gas, Liquid
Fixed: Temperature, K = 333.3
Property: Mole fraction of 2-furaldehyde (Gas); method: headspace gas chromatography
Mole fraction of 2-furaldehyde	Mole fraction of 2-furaldehyde	uncertainty
0.9494	0.48	0.08
0.8996	0.344	0.018
0.8016	0.224	0.008
0.6938	0.16	0.008
0.594	0.132	0.008
0.4988	0.114	0.008
0.4024	0.101	0.008
0.2962	0.079	0.008
0.1972	0.062	0.008
0.1046	0.036	0.008
0.0434	0.023	0.008

System: 2-methylbutan-2-ol + 2-furaldehyde; phases: Liquid, Gas
Fixed: Temperature, K = 353.2
Property: Mole fraction of 2-furaldehyde (Liquid); method: Chromatography
Pressure, kPa	Mole fraction of 2-furaldehyde	uncertainty
43.2	0	
40.7	0.111	0.02
36.4	0.316	0.019
33.8	0.41	0.02
31.1	0.527	0.018
31.1	0.538	0.018
29	0.598	0.017
28.9	0.61	0.02
26.9	0.676	0.012
22.2	0.768	0.011
21.8	0.781	0.011
13.6	0.915	0.01
7.9	0.977	0.009
5.9	1	

System: 2-methylbutan-2-ol + 2-furaldehyde; phases: Gas, Liquid
Fixed: Temperature, K = 353.2
Property: Mole fraction of 2-furaldehyde (Gas); method: Chromatography
Pressure, kPa	Mole fraction of 2-furaldehyde	uncertainty
43.2	0	
40.7	0.032	0.009
36.4	0.079	0.009
33.8	0.099	0.009
31.1	0.12	0.01
31.1	0.124	0.009
29	0.135	0.009
28.9	0.149	0.009
26.9	0.161	0.009
22.2	0.218	0.011
21.8	0.222	0.011
13.6	0.41	0.02
7.9	0.715	0.03
5.9	1	

System: 2-methylbutan-2-ol + 2-furaldehyde; phases: Liquid, Gas
Property: Vapor or sublimation pressure, kPa (Liquid); method: Closed cell (Static) method
Mole fraction of 2-furaldehyde	Temperature, K	Vapor or sublimation pressure, kPa	uncertainty
1	345.64	4.2	0.1
0.9494	345.64	8.1	0.1
0.8879	345.64	11.6	0.1
0.7894	345.64	15.9	0.1
0.6942	345.63	19	0.1
0.5882	345.63	21.7	0.1
0.4876	345.64	23.9	0.2
0.5913	345.59	21.8	0.1
0.498	345.6	23.6	0.1
0.397	345.6	25.2	0.2
0.297	345.61	26.8	0.2
0.198	345.61	28.3	0.2
0.107	345.6	29.5	0.2
0.049	345.58	30.4	0.2
0	345.55	31.2	0.2

System: 2-methylbutan-2-ol + 2-furaldehyde; phases: Gas, Liquid
Property: Mole fraction of 2-furaldehyde (Gas); method: Chromatography
Mole fraction of 2-furaldehyde	Temperature, K	Mole fraction of 2-furaldehyde	uncertainty
1	345.64	1	
0.9494	345.64	0.495	0.015
0.8879	345.64	0.324	0.011
0.7894	345.64	0.219	0.008
0.6942	345.63	0.169	0.008
0.5882	345.63	0.135	0.006
0.4876	345.64	0.112	0.006
0.5913	345.59	0.136	0.006
0.498	345.6	0.114	0.006
0.397	345.6	0.095	0.004
0.297	345.61	0.078	0.004
0.198	345.61	0.06	0.01
0.107	345.6	0.039	0.002
0.049	345.58	0.0203	0.0016
0	345.55	0	
