Measured thermophysical data. Activity coefficients at infinite dilution for different alcohols and ketones in [EMpy][ESO4]: Experimental data and modeling with PC-SAFT
Source: Fluid Phase Equilib., 2016, 10.1016/j.fluid.2015.09.003
Compound 1: methanol, CH4O, InChI=1S/CH4O/c1-2/h2H,1H3, purity 99.8%
Compound 2: ethanol, C2H6O, InChI=1S/C2H6O/c1-2-3/h3H,2H2,1H3, purity 99.9%
Compound 3: propan-1-ol, C3H8O, InChI=1S/C3H8O/c1-2-3-4/h4H,2-3H2,1H3, purity 99.8%
Compound 4: butan-1-ol, C4H10O, InChI=1S/C4H10O/c1-2-3-4-5/h5H,2-4H2,1H3, purity 99.8%
Compound 5: pentan-1-ol, C5H12O, InChI=1S/C5H12O/c1-2-3-4-5-6/h6H,2-5H2,1H3, purity 98.5%
Compound 6: propan-2-ol, C3H8O, InChI=1S/C3H8O/c1-3(2)4/h3-4H,1-2H3, purity 99.8%
Compound 7: butan-2-ol, C4H10O, InChI=1S/C4H10O/c1-3-4(2)5/h4-5H,3H2,1-2H3, purity 99.5%
Compound 8: acetone, C3H6O, InChI=1S/C3H6O/c1-3(2)4/h1-2H3, purity 99.8%
Compound 9: butanone, C4H8O, InChI=1S/C4H8O/c1-3-4(2)5/h3H2,1-2H3, purity 99.5%
Compound 10: pentan-2-one, C5H10O, InChI=1S/C5H10O/c1-3-4-5(2)6/h3-4H2,1-2H3, purity 99.5%
Compound 11: 3-methyl-2-butanone, C5H10O, InChI=1S/C5H10O/c1-4(2)5(3)6/h4H,1-3H3, purity 99%
Compound 12: 4-methylpentan-2-one, C6H12O, InChI=1S/C6H12O/c1-5(2)4-6(3)7/h5H,4H2,1-3H3, purity 99.5%
Compound 13: 1-ethyl-3-methylpyridinium ethylsulfate, C10H17NO4S, InChI=1S/C8H12N.C2H6O4S/c1-3-9-6-4-5-8(2)7-9;1-2-6-7(3,4)5/h4-7H,3H2,1-2H3;2H2,1H3,(H,3,4,5)/q+1;/p-1, purity 99%

System: methanol + 1-ethyl-3-methylpyridinium ethylsulfate; phases: Liquid
Fixed: Pressure, kPa = 101
Fixed: Mole fraction of methanol = 0
Property: Activity coefficient of methanol (Liquid); method: Chromatography
Temperature, K	Activity coefficient of methanol	uncertainty
323.26	0.32	0.04
333.2	0.33	0.04
343.15	0.33	0.04
353.11	0.33	0.04
363.07	0.33	0.04
373	0.33	0.04

System: ethanol + 1-ethyl-3-methylpyridinium ethylsulfate; phases: Liquid
Fixed: Pressure, kPa = 101
Fixed: Mole fraction of ethanol = 0
Property: Activity coefficient of ethanol (Liquid); method: Chromatography
Temperature, K	Activity coefficient of ethanol	uncertainty
333.18	0.6	0.03
343.13	0.59	0.03
353.1	0.58	0.03
363.09	0.58	0.03
373.01	0.57	0.03

System: propan-1-ol + 1-ethyl-3-methylpyridinium ethylsulfate; phases: Liquid
Fixed: Pressure, kPa = 101
Fixed: Mole fraction of propan-1-ol = 0
Property: Activity coefficient of propan-1-ol (Liquid); method: Chromatography
Temperature, K	Activity coefficient of propan-1-ol	uncertainty
333.18	0.81	0.03
343.13	0.8	0.03
353.1	0.8	0.03
363.06	0.79	0.03
373	0.78	0.03

System: butan-1-ol + 1-ethyl-3-methylpyridinium ethylsulfate; phases: Liquid
Fixed: Pressure, kPa = 101
Fixed: Mole fraction of butan-1-ol = 0
Property: Activity coefficient of butan-1-ol (Liquid); method: Chromatography
Temperature, K	Activity coefficient of butan-1-ol	uncertainty
353.1	1.13	0.03
363.06	1.1	0.03
373	1.08	0.03

System: pentan-1-ol + 1-ethyl-3-methylpyridinium ethylsulfate; phases: Liquid
Fixed: Pressure, kPa = 101
Fixed: Mole fraction of pentan-1-ol = 0
Property: Activity coefficient of pentan-1-ol (Liquid); method: Chromatography
Temperature, K	Activity coefficient of pentan-1-ol	uncertainty
353.09	1.66	0.07
363.05	1.59	0.06
373.01	1.52	0.06

System: propan-2-ol + 1-ethyl-3-methylpyridinium ethylsulfate; phases: Liquid
Fixed: Pressure, kPa = 101
Fixed: Mole fraction of propan-2-ol = 0
Property: Activity coefficient of propan-2-ol (Liquid); method: Chromatography
Temperature, K	Activity coefficient of propan-2-ol	uncertainty
323.24	1	0.03
333.19	0.97	0.03
343.14	0.96	0.03
353.09	0.94	0.03
363.06	0.93	0.03
373	0.92	0.03

System: butan-2-ol + 1-ethyl-3-methylpyridinium ethylsulfate; phases: Liquid
Fixed: Pressure, kPa = 101
Fixed: Mole fraction of butan-2-ol = 0
Property: Activity coefficient of butan-2-ol (Liquid); method: Chromatography
Temperature, K	Activity coefficient of butan-2-ol	uncertainty
333.19	1.27	0.04
343.14	1.25	0.04
353.1	1.24	0.04
363.05	1.23	0.04
373	1.23	0.04

System: acetone + 1-ethyl-3-methylpyridinium ethylsulfate; phases: Liquid
Fixed: Pressure, kPa = 101
Fixed: Mole fraction of acetone = 0
Property: Activity coefficient of acetone (Liquid); method: Chromatography
Temperature, K	Activity coefficient of acetone	uncertainty
323.24	1.78	0.08
333.19	1.8	0.08
343.16	1.84	0.08
353.11	1.88	0.08
363.08	1.92	0.08
372.99	1.98	0.09

System: butanone + 1-ethyl-3-methylpyridinium ethylsulfate; phases: Liquid
Fixed: Pressure, kPa = 101
Fixed: Mole fraction of butanone = 0
Property: Activity coefficient of butanone (Liquid); method: Chromatography
Temperature, K	Activity coefficient of butanone	uncertainty
323.25	2.7	0.12
333.2	2.74	0.12
343.16	2.78	0.13
353.1	2.84	0.13
363.07	2.88	0.13
372.99	2.95	0.13

System: pentan-2-one + 1-ethyl-3-methylpyridinium ethylsulfate; phases: Liquid
Fixed: Pressure, kPa = 101
Fixed: Mole fraction of pentan-2-one = 0
Property: Activity coefficient of pentan-2-one (Liquid); method: Chromatography
Temperature, K	Activity coefficient of pentan-2-one	uncertainty
333.2	4.35	0.2
343.15	4.38	0.2
353.12	4.44	0.2
363.05	4.46	0.2
372.99	4.52	0.21

System: 3-methyl-2-butanone + 1-ethyl-3-methylpyridinium ethylsulfate; phases: Liquid
Fixed: Pressure, kPa = 101
Fixed: Mole fraction of 3-methyl-2-butanone = 0
Property: Activity coefficient of 3-methyl-2-butanone (Liquid); method: Chromatography
Temperature, K	Activity coefficient of 3-methyl-2-butanone	uncertainty
333.2	4.51	0.21
343.15	4.62	0.21
353.09	4.73	0.22
363.06	4.79	0.22
372.99	4.95	0.23

System: 4-methylpentan-2-one + 1-ethyl-3-methylpyridinium ethylsulfate; phases: Liquid
Fixed: Pressure, kPa = 101
Fixed: Mole fraction of 4-methylpentan-2-one = 0
Property: Activity coefficient of 4-methylpentan-2-one (Liquid); method: Chromatography
Temperature, K	Activity coefficient of 4-methylpentan-2-one	uncertainty
333.2	6.97	0.32
343.15	6.99	0.32
353.08	7.03	0.32
363.06	7.05	0.32
372.99	7.12	0.33
