Measured thermophysical data. Study of [EMim][ESO4] ionic liquid as solvent in the liquid-liquid extraction of xylenes from their mixtures with hexane
Source: Fluid Phase Equilib., 2011, 10.1016/j.fluid.2011.04.001
Compound 1: hexane, C6H14, InChI=1S/C6H14/c1-3-5-6-4-2/h3-6H2,1-2H3, purity 99%
Compound 2: 1,2-dimethylbenzene, C8H10, InChI=1S/C8H10/c1-7-5-3-4-6-8(7)2/h3-6H,1-2H3, purity 99%
Compound 3: 1,3-dimethylbenzene, C8H10, InChI=1S/C8H10/c1-7-4-3-5-8(2)6-7/h3-6H,1-2H3, purity 99%
Compound 4: 1,4-dimethylbenzene, C8H10, InChI=1S/C8H10/c1-7-3-5-8(2)6-4-7/h3-6H,1-2H3, purity 99%
Compound 5: 1-ethyl-3-methylimidazolium ethyl sulfate, C8H16N2O4S, InChI=1S/C6H11N2.C2H6O4S/c1-3-8-5-4-7(2)6-8;1-2-6-7(3,4)5/h4-6H,3H2,1-2H3;2H2,1H3,(H,3,4,5)/q+1;/p-1, purity 99%

System: 1-ethyl-3-methylimidazolium ethyl sulfate; phases: Liquid
Property: Refractive index (Na D-line) (Liquid); method: Standard Abbe refractometry
Temperature, K	Pressure, kPa	Refractive index (Na D-line)	uncertainty
298.15	101.325	1.50591	0.0004

System: 1-ethyl-3-methylimidazolium ethyl sulfate; phases: Liquid
Property: Mass density, kg/m3 (Liquid); method: Vibrating tube method
Temperature, K	Pressure, kPa	Mass density, kg/m3	uncertainty
298.15	101.325	1237.23	0.43

System: hexane + 1-ethyl-3-methylimidazolium ethyl sulfate; phases: Liquid mixture 1, Liquid mixture 2
Property: Mole fraction of hexane (Liquid mixture 1); method: Titration method
Temperature, K	Pressure, kPa	Mole fraction of hexane	uncertainty
298.15	101	0.015	

System: hexane + 1-ethyl-3-methylimidazolium ethyl sulfate; phases: Liquid
Property: Mass density, kg/m3 (Liquid); method: Vibrating tube method
Mole fraction of hexane	Temperature, K	Pressure, kPa	Mass density, kg/m3	uncertainty
0.015	298.15	101	1234.45	1.54

System: 1,2-dimethylbenzene + 1-ethyl-3-methylimidazolium ethyl sulfate; phases: Liquid mixture 1, Liquid mixture 2
Property: Mole fraction of 1,2-dimethylbenzene (Liquid mixture 1); method: Titration method
Temperature, K	Pressure, kPa	Mole fraction of 1,2-dimethylbenzene	uncertainty
298.15	101	0.142	0.013

System: 1,2-dimethylbenzene + 1-ethyl-3-methylimidazolium ethyl sulfate; phases: Liquid
Property: Mass density, kg/m3 (Liquid); method: Vibrating tube method
Mole fraction of 1,2-dimethylbenzene	Temperature, K	Pressure, kPa	Mass density, kg/m3	uncertainty
0.142	298.15	101	1207.74	1.5

System: 1,2-dimethylbenzene + hexane; phases: Liquid mixture 1, Liquid mixture 2
Fixed: Temperature, K = 298.15
Fixed: Pressure, kPa = 101.3
Property: Mole fraction of 1,2-dimethylbenzene (Liquid mixture 1); method: Density calibration data
Mole fraction of 1,2-dimethylbenzene	uncertainty
0.07	0.017
0.137	0.017
0.201	0.017
0.26	0.017
0.261	0.017
0.395	0.017
0.532	0.017
0.666	0.017
0.801	0.017
0.922	0.017

System: 1,3-dimethylbenzene + 1-ethyl-3-methylimidazolium ethyl sulfate; phases: Liquid mixture 1, Liquid mixture 2
Property: Mole fraction of 1,3-dimethylbenzene (Liquid mixture 1); method: Titration method
Temperature, K	Pressure, kPa	Mole fraction of 1,3-dimethylbenzene	uncertainty
298.15	101	0.119	0.012

System: 1,3-dimethylbenzene + 1-ethyl-3-methylimidazolium ethyl sulfate; phases: Liquid
Property: Mass density, kg/m3 (Liquid); method: Vibrating tube method
Mole fraction of 1,3-dimethylbenzene	Temperature, K	Pressure, kPa	Mass density, kg/m3	uncertainty
0.119	298.15	101	1212.69	1.51

System: 1,3-dimethylbenzene + hexane; phases: Liquid mixture 1, Liquid mixture 2
Fixed: Temperature, K = 298.15
Fixed: Pressure, kPa = 101.3
Property: Mole fraction of 1,3-dimethylbenzene (Liquid mixture 1); method: Density calibration data
Mole fraction of 1,3-dimethylbenzene	uncertainty
0.071	0.017
0.141	0.017
0.207	0.017
0.271	0.017
0.27	0.017
0.399	0.017
0.538	0.017
0.665	0.017
0.799	0.017
0.933	0.017

System: 1,4-dimethylbenzene + 1-ethyl-3-methylimidazolium ethyl sulfate; phases: Liquid mixture 1, Liquid mixture 2
Property: Mole fraction of 1,4-dimethylbenzene (Liquid mixture 1); method: Titration method
Temperature, K	Pressure, kPa	Mole fraction of 1,4-dimethylbenzene	uncertainty
298.15	101	0.123	0.013

System: 1,4-dimethylbenzene + 1-ethyl-3-methylimidazolium ethyl sulfate; phases: Liquid
Property: Mass density, kg/m3 (Liquid); method: Vibrating tube method
Mole fraction of 1,4-dimethylbenzene	Temperature, K	Pressure, kPa	Mass density, kg/m3	uncertainty
0.123	298.15	101	1210.97	1.51

System: 1,4-dimethylbenzene + hexane; phases: Liquid mixture 1, Liquid mixture 2
Fixed: Temperature, K = 298.15
Fixed: Pressure, kPa = 101.3
Property: Mole fraction of hexane (Liquid mixture 1); method: Density calibration data
Mole fraction of hexane	uncertainty
0.929	0.017
0.859	0.017
0.79	0.017
0.734	0.017
0.601	0.017
0.47	0.017
0.347	0.017
0.216	0.017

System: 1,2-dimethylbenzene + hexane + 1-ethyl-3-methylimidazolium ethyl sulfate; phases: Liquid mixture 1, Liquid mixture 2
Fixed: Temperature, K = 298.15
Fixed: Pressure, kPa = 101.3
Property: Mole fraction of 1,2-dimethylbenzene (Liquid mixture 1); method: Density calibration data
Property: Mole fraction of hexane (Liquid mixture 2); method: Density calibration data
Property: Mole fraction of 1,2-dimethylbenzene (Liquid mixture 2); method: Density calibration data
Mole fraction of hexane	Mole fraction of 1,2-dimethylbenzene	uncertainty	Mole fraction of hexane	uncertainty	Mole fraction of 1,2-dimethylbenzene	uncertainty
0.93	0.07	0.017	0.01	0.01	0.016	
0.863	0.137	0.017	0.009	0.009	0.028	
0.799	0.201	0.017	0.008	0.008	0.038	
0.74	0.26	0.017	0.008	0.008	0.046	
0.739	0.261	0.017	0.008	0.008	0.047	
0.605	0.395	0.017	0.007	0.007	0.067	
0.468	0.532	0.017	0.006	0.006	0.083	
0.334	0.666	0.017	0.005	0.005	0.1	
0.199	0.801	0.017	0.004	0.004	0.118	
0.078	0.922	0.017	0.002	0.002	0.137	

System: 1,2-dimethylbenzene + hexane + 1-ethyl-3-methylimidazolium ethyl sulfate; phases: Liquid mixture 1, Liquid mixture 2
Fixed: Temperature, K = 298.15
Fixed: Pressure, kPa = 101
Property: Mole fraction of 1,2-dimethylbenzene (Liquid mixture 1); method: Titration method
Mole fraction of hexane	Mole fraction of 1,2-dimethylbenzene	uncertainty
0	0.142	0.013
0.002	0.045	0.012
0.002	0.082	0.012
0.002	0.1	0.012
0.003	0.118	0.012
0.006	0.062	0.012
0.01	0.023	0.012
0.015	0	

System: 1,2-dimethylbenzene + hexane + 1-ethyl-3-methylimidazolium ethyl sulfate; phases: Liquid
Fixed: Temperature, K = 298.15
Fixed: Pressure, kPa = 101
Property: Mass density, kg/m3 (Liquid); method: Vibrating tube method
Mole fraction of hexane	Mole fraction of 1,2-dimethylbenzene	Mass density, kg/m3	uncertainty
0	0.142	1207.74	1.5
0.002	0.045	1226.83	1.55
0.002	0.082	1219.87	1.99
0.002	0.1	1216.98	1.99
0.003	0.118	1213.32	2.61
0.006	0.062	1223.19	2.41
0.01	0.023	1231	3.22
0.015	0	1234.45	1.54

System: 1,3-dimethylbenzene + hexane + 1-ethyl-3-methylimidazolium ethyl sulfate; phases: Liquid mixture 1, Liquid mixture 2
Fixed: Temperature, K = 298.15
Fixed: Pressure, kPa = 101.3
Property: Mole fraction of 1,3-dimethylbenzene (Liquid mixture 1); method: Density calibration data
Property: Mole fraction of hexane (Liquid mixture 2); method: Density calibration data
Property: Mole fraction of 1,3-dimethylbenzene (Liquid mixture 2); method: Density calibration data
Mole fraction of hexane	Mole fraction of 1,3-dimethylbenzene	uncertainty	Mole fraction of hexane	uncertainty	Mole fraction of 1,3-dimethylbenzene	uncertainty
0.929	0.071	0.017	0.011	0.011	0.013	
0.859	0.141	0.017	0.01	0.01	0.022	
0.793	0.207	0.017	0.009	0.009	0.03	
0.729	0.271	0.017	0.008	0.008	0.038	
0.73	0.27	0.017	0.008	0.008	0.038	
0.601	0.399	0.017	0.007	0.007	0.052	
0.462	0.538	0.017	0.006	0.006	0.066	
0.335	0.665	0.017	0.005	0.005	0.079	
0.201	0.799	0.017	0.003	0.003	0.095	
0.067	0.933	0.017	0.001	0.001	0.112	

System: 1,3-dimethylbenzene + hexane + 1-ethyl-3-methylimidazolium ethyl sulfate; phases: Liquid mixture 1, Liquid mixture 2
Fixed: Temperature, K = 298.15
Fixed: Pressure, kPa = 101
Property: Mole fraction of 1,3-dimethylbenzene (Liquid mixture 1); method: Titration method
Mole fraction of hexane	Mole fraction of 1,3-dimethylbenzene	uncertainty
0	0.119	0.012
0.004	0.065	0.012
0.004	0.083	0.012
0.004	0.107	0.012
0.005	0.046	0.012
0.009	0.024	0.012
0.015	0	

System: 1,3-dimethylbenzene + hexane + 1-ethyl-3-methylimidazolium ethyl sulfate; phases: Liquid
Fixed: Temperature, K = 298.15
Fixed: Pressure, kPa = 101
Property: Mass density, kg/m3 (Liquid); method: Vibrating tube method
Mole fraction of hexane	Mole fraction of 1,3-dimethylbenzene	Mass density, kg/m3	uncertainty
0	0.119	1212.69	1.51
0.004	0.065	1222.9	2.57
0.004	0.083	1219.16	2.39
0.004	0.107	1214.81	2.27
0.005	0.046	1226.51	2.37
0.009	0.024	1230.81	3.93
0.015	0	1234.45	1.54

System: 1,4-dimethylbenzene + hexane + 1-ethyl-3-methylimidazolium ethyl sulfate; phases: Liquid mixture 1, Liquid mixture 2
Fixed: Temperature, K = 298.15
Fixed: Pressure, kPa = 101
Property: Mole fraction of 1,4-dimethylbenzene (Liquid mixture 1); method: Titration method
Mole fraction of hexane	Mole fraction of 1,4-dimethylbenzene	uncertainty
0	0.123	0.013
0.004	0.06	0.012
0.004	0.079	0.012
0.006	0.041	0.012
0.012	0.023	0.012
0.015	0	

System: 1,4-dimethylbenzene + hexane + 1-ethyl-3-methylimidazolium ethyl sulfate; phases: Liquid mixture 1, Liquid mixture 2
Fixed: Temperature, K = 298.15
Fixed: Pressure, kPa = 101.3
Property: Mole fraction of hexane (Liquid mixture 1); method: Density calibration data
Property: Mole fraction of hexane (Liquid mixture 2); method: Density calibration data
Property: Mole fraction of 1,4-dimethylbenzene (Liquid mixture 2); method: Density calibration data
Mole fraction of 1,4-dimethylbenzene	Mole fraction of hexane	uncertainty	Mole fraction of hexane	uncertainty	Mole fraction of 1,4-dimethylbenzene	uncertainty
0.071	0.929	0.017	0.011	0.011	0.014	
0.141	0.859	0.017	0.01	0.01	0.025	
0.21	0.79	0.017	0.009	0.009	0.032	
0.266	0.734	0.017	0.008	0.008	0.039	
0.399	0.601	0.017	0.007	0.007	0.053	
0.53	0.47	0.017	0.006	0.006	0.067	
0.653	0.347	0.017	0.005	0.005	0.08	
0.784	0.216	0.017	0.003	0.003	0.097	

System: 1,4-dimethylbenzene + hexane + 1-ethyl-3-methylimidazolium ethyl sulfate; phases: Liquid
Fixed: Temperature, K = 298.15
Fixed: Pressure, kPa = 101
Property: Mass density, kg/m3 (Liquid); method: Vibrating tube method
Mole fraction of hexane	Mole fraction of 1,4-dimethylbenzene	Mass density, kg/m3	uncertainty
0	0.123	1210.97	1.51
0.004	0.06	1223.89	2.67
0.004	0.079	1219.79	2.67
0.006	0.041	1227.46	2.54
0.012	0.023	1230.38	2.71
0.015	0	1234.45	1.54
