Measured thermophysical data. (Vapor + liquid) phase equilibria of an aqueous solution of bromide-based ionic liquids - measurements, correlations and application to absorption cycles
Source: Fluid Phase Equilib., 2019, 10.1016/j.fluid.2019.05.003
Compound 1: N-ethyl-N-methylpiperidinium bromide, C8H18BrN, InChI=1S/C8H18N.BrH/c1-3-9(2)7-5-4-6-8-9;/h3-8H2,1-2H3;1H/q+1;/p-1
Compound 2: 1-ethylpyridinium bromide, C7H10BrN, InChI=1S/C7H10N.BrH/c1-2-8-6-4-3-5-7-8;/h3-7H,2H2,1H3;1H/q+1;/p-1
Compound 3: 1-(2-hydroxyethyl)pyridinium bromide, C7H10BrNO, InChI=1S/C7H10NO.BrH/c9-7-6-8-4-2-1-3-5-8;/h1-5,9H,6-7H2;1H/q+1;/p-1
Compound 4: N-ethyl-N-methylmorpholinium bromide, C7H16BrNO, InChI=1S/C7H16NO.BrH/c1-3-8(2)4-6-9-7-5-8;/h3-7H2,1-2H3;1H/q+1;/p-1
Compound 5: N-methyl-N-(2-hydroxyethyl)morpholinium bromide, C7H16BrNO2, InChI=1S/C7H16NO2.BrH/c1-8(2-5-9)3-6-10-7-4-8;/h9H,2-7H2,1H3;1H/q+1;/p-1
Compound 6: ethyl(2-hydroxyethyl)dimethylammonium bromide, C6H16BrNO, InChI=1S/C6H16NO.BrH/c1-4-7(2,3)5-6-8;/h8H,4-6H2,1-3H3;1H/q+1;/p-1
Compound 7: water, H2O, InChI=1S/H2O/h1H2, purity 99.8%

System: N-ethyl-N-methylpiperidinium bromide + water; phases: Liquid, Gas
Property: Vapor or sublimation pressure, kPa (Liquid); method: Ebulliometric method (Recirculating still)
Temperature, K	Mole fraction of N-ethyl-N-methylpiperidinium bromide	Vapor or sublimation pressure, kPa	uncertainty
338.15	0	25	1
338.15	0.004	24.8	1.1
338.15	0.01	24.6	1.1
338.15	0.015	24.4	1.1
338.15	0.023	24.1	1.1
338.15	0.028	23.9	1.1
338.15	0.034	23.7	1.1
338.15	0.042	23.4	1.1
338.15	0.046	23.2	1.1
338.15	0.053	22.9	1.1
338.15	0.061	22.5	1.1
338.15	0.067	22.2	1.1
338.15	0.072	22	1.1
338.15	0.077	21.7	1.1
338.15	0.081	21.5	1.1
338.15	0.09	21.1	1.1
338.15	0.1	20.5	1.1
338.15	0.103	20.4	1.1
338.15	0.113	19.9	1.1
338.15	0.12	19.4	1.1
338.15	0.126	19.1	1.1
338.15	0.137	18.4	1.1
338.15	0.144	18.1	1
348.15	0	38.6	1.1
348.15	0.004	38.3	1.8
348.15	0.01	38	1.1
348.15	0.015	37.7	1.1
348.15	0.022	37.2	1.1
348.15	0.027	36.9	1.1
348.15	0.033	36.5	1.1
348.15	0.039	36.2	1.1
348.15	0.046	35.7	1.1
348.15	0.051	35.4	1.1
348.15	0.058	34.9	1.1
348.15	0.063	34.6	1.2
348.15	0.069	34.2	1.2
348.15	0.074	33.8	1.2
348.15	0.083	33.1	1.1
348.15	0.091	32.5	1.2
348.15	0.1	31.8	1.1
348.15	0.104	31.5	1.1
348.15	0.111	30.8	1.1
348.15	0.119	30.1	1.1
348.15	0.124	29.6	1.2
348.15	0.134	28.6	1.1
348.15	0.143	27.7	1.1
358.15	0	57.8	1.1
358.15	0.004	57.4	2.2
358.15	0.01	56.9	1.2
358.15	0.015	56.4	1.2
358.15	0.022	55.8	1.1
358.15	0.027	55.3	1.2
358.15	0.034	54.6	1.1
358.15	0.039	54.2	1.1
358.15	0.045	53.6	1.1
358.15	0.051	53.1	1.2
358.15	0.06	52.1	1.2
358.15	0.062	51.8	1.1
358.15	0.067	51.3	1.4
358.15	0.073	50.5	1.2
358.15	0.081	49.7	1.1
358.15	0.086	49.1	1.3
358.15	0.1	47.6	1.2
358.15	0.103	47.2	1.1
358.15	0.108	46.4	1.1
358.15	0.117	45.2	1.1
358.15	0.122	44.4	1.2
358.15	0.134	43	1.1
368.15	0	84.4	1.2
368.15	0.004	83.7	1.3
368.15	0.01	82.9	1.3
368.15	0.015	82.2	1.3
368.15	0.022	81.4	1.3
368.15	0.028	80.7	1.3
368.15	0.035	79.7	1.3
368.15	0.041	78.9	1.3
368.15	0.047	78.1	1.3
368.15	0.053	77.3	1.3
368.15	0.06	76.2	1.3
368.15	0.063	75.4	1.3
368.15	0.072	74.2	1.3
368.15	0.076	73.3	1.3
368.15	0.082	72.3	1.4
368.15	0.087	71.2	1.4
368.15	0.1	68.9	1.3
368.15	0.115	66	1.4
368.15	0.122	64.6	1.5
368.15	0.127	63	1.7
368.15	0.132	61.5	1.6

System: 1-ethylpyridinium bromide + water; phases: Liquid, Gas
Property: Vapor or sublimation pressure, kPa (Liquid); method: Ebulliometric method (Recirculating still)
Temperature, K	Mole fraction of 1-ethylpyridinium bromide	Vapor or sublimation pressure, kPa	uncertainty
338.15	0	25	1
338.15	0.013	24.5	1.1
338.15	0.025	24.2	1.1
338.15	0.039	23.6	1.1
338.15	0.051	23	1.1
338.15	0.065	22.4	1.1
338.15	0.076	21.9	1
338.15	0.088	21.5	1.1
338.15	0.098	20.8	1.1
338.15	0.111	20.2	1
338.15	0.119	19.8	1.1
338.15	0.129	19.1	1.1
338.15	0.139	18.4	1.1
338.15	0.153	17.6	1
338.15	0.174	16.6	1
348.15	0	38.6	1.1
348.15	0.013	37.9	1.1
348.15	0.025	37.1	1.1
348.15	0.04	36.3	1.1
348.15	0.054	35.2	1.1
348.15	0.065	34.6	1.1
348.15	0.076	33.7	1.1
348.15	0.088	32.8	1.1
348.15	0.1	31.9	1.1
348.15	0.11	31.1	1.1
348.15	0.118	30.5	1.1
348.15	0.128	29.2	1.1
348.15	0.142	28.2	1.1
348.15	0.154	27	1.1
348.15	0.175	25.7	1.1
348.15	0.191	24.3	1.1
348.15	0.215	22.2	1.1
348.15	0.238	20	1.1
348.15	0.274	17.2	1.1
358.15	0	57.8	1.1
358.15	0.013	56.7	1.2
358.15	0.025	55.6	1.2
358.15	0.04	54.2	1.2
358.15	0.054	52.8	1.2
358.15	0.067	51.4	1.2
358.15	0.078	50.2	1.2
358.15	0.088	49	1.2
358.15	0.1	47.6	1.2
358.15	0.112	46.3	1.2
358.15	0.118	45.5	1.3
358.15	0.131	43.5	1.2
358.15	0.14	42.6	1.2
358.15	0.157	40.2	1.2
358.15	0.168	38.5	1.1
358.15	0.19	36.1	1.2
358.15	0.217	31.7	1.1
358.15	0.239	30.2	1.1
358.15	0.27	26.3	1.1
358.15	0.294	23.9	1.1
358.15	0.327	20.3	1.1
368.15	0	84.4	1.2
368.15	0.013	82.5	1.3
368.15	0.025	81	1.3
368.15	0.039	79	1.3
368.15	0.053	77	1.3
368.15	0.062	74.9	1.3
368.15	0.077	73.2	1.3
368.15	0.089	71.2	1.3
368.15	0.1	69.3	1.3
368.15	0.111	67.3	1.3
368.15	0.12	65.6	1.4
368.15	0.13	63.6	1.3
368.15	0.142	61.5	1.3
368.15	0.157	58.5	1.3
368.15	0.176	54.9	1.3
368.15	0.2	50.6	1.3
368.15	0.224	46.3	1.3
368.15	0.246	42.4	1.3
368.15	0.274	37.9	1.2
368.15	0.303	33.6	1.2
368.15	0.328	29.4	1.2

System: 1-ethylpyridinium bromide + water; phases: Liquid
Fixed: Pressure, kPa = 101
Property: Mass density, kg/m3 (Liquid); method: Vibrating tube method
Temperature, K	Mole fraction of 1-ethylpyridinium bromide	Mass density, kg/m3	uncertainty
298.15	0	997.1	0.2
298.15	0.027	1069.4	0.5
298.15	0.049	1113.8	0.5
298.15	0.063	1139.5	0.4
298.15	0.086	1174.3	0.4
298.15	0.101	1194.1	0.3
298.15	0.147	1243.9	0.4
298.15	0.184	1274.6	0.4
298.15	0.213	1294.5	0.4
298.15	0.25	1315.3	0.5
298.15	0.299	1337	0.6
298.15	0.341	1352.3	0.7
298.15	0.401	1370.9	0.8
298.15	0.451	1381.1	1
303.15	0	995.7	0.2
303.15	0.027	1067.4	0.5
303.15	0.049	1111.4	0.5
303.15	0.063	1137	0.4
303.15	0.086	1171.6	0.4
303.15	0.101	1191.2	0.3
303.15	0.147	1240.8	0.4
303.15	0.184	1271.3	0.4
303.15	0.213	1291.1	0.4
303.15	0.25	1311.9	0.5
303.15	0.299	1333.6	0.5
303.15	0.341	1348.8	0.7
303.15	0.401	1367.4	0.8
303.15	0.451	1378	1
308.15	0	994	0.2
308.15	0.027	1065.2	0.5
308.15	0.049	1109	0.4
308.15	0.063	1134.3	0.4
308.15	0.086	1168.7	0.4
308.15	0.101	1188.2	0.3
308.15	0.147	1237.6	0.4
308.15	0.184	1268	0.4
308.15	0.213	1287.7	0.4
308.15	0.25	1308.5	0.5
308.15	0.299	1330.2	0.5
308.15	0.341	1345.4	0.7
308.15	0.401	1364	0.8
308.15	0.451	1374.6	1
313.15	0	992.2	0.2
313.15	0.027	1062.8	0.5
313.15	0.049	1106.4	0.4
313.15	0.063	1131.6	0.4
313.15	0.086	1165.8	0.4
313.15	0.101	1185.2	0.3
313.15	0.147	1234.3	0.4
313.15	0.184	1264.6	0.4
313.15	0.213	1284.3	0.4
313.15	0.25	1305	0.4
313.15	0.299	1326.7	0.5
313.15	0.341	1341.9	0.6
313.15	0.401	1360.5	0.8
313.15	0.451	1371.1	1
318.15	0	990.1	0.2
318.15	0.027	1061	0.5
318.15	0.049	1103.7	0.4
318.15	0.063	1128.8	0.4
318.15	0.086	1162.8	0.4
318.15	0.101	1182.1	0.3
318.15	0.147	1230.9	0.4
318.15	0.184	1261.3	0.4
318.15	0.213	1280.9	0.4
318.15	0.25	1301.6	0.4
318.15	0.299	1323.3	0.5
318.15	0.341	1338.5	0.6
318.15	0.401	1357.1	0.8
318.15	0.451	1367.7	1
323.15	0	987.9	0.2
323.15	0.027	1058.9	0.5
323.15	0.049	1100.6	0.4
323.15	0.063	1125.8	0.4
323.15	0.086	1159.7	0.4
323.15	0.101	1179	0.3
323.15	0.147	1227.7	0.4
323.15	0.184	1257.9	0.4
323.15	0.213	1277.5	0.4
323.15	0.25	1298.1	0.4
323.15	0.299	1319.8	0.5
323.15	0.341	1335	0.6
323.15	0.401	1353.7	0.8
323.15	0.451	1364.3	1
328.15	0	985.6	0.2
328.15	0.027	1056.7	0.5
328.15	0.049	1097.6	0.4
328.15	0.063	1122.7	0.4
328.15	0.086	1156.6	0.4
328.15	0.101	1175.8	0.3
328.15	0.147	1224.4	0.4
328.15	0.184	1254.4	0.4
328.15	0.213	1274	0.4
328.15	0.25	1294.7	0.4
328.15	0.299	1316.3	0.5
328.15	0.341	1331.6	0.6
328.15	0.401	1350.2	0.8
328.15	0.451	1360.8	1
333.15	0	983.2	0.2
333.15	0.027	1054.6	0.5
333.15	0.049	1095.3	0.4
333.15	0.063	1119.5	0.4
333.15	0.086	1153.8	0.4
333.15	0.101	1172.5	0.3
333.15	0.147	1221	0.4
333.15	0.184	1251	0.4
333.15	0.213	1270.6	0.4
333.15	0.25	1291.2	0.4
333.15	0.299	1312.9	0.5
333.15	0.341	1328.1	0.6
333.15	0.401	1346.8	0.8
333.15	0.451	1357.4	1
338.15	0	980.3	0.2
338.15	0.027	1052.4	0.5
338.15	0.049	1092.6	0.4
338.15	0.063	1116.8	0.4
338.15	0.086	1150.9	0.4
338.15	0.101	1169.1	0.3
338.15	0.147	1217.5	0.3
338.15	0.184	1247.5	0.4
338.15	0.213	1267.1	0.4
338.15	0.25	1287.7	0.4
338.15	0.299	1309.4	0.5
338.15	0.341	1324.7	0.6
338.15	0.401	1343.4	0.8
338.15	0.451	1354	1
343.15	0	978.1	0.2
343.15	0.027	1050.3	0.5
343.15	0.049	1089.9	0.4
343.15	0.063	1113.8	0.4
343.15	0.086	1147.9	0.4
343.15	0.101	1166.3	0.3
343.15	0.147	1214	0.3
343.15	0.184	1244	0.4
343.15	0.213	1263.5	0.4
343.15	0.25	1284.2	0.4
343.15	0.299	1305.9	0.5
343.15	0.341	1321.2	0.6
343.15	0.401	1339.9	0.8
343.15	0.451	1350.6	0.9
348.15	0	974.8	0.2
348.15	0.027	1048.2	0.5
348.15	0.049	1087.2	0.4
348.15	0.063	1110.9	0.4
348.15	0.086	1144.9	0.4
348.15	0.101	1163.2	0.3
348.15	0.147	1211.1	0.3
348.15	0.184	1240.4	0.4
348.15	0.213	1260	0.4
348.15	0.25	1280.6	0.4
348.15	0.299	1302.4	0.5
348.15	0.341	1317.7	0.6
348.15	0.401	1336.5	0.8
348.15	0.451	1347.1	0.9

System: 1-ethylpyridinium bromide + water; phases: Liquid
Fixed: Pressure, kPa = 101
Property: Viscosity, Pa*s (Liquid); method: Falling or rolling sphere viscometry
Temperature, K	Mole fraction of 1-ethylpyridinium bromide	Viscosity, Pa*s	uncertainty
298.15	0	0.00089	5.4e-05
298.15	0.027	0.001203	7.3e-05
298.15	0.049	0.001483	9e-05
298.15	0.063	0.00175	0.000106
298.15	0.086	0.00218	0.000132
298.15	0.101	0.002507	0.000152
298.15	0.147	0.003769	0.000228
298.15	0.184	0.005028	0.000304
298.15	0.213	0.006298	0.000382
298.15	0.25	0.008734	0.000529
298.15	0.299	0.0105	0.00064
298.15	0.341	0.01333	0.00081
298.15	0.401	0.01965	0.00119
298.15	0.451	0.02582	0.00157
303.15	0	0.000797	4.8e-05
303.15	0.027	0.001071	6.5e-05
303.15	0.049	0.001339	8.1e-05
303.15	0.063	0.001554	9.4e-05
303.15	0.086	0.001913	0.000116
303.15	0.101	0.002215	0.000134
303.15	0.147	0.003293	0.000199
303.15	0.184	0.004402	0.000267
303.15	0.213	0.005427	0.000329
303.15	0.25	0.007646	0.000463
303.15	0.299	0.008868	0.000538
303.15	0.341	0.01127	0.00068
303.15	0.401	0.01667	0.00101
303.15	0.451	0.0216	0.00132
308.15	0	0.000719	4.3e-05
308.15	0.027	0.000969	5.9e-05
308.15	0.049	0.001207	7.3e-05
308.15	0.063	0.001393	8.4e-05
308.15	0.086	0.001728	0.000105
308.15	0.101	0.001966	0.000119
308.15	0.147	0.002911	0.000176
308.15	0.184	0.003821	0.000231
308.15	0.213	0.004737	0.000287
308.15	0.25	0.006664	0.000404
308.15	0.299	0.007711	0.000468
308.15	0.341	0.009653	0.000586
308.15	0.401	0.0143	0.00087
308.15	0.451	0.01822	0.00111
313.15	0	0.000653	3.9e-05
313.15	0.027	0.000882	5.3e-05
313.15	0.049	0.001093	6.6e-05
313.15	0.063	0.00126	7.6e-05
313.15	0.086	0.001565	9.5e-05
313.15	0.101	0.001768	0.000107
313.15	0.147	0.002591	0.000157
313.15	0.184	0.00338	0.000205
313.15	0.213	0.004172	0.000253
313.15	0.25	0.005814	0.000352
313.15	0.299	0.006713	0.000407
313.15	0.341	0.008366	0.000508
313.15	0.401	0.01227	0.00075
313.15	0.451	0.01547	0.00094
318.15	0	0.000596	3.6e-05
318.15	0.027	0.000808	4.9e-05
318.15	0.049	0.001004	6.1e-05
318.15	0.063	0.001146	6.9e-05
318.15	0.086	0.001414	8.6e-05
318.15	0.101	0.001599	9.7e-05
318.15	0.147	0.002321	0.00014
318.15	0.184	0.003012	0.000182
318.15	0.213	0.003702	0.000224
318.15	0.25	0.005096	0.000309
318.15	0.299	0.005898	0.000358
318.15	0.341	0.007312	0.000444
318.15	0.401	0.01062	0.00065
318.15	0.451	0.01329	0.00081
323.15	0	0.000547	3.3e-05
323.15	0.027	0.000744	4.5e-05
323.15	0.049	0.00092	5.6e-05
323.15	0.063	0.001047	6.3e-05
323.15	0.086	0.001287	7.8e-05
323.15	0.101	0.001456	8.8e-05
323.15	0.147	0.002096	0.000127
323.15	0.184	0.002702	0.000164
323.15	0.213	0.003309	0.0002
323.15	0.25	0.004482	0.000272
323.15	0.299	0.005226	0.000317
323.15	0.341	0.006446	0.000391
323.15	0.401	0.009272	0.000564
323.15	0.451	0.01153	0.0007
328.15	0	0.000504	3e-05
328.15	0.027	0.000695	4.2e-05
328.15	0.049	0.000846	5.1e-05
328.15	0.063	0.000961	5.8e-05
328.15	0.086	0.00118	7.1e-05
328.15	0.101	0.001332	8.1e-05
328.15	0.147	0.0019	0.000115
328.15	0.184	0.002439	0.000148
328.15	0.213	0.002977	0.00018
328.15	0.25	0.003973	0.000241
328.15	0.299	0.004663	0.000283
328.15	0.341	0.005733	0.000348
328.15	0.401	0.008204	0.000499
328.15	0.451	0.01013	0.00062
333.15	0	0.000466	2.8e-05
333.15	0.027	0.000644	3.9e-05
333.15	0.049	0.000787	4.8e-05
333.15	0.063	0.000889	5.4e-05
333.15	0.086	0.001088	6.6e-05
333.15	0.101	0.001222	7.4e-05
333.15	0.147	0.001737	0.000105
333.15	0.184	0.002216	0.000134
333.15	0.213	0.002698	0.000163
333.15	0.25	0.003554	0.000215
333.15	0.299	0.004186	0.000254
333.15	0.341	0.005129	0.000311
333.15	0.401	0.00729	0.000443
333.15	0.451	0.00899	0.000547
338.15	0	0.000433	2.6e-05
338.15	0.027	0.000612	3.7e-05
338.15	0.049	0.000734	4.4e-05
338.15	0.063	0.000825	5e-05
338.15	0.086	0.001006	6.1e-05
338.15	0.101	0.001118	6.8e-05
338.15	0.147	0.001582	9.6e-05
338.15	0.184	0.002019	0.000122
338.15	0.213	0.00242	0.000147
338.15	0.25	0.003118	0.000189
338.15	0.299	0.003788	0.00023
338.15	0.341	0.004616	0.00028
338.15	0.401	0.0065	0.000395
338.15	0.451	0.008008	0.000487
343.15	0	0.000404	2.4e-05
343.15	0.027	0.00058	3.5e-05
343.15	0.049	0.000689	4.2e-05
343.15	0.063	0.000771	4.7e-05
343.15	0.086	0.000941	5.7e-05
343.15	0.101	0.001045	6.3e-05
343.15	0.147	0.001465	8.9e-05
343.15	0.184	0.001855	0.000112
343.15	0.213	0.002245	0.000136
343.15	0.25	0.002805	0.00017
343.15	0.299	0.003416	0.000207
343.15	0.341	0.004159	0.000252
343.15	0.401	0.006011	0.000365
343.15	0.451	0.0073	0.000444
348.15	0	0.000378	2.3e-05
348.15	0.027	0.000549	3.3e-05
348.15	0.049	0.000649	3.9e-05
348.15	0.063	0.000724	4.4e-05
348.15	0.086	0.000886	5.4e-05
348.15	0.101	0.000982	5.9e-05
348.15	0.147	0.001355	8.2e-05
348.15	0.184	0.001706	0.000103
348.15	0.213	0.00206	0.000125
348.15	0.25	0.002589	0.000157
348.15	0.299	0.003124	0.000189
348.15	0.341	0.003785	0.00023
348.15	0.401	0.005338	0.000325
348.15	0.451	0.006657	0.000405

System: 1-(2-hydroxyethyl)pyridinium bromide + water; phases: Liquid, Gas
Property: Vapor or sublimation pressure, kPa (Liquid); method: Ebulliometric method (Recirculating still)
Temperature, K	Mole fraction of 1-(2-hydroxyethyl)pyridinium bromide	Vapor or sublimation pressure, kPa	uncertainty
338.15	0	25	1
338.15	0.018	24.3	1.1
338.15	0.041	23.4	1.1
338.15	0.059	22.7	1.1
338.15	0.078	21.8	1
338.15	0.101	20.9	1.1
338.15	0.118	19.8	1
338.15	0.143	18.9	1
338.15	0.163	17.8	1
338.15	0.188	16.6	1
348.15	0	38.6	1.1
348.15	0.018	37.6	1.1
348.15	0.04	36.2	1.1
348.15	0.059	35	1.1
348.15	0.078	33.8	1.1
348.15	0.101	32.2	1.1
348.15	0.122	30.5	1.1
348.15	0.141	29.1	1.1
348.15	0.163	27.5	1.1
348.15	0.184	25.8	1.1
348.15	0.213	23.8	1.1
348.15	0.239	21.9	1.1
358.15	0	57.8	1.1
358.15	0.018	56.3	1.2
358.15	0.04	54.2	1.2
358.15	0.059	52.4	1.2
358.15	0.077	50.5	1.2
358.15	0.1	48.2	1.2
358.15	0.121	46	1.2
358.15	0.142	43.6	1.2
358.15	0.161	41.5	1.2
358.15	0.187	38.9	1.2
358.15	0.212	35.9	1.1
358.15	0.24	33	1.1
368.15	0	84.4	1.2
368.15	0.018	82	1.3
368.15	0.04	79	1.3
368.15	0.059	76.3	1.3
368.15	0.077	73.5	1.3
368.15	0.1	70.2	1.3
368.15	0.12	66.8	1.3
368.15	0.14	63.7	1.3
368.15	0.162	60.4	1.3
368.15	0.184	56.7	1.3
368.15	0.211	52.6	1.3
368.15	0.238	48.1	1.3

System: 1-(2-hydroxyethyl)pyridinium bromide + water; phases: Liquid
Fixed: Pressure, kPa = 101
Property: Mass density, kg/m3 (Liquid); method: Vibrating tube method
Temperature, K	Mole fraction of 1-(2-hydroxyethyl)pyridinium bromide	Mass density, kg/m3	uncertainty
298.15	0.022	1071.4	0.6
298.15	0.045	1131.4	0.5
298.15	0.066	1177.3	0.5
298.15	0.085	1211	0.4
298.15	0.114	1256.4	0.4
298.15	0.152	1296.4	0.4
298.15	0.195	1334.4	0.4
298.15	0.226	1356.7	0.5
298.15	0.261	1377.5	0.5
303.15	0.022	1069.5	0.6
303.15	0.045	1129.2	0.5
303.15	0.066	1174.8	0.5
303.15	0.085	1208.3	0.4
303.15	0.114	1251.9	0.4
303.15	0.152	1293.5	0.4
303.15	0.195	1331.4	0.4
303.15	0.226	1353.6	0.5
303.15	0.261	1374.3	0.5
308.15	0.022	1067.5	0.6
308.15	0.045	1126.8	0.5
308.15	0.066	1172.2	0.5
308.15	0.085	1205.7	0.4
308.15	0.114	1247.7	0.4
308.15	0.152	1290.5	0.4
308.15	0.195	1328.4	0.4
308.15	0.226	1350.4	0.5
308.15	0.261	1371.2	0.5
313.15	0.022	1065.2	0.6
313.15	0.045	1124.3	0.5
313.15	0.066	1169.6	0.5
313.15	0.085	1202.9	0.4
313.15	0.114	1244.9	0.4
313.15	0.152	1287.5	0.4
313.15	0.195	1325.3	0.4
313.15	0.226	1347.3	0.5
313.15	0.261	1368	0.5
318.15	0.022	1062.7	0.6
318.15	0.045	1121.8	0.5
318.15	0.066	1166.9	0.5
318.15	0.085	1200.1	0.4
318.15	0.114	1241.9	0.4
318.15	0.152	1284.5	0.4
318.15	0.195	1322.2	0.4
318.15	0.226	1344.2	0.4
318.15	0.261	1364.8	0.5
323.15	0.022	1060.2	0.6
323.15	0.045	1119.1	0.5
323.15	0.066	1164.1	0.5
323.15	0.085	1197.2	0.4
323.15	0.114	1238.9	0.4
323.15	0.152	1281.4	0.4
323.15	0.195	1319	0.4
323.15	0.226	1341	0.4
323.15	0.261	1361.6	0.5
328.15	0.022	1057.8	0.6
328.15	0.045	1116.2	0.5
328.15	0.066	1161.1	0.5
328.15	0.085	1194.2	0.4
328.15	0.114	1235.9	0.4
328.15	0.152	1278.3	0.4
328.15	0.195	1315.9	0.4
328.15	0.226	1337.8	0.4
328.15	0.261	1358.4	0.5
333.15	0.022	1055.5	0.5
333.15	0.045	1113.1	0.5
333.15	0.066	1158.1	0.5
333.15	0.085	1191.2	0.4
333.15	0.114	1232.8	0.4
333.15	0.152	1275.2	0.4
333.15	0.195	1312.7	0.4
333.15	0.226	1334.6	0.4
333.15	0.261	1355.2	0.5
338.15	0.022	1053.3	0.5
338.15	0.045	1111	0.5
338.15	0.066	1155.7	0.5
338.15	0.085	1187.8	0.4
338.15	0.114	1229.7	0.4
338.15	0.152	1272	0.4
338.15	0.195	1309.5	0.4
338.15	0.226	1331.4	0.4
338.15	0.261	1352	0.5
343.15	0.022	1051	0.5
343.15	0.045	1108.4	0.5
343.15	0.066	1153	0.5
343.15	0.085	1184.6	0.4
343.15	0.114	1226.5	0.4
343.15	0.152	1268.8	0.4
343.15	0.195	1306.3	0.4
343.15	0.226	1328.2	0.4
343.15	0.261	1348.7	0.5
348.15	0.022	1048.8	0.5
348.15	0.045	1105.8	0.5
348.15	0.066	1150.3	0.5
348.15	0.085	1181.8	0.4
348.15	0.114	1223.1	0.4
348.15	0.152	1265.5	0.4
348.15	0.195	1303	0.4
348.15	0.226	1324.9	0.4
348.15	0.261	1345.5	0.5

System: 1-(2-hydroxyethyl)pyridinium bromide + water; phases: Liquid
Fixed: Pressure, kPa = 101
Property: Viscosity, Pa*s (Liquid); method: Falling or rolling sphere viscometry
Temperature, K	Mole fraction of 1-(2-hydroxyethyl)pyridinium bromide	Viscosity, Pa*s	uncertainty
298.15	0.022	0.001138	6.9e-05
298.15	0.045	0.001415	8.6e-05
298.15	0.066	0.001761	0.000107
298.15	0.085	0.002174	0.000132
298.15	0.114	0.002918	0.000177
298.15	0.152	0.004134	0.00025
298.15	0.195	0.006391	0.000387
298.15	0.226	0.008964	0.000543
298.15	0.261	0.01193	0.00072
303.15	0.022	0.00104	6.3e-05
303.15	0.045	0.001268	7.7e-05
303.15	0.066	0.001576	9.5e-05
303.15	0.085	0.001937	0.000117
303.15	0.114	0.002577	0.000156
303.15	0.152	0.00362	0.000219
303.15	0.195	0.005528	0.000335
303.15	0.226	0.007799	0.000473
303.15	0.261	0.01025	0.00062
308.15	0.022	0.000947	5.7e-05
308.15	0.045	0.001148	6.9e-05
308.15	0.066	0.001424	8.6e-05
308.15	0.085	0.001744	0.000106
308.15	0.114	0.002309	0.00014
308.15	0.152	0.003233	0.000196
308.15	0.195	0.004908	0.000297
308.15	0.226	0.006784	0.000411
308.15	0.261	0.008888	0.000539
313.15	0.022	0.000867	5.2e-05
313.15	0.045	0.001046	6.3e-05
313.15	0.066	0.001294	7.8e-05
313.15	0.085	0.001581	9.6e-05
313.15	0.114	0.002082	0.000126
313.15	0.152	0.002894	0.000175
313.15	0.195	0.00433	0.000262
313.15	0.226	0.0059	0.000358
313.15	0.261	0.007704	0.000467
318.15	0.022	0.0008	4.8e-05
318.15	0.045	0.00096	5.8e-05
318.15	0.066	0.001184	7.2e-05
318.15	0.085	0.00144	8.7e-05
318.15	0.114	0.001887	0.000114
318.15	0.152	0.002604	0.000158
318.15	0.195	0.003868	0.000234
318.15	0.226	0.005148	0.000312
318.15	0.261	0.006721	0.000407
323.15	0.022	0.000741	4.5e-05
323.15	0.045	0.000886	5.4e-05
323.15	0.066	0.001086	6.6e-05
323.15	0.085	0.00132	8e-05
323.15	0.114	0.001721	0.000104
323.15	0.152	0.00236	0.000143
323.15	0.195	0.003478	0.000211
323.15	0.226	0.004527	0.000274
323.15	0.261	0.005895	0.000357
328.15	0.022	0.000692	4.2e-05
328.15	0.045	0.00082	5e-05
328.15	0.066	0.001008	6.1e-05
328.15	0.085	0.001215	7.4e-05
328.15	0.114	0.001578	9.5e-05
328.15	0.152	0.002149	0.00013
328.15	0.195	0.003137	0.00019
328.15	0.226	0.00403	0.000244
328.15	0.261	0.005207	0.000316
333.15	0.022	0.000645	3.9e-05
333.15	0.045	0.000766	4.6e-05
333.15	0.066	0.000933	5.6e-05
333.15	0.085	0.001126	6.8e-05
333.15	0.114	0.001451	8.8e-05
333.15	0.152	0.001969	0.000119
333.15	0.195	0.002833	0.000172
333.15	0.226	0.003615	0.000219
333.15	0.261	0.004632	0.000281
338.15	0.022	0.000608	3.7e-05
338.15	0.045	0.000716	4.3e-05
338.15	0.066	0.000869	5.3e-05
338.15	0.085	0.001045	6.3e-05
338.15	0.114	0.001344	8.1e-05
338.15	0.152	0.001809	0.000109
338.15	0.195	0.002599	0.000157
338.15	0.226	0.003284	0.000199
338.15	0.261	0.004101	0.000249
343.15	0.022	0.000571	3.5e-05
343.15	0.045	0.000674	4.1e-05
343.15	0.066	0.000816	4.9e-05
343.15	0.085	0.000976	5.9e-05
343.15	0.114	0.001257	7.6e-05
343.15	0.152	0.001696	0.000103
343.15	0.195	0.00237	0.000144
343.15	0.226	0.002945	0.000178
343.15	0.261	0.003732	0.000226
348.15	0.022	0.000538	3.3e-05
348.15	0.045	0.000634	3.8e-05
348.15	0.066	0.000763	4.6e-05
348.15	0.085	0.000911	5.5e-05
348.15	0.114	0.001197	7.2e-05
348.15	0.152	0.001605	9.7e-05
348.15	0.195	0.002228	0.000135
348.15	0.226	0.002693	0.000163
348.15	0.261	0.003372	0.000204

System: N-ethyl-N-methylmorpholinium bromide + water; phases: Liquid, Gas
Property: Vapor or sublimation pressure, kPa (Liquid); method: Ebulliometric method (Recirculating still)
Temperature, K	Mole fraction of N-ethyl-N-methylmorpholinium bromide	Vapor or sublimation pressure, kPa	uncertainty
338.15	0	25	1
338.15	0.015	24.3	1.1
338.15	0.023	24	1.1
338.15	0.031	23.7	1.1
338.15	0.041	23.3	1.1
338.15	0.05	22.9	1.1
338.15	0.062	22.4	1.1
338.15	0.074	21.7	1.1
338.15	0.082	21.3	1.1
338.15	0.097	20.5	1.1
338.15	0.105	20	1.1
338.15	0.116	19.4	1.1
338.15	0.124	18.9	1.1
338.15	0.136	18.3	1
338.15	0.15	17.5	1.1
338.15	0.17	16.1	1.1
338.15	0.177	15.8	1
338.15	0.19	15	1
338.15	0.205	14.4	1
338.15	0.219	13.5	1
338.15	0.244	12.3	1
348.15	0	38.6	1.1
348.15	0.017	37.6	1.1
348.15	0.023	37.1	1.1
348.15	0.03	36.6	1.1
348.15	0.04	36	1.1
348.15	0.05	35.3	1.1
348.15	0.062	34.5	1.1
348.15	0.073	33.6	1.1
348.15	0.084	32.7	1.1
348.15	0.095	31.7	1.1
348.15	0.105	31	1.1
348.15	0.115	30	1.1
348.15	0.124	29.3	1.1
348.15	0.137	28.3	1.1
348.15	0.15	27	1.1
348.15	0.168	25.5	1.1
348.15	0.176	24.8	1.1
348.15	0.19	23.4	1.1
348.15	0.206	22.2	1.1
348.15	0.219	21	1.1
348.15	0.241	19.3	1.1
348.15	0.265	18	1
358.15	0	57.8	1.1
358.15	0.015	56.4	1.1
358.15	0.023	55.6	1.2
358.15	0.03	54.9	1.2
358.15	0.04	54	1.2
358.15	0.051	52.9	1.2
358.15	0.061	51.7	1.2
358.15	0.073	50.3	1.2
358.15	0.084	49	1.2
358.15	0.096	47.6	1.2
358.15	0.105	46.5	1.2
358.15	0.115	45.1	1.2
358.15	0.123	44.1	1.2
358.15	0.136	42.6	1.2
358.15	0.149	40.8	1.2
358.15	0.166	38.4	1.2
358.15	0.177	37.1	1.2
358.15	0.189	35.3	1.2
358.15	0.203	33.7	1.2
358.15	0.218	31.8	1.2
358.15	0.239	29.4	1.1
358.15	0.262	27.4	1
368.15	0	84.4	1.2
368.15	0.015	82.4	1.3
368.15	0.023	81.2	1.3
368.15	0.031	80.1	1.3
368.15	0.041	78.6	1.3
368.15	0.051	77.1	1.3
368.15	0.062	75.5	1.3
368.15	0.073	73.4	1.3
368.15	0.085	71.5	1.3
368.15	0.095	69.5	1.4
368.15	0.105	67.8	1.3
368.15	0.115	65.9	1.4
368.15	0.124	64.2	1.3
368.15	0.136	62	1.3
368.15	0.149	59.8	1.3
368.15	0.166	56.4	1.4
368.15	0.175	54.6	1.3
368.15	0.189	51.9	1.3
368.15	0.2	49.7	1.3
368.15	0.216	46.8	1.3
368.15	0.237	43.2	1.2
368.15	0.255	40.6	1.2

System: N-ethyl-N-methylmorpholinium bromide + water; phases: Liquid
Fixed: Pressure, kPa = 101
Property: Mass density, kg/m3 (Liquid); method: Vibrating tube method
Temperature, K	Mole fraction of N-ethyl-N-methylmorpholinium bromide	Mass density, kg/m3	uncertainty
298.15	0.023	1062.6	0.5
298.15	0.045	1111.8	0.5
298.15	0.07	1156	0.4
298.15	0.1	1197.3	0.4
298.15	0.128	1227	0.3
298.15	0.16	1254.9	0.4
298.15	0.192	1278.3	0.4
298.15	0.22	1295.2	0.4
298.15	0.252	1311.3	0.5
303.15	0.023	1060.7	0.5
303.15	0.045	1109.6	0.5
303.15	0.07	1153.6	0.4
303.15	0.1	1194.6	0.4
303.15	0.128	1224.2	0.3
303.15	0.16	1252	0.4
303.15	0.192	1275.3	0.4
303.15	0.22	1292.1	0.4
303.15	0.252	1308.2	0.5
308.15	0.023	1058.6	0.5
308.15	0.045	1107.3	0.5
308.15	0.07	1151	0.4
308.15	0.1	1191.8	0.4
308.15	0.128	1221.3	0.3
308.15	0.16	1249	0.4
308.15	0.192	1272.3	0.4
308.15	0.22	1289	0.4
308.15	0.252	1305	0.5
313.15	0.023	1056.3	0.5
313.15	0.045	1104.8	0.5
313.15	0.07	1148.3	0.4
313.15	0.1	1189	0.4
313.15	0.128	1218.4	0.3
313.15	0.16	1246	0.4
313.15	0.192	1269.2	0.4
313.15	0.22	1285.9	0.4
313.15	0.252	1301.9	0.5
318.15	0.023	1053.7	0.5
318.15	0.045	1102.2	0.5
318.15	0.07	1145.6	0.4
318.15	0.1	1186.1	0.4
318.15	0.128	1215.4	0.3
318.15	0.16	1243	0.3
318.15	0.192	1266.1	0.4
318.15	0.22	1282.8	0.4
318.15	0.252	1298.7	0.4
323.15	0.023	1051.7	0.5
323.15	0.045	1099.6	0.4
323.15	0.07	1142.8	0.4
323.15	0.1	1183.2	0.4
323.15	0.128	1212.4	0.3
323.15	0.16	1239.9	0.3
323.15	0.192	1263	0.4
323.15	0.22	1279.7	0.4
323.15	0.252	1295.6	0.4
328.15	0.023	1049.5	0.5
328.15	0.045	1097.1	0.4
328.15	0.07	1139.8	0.4
328.15	0.1	1180.2	0.4
328.15	0.128	1209.4	0.3
328.15	0.16	1236.8	0.3
328.15	0.192	1259.9	0.4
328.15	0.22	1276.5	0.4
328.15	0.252	1292.4	0.4
333.15	0.023	1047.3	0.5
333.15	0.045	1094.6	0.4
333.15	0.07	1137.3	0.4
333.15	0.1	1177.3	0.4
333.15	0.128	1206.3	0.3
333.15	0.16	1233.7	0.3
333.15	0.192	1256.7	0.4
333.15	0.22	1273.3	0.4
333.15	0.252	1289.2	0.4
338.15	0.023	1045.1	0.5
338.15	0.045	1092.1	0.4
338.15	0.07	1134.6	0.4
338.15	0.1	1174.6	0.3
338.15	0.128	1203.2	0.3
338.15	0.16	1230.5	0.3
338.15	0.192	1253.5	0.4
338.15	0.22	1270.1	0.4
338.15	0.252	1286	0.4
343.15	0.023	1042.8	0.5
343.15	0.045	1089.6	0.4
343.15	0.07	1131.9	0.4
343.15	0.1	1171.7	0.3
343.15	0.128	1200	0.3
343.15	0.16	1227.3	0.3
343.15	0.192	1250.3	0.4
343.15	0.22	1266.9	0.4
343.15	0.252	1282.7	0.4
348.15	0.023	1040.6	0.5
348.15	0.045	1087.2	0.4
348.15	0.07	1129.2	0.4
348.15	0.1	1168.8	0.3
348.15	0.128	1196.7	0.3
348.15	0.16	1224.1	0.3
348.15	0.192	1247.1	0.4
348.15	0.22	1263.6	0.4
348.15	0.252	1279.5	0.4

System: N-ethyl-N-methylmorpholinium bromide + water; phases: Liquid
Fixed: Pressure, kPa = 101
Property: Viscosity, Pa*s (Liquid); method: Falling or rolling sphere viscometry
Temperature, K	Mole fraction of N-ethyl-N-methylmorpholinium bromide	Viscosity, Pa*s	uncertainty
298.15	0.023	0.001197	7.2e-05
298.15	0.045	0.00156	9.4e-05
298.15	0.07	0.002228	0.000135
298.15	0.1	0.0035	0.000212
298.15	0.128	0.005195	0.000315
298.15	0.16	0.008371	0.000507
298.15	0.192	0.01381	0.00084
298.15	0.22	0.02213	0.00134
298.15	0.252	0.03725	0.00226
303.15	0.023	0.00106	6.4e-05
303.15	0.045	0.001391	8.4e-05
303.15	0.07	0.001983	0.00012
303.15	0.1	0.003126	0.000189
303.15	0.128	0.004423	0.000268
303.15	0.16	0.007156	0.000434
303.15	0.192	0.01153	0.0007
303.15	0.22	0.0182	0.0011
303.15	0.252	0.02981	0.00181
308.15	0.023	0.000961	5.8e-05
308.15	0.045	0.001254	7.6e-05
308.15	0.07	0.001778	0.000108
308.15	0.1	0.002816	0.00017
308.15	0.128	0.003944	0.000239
308.15	0.16	0.006192	0.000375
308.15	0.192	0.009829	0.000596
308.15	0.22	0.01503	0.00091
308.15	0.252	0.02422	0.00147
313.15	0.023	0.000876	5.3e-05
313.15	0.045	0.001136	6.9e-05
313.15	0.07	0.001566	9.5e-05
313.15	0.1	0.002543	0.000154
313.15	0.128	0.003485	0.000211
313.15	0.16	0.005438	0.000329
313.15	0.192	0.008443	0.000512
313.15	0.22	0.0125	0.00076
313.15	0.252	0.01981	0.0012
318.15	0.023	0.000805	4.9e-05
318.15	0.045	0.001037	6.3e-05
318.15	0.07	0.00145	8.8e-05
318.15	0.1	0.002291	0.000139
318.15	0.128	0.0031	0.000188
318.15	0.16	0.004738	0.000287
318.15	0.192	0.007253	0.00044
318.15	0.22	0.01046	0.00063
318.15	0.252	0.01649	0.001
323.15	0.023	0.000756	4.6e-05
323.15	0.045	0.000953	5.8e-05
323.15	0.07	0.001328	8e-05
323.15	0.1	0.002098	0.000127
323.15	0.128	0.002776	0.000168
323.15	0.16	0.004235	0.000257
323.15	0.192	0.00632	0.000383
323.15	0.22	0.008952	0.000543
323.15	0.252	0.01388	0.00084
328.15	0.023	0.000717	4.3e-05
328.15	0.045	0.000879	5.3e-05
328.15	0.07	0.00122	7.4e-05
328.15	0.1	0.001908	0.000115
328.15	0.128	0.002493	0.000151
328.15	0.16	0.003696	0.000224
328.15	0.192	0.005528	0.000335
328.15	0.22	0.007778	0.000472
328.15	0.252	0.01184	0.00072
333.15	0.023	0.000638	3.9e-05
333.15	0.045	0.000813	4.9e-05
333.15	0.07	0.001123	6.8e-05
333.15	0.1	0.001748	0.000106
333.15	0.128	0.002263	0.000137
333.15	0.16	0.003324	0.000201
333.15	0.192	0.004903	0.000297
333.15	0.22	0.006702	0.000406
333.15	0.252	0.01027	0.00062
338.15	0.023	0.000624	3.8e-05
338.15	0.045	0.000764	4.6e-05
338.15	0.07	0.001051	6.4e-05
338.15	0.1	0.001626	9.8e-05
338.15	0.128	0.002058	0.000125
338.15	0.16	0.002988	0.000181
338.15	0.192	0.004274	0.000259
338.15	0.22	0.005649	0.000342
338.15	0.252	0.008914	0.000541
343.15	0.023	0.000579	3.5e-05
343.15	0.045	0.000716	4.3e-05
343.15	0.07	0.00097	5.9e-05
343.15	0.1	0.00149	9e-05
343.15	0.128	0.001882	0.000114
343.15	0.16	0.002726	0.000165
343.15	0.192	0.003874	0.000235
343.15	0.22	0.005218	0.000316
343.15	0.252	0.007822	0.000474
348.15	0.023	0.000551	3.3e-05
348.15	0.045	0.000675	4.1e-05
348.15	0.07	0.000901	5.5e-05
348.15	0.1	0.001357	8.2e-05
348.15	0.128	0.001733	0.000105
348.15	0.16	0.002517	0.000152
348.15	0.192	0.003514	0.000213
348.15	0.22	0.004632	0.000281
348.15	0.252	0.006907	0.000419

System: N-methyl-N-(2-hydroxyethyl)morpholinium bromide + water; phases: Liquid, Gas
Property: Vapor or sublimation pressure, kPa (Liquid); method: Ebulliometric method (Recirculating still)
Temperature, K	Mole fraction of N-methyl-N-(2-hydroxyethyl)morpholinium bromide	Vapor or sublimation pressure, kPa	uncertainty
338.15	0	25	1
338.15	0.008	24.7	1.1
338.15	0.012	24.5	1.1
338.15	0.019	24.3	1.1
338.15	0.028	24	1.1
338.15	0.032	23.8	1.1
338.15	0.042	23.4	1.1
338.15	0.05	23	1.1
338.15	0.06	22.6	1
338.15	0.074	22.1	1
338.15	0.092	21.3	1.1
338.15	0.105	20.5	1.1
338.15	0.12	19.7	1
338.15	0.14	18.7	1
338.15	0.153	18.1	1
338.15	0.172	17.4	1
348.15	0	38.6	1.1
348.15	0.008	38.1	1.1
348.15	0.012	37.9	1.1
348.15	0.019	37.5	1.1
348.15	0.027	37	1.1
348.15	0.032	36.7	1.2
348.15	0.042	35.9	1.1
348.15	0.051	35.3	1.1
348.15	0.061	34.8	1.1
348.15	0.073	33.9	1.1
348.15	0.091	32.7	1.1
348.15	0.104	31.7	1.1
348.15	0.125	30	1.1
348.15	0.14	28.8	1.1
348.15	0.154	27.3	1.1
348.15	0.168	26.6	1
348.15	0.184	25.2	1.1
348.15	0.195	24.6	1.1
358.15	0	57.8	1.1
358.15	0.008	57.1	1.2
358.15	0.012	56.8	1.1
358.15	0.019	56.2	1.2
358.15	0.027	55.6	1.1
358.15	0.032	55	1.3
358.15	0.043	53.9	1.2
358.15	0.051	53.1	1.2
358.15	0.062	52	1.2
358.15	0.072	50.8	1.2
358.15	0.09	48.8	1.2
358.15	0.104	47.2	1.2
358.15	0.125	45	1.2
358.15	0.14	43.3	1.2
358.15	0.159	41.1	1.2
358.15	0.175	39.2	1.2
358.15	0.191	37.3	1.1
358.15	0.203	35.6	1.2
368.15	0	84.4	1.2
368.15	0.008	83.4	1.3
368.15	0.012	82.8	1.3
368.15	0.019	82	1.3
368.15	0.027	81	1.3
368.15	0.032	80.2	1.3
368.15	0.041	78.7	1.3
368.15	0.05	77.7	1.3
368.15	0.061	75.8	1.4
368.15	0.072	73.8	1.3
368.15	0.088	71.4	1.3
368.15	0.105	68.3	1.3
368.15	0.124	65.6	1.3
368.15	0.14	63.2	1.3
368.15	0.161	59.6	1.3
368.15	0.175	57.4	1.3
368.15	0.189	54.7	1.4
368.15	0.198	52.2	1.5

System: N-methyl-N-(2-hydroxyethyl)morpholinium bromide + water; phases: Liquid
Fixed: Pressure, kPa = 101
Property: Mass density, kg/m3 (Liquid); method: Vibrating tube method
Temperature, K	Mole fraction of N-methyl-N-(2-hydroxyethyl)morpholinium bromide	Mass density, kg/m3	uncertainty
298.15	0.023	1078.7	0.6
298.15	0.038	1121	0.6
298.15	0.051	1150.9	0.5
298.15	0.075	1197.8	0.4
298.15	0.097	1232	0.4
298.15	0.124	1264.8	0.4
298.15	0.157	1297.5	0.4
298.15	0.197	1328.8	0.4
298.15	0.227	1345.7	0.4
303.15	0.023	1076.7	0.6
303.15	0.038	1118.8	0.6
303.15	0.051	1148.6	0.5
303.15	0.075	1195.3	0.4
303.15	0.097	1229.3	0.4
303.15	0.124	1262	0.4
303.15	0.157	1294.6	0.4
303.15	0.197	1325.9	0.4
303.15	0.227	1342.8	0.4
308.15	0.023	1074.6	0.6
308.15	0.038	1116.5	0.6
308.15	0.051	1146.2	0.5
308.15	0.075	1192.7	0.4
308.15	0.097	1226.6	0.4
308.15	0.124	1259.2	0.4
308.15	0.157	1291.7	0.4
308.15	0.197	1322.9	0.4
308.15	0.227	1339.7	0.4
313.15	0.023	1072.3	0.6
313.15	0.038	1114.1	0.6
313.15	0.051	1143.6	0.5
313.15	0.075	1190	0.4
313.15	0.097	1223.8	0.4
313.15	0.124	1256.4	0.4
313.15	0.157	1288.8	0.4
313.15	0.197	1319.9	0.4
313.15	0.227	1336.7	0.4
318.15	0.023	1069.8	0.6
318.15	0.038	1111.6	0.6
318.15	0.051	1141	0.5
318.15	0.075	1187.3	0.4
318.15	0.097	1221	0.4
318.15	0.124	1253.5	0.4
318.15	0.157	1285.8	0.4
318.15	0.197	1316.9	0.4
318.15	0.227	1333.7	0.4
323.15	0.023	1066.9	0.6
323.15	0.038	1109	0.6
323.15	0.051	1138.2	0.5
323.15	0.075	1184.5	0.4
323.15	0.097	1218.1	0.4
323.15	0.124	1250.5	0.4
323.15	0.157	1282.8	0.4
323.15	0.197	1313.9	0.4
323.15	0.227	1330.6	0.4
328.15	0.023	1064.7	0.6
328.15	0.038	1106.2	0.6
328.15	0.051	1135.9	0.5
328.15	0.075	1181.6	0.4
328.15	0.097	1215.1	0.4
328.15	0.124	1247.6	0.4
328.15	0.157	1279.8	0.4
328.15	0.197	1310.7	0.4
328.15	0.227	1327.5	0.4
333.15	0.023	1062.5	0.6
333.15	0.038	1103.3	0.6
333.15	0.051	1133.3	0.5
333.15	0.075	1178.7	0.4
333.15	0.097	1212.1	0.4
333.15	0.124	1244.5	0.4
333.15	0.157	1276.7	0.4
333.15	0.197	1307.8	0.4
333.15	0.227	1324.2	0.4
338.15	0.023	1060.1	0.6
338.15	0.038	1101.2	0.6
338.15	0.051	1130.8	0.5
338.15	0.075	1175.6	0.4
338.15	0.097	1209.5	0.4
338.15	0.124	1241.5	0.4
338.15	0.157	1273.5	0.4
338.15	0.197	1304.7	0.4
338.15	0.227	1321.1	0.4
343.15	0.023	1057.7	0.6
343.15	0.038	1098.7	0.6
343.15	0.051	1128.3	0.5
343.15	0.075	1173.2	0.4
343.15	0.097	1206.6	0.4
343.15	0.124	1238.3	0.4
343.15	0.157	1270.4	0.4
343.15	0.197	1301.5	0.4
343.15	0.227	1317.9	0.4
348.15	0.023	1055.3	0.6
348.15	0.038	1096.2	0.6
348.15	0.051	1125.7	0.5
348.15	0.075	1170.4	0.4
348.15	0.097	1203.8	0.4
348.15	0.124	1235.2	0.4
348.15	0.157	1267.6	0.4
348.15	0.197	1298.3	0.4
348.15	0.227	1315.1	0.4

System: N-methyl-N-(2-hydroxyethyl)morpholinium bromide + water; phases: Liquid
Fixed: Pressure, kPa = 101
Property: Viscosity, Pa*s (Liquid); method: Falling or rolling sphere viscometry
Temperature, K	Mole fraction of N-methyl-N-(2-hydroxyethyl)morpholinium bromide	Viscosity, Pa*s	uncertainty
298.15	0.023	0.001173	7.1e-05
298.15	0.038	0.001482	9e-05
298.15	0.051	0.001716	0.000104
298.15	0.075	0.002345	0.000142
298.15	0.097	0.003195	0.000193
298.15	0.124	0.004717	0.000286
298.15	0.157	0.007331	0.000445
298.15	0.197	0.01415	0.00086
298.15	0.227	0.02061	0.00125
303.15	0.023	0.001058	6.4e-05
303.15	0.038	0.00133	8e-05
303.15	0.051	0.001536	9.3e-05
303.15	0.075	0.002087	0.000126
303.15	0.097	0.002831	0.000171
303.15	0.124	0.004126	0.00025
303.15	0.157	0.006314	0.000383
303.15	0.197	0.01214	0.00074
303.15	0.227	0.01739	0.00105
308.15	0.023	0.000962	5.8e-05
308.15	0.038	0.001206	7.3e-05
308.15	0.051	0.001385	8.4e-05
308.15	0.075	0.001878	0.000114
308.15	0.097	0.002526	0.000153
308.15	0.124	0.003653	0.000221
308.15	0.157	0.005635	0.000341
308.15	0.197	0.01046	0.00063
308.15	0.227	0.01476	0.00089
313.15	0.023	0.00088	5.3e-05
313.15	0.038	0.001101	6.7e-05
313.15	0.051	0.00126	7.6e-05
313.15	0.075	0.0017	0.000103
313.15	0.097	0.002278	0.000138
313.15	0.124	0.003255	0.000197
313.15	0.157	0.004938	0.000299
313.15	0.197	0.009042	0.000548
313.15	0.227	0.0126	0.00076
318.15	0.023	0.00081	4.9e-05
318.15	0.038	0.001011	6.1e-05
318.15	0.051	0.001154	7e-05
318.15	0.075	0.001547	9.4e-05
318.15	0.097	0.002062	0.000125
318.15	0.124	0.002921	0.000177
318.15	0.157	0.004371	0.000265
318.15	0.197	0.007869	0.000477
318.15	0.227	0.01085	0.00066
323.15	0.023	0.000754	4.6e-05
323.15	0.038	0.000933	5.6e-05
323.15	0.051	0.001061	6.4e-05
323.15	0.075	0.001416	8.6e-05
323.15	0.097	0.00188	0.000114
323.15	0.124	0.002641	0.00016
323.15	0.157	0.003899	0.000236
323.15	0.197	0.006877	0.000417
323.15	0.227	0.009429	0.000571
328.15	0.023	0.000703	4.3e-05
328.15	0.038	0.000871	5.3e-05
328.15	0.051	0.000982	5.9e-05
328.15	0.075	0.001305	7.9e-05
328.15	0.097	0.001718	0.000104
328.15	0.124	0.0024	0.000145
328.15	0.157	0.003505	0.000212
328.15	0.197	0.006095	0.000369
328.15	0.227	0.008272	0.000501
333.15	0.023	0.000656	4e-05
333.15	0.038	0.000807	4.9e-05
333.15	0.051	0.000913	5.5e-05
333.15	0.075	0.001201	7.3e-05
333.15	0.097	0.001581	9.6e-05
333.15	0.124	0.002186	0.000132
333.15	0.157	0.003163	0.000192
333.15	0.197	0.005346	0.000324
333.15	0.227	0.007316	0.000443
338.15	0.023	0.000632	3.8e-05
338.15	0.038	0.000756	4.6e-05
338.15	0.051	0.000849	5.1e-05
338.15	0.075	0.001135	6.9e-05
338.15	0.097	0.001453	8.8e-05
338.15	0.124	0.002007	0.000121
338.15	0.157	0.002854	0.000173
338.15	0.197	0.004811	0.000291
338.15	0.227	0.006504	0.000394
343.15	0.023	0.000596	3.6e-05
343.15	0.038	0.000716	4.3e-05
343.15	0.051	0.000796	4.8e-05
343.15	0.075	0.001055	6.4e-05
343.15	0.097	0.001339	8.1e-05
343.15	0.124	0.001873	0.000113
343.15	0.157	0.002621	0.000159
343.15	0.197	0.004333	0.000262
343.15	0.227	0.005834	0.000353
348.15	0.023	0.000561	3.4e-05
348.15	0.038	0.000675	4.1e-05
348.15	0.051	0.000749	4.5e-05
348.15	0.075	0.000996	6e-05
348.15	0.097	0.001259	7.6e-05
348.15	0.124	0.001719	0.000104
348.15	0.157	0.002407	0.000146
348.15	0.197	0.003882	0.000235
348.15	0.227	0.005243	0.000318

System: ethyl(2-hydroxyethyl)dimethylammonium bromide + water; phases: Liquid, Gas
Property: Vapor or sublimation pressure, kPa (Liquid); method: Ebulliometric method (Recirculating still)
Temperature, K	Mole fraction of ethyl(2-hydroxyethyl)dimethylammonium bromide	Vapor or sublimation pressure, kPa	uncertainty
338.15	0	25	1
338.15	0.026	23.9	1.1
338.15	0.053	22.8	1.1
338.15	0.075	21.8	1.1
338.15	0.099	20.6	1.1
338.15	0.123	19.3	1
338.15	0.145	18.3	1
338.15	0.164	17.3	1
348.15	0	38.6	1.1
348.15	0.026	36.8	1.1
348.15	0.053	35.2	1.1
348.15	0.077	33.5	1.1
348.15	0.098	31.8	1.1
348.15	0.122	30	1.1
348.15	0.145	28.3	1.1
348.15	0.165	26.8	1.1
348.15	0.185	25.2	1.1
348.15	0.213	23	1.1
348.15	0.231	21.6	1.1
348.15	0.254	19.9	1.1
348.15	0.279	18	1.1
358.15	0	57.8	1.1
358.15	0.027	55.4	1.2
358.15	0.052	52.8	1.2
358.15	0.075	50.2	1.2
358.15	0.098	47.8	1.2
358.15	0.121	45.1	1.2
358.15	0.145	42.4	1.2
358.15	0.167	39.8	1.2
358.15	0.189	37.3	1.2
358.15	0.212	34.5	1.1
358.15	0.232	32.4	1.1
358.15	0.255	29.7	1.1
358.15	0.281	27	1.1
358.15	0.304	24.7	1.1
368.15	0	84.4	1.2
368.15	0.027	80.8	1.3
368.15	0.052	77	1.3
368.15	0.075	73.3	1.3
368.15	0.098	69.6	1.3
368.15	0.121	65.8	1.3
368.15	0.144	61.9	1.3
368.15	0.167	58.3	1.3
368.15	0.187	54.5	1.3
368.15	0.211	50.7	1.2
368.15	0.233	47.3	1.2
368.15	0.257	43.3	1.3
368.15	0.278	39.5	1.2
368.15	0.304	36.3	1.2

System: ethyl(2-hydroxyethyl)dimethylammonium bromide + water; phases: Liquid
Fixed: Pressure, kPa = 101
Property: Mass density, kg/m3 (Liquid); method: Vibrating tube method
Temperature, K	Mole fraction of ethyl(2-hydroxyethyl)dimethylammonium bromide	Mass density, kg/m3	uncertainty
298.15	0.026	1061.1	0.4
298.15	0.049	1103.4	0.4
298.15	0.068	1132.6	0.4
298.15	0.086	1155.4	0.3
298.15	0.119	1190.7	0.3
298.15	0.156	1220	0.3
298.15	0.185	1238.4	0.3
298.15	0.214	1254.1	0.4
298.15	0.257	1273.4	0.4
298.15	0.319	1293.9	0.5
303.15	0.026	1059.2	0.4
303.15	0.049	1101.3	0.4
303.15	0.068	1130.3	0.4
303.15	0.086	1153	0.3
303.15	0.119	1188.1	0.3
303.15	0.156	1217.2	0.3
303.15	0.185	1235.6	0.3
303.15	0.214	1251.3	0.4
303.15	0.257	1270.5	0.4
303.15	0.319	1290.9	0.5
308.15	0.026	1057.2	0.4
308.15	0.049	1099.1	0.4
308.15	0.068	1127.9	0.4
308.15	0.086	1150.4	0.3
308.15	0.119	1185.4	0.3
308.15	0.156	1214.5	0.3
308.15	0.185	1232.8	0.3
308.15	0.214	1248.4	0.4
308.15	0.257	1267.6	0.4
308.15	0.319	1288	0.5
313.15	0.026	1055.1	0.4
313.15	0.049	1096.7	0.4
313.15	0.068	1125.4	0.4
313.15	0.086	1147.9	0.3
313.15	0.119	1182.7	0.3
313.15	0.156	1211.7	0.3
313.15	0.185	1229.9	0.3
313.15	0.214	1245.5	0.4
313.15	0.257	1264.6	0.4
313.15	0.319	1285	0.5
318.15	0.026	1052.6	0.4
318.15	0.049	1093.9	0.4
318.15	0.068	1122.8	0.4
318.15	0.086	1145.2	0.3
318.15	0.119	1179.9	0.3
318.15	0.156	1208.8	0.3
318.15	0.185	1227	0.3
318.15	0.214	1242.5	0.4
318.15	0.257	1261.7	0.4
318.15	0.319	1282	0.5
323.15	0.026	1050.7	0.4
323.15	0.049	1091.4	0.4
323.15	0.068	1120.1	0.4
323.15	0.086	1142.5	0.3
323.15	0.119	1177.1	0.3
323.15	0.156	1205.9	0.3
323.15	0.185	1224.1	0.3
323.15	0.214	1239.6	0.4
323.15	0.257	1258.7	0.4
323.15	0.319	1279	0.5
328.15	0.026	1048.6	0.4
328.15	0.049	1088.9	0.4
328.15	0.068	1117.2	0.4
328.15	0.086	1139.7	0.3
328.15	0.119	1174.2	0.3
328.15	0.156	1203	0.3
328.15	0.185	1221.2	0.3
328.15	0.214	1236.6	0.4
328.15	0.257	1255.7	0.4
328.15	0.319	1276	0.5
333.15	0.026	1046.5	0.4
333.15	0.049	1085.9	0.4
333.15	0.068	1114.5	0.4
333.15	0.086	1136.8	0.3
333.15	0.119	1171.2	0.3
333.15	0.156	1200.1	0.3
333.15	0.185	1218.2	0.3
333.15	0.214	1233.6	0.4
333.15	0.257	1252.7	0.4
333.15	0.319	1273	0.5
338.15	0.026	1044.3	0.4
338.15	0.049	1083.9	0.4
338.15	0.068	1112.2	0.4
338.15	0.086	1134.1	0.3
338.15	0.119	1168.1	0.3
338.15	0.156	1197.1	0.3
338.15	0.185	1215.2	0.3
338.15	0.214	1230.6	0.4
338.15	0.257	1249.7	0.4
338.15	0.319	1270	0.5
343.15	0.026	1042.2	0.4
343.15	0.049	1081.4	0.4
343.15	0.068	1109.6	0.4
343.15	0.086	1131.4	0.3
343.15	0.119	1165.6	0.3
343.15	0.156	1194	0.3
343.15	0.185	1212.1	0.3
343.15	0.214	1227.6	0.4
343.15	0.257	1246.6	0.4
343.15	0.319	1266.9	0.5
348.15	0.026	1040.1	0.4
348.15	0.049	1078.9	0.4
348.15	0.068	1107	0.4
348.15	0.086	1128.3	0.3
348.15	0.119	1162.8	0.3
348.15	0.156	1190.9	0.3
348.15	0.185	1209.4	0.3
348.15	0.214	1224.5	0.4
348.15	0.257	1243.6	0.4
348.15	0.319	1263.9	0.5

System: ethyl(2-hydroxyethyl)dimethylammonium bromide + water; phases: Liquid
Fixed: Pressure, kPa = 101
Property: Viscosity, Pa*s (Liquid); method: Falling or rolling sphere viscometry
Temperature, K	Mole fraction of ethyl(2-hydroxyethyl)dimethylammonium bromide	Viscosity, Pa*s	uncertainty
298.15	0.026	0.001249	7.6e-05
298.15	0.049	0.001613	9.8e-05
298.15	0.068	0.002066	0.000125
298.15	0.086	0.002594	0.000157
298.15	0.119	0.004028	0.000244
298.15	0.156	0.006186	0.000375
298.15	0.185	0.009494	0.000575
298.15	0.214	0.013	0.00079
298.15	0.257	0.02035	0.00123
298.15	0.319	0.03533	0.00214
303.15	0.026	0.001117	6.8e-05
303.15	0.049	0.001463	8.9e-05
303.15	0.068	0.001836	0.000111
303.15	0.086	0.002292	0.000139
303.15	0.119	0.003487	0.000211
303.15	0.156	0.005347	0.000324
303.15	0.185	0.00822	0.000498
303.15	0.214	0.01113	0.00067
303.15	0.257	0.01724	0.00105
303.15	0.319	0.02938	0.00178
308.15	0.026	0.001017	6.2e-05
308.15	0.049	0.001296	7.8e-05
308.15	0.068	0.001645	0.0001
308.15	0.086	0.002046	0.000124
308.15	0.119	0.003095	0.000187
308.15	0.156	0.004593	0.000278
308.15	0.185	0.007127	0.000432
308.15	0.214	0.009581	0.000581
308.15	0.257	0.01463	0.00089
308.15	0.319	0.02438	0.00148
313.15	0.026	0.000917	5.5e-05
313.15	0.049	0.001171	7.1e-05
313.15	0.068	0.001484	9e-05
313.15	0.086	0.001839	0.000111
313.15	0.119	0.002771	0.000168
313.15	0.156	0.004112	0.000249
313.15	0.185	0.006185	0.000375
313.15	0.214	0.008263	0.000501
313.15	0.257	0.01243	0.00075
313.15	0.319	0.02045	0.00124
318.15	0.026	0.000841	5.1e-05
318.15	0.049	0.001068	6.5e-05
318.15	0.068	0.00135	8.2e-05
318.15	0.086	0.001663	0.000101
318.15	0.119	0.002486	0.00015
318.15	0.156	0.003655	0.000221
318.15	0.185	0.005378	0.000326
318.15	0.214	0.00716	0.000434
318.15	0.257	0.01068	0.00065
318.15	0.319	0.0173	0.00105
323.15	0.026	0.000775	4.7e-05
323.15	0.049	0.00098	5.9e-05
323.15	0.068	0.001234	7.5e-05
323.15	0.086	0.001513	9.2e-05
323.15	0.119	0.002242	0.000136
323.15	0.156	0.003307	0.0002
323.15	0.185	0.004688	0.000284
323.15	0.214	0.006248	0.000379
323.15	0.257	0.009249	0.000561
323.15	0.319	0.01491	0.0009
328.15	0.026	0.00072	4.4e-05
328.15	0.049	0.000902	5.5e-05
328.15	0.068	0.001132	6.8e-05
328.15	0.086	0.001382	8.4e-05
328.15	0.119	0.002034	0.000123
328.15	0.156	0.002962	0.000179
328.15	0.185	0.004143	0.000251
328.15	0.214	0.005498	0.000333
328.15	0.257	0.008108	0.000492
328.15	0.319	0.01284	0.00078
333.15	0.026	0.000669	4e-05
333.15	0.049	0.000837	5.1e-05
333.15	0.068	0.001046	6.3e-05
333.15	0.086	0.001273	7.7e-05
333.15	0.119	0.001857	0.000112
333.15	0.156	0.002679	0.000162
333.15	0.185	0.003576	0.000217
333.15	0.214	0.004864	0.000295
333.15	0.257	0.007142	0.000433
333.15	0.319	0.01149	0.0007
338.15	0.026	0.000632	3.8e-05
338.15	0.049	0.000786	4.8e-05
338.15	0.068	0.000965	5.8e-05
338.15	0.086	0.001174	7.1e-05
338.15	0.119	0.001707	0.000103
338.15	0.156	0.002439	0.000148
338.15	0.185	0.003122	0.000189
338.15	0.214	0.004315	0.000261
338.15	0.257	0.00633	0.000384
338.15	0.319	0.01029	0.00062
343.15	0.026	0.000588	3.6e-05
343.15	0.049	0.000737	4.5e-05
343.15	0.068	0.000906	5.5e-05
343.15	0.086	0.001112	6.7e-05
343.15	0.119	0.001569	9.5e-05
343.15	0.156	0.002202	0.000133
343.15	0.185	0.002835	0.000172
343.15	0.214	0.003849	0.000233
343.15	0.257	0.005548	0.000336
343.15	0.319	0.009319	0.000565
348.15	0.026	0.00056	3.4e-05
348.15	0.049	0.000679	4.1e-05
348.15	0.068	0.000853	5.2e-05
348.15	0.086	0.001071	6.5e-05
348.15	0.119	0.001454	8.8e-05
348.15	0.156	0.002022	0.000122
348.15	0.185	0.002576	0.000156
348.15	0.214	0.003479	0.000211
348.15	0.257	0.00496	0.000301
348.15	0.319	0.008658	0.000525
