Measured thermophysical data. Isobaric vapor-liquid equilibrium of ethanenitrile + water + 1,2-ethanediol + 1-ethyl-3-methylimidazolium chloride
Source: Fluid Phase Equilib., 2014, 10.1016/j.fluid.2014.06.025
Compound 1: acetonitrile, C2H3N, InChI=1S/C2H3N/c1-2-3/h1H3, purity 99.5%
Compound 2: water, H2O, InChI=1S/H2O/h1H2, purity 99%

System: acetonitrile + water; phases: Liquid, Gas
Fixed: Pressure, kPa = 102.5
Property: Boiling temperature at pressure P, K (Liquid); method: Ebulliometric method (Recirculating still)
Mole fraction of acetonitrile	Boiling temperature at pressure P, K	uncertainty
0.042	361.2	0.67
0.1872	352	0.55
0.2815	351.15	0.41
0.3901	350.67	0.41
0.4897	350.4	0.41
0.5955	349.95	0.41
0.7024	349.8	0.41
0.7992	350	0.41
0.9266	351.05	0.41

System: acetonitrile + water; phases: Gas, Liquid
Fixed: Pressure, kPa = 102.5
Property: Mole fraction of acetonitrile (Gas); method: Chromatography
Mole fraction of acetonitrile	Mole fraction of acetonitrile	uncertainty
0.042	0.4311	0.015
0.1872	0.6329	0.0122
0.2815	0.648	0.0092
0.3901	0.655	0.0092
0.4897	0.662	0.0091
0.5955	0.6662	0.0092
0.7024	0.6888	0.0094
0.7992	0.726	0.0102
0.9266	0.8181	0.0106
