Measured thermophysical data. Liquid liquid phase equilibria of the ternary system of water/1,4-dioxane/dihydromyrcene
Source: Fluid Phase Equilib., 2009, 10.1016/j.fluid.2009.03.017
Compound 1: 1,4-dioxane, C4H8O2, InChI=1S/C4H8O2/c1-2-6-4-3-5-1/h1-4H2, purity 99.5%
Compound 2: water, H2O, InChI=1S/H2O/h1H2
Compound 3: 3,7-dimethyl-1,6-octadiene, C10H18, InChI=1S/C10H18/c1-5-10(4)8-6-7-9(2)3/h5,7,10H,1,6,8H2,2-4H3, purity 93%

System: 1,4-dioxane; phases: Liquid
Property: Refractive index (Na D-line) (Liquid); method: Standard Abbe refractometry
Temperature, K	Pressure, kPa	Refractive index (Na D-line)	uncertainty
293.1	101.325	1.422	0.0007

System: 1,4-dioxane; phases: Liquid
Property: Mass density, kg/m3 (Liquid); method: Vibrating tube method
Temperature, K	Pressure, kPa	Mass density, kg/m3	uncertainty
298.1	101.325	1025.9	0.1

System: 3,7-dimethyl-1,6-octadiene; phases: Liquid
Property: Refractive index (Na D-line) (Liquid); method: Standard Abbe refractometry
Temperature, K	Pressure, kPa	Refractive index (Na D-line)	uncertainty
293.1	101.325	1.4416	0.0007

System: 3,7-dimethyl-1,6-octadiene; phases: Liquid
Property: Mass density, kg/m3 (Liquid); method: Vibrating tube method
Temperature, K	Pressure, kPa	Mass density, kg/m3	uncertainty
298.1	101.325	766.8	0.2

System: 1,4-dioxane + 3,7-dimethyl-1,6-octadiene + water; phases: Liquid mixture 2, Liquid mixture 1
Fixed: Pressure, kPa = 101.3
Property: Mole fraction of 3,7-dimethyl-1,6-octadiene (Liquid mixture 2); method: Chromatography
Property: Mole fraction of 3,7-dimethyl-1,6-octadiene (Liquid mixture 1); method: Chromatography
Property: Mole fraction of 1,4-dioxane (Liquid mixture 1); method: Chromatography
Temperature, K	Mole fraction of 1,4-dioxane	Mole fraction of 3,7-dimethyl-1,6-octadiene	uncertainty	Mole fraction of 3,7-dimethyl-1,6-octadiene	uncertainty	Mole fraction of 1,4-dioxane	uncertainty
343.15	0.0172	3e-05	1e-05	0.8961	0.001	0.0971	
343.15	0.058	6e-05	1e-05	0.7617	0.0024	0.2277	
343.15	0.0806	0.0001	3e-05	0.6753	0.0033	0.31	
343.15	0.0853	2e-05	2e-05	0.6007	0.004	0.3735	
343.15	0.1362	0.00012	1e-05	0.4875	0.0049	0.4811	
343.15	0.1447	0.0001	1e-05	0.4732	0.0048	0.4895	
343.15	0.2047	0.00059	1e-05	0.3327	0.0034	0.6078	
343.15	0.2566	0.00191	3e-05	0.2554	0.0041	0.6541	
343.15	0.3186	0.00232	4e-05	0.1839	0.0021	0.694	
343.15	0.4336	0.00673	7e-05	0.1268	0.0035	0.6571	
348.15	0.1496	0.00018	1e-05	0.5892	0.0041	0.3996	
348.15	0.1911	0.00031	1e-05	0.4564	0.0046	0.5187	
348.15	0.2834	0.0007	2e-05	0.3713	0.0037	0.5915	
348.15	0.3631	0.00392	0.00011	0.2816	0.0028	0.6573	
348.15	0.4388	0.00669	0.00011	0.225	0.0023	0.6862	
348.15	0.4842	0.01062	0.00013	0.122	0.0012	0.7244	
348.15	0.5445	0.01764	0.00022	0.0903	0.0009	0.7167	
353.15	0.0348	1e-05	1e-05	0.8798	0.0012	0.1085	
353.15	0.0489	4e-05	1e-05	0.7566	0.0024	0.2303	
353.15	0.1009	0.00015	1e-05	0.6079	0.0039	0.3688	
353.15	0.136	0.00025	1e-05	0.5131	0.0049	0.4596	
353.15	0.2085	0.0003	2e-05	0.3083	0.0035	0.6173	
353.15	0.2913	0.00137	5e-05	0.2077	0.0027	0.705	
353.15	0.2772	0.00365	4e-05	0.1448	0.0017	0.7089	
353.15	0.312	0.00407	5e-05	0.121	0.0013	0.6976	
353.15	0.3562	0.00885	9e-05	0.1207	0.0012	0.66	
358.15	0.1009	4e-05	1e-05	0.5668	0.0043	0.4071	
358.15	0.1571	0.0004	1e-05	0.3833	0.0038	0.5664	
358.15	0.261	0.00269	3e-05	0.2548	0.0065	0.6638	
358.15	0.3117	0.00661	7e-05	0.2245	0.0023	0.6775	
358.15	0.3492	0.006	7e-05	0.1789	0.0019	0.6912	
358.15	0.4033	0.00868	0.00011	0.1289	0.0046	0.6667	
358.15	0.4516	0.01928	0.00022	0.082	0.0021	0.6701	
