Measured thermophysical data. Liquid-liquid equilibria of ternary and quaternary systems involving 5-hydroxymethylfurfural, water, organic solvents, and salts at 313.15 K and atmospheric pressure
Source: Fluid Phase Equilib., 2018, 10.1016/j.fluid.2018.07.034
Compound 1: 4-methylpentan-2-one, C6H12O, InChI=1S/C6H12O/c1-5(2)4-6(3)7/h5H,4H2,1-3H3, purity 99%
Compound 2: pentan-2-ol, C5H12O, InChI=1S/C5H12O/c1-3-4-5(2)6/h5-6H,3-4H2,1-2H3, purity 99%
Compound 3: 5-(hydroxymethyl)furan-2-carbaldehyde, C6H6O3, InChI=1S/C6H6O3/c7-3-5-1-2-6(4-8)9-5/h1-3,8H,4H2, purity 99%
Compound 4: water, H2O, InChI=1S/H2O/h1H2, purity 99.9%

System: 4-methylpentan-2-one + 5-(hydroxymethyl)furan-2-carbaldehyde + water; phases: Liquid mixture 2, Liquid mixture 1
Fixed: Temperature, K = 313.15
Fixed: Pressure, kPa = 101
Property: Mass fraction of 4-methylpentan-2-one (Liquid mixture 2); method: Chromatography
Property: Mass fraction of 5-(hydroxymethyl)furan-2-carbaldehyde (Liquid mixture 1); method: Chromatography
Property: Mass fraction of 4-methylpentan-2-one (Liquid mixture 1); method: Chromatography
Mass fraction of 5-(hydroxymethyl)furan-2-carbaldehyde	Mass fraction of 4-methylpentan-2-one	uncertainty	Mass fraction of 5-(hydroxymethyl)furan-2-carbaldehyde	uncertainty	Mass fraction of 4-methylpentan-2-one	uncertainty
0.023	0.0135	0.0012	0.0339	0.0019	0.9403	
0.0426	0.0142	0.0012	0.0587	0.0019	0.9115	
0.0722	0.0157	0.0012	0.0931	0.002	0.867	
0.0911	0.0166	0.0012	0.1128	0.0022	0.8491	
0.1102	0.0194	0.0012	0.1272	0.0021	0.8351	
0.1596	0.0233	0.0012	0.1752	0.0023	0.7809	
0.2037	0.0312	0.0012	0.2138	0.0024	0.7297	
0.2688	0.0313	0.0012	0.2601	0.0026	0.6633	

System: pentan-2-ol + 5-(hydroxymethyl)furan-2-carbaldehyde + water; phases: Liquid mixture 2, Liquid mixture 1
Fixed: Temperature, K = 313.15
Fixed: Pressure, kPa = 101
Property: Mass fraction of pentan-2-ol (Liquid mixture 2); method: Chromatography
Property: Mass fraction of 5-(hydroxymethyl)furan-2-carbaldehyde (Liquid mixture 1); method: Chromatography
Property: Mass fraction of pentan-2-ol (Liquid mixture 1); method: Chromatography
Mass fraction of 5-(hydroxymethyl)furan-2-carbaldehyde	Mass fraction of pentan-2-ol	uncertainty	Mass fraction of 5-(hydroxymethyl)furan-2-carbaldehyde	uncertainty	Mass fraction of pentan-2-ol	uncertainty
0.0208	0.0306	0.0015	0.0403	0.002	0.8419	
0.0339	0.0339	0.0014	0.0649	0.002	0.811	
0.0482	0.0352	0.0014	0.0898	0.002	0.7757	
0.0754	0.0407	0.0017	0.1347	0.0019	0.7144	
0.0783	0.0425	0.0017	0.1394	0.0023	0.7003	
0.1117	0.0437	0.0014	0.1852	0.0024	0.6589	
0.1326	0.049	0.0015	0.2095	0.0023	0.6179	
0.2127	0.0337	0.0015	0.2803	0.0027	0.485	
