Measured thermophysical data. Dew points of pure DBN and DBU and vapor-liquid equilibria of water + DBN and water + DBU systems for cellulose solvent recycling
Source: Fluid Phase Equilib., 2016, 10.1016/j.fluid.2015.08.008
Compound 1: 1,5-diazabicyclo[4.3.0]non-5-ene, C7H12N2, InChI=1S/C7H12N2/c1-3-7-8-4-2-6-9(7)5-1/h1-6H2, purity 99%
Compound 2: 1,8-diaza-7-bicyclo[5.4.0]undecene, C9H16N2, InChI=1S/C9H16N2/c1-2-5-9-10-6-4-8-11(9)7-3-1/h1-8H2, purity 99%
Compound 3: water, H2O, InChI=1S/H2O/h1H2, purity 99.8%

System: 1,5-diazabicyclo[4.3.0]non-5-ene; phases: Liquid, Gas
Property: Boiling temperature at pressure P, K (Liquid); method: distillation unit - dew point temperature
Pressure, kPa	Boiling temperature at pressure P, K	uncertainty
0.71	358.84	19.82
0.91	364.01	17.86
0.92	364.61	17.33
1.39	371.35	12.68
1.41	372.05	12.29
1.87	379.14	13.62
2.81	387.2	8.07
2.86	387.81	8.1
3.37	390.96	7.46
3.88	393.33	6.39
5.11	400.15	6.15
5.53	402.06	5.35
6.11	404.85	4.61
7.15	407.93	4.51
8.11	412.15	4.24
9.4	415.55	3.45
10.12	417.65	3.52
12.14	422.75	3.59

System: 1,5-diazabicyclo[4.3.0]non-5-ene; phases: Liquid
Fixed: Pressure, kPa = 101.325
Property: Mass density, kg/m3 (Liquid); method: Vibrating tube method
Temperature, K	Mass density, kg/m3	uncertainty
293.151	1037.585	0.065
298.149	1033.583	0.063
303.149	1029.562	0.061
308.15	1025.522	0.06
313.152	1021.486	0.058
318.15	1017.405	0.056
323.149	1013.327	0.054

System: 1,8-diaza-7-bicyclo[5.4.0]undecene; phases: Liquid, Gas
Property: Boiling temperature at pressure P, K (Liquid); method: distillation unit - dew point temperature
Pressure, kPa	Boiling temperature at pressure P, K	uncertainty
0.51	375.77	24.88
0.71	383.45	19.71
1.01	389.4	16.49
1.31	395.15	13.51
1.51	397.75	18.88
1.71	400.85	14.36
2.01	403.95	13.38
2.31	407.05	12
2.51	409	10.99
3.01	412.87	9.83
3.31	416.15	9.25
3.51	416.95	8.76
4.01	421.02	8.19
4.21	422.22	6.81
4.51	424.13	6.38
5.01	426.92	5.85
5.31	427.85	5.81
6.31	432.45	5.69
7.31	437.2	5.91

System: 1,5-diazabicyclo[4.3.0]non-5-ene + water; phases: Liquid, Gas
Property: Vapor or sublimation pressure, kPa (Liquid); method: Closed cell (Static) method
Temperature, K	Mole fraction of water	Vapor or sublimation pressure, kPa	uncertainty
331.48	1	18.3	1.2
331.48	0.9928	18.1	1.2
331.49	0.9704	17.8	1.2
331.48	0.95	17.4	1.2
331.47	0.9038	16.1	1.2
331.48	0.8585	14.4	1.2
331.48	0.8123	12.6	1.2
331.48	0.7653	11.1	1.2
331.48	0.7144	9.6	1.2
331.48	0.6677	8.4	1.2
331.48	0.6201	7.2	1.2
331.48	0.5717	6.2	1.2
331.48	0.5228	5.3	1.2
331.49	0.0591	0.4	1.2
331.48	0.106	0.6	1.2
331.48	0.1531	0.8	1.2
331.48	0.1998	1.1	1.2
331.49	0.249	1.5	1.2
331.48	0.2982	2	1.2
331.49	0.3463	2.5	1.2
331.48	0.3943	3.2	1.2
331.49	0.4419	4.1	1.2
331.48	0	0.1	1.2
349.97	1	40.8	1.2
349.96	0.9817	40.4	1.2
349.96	0.9673	40	1.2
349.96	0.9431	38.9	1.2
349.97	0.8951	35.6	1.2
349.97	0.8424	30.9	1.2
349.97	0.7911	26.9	1.2
349.97	0.7408	23.3	1.2
349.96	0.6914	20.1	1.2
349.96	0.6423	17.2	1.2
349.96	0.593	14.5	1.2
349.96	0.5431	12.1	1.2
349.96	0.4937	10	1.2
349.95	0.062	0.9	1.2
349.95	0.1033	1.4	1.2
349.95	0.1519	2.1	1.2
349.95	0.2018	2.9	1.2
349.95	0.2489	3.8	1.2
349.95	0.2973	5	1.2
349.96	0	0.4	1.2
312.71	0.8239	4.4	0.6
312.71	0.8725	5.3	0.6
312.71	0.9106	6.2	0.6
312.71	0.9644	7	0.6
322.49	0.8239	7.5	0.6
322.49	0.8725	9.1	0.6
322.49	0.9106	10.6	0.6
322.49	0.9644	11.6	0.6
332.49	0.8238	12.4	0.6
332.49	0.8725	14.9	0.6
332.49	0.9106	16.8	0.6
332.49	0.9644	18.6	0.6
342.08	0.8238	19.8	0.6
342.08	0.8725	23.6	0.6
342.08	0.9106	26	0.6
342.08	0.9644	28.8	0.6
352.1	0.8238	30.7	0.6
352.1	0.8724	36.3	0.6
352.1	0.9106	40	0.6
352.1	0.9644	43.9	0.6

System: 1,5-diazabicyclo[4.3.0]non-5-ene + water; phases: Gas, Liquid
Property: Mole fraction of water (Gas); method: Model Smoothing
Temperature, K	Mole fraction of water	Mole fraction of water	uncertainty
331.48	1	1	
331.48	0.9928	1	
331.49	0.9704	1	
331.48	0.95	1	
331.47	0.9038	0.9999	0.0001
331.48	0.8585	0.9997	0.0001
331.48	0.8123	0.9995	0.0001
331.48	0.7653	0.999	0.0001
331.48	0.7144	0.9982	0.0001
331.48	0.6677	0.9972	0.0001
331.48	0.6201	0.9959	0.0001
331.48	0.5717	0.9941	0.0001
331.48	0.5228	0.9916	0.0001
331.49	0.0591	0.661	0.0011
331.48	0.106	0.7953	0.0007
331.48	0.1531	0.8668	0.0005
331.48	0.1998	0.91	0.0004
331.49	0.249	0.9394	0.0002
331.48	0.2982	0.9585	0.0002
331.49	0.3463	0.971	0.0001
331.48	0.3943	0.9795	0.0001
331.49	0.4419	0.9853	0.0001
331.48	0	0	
349.97	1	1	
349.96	0.9817	1	
349.96	0.9673	1	
349.96	0.9431	1	
349.97	0.8951	0.9998	0.0001
349.97	0.8424	0.9995	0.0001
349.97	0.7911	0.999	0.0001
349.97	0.7408	0.9982	0.0001
349.96	0.6914	0.997	0.0001
349.96	0.6423	0.9953	0.0001
349.96	0.593	0.9931	0.0001
349.96	0.5431	0.9901	0.0001
349.96	0.4937	0.9861	0.0001
349.95	0.062	0.601	0.0013
349.95	0.1033	0.7337	0.0009
349.95	0.1519	0.8248	0.0007
349.95	0.2018	0.883	0.0005
349.95	0.2489	0.919	0.0003
349.95	0.2973	0.9438	0.0002
349.96	0	0	
312.71	0.8239	0.9997	0.0001
312.71	0.8725	0.9999	0.0001
312.71	0.9106	0.9999	0.0001
312.71	0.9644	1	
322.49	0.8239	0.9996	0.0001
322.49	0.8725	0.9998	0.0001
322.49	0.9106	0.9999	0.0001
322.49	0.9644	1	
332.49	0.8238	0.9995	0.0001
332.49	0.8725	0.9998	0.0001
332.49	0.9106	0.9999	0.0001
332.49	0.9644	1	
342.08	0.8238	0.9995	0.0001
342.08	0.8725	0.9998	0.0001
342.08	0.9106	0.9999	0.0001
342.08	0.9644	1	
352.1	0.8238	0.9994	0.0001
352.1	0.8724	0.9997	0.0001
352.1	0.9106	0.9999	0.0001
352.1	0.9644	1	

System: 1,8-diaza-7-bicyclo[5.4.0]undecene + water; phases: Liquid, Gas
Property: Vapor or sublimation pressure, kPa (Liquid); method: Closed cell (Static) method
Temperature, K	Mole fraction of water	Vapor or sublimation pressure, kPa	uncertainty
331.39	0	0.04	1.2
331.4	0.2006	1.6	1.2
331.43	0.3108	3.1	1.2
331.42	0.3951	4.6	1.2
331.38	0.5141	6.8	1.2
331.4	0.594	8.2	1.2
331.41	0.6943	10.4	1.2
331.41	0.8186	13.6	1.2
331.41	0.8857	15.9	1.2
331.39	0.9137	16.7	1.2
349.96	1	41.4	1.2
349.95	0.9807	40.7	1.2
349.99	0.9563	39.8	1.2
350.01	0.9271	38.5	1.2
350.02	0.8983	36.4	1.2
350.02	0.8092	29.1	1.2
350.02	0.7264	22.7	1.2
349.81	0	0.14	1.2
349.87	0.107	2.9	1.2
349.89	0.2096	4.5	1.2
349.98	0.3013	6.7	1.2
349.88	0.4529	11.7	1.2
312.81	0.8187	5.4	0.6
312.81	0.8729	5.9	0.6
312.81	0.9111	6.6	0.6
312.81	0.9618	7	0.6
322.64	0.8187	8.9	0.6
322.64	0.8728	9.9	0.6
322.64	0.9111	11	0.6
322.64	0.9618	11.6	0.6
332.52	0.8187	14.5	0.6
332.52	0.8728	16.2	0.6
332.52	0.9111	17.6	0.6
332.52	0.9618	18.7	0.6
342.44	0.8187	22.6	0.6
342.44	0.8728	25.7	0.6
342.44	0.911	27.7	0.6
342.44	0.9618	29.3	0.6
352.34	0.8186	34.5	0.6
352.34	0.8727	39.2	0.6
352.34	0.911	42	0.6
352.34	0.9618	44.3	0.6

System: 1,8-diaza-7-bicyclo[5.4.0]undecene + water; phases: Gas, Liquid
Property: Mole fraction of water (Gas); method: Model Smoothing
Temperature, K	Mole fraction of water	Mole fraction of water	uncertainty
331.39	0	0	
331.4	0.2006	0.9812	0.0006
331.43	0.3108	0.9904	0.0001
331.42	0.3951	0.9946	0.0001
331.38	0.5141	0.9976	0.0001
331.4	0.594	0.9985	0.0001
331.41	0.6943	0.9992	0.0001
331.41	0.8186	0.9997	0.0001
331.41	0.8857	0.9999	0.0001
331.39	0.9137	0.9999	0.0001
349.96	1	1	
349.95	0.9807	1	
349.99	0.9563	1	
350.01	0.9271	0.9999	0.0001
350.02	0.8983	0.9999	0.0001
350.02	0.8092	0.9996	0.0001
350.02	0.7264	0.9991	0.0001
349.81	0	0	
349.87	0.107	0.9585	0.0004
349.89	0.2096	0.9751	0.0001
349.98	0.3013	0.9857	0.0001
349.88	0.4529	0.9949	0.0001
312.81	0.8187	0.9998	0.0001
312.81	0.8729	0.9999	0.0001
312.81	0.9111	1	
312.81	0.9618	1	
322.64	0.8187	0.9998	0.0001
322.64	0.8728	0.9999	0.0001
322.64	0.9111	0.9999	0.0001
322.64	0.9618	1	
332.52	0.8187	0.9997	0.0001
332.52	0.8728	0.9999	0.0001
332.52	0.9111	0.9999	0.0001
332.52	0.9618	1	
342.44	0.8187	0.9997	0.0001
342.44	0.8728	0.9998	0.0001
342.44	0.911	0.9999	0.0001
342.44	0.9618	1	
352.34	0.8186	0.9996	0.0001
352.34	0.8727	0.9998	0.0001
352.34	0.911	0.9999	0.0001
352.34	0.9618	1	
