Measured thermophysical data. Study of the suitability of two ammonium-based ionic liquids for the extraction of benzene from its mixtures with aliphatic hydrocarbons.
Source: Fluid Phase Equilib., 2016, 10.1016/j.fluid.2016.02.006
Compound 1: butyltrimethylammonium bis(trifluoromethylsulfonyl)imide, C9H18F6N2O4S2, InChI=1S/C7H18N.C2F6NO4S2/c1-5-6-7-8(2,3)4;3-1(4,5)14(10,11)9-15(12,13)2(6,7)8/h5-7H2,1-4H3;/q+1;-1, purity 99%
Compound 2: tributylmethylammonium bis((trifluoromethyl)sulfonyl)imide, C15H30F6N2O4S2, InChI=1S/C13H30N.C2F6NO4S2/c1-5-8-11-14(4,12-9-6-2)13-10-7-3;3-1(4,5)14(10,11)9-15(12,13)2(6,7)8/h5-13H2,1-4H3;/q+1;-1, purity 99%
Compound 3: benzene, C6H6, InChI=1S/C6H6/c1-2-4-6-5-3-1/h1-6H, purity 99.9%
Compound 4: octane, C8H18, InChI=1S/C8H18/c1-3-5-7-8-6-4-2/h3-8H2,1-2H3, purity 99%
Compound 5: decane, C10H22, InChI=1S/C10H22/c1-3-5-7-9-10-8-6-4-2/h3-10H2,1-2H3, purity 99%
Compound 6: dodecane, C12H26, InChI=1S/C12H26/c1-3-5-7-9-11-12-10-8-6-4-2/h3-12H2,1-2H3, purity 99%

System: butyltrimethylammonium bis(trifluoromethylsulfonyl)imide; phases: Liquid
Property: Mass density, kg/m3 (Liquid); method: Vibrating tube method
Temperature, K	Pressure, kPa	Mass density, kg/m3	uncertainty
298.15	101.325	1392.99	6.02

System: tributylmethylammonium bis((trifluoromethyl)sulfonyl)imide; phases: Liquid
Property: Mass density, kg/m3 (Liquid); method: Vibrating tube method
Temperature, K	Pressure, kPa	Mass density, kg/m3	uncertainty
298.15	101.325	1261.65	6.01

System: benzene; phases: Liquid
Property: Mass density, kg/m3 (Liquid); method: Vibrating tube method
Temperature, K	Pressure, kPa	Mass density, kg/m3	uncertainty
298.15	101.325	873.71	2

System: benzene; phases: Liquid
Fixed: Pressure, kPa = 101
Property: Mass density, kg/m3 (Liquid); method: Vibrating tube method
Temperature, K	Mass density, kg/m3	uncertainty
308.15	862.98	2
318.15	852.16	2

System: octane; phases: Liquid
Property: Mass density, kg/m3 (Liquid); method: Vibrating tube method
Temperature, K	Pressure, kPa	Mass density, kg/m3	uncertainty
298.15	101.325	698.86	2.01

System: octane; phases: Liquid
Fixed: Pressure, kPa = 101
Property: Mass density, kg/m3 (Liquid); method: Vibrating tube method
Temperature, K	Mass density, kg/m3	uncertainty
308.15	690.72	2.01
318.15	682.5	2.01

System: decane; phases: Liquid
Property: Mass density, kg/m3 (Liquid); method: Vibrating tube method
Temperature, K	Pressure, kPa	Mass density, kg/m3	uncertainty
298.15	101.325	726.15	2.01

System: dodecane; phases: Liquid
Property: Mass density, kg/m3 (Liquid); method: Vibrating tube method
Temperature, K	Pressure, kPa	Mass density, kg/m3	uncertainty
298.15	101.325	745.28	2.01

System: benzene + octane; phases: Liquid
Fixed: Pressure, kPa = 101
Property: Mass density, kg/m3 (Liquid); method: Vibrating tube method
Temperature, K	Mole fraction of octane	Mass density, kg/m3	uncertainty
308.15	1	690.72	2.01
308.15	0.9076	698.91	2.4
308.15	0.8101	708.42	2.48
308.15	0.711	719.36	2.59
308.15	0.6058	732.34	2.72
308.15	0.5097	745.81	2.92
308.15	0.41	762.04	3.17
308.15	0.3048	781.74	3.5
308.15	0.1937	806.43	3.94
308.15	0.0959	832.4	4.55
308.15	0	862.98	2
318.15	1	682.5	2.01
318.15	0.9005	691.19	2.39
318.15	0.8039	700.49	2.48
318.15	0.7048	711.47	2.58
318.15	0.598	724.35	2.7
318.15	0.5096	736.77	2.91
318.15	0.407	753.05	3.13
318.15	0.3072	771.56	3.54
318.15	0.1982	796.48	3.9
318.15	0.0988	821.33	4.41
318.15	0	852.16	2

System: benzene + octane + butyltrimethylammonium bis(trifluoromethylsulfonyl)imide; phases: Liquid mixture 2, Liquid mixture 1
Fixed: Temperature, K = 298.15
Fixed: Pressure, kPa = 101
Property: Mole fraction of octane (Liquid mixture 2); method: Density calibration data
Property: Mole fraction of benzene (Liquid mixture 1); method: Density calibration data
Property: Mole fraction of octane (Liquid mixture 1); method: Density calibration data
Mole fraction of benzene	Mole fraction of octane	uncertainty	Mole fraction of benzene	uncertainty	Mole fraction of octane	uncertainty
0.056	0.033	0.014	0.041	0.02	0.959	
0.126	0.025	0.014	0.103	0.02	0.897	
0.177	0.025	0.014	0.153	0.02	0.847	
0.225	0.028	0.014	0.203	0.02	0.797	
0.271	0.03	0.014	0.255	0.021	0.745	
0.318	0.033	0.014	0.309	0.021	0.691	
0.355	0.034	0.014	0.35	0.021	0.65	
0.406	0.034	0.014	0.417	0.022	0.583	
0.448	0.034	0.014	0.476	0.022	0.524	
0.488	0.032	0.014	0.54	0.022	0.46	
0.542	0.029	0.014	0.628	0.021	0.372	
0.588	0.029	0.014	0.725	0.021	0.275	
0.629	0.019	0.014	0.799	0.02	0.201	
0.673	0.016	0.014	0.859	0.02	0.141	
0.719	0.009	0.009	0.928	0.02	0.072	

System: benzene + decane + butyltrimethylammonium bis(trifluoromethylsulfonyl)imide; phases: Liquid mixture 2, Liquid mixture 1
Fixed: Temperature, K = 298.15
Fixed: Pressure, kPa = 101
Property: Mole fraction of decane (Liquid mixture 2); method: Density calibration data
Property: Mole fraction of benzene (Liquid mixture 1); method: Density calibration data
Property: Mole fraction of decane (Liquid mixture 1); method: Density calibration data
Mole fraction of benzene	Mole fraction of decane	uncertainty	Mole fraction of benzene	uncertainty	Mole fraction of decane	uncertainty
0.021	0.024	0.014	0.015	0.015	0.985	
0.084	0.026	0.014	0.063	0.02	0.937	
0.161	0.027	0.014	0.131	0.02	0.869	
0.248	0.027	0.014	0.238	0.02	0.762	
0.38	0.023	0.014	0.408	0.022	0.592	
0.437	0.02	0.014	0.484	0.022	0.516	
0.516	0.017	0.014	0.599	0.022	0.401	
0.59	0.012	0.012	0.718	0.021	0.282	
0.678	0.007	0.007	0.843	0.02	0.157	
0.721	0.005	0.005	0.91	0.02	0.09	

System: benzene + dodecane + butyltrimethylammonium bis(trifluoromethylsulfonyl)imide; phases: Liquid mixture 2, Liquid mixture 1
Fixed: Temperature, K = 298.15
Fixed: Pressure, kPa = 101
Property: Mole fraction of dodecane (Liquid mixture 2); method: Chromatography
Property: Mole fraction of benzene (Liquid mixture 1); method: Chromatography
Property: Mole fraction of dodecane (Liquid mixture 1); method: Chromatography
Mole fraction of benzene	Mole fraction of dodecane	uncertainty	Mole fraction of benzene	uncertainty	Mole fraction of dodecane	uncertainty
0.097	0.006	0.006	0.1	0.011	0.9	
0.137	0.007	0.007	0.143	0.011	0.857	
0.212	0.007	0.007	0.226	0.011	0.774	
0.278	0.007	0.007	0.302	0.012	0.698	
0.34	0.007	0.007	0.375	0.012	0.625	
0.4	0.007	0.007	0.451	0.012	0.549	
0.506	0.006	0.006	0.589	0.012	0.411	
0.58	0.005	0.005	0.703	0.012	0.297	
0.662	0.005	0.005	0.854	0.011	0.146	
0.694	0.005	0.005	0.929	0.011	0.071	

System: benzene + dodecane + tributylmethylammonium bis((trifluoromethyl)sulfonyl)imide; phases: Liquid mixture 2, Liquid mixture 1
Fixed: Temperature, K = 298.15
Fixed: Pressure, kPa = 101
Property: Mole fraction of dodecane (Liquid mixture 2); method: Chromatography
Property: Mole fraction of benzene (Liquid mixture 1); method: Chromatography
Property: Mole fraction of dodecane (Liquid mixture 1); method: Chromatography
Mole fraction of benzene	Mole fraction of dodecane	uncertainty	Mole fraction of benzene	uncertainty	Mole fraction of dodecane	uncertainty
0.09	0.023	0.008	0.065	0.011	0.935	
0.152	0.022	0.008	0.115	0.011	0.885	
0.256	0.019	0.008	0.213	0.011	0.787	
0.375	0.018	0.008	0.342	0.012	0.658	
0.466	0.016	0.008	0.454	0.012	0.546	
0.536	0.014	0.008	0.577	0.012	0.423	
0.61	0.012	0.008	0.708	0.012	0.292	
0.661	0.011	0.008	0.797	0.011	0.203	
0.723	0.009	0.008	0.906	0.011	0.094	

System: benzene + octane + tributylmethylammonium bis((trifluoromethyl)sulfonyl)imide; phases: Liquid mixture 1, Liquid mixture 2
Fixed: Pressure, kPa = 101
Property: Mole fraction of octane (Liquid mixture 1); method: Density calibration data
Property: Mole fraction of octane (Liquid mixture 2); method: Density calibration data
Property: Mole fraction of benzene (Liquid mixture 2); method: Density calibration data
Temperature, K	Mole fraction of benzene	Mole fraction of octane	uncertainty	Mole fraction of octane	uncertainty	Mole fraction of benzene	uncertainty
298.15	0.03	0.97	0.02	0.091	0.014	0.092	
298.15	0.932	0.068	0.02	0.028	0.015	0.809	
308.15	0.014	0.986	0.014	0.119	0.014	0.03	
308.15	0.075	0.925	0.02	0.112	0.014	0.145	
308.15	0.164	0.836	0.02	0.1	0.014	0.277	
308.15	0.274	0.726	0.021	0.093	0.014	0.396	
308.15	0.38	0.62	0.021	0.083	0.014	0.499	
308.15	0.49	0.51	0.022	0.077	0.014	0.557	
308.15	0.598	0.402	0.022	0.067	0.014	0.626	
308.15	0.724	0.276	0.021	0.056	0.014	0.693	
308.15	0.828	0.172	0.02	0.045	0.014	0.76	
298.15	0.067	0.933	0.02	0.089	0.014	0.169	
308.15	0.93	0.07	0.02	0.023	0.015	0.801	
318.15	0.048	0.952	0.02	0.112	0.014	0.11	
318.15	0.1	0.9	0.02	0.103	0.014	0.186	
318.15	0.161	0.839	0.02	0.101	0.014	0.269	
318.15	0.265	0.735	0.021	0.093	0.014	0.384	
318.15	0.361	0.639	0.021	0.084	0.014	0.47	
318.15	0.462	0.538	0.022	0.076	0.014	0.543	
318.15	0.579	0.421	0.022	0.062	0.014	0.646	
318.15	0.693	0.307	0.021	0.054	0.014	0.702	
318.15	0.863	0.137	0.02	0.034	0.017	0.812	
298.15	0.167	0.833	0.02	0.089	0.014	0.3	
318.15	0.933	0.067	0.02	0.019	0.017	0.833	
298.15	0.273	0.727	0.021	0.081	0.014	0.418	
298.15	0.373	0.627	0.021	0.071	0.014	0.51	
298.15	0.48	0.52	0.022	0.074	0.014	0.579	
298.15	0.599	0.401	0.022	0.063	0.014	0.638	
298.15	0.729	0.271	0.021	0.052	0.014	0.705	
298.15	0.862	0.138	0.02	0.046	0.014	0.758	
