Measured thermophysical data. Measurements of activity coefficients at infinite dilution for organic solutes in two quaternary ammonium-based ionic liquids [DDA][ClO4] and [DDA][BF4]
Source: Fluid Phase Equilib., 2019, 10.1016/j.fluid.2018.11.011
Compound 1: didecyldimethylammonium perchlorate, C22H48ClNO4, InChI=1S/C22H48N.ClHO4/c1-5-7-9-11-13-15-17-19-21-23(3,4)22-20-18-16-14-12-10-8-6-2;2-1(3,4)5/h5-22H2,1-4H3;(H,2,3,4,5)/q+1;/p-1, purity 98.5%
Compound 2: didecyldimethylammonium tetrafluoroborate, C22H48BF4N, InChI=1S/C22H48N.BF4/c1-5-7-9-11-13-15-17-19-21-23(3,4)22-20-18-16-14-12-10-8-6-2;2-1(3,4)5/h5-22H2,1-4H3;/q+1;-1, purity 99%
Compound 3: butane, C4H10, InChI=1S/C4H10/c1-3-4-2/h3-4H2,1-2H3, purity 99%
Compound 4: pentane, C5H12, InChI=1S/C5H12/c1-3-5-4-2/h3-5H2,1-2H3, purity 99%
Compound 5: hexane, C6H14, InChI=1S/C6H14/c1-3-5-6-4-2/h3-6H2,1-2H3, purity 99%
Compound 6: heptane, C7H16, InChI=1S/C7H16/c1-3-5-7-6-4-2/h3-7H2,1-2H3, purity 99.7%
Compound 7: octane, C8H18, InChI=1S/C8H18/c1-3-5-7-8-6-4-2/h3-8H2,1-2H3, purity 99.7%
Compound 8: 1-pentene, C5H10, InChI=1S/C5H10/c1-3-5-4-2/h3H,1,4-5H2,2H3, purity 99.5%
Compound 9: hex-1-ene, C6H12, InChI=1S/C6H12/c1-3-5-6-4-2/h3H,1,4-6H2,2H3, purity 99.8%
Compound 10: 1-heptene, C7H14, InChI=1S/C7H14/c1-3-5-7-6-4-2/h3H,1,4-7H2,2H3, purity 99%
Compound 11: oct-1-ene, C8H16, InChI=1S/C8H16/c1-3-5-7-8-6-4-2/h3H,1,4-8H2,2H3, purity 99.5%
Compound 12: 1-hexyne, C6H10, InChI=1S/C6H10/c1-3-5-6-4-2/h1H,4-6H2,2H3, purity 97%
Compound 13: 1-heptyne, C7H12, InChI=1S/C7H12/c1-3-5-7-6-4-2/h1H,4-7H2,2H3, purity 98%
Compound 14: cyclopentane, C5H10, InChI=1S/C5H10/c1-2-4-5-3-1/h1-5H2, purity 99%
Compound 15: cyclohexane, C6H12, InChI=1S/C6H12/c1-2-4-6-5-3-1/h1-6H2, purity 99.5%
Compound 16: cycloheptane, C7H14, InChI=1S/C7H14/c1-2-4-6-7-5-3-1/h1-7H2, purity 98%
Compound 17: (E)-3-methyl-2-pentene, C6H12, InChI=1S/C6H12/c1-4-6(3)5-2/h4H,5H2,1-3H3/b6-4+, purity 98%
Compound 18: (E)-4-methyl-2-pentene, C6H12, InChI=1S/C6H12/c1-4-5-6(2)3/h4-6H,1-3H3/b5-4+, purity 98%
Compound 19: diethyl ether, C4H10O, InChI=1S/C4H10O/c1-3-5-4-2/h3-4H2,1-2H3, purity 99.7%
Compound 20: dibutyl ether, C8H18O, InChI=1S/C8H18O/c1-3-5-7-9-8-6-4-2/h3-8H2,1-2H3, purity 99.3%
Compound 21: tetrahydrofuran, C4H8O, InChI=1S/C4H8O/c1-2-4-5-3-1/h1-4H2, purity 99.9%
Compound 22: methanol, CH4O, InChI=1S/CH4O/c1-2/h2H,1H3, purity 99.9%
Compound 23: ethanol, C2H6O, InChI=1S/C2H6O/c1-2-3/h3H,2H2,1H3, purity 99.5%
Compound 24: propan-2-ol, C3H8O, InChI=1S/C3H8O/c1-3(2)4/h3-4H,1-2H3, purity 99.5%
Compound 25: acetone, C3H6O, InChI=1S/C3H6O/c1-3(2)4/h1-2H3, purity 99.9%
Compound 26: butanone, C4H8O, InChI=1S/C4H8O/c1-3-4(2)5/h3H2,1-2H3, purity 99%
Compound 27: cyclohexanone, C6H10O, InChI=1S/C6H10O/c7-6-4-2-1-3-5-6/h1-5H2, purity 99.5%
Compound 28: trichloromethane, CHCl3, InChI=1S/CHCl3/c2-1(3)4/h1H, purity 99.9%
Compound 29: benzene, C6H6, InChI=1S/C6H6/c1-2-4-6-5-3-1/h1-6H, purity 99.9%
Compound 30: acetonitrile, C2H3N, InChI=1S/C2H3N/c1-2-3/h1H3, purity 99.8%
Compound 31: 1,2-dichloroethane, C2H4Cl2, InChI=1S/C2H4Cl2/c3-1-2-4/h1-2H2, purity 99.8%

System: didecyldimethylammonium perchlorate + butane; phases: Liquid
Fixed: Mole fraction of butane = 0
Fixed: Pressure, kPa = 101.325
Property: Activity coefficient of butane (Liquid); method: Chromatography
Temperature, K	Activity coefficient of butane	uncertainty
308	1.364	0.141
323	1.32	0.136
338	1.279	0.131
353	1.235	0.127

System: didecyldimethylammonium perchlorate + pentane; phases: Liquid
Fixed: Mole fraction of pentane = 0
Fixed: Pressure, kPa = 101.325
Property: Activity coefficient of pentane (Liquid); method: Chromatography
Temperature, K	Activity coefficient of pentane	uncertainty
308	1.766	0.184
323	1.592	0.165
338	1.436	0.149
353	1.281	0.132

System: didecyldimethylammonium perchlorate + hexane; phases: Liquid
Fixed: Mole fraction of hexane = 0
Fixed: Pressure, kPa = 101.325
Property: Activity coefficient of hexane (Liquid); method: Chromatography
Temperature, K	Activity coefficient of hexane	uncertainty
308	2.491	0.262
323	2.477	0.26
338	2.471	0.26
353	2.453	0.258

System: didecyldimethylammonium perchlorate + heptane; phases: Liquid
Fixed: Mole fraction of heptane = 0
Fixed: Pressure, kPa = 101.325
Property: Activity coefficient of heptane (Liquid); method: Chromatography
Temperature, K	Activity coefficient of heptane	uncertainty
308	3.113	0.327
323	2.957	0.311
338	2.85	0.299
353	2.669	0.28

System: didecyldimethylammonium perchlorate + octane; phases: Liquid
Fixed: Mole fraction of octane = 0
Fixed: Pressure, kPa = 101.325
Property: Activity coefficient of octane (Liquid); method: Chromatography
Temperature, K	Activity coefficient of octane	uncertainty
308	3.975	0.418
323	3.689	0.388
338	3.425	0.36
353	3.159	0.332

System: didecyldimethylammonium perchlorate + 1-pentene; phases: Liquid
Fixed: Mole fraction of 1-pentene = 0
Fixed: Pressure, kPa = 101.325
Property: Activity coefficient of 1-pentene (Liquid); method: Chromatography
Temperature, K	Activity coefficient of 1-pentene	uncertainty
308	1.882	0.197
323	1.561	0.162
338	1.37	0.141
353	1.306	0.134

System: didecyldimethylammonium perchlorate + hex-1-ene; phases: Liquid
Fixed: Mole fraction of hex-1-ene = 0
Fixed: Pressure, kPa = 101.325
Property: Activity coefficient of hex-1-ene (Liquid); method: Chromatography
Temperature, K	Activity coefficient of hex-1-ene	uncertainty
308	2.278	0.24
323	1.559	0.162
338	1.803	0.188
353	1.725	0.18

System: didecyldimethylammonium perchlorate + 1-heptene; phases: Liquid
Fixed: Mole fraction of 1-heptene = 0
Fixed: Pressure, kPa = 101.325
Property: Activity coefficient of 1-heptene (Liquid); method: Chromatography
Temperature, K	Activity coefficient of 1-heptene	uncertainty
308	2.691	0.284
323	1.849	0.193
338	2.235	0.235
353	2.147	0.225

System: didecyldimethylammonium perchlorate + oct-1-ene; phases: Liquid
Fixed: Mole fraction of oct-1-ene = 0
Fixed: Pressure, kPa = 101.325
Property: Activity coefficient of oct-1-ene (Liquid); method: Chromatography
Temperature, K	Activity coefficient of oct-1-ene	uncertainty
308	1.103	0.113
323	0.999	0.101
338	1.045	0.106
353	0.938	0.096

System: didecyldimethylammonium perchlorate + 1-hexyne; phases: Liquid
Fixed: Mole fraction of 1-hexyne = 0
Fixed: Pressure, kPa = 101.325
Property: Activity coefficient of 1-hexyne (Liquid); method: Chromatography
Temperature, K	Activity coefficient of 1-hexyne	uncertainty
308	0.732	0.076
323	0.83	0.085
338	0.989	0.101
353	0.969	0.099

System: didecyldimethylammonium perchlorate + 1-heptyne; phases: Liquid
Fixed: Mole fraction of 1-heptyne = 0
Fixed: Pressure, kPa = 101.325
Property: Activity coefficient of 1-heptyne (Liquid); method: Chromatography
Temperature, K	Activity coefficient of 1-heptyne	uncertainty
308	1.14	0.117
323	1.096	0.112
338	1.172	0.12
353	1.182	0.121

System: didecyldimethylammonium perchlorate + cyclopentane; phases: Liquid
Fixed: Mole fraction of cyclopentane = 0
Fixed: Pressure, kPa = 101.325
Property: Activity coefficient of cyclopentane (Liquid); method: Chromatography
Temperature, K	Activity coefficient of cyclopentane	uncertainty
308	1.475	0.153
323	1.159	0.119
338	1.261	0.13
353	1.193	0.122

System: didecyldimethylammonium perchlorate + cyclohexane; phases: Liquid
Fixed: Mole fraction of cyclohexane = 0
Fixed: Pressure, kPa = 101.325
Property: Activity coefficient of cyclohexane (Liquid); method: Chromatography
Temperature, K	Activity coefficient of cyclohexane	uncertainty
308	2.046	0.215
323	1.779	0.186
338	1.658	0.173
353	1.538	0.16

System: didecyldimethylammonium perchlorate + cycloheptane; phases: Liquid
Fixed: Mole fraction of cycloheptane = 0
Fixed: Pressure, kPa = 101.325
Property: Activity coefficient of cycloheptane (Liquid); method: Chromatography
Temperature, K	Activity coefficient of cycloheptane	uncertainty
308	2.287	0.24
323	2.043	0.215
338	1.912	0.2
353	1.785	0.186

System: didecyldimethylammonium perchlorate + (E)-3-methyl-2-pentene; phases: Liquid
Fixed: Mole fraction of (E)-3-methyl-2-pentene = 0
Fixed: Pressure, kPa = 101.325
Property: Activity coefficient of (E)-3-methyl-2-pentene (Liquid); method: Chromatography
Temperature, K	Activity coefficient of (E)-3-methyl-2-pentene	uncertainty
323	1.481	0.153
338	1.491	0.154
353	1.325	0.137

System: didecyldimethylammonium perchlorate + (E)-4-methyl-2-pentene; phases: Liquid
Fixed: Mole fraction of (E)-4-methyl-2-pentene = 0
Fixed: Pressure, kPa = 101.325
Property: Activity coefficient of (E)-4-methyl-2-pentene (Liquid); method: Chromatography
Temperature, K	Activity coefficient of (E)-4-methyl-2-pentene	uncertainty
323	1.681	0.175
338	1.716	0.179
353	1.459	0.151

System: didecyldimethylammonium perchlorate + diethyl ether; phases: Liquid
Fixed: Mole fraction of diethyl ether = 0
Fixed: Pressure, kPa = 101.325
Property: Activity coefficient of diethyl ether (Liquid); method: Chromatography
Temperature, K	Activity coefficient of diethyl ether	uncertainty
323	1.026	0.104
338	0.848	0.087
353	0.74	0.077

System: didecyldimethylammonium perchlorate + dibutyl ether; phases: Liquid
Fixed: Mole fraction of dibutyl ether = 0
Fixed: Pressure, kPa = 101.325
Property: Activity coefficient of dibutyl ether (Liquid); method: Chromatography
Temperature, K	Activity coefficient of dibutyl ether	uncertainty
323	3.119	0.33
338	4.498	0.473
353	4.415	0.464

System: didecyldimethylammonium perchlorate + tetrahydrofuran; phases: Liquid
Fixed: Mole fraction of tetrahydrofuran = 0
Fixed: Pressure, kPa = 101.325
Property: Activity coefficient of tetrahydrofuran (Liquid); method: Chromatography
Temperature, K	Activity coefficient of tetrahydrofuran	uncertainty
323	0.478	0.053
338	0.46	0.052
353	0.536	0.058

System: didecyldimethylammonium perchlorate + methanol; phases: Liquid
Fixed: Mole fraction of methanol = 0
Fixed: Pressure, kPa = 101.325
Property: Activity coefficient of methanol (Liquid); method: Chromatography
Temperature, K	Activity coefficient of methanol	uncertainty
308	0.447	0.051
323	0.351	0.043
338	0.419	0.048
353	0.407	0.047

System: didecyldimethylammonium perchlorate + ethanol; phases: Liquid
Fixed: Mole fraction of ethanol = 0
Fixed: Pressure, kPa = 101.325
Property: Activity coefficient of ethanol (Liquid); method: Chromatography
Temperature, K	Activity coefficient of ethanol	uncertainty
308	0.623	0.066
323	0.497	0.055
338	0.582	0.062
353	0.531	0.058

System: didecyldimethylammonium perchlorate + propan-2-ol; phases: Liquid
Fixed: Mole fraction of propan-2-ol = 0
Fixed: Pressure, kPa = 101.325
Property: Activity coefficient of propan-2-ol (Liquid); method: Chromatography
Temperature, K	Activity coefficient of propan-2-ol	uncertainty
323	1.505	0.156
338	1.536	0.159
353	1.11	0.114

System: didecyldimethylammonium perchlorate + acetone; phases: Liquid
Fixed: Mole fraction of acetone = 0
Fixed: Pressure, kPa = 101.325
Property: Activity coefficient of acetone (Liquid); method: Chromatography
Temperature, K	Activity coefficient of acetone	uncertainty
323	0.489	0.054
338	0.537	0.058
353	0.527	0.057

System: didecyldimethylammonium perchlorate + butanone; phases: Liquid
Fixed: Mole fraction of butanone = 0
Fixed: Pressure, kPa = 101.325
Property: Activity coefficient of butanone (Liquid); method: Chromatography
Temperature, K	Activity coefficient of butanone	uncertainty
323	0.532	0.058
338	0.59	0.063
353	0.585	0.063

System: didecyldimethylammonium perchlorate + cyclohexanone; phases: Liquid
Fixed: Mole fraction of cyclohexanone = 0
Fixed: Pressure, kPa = 101.325
Property: Activity coefficient of cyclohexanone (Liquid); method: Chromatography
Temperature, K	Activity coefficient of cyclohexanone	uncertainty
323	11.72	1.234
338	9.681	1.019
353	8.457	0.89

System: didecyldimethylammonium perchlorate + trichloromethane; phases: Liquid
Fixed: Mole fraction of trichloromethane = 0
Fixed: Pressure, kPa = 101.325
Property: Activity coefficient of trichloromethane (Liquid); method: Chromatography
Temperature, K	Activity coefficient of trichloromethane	uncertainty
323	0.224	0.034
338	0.29	0.038
353	0.302	0.039

System: didecyldimethylammonium perchlorate + benzene; phases: Liquid
Fixed: Mole fraction of benzene = 0
Fixed: Pressure, kPa = 101.325
Property: Activity coefficient of benzene (Liquid); method: Chromatography
Temperature, K	Activity coefficient of benzene	uncertainty
323	0.499	0.055
338	0.59	0.063
353	0.527	0.057

System: didecyldimethylammonium perchlorate + acetonitrile; phases: Liquid
Fixed: Mole fraction of acetonitrile = 0
Fixed: Pressure, kPa = 101.325
Property: Activity coefficient of acetonitrile (Liquid); method: Chromatography
Temperature, K	Activity coefficient of acetonitrile	uncertainty
323	0.543	0.059
338	0.511	0.056
353	0.46	0.052

System: didecyldimethylammonium perchlorate + 1,2-dichloroethane; phases: Liquid
Fixed: Mole fraction of 1,2-dichloroethane = 0
Fixed: Pressure, kPa = 101.325
Property: Activity coefficient of 1,2-dichloroethane (Liquid); method: Chromatography
Temperature, K	Activity coefficient of 1,2-dichloroethane	uncertainty
323	0.464	0.052
338	0.494	0.055
353	0.482	0.053

System: didecyldimethylammonium tetrafluoroborate + butane; phases: Liquid
Fixed: Mole fraction of butane = 0
Fixed: Pressure, kPa = 101.325
Property: Activity coefficient of butane (Liquid); method: Chromatography
Temperature, K	Activity coefficient of butane	uncertainty
308	1.213	0.124
323	1.122	0.115
338	1.036	0.105
353	0.939	0.096

System: didecyldimethylammonium tetrafluoroborate + pentane; phases: Liquid
Fixed: Mole fraction of pentane = 0
Fixed: Pressure, kPa = 101.325
Property: Activity coefficient of pentane (Liquid); method: Chromatography
Temperature, K	Activity coefficient of pentane	uncertainty
308	1.846	0.193
323	1.515	0.157
338	1.244	0.128
353	1.079	0.11

System: didecyldimethylammonium tetrafluoroborate + hexane; phases: Liquid
Fixed: Mole fraction of hexane = 0
Fixed: Pressure, kPa = 101.325
Property: Activity coefficient of hexane (Liquid); method: Chromatography
Temperature, K	Activity coefficient of hexane	uncertainty
308	2.735	0.287
323	2.506	0.263
338	2.297	0.241
353	2.198	0.231

System: didecyldimethylammonium tetrafluoroborate + heptane; phases: Liquid
Fixed: Mole fraction of heptane = 0
Fixed: Pressure, kPa = 101.325
Property: Activity coefficient of heptane (Liquid); method: Chromatography
Temperature, K	Activity coefficient of heptane	uncertainty
308	3.531	0.371
323	3.042	0.32
338	2.622	0.275
353	2.483	0.261

System: didecyldimethylammonium tetrafluoroborate + octane; phases: Liquid
Fixed: Mole fraction of octane = 0
Fixed: Pressure, kPa = 101.325
Property: Activity coefficient of octane (Liquid); method: Chromatography
Temperature, K	Activity coefficient of octane	uncertainty
308	4.411	0.464
323	3.715	0.391
338	3.129	0.329
353	2.889	0.304

System: didecyldimethylammonium tetrafluoroborate + 1-pentene; phases: Liquid
Fixed: Mole fraction of 1-pentene = 0
Fixed: Pressure, kPa = 101.325
Property: Activity coefficient of 1-pentene (Liquid); method: Chromatography
Temperature, K	Activity coefficient of 1-pentene	uncertainty
308	1.267	0.13
323	1.197	0.123
338	1.131	0.116
353	1.257	0.129

System: didecyldimethylammonium tetrafluoroborate + hex-1-ene; phases: Liquid
Fixed: Mole fraction of hex-1-ene = 0
Fixed: Pressure, kPa = 101.325
Property: Activity coefficient of hex-1-ene (Liquid); method: Chromatography
Temperature, K	Activity coefficient of hex-1-ene	uncertainty
308	1.514	0.157
323	1.524	0.158
338	1.535	0.159
353	1.765	0.184

System: didecyldimethylammonium tetrafluoroborate + 1-heptene; phases: Liquid
Fixed: Mole fraction of 1-heptene = 0
Fixed: Pressure, kPa = 101.325
Property: Activity coefficient of 1-heptene (Liquid); method: Chromatography
Temperature, K	Activity coefficient of 1-heptene	uncertainty
308	1.793	0.187
323	1.809	0.189
338	1.826	0.191
353	2.227	0.234

System: didecyldimethylammonium tetrafluoroborate + oct-1-ene; phases: Liquid
Fixed: Mole fraction of oct-1-ene = 0
Fixed: Pressure, kPa = 101.325
Property: Activity coefficient of oct-1-ene (Liquid); method: Chromatography
Temperature, K	Activity coefficient of oct-1-ene	uncertainty
308	0.765	0.079
323	0.757	0.078
338	0.749	0.078
353	0.951	0.097

System: didecyldimethylammonium tetrafluoroborate + 1-hexyne; phases: Liquid
Fixed: Mole fraction of 1-hexyne = 0
Fixed: Pressure, kPa = 101.325
Property: Activity coefficient of 1-hexyne (Liquid); method: Chromatography
Temperature, K	Activity coefficient of 1-hexyne	uncertainty
308	0.85	0.087
323	0.838	0.086
338	0.826	0.085
353	0.937	0.096

System: didecyldimethylammonium tetrafluoroborate + 1-heptyne; phases: Liquid
Fixed: Mole fraction of 1-heptyne = 0
Fixed: Pressure, kPa = 101.325
Property: Activity coefficient of 1-heptyne (Liquid); method: Chromatography
Temperature, K	Activity coefficient of 1-heptyne	uncertainty
308	0.892	0.091
323	0.893	0.091
338	0.894	0.091
353	1.12	0.115

System: didecyldimethylammonium tetrafluoroborate + cyclopentane; phases: Liquid
Fixed: Mole fraction of cyclopentane = 0
Fixed: Pressure, kPa = 101.325
Property: Activity coefficient of cyclopentane (Liquid); method: Chromatography
Temperature, K	Activity coefficient of cyclopentane	uncertainty
308	1.207	0.124
323	1.169	0.12
338	1.134	0.116
353	1.284	0.132

System: didecyldimethylammonium tetrafluoroborate + cyclohexane; phases: Liquid
Fixed: Mole fraction of cyclohexane = 0
Fixed: Pressure, kPa = 101.325
Property: Activity coefficient of cyclohexane (Liquid); method: Chromatography
Temperature, K	Activity coefficient of cyclohexane	uncertainty
308	1.468	0.152
323	1.433	0.148
338	1.401	0.145
353	1.731	0.181

System: didecyldimethylammonium tetrafluoroborate + cycloheptane; phases: Liquid
Fixed: Mole fraction of cycloheptane = 0
Fixed: Pressure, kPa = 101.325
Property: Activity coefficient of cycloheptane (Liquid); method: Chromatography
Temperature, K	Activity coefficient of cycloheptane	uncertainty
308	1.647	0.171
323	1.61	0.167
338	1.573	0.163
353	1.976	0.208

System: didecyldimethylammonium tetrafluoroborate + (E)-3-methyl-2-pentene; phases: Liquid
Fixed: Mole fraction of (E)-3-methyl-2-pentene = 0
Fixed: Pressure, kPa = 101.325
Property: Activity coefficient of (E)-3-methyl-2-pentene (Liquid); method: Chromatography
Temperature, K	Activity coefficient of (E)-3-methyl-2-pentene	uncertainty
323	1.707	0.178
338	1.3	0.134
353	1.431	0.148

System: didecyldimethylammonium tetrafluoroborate + (E)-4-methyl-2-pentene; phases: Liquid
Fixed: Mole fraction of (E)-4-methyl-2-pentene = 0
Fixed: Pressure, kPa = 101.325
Property: Activity coefficient of (E)-4-methyl-2-pentene (Liquid); method: Chromatography
Temperature, K	Activity coefficient of (E)-4-methyl-2-pentene	uncertainty
323	1.675	0.175
338	1.45	0.15
353	1.568	0.163

System: didecyldimethylammonium tetrafluoroborate + diethyl ether; phases: Liquid
Fixed: Mole fraction of diethyl ether = 0
Fixed: Pressure, kPa = 101.325
Property: Activity coefficient of diethyl ether (Liquid); method: Chromatography
Temperature, K	Activity coefficient of diethyl ether	uncertainty
323	1.078	0.11
338	0.769	0.08
353	0.79	0.081

System: didecyldimethylammonium tetrafluoroborate + dibutyl ether; phases: Liquid
Fixed: Mole fraction of dibutyl ether = 0
Fixed: Pressure, kPa = 101.325
Property: Activity coefficient of dibutyl ether (Liquid); method: Chromatography
Temperature, K	Activity coefficient of dibutyl ether	uncertainty
323	2.869	0.301
338	2.65	0.278
353	3.575	0.376

System: didecyldimethylammonium tetrafluoroborate + tetrahydrofuran; phases: Liquid
Fixed: Mole fraction of tetrahydrofuran = 0
Fixed: Pressure, kPa = 101.325
Property: Activity coefficient of tetrahydrofuran (Liquid); method: Chromatography
Temperature, K	Activity coefficient of tetrahydrofuran	uncertainty
323	0.662	0.07
338	0.619	0.066
353	0.695	0.073

System: didecyldimethylammonium tetrafluoroborate + methanol; phases: Liquid
Fixed: Mole fraction of methanol = 0
Fixed: Pressure, kPa = 101.325
Property: Activity coefficient of methanol (Liquid); method: Chromatography
Temperature, K	Activity coefficient of methanol	uncertainty
308	0.294	0.039
323	0.289	0.038
338	0.285	0.038
353	0.327	0.041

System: didecyldimethylammonium tetrafluoroborate + ethanol; phases: Liquid
Fixed: Mole fraction of ethanol = 0
Fixed: Pressure, kPa = 101.325
Property: Activity coefficient of ethanol (Liquid); method: Chromatography
Temperature, K	Activity coefficient of ethanol	uncertainty
308	0.539	0.058
323	0.469	0.052
338	0.408	0.047
353	0.422	0.048

System: didecyldimethylammonium tetrafluoroborate + propan-2-ol; phases: Liquid
Fixed: Mole fraction of propan-2-ol = 0
Fixed: Pressure, kPa = 101.325
Property: Activity coefficient of propan-2-ol (Liquid); method: Chromatography
Temperature, K	Activity coefficient of propan-2-ol	uncertainty
323	3.473	0.366
338	2.409	0.254
353	1.896	0.199

System: didecyldimethylammonium tetrafluoroborate + acetone; phases: Liquid
Fixed: Mole fraction of acetone = 0
Fixed: Pressure, kPa = 101.325
Property: Activity coefficient of acetone (Liquid); method: Chromatography
Temperature, K	Activity coefficient of acetone	uncertainty
323	0.991	0.101
338	0.833	0.086
353	0.86	0.088

System: didecyldimethylammonium tetrafluoroborate + butanone; phases: Liquid
Fixed: Mole fraction of butanone = 0
Fixed: Pressure, kPa = 101.325
Property: Activity coefficient of butanone (Liquid); method: Chromatography
Temperature, K	Activity coefficient of butanone	uncertainty
323	1.066	0.109
338	0.903	0.092
353	0.82	0.084

System: didecyldimethylammonium tetrafluoroborate + cyclohexanone; phases: Liquid
Fixed: Mole fraction of cyclohexanone = 0
Fixed: Pressure, kPa = 101.325
Property: Activity coefficient of cyclohexanone (Liquid); method: Chromatography
Temperature, K	Activity coefficient of cyclohexanone	uncertainty
323	9.473	0.997
338	7.991	0.84
353	9.052	0.952

System: didecyldimethylammonium tetrafluoroborate + trichloromethane; phases: Liquid
Fixed: Mole fraction of trichloromethane = 0
Fixed: Pressure, kPa = 101.325
Property: Activity coefficient of trichloromethane (Liquid); method: Chromatography
Temperature, K	Activity coefficient of trichloromethane	uncertainty
323	0.318	0.04
338	0.346	0.042
353	0.399	0.047

System: didecyldimethylammonium tetrafluoroborate + benzene; phases: Liquid
Fixed: Mole fraction of benzene = 0
Fixed: Pressure, kPa = 101.325
Property: Activity coefficient of benzene (Liquid); method: Chromatography
Temperature, K	Activity coefficient of benzene	uncertainty
323	0.499	0.055
338	0.519	0.057
353	0.667	0.07

System: didecyldimethylammonium tetrafluoroborate + acetonitrile; phases: Liquid
Fixed: Mole fraction of acetonitrile = 0
Fixed: Pressure, kPa = 101.325
Property: Activity coefficient of acetonitrile (Liquid); method: Chromatography
Temperature, K	Activity coefficient of acetonitrile	uncertainty
323	1.205	0.124
338	1.057	0.108
353	1.236	0.127

System: didecyldimethylammonium tetrafluoroborate + 1,2-dichloroethane; phases: Liquid
Fixed: Mole fraction of 1,2-dichloroethane = 0
Fixed: Pressure, kPa = 101.325
Property: Activity coefficient of 1,2-dichloroethane (Liquid); method: Chromatography
Temperature, K	Activity coefficient of 1,2-dichloroethane	uncertainty
323	0.616	0.065
338	0.622	0.066
353	0.682	0.071
