Measured thermophysical data. Isobaric vapor liquid and vapor liquid liquid equilibrium data for the system water + ethanol + cyclohexane
Source: Fluid Phase Equilib., 2005, 10.1016/j.fluid.2005.07.015
Compound 1: water, H2O, InChI=1S/H2O/h1H2
Compound 2: ethanol, C2H6O, InChI=1S/C2H6O/c1-2-3/h3H,2H2,1H3
Compound 3: cyclohexane, C6H12, InChI=1S/C6H12/c1-2-4-6-5-3-1/h1-6H2

System: ethanol + cyclohexane + water; phases: Liquid mixture 1, Gas, Liquid mixture 2
Fixed: Pressure, kPa = 101.3
Property: Mole fraction of ethanol (Liquid mixture 1); method: CHROM:UFactor:4
Property: Mole fraction of ethanol (Liquid mixture 2); method: CHROM:UFactor:4
Property: Mole fraction of ethanol (Gas); method: CHROM:UFactor:4
Property: Mole fraction of water (Liquid mixture 1); method: CHROM:UFactor:4
Property: Mole fraction of water (Liquid mixture 2); method: CHROM:UFactor:4
Property: Mole fraction of water (Gas); method: CHROM:UFactor:4
Temperature, K	Mole fraction of ethanol	uncertainty	Mole fraction of ethanol	uncertainty	Mole fraction of ethanol	uncertainty	Mole fraction of water	uncertainty	Mole fraction of water	uncertainty	Mole fraction of water	uncertainty
338.2	0.011	0.004	0.068	0.004	0.162	0.006	0.002	0.002	0.931	0.01	0.258	0.012
337.46	0.018	0.004	0.099	0.005	0.193	0.007	0.004	0.004	0.9	0.01	0.243	0.012
336.55	0.031	0.004	0.164	0.006	0.232	0.008	0.004	0.004	0.835	0.011	0.225	0.012
336.34	0.035	0.004	0.193	0.007	0.24	0.008	0.004	0.004	0.806	0.011	0.224	0.012
335.97	0.051	0.004	0.272	0.009	0.256	0.008	0.005	0.005	0.724	0.013	0.208	0.012
335.84	0.076	0.005	0.363	0.011	0.272	0.009	0.011	0.01	0.625	0.015	0.203	0.012
335.7	0.094	0.005	0.425	0.013	0.28	0.009	0.013	0.01	0.557	0.016	0.193	0.011
335.63	0.105	0.005	0.463	0.014	0.286	0.009	0.013	0.01	0.509	0.017	0.19	0.011
335.55	0.127	0.005	0.508	0.015	0.29	0.009	0.017	0.01	0.45	0.016	0.189	0.011
335.54	0.151	0.006	0.555	0.014	0.298	0.009	0.02	0.01	0.386	0.015	0.184	0.011
335.54	0.157	0.006	0.569	0.013	0.301	0.009	0.02	0.01	0.357	0.014	0.181	0.011

System: ethanol + cyclohexane + water; phases: Liquid, Gas
Fixed: Pressure, kPa = 101.3
Property: Mole fraction of water (Liquid); method: CHROM:UFactor:4
Property: Mole fraction of water (Gas); method: CHROM:UFactor:4
Property: Mole fraction of ethanol (Gas); method: CHROM:UFactor:4
Temperature, K	Mole fraction of ethanol	Mole fraction of water	uncertainty	Mole fraction of water	uncertainty	Mole fraction of ethanol	uncertainty
346.06	0.915	0.053	0.01	0.05	0.01	0.752	
345.95	0.851	0.111	0.01	0.111	0.011	0.776	
344.77	0.813	0.156	0.011	0.127	0.011	0.65	
344.67	0.77	0.204	0.012	0.163	0.011	0.649	
344.93	0.724	0.258	0.012	0.185	0.012	0.631	
344.83	0.683	0.301	0.013	0.209	0.012	0.609	
344	0.623	0.357	0.014	0.194	0.012	0.525	
340.98	0.819	0.075	0.01	0.035	0.01	0.556	
340.24	0.785	0.113	0.011	0.089	0.01	0.498	
339.47	0.738	0.162	0.011	0.106	0.011	0.446	
338.76	0.672	0.205	0.012	0.119	0.011	0.432	
337.81	0.662	0.263	0.012	0.127	0.011	0.355	
338.25	0.741	0.066	0.01	0.061	0.01	0.456	
337.37	0.7	0.116	0.011	0.091	0.01	0.412	
336.63	0.655	0.155	0.011	0.132	0.011	0.48	
337.8	0.715	0.063	0.01	0.061	0.01	0.448	
337	0.647	0.111	0.01	0.09	0.01	0.383	
337.43	0.673	0.062	0.01	0.064	0.01	0.429	
335.78	0.59	0.227	0.012	0.166	0.011	0.32	
335.6	0.489	0.164	0.011	0.168	0.012	0.317	
335.56	0.47	0.156	0.011	0.168	0.012	0.318	
335.93	0.567	0.134	0.011	0.144	0.011	0.348	
336.28	0.593	0.12	0.011	0.133	0.011	0.362	
336.04	0.589	0.161	0.011	0.149	0.011	0.347	
339.37	0.01	0.004	0.004	0.258	0.013	0.129	
336.65	0.031	0.005	0.005	0.22	0.012	0.235	
339.64	0.004	0.002	0.002	0.319	0.015	0.13	
