Measured thermophysical data. Liquid-liquid equilibria and COSMO-SAC modeling of organic solvent/ ionic liquid - hydroxyacetone - water mixtures
Source: Fluid Phase Equilib., 2018, 10.1016/j.fluid.2018.01.026
Compound 1: 1-ethyl-3-methylimidazolium bis((trifluoromethyl)sulfonyl)imide, C8H11F6N3O4S2, InChI=1S/C6H11N2.C2F6NO4S2/c1-3-8-5-4-7(2)6-8;3-1(4,5)14(10,11)9-15(12,13)2(6,7)8/h4-6H,3H2,1-2H3;/q+1;-1, purity 98%
Compound 2: water, H2O, InChI=1S/H2O/h1H2, purity 99.8%
Compound 3: 1-butyl-3-methylimidazolium bis(trifluoromethylsulfonyl)imide, C10H15F6N3O4S2, InChI=1S/C8H15N2.C2F6NO4S2/c1-3-4-5-10-7-6-9(2)8-10;3-1(4,5)14(10,11)9-15(12,13)2(6,7)8/h6-8H,3-5H2,1-2H3;/q+1;-1, purity 98%
Compound 4: trichloromethane, CHCl3, InChI=1S/CHCl3/c2-1(3)4/h1H, purity 99%
Compound 5: acetol, C3H6O2, InChI=1S/C3H6O2/c1-3(5)2-4/h4H,2H2,1H3, purity 95%
Compound 6: ethyl acetate, C4H8O2, InChI=1S/C4H8O2/c1-3-6-4(2)5/h3H2,1-2H3, purity 99.5%
Compound 7: propyl ethanoate, C5H10O2, InChI=1S/C5H10O2/c1-3-4-7-5(2)6/h3-4H2,1-2H3, purity 99%
Compound 8: butyl ethanoate, C6H12O2, InChI=1S/C6H12O2/c1-3-4-5-8-6(2)7/h3-5H2,1-2H3, purity 99%

System: acetol; phases: Liquid
Fixed: Pressure, kPa = 101.325
Property: Mass density, kg/m3 (Liquid); method: Vibrating tube method
Temperature, K	Mass density, kg/m3	uncertainty
293.15	1080.13	6.32
298.15	1074.92	6.26
303.15	1069.67	6.2
308.15	1064.31	6.13
313.15	1058.71	6.07
318.15	1053.13	6
323.15	1047.55	5.94
328.15	1042.01	5.87
333.15	1036.62	5.81

System: ethyl acetate; phases: Liquid
Fixed: Pressure, kPa = 101.325
Property: Mass density, kg/m3 (Liquid); method: Vibrating tube method
Temperature, K	Mass density, kg/m3	uncertainty
293.15	900.48	1.01
298.15	894.36	1.01
303.15	888.19	1.01
308.15	881.98	1.01
313.15	875.73	1.01

System: propyl ethanoate; phases: Liquid
Fixed: Pressure, kPa = 101.325
Property: Mass density, kg/m3 (Liquid); method: Vibrating tube method
Temperature, K	Mass density, kg/m3	uncertainty
293.15	887.8	1.02
298.15	882.19	1.02
303.15	876.56	1.02
308.15	870.9	1.02
313.15	865.21	1.02

System: butyl ethanoate; phases: Liquid
Fixed: Pressure, kPa = 101.325
Property: Mass density, kg/m3 (Liquid); method: Vibrating tube method
Temperature, K	Mass density, kg/m3	uncertainty
293.15	880.61	1.02
298.15	875.45	1.02
303.15	870.27	1.02
308.15	865.08	1.02
313.15	859.86	1.02

System: 1-ethyl-3-methylimidazolium bis((trifluoromethyl)sulfonyl)imide + acetol + water; phases: Liquid mixture 2, Liquid mixture 1
Fixed: Pressure, kPa = 101
Fixed: Temperature, K = 298.15
Property: Mole fraction of 1-ethyl-3-methylimidazolium bis((trifluoromethyl)sulfonyl)imide (Liquid mixture 2); method: OTHER
Property: Mole fraction of 1-ethyl-3-methylimidazolium bis((trifluoromethyl)sulfonyl)imide (Liquid mixture 1); method: OTHER
Property: Mole fraction of acetol (Liquid mixture 1); method: OTHER
Mole fraction of acetol	Mole fraction of 1-ethyl-3-methylimidazolium bis((trifluoromethyl)sulfonyl)imide	uncertainty	Mole fraction of 1-ethyl-3-methylimidazolium bis((trifluoromethyl)sulfonyl)imide	uncertainty	Mole fraction of acetol	uncertainty
0.019	0		0.559	0.1	0.05	
0.04	0		0.495	0.101	0.099	
0.072	0		0.42	0.1	0.151	
0.093	0.004	0.004	0.363	0.1	0.204	
0.125	0		0.309	0.1	0.247	

System: 1-butyl-3-methylimidazolium bis(trifluoromethylsulfonyl)imide + acetol + water; phases: Liquid mixture 2, Liquid mixture 1
Fixed: Pressure, kPa = 101
Fixed: Temperature, K = 298.15
Property: Mole fraction of 1-butyl-3-methylimidazolium bis(trifluoromethylsulfonyl)imide (Liquid mixture 2); method: OTHER
Property: Mole fraction of acetol (Liquid mixture 1); method: OTHER
Property: Mole fraction of 1-butyl-3-methylimidazolium bis(trifluoromethylsulfonyl)imide (Liquid mixture 1); method: OTHER
Mole fraction of acetol	Mole fraction of 1-butyl-3-methylimidazolium bis(trifluoromethylsulfonyl)imide	uncertainty	Mole fraction of acetol	uncertainty	Mole fraction of 1-butyl-3-methylimidazolium bis(trifluoromethylsulfonyl)imide	uncertainty
0.055	0		0.122	0.004	0.533	
0.077	0		0.166	0.005	0.488	
0.105	0		0.23	0.006	0.424	
0.131	0		0.274	0.006	0.343	
0.158	0		0.317	0.007	0.273	
0.188	0		0.339	0.008	0.226	

System: trichloromethane + acetol + water; phases: Liquid mixture 2, Liquid mixture 1
Fixed: Pressure, kPa = 101
Fixed: Temperature, K = 298.15
Property: Mole fraction of trichloromethane (Liquid mixture 2); method: OTHER
Property: Mole fraction of acetol (Liquid mixture 1); method: OTHER
Property: Mole fraction of trichloromethane (Liquid mixture 1); method: OTHER
Mole fraction of acetol	Mole fraction of trichloromethane	uncertainty	Mole fraction of acetol	uncertainty	Mole fraction of trichloromethane	uncertainty
0.049	0		0.054	0.003	0.905	
0.082	0		0.116	0.003	0.775	
0.127	0		0.181	0.005	0.725	
0.157	0		0.246	0.006	0.601	
0.195	0		0.306	0.007	0.518	
0.233	0.012	0.002	0.344	0.008	0.386	
0.263	0.018	0.002	0.372	0.009	0.284	

System: ethyl acetate + acetol + water; phases: Liquid mixture 2, Liquid mixture 1
Fixed: Pressure, kPa = 101
Fixed: Temperature, K = 298.15
Property: Mole fraction of ethyl acetate (Liquid mixture 2); method: OTHER
Property: Mole fraction of acetol (Liquid mixture 1); method: OTHER
Property: Mole fraction of ethyl acetate (Liquid mixture 1); method: OTHER
Mole fraction of acetol	Mole fraction of ethyl acetate	uncertainty	Mole fraction of acetol	uncertainty	Mole fraction of ethyl acetate	uncertainty
0.018	0.014	0.002	0.015	0.002	0.8	
0.058	0.005	0.002	0.055	0.003	0.721	
0.077	0.021	0.003	0.084	0.003	0.686	
0.106	0.038	0.002	0.113	0.003	0.613	
0.161	0.017	0.002	0.153	0.004	0.498	
0.185	0.093	0.007	0.179	0.004	0.412	

System: propyl ethanoate + acetol + water; phases: Liquid mixture 2, Liquid mixture 1
Fixed: Pressure, kPa = 101
Fixed: Temperature, K = 298.15
Property: Mole fraction of propyl ethanoate (Liquid mixture 2); method: OTHER
Property: Mole fraction of acetol (Liquid mixture 1); method: OTHER
Property: Mole fraction of propyl ethanoate (Liquid mixture 1); method: OTHER
Mole fraction of acetol	Mole fraction of propyl ethanoate	uncertainty	Mole fraction of acetol	uncertainty	Mole fraction of propyl ethanoate	uncertainty
0.049	0.016	0.002	0.031	0.003	0.849	
0.09	0.028	0.002	0.067	0.003	0.801	
0.142	0.01	0.002	0.115	0.003	0.712	
0.182	0.017	0.002	0.15	0.004	0.641	
0.223	0.028	0.002	0.19	0.005	0.566	
0.284	0.067	0.003	0.259	0.006	0.433	

System: butyl ethanoate + acetol + water; phases: Liquid mixture 2, Liquid mixture 1
Fixed: Pressure, kPa = 101
Fixed: Temperature, K = 298.15
Property: Mole fraction of butyl ethanoate (Liquid mixture 2); method: OTHER
Property: Mole fraction of acetol (Liquid mixture 1); method: OTHER
Property: Mole fraction of butyl ethanoate (Liquid mixture 1); method: OTHER
Mole fraction of acetol	Mole fraction of butyl ethanoate	uncertainty	Mole fraction of acetol	uncertainty	Mole fraction of butyl ethanoate	uncertainty
0.052	0.012	0.002	0.029	0.003	0.894	
0.1	0.032	0.002	0.063	0.003	0.841	
0.15	0.013	0.002	0.095	0.003	0.806	
0.193	0.009	0.002	0.129	0.004	0.759	
0.236	0.01	0.002	0.16	0.004	0.699	
0.292	0.017	0.002	0.195	0.005	0.67	
0.317	0.025	0.002	0.238	0.006	0.598	

System: 1-butyl-3-methylimidazolium bis(trifluoromethylsulfonyl)imide + water; phases: Liquid mixture 1, Liquid mixture 2
Property: Mole fraction of 1-butyl-3-methylimidazolium bis(trifluoromethylsulfonyl)imide (Liquid mixture 1); method: NMR
Temperature, K	Pressure, kPa	Mole fraction of 1-butyl-3-methylimidazolium bis(trifluoromethylsulfonyl)imide	uncertainty
298.15	101	0.6831	0.1002

System: 1-butyl-3-methylimidazolium bis(trifluoromethylsulfonyl)imide + water; phases: Liquid mixture 2, Liquid mixture 1
Property: Mole fraction of 1-butyl-3-methylimidazolium bis(trifluoromethylsulfonyl)imide (Liquid mixture 2); method: NMR
Temperature, K	Pressure, kPa	Mole fraction of 1-butyl-3-methylimidazolium bis(trifluoromethylsulfonyl)imide	uncertainty
298.15	101	0.0004	0.0002
