Measured thermophysical data. Solubility of carbon dioxide in the ionic liquid l-ethyl-3-methylimidazolium bis( trifluoromethy lsulfony 1)imide
Source: Fluid Phase Equilib., 2007, 10.1016/j.fluid.2007.06.003
Compound 1: 1-ethyl-3-methylimidazolium bis((trifluoromethyl)sulfonyl)imide, C8H11F6N3O4S2, InChI=1S/C6H11N2.C2F6NO4S2/c1-3-8-5-4-7(2)6-8;3-1(4,5)14(10,11)9-15(12,13)2(6,7)8/h4-6H,3H2,1-2H3;/q+1;-1
Compound 2: carbon dioxide, CO2, InChI=1S/CO2/c2-1-3

System: carbon dioxide + 1-ethyl-3-methylimidazolium bis((trifluoromethyl)sulfonyl)imide; phases: Gas, Liquid
Property: Vapor or sublimation pressure, kPa (Gas); method: CCELL:UFactor:8
Temperature, K	Mole fraction of carbon dioxide	Vapor or sublimation pressure, kPa	uncertainty
312.1	0.212	1212	32
312.11	0.519	4399	115
312.13	0.479	3786	99
312.14	0.303	1902	50
312.14	0.392	2738	71
312.14	0.593	5789	151
312.16	0.57	5244	137
312.17	0.123	626	16
317.04	0.593	6418	167
321.95	0.212	1442	38
321.98	0.519	5309	138
322	0.123	742	19
322	0.303	2267	59
322	0.392	3278	86
322	0.479	4541	118
322	0.57	6394	167
322.01	0.593	7103	185
326.93	0.593	7839	204
331.84	0.212	1697	44
331.85	0.303	2622	68
331.86	0.519	6334	165
331.87	0.123	852	22
331.88	0.392	3848	100
331.88	0.593	8634	225
331.89	0.479	5401	141
331.89	0.57	7699	201
336.88	0.593	9480	247
341.74	0.212	1933	50
341.74	0.519	7474	195
341.76	0.303	3052	80
341.76	0.593	10375	270
341.77	0.392	4518	118
341.77	0.479	6321	165
341.78	0.57	9180	239
341.79	0.123	1002	26
346.69	0.593	11320	295
351.63	0.593	12305	321
351.64	0.212	2198	57
351.64	0.303	3497	91
351.65	0.392	5188	135
351.65	0.519	8715	227
351.66	0.123	1137	30
351.67	0.57	10790	281
351.69	0.479	7321	191
356.57	0.593	13340	348
361.51	0.123	1273	33
361.51	0.212	2493	65
361.51	0.593	14402	375
361.52	0.519	10035	262
361.52	0.57	12550	327
361.54	0.303	3952	103
361.55	0.392	5908	154
361.55	0.479	8386	219
370.4	0.57	14180	370
371.34	0.519	11409	297
371.35	0.212	2793	73
371.36	0.303	4437	116
371.39	0.123	1428	37
371.4	0.479	9501	248
371.43	0.392	6653	173
381.22	0.392	7418	193
381.23	0.519	12854	335
381.24	0.212	3088	81
381.25	0.303	4937	129
381.26	0.123	1583	41
381.26	0.479	10681	278
391.08	0.392	8208	214
391.09	0.303	5463	142
391.11	0.212	3423	89
391.11	0.479	11852	309
391.11	0.519	14329	373
391.12	0.123	1748	46
400.96	0.392	9028	235
400.97	0.303	6008	157
401	0.212	3733	97
401	0.479	13062	340
401.02	0.123	1923	50
410.85	0.303	6538	170
410.85	0.392	9863	257
410.89	0.212	4053	106
410.9	0.479	14307	373
410.91	0.123	2103	55
420.76	0.392	10683	278
420.8	0.212	4383	114
420.8	0.303	7078	184
420.81	0.123	2247	59
430.68	0.392	11523	300
430.69	0.303	7588	198
430.71	0.123	2412	63
430.71	0.212	4723	123
440.55	0.392	12338	321
440.58	0.303	8123	212
440.59	0.123	2572	67
440.63	0.212	5078	132
450.46	0.392	13153	343
450.48	0.212	5418	141
450.49	0.123	2743	72
450.49	0.303	8648	225
