Measured thermophysical data. Recommended vapor pressures for acenaphthylene, fluoranthene, and fluorene
Source: Fluid Phase Equilib., 2017, 10.1016/j.fluid.2016.11.012
Compound 1: acenaphthylene, C12H8, InChI=1S/C12H8/c1-3-9-4-2-6-11-8-7-10(5-1)12(9)11/h1-8H
Compound 2: fluorene, C13H10, InChI=1S/C13H10/c1-3-7-12-10(5-1)9-11-6-2-4-8-13(11)12/h1-8H,9H2

System: acenaphthylene; phases: Crystal, Liquid, Air at 1 atmosphere
Property: Molar enthalpy of transition or fusion, kJ/mol (Crystal); method: DSC
Molar enthalpy of transition or fusion, kJ/mol	uncertainty
11.73	0.66

System: acenaphthylene; phases: Crystal, Liquid, Air at 1 atmosphere
Property: Normal melting temperature, K (Crystal); method: DTA
Normal melting temperature, K	uncertainty
365.15	0.7

System: acenaphthylene; phases: Crystal, Gas
Property: Vapor or sublimation pressure, kPa (Crystal); method: Closed cell (Static) method
Temperature, K	Vapor or sublimation pressure, kPa	uncertainty
296.95	0.00087	0.00011
296.98	0.00088	0.00011
296.97	0.00086	0.00011
302.22	0.00147	0.00012
302.23	0.00148	0.00012
302.23	0.00147	0.00012
307.49	0.00243	0.00014
307.48	0.00247	0.00014
307.47	0.00244	0.00014
312.71	0.00399	0.00019
312.72	0.00399	0.00019
312.72	0.00397	0.00019
317.89	0.00629	0.00027
317.89	0.00628	0.00027
317.89	0.00632	0.00027
323.06	0.00986	0.0004
323.07	0.00984	0.0004
323.07	0.00986	0.0004
328.2	0.01511	0.00055
328.21	0.01516	0.00055
328.22	0.01513	0.00055
333.33	0.02281	0.00067
333.34	0.02286	0.00067
333.34	0.02282	0.00067
338.45	0.03393	0.00084
338.45	0.03392	0.00084
338.45	0.03393	0.00084
343.49	0.04954	0.00108
343.5	0.04955	0.00108
343.5	0.0496	0.00108
348.54	0.07154	0.00142
348.54	0.07156	0.00142
348.54	0.07156	0.00142
353.54	0.10176	0.00189
353.55	0.10175	0.00189
353.55	0.10182	0.00189
358.56	0.14344	0.00213
358.56	0.14351	0.00213
358.56	0.14345	0.00213
361.07	0.16933	0.00233
361.06	0.1694	0.00233
361.07	0.1695	0.00234
363.54	0.19948	0.00257
363.55	0.19958	0.00257
363.55	0.19944	0.00257

System: acenaphthylene; phases: Crystal
Fixed: Pressure, kPa = 100
Property: Molar heat capacity at constant pressure, J/K/mol (Crystal); method: DSC
Temperature, K	Molar heat capacity at constant pressure, J/K/mol	uncertainty
304.12	185.496495	8.563935
304.12	185.08077	8.563935
304.12	185.829075	8.64708
306.11	186.74367	8.64708
306.11	186.41109	8.64708
306.11	186.2448	8.64708
308.11	188.24028	8.730225
308.11	187.990845	8.730225
308.11	188.07399	8.730225
310.11	188.73915	8.730225
310.11	188.57286	8.730225
310.11	188.988585	8.730225
312.11	189.40431	8.81337
312.11	189.487455	8.81337
312.11	189.487455	8.81337
314.11	190.817775	8.81337
314.11	190.318905	8.81337
314.11	190.318905	8.81337
316.11	191.2335	8.896515
316.11	191.73237	8.896515
316.11	192.23124	8.896515
318.11	192.314385	8.896515
318.11	192.646965	8.896515
318.11	192.148095	8.896515
320.11	193.810995	8.97966
320.11	193.72785	8.97966
320.11	193.56156	8.97966
322.11	195.05817	9.062805
322.11	195.05817	9.062805
322.11	195.473895	9.062805
324.11	196.55478	9.14595
324.11	196.05591	9.062805
324.11	196.139055	9.062805
326.11	196.970505	9.14595
326.11	197.801955	9.14595
326.11	196.804215	9.14595
328.12	198.134535	9.229095
328.12	198.21768	9.229095
328.12	198.55026	9.229095
330.12	200.130015	9.31224
330.12	198.88284	9.229095
330.12	199.797435	9.229095
332.13	201.2109	9.31224
332.13	200.87832	9.31224
332.13	201.37719	9.31224

System: acenaphthylene; phases: Liquid
Fixed: Pressure, kPa = 100
Property: Molar heat capacity at constant pressure, J/K/mol (Liquid); method: DSC
Temperature, K	Molar heat capacity at constant pressure, J/K/mol	uncertainty
369.13	247.855245	11.47401
369.13	248.76984	11.557155
369.13	247.190085	11.47401
371.13	249.10242	11.557155
371.13	249.10242	11.557155
371.13	248.10468	11.47401
373.13	251.0979	11.6403
373.13	250.682175	11.6403
373.13	249.518145	11.557155
375.13	253.509105	11.723445
375.13	250.682175	11.6403
375.13	249.019275	11.557155
377.13	254.174265	11.80659
377.13	251.513625	11.6403
377.13	250.682175	11.6403
379.13	253.59225	11.723445
379.13	250.93161	11.6403
379.13	251.347335	11.6403
381.13	253.92483	11.80659
381.13	251.014755	11.6403
381.13	252.178785	11.723445
383.13	254.75628	11.80659
383.13	252.59451	11.723445
383.13	252.511365	11.723445
385.13	255.92031	11.889735
385.13	253.59225	11.723445
385.13	253.010235	11.723445
387.13	255.005715	11.80659
387.13	253.509105	11.723445
387.13	252.92709	11.723445

System: fluorene; phases: Crystal
Fixed: Pressure, kPa = 100
Property: Molar heat capacity at constant pressure, J/K/mol (Crystal); method: DSC
Temperature, K	Molar heat capacity at constant pressure, J/K/mol	uncertainty
262.36	171.44499	6.6516
262.44	171.61128	6.6516
262.47	171.61128	6.6516
265	173.523615	6.734745
265	173.357325	6.734745
265	173.357325	6.734745
270	176.76627	6.81789
270	176.683125	6.81789
270	176.683125	6.81789
275	180.09207	6.98418
275	180.008925	6.98418
275	179.92578	6.98418
280	183.334725	7.067325
280	183.25158	7.067325
280	183.25158	7.067325
285	186.494235	7.233615
285	186.41109	7.233615
285	186.327945	7.233615
290	189.653745	7.31676
290	189.487455	7.31676
290	189.40431	7.31676
295	192.8964	7.48305
295	192.813255	7.48305
295	192.73011	7.48305
300	196.471635	7.64934
300	196.471635	7.64934
300	196.305345	7.566195
305	201.37719	7.81563
305	201.37719	7.81563
305	201.2109	7.81563
310	208.111935	8.065065
310	208.19508	8.065065
310	207.945645	8.065065
315	216.177	8.397645
315	216.34329	8.397645
315	216.093855	8.397645
320	223.32747	8.64708
320	223.66005	8.64708
320	223.410615	8.64708
325	227.900445	8.81337
325	228.31617	8.81337
325	228.31617	8.81337
330	231.80826	8.97966
330	232.390275	8.97966
330	232.30713	8.97966
335	236.96325	9.14595
335	237.29583	9.229095
335	237.212685	9.229095
340	242.035095	9.395385
340	241.868805	9.395385
340	241.868805	9.395385
345	246.77436	9.561675
345	246.60807	9.561675
345	246.60807	9.561675
350	251.846205	9.727965
350	251.76306	9.727965
350	251.679915	9.727965
355	257.25063	9.9774
355	257.167485	9.9774
355	257.08434	9.9774
358.37	261.0753	10.14369
358.5	261.324735	10.14369
358.5	261.24159	10.14369
