Measured thermophysical data. Tris(2-ethylhexyl) trimellitate (TOTM) a potential reference fluid for high viscosity. Part II: Density measurements at temperatures from (293 to 373) K and pressures up to 68 MPa
Source: Fluid Phase Equilib., 2014, 10.1016/j.fluid.2014.10.003
Compound 1: tris(2-ethylhexyl) trimellitate, C33H54O6, InChI=1S/C33H54O6/c1-7-13-16-25(10-4)22-37-31(34)28-19-20-29(32(35)38-23-26(11-5)17-14-8-2)30(21-28)33(36)39-24-27(12-6)18-15-9-3/h19-21,25-27H,7-18,22-24H2,1-6H3, purity 99%

System: tris(2-ethylhexyl) trimellitate; phases: Liquid
Property: Mass density, kg/m3 (Liquid); method: Vibrating tube method
Temperature, K	Pressure, kPa	Mass density, kg/m3	uncertainty
293.15	100	988.2	2
293.15	2510	989.6	2
293.15	2510	989.6	2
293.15	5000	991	2
293.15	7510	992.4	2
293.15	10010	993.8	2
293.15	15010	996.6	2
293.15	19990	999.2	2
293.15	30010	1004.3	2
293.15	40020	1009.2	2
293.15	50030	1013.8	2
293.15	68010	1021.5	2.1
313.15	100	973.4	2
313.15	2510	974.9	2
313.15	5020	976.4	2
313.15	10010	979.4	2
313.15	20000	985.3	2
313.15	40020	996	2
313.15	68000	1009.3	2
313.15	100	973.4	2
313.15	2500	974.9	2
313.15	2500	974.9	2
313.15	5020	976.5	2
313.15	7490	977.9	2
313.15	10010	979.5	2
313.15	15010	982.4	2
313.15	20000	985.3	2
313.15	30030	990.8	2
313.15	40000	996	2
313.15	50000	1001	2
313.15	68000	1009.3	2
333.15	100	958.9	1.9
333.15	2500	960.4	1.9
333.15	2500	960.5	1.9
333.15	5000	962.1	1.9
333.15	7510	963.8	1.9
333.15	10010	965.4	1.9
333.15	15010	968.6	1.9
333.15	20000	971.6	2
333.15	30010	977.6	2
333.15	39990	983.1	2
333.15	50000	988.4	2
333.15	67990	997.2	2
353.15	100	944.5	1.9
353.15	2490	946.2	1.9
353.15	2490	946.2	1.9
353.15	5020	948.1	1.9
353.15	7510	949.8	1.9
353.15	10020	951.6	1.9
353.15	14990	955	1.9
353.15	20010	958.3	1.9
353.15	30000	964.7	1.9
353.15	40020	970.6	2
353.15	49990	976.2	2
353.15	68000	985.5	2
373.15	100	930.1	1.9
373.15	2510	932	1.9
373.15	2510	932	1.9
373.15	5020	934	1.9
373.15	7500	935.9	1.9
373.15	10040	937.9	1.9
373.15	15000	941.6	1.9
373.15	20030	945.2	1.9
373.15	30010	952	1.9
373.15	40020	958.3	1.9
373.15	49990	964.3	1.9
373.15	68010	974.2	2
