Measured thermophysical data. Solubility of three natural compounds with insecticidal activity in supercritical carbon dioxide: Experimental measurements and predictive modeling with the GC-EoS
Source: Fluid Phase Equilib., 2019, 10.1016/j.fluid.2019.04.011
Compound 1: 2-isopropyl-5-methylcyclohexa-2,5-diene-1,4-dione, C10H12O2, InChI=1S/C10H12O2/c1-6(2)8-5-9(11)7(3)4-10(8)12/h4-6H,1-3H3, purity 99%
Compound 2: (R)-5-methyl-2-(1-methylethylidene)cyclohexanone, C10H16O, InChI=1S/C10H16O/c1-7(2)9-5-4-8(3)6-10(9)11/h8H,4-6H2,1-3H3/t8-/m1/s1, purity 97%
Compound 3: 1-octen-3-ol, C8H16O, InChI=1S/C8H16O/c1-3-5-6-7-8(9)4-2/h4,8-9H,2-3,5-7H2,1H3, purity 98%
Compound 4: (R)-1-methyl-4-(1-methylethenyl)cyclohexene, C10H16, InChI=1S/C10H16/c1-8(2)10-6-4-9(3)5-7-10/h4,10H,1,5-7H2,2-3H3/t10-/m0/s1, purity 97%
Compound 5: diphenylamine, C12H11N, InChI=1S/C12H11N/c1-3-7-11(8-4-1)13-12-9-5-2-6-10-12/h1-10,13H, purity 99%
Compound 6: carbon dioxide, CO2, InChI=1S/CO2/c2-1-3, purity 99.99%

System: 2-isopropyl-5-methylcyclohexa-2,5-diene-1,4-dione + carbon dioxide; phases: Fluid (supercritical or subcritical phases), Liquid
Property: Mole fraction of 2-isopropyl-5-methylcyclohexa-2,5-diene-1,4-dione (Fluid (supercritical or subcritical phases)); method: UV-vis calibration data
Temperature, K	Pressure, kPa	Mole fraction of 2-isopropyl-5-methylcyclohexa-2,5-diene-1,4-dione	uncertainty
323.15	8000	0.00027	0.00011
323.15	8500	0.0004	0.00017
323.15	9000	0.00055	0.00017
323.15	9500	0.00075	0.00055
323.15	10000	0.00095	0.00073
323.15	10500	0.00174	0.00101
333.15	8000	0.00033	0.00016
333.15	8500	0.00041	0.00026
333.15	9000	0.00052	0.00015
333.15	9500	0.00055	0.00026
333.15	10000	0.00063	0.00026
333.15	10500	0.00118	0.0004

System: (R)-5-methyl-2-(1-methylethylidene)cyclohexanone + carbon dioxide; phases: Fluid (supercritical or subcritical phases), Liquid
Property: Mole fraction of (R)-5-methyl-2-(1-methylethylidene)cyclohexanone (Fluid (supercritical or subcritical phases)); method: gravimetric
Temperature, K	Pressure, kPa	Mole fraction of (R)-5-methyl-2-(1-methylethylidene)cyclohexanone	uncertainty
318.15	8000	0.00087	0.00055
318.15	8500	0.00115	0.00037
318.15	9000	0.0012	0.0012
318.15	9500	0.01231	0.01179
328.15	8000	0.00058	0.00036
328.15	8500	0.00052	0.00048
328.15	9000	0.00066	0.00052
328.15	9500	0.00107	0.00076
328.15	10000	0.00267	0.00267
328.15	10500	0.0141	0.00921
338.15	8000	0.00056	0.00018
338.15	9000	0.00047	0.00017
338.15	9500	0.001	0.00037
338.15	10000	0.00137	0.00049
338.15	10500	0.0021	0.00112
338.15	11000	0.00571	0.00481

System: 1-octen-3-ol + carbon dioxide; phases: Fluid (supercritical or subcritical phases), Liquid
Property: Mole fraction of 1-octen-3-ol (Fluid (supercritical or subcritical phases)); method: gravimetric
Temperature, K	Pressure, kPa	Mole fraction of 1-octen-3-ol	uncertainty
318.15	8000	0.0011	0.00034
318.15	8500	0.00145	0.00145
318.15	9000	0.00286	0.00097
318.15	9500	0.00419	0.00135
318.15	10000	0.00617	0.0019
328.15	8000	0.00088	0.00033
328.15	8500	0.00112	0.00094
328.15	9000	0.00177	0.00177
328.15	9500	0.00209	0.00109
328.15	10000	0.00318	0.00197
328.15	10500	0.00746	0.00361
338.15	8000	0.00073	0.00024
338.15	9000	0.00136	0.00042
338.15	9500	0.00201	0.0006
338.15	10000	0.00243	0.00109
338.15	10500	0.00349	0.00225
338.15	11000	0.00782	0.00425

System: (R)-1-methyl-4-(1-methylethenyl)cyclohexene + carbon dioxide; phases: Fluid (supercritical or subcritical phases), Liquid
Property: Mole fraction of (R)-1-methyl-4-(1-methylethenyl)cyclohexene (Fluid (supercritical or subcritical phases)); method: gravimetric
Temperature, K	Pressure, kPa	Mole fraction of (R)-1-methyl-4-(1-methylethenyl)cyclohexene	uncertainty
323.15	7600	0.00313	0.0008
323.15	8200	0.00343	0.00066
323.15	9300	0.00677	0.00191
333.15	8200	0.00218	0.00065
333.15	9000	0.00359	0.00056
333.15	9900	0.00401	0.00201

System: diphenylamine + carbon dioxide; phases: Fluid (supercritical or subcritical phases), Crystal
Property: Mole fraction of diphenylamine (Fluid (supercritical or subcritical phases)); method: gravimetric
Temperature, K	Pressure, kPa	Mole fraction of diphenylamine	uncertainty
305.15	8500	0.00141	0.00013
305.15	9000	0.00159	0.0004
305.15	10000	0.00277	0.00032
310.15	8200	0.00174	0.00026
310.15	9000	0.0023	0.00023
310.15	10000	0.00314	0.00063

System: diphenylamine + carbon dioxide; phases: Fluid (supercritical or subcritical phases), Crystal
Property: Mole fraction of diphenylamine (Fluid (supercritical or subcritical phases)); method: spectrophotometric
Temperature, K	Pressure, kPa	Mole fraction of diphenylamine	uncertainty
305.15	8500	0.00107	0.00018
305.15	9000	0.00145	0.00025
305.15	10000	0.00266	0.0004
310.15	8200	0.002	0.00033
310.15	9000	0.00234	0.00051
310.15	10000	0.0035	0.00074
