Measured thermophysical data. Solubility of carbon dioxide and ethane in three ionic liquids based on the bis{(trifluoromethyl)sulfonyl}imide anion
Source: Fluid Phase Equilib., 2007, 10.1016/j.fluid.2007.05.002
Compound 1: carbon dioxide, CO2, InChI=1S/CO2/c2-1-3, purity 99.995%
Compound 2: ethane, C2H6, InChI=1S/C2H6/c1-2/h1-2H3, purity 99.5%
Compound 3: propylcholinium bis{(trifluoromethyl)sulfonyl}imide, C10H20F6N2O5S2, InChI=1S/C8H20NO.C2F6NO4S2/c1-4-6-9(2,3)7-5-8-10;3-1(4,5)14(10,11)9-15(12,13)2(6,7)8/h10H,4-8H2,1-3H3;/q+1;-1
Compound 4: 1-butyl-1-methylpyrrolidinium bis[(trifluoromethyl)sulfonyl]imide, C11H20F6N2O4S2, InChI=1S/C9H20N.C2F6NO4S2/c1-3-4-7-10(2)8-5-6-9-10;3-1(4,5)14(10,11)9-15(12,13)2(6,7)8/h3-9H2,1-2H3;/q+1;-1
Compound 5: 1-ethyl-3-methylimidazolium bis((trifluoromethyl)sulfonyl)imide, C8H11F6N3O4S2, InChI=1S/C6H11N2.C2F6NO4S2/c1-3-8-5-4-7(2)6-8;3-1(4,5)14(10,11)9-15(12,13)2(6,7)8/h4-6H,3H2,1-2H3;/q+1;-1

System: carbon dioxide + 1-ethyl-3-methylimidazolium bis((trifluoromethyl)sulfonyl)imide; phases: Liquid, Gas
Fixed: Pressure, kPa = 100
Property: Mole fraction of carbon dioxide (Liquid); method: Pressure Change
Temperature, K	Mole fraction of carbon dioxide	uncertainty
303.63	0.02614	0.00052
303.87	0.02578	0.00052
313.87	0.02172	0.00043
313.92	0.02155	0.00043
313.95	0.02192	0.00044
323.96	0.0184	0.00037
323.98	0.01823	0.00036
324.05	0.01848	0.00037
324.12	0.01829	0.00037
334.07	0.01584	0.00032
334.1	0.01571	0.00031
334.16	0.0156	0.00031
343.99	0.01375	0.00028
344.23	0.01368	0.00027

System: ethane + 1-ethyl-3-methylimidazolium bis((trifluoromethyl)sulfonyl)imide; phases: Liquid, Gas
Fixed: Pressure, kPa = 100
Property: Mole fraction of ethane (Liquid); method: Pressure Change
Temperature, K	Mole fraction of ethane	uncertainty
304.14	0.006599	0.000132
304.15	0.006639	0.000133
314.25	0.005793	0.000116
314.29	0.005821	0.000116
324.43	0.00506	0.000101
324.44	0.005049	0.000101
334.58	0.004337	8.7e-05
334.63	0.004425	8.9e-05
344.7	0.003802	7.6e-05

System: carbon dioxide + 1-butyl-1-methylpyrrolidinium bis[(trifluoromethyl)sulfonyl]imide; phases: Liquid, Gas
Fixed: Pressure, kPa = 100
Property: Mole fraction of carbon dioxide (Liquid); method: Pressure Change
Temperature, K	Mole fraction of carbon dioxide	uncertainty
303.78	0.02715	0.00054
313.8	0.02282	0.00046
313.85	0.02316	0.00046
323.94	0.01945	0.00039
323.96	0.01967	0.00039
334.04	0.01704	0.00034
334.04	0.01687	0.00034
334.1	0.01699	0.00034
344.04	0.01475	0.0003
344.05	0.01479	0.0003
344.15	0.0147	0.00029

System: ethane + 1-butyl-1-methylpyrrolidinium bis[(trifluoromethyl)sulfonyl]imide; phases: Liquid, Gas
Fixed: Pressure, kPa = 100
Property: Mole fraction of ethane (Liquid); method: Pressure Change
Temperature, K	Mole fraction of ethane	uncertainty
304.24	0.009441	0.000189
314.25	0.008269	0.000165
324.4	0.0073	0.000146
334.51	0.00634	0.000127
344.69	0.00573	0.000115

System: carbon dioxide + propylcholinium bis{(trifluoromethyl)sulfonyl}imide; phases: Liquid, Gas
Fixed: Pressure, kPa = 100
Property: Mole fraction of carbon dioxide (Liquid); method: Pressure Change
Temperature, K	Mole fraction of carbon dioxide	uncertainty
304.16	0.02384	0.00048
314.26	0.01985	0.0004
324.46	0.01676	0.00034
324.47	0.01677	0.00034
334.61	0.01407	0.00028
334.68	0.01405	0.00028
344.84	0.01221	0.00024

System: ethane + propylcholinium bis{(trifluoromethyl)sulfonyl}imide; phases: Liquid, Gas
Fixed: Pressure, kPa = 100
Property: Mole fraction of ethane (Liquid); method: Pressure Change
Temperature, K	Mole fraction of ethane	uncertainty
304.15	0.006209	0.000124
304.22	0.006047	0.000121
314.21	0.005248	0.000105
314.28	0.005427	0.000109
324.35	0.004694	9.4e-05
324.39	0.004617	9.2e-05
334.36	0.004057	8.1e-05
334.59	0.004031	8.1e-05
344.74	0.003575	7.2e-05
