Measured thermophysical data. Study of phase equilibria and the physicochemical properties of selected pharmaceuticals
Source: Fluid Phase Equilib., 2015, 10.1016/j.fluid.2015.07.037
Compound 1: water, H2O, InChI=1S/H2O/h1H2, purity 99.8%
Compound 2: ethanol, C2H6O, InChI=1S/C2H6O/c1-2-3/h3H,2H2,1H3, purity 99.8%
Compound 3: octan-1-ol, C8H18O, InChI=1S/C8H18O/c1-2-3-4-5-6-7-8-9/h9H,2-8H2,1H3, purity 99.8%
Compound 4: synephrine, C9H13NO2, InChI=1S/C9H13NO2/c1-10-6-9(12)7-2-4-8(11)5-3-7/h2-5,9-12H,6H2,1H3, purity 98%
Compound 5: (alphaR)-alpha-[(1S)-1-aminoethyl]-3-hydroxy-benzenemethanol (2R,3R)-2,3-dihydroxybutanedioate, C13H19NO8, InChI=1S/C9H13NO2.C4H6O6/c1-6(10)9(12)7-3-2-4-8(11)5-7;5-1(3(7)8)2(6)4(9)10/h2-6,9,11-12H,10H2,1H3;1-2,5-6H,(H,7,8)(H,9,10)/t6-,9-;1-,2-/m01/s1, purity 98%
Compound 6: (.+-.)-1-(3',4'-dihydroxyphenyl)-2-isopropylaminoethanol hydrochloride, C11H18ClNO3, InChI=1S/C11H17NO3.ClH/c1-7(2)12-6-11(15)8-3-4-9(13)10(14)5-8;/h3-5,7,11-15H,6H2,1-2H3;1H, purity 98.5%

System: synephrine; phases: Crystal, Liquid, Air at 1 atmosphere
Property: Molar enthalpy of transition or fusion, kJ/mol (Crystal); method: DSC
Molar enthalpy of transition or fusion, kJ/mol	uncertainty
99.7	2

System: synephrine; phases: Crystal, Liquid, Air at 1 atmosphere
Property: Normal melting temperature, K (Crystal); method: DTA
Normal melting temperature, K	uncertainty
463.53	0.41

System: (alphaR)-alpha-[(1S)-1-aminoethyl]-3-hydroxy-benzenemethanol (2R,3R)-2,3-dihydroxybutanedioate; phases: Crystal, Liquid, Air at 1 atmosphere
Property: Molar enthalpy of transition or fusion, kJ/mol (Crystal); method: DSC
Molar enthalpy of transition or fusion, kJ/mol	uncertainty
77.6	1.6

System: (alphaR)-alpha-[(1S)-1-aminoethyl]-3-hydroxy-benzenemethanol (2R,3R)-2,3-dihydroxybutanedioate; phases: Crystal, Liquid, Air at 1 atmosphere
Property: Normal melting temperature, K (Crystal); method: DTA
Normal melting temperature, K	uncertainty
452.69	0.41

System: (.+-.)-1-(3',4'-dihydroxyphenyl)-2-isopropylaminoethanol hydrochloride; phases: Crystal, Liquid, Air at 1 atmosphere
Property: Molar enthalpy of transition or fusion, kJ/mol (Crystal); method: DSC
Molar enthalpy of transition or fusion, kJ/mol	uncertainty
79.9	1.6

System: (.+-.)-1-(3',4'-dihydroxyphenyl)-2-isopropylaminoethanol hydrochloride; phases: Crystal, Liquid, Air at 1 atmosphere
Property: Normal melting temperature, K (Crystal); method: DTA
Normal melting temperature, K	uncertainty
443.37	0.41

System: synephrine + water; phases: Liquid, Crystal
Fixed: Pressure, kPa = 101
Property: Solid-liquid equilibrium temperature, K (Liquid); method: DTA
Mole fraction of synephrine	Solid-liquid equilibrium temperature, K	uncertainty
0.000279	311.6	0.41
0.000354	314.19	0.41
0.000438	318.08	0.41
0.00064	327	0.42
0.000744	327.96	0.42
0.001015	338.74	0.43
1	463.53	0.41

System: ethanol + synephrine; phases: Liquid, Crystal
Fixed: Pressure, kPa = 101
Property: Solid-liquid equilibrium temperature, K (Liquid); method: DTA
Mole fraction of synephrine	Solid-liquid equilibrium temperature, K	uncertainty
0.0012	302.98	10.37
0.0015	308.72	9.52
0.002	317.42	8
0.0031	329.93	7.53
0.0046	338.2	7.47
0.007	349.19	4.96
1	463.53	0.41

System: synephrine + octan-1-ol; phases: Liquid, Crystal
Fixed: Pressure, kPa = 101
Property: Solid-liquid equilibrium temperature, K (Liquid); method: DTA
Mole fraction of synephrine	Solid-liquid equilibrium temperature, K	uncertainty
0.000322	302.98	0.41
0.000446	308.72	0.41
0.000546	317.42	0.41
0.000677	329.93	0.41
0.000951	338.2	0.41
0.001005	349.19	0.41

System: (.+-.)-1-(3',4'-dihydroxyphenyl)-2-isopropylaminoethanol hydrochloride + water; phases: Liquid, Crystal
Fixed: Pressure, kPa = 101
Property: Solid-liquid equilibrium temperature, K (Liquid); method: DTA
Mole fraction of (.+-.)-1-(3',4'-dihydroxyphenyl)-2-isopropylaminoethanol hydrochloride	Solid-liquid equilibrium temperature, K	uncertainty
0.0346	302.63	0.54
0.0394	304.33	0.86
0.0428	309.11	1.02
0.0462	310.71	0.76
0.0567	317.85	0.76
0.0576	319.33	0.76
0.0699	325.98	0.58
0.072	326.86	0.58
0.0845	333.88	0.69
0.0916	337.79	0.67
0.1094	347.22	0.63
0.1311	356.87	0.55
0.1455	360.44	0.54
0.1578	366.33	0.63
1	443.37	0.41

System: (.+-.)-1-(3',4'-dihydroxyphenyl)-2-isopropylaminoethanol hydrochloride + ethanol; phases: Liquid, Crystal
Fixed: Pressure, kPa = 101
Property: Solid-liquid equilibrium temperature, K (Liquid); method: DTA
Mole fraction of (.+-.)-1-(3',4'-dihydroxyphenyl)-2-isopropylaminoethanol hydrochloride	Solid-liquid equilibrium temperature, K	uncertainty
0.0038	310.74	7.01
0.0056	318.4	6.97
0.0062	327.61	7
0.0067	331.03	3.27
0.0073	335.18	3.28
0.0145	348.29	1.87
1	443.37	0.41

System: (.+-.)-1-(3',4'-dihydroxyphenyl)-2-isopropylaminoethanol hydrochloride + octan-1-ol; phases: Liquid, Crystal
Fixed: Pressure, kPa = 101
Property: Solid-liquid equilibrium temperature, K (Liquid); method: DTA
Mole fraction of (.+-.)-1-(3',4'-dihydroxyphenyl)-2-isopropylaminoethanol hydrochloride	Solid-liquid equilibrium temperature, K	uncertainty
7.3e-05	293.15	0.41
0.000198	298.05	0.41
0.000293	303.15	0.41
0.000368	308.15	0.41
0.00039	313.15	0.41

System: water + (alphaR)-alpha-[(1S)-1-aminoethyl]-3-hydroxy-benzenemethanol (2R,3R)-2,3-dihydroxybutanedioate; phases: Liquid, Crystal
Fixed: Pressure, kPa = 101
Property: Solid-liquid equilibrium temperature, K (Liquid); method: DTA
Mole fraction of (alphaR)-alpha-[(1S)-1-aminoethyl]-3-hydroxy-benzenemethanol (2R,3R)-2,3-dihydroxybutanedioate	Solid-liquid equilibrium temperature, K	uncertainty
0.0486	298.53	0.89
0.0665	312.76	0.85
0.0759	318.74	0.87
0.0933	333.1	0.72
0.1076	337.29	0.68
0.1161	346.24	0.73
0.1258	348.54	0.69
0.1304	354.97	1.46
1	452.69	0.41

System: ethanol + (alphaR)-alpha-[(1S)-1-aminoethyl]-3-hydroxy-benzenemethanol (2R,3R)-2,3-dihydroxybutanedioate; phases: Liquid, Crystal
Fixed: Pressure, kPa = 101
Property: Solid-liquid equilibrium temperature, K (Liquid); method: DTA
Mole fraction of (alphaR)-alpha-[(1S)-1-aminoethyl]-3-hydroxy-benzenemethanol (2R,3R)-2,3-dihydroxybutanedioate	Solid-liquid equilibrium temperature, K	uncertainty
0.0003	299.32	8.78
0.0006	321.71	11.26
0.0008	313.82	23.47
0.0008	325.71	14.82
0.0009	318.09	0.42
0.0009	329.67	0.42
0.0014	304.62	4.84
0.0015	336.8	31.24
0.0019	346.08	29.23
1	452.69	0.41

System: octan-1-ol + (alphaR)-alpha-[(1S)-1-aminoethyl]-3-hydroxy-benzenemethanol (2R,3R)-2,3-dihydroxybutanedioate; phases: Liquid, Crystal
Fixed: Pressure, kPa = 101
Property: Solid-liquid equilibrium temperature, K (Liquid); method: DTA
Mole fraction of (alphaR)-alpha-[(1S)-1-aminoethyl]-3-hydroxy-benzenemethanol (2R,3R)-2,3-dihydroxybutanedioate	Solid-liquid equilibrium temperature, K	uncertainty
4.13e-05	293.15	0.41
4.38e-05	298.05	0.41
4.92e-05	303.15	0.41
5.38e-05	308.15	0.41
6e-05	318.15	0.41
6.57e-05	323.15	0.41
