Measured thermophysical data. Solubility and preferential solvation of indomethacin in 1,4-dioxane + water solvent mixtures
Source: Fluid Phase Equilib., 2010, 10.1016/j.fluid.2010.09.027
Compound 1: 1-(4-chlorobenzoyl)-5-methoxy-2-methyl-1H-indole-3-acetic acid, C19H16ClNO4, InChI=1S/C19H16ClNO4/c1-11-15(10-18(22)23)16-9-14(25-2)7-8-17(16)21(11)19(24)12-3-5-13(20)6-4-12/h3-9H,10H2,1-2H3,(H,22,23), purity 99.8%
Compound 2: 1,4-dioxane, C4H8O2, InChI=1S/C4H8O2/c1-2-6-4-3-5-1/h1-4H2, purity 99.8%
Compound 3: water, H2O, InChI=1S/H2O/h1H2, purity 99.8%

System: 1-(4-chlorobenzoyl)-5-methoxy-2-methyl-1H-indole-3-acetic acid + 1,4-dioxane + water; phases: Liquid mixture 1, Crystal
Fixed: Pressure, kPa = 101.3
Property: Mole fraction of 1-(4-chlorobenzoyl)-5-methoxy-2-methyl-1H-indole-3-acetic acid (Liquid mixture 1); method: UV/Vis
Solvent: Mass fraction of 1,4-dioxane	Temperature, K	Mole fraction of 1-(4-chlorobenzoyl)-5-methoxy-2-methyl-1H-indole-3-acetic acid	uncertainty
0	293.15	7.81e-07	7.2e-08
0	298.15	9.32e-07	1e-07
0	303.15	1.104e-06	1e-07
0	308.15	1.274e-06	1e-07
0	313.15	1.52e-06	1.7e-07
0.1	293.15	1.931e-06	1.29e-07
0.1	298.15	2.319e-06	1.3e-07
0.1	303.15	2.79e-06	1.7e-07
0.1	308.15	3.399e-06	1.82e-07
0.1	313.15	4.098e-06	1.96e-07
0.2	293.15	3.76e-06	2.5e-07
0.2	298.15	4.6e-06	2.4e-07
0.2	303.15	5.8e-06	2.6e-07
0.2	308.15	6.99e-06	3.03e-07
0.2	313.15	8.69e-06	4.2e-07
0.3	293.15	7.99e-06	6.7e-07
0.3	298.15	9.93e-06	5.4e-07
0.3	303.15	1.309e-05	1.14e-06
0.3	308.15	1.571e-05	1.18e-06
0.3	313.15	1.993e-05	1.78e-06
0.4	293.15	3.308e-05	2.07e-06
0.4	298.15	4.42e-05	3.4e-06
0.4	303.15	5.82e-05	4e-06
0.4	308.15	7.07e-05	5.1e-06
0.4	313.15	9.72e-05	7.9e-06
0.5	293.15	0.0001604	1.47e-05
0.5	298.15	0.0002099	1.36e-05
0.5	303.15	0.00028	2.1e-05
0.5	308.15	0.000381	3e-05
0.5	313.15	0.0004852	3.88e-05
0.6	293.15	0.000853	6.1e-05
0.6	298.15	0.001062	7.5e-05
0.6	303.15	0.00158	0.00014
0.6	308.15	0.001987	0.000148
0.6	313.15	0.002554	0.000189
0.7	293.15	0.004027	0.000113
0.7	298.15	0.00493	0.00035
0.7	303.15	0.00646	0.00037
0.7	308.15	0.00831	0.00031
0.7	313.15	0.0111	0.00101
0.75	293.15	0.00649	0.00027
0.75	298.15	0.00864	0.00046
0.75	303.15	0.01088	0.00042
0.75	308.15	0.01358	0.00043
0.75	313.15	0.01666	0.00112
0.8	293.15	0.01308	0.00094
0.8	298.15	0.0159	0.00083
0.8	303.15	0.01982	0.00077
0.8	308.15	0.0242	0.0017
0.8	313.15	0.0285	0.0025
0.85	293.15	0.0197	0.0013
0.85	298.15	0.02304	0.0008
0.85	303.15	0.0271	0.0013
0.85	308.15	0.0328	0.0021
0.85	313.15	0.03809	0.00087
0.9	293.15	0.0279	0.0017
0.9	298.15	0.0317	0.0025
0.9	303.15	0.0372	0.0017
0.9	308.15	0.04228	0.00085
0.9	313.15	0.0486	0.0025
0.95	293.15	0.0359	0.0021
0.95	298.15	0.0399	0.0013
0.95	303.15	0.0448	0.0021
0.95	308.15	0.0505	0.0025
0.95	313.15	0.0565	0.0017
1	293.15	0.02491	0.00077
1	298.15	0.029	0.0012
1	303.15	0.0343	0.0024
1	308.15	0.04164	0.00076
1	313.15	0.0477	0.0013
