Measured thermophysical data. Viscosity and self-diffusivity of ionic liquids with compressed hydrofluorocarbons: 1-hexyl-3-methyl-imidazolium bis(trifluoromethylsulfonyl)amide and 1,1,1,2- tetrafluoroethane.
Source: Fluid Phase Equilib., 2017, 10.1016/j.fluid.2016.11.022
Compound 1: 1,1,1,2-tetrafluoroethane, C2H2F4, InChI=1S/C2H2F4/c3-1-2(4,5)6/h1H2
Compound 2: 1-hexyl-3-methylimidazolium bis[(trifluoromethyl)sulfonyl]imide, C12H19F6N3O4S2, InChI=1S/C10H19N2.C2F6NO4S2/c1-3-4-5-6-7-12-9-8-11(2)10-12;3-1(4,5)14(10,11)9-15(12,13)2(6,7)8/h8-10H,3-7H2,1-2H3;/q+1;-1

System: 1,1,1,2-tetrafluoroethane; phases: Liquid
Property: Self diffusion coefficient, m2/s (Liquid); method: NMR
Pressure, kPa	Temperature, K	Self diffusion coefficient, m2/s	uncertainty
670	298.15	5.949e-09	0.595

System: 1-hexyl-3-methylimidazolium bis[(trifluoromethyl)sulfonyl]imide; phases: Liquid
Property: Viscosity, Pa*s (Liquid); method: Oscillating piston [Cambridge Applied Systems Model]
Pressure, kPa	Temperature, K	Viscosity, Pa*s	uncertainty
100	343.15	0.01407	0.00035

System: 1-hexyl-3-methylimidazolium bis[(trifluoromethyl)sulfonyl]imide; phases: Liquid
Fixed: Pressure, kPa = 100
Property: Self diffusion coefficient, m2/s (Liquid); method: NMR
Temperature, K	Self diffusion coefficient, m2/s	uncertainty
298.15	1.79e-11	0.0083
323.15	5.54e-11	0.01
343.15	1.066e-10	0.0146

System: 1,1,1,2-tetrafluoroethane + 1-hexyl-3-methylimidazolium bis[(trifluoromethyl)sulfonyl]imide; phases: Liquid
Fixed: Temperature, K = 343.15
Property: Viscosity, Pa*s (Liquid); method: Oscillating piston [Cambridge Applied Systems Model]
Pressure, kPa	Mole fraction of 1,1,1,2-tetrafluoroethane	Viscosity, Pa*s	uncertainty
100	0	0.01407	0.00035
310	0.148	0.01262	0.00031
610	0.276	0.01197	0.00133
850	0.364	0.00933	0.00156
1130	0.459	0.00809	0.00018
1470	0.575	0.00706	0.0003
2030	0.813	0.00324	7e-05

System: 1,1,1,2-tetrafluoroethane + 1-hexyl-3-methylimidazolium bis[(trifluoromethyl)sulfonyl]imide; phases: Liquid
Fixed: Pressure, kPa = 670
Fixed: Temperature, K = 298.15
Property: Tracer diffusion coefficient, m2/s of 1,1,1,2-tetrafluoroethane (Liquid); method: NMR
Mole fraction of 1,1,1,2-tetrafluoroethane	Tracer diffusion coefficient, m2/s of 1,1,1,2-tetrafluoroethane	uncertainty
0.3	0.186	0.019
0.5	0.308	0.032
0.7	0.522	0.114
0.98	4.986	0.693
1	5.949	0.595
0	0.179	0.018

System: 1,1,1,2-tetrafluoroethane + 1-hexyl-3-methylimidazolium bis[(trifluoromethyl)sulfonyl]imide; phases: Liquid
Property: Tracer diffusion coefficient, m2/s of 1-hexyl-3-methylimidazolium bis[(trifluoromethyl)sulfonyl]imide (Liquid); method: NMR
Pressure, kPa	Temperature, K	Mole fraction of 1,1,1,2-tetrafluoroethane	Tracer diffusion coefficient, m2/s of 1-hexyl-3-methylimidazolium bis[(trifluoromethyl)sulfonyl]imide	uncertainty
100	298.15	0	0.0179	0.0083
315	298.15	0.42	0.025	0.0084
419	298.15	0.55	0.0255	0.0084
100	323.15	0	0.0554	0.01
314	323.15	0.23	0.0686	0.0116
412	323.15	0.3	0.0697	0.012
515	323.15	0.36	0.0685	0.012
100	343.15	0	0.1066	0.0146
406	343.15	0.19	0.1291	0.0165
511	343.15	0.24	0.1315	0.0167
608	343.15	0.28	0.1341	0.017

System: 1,1,1,2-tetrafluoroethane + 1-hexyl-3-methylimidazolium bis[(trifluoromethyl)sulfonyl]imide; phases: Gas, Liquid
Fixed: Temperature, K = 343.15
Property: Vapor or sublimation pressure, kPa (Gas); method: Closed cell (Static) method
Mole fraction of 1,1,1,2-tetrafluoroethane	Vapor or sublimation pressure, kPa	uncertainty
0.0397	84	14
0.1086	212	14
0.1956	395	16
0.2904	615	18
0.4272	971	23
0.5508	1320	30
0.6867	1732	36
0.777	1956	40
0.8075	2016	41
0.8427	2064	42
0.8572	2075	42

System: 1,1,1,2-tetrafluoroethane + 1-hexyl-3-methylimidazolium bis[(trifluoromethyl)sulfonyl]imide; phases: Liquid
Fixed: Temperature, K = 343.15
Property: Molar volume, m3/mol (Liquid); method: High-pressure cell with syringe pump
Pressure, kPa	Mole fraction of 1,1,1,2-tetrafluoroethane	Molar volume, m3/mol	uncertainty
84	0.0397	0.0003358	3.2e-06
212	0.1086	0.0003159	2.8e-06
395	0.1956	0.0002928	2.6e-06
615	0.2904	0.0002669	2.2e-06
971	0.4272	0.0002313	1.8e-06
1320	0.5508	0.0001984	1.4e-06
1732	0.6867	0.0001653	1e-06
1956	0.777	0.0001436	8e-07
2016	0.8075	0.0001367	6e-07
2064	0.8427	0.0001289	6e-07
2075	0.8572	0.0001265	4e-07

System: 1,1,1,2-tetrafluoroethane + 1-hexyl-3-methylimidazolium bis[(trifluoromethyl)sulfonyl]imide; phases: Gas, Liquid mixture 1, Liquid mixture 2
Property: Vapor or sublimation pressure, kPa (Gas); method: Closed cell (Static) method
Temperature, K	Vapor or sublimation pressure, kPa	uncertainty
343.15	2100	43

System: 1,1,1,2-tetrafluoroethane + 1-hexyl-3-methylimidazolium bis[(trifluoromethyl)sulfonyl]imide; phases: Gas, Liquid mixture 1, Liquid mixture 2
Property: Triple point temperature, K (Gas); method: VISOBS
Mole fraction of 1,1,1,2-tetrafluoroethane	Triple point temperature, K	uncertainty
0.871	343.15	0.2

System: 1,1,1,2-tetrafluoroethane + 1-hexyl-3-methylimidazolium bis[(trifluoromethyl)sulfonyl]imide; phases: Liquid mixture 1, Liquid mixture 2
Property: Mole fraction of 1,1,1,2-tetrafluoroethane (Liquid mixture 1); method: ?
Pressure, kPa	Temperature, K	Mole fraction of 1,1,1,2-tetrafluoroethane	uncertainty
3778	343.15	0.944	0.056

System: 1,1,1,2-tetrafluoroethane + 1-hexyl-3-methylimidazolium bis[(trifluoromethyl)sulfonyl]imide; phases: Liquid mixture 1, Liquid mixture 2
Property: Upper consolute pressure, kPa (Liquid mixture 1); method: Closed cell (Static) method
Temperature, K	Upper consolute pressure, kPa	uncertainty
343.15	3778	40.4

System: 1,1,1,2-tetrafluoroethane + 1-hexyl-3-methylimidazolium bis[(trifluoromethyl)sulfonyl]imide; phases: Liquid
Fixed: Pressure, kPa = 670
Fixed: Temperature, K = 298.15
Property: Tracer diffusion coefficient, m2/s of 1-hexyl-3-methylimidazolium bis[(trifluoromethyl)sulfonyl]imide (Liquid); method: NMR
Mole fraction of 1,1,1,2-tetrafluoroethane	Tracer diffusion coefficient, m2/s of 1-hexyl-3-methylimidazolium bis[(trifluoromethyl)sulfonyl]imide	uncertainty
0.3	0.0449	0.0045
0.5	0.0587	0.0061
0.7	0.104	0.011
0.86	0.129	0.046
0.98	1.414	0.177
