Measured thermophysical data. Separation of aromatic hydrocarbons from alkanes using ammonium ionic liquid C2NTf2 at T = 298.15K
Source: Fluid Phase Equilib., 2007, 10.1016/j.fluid.2007.06.025
Compound 1: ethyl(2-hydroxyethyl)dimethylammonium bis{(trifluomethyl)sulfonyl}imide, C8H16F6N2O5S2, InChI=1S/C6H16NO.C2F6NO4S2/c1-4-7(2,3)5-6-8;3-1(4,5)14(10,11)9-15(12,13)2(6,7)8/h8H,4-6H2,1-3H3;/q+1;-1
Compound 2: benzene, C6H6, InChI=1S/C6H6/c1-2-4-6-5-3-1/h1-6H, purity 99.8%
Compound 3: 1,4-dimethylbenzene, C8H10, InChI=1S/C8H10/c1-7-3-5-8(2)6-4-7/h3-6H,1-2H3, purity 99%
Compound 4: hexane, C6H14, InChI=1S/C6H14/c1-3-5-6-4-2/h3-6H2,1-2H3, purity 99%
Compound 5: octane, C8H18, InChI=1S/C8H18/c1-3-5-7-8-6-4-2/h3-8H2,1-2H3, purity 99%
Compound 6: 1,3-dimethylbenzene, C8H10, InChI=1S/C8H10/c1-7-4-3-5-8(2)6-7/h3-6H,1-2H3, purity 99%

System: benzene; phases: Liquid
Property: Refractive index (Na D-line) (Liquid); method: Standard Abbe refractometry
Temperature, K	Pressure, kPa	Refractive index (Na D-line)	uncertainty
298.15	101.325	1.4981	0.00072

System: 1,4-dimethylbenzene; phases: Liquid
Property: Refractive index (Na D-line) (Liquid); method: Standard Abbe refractometry
Temperature, K	Pressure, kPa	Refractive index (Na D-line)	uncertainty
298.15	101.325	1.49321	0.00075

System: hexane; phases: Liquid
Property: Refractive index (Na D-line) (Liquid); method: Standard Abbe refractometry
Temperature, K	Pressure, kPa	Refractive index (Na D-line)	uncertainty
298.15	101.325	1.37226	0.00075

System: octane; phases: Liquid
Property: Refractive index (Na D-line) (Liquid); method: Standard Abbe refractometry
Temperature, K	Pressure, kPa	Refractive index (Na D-line)	uncertainty
298.15	101.325	1.39504	0.00075

System: 1,3-dimethylbenzene; phases: Liquid
Property: Refractive index (Na D-line) (Liquid); method: Standard Abbe refractometry
Temperature, K	Pressure, kPa	Refractive index (Na D-line)	uncertainty
298.15	101.325	1.49468	0.00075

System: benzene + hexane + ethyl(2-hydroxyethyl)dimethylammonium bis{(trifluomethyl)sulfonyl}imide; phases: Liquid mixture 1, Liquid mixture 2
Fixed: Temperature, K = 298.15
Fixed: Pressure, kPa = 101.325
Property: Mole fraction of benzene (Liquid mixture 1); method: Proton NMR
Property: Mole fraction of hexane (Liquid mixture 2); method: Proton NMR
Property: Mole fraction of benzene (Liquid mixture 2); method: Proton NMR
Mole fraction of hexane	Mole fraction of benzene	uncertainty	Mole fraction of hexane	uncertainty	Mole fraction of benzene	uncertainty
1	0	0.01	0.08	0.01	0	
0.83	0.17	0.01	0.05	0.01	0.21	
0.65	0.35	0.01	0.03	0.01	0.33	
0.59	0.41	0.01	0.02	0.01	0.36	
0.51	0.49	0.01	0.02	0.01	0.37	
0.43	0.57	0.01	0.02	0.01	0.37	
0.36	0.64	0.01	0.02	0.01	0.39	
0.3	0.7	0.01	0.02	0.01	0.41	
0.2	0.8	0.01	0.03	0.01	0.55	

System: 1,4-dimethylbenzene + hexane + ethyl(2-hydroxyethyl)dimethylammonium bis{(trifluomethyl)sulfonyl}imide; phases: Liquid mixture 2, Liquid mixture 1
Fixed: Temperature, K = 298.15
Fixed: Pressure, kPa = 101.325
Property: Mole fraction of hexane (Liquid mixture 2); method: Proton NMR
Property: Mole fraction of hexane (Liquid mixture 1); method: Proton NMR
Property: Mole fraction of 1,4-dimethylbenzene (Liquid mixture 1); method: Proton NMR
Mole fraction of 1,4-dimethylbenzene	Mole fraction of hexane	uncertainty	Mole fraction of hexane	uncertainty	Mole fraction of 1,4-dimethylbenzene	uncertainty
0	0.02	0.01	1	0.01	0	
0.11	0.02	0.01	0.91	0.01	0.09	
0.13	0.02	0.01	0.69	0.01	0.31	
0.14	0.02	0.01	0.64	0.01	0.36	
0.15	0.02	0.01	0.51	0.01	0.49	
0.16	0.02	0.01	0.46	0.01	0.54	
0.17	0.02	0.01	0.37	0.01	0.63	
0.21	0.01	0.01	0.22	0.01	0.78	

System: 1,3-dimethylbenzene + hexane + ethyl(2-hydroxyethyl)dimethylammonium bis{(trifluomethyl)sulfonyl}imide; phases: Liquid mixture 1, Liquid mixture 2
Fixed: Temperature, K = 298.15
Fixed: Pressure, kPa = 101.325
Property: Mole fraction of hexane (Liquid mixture 1); method: Proton NMR
Property: Mole fraction of hexane (Liquid mixture 2); method: Proton NMR
Property: Mole fraction of 1,3-dimethylbenzene (Liquid mixture 2); method: Proton NMR
Mole fraction of 1,3-dimethylbenzene	Mole fraction of hexane	uncertainty	Mole fraction of hexane	uncertainty	Mole fraction of 1,3-dimethylbenzene	uncertainty
0	1		0.02	0.01	0	
0.2	0.8	0.01	0.02	0.01	0.05	
0.23	0.77	0.01	0.02	0.01	0.07	
0.43	0.57	0.01	0.02	0.01	0.13	
0.5	0.5	0.02	0.02	0.01	0.14	
0.52	0.48	0.02	0.02	0.01	0.15	
0.56	0.44	0.01	0.02	0.01	0.17	
0.65	0.35	0.01	0.02	0.01	0.18	
0.74	0.26	0.01	0.02	0.01	0.26	
0.86	0.14	0.01	0.02	0.01	0.29	

System: 1,3-dimethylbenzene + octane + ethyl(2-hydroxyethyl)dimethylammonium bis{(trifluomethyl)sulfonyl}imide; phases: Liquid mixture 1, Liquid mixture 2
Fixed: Temperature, K = 298.15
Fixed: Pressure, kPa = 101.325
Property: Mole fraction of octane (Liquid mixture 1); method: Proton NMR
Property: Mole fraction of octane (Liquid mixture 2); method: Proton NMR
Property: Mole fraction of 1,3-dimethylbenzene (Liquid mixture 2); method: Proton NMR
Mole fraction of 1,3-dimethylbenzene	Mole fraction of octane	uncertainty	Mole fraction of octane	uncertainty	Mole fraction of 1,3-dimethylbenzene	uncertainty
0	1		0.01	0.01	0	
0.06	0.94	0.01	0.01	0.01	0.02	
0.1	0.9	0.01	0.01	0.01	0.03	
0.19	0.81	0.01	0.01	0.01	0.06	
0.29	0.71	0.01	0.01	0.01	0.09	
0.37	0.63	0.01	0		0.1	
0.42	0.58	0.01	0		0.12	
0.57	0.43	0.01	0		0.18	
0.7	0.3	0.01	0		0.23	
0.82	0.18	0.01	0		0.26	
0.99	0.01	0.01	0		0.31	
