Measured thermophysical data. Experimental solid liquid equilibria for systems containing alkan-1-ol + 1,3-diaminopropane Heat capacities of alkan-1-ols and amines Thermodynamic functions of dissociation and enthalpies of melting of the congruently melting compounds for the systems (alkan-1-ol + amine)
Source: Fluid Phase Equilib., 2005, 10.1016/j.fluid.2005.07.009
Compound 1: 1-hexanamine, C6H15N, InChI=1S/C6H15N/c1-2-3-4-5-6-7/h2-7H2,1H3
Compound 2: 1-octanamine, C8H19N, InChI=1S/C8H19N/c1-2-3-4-5-6-7-8-9/h2-9H2,1H3
Compound 3: 1-decanamine, C10H23N, InChI=1S/C10H23N/c1-2-3-4-5-6-7-8-9-10-11/h2-11H2,1H3
Compound 4: 1,3-propanediamine, C3H10N2, InChI=1S/C3H10N2/c4-2-1-3-5/h1-5H2
Compound 5: octan-1-ol, C8H18O, InChI=1S/C8H18O/c1-2-3-4-5-6-7-8-9/h9H,2-8H2,1H3
Compound 6: nonan-1-ol, C9H20O, InChI=1S/C9H20O/c1-2-3-4-5-6-7-8-9-10/h10H,2-9H2,1H3
Compound 7: decan-1-ol, C10H22O, InChI=1S/C10H22O/c1-2-3-4-5-6-7-8-9-10-11/h11H,2-10H2,1H3
Compound 8: 1-undecanol, C11H24O, InChI=1S/C11H24O/c1-2-3-4-5-6-7-8-9-10-11-12/h12H,2-11H2,1H3

System: 1-hexanamine; phases: Crystal, Liquid, Air at 1 atmosphere
Property: Molar enthalpy of transition or fusion, kJ/mol (Crystal); method: DSC
Molar enthalpy of transition or fusion, kJ/mol	uncertainty
25.04	0.73

System: 1-hexanamine; phases: Liquid
Fixed: Pressure, kPa = 101.325
Property: Molar heat capacity at constant pressure, J/K/mol (Liquid); method: Small sample (50 mg) DSC
Temperature, K	Molar heat capacity at constant pressure, J/K/mol	uncertainty
267.26	248.4	4.97
268.63	248.52	4.97
269.54	248.61	4.97
270.16	248.66	4.97
271.24	248.67	4.97
272.69	248.95	4.98
273.56	249.01	4.98
274.18	249.09	4.98
275.88	249.12	4.98
276.66	249.26	4.99
277.16	249.31	4.99
278.69	249.34	4.99
279.94	249.36	4.99
280.47	249.45	4.99
281.8	249.47	4.99
282.34	249.48	4.99
283.41	249.51	4.99
284.45	249.55	4.99
285.4	249.79	5
286.56	249.85	5
287.39	249.86	5
288.43	250.09	5
289.09	250.12	5
290.21	250.23	5
292.36	250.46	5.01
293.15	250.5	5.01
295.59	250.98	5.02

System: 1-hexanamine; phases: Crystal
Fixed: Pressure, kPa = 101.325
Property: Molar heat capacity at constant pressure, J/K/mol (Crystal); method: Small sample (50 mg) DSC
Temperature, K	Molar heat capacity at constant pressure, J/K/mol	uncertainty
205.12	135.48	2.71
206.53	137.42	2.75
207.27	138.49	2.77
208.18	140.02	2.8
209.16	140.47	2.81
210.21	141.21	2.82
211.81	141.65	2.83
212.3	141.8	2.84
213.41	141.86	2.84
214.27	141.99	2.84
215.45	143.94	2.88
216.17	144.89	2.9
217.45	145.13	2.9
218.13	145.21	2.9
219.48	146.21	2.92
220.34	147.15	2.94
221.19	148.86	2.98
222.04	149.71	2.99
223.38	151.47	3.03
224.66	152.29	3.05
225.39	153.27	3.07
226.42	155.08	3.1
228.17	156.72	3.13
230.11	160.13	3.2

System: 1-octanamine; phases: Crystal, Liquid, Air at 1 atmosphere
Property: Molar enthalpy of transition or fusion, kJ/mol (Crystal); method: DSC
Molar enthalpy of transition or fusion, kJ/mol	uncertainty
34.74	0.97

System: 1-octanamine; phases: Liquid
Fixed: Pressure, kPa = 101.325
Property: Molar heat capacity at constant pressure, J/K/mol (Liquid); method: Small sample (50 mg) DSC
Temperature, K	Molar heat capacity at constant pressure, J/K/mol	uncertainty
295.09	304.31	6.09
295.53	304.33	6.09
296.13	304.35	6.09
296.41	304.94	6.1
297.1	304.99	6.1
297.32	305.36	6.11
298.16	305.42	6.11
298.58	305.98	6.12
299.02	306.08	6.12
299.35	306.45	6.13
300.13	306.53	6.13
300.53	306.69	6.13
301.18	307.19	6.14
301.52	307.31	6.15
302.16	307.33	6.15
302.56	307.36	6.15
303.28	307.81	6.16
303.51	308.08	6.16
304.44	308.1	6.16
304.71	308.11	6.16
304.99	308.47	6.17
305.64	308.51	6.17
306.11	308.52	6.17
306.59	308.6	6.17
307.38	308.63	6.17
307.5	308.83	6.18
308.05	308.92	6.18
308.54	309.05	6.18
309.16	309.12	6.18
309.24	309.24	6.18
310.24	309.3	6.19
310.53	309.35	6.19
311.07	309.39	6.19
311.51	310.16	6.2
312.64	310.21	6.2
313.22	310.76	6.22

System: 1-octanamine; phases: Crystal
Fixed: Pressure, kPa = 101.325
Property: Molar heat capacity at constant pressure, J/K/mol (Crystal); method: Small sample (50 mg) DSC
Temperature, K	Molar heat capacity at constant pressure, J/K/mol	uncertainty
214.08	167.97	3.36
215.55	170.58	3.41
217.65	171.84	3.44
218.54	174.15	3.48
220.18	175.59	3.51
221.56	175.94	3.52
223.07	176.5	3.53
224.56	177.92	3.56
226.18	179.15	3.58
227.54	180.21	3.6
229.16	180.94	3.62
230.51	183.42	3.67
232.12	185.1	3.7
233.53	186.36	3.73
235.26	187	3.74
236.54	188.74	3.77
238.13	189.62	3.79
239.53	191.53	3.83
241.11	193.65	3.87
242.56	195.03	3.9
244.04	196.53	3.93
245.1	197.38	3.95
246.25	197.77	3.96
247.23	198.38	3.97
248.63	203.31	4.07
249.05	203.59	4.07
249.65	203.61	4.07
251.8	204.04	4.08
252.23	204.62	4.09
253.02	206.62	4.13

System: 1-decanamine; phases: Crystal, Liquid, Air at 1 atmosphere
Property: Molar enthalpy of transition or fusion, kJ/mol (Crystal); method: DSC
Molar enthalpy of transition or fusion, kJ/mol	uncertainty
42.7	1.17

System: 1-decanamine; phases: Liquid
Fixed: Pressure, kPa = 101.325
Property: Molar heat capacity at constant pressure, J/K/mol (Liquid); method: Small sample (50 mg) DSC
Temperature, K	Molar heat capacity at constant pressure, J/K/mol	uncertainty
298.11	372.55	7.45
299.64	373.35	7.47
300.38	373.78	7.48
301.27	373.82	7.48
302.37	374.25	7.49
303.41	374.33	7.49
304.05	374.34	7.49
305.25	374.39	7.49
306.31	374.86	7.5
307.28	375.02	7.5
308.4	375.08	7.5
309.24	375.35	7.51
310.32	375.6	7.51
311.09	375.9	7.52
312.37	376.23	7.52
313.36	376.31	7.53
314.28	376.34	7.53
315.23	376.91	7.54
316.39	377.46	7.55
317.53	377.49	7.55
318.23	377.55	7.55
319.33	377.88	7.56
320.09	377.93	7.56
321.19	377.99	7.56
322.08	378.21	7.56
323.45	378.65	7.57
324.17	379.09	7.58
325	379.38	7.59
326.2	379.69	7.59
327.09	379.8	7.6
328.21	379.88	7.6
329.22	380.68	7.61
330.18	380.93	7.62
331.23	381.19	7.62
332.31	381.58	7.63
333.26	382.32	7.65

System: 1-decanamine; phases: Crystal
Fixed: Pressure, kPa = 101.325
Property: Molar heat capacity at constant pressure, J/K/mol (Crystal); method: Small sample (50 mg) DSC
Temperature, K	Molar heat capacity at constant pressure, J/K/mol	uncertainty
260.31	259.31	5.19
260.64	260.44	5.21
260.93	261.21	5.22
261.39	261.42	5.23
261.62	262.06	5.24
261.99	263.4	5.27
262.32	263.89	5.28
262.67	264.94	5.3
262.94	265.77	5.32
263.34	266.8	5.34
263.61	266.97	5.34
263.92	267.74	5.36
264.39	269.3	5.39
264.62	269.42	5.39
264.91	270.38	5.41
265.33	271.97	5.44
265.61	272.3	5.45
265.95	273.03	5.46
266.38	274.58	5.49
266.67	275.4	5.51
266.96	275.97	5.52
267.36	277.46	5.55
267.62	278.39	5.57
267.94	279.27	5.59
268.33	280.36	5.61
268.66	281.82	5.64
268.95	282.79	5.66
269.32	283.64	5.67
269.63	284.29	5.69
270.21	285.94	5.72

System: 1,3-propanediamine; phases: Crystal 1, Liquid, Air at 1 atmosphere
Property: Molar enthalpy of transition or fusion, kJ/mol (Crystal 1); method: DSC
Molar enthalpy of transition or fusion, kJ/mol	uncertainty
22.36	0.66

System: 1,3-propanediamine; phases: Crystal 1, Liquid, Air at 1 atmosphere
Property: Triple point temperature, K (Crystal 1); method: DTA
Triple point temperature, K	uncertainty
262.19	0.5

System: 1,3-propanediamine; phases: Liquid
Fixed: Pressure, kPa = 101.325
Property: Molar heat capacity at constant pressure, J/K/mol (Liquid); method: Small sample (50 mg) DSC
Temperature, K	Molar heat capacity at constant pressure, J/K/mol	uncertainty
269.31	200.32	4.01
271.34	200.44	4.01
273.29	200.87	4.02
275.36	200.94	4.02
277.41	201.41	4.03
279.63	201.51	4.03
281.55	201.82	4.04
283.37	202.03	4.04
285.47	202.29	4.05
287.35	202.53	4.05
289.23	202.79	4.06
291.28	203.12	4.06
293.27	203.44	4.07
295.53	204.02	4.08
297.16	204.35	4.09
299.44	204.4	4.09
302.13	204.56	4.09
304.68	204.87	4.1
306.46	204.95	4.1
308.51	205.44	4.11
310.56	205.49	4.11
312.42	205.78	4.12
315.65	206.16	4.12
317.6	206.28	4.13
320.27	206.67	4.13
322.36	206.76	4.14
325.51	207.27	4.15
327.54	207.43	4.15
330.44	207.85	4.16
333.46	207.99	4.16

System: 1,3-propanediamine; phases: Crystal 2
Fixed: Pressure, kPa = 101.325
Property: Molar heat capacity at constant pressure, J/K/mol (Crystal 2); method: Small sample (50 mg) DSC
Temperature, K	Molar heat capacity at constant pressure, J/K/mol	uncertainty
210.17	95.15	1.9
211.63	98.6	1.97
212.38	99.24	1.98
213.45	100.56	2.01
214.52	101.65	2.03
215.39	102.15	2.04
216.89	102.21	2.04
217.39	102.47	2.05
218.2	103.01	2.06
219.56	103.15	2.06
220.98	103.33	2.07
221.6	104.53	2.09
222.57	105.45	2.11
223.61	106.47	2.13
224.16	106.75	2.14
225.7	106.91	2.14
226.44	107.67	2.15
226.87	108.07	2.16
228.09	108.1	2.16
229.51	108.47	2.17
230.13	109.74	2.19
231.59	110.88	2.22
232.5	111.31	2.23
233.79	111.43	2.23
234.58	113.62	2.27
235.36	115.41	2.31
237.9	116.57	2.33
238.39	116.7	2.33
239.37	117.02	2.34
240.41	119.05	2.38

System: octan-1-ol; phases: Crystal, Liquid, Air at 1 atmosphere
Property: Triple point temperature, K (Crystal); method: DTA
Triple point temperature, K	uncertainty
258.03	0.5

System: nonan-1-ol; phases: Crystal, Liquid, Air at 1 atmosphere
Property: Molar enthalpy of transition or fusion, kJ/mol (Crystal); method: DSC
Molar enthalpy of transition or fusion, kJ/mol	uncertainty
24.54	0.71

System: nonan-1-ol; phases: Crystal, Liquid, Air at 1 atmosphere
Property: Triple point temperature, K (Crystal); method: DTA
Triple point temperature, K	uncertainty
268.1	0.5

System: nonan-1-ol; phases: Liquid
Fixed: Pressure, kPa = 101.325
Property: Molar heat capacity at constant pressure, J/K/mol (Liquid); method: Small sample (50 mg) DSC
Temperature, K	Molar heat capacity at constant pressure, J/K/mol	uncertainty
281.12	323.47	6.47
283.23	325.33	6.51
285.32	327.22	6.54
287.14	329.03	6.58
289.01	330.95	6.62
291.14	333.2	6.66
293.02	335.22	6.7
295.38	338.09	6.76
297.54	340.92	6.82
299.13	342.32	6.85
301.41	344.69	6.89
303.29	346.6	6.93
305.67	349.55	6.99
307.02	350.87	7.02
309.17	353.11	7.06
311.06	355.46	7.11
313.19	358.03	7.16
315.22	360.47	7.21
317.08	362.75	7.26
319.19	364.89	7.3
321.24	367.74	7.35
323.77	370.56	7.41
326.13	373.42	7.47
330.1	378.15	7.56

System: nonan-1-ol; phases: Crystal
Fixed: Pressure, kPa = 101.325
Property: Molar heat capacity at constant pressure, J/K/mol (Crystal); method: Small sample (50 mg) DSC
Temperature, K	Molar heat capacity at constant pressure, J/K/mol	uncertainty
217.02	195.3	3.91
218.14	196.38	3.93
219.82	196.77	3.94
220.01	196.98	3.94
221.07	197.26	3.95
222.06	199.54	3.99
223.11	200.68	4.01
224.89	201.22	4.02
225.38	201.57	4.03
226.05	203.08	4.06
227.04	204.3	4.09
228.26	206.7	4.13
229.23	207.14	4.14
230.03	207.39	4.15
231.26	211.42	4.23
233.02	212.23	4.24
233.27	212.33	4.25
234.62	212.65	4.25
235.18	215.05	4.3
236.09	217.22	4.34
237.12	218.22	4.36
238.16	219.07	4.38
239.02	219.63	4.39
240.11	221.25	4.43
241.15	223.4	4.47
242.06	224.92	4.5
243.08	227.73	4.55
244.17	228.57	4.57
245.08	231.13	4.62
246.16	232.99	4.66

System: decan-1-ol; phases: Crystal, Liquid, Air at 1 atmosphere
Property: Molar enthalpy of transition or fusion, kJ/mol (Crystal); method: DSC
Molar enthalpy of transition or fusion, kJ/mol	uncertainty
31.4	0.89

System: decan-1-ol; phases: Crystal, Liquid, Air at 1 atmosphere
Property: Triple point temperature, K (Crystal); method: DTA
Triple point temperature, K	uncertainty
278.67	0.5

System: decan-1-ol; phases: Liquid
Fixed: Pressure, kPa = 101.325
Property: Molar heat capacity at constant pressure, J/K/mol (Liquid); method: Small sample (50 mg) DSC
Temperature, K	Molar heat capacity at constant pressure, J/K/mol	uncertainty
284.18	357.16	7.14
285.11	357.65	7.15
286.23	359.66	7.19
287.17	360.07	7.2
288.21	361.72	7.23
289.63	363.32	7.27
290.29	363.87	7.28
291.08	364.63	7.29
292.13	366.29	7.33
293.23	366.99	7.34
294.29	368.16	7.36
295.69	369.19	7.38
296.43	370.09	7.4
297.49	370.33	7.41
298.55	373	7.46
299.51	374.14	7.48
300.21	375.31	7.51
301.18	375.74	7.51
302.45	377.89	7.56
304.22	380.22	7.6
305.31	381.17	7.62
306.42	382.5	7.65
307.18	383.77	7.68
308.14	384.86	7.7

System: decan-1-ol; phases: Crystal
Fixed: Pressure, kPa = 101.325
Property: Molar heat capacity at constant pressure, J/K/mol (Crystal); method: Small sample (50 mg) DSC
Temperature, K	Molar heat capacity at constant pressure, J/K/mol	uncertainty
215.12	224.54	4.49
216.09	227.81	4.56
217.28	228.07	4.56
218.46	228.68	4.57
219.05	228.9	4.58
219.59	229.05	4.58
222.22	229.19	4.58
222.81	230.27	4.61
223.03	230.39	4.61
226.41	231.18	4.62
227.05	232.61	4.65
229.62	232.81	4.66
230.15	233.54	4.67
231.71	234.37	4.69
232.3	234.76	4.7
233.74	235.5	4.71
234.54	235.92	4.72
235.82	237.25	4.75
236.3	237.29	4.75
237.11	238.88	4.78
238.28	239.81	4.8
239.94	240.28	4.81
240.47	240.35	4.81
241.16	241	4.82
242.71	241.58	4.83
244.15	244.94	4.9
246.13	245.49	4.91
248.85	245.75	4.92
249.22	246.47	4.93
250.88	247.17	4.94
251.14	247.6	4.95
252.58	250.51	5.01
253.49	252.9	5.06

System: 1-undecanol; phases: Crystal, Liquid, Air at 1 atmosphere
Property: Molar enthalpy of transition or fusion, kJ/mol (Crystal); method: DSC
Molar enthalpy of transition or fusion, kJ/mol	uncertainty
30.59	0.86

System: 1-undecanol; phases: Crystal, Liquid, Air at 1 atmosphere
Property: Triple point temperature, K (Crystal); method: DTA
Triple point temperature, K	uncertainty
289.63	0.5

System: 1-undecanol; phases: Liquid
Fixed: Pressure, kPa = 101.325
Property: Molar heat capacity at constant pressure, J/K/mol (Liquid); method: Small sample (50 mg) DSC
Temperature, K	Molar heat capacity at constant pressure, J/K/mol	uncertainty
297.08	405.86	8.12
298.17	407.32	8.15
299.23	408.96	8.18
300.25	409.93	8.2
301.38	411.68	8.23
302.21	412.61	8.25
303.18	413.77	8.28
304.11	414.87	8.3
305.18	415.8	8.32
306.27	417.37	8.35
307.49	418.89	8.38
308.58	419.76	8.4
309.32	421.18	8.42
310.02	422.07	8.44
311.09	423.23	8.46
312.51	425.11	8.5
313.48	426.38	8.53
314.66	427.93	8.56
315.71	429.81	8.6
316.18	430	8.6
318.29	432.46	8.65
320.24	435.26	8.71
321.15	436.27	8.73
323.33	439.56	8.79

System: 1-undecanol; phases: Crystal
Fixed: Pressure, kPa = 101.325
Property: Molar heat capacity at constant pressure, J/K/mol (Crystal); method: Small sample (50 mg) DSC
Temperature, K	Molar heat capacity at constant pressure, J/K/mol	uncertainty
208.41	193.11	3.86
209.57	193.3	3.87
210.11	194.69	3.89
211.02	194.71	3.89
212.12	196.33	3.93
213.87	198.62	3.97
214.48	201.14	4.02
215.51	201.98	4.04
216.84	205.69	4.12
217.02	206.89	4.14
218.35	208.79	4.18
219.08	211.05	4.22
220.29	213.58	4.27
221.74	215.54	4.31
222.1	216.27	4.33
223.31	218.06	4.36
224.39	219.4	4.39
225.72	221.14	4.42
226.26	221.42	4.43
227.04	223.37	4.47
228.49	225.69	4.51
229.28	228.09	4.56
230	228.5	4.57
231.02	229.81	4.6
232.16	232.96	4.66
233.13	234.38	4.69
234.75	235.74	4.71
235.83	237.03	4.74
236.92	238.89	4.78
237.34	238.93	4.78
238.6	239.94	4.8
239.8	239.99	4.8
241.66	243.63	4.87
243.34	245.99	4.92
244.18	246.89	4.94
246.11	250.54	5.01

System: 1,3-propanediamine + nonan-1-ol; phases: Crystal, Crystal of intercomponent compound 1, Liquid, Gas
Property: Eutectic temperature, K (Crystal); method: Derived from phase diagram analysis
Eutectic temperature, K	uncertainty
254.03	0.4

System: 1,3-propanediamine + nonan-1-ol; phases: Crystal, Crystal of intercomponent compound 1, Liquid, Gas
Property: Eutectic temperature, K (Crystal); method: Derived from phase diagram analysis
Eutectic temperature, K	uncertainty
260.96	0.4

System: 1,3-propanediamine + nonan-1-ol; phases: Crystal, Crystal of intercomponent compound 1, Liquid, Gas
Property: Eutectic composition: mole fraction of nonan-1-ol (Crystal); method: PHASDIA:
Eutectic composition: mole fraction of nonan-1-ol	uncertainty
0.1629	0.0016

System: 1,3-propanediamine + nonan-1-ol; phases: Crystal, Crystal of intercomponent compound 1, Liquid, Gas
Property: Eutectic composition: mole fraction of nonan-1-ol (Crystal); method: PHASDIA:
Eutectic composition: mole fraction of nonan-1-ol	uncertainty
0.8503	0.0015

System: 1,3-propanediamine + nonan-1-ol; phases: Liquid, Crystal of intercomponent compound 1
Fixed: Pressure, kPa = 101.325
Property: Solid-liquid equilibrium temperature, K (Liquid); method: VISOBS:UFactor:2
Mole fraction of nonan-1-ol	Solid-liquid equilibrium temperature, K	uncertainty
0.1629	254.03	0.35
0.1648	254.17	0.35
0.1731	254.68	0.35
0.1936	255.51	0.35
0.2242	256.75	0.35
0.261	258.03	0.35
0.2907	259.27	0.35
0.36	261.23	0.35
0.4087	262.68	0.35
0.4468	263.52	0.35
0.5052	264.71	0.35
0.525	265.15	0.35
0.557	265.5	0.35
0.5733	265.74	0.35
0.5937	266.04	0.35
0.6199	266.22	0.35
0.6472	266.46	0.35
0.671	266.46	0.35
0.68	266.38	0.35
0.7092	266.06	0.35
0.7261	265.84	0.35
0.7431	265.6	0.35
0.7533	265.3	0.35
0.7791	264.61	0.35
0.809	263.08	0.35
0.823	262.27	0.35
0.8387	261.59	0.35
0.8503	260.96	0.35

System: 1,3-propanediamine + nonan-1-ol; phases: Liquid, Crystal
Fixed: Pressure, kPa = 101.325
Property: Solid-liquid equilibrium temperature, K (Liquid); method: VISOBS:UFactor:2
Mole fraction of nonan-1-ol	Solid-liquid equilibrium temperature, K	uncertainty
0	262.19	0.35
0.0369	260.36	0.35
0.0886	258.63	0.35
0.1268	257.36	0.35
0.1464	256.3	0.36
0.1623	254.14	0.37

System: 1,3-propanediamine + nonan-1-ol; phases: Liquid, Crystal
Fixed: Pressure, kPa = 101.325
Property: Solid-liquid equilibrium temperature, K (Liquid); method: VISOBS:UFactor:2
Mole fraction of nonan-1-ol	Solid-liquid equilibrium temperature, K	uncertainty
0.8546	261.27	0.36
0.8736	262.79	0.35
0.9077	264.91	0.35
0.9387	266.44	0.35
0.9646	267.49	0.35
1	268.1	0.35

System: 1,3-propanediamine + decan-1-ol; phases: Crystal, Crystal of intercomponent compound 1, Liquid, Gas
Property: Eutectic temperature, K (Crystal); method: Derived from phase diagram analysis
Eutectic temperature, K	uncertainty
254.73	0.4

System: 1,3-propanediamine + decan-1-ol; phases: Crystal, Crystal of intercomponent compound 1, Liquid, Gas
Property: Eutectic temperature, K (Crystal); method: DIROBS:
Eutectic temperature, K	uncertainty
270.14	0.4

System: 1,3-propanediamine + decan-1-ol; phases: Crystal, Crystal of intercomponent compound 1, Liquid, Gas
Property: Eutectic composition: mole fraction of decan-1-ol (Crystal); method: Derived from phase diagram analysis
Eutectic composition: mole fraction of decan-1-ol	uncertainty
0.0651	0.0007

System: 1,3-propanediamine + decan-1-ol; phases: Crystal, Crystal of intercomponent compound 1, Liquid, Gas
Property: Eutectic composition: mole fraction of decan-1-ol (Crystal); method: PHASDIA:
Eutectic composition: mole fraction of decan-1-ol	uncertainty
0.7768	0.0022

System: 1,3-propanediamine + decan-1-ol; phases: Liquid, Crystal of intercomponent compound 1
Fixed: Pressure, kPa = 101.325
Property: Solid-liquid equilibrium temperature, K (Liquid); method: VISOBS:UFactor:2
Mole fraction of decan-1-ol	Solid-liquid equilibrium temperature, K	uncertainty
0.0651	254.73	0.35
0.0897	256.38	0.35
0.1305	258.89	0.35
0.1781	261.25	0.35
0.2326	263.64	0.35
0.2886	265.46	0.35
0.3313	267.16	0.35
0.3709	268.16	0.35
0.4133	269.68	0.35
0.4525	270.58	0.35
0.4922	271.34	0.35
0.5332	271.94	0.35
0.5719	272.59	0.35
0.6107	272.84	0.35
0.6312	273.04	0.35
0.6603	273.15	0.35
0.6805	273.06	0.35
0.7134	272.69	0.35
0.7371	271.99	0.35
0.7542	271.34	0.35
0.7626	270.95	0.35
0.7768	270.14	0.35

System: 1,3-propanediamine + decan-1-ol; phases: Liquid, Crystal
Fixed: Pressure, kPa = 101.325
Property: Solid-liquid equilibrium temperature, K (Liquid); method: VISOBS:UFactor:2
Mole fraction of decan-1-ol	Solid-liquid equilibrium temperature, K	uncertainty
0	262.19	0.35
0.0112	261.7	0.35
0.026	261.1	0.36
0.0444	258.15	0.38
0.0641	254.94	0.38

System: 1,3-propanediamine + decan-1-ol; phases: Liquid, Crystal
Fixed: Pressure, kPa = 101.325
Property: Solid-liquid equilibrium temperature, K (Liquid); method: VISOBS:UFactor:2
Mole fraction of decan-1-ol	Solid-liquid equilibrium temperature, K	uncertainty
0.7872	270.79	0.35
0.8144	272.55	0.35
0.8471	274.29	0.35
0.876	275.88	0.35
0.904	277.17	0.35
0.9158	277.58	0.35
0.961	278.33	0.35
1	278.67	0.35

System: 1,3-propanediamine + octan-1-ol; phases: Crystal, Crystal of intercomponent compound 1, Liquid, Gas
Property: Eutectic temperature, K (Crystal); method: PHASDIA:
Eutectic temperature, K	uncertainty
245.9	0.4

System: 1,3-propanediamine + octan-1-ol; phases: Crystal, Crystal of intercomponent compound 1, Liquid, Gas
Property: Eutectic temperature, K (Crystal); method: Derived from phase diagram analysis
Eutectic temperature, K	uncertainty
248.95	0.4

System: 1,3-propanediamine + octan-1-ol; phases: Crystal, Crystal of intercomponent compound 1, Liquid, Gas
Property: Eutectic composition: mole fraction of octan-1-ol (Crystal); method: Derived from phase diagram analysis
Eutectic composition: mole fraction of octan-1-ol	uncertainty
0.2988	0.003

System: 1,3-propanediamine + octan-1-ol; phases: Crystal, Crystal of intercomponent compound 1, Liquid, Gas
Property: Eutectic composition: mole fraction of octan-1-ol (Crystal); method: Derived from phase diagram analysis
Eutectic composition: mole fraction of octan-1-ol	uncertainty
0.8562	0.0014

System: 1,3-propanediamine + octan-1-ol; phases: Liquid, Crystal of intercomponent compound 1
Fixed: Pressure, kPa = 101.325
Property: Solid-liquid equilibrium temperature, K (Liquid); method: VISOBS:UFactor:2
Mole fraction of octan-1-ol	Solid-liquid equilibrium temperature, K	uncertainty
0.2988	245.9	0.35
0.3222	247.32	0.35
0.3704	249.27	0.35
0.4194	251.14	0.35
0.4594	252.93	0.35
0.4997	253.82	0.35
0.5382	254.62	0.35
0.5732	254.93	0.35
0.6023	255.17	0.35
0.6376	255.27	0.35
0.6808	255.26	0.35
0.7212	254.81	0.35
0.7658	253.7	0.35
0.8115	251.54	0.35
0.829	250.74	0.35
0.8527	249.2	0.35
0.8562	248.95	0.35

System: 1,3-propanediamine + octan-1-ol; phases: Liquid, Crystal
Fixed: Pressure, kPa = 101.325
Property: Solid-liquid equilibrium temperature, K (Liquid); method: VISOBS:UFactor:2
Mole fraction of octan-1-ol	Solid-liquid equilibrium temperature, K	uncertainty
0	262.19	0.35
0.0303	260.97	0.35
0.0393	260.44	0.35
0.0402	260.46	0.35
0.0554	259.79	0.35
0.084	259.15	0.35
0.0942	258.61	0.35
0.1423	257.61	0.35
0.1466	257.45	0.35
0.1848	256.43	0.35
0.2004	256.05	0.35
0.2074	255.79	0.35
0.2257	255.07	0.35
0.2464	254.06	0.36
0.2481	253.88	0.36
0.2678	252.2	0.36
0.28	250.29	0.4
0.2871	248.35	0.41
0.2943	247.24	0.38

System: 1,3-propanediamine + octan-1-ol; phases: Liquid, Crystal
Fixed: Pressure, kPa = 101.325
Property: Solid-liquid equilibrium temperature, K (Liquid); method: VISOBS:UFactor:2
Mole fraction of octan-1-ol	Solid-liquid equilibrium temperature, K	uncertainty
0.8765	250.46	0.42
0.8853	252.55	0.42
0.893	254.35	0.37
0.911	255.93	0.35
0.9422	257.02	0.35
0.9689	257.71	0.35
1	258.03	0.35

System: 1,3-propanediamine + 1-undecanol; phases: Crystal, Crystal of intercomponent compound 1, Liquid, Gas
Property: Eutectic temperature, K (Crystal); method: Derived from phase diagram analysis
Eutectic temperature, K	uncertainty
257.85	0.4

System: 1,3-propanediamine + 1-undecanol; phases: Crystal, Crystal of intercomponent compound 1, Liquid, Gas
Property: Eutectic temperature, K (Crystal); method: Derived from phase diagram analysis
Eutectic temperature, K	uncertainty
279.24	0.4

System: 1,3-propanediamine + 1-undecanol; phases: Crystal, Crystal of intercomponent compound 1, Liquid, Gas
Property: Eutectic composition: mole fraction of 1-undecanol (Crystal); method: PHASDIA:
Eutectic composition: mole fraction of 1-undecanol	uncertainty
0.0216	0.0002

System: 1,3-propanediamine + 1-undecanol; phases: Crystal, Crystal of intercomponent compound 1, Liquid, Gas
Property: Eutectic composition: mole fraction of 1-undecanol (Crystal); method: PHASDIA:
Eutectic composition: mole fraction of 1-undecanol	uncertainty
0.7636	0.0024

System: 1,3-propanediamine + 1-undecanol; phases: Liquid, Crystal of intercomponent compound 1
Fixed: Pressure, kPa = 101.325
Property: Solid-liquid equilibrium temperature, K (Liquid); method: VISOBS:UFactor:2
Mole fraction of 1-undecanol	Solid-liquid equilibrium temperature, K	uncertainty
0.0216	257.85	0.36
0.0282	258.44	0.36
0.0465	260.39	0.36
0.0708	262.14	0.36
0.0979	264.37	0.35
0.136	266.57	0.35
0.1943	269.6	0.35
0.2729	272.85	0.35
0.315	274.38	0.35
0.3602	276.17	0.35
0.393	277.02	0.35
0.4384	278.12	0.35
0.4848	279.23	0.35
0.5327	280.17	0.35
0.5766	280.83	0.35
0.6159	281.35	0.35
0.6453	281.44	0.35
0.6755	281.44	0.35
0.7073	281.09	0.35
0.7187	280.89	0.35
0.7439	280.08	0.35
0.7636	279.24	0.35

System: 1,3-propanediamine + 1-undecanol; phases: Liquid, Crystal
Fixed: Pressure, kPa = 101.325
Property: Solid-liquid equilibrium temperature, K (Liquid); method: VISOBS:UFactor:2
Mole fraction of 1-undecanol	Solid-liquid equilibrium temperature, K	uncertainty
0	262.19	0.35
0.0097	261.39	0.37
0.0143	260.36	0.41

System: 1,3-propanediamine + 1-undecanol; phases: Liquid, Crystal
Fixed: Pressure, kPa = 101.325
Property: Solid-liquid equilibrium temperature, K (Liquid); method: VISOBS:UFactor:2
Mole fraction of 1-undecanol	Solid-liquid equilibrium temperature, K	uncertainty
0.7769	280.14	0.35
0.8058	281.46	0.35
0.8616	284.06	0.35
0.9076	286.46	0.35
0.9477	288.26	0.35
1	289.63	0.35
