Measured thermophysical data. High-temperature vapor-liquid equilibrium for ethanol-1-propanol mixtures and modeling with SAFT-VR
Source: Fluid Phase Equilib., 2015, 10.1016/j.fluid.2015.04.009
Compound 1: ethanol, C2H6O, InChI=1S/C2H6O/c1-2-3/h3H,2H2,1H3, purity 99.9%
Compound 2: propan-1-ol, C3H8O, InChI=1S/C3H8O/c1-2-3-4/h4H,2-3H2,1H3, purity 99.9%

System: ethanol + propan-1-ol; phases: Gas, Liquid
Property: Vapor or sublimation pressure, kPa (Gas); method: Closed cell (Static) method
Temperature, K	Mole fraction of ethanol	Vapor or sublimation pressure, kPa	uncertainty
403.2	0.0011	304.2	2.3
403.2	0.0426	319.8	2.3
403.2	0.2914	384.6	2.7
403.2	0.429	416.6	3.5
403.2	0.6919	487.4	3.8
403.2	0.9983	557.6	4.3
413.2	0.0007	408	3.2
413.2	0.0513	429	3.3
413.2	0.2541	493.9	3.6
413.2	0.4563	564.1	3.9
413.2	0.7001	640.4	4.2
413.2	0.9998	736.3	4.9
423.2	0.0007	546.1	3.6
423.2	0.0496	565.3	3.7
423.2	0.2617	648.3	4
423.2	0.4553	725.3	4.3
423.2	0.6916	822	4.8
423.2	0.9983	967.4	5.7

System: ethanol + propan-1-ol; phases: Gas, Liquid
Property: Mole fraction of ethanol (Gas); method: Density calibration data
Temperature, K	Mole fraction of ethanol	Mole fraction of ethanol	uncertainty
403.2	0.0011	0.0019	0.0004
403.2	0.0426	0.0754	0.0005
403.2	0.2914	0.4042	0.0005
403.2	0.429	0.5744	0.0006
403.2	0.6919	0.7974	0.0005
403.2	0.9983	0.9993	0.0002
413.2	0.0007	0.0022	0.0004
413.2	0.0513	0.0747	0.0004
413.2	0.2541	0.3642	0.0004
413.2	0.4563	0.5959	0.0005
413.2	0.7001	0.8014	0.0004
413.2	0.9998	0.9995	0.0002
423.2	0.0007	0.0026	0.0003
423.2	0.0496	0.0714	0.0004
423.2	0.2617	0.3608	0.0007
423.2	0.4553	0.5846	0.0008
423.2	0.6916	0.7879	0.0006
423.2	0.9983	0.9993	0.0002
