Measured thermophysical data. Isobaric vapor liquid equilibria for mixtures of acetone, ethanol, and 2,2,4-trimethylpentane at 101.3 kPa
Source: Fluid Phase Equilib., 2005, 10.1016/j.fluid.2005.01.007
Compound 1: acetone, C3H6O, InChI=1S/C3H6O/c1-3(2)4/h1-2H3
Compound 2: ethanol, C2H6O, InChI=1S/C2H6O/c1-2-3/h3H,2H2,1H3
Compound 3: 2,2,4-trimethylpentane, C8H18, InChI=1S/C8H18/c1-7(2)6-8(3,4)5/h7H,6H2,1-5H3

System: acetone; phases: Liquid
Property: Refractive index (Na D-line) (Liquid); method: Standard Abbe refractometry
Temperature, K	Pressure, kPa	Refractive index (Na D-line)	uncertainty
298.15	101.325	1.35597	0.00072

System: acetone; phases: Liquid
Property: Mass density, kg/m3 (Liquid); method: VIBTUB:UFactor:4
Temperature, K	Pressure, kPa	Mass density, kg/m3	uncertainty
298.15	101.325	785.47	0.61

System: acetone; phases: Liquid, Gas
Property: Vapor or sublimation pressure, kPa (Liquid); method: EBULLIO:UFactor:4
Temperature, K	Vapor or sublimation pressure, kPa	uncertainty
329.26	101.32	0.55

System: ethanol; phases: Liquid
Property: Refractive index (Na D-line) (Liquid); method: Standard Abbe refractometry
Temperature, K	Pressure, kPa	Refractive index (Na D-line)	uncertainty
298.15	101.325	1.35926	0.00072

System: ethanol; phases: Liquid
Property: Mass density, kg/m3 (Liquid); method: VIBTUB:UFactor:4
Temperature, K	Pressure, kPa	Mass density, kg/m3	uncertainty
298.15	101.325	785.09	0.62

System: ethanol; phases: Liquid, Gas
Property: Vapor or sublimation pressure, kPa (Liquid); method: EBULLIO:UFactor:4
Temperature, K	Vapor or sublimation pressure, kPa	uncertainty
351.44	101.32	0.55

System: 2,2,4-trimethylpentane; phases: Liquid
Property: Refractive index (Na D-line) (Liquid); method: Standard Abbe refractometry
Temperature, K	Pressure, kPa	Refractive index (Na D-line)	uncertainty
298.15	101.325	1.38887	0.00072

System: 2,2,4-trimethylpentane; phases: Liquid
Property: Mass density, kg/m3 (Liquid); method: VIBTUB:UFactor:4
Temperature, K	Pressure, kPa	Mass density, kg/m3	uncertainty
298.15	101.325	687.72	0.81

System: 2,2,4-trimethylpentane; phases: Liquid, Gas
Property: Vapor or sublimation pressure, kPa (Liquid); method: EBULLIO:UFactor:4
Temperature, K	Vapor or sublimation pressure, kPa	uncertainty
372.33	101.32	0.55

System: ethanol + acetone; phases: Liquid, Gas
Fixed: Pressure, kPa = 101.32
Property: Boiling temperature at pressure P, K (Liquid); method: EBULLIO:UFactor:4
Mole fraction of acetone	Boiling temperature at pressure P, K	uncertainty
0	351.44	0.16
0.044	348.91	0.37
0.085	346.65	0.34
0.132	344.53	0.31
0.175	342.69	0.26
0.227	341.17	0.23
0.276	339.81	0.23
0.328	338.39	0.21
0.38	337.32	0.2
0.433	336.24	0.19
0.481	335.37	0.18
0.538	334.51	0.18
0.586	333.78	0.18
0.639	333.06	0.18
0.688	332.43	0.17
0.745	331.81	0.17
0.796	331.2	0.17
0.849	330.66	0.17
0.901	330.17	0.17
0.951	329.69	0.17
1	329.26	0.16

System: ethanol + acetone; phases: Gas, Liquid
Fixed: Pressure, kPa = 101.32
Property: Mole fraction of acetone (Gas); method: Chromatography
Mole fraction of acetone	Mole fraction of acetone	uncertainty
0	0	0.001
0.044	0.129	0.017
0.085	0.232	0.015
0.132	0.325	0.013
0.175	0.403	0.011
0.227	0.463	0.01
0.276	0.517	0.01
0.328	0.571	0.009
0.38	0.609	0.008
0.433	0.651	0.008
0.481	0.685	0.008
0.538	0.719	0.007
0.586	0.749	0.007
0.639	0.777	0.007
0.688	0.803	0.007
0.745	0.835	0.007
0.796	0.867	0.007
0.849	0.898	0.007
0.901	0.929	0.007
0.951	0.965	0.007
1	1	0.001

System: acetone + 2,2,4-trimethylpentane; phases: Liquid, Gas
Fixed: Pressure, kPa = 101.32
Property: Boiling temperature at pressure P, K (Liquid); method: EBULLIO:UFactor:4
Mole fraction of acetone	Boiling temperature at pressure P, K	uncertainty
0	372.33	0.16
0.027	364.14	1.59
0.058	356.94	1.23
0.092	350.93	0.91
0.138	344.91	0.71
0.18	340.84	0.47
0.238	337.43	0.33
0.296	335.24	0.25
0.355	333.63	0.22
0.404	332.47	0.2
0.455	331.61	0.18
0.503	331.09	0.17
0.567	330.57	0.16
0.631	330.2	0.16
0.687	329.84	0.16
0.743	329.53	0.16
0.794	329.19	0.16
0.847	328.9	0.16
0.892	328.74	0.16
0.947	328.8	0.16
1	329.26	0.16

System: acetone + 2,2,4-trimethylpentane; phases: Gas, Liquid
Fixed: Pressure, kPa = 101.32
Property: Mole fraction of acetone (Gas); method: Chromatography
Mole fraction of acetone	Mole fraction of acetone	uncertainty
0	0	0.001
0.027	0.222	0.04
0.058	0.387	0.027
0.092	0.505	0.018
0.138	0.604	0.013
0.18	0.668	0.009
0.238	0.713	0.008
0.296	0.741	0.007
0.355	0.765	0.007
0.404	0.778	0.007
0.455	0.792	0.006
0.503	0.8	0.006
0.567	0.81	0.006
0.631	0.823	0.006
0.687	0.831	0.006
0.743	0.845	0.006
0.794	0.858	0.006
0.847	0.875	0.007
0.892	0.9	0.007
0.947	0.938	0.008
1	1	0.001

System: ethanol + 2,2,4-trimethylpentane; phases: Liquid, Gas
Fixed: Pressure, kPa = 101.32
Property: Boiling temperature at pressure P, K (Liquid); method: EBULLIO:UFactor:4
Mole fraction of ethanol	Boiling temperature at pressure P, K	uncertainty
0	372.33	0.16
0.024	362.55	1.93
0.057	353.82	1.15
0.097	348.56	0.57
0.137	346.51	0.21
0.209	345.84	0.16
0.273	345.7	0.16
0.333	345.33	0.16
0.4	344.9	0.16
0.444	344.74	0.16
0.502	344.53	0.16
0.545	344.52	0.16
0.597	344.47	0.16
0.652	344.44	0.16
0.705	344.48	0.16
0.754	344.58	0.16
0.807	344.71	0.16
0.86	345.22	0.18
0.906	346.22	0.25
0.954	348.35	0.37
1	351.44	0.16

System: ethanol + 2,2,4-trimethylpentane; phases: Gas, Liquid
Fixed: Pressure, kPa = 101.32
Property: Mole fraction of ethanol (Gas); method: Chromatography
Mole fraction of ethanol	Mole fraction of ethanol	uncertainty
0	0	0.001
0.024	0.251	0.045
0.057	0.43	0.024
0.097	0.534	0.013
0.137	0.566	0.008
0.209	0.586	0.007
0.273	0.6	0.007
0.333	0.608	0.007
0.4	0.618	0.007
0.444	0.621	0.007
0.502	0.626	0.007
0.545	0.631	0.007
0.597	0.64	0.007
0.652	0.648	0.007
0.705	0.657	0.007
0.754	0.665	0.007
0.807	0.679	0.007
0.86	0.713	0.008
0.906	0.763	0.011
0.954	0.849	0.016
1	1	0.001

System: ethanol + acetone + 2,2,4-trimethylpentane; phases: Liquid, Gas
Fixed: Pressure, kPa = 101.3
Property: Mole fraction of ethanol (Liquid); method: Chromatography
Property: Mole fraction of ethanol (Gas); method: Chromatography
Property: Mole fraction of acetone (Gas); method: Chromatography
Temperature, K	Mole fraction of acetone	Mole fraction of ethanol	uncertainty	Mole fraction of ethanol	uncertainty	Mole fraction of acetone	uncertainty
329.2	0.9	0.049	0.006	0.036	0.006	0.901	
329.29	0.794	0.049	0.006	0.039	0.006	0.834	
330.09	0.685	0.05	0.006	0.048	0.006	0.784	
330.12	0.795	0.154	0.006	0.102	0.006	0.831	
330.25	0.695	0.149	0.006	0.111	0.006	0.755	
330.76	0.569	0.052	0.006	0.054	0.006	0.756	
331.01	0.585	0.15	0.006	0.129	0.006	0.695	
331.21	0.698	0.25	0.006	0.162	0.006	0.766	
331.39	0.598	0.245	0.006	0.174	0.006	0.682	
331.89	0.483	0.16	0.006	0.151	0.006	0.653	
332.12	0.479	0.051	0.006	0.066	0.006	0.716	
332.32	0.488	0.245	0.006	0.192	0.006	0.62	
332.45	0.596	0.352	0.007	0.218	0.006	0.705	
332.71	0.496	0.347	0.007	0.229	0.006	0.613	
333.78	0.377	0.251	0.006	0.227	0.006	0.546	
333.83	0.385	0.35	0.007	0.258	0.006	0.536	
333.86	0.493	0.456	0.007	0.283	0.006	0.636	
333.89	0.376	0.149	0.006	0.181	0.006	0.577	
334	0.372	0.052	0.006	0.084	0.006	0.65	
334.31	0.395	0.448	0.007	0.294	0.007	0.533	
335.51	0.391	0.558	0.007	0.341	0.007	0.569	
335.55	0.271	0.145	0.006	0.22	0.006	0.51	
335.59	0.286	0.246	0.006	0.279	0.006	0.46	
335.64	0.286	0.343	0.006	0.307	0.007	0.444	
335.73	0.285	0.457	0.007	0.333	0.007	0.438	
335.78	0.269	0.051	0.006	0.11	0.006	0.612	
336.19	0.285	0.564	0.007	0.363	0.007	0.446	
337.55	0.285	0.669	0.006	0.436	0.007	0.476	
337.57	0.184	0.242	0.006	0.334	0.007	0.37	
337.79	0.182	0.348	0.007	0.37	0.007	0.346	
337.93	0.171	0.136	0.006	0.283	0.006	0.409	
337.98	0.187	0.455	0.007	0.388	0.007	0.328	
338.35	0.189	0.554	0.007	0.425	0.007	0.314	
338.39	0.184	0.671	0.006	0.444	0.007	0.347	
340.08	0.183	0.776	0.006	0.521	0.007	0.381	
340.25	0.159	0.057	0.006	0.163	0.006	0.494	
340.77	0.087	0.431	0.007	0.48	0.007	0.194	
340.79	0.092	0.542	0.007	0.506	0.007	0.187	
340.8	0.097	0.653	0.007	0.537	0.007	0.177	
340.92	0.083	0.33	0.006	0.462	0.007	0.204	
341.16	0.083	0.23	0.006	0.426	0.007	0.225	
341.44	0.093	0.765	0.006	0.566	0.007	0.192	
342.33	0.079	0.122	0.006	0.396	0.007	0.256	
342.57	0.05	0.587	0.007	0.56	0.007	0.088	
342.58	0.048	0.469	0.007	0.555	0.007	0.084	
342.69	0.049	0.706	0.006	0.586	0.007	0.105	
343.05	0.047	0.379	0.007	0.539	0.007	0.098	
343.19	0.051	0.806	0.006	0.628	0.007	0.118	
343.47	0.089	0.866	0.006	0.668	0.007	0.226	
343.55	0.042	0.259	0.006	0.507	0.007	0.109	
344.83	0.041	0.164	0.006	0.466	0.007	0.122	
347.74	0.036	0.074	0.006	0.381	0.007	0.159	
348.84	0.068	0.037	0.006	0.209	0.006	0.321	
354.94	0.032	0.025	0.006	0.23	0.006	0.186	
