Measured thermophysical data. Solubility behavior of .gamma.-valerolactone + n-tetradecane or diesel mixtures at different temperatures
Source: Fluid Phase Equilib., 2019, 10.1016/j.fluid.2018.11.012
Compound 1: .gamma.-valerolactone, C5H8O2, InChI=1S/C5H8O2/c1-4-2-3-5(6)7-4/h4H,2-3H2,1H3, purity 99%
Compound 2: tetradecane, C14H30, InChI=1S/C14H30/c1-3-5-7-9-11-13-14-12-10-8-6-4-2/h3-14H2,1-2H3, purity 99%

System: .gamma.-valerolactone; phases: Liquid
Property: Mass density, kg/m3 (Liquid); method: Vibrating tube method
Temperature, K	Pressure, kPa	Mass density, kg/m3	uncertainty
298.15	101.325	1049.25	0.3

System: .gamma.-valerolactone; phases: Liquid
Property: Refractive index (Na D-line) (Liquid); method: Standard Abbe refractometry
Temperature, K	Pressure, kPa	Refractive index (Na D-line)	uncertainty
298.15	101.325	1.4312	0.0008

System: tetradecane; phases: Liquid
Property: Mass density, kg/m3 (Liquid); method: Vibrating tube method
Temperature, K	Pressure, kPa	Mass density, kg/m3	uncertainty
298.15	101.325	759.38	0.26

System: tetradecane; phases: Liquid
Property: Refractive index (Na D-line) (Liquid); method: Standard Abbe refractometry
Temperature, K	Pressure, kPa	Refractive index (Na D-line)	uncertainty
298.15	101.325	1.4269	0.0008

System: .gamma.-valerolactone + tetradecane; phases: Liquid mixture 1, Liquid mixture 2
Fixed: Pressure, kPa = 94.2
Property: Mass fraction of .gamma.-valerolactone (Liquid mixture 1); method: Titration method
Temperature, K	Mass fraction of .gamma.-valerolactone	uncertainty
288.15	0.9852	0.0003
293.15	0.9837	0.0012
298.15	0.9817	0.0005
303.15	0.9797	0.001
308.15	0.977	0.0004
313.15	0.9737	0.0006
318.15	0.9696	0.0005
323.15	0.9655	0.0005
328.15	0.961	0.0006
333.15	0.9537	0.0016

System: .gamma.-valerolactone + tetradecane; phases: Liquid mixture 2, Liquid mixture 1
Fixed: Pressure, kPa = 94.2
Property: Mass fraction of .gamma.-valerolactone (Liquid mixture 2); method: Titration method
Temperature, K	Mass fraction of .gamma.-valerolactone	uncertainty
288.15	0.0118	0.001
293.15	0.0148	0.0005
298.15	0.0168	0.0006
303.15	0.0197	0.001
308.15	0.0239	0.0011
313.15	0.0276	0.0011
318.15	0.032	0.0013
323.15	0.036	0.001
328.15	0.044	0.0008
333.15	0.0511	0.001
