Measured thermophysical data. Water-ethanol-sodium chloride system: The main sources of uncertainties in thermodynamic properties determined by potentiometry
Source: Fluid Phase Equilib., 2016, 10.1016/j.fluid.2015.12.012
Compound 1: ethanol, C2H6O, InChI=1S/C2H6O/c1-2-3/h3H,2H2,1H3, purity 99.8%
Compound 2: sodium chloride, ClNa, InChI=1S/ClH.Na/h1H;/q;+1/p-1, purity 99.8%
Compound 3: water, H2O, InChI=1S/H2O/h1H2, purity 99.9%

System: ethanol + sodium chloride + water; phases: Liquid
Fixed: Pressure, kPa = 101
Property: Mean ionic activity coefficient of sodium chloride (Liquid); method: Calculated from EMF cell potential
Temperature, K	Molality, mol/kg of sodium chloride	Solvent: Mass fraction of ethanol	Mean ionic activity coefficient of sodium chloride	uncertainty
288.15	0.049	0.0999	0.803	0.022
288.15	0.099	0.0999	0.753	0.022
288.15	0.149	0.0999	0.722	0.023
288.15	0.198	0.0999	0.701	0.023
288.15	0.3	0.0999	0.671	0.023
288.15	0.401	0.0999	0.651	0.023
288.15	0.498	0.0999	0.638	0.024
288.15	0.749	0.0999	0.617	0.024
288.15	1	0.0999	0.606	0.024
288.15	1.25	0.0999	0.602	0.024
288.15	1.75	0.0999	0.605	0.024
288.15	2.001	0.0999	0.61	0.024
288.15	2.4995	0.0999	0.626	0.024
288.15	2.999	0.0999	0.648	0.023
298.15	0.049	0.0999	0.803	0.022
298.15	0.099	0.0999	0.755	0.022
298.15	0.149	0.0999	0.725	0.023
298.15	0.198	0.0999	0.705	0.023
298.15	0.3	0.0999	0.677	0.023
298.15	0.401	0.0999	0.659	0.023
298.15	0.498	0.0999	0.647	0.023
298.15	0.749	0.0999	0.628	0.024
298.15	1	0.0999	0.62	0.024
298.15	1.25	0.0999	0.618	0.024
298.15	1.75	0.0999	0.625	0.024
298.15	2.001	0.0999	0.632	0.024
298.15	2.4995	0.0999	0.652	0.023
298.15	2.999	0.0999	0.678	0.023
318.15	0.049	0.0999	0.799	0.022
318.15	0.099	0.0999	0.75	0.022
318.15	0.149	0.0999	0.721	0.023
318.15	0.198	0.0999	0.702	0.023
318.15	0.3	0.0999	0.674	0.023
318.15	0.401	0.0999	0.657	0.023
318.15	0.498	0.0999	0.645	0.023
318.15	0.749	0.0999	0.628	0.024
318.15	1	0.0999	0.621	0.024
318.15	1.25	0.0999	0.62	0.024
318.15	1.75	0.0999	0.628	0.024
318.15	2.001	0.0999	0.636	0.024
318.15	2.4995	0.0999	0.658	0.023
318.15	2.999	0.0999	0.686	0.023
288.15	0.051	0.1998	0.778	0.022
288.15	0.098	0.1998	0.725	0.023
288.15	0.149	0.1998	0.69	0.023
288.15	0.199	0.1998	0.665	0.023
288.15	0.3	0.1998	0.631	0.024
288.15	0.4	0.1998	0.609	0.024
288.15	0.499	0.1998	0.593	0.024
288.15	0.751	0.1998	0.567	0.024
288.15	0.998	0.1998	0.554	0.025
288.15	1.2515	0.1998	0.547	0.025
288.15	1.749	0.1998	0.546	0.025
288.15	2	0.1998	0.55	0.025
288.15	2.499	0.1998	0.562	0.024
288.15	2.998	0.1998	0.58	0.024
298.15	0.051	0.1998	0.78	0.022
298.15	0.098	0.1998	0.73	0.023
298.15	0.149	0.1998	0.697	0.023
298.15	0.199	0.1998	0.674	0.023
298.15	0.3	0.1998	0.643	0.024
298.15	0.4	0.1998	0.623	0.024
298.15	0.499	0.1998	0.609	0.024
298.15	0.751	0.1998	0.587	0.024
298.15	0.998	0.1998	0.576	0.024
298.15	1.2515	0.1998	0.572	0.024
298.15	1.749	0.1998	0.574	0.024
298.15	2	0.1998	0.58	0.024
298.15	2.499	0.1998	0.596	0.024
298.15	2.998	0.1998	0.618	0.024
318.15	0.051	0.1998	0.776	0.022
318.15	0.098	0.1998	0.727	0.023
318.15	0.149	0.1998	0.695	0.023
318.15	0.199	0.1998	0.673	0.023
318.15	0.3	0.1998	0.644	0.024
318.15	0.4	0.1998	0.625	0.024
318.15	0.499	0.1998	0.611	0.024
318.15	0.751	0.1998	0.592	0.024
318.15	0.998	0.1998	0.583	0.024
318.15	1.2515	0.1998	0.58	0.024
318.15	1.749	0.1998	0.585	0.024
318.15	2	0.1998	0.592	0.024
318.15	2.499	0.1998	0.61	0.024
318.15	2.998	0.1998	0.636	0.024
288.15	0.0475	0.3996	0.73	0.023
288.15	0.099	0.3996	0.658	0.023
288.15	0.199	0.3996	0.588	0.024
288.15	0.299	0.3996	0.548	0.025
288.15	0.399	0.3996	0.522	0.025
288.15	0.5	0.3996	0.503	0.025
288.15	0.749	0.3996	0.474	0.025
288.15	0.998	0.3996	0.459	0.026
288.15	1.252	0.3996	0.451	0.026
288.15	1.4995	0.3996	0.448	0.026
288.15	2	0.3996	0.453	0.026
298.15	0.0475	0.3996	0.729	0.023
298.15	0.099	0.3996	0.659	0.023
298.15	0.199	0.3996	0.59	0.024
298.15	0.299	0.3996	0.552	0.025
298.15	0.399	0.3996	0.527	0.025
298.15	0.5	0.3996	0.509	0.025
298.15	0.749	0.3996	0.483	0.025
298.15	0.998	0.3996	0.47	0.026
298.15	1.252	0.3996	0.464	0.026
298.15	1.4995	0.3996	0.464	0.026
298.15	2	0.3996	0.472	0.026
318.15	0.0475	0.3996	0.727	0.023
318.15	0.099	0.3996	0.66	0.023
318.15	0.199	0.3996	0.596	0.024
318.15	0.299	0.3996	0.56	0.024
318.15	0.399	0.3996	0.537	0.025
318.15	0.5	0.3996	0.521	0.025
318.15	0.749	0.3996	0.497	0.025
318.15	0.998	0.3996	0.485	0.025
318.15	1.252	0.3996	0.48	0.025
318.15	1.4995	0.3996	0.479	0.025
318.15	2	0.3996	0.487	0.025
