Measured thermophysical data. Equilibrium solubilities of ammonium benzoate, benzamide and their mixture in supercritical carbon dioxide
Source: Fluid Phase Equilib., 2012, 10.1016/j.fluid.2012.05.031
Compound 1: ammonium benzoate, C7H9NO2, InChI=1S/C7H6O2.H3N/c8-7(9)6-4-2-1-3-5-6;/h1-5H,(H,8,9);1H3, purity 99%
Compound 2: carbon dioxide, CO2, InChI=1S/CO2/c2-1-3, purity 99.9%

System: carbon dioxide + ammonium benzoate; phases: Fluid (supercritical or subcritical phases), Crystal
Property: Mole fraction of ammonium benzoate (Fluid (supercritical or subcritical phases)); method: Chromatography
Temperature, K	Pressure, kPa	Mole fraction of ammonium benzoate	uncertainty
308	11000	1.68e-05	1.7e-06
308	13000	2.19e-05	1.2e-06
308	16000	2.91e-05	2e-06
308	18000	3.54e-05	2.9e-06
308	21000	3.99e-05	3.8e-06
318	11000	1.16e-05	1.6e-06
318	13000	2.39e-05	2.4e-06
318	16000	3.31e-05	2.1e-06
318	18000	4.01e-05	3.2e-06
318	21000	4.57e-05	4.1e-06
328	11000	8.5e-06	1.8e-06
328	13000	2.44e-05	1.9e-06
328	16000	3.65e-05	3.8e-06
328	18000	4.52e-05	4.3e-06
328	21000	5.33e-05	4.1e-06
