Measured thermophysical data. Vapor liquid equilibrium of the ethanol + 3-methyl-1-butanol system at 50.66,  101.33 and 151.99 kPa
Source: Fluid Phase Equilib., 2013, 10.1016/j.fluid.2012.11.004
Compound 1: ethanol, C2H6O, InChI=1S/C2H6O/c1-2-3/h3H,2H2,1H3, purity 99%
Compound 2: 3-methylbutan-1-ol, C5H12O, InChI=1S/C5H12O/c1-5(2)3-4-6/h5-6H,3-4H2,1-2H3, purity 99.5%

System: ethanol; phases: Liquid, Gas
Property: Normal boiling temperature, K (Liquid); method: Ebulliometric method (Recirculating still)
Normal boiling temperature, K	uncertainty
351.3	1

System: ethanol; phases: Liquid
Property: Refractive index (Na D-line) (Liquid); method: Standard Abbe refractometry
Temperature, K	Pressure, kPa	Refractive index (Na D-line)	uncertainty
298.15	101.325	1.3608	0.0005

System: ethanol; phases: Liquid
Property: Mass density, kg/m3 (Liquid); method: Vibrating tube method
Temperature, K	Pressure, kPa	Mass density, kg/m3	uncertainty
298.15	101.325	790	8

System: 3-methylbutan-1-ol; phases: Liquid, Gas
Property: Normal boiling temperature, K (Liquid); method: Ebulliometric method (Recirculating still)
Normal boiling temperature, K	uncertainty
404.9	1

System: 3-methylbutan-1-ol; phases: Liquid
Property: Refractive index (Na D-line) (Liquid); method: Standard Abbe refractometry
Temperature, K	Pressure, kPa	Refractive index (Na D-line)	uncertainty
298.15	101.325	1.4033	0.0005

System: 3-methylbutan-1-ol; phases: Liquid
Property: Mass density, kg/m3 (Liquid); method: Vibrating tube method
Temperature, K	Pressure, kPa	Mass density, kg/m3	uncertainty
298.15	101.325	817	8

System: 3-methylbutan-1-ol; phases: Liquid, Gas
Property: Vapor or sublimation pressure, kPa (Liquid); method: Ebulliometric method (Recirculating still)
Temperature, K	Vapor or sublimation pressure, kPa	uncertainty
335.85	5	0.1
348.92	10	0.12
363.33	19.99	0.18
379.51	40.01	0.23
385.12	49.99	0.32
389.82	59.99	0.4
397.61	79.99	0.46
404.01	100.01	0.6
404.36	101.31	0.6
409.46	120	0.64
414.21	139.99	0.71
418.51	159.99	0.79
422.43	180.01	0.86
426.01	199.99	1.05
433.27	250	1.14
440.12	300	1.27
445.98	350.01	1.38

System: ethanol + 3-methylbutan-1-ol; phases: Gas, Liquid
Property: Mole fraction of ethanol (Gas); method: Chromatography
Mole fraction of ethanol	Pressure, kPa	Mole fraction of ethanol	uncertainty
0.0697	50.66	0.3849	0.07
0.2336	50.66	0.7298	0.0634
0.2951	50.66	0.7901	0.0355
0.4911	50.66	0.899	0.0324
0.7153	50.66	0.9606	0.0309
0.8182	50.66	0.9772	0.0228
0.074	101.33	0.3854	0.0863
0.1372	101.33	0.5558	0.0518
0.3643	101.33	0.8189	0.0355
0.4133	101.33	0.8489	0.0337
0.494	101.33	0.886	0.0323
0.6053	101.33	0.9254	0.0315
0.673	101.33	0.9433	0.0306
0.8825	101.33	0.9836	0.0164
0.1887	151.99	0.6189	0.0431
0.3729	151.99	0.8074	0.0414
0.4265	151.99	0.8385	0.0329
0.6166	151.99	0.9192	0.0312
0.6578	151.99	0.9311	0.0311
0.7068	151.99	0.9433	0.0309
0.994	151.99	0.999	0.001

System: ethanol + 3-methylbutan-1-ol; phases: Liquid, Gas
Property: Boiling temperature at pressure P, K (Liquid); method: Ebulliometric method (Recirculating still)
Mole fraction of ethanol	Pressure, kPa	Boiling temperature at pressure P, K	uncertainty
0.0697	50.66	374.7	2.64
0.2336	50.66	360.32	2.47
0.2951	50.66	356.55	1.39
0.4911	50.66	348.21	1.12
0.7153	50.66	340.95	0.94
0.8182	50.66	338.27	0.8
0.074	101.33	392.88	3.22
0.1372	101.33	386.12	1.99
0.3643	101.33	371.55	0.18
0.4133	101.33	369.21	1.7
0.494	101.33	366.06	0.87
0.6053	101.33	362.05	1.06
0.673	101.33	359.81	0.81
0.8825	101.33	353.82	0.88
0.1887	151.99	394.42	1.99
0.3729	151.99	382.29	1.89
0.4265	151.99	379.83	1.21
0.6166	151.99	372.5	0.97
0.6578	151.99	371.19	1.07
0.7068	151.99	369.33	1.15
0.994	151.99	361.72	0.25
