Measured thermophysical data. Solubilities of N-[(4-bromo- 3,5 - difluorine) phenyl]-acrylamide in methanol-ethanol solution
Source: Fluid Phase Equilib., 2010, 10.1016/j.fluid.2009.10.019
Compound 1: ethanol, C2H6O, InChI=1S/C2H6O/c1-2-3/h3H,2H2,1H3, purity 99.8%
Compound 2: methanol, CH4O, InChI=1S/CH4O/c1-2/h2H,1H3, purity 99.8%
Compound 3: N-(4-bromo-3,5-difluorophenyl)acrylamide, C9H6BrF2NO, InChI=1S/C9H6BrF2NO/c1-2-8(14)13-5-3-6(11)9(10)7(12)4-5/h2-4H,1H2,(H,13,14)

System: ethanol + methanol + N-(4-bromo-3,5-difluorophenyl)acrylamide; phases: Liquid, Crystal
Fixed: Pressure, kPa = 101
Property: Solid-liquid equilibrium temperature, K (Liquid); method: VISOBS:corrimp
Solvent: Mole fraction of methanol	Mole fraction of N-(4-bromo-3,5-difluorophenyl)acrylamide	Solid-liquid equilibrium temperature, K	uncertainty
0	0.0251	295.25	1.01
0	0.0264	297.65	1.01
0	0.0292	301.55	1.01
0	0.0351	309.25	1.01
0	0.0384	312.95	1.01
0	0.044	318.55	1.01
0	0.0534	326.45	1.01
0	0.0604	331.35	1.01
0	0.0659	334.85	1.01
0	0.074	339.55	1.01
0.3	0.0228	294.75	1.01
0.3	0.0259	299.95	1.01
0.3	0.0294	304.75	1.01
0.3	0.0324	308.85	1.01
0.3	0.0346	311.05	1.01
0.3	0.0368	313.45	1.01
0.3	0.0386	315.75	1.01
0.3	0.0409	317.85	1.01
0.3	0.0424	319.45	1.01
0.3	0.0458	322.25	1.01
0.5	0.017	287.75	1.01
0.5	0.019	291.95	1.01
0.5	0.022	296.95	1.01
0.5	0.0253	302.45	1.01
0.5	0.0294	308.05	1.01
0.5	0.032	311.45	1.01
0.5	0.0347	314.15	1.01
0.5	0.0375	317.15	1.01
0.5	0.0403	320.05	1.01
0.5	0.053	332.75	1.01
0.7	0.0156	289.45	1.01
0.7	0.0173	293.45	1.01
0.7	0.0187	296.05	1.01
0.7	0.0204	298.65	1.01
0.7	0.0247	305.55	1.01
0.7	0.0323	315.45	1.01
0.7	0.0372	320.35	1.01
0.7	0.042	325.15	1.01
0.7	0.0464	328.65	1.01
0.7	0.0513	332.55	1.01
1	0.0142	294.25	1.01
1	0.0163	298.65	1.01
1	0.0189	303.16	1.01
1	0.0221	308.45	1.01
1	0.0249	312.35	1.01
1	0.0298	318.15	1.01
1	0.0324	321.05	1.01
1	0.036	324.65	1.01
1	0.0391	327.45	1.01
1	0.041	328.95	1.01

System: ethanol + N-(4-bromo-3,5-difluorophenyl)acrylamide; phases: Liquid, Crystal
Fixed: Pressure, kPa = 101
Property: Solid-liquid equilibrium temperature, K (Liquid); method: VISOBS:corrimp
Mole fraction of N-(4-bromo-3,5-difluorophenyl)acrylamide	Solid-liquid equilibrium temperature, K	uncertainty
0.0251	295.25	1.01
0.0264	297.65	1.01
0.0292	301.55	1.01
0.0351	309.25	1.01
0.0384	312.95	1.01
0.044	318.55	1.01
0.0534	326.45	1.01
0.0604	331.35	1.01
0.0659	334.85	1.01
0.074	339.55	1.01

System: methanol + N-(4-bromo-3,5-difluorophenyl)acrylamide; phases: Liquid, Crystal
Fixed: Pressure, kPa = 101
Property: Solid-liquid equilibrium temperature, K (Liquid); method: VISOBS:corrimp
Mole fraction of N-(4-bromo-3,5-difluorophenyl)acrylamide	Solid-liquid equilibrium temperature, K	uncertainty
0.0142	294.25	1.01
0.0163	298.65	1.01
0.0189	303.16	1.01
0.0221	308.45	1.01
0.0249	312.35	1.01
0.0298	318.15	1.01
0.0324	321.05	1.01
0.036	324.65	1.01
0.0391	327.45	1.01
0.041	328.95	1.01
