Measured thermophysical data. Measurement and correlation of isobaric vapour-liquid equilibrium for systems of o-cresol, m-cresol and 2, 6-dimethylphenol at 20.0 kPa
Source: Fluid Phase Equilib., 2018, 10.1016/j.fluid.2017.12.011
Compound 1: 2-methylphenol, C7H8O, InChI=1S/C7H8O/c1-6-4-2-3-5-7(6)8/h2-5,8H,1H3, purity 99%
Compound 2: 3-methylphenol, C7H8O, InChI=1S/C7H8O/c1-6-3-2-4-7(8)5-6/h2-5,8H,1H3, purity 99%
Compound 3: 2,6-dimethylphenol, C8H10O, InChI=1S/C8H10O/c1-6-4-3-5-7(2)8(6)9/h3-5,9H,1-2H3, purity 99%

System: 2-methylphenol; phases: Liquid, Gas
Property: Boiling temperature at pressure P, K (Liquid); method: Ebulliometric method (Recirculating still)
Pressure, kPa	Boiling temperature at pressure P, K	uncertainty
20	411.26	0.17

System: 2-methylphenol; phases: Liquid, Gas
Property: Vapor or sublimation pressure, kPa (Liquid); method: Ebulliometric method (Recirculating still)
Temperature, K	Vapor or sublimation pressure, kPa	uncertainty
411.26	20	0.2

System: 3-methylphenol; phases: Liquid, Gas
Property: Boiling temperature at pressure P, K (Liquid); method: Ebulliometric method (Recirculating still)
Pressure, kPa	Boiling temperature at pressure P, K	uncertainty
9.29	402.24	0.46
11.93	408.55	0.41
14.57	413.39	0.37
16.68	417.47	0.34
18.79	420.54	0.29
20.91	423.55	0.26
23.02	426.04	0.25
25.13	428.56	0.25
20	422.16	0.29

System: 3-methylphenol; phases: Liquid, Gas
Property: Vapor or sublimation pressure, kPa (Liquid); method: Ebulliometric method (Recirculating still)
Temperature, K	Vapor or sublimation pressure, kPa	uncertainty
422.16	20	0.2
422.28	20	0.2

System: 2,6-dimethylphenol; phases: Liquid, Gas
Property: Boiling temperature at pressure P, K (Liquid); method: Ebulliometric method (Recirculating still)
Pressure, kPa	Boiling temperature at pressure P, K	uncertainty
6.7	390.06	0.54
8.87	396.14	0.52
10.89	401.43	0.47
12.74	405.64	0.41
14.98	409.97	0.37
16.8	413.33	0.34
18.91	416.65	0.3
21.02	419.43	0.28
22.83	422.01	0.29
33.02	436.55	0.28
35.64	438.9	0.2
20	418.11	0.27

System: 2,6-dimethylphenol; phases: Liquid, Gas
Property: Vapor or sublimation pressure, kPa (Liquid); method: Ebulliometric method (Recirculating still)
Temperature, K	Vapor or sublimation pressure, kPa	uncertainty
418.11	20	0.2

System: 2,6-dimethylphenol + 3-methylphenol; phases: Liquid, Gas
Fixed: Pressure, kPa = 20
Property: Boiling temperature at pressure P, K (Liquid); method: Ebulliometric method (Recirculating still)
Mole fraction of 2,6-dimethylphenol	Boiling temperature at pressure P, K	uncertainty
1	418.11	0.2
0.9291	418.26	0.2
0.8893	418.36	0.2
0.7237	418.8	0.2
0.6089	419.15	0.2
0.4575	419.56	0.2
0.3424	420.05	0.2
0.2501	420.45	0.2
0.1521	421	0.2
0.0754	421.55	0.2
0	422.16	0.2

System: 2,6-dimethylphenol + 3-methylphenol; phases: Gas, Liquid
Fixed: Pressure, kPa = 20
Property: Mole fraction of 2,6-dimethylphenol (Gas); method: Chromatography
Mole fraction of 2,6-dimethylphenol	Mole fraction of 2,6-dimethylphenol	uncertainty
1	1	
0.9291	0.9343	0.0029
0.8893	0.8973	0.0031
0.7237	0.7418	0.0044
0.6089	0.6331	0.0053
0.4575	0.4914	0.0062
0.3424	0.3751	0.0047
0.2501	0.2848	0.0039
0.1521	0.1826	0.0034
0.0754	0.0946	0.0032
0	0	

System: 2-methylphenol + 3-methylphenol; phases: Liquid, Gas
Fixed: Pressure, kPa = 20
Property: Boiling temperature at pressure P, K (Liquid); method: Ebulliometric method (Recirculating still)
Mole fraction of 2-methylphenol	Boiling temperature at pressure P, K	uncertainty
1	411.26	0.2
0.7573	413.35	0.2
0.667	414.25	0.2
0.5589	415.26	0.2
0.4567	416.35	0.2
0.3768	417.25	0.2
0.3141	417.95	0.2
0.2381	418.86	0.2
0.1898	419.45	0.2
0.1554	419.96	0.2
0	422.28	0.2

System: 2-methylphenol + 3-methylphenol; phases: Gas, Liquid
Fixed: Pressure, kPa = 20
Property: Mole fraction of 2-methylphenol (Gas); method: Chromatography
Mole fraction of 2-methylphenol	Mole fraction of 2-methylphenol	uncertainty
1	1	
0.7573	0.8193	0.0036
0.667	0.7435	0.0043
0.5589	0.6502	0.0051
0.4567	0.5523	0.006
0.3768	0.4706	0.0059
0.3141	0.4038	0.0051
0.2381	0.3208	0.0043
0.1898	0.2601	0.004
0.1554	0.2167	0.0038
0	0	

System: 2-methylphenol + 2,6-dimethylphenol; phases: Liquid, Gas
Fixed: Pressure, kPa = 20
Property: Boiling temperature at pressure P, K (Liquid); method: Ebulliometric method (Recirculating still)
Mole fraction of 2-methylphenol	Boiling temperature at pressure P, K	uncertainty
1	411.26	0.2
0.8251	412.07	0.2
0.7481	412.56	0.2
0.6219	413.33	0.2
0.5219	414	0.2
0.4341	414.6	0.2
0.3559	415.18	0.2
0.2648	415.93	0.2
0.1853	416.49	0.2
0.1129	417.12	0.2
0	418.11	0.2

System: 2-methylphenol + 2,6-dimethylphenol; phases: Gas, Liquid
Fixed: Pressure, kPa = 20
Property: Mole fraction of 2-methylphenol (Gas); method: Chromatography
Mole fraction of 2-methylphenol	Mole fraction of 2-methylphenol	uncertainty
1	1	
0.8251	0.8538	0.0034
0.7481	0.7889	0.004
0.6219	0.6775	0.0049
0.5219	0.5842	0.0057
0.4341	0.4985	0.0064
0.3559	0.4173	0.0052
0.2648	0.3195	0.0043
0.1853	0.2286	0.0037
0.1129	0.1426	0.0034
0	0	
