Measured thermophysical data. Influence of the ionic liquid structure on thiophene solubility
Source: Fluid Phase Equilib., 2011, 10.1016/j.fluid.2011.05.018
Compound 1: 1-butyl-3-methylimidazolium 2-(2-methoxyethoxy)ethyl sulfate, C13H26N2O6S, InChI=1S/C8H15N2.C5H12O6S/c1-3-4-5-10-7-6-9(2)8-10;1-9-2-3-10-4-5-11-12(6,7)8/h6-8H,3-5H2,1-2H3;2-5H2,1H3,(H,6,7,8)/q+1;/p-1, purity 98%
Compound 2: 1-ethyl-3-methylimidazolium trifluoroacetate, C8H11F3N2O2, InChI=1S/C6H11N2.C2HF3O2/c1-3-8-5-4-7(2)6-8;3-2(4,5)1(6)7/h4-6H,3H2,1-2H3;(H,6,7)/q+1;/p-1, purity 99.6%
Compound 3: 1-ethyl-3-methylimidazolium trifluoromethanesulfonate, C7H11F3N2O3S, InChI=1S/C6H11N2.CHF3O3S/c1-3-8-5-4-7(2)6-8;2-1(3,4)8(5,6)7/h4-6H,3H2,1-2H3;(H,5,6,7)/q+1;/p-1, purity 99.8%
Compound 4: 1-butyl-3-methylimidazolium trifluoromethanesulfonate, C9H15F3N2O3S, InChI=1S/C8H15N2.CHF3O3S/c1-3-4-5-10-7-6-9(2)8-10;2-1(3,4)8(5,6)7/h6-8H,3-5H2,1-2H3;(H,5,6,7)/q+1;/p-1, purity 99.9%
Compound 5: 1-butyl-1-methylpyrrolidinium trifluoromethanesulfonate, C10H20F3NO3S, InChI=1S/C9H20N.CHF3O3S/c1-3-4-7-10(2)8-5-6-9-10;2-1(3,4)8(5,6)7/h3-9H2,1-2H3;(H,5,6,7)/q+1;/p-1, purity 99%
Compound 6: 1-butyl-3-methylpyridinium trifluoromethanesulfonate, C11H16F3NO3S, InChI=1S/C10H16N.CHF3O3S/c1-3-4-7-11-8-5-6-10(2)9-11;2-1(3,4)8(5,6)7/h5-6,8-9H,3-4,7H2,1-2H3;(H,5,6,7)/q+1;/p-1, purity 99%
Compound 7: 1-(hexyloxymethyl)-3-methylimidazolium bis((trifluoromethyl)sulfonyl)amide, C13H21F6N3O5S2, InChI=1S/C11H21N2O.C2F6NO4S2/c1-3-4-5-6-9-14-11-13-8-7-12(2)10-13;3-1(4,5)14(10,11)9-15(12,13)2(6,7)8/h7-8,10H,3-6,9,11H2,1-2H3;/q+1;-1, purity 99.5%
Compound 8: 1-(3-hydroxypropyl)pyridinium bis(trifluoromethylsulfonyl)amide, C10H12F6N2O5S2, InChI=1S/C8H12NO.C2F6NO4S2/c10-8-4-7-9-5-2-1-3-6-9;3-1(4,5)14(10,11)9-15(12,13)2(6,7)8/h1-3,5-6,10H,4,7-8H2;/q+1;-1, purity 99.9%
Compound 9: 1-(3-hydroxypropyl)pyridinium trifluorotris(perfluoroethyl)phosphate(V), C14H12F18NOP, InChI=1S/C8H12NO.C6F18P/c10-8-4-7-9-5-2-1-3-6-9;7-1(8,9)4(16,17)25(22,23,24,5(18,19)2(10,11)12)6(20,21)3(13,14)15/h1-3,5-6,10H,4,7-8H2;/q+1;-1, purity 99.9%
Compound 10: thiophene, C4H4S, InChI=1S/C4H4S/c1-2-4-5-3-1/h1-4H, purity 99.5%

System: thiophene + 1-butyl-3-methylimidazolium 2-(2-methoxyethoxy)ethyl sulfate; phases: Liquid mixture 1, Liquid mixture 2
Fixed: Pressure, kPa = 101
Property: Liquid-liquid equilibrium temperature, K (Liquid mixture 1); method: VISOBS
Mole fraction of 1-butyl-3-methylimidazolium 2-(2-methoxyethoxy)ethyl sulfate	Liquid-liquid equilibrium temperature, K	uncertainty
0.0054	287.9	2
0.0079	294	2
0.0091	298.8	2
0.0102	303.4	2
0.0117	308.9	2
0.0129	314	2
0.0135	318.9	2
0.0145	323.5	2
0.0153	328.3	2
0.0167	334.1	2
0.0185	341.5	2
0.0196	347.3	2
0.0212	354.3	2
0.0822	353	2
0.0827	348.9	2
0.0832	345.5	2
0.0835	342.4	2
0.0838	339.6	2
0.0841	337	2
0.0845	333.5	2
0.0849	328.7	2
0.0854	324.3	2
0.0857	321.1	2
0.0862	318.2	2
0.0865	315.9	2
0.0867	313	2
0.0869	309.9	2

System: thiophene + 1-ethyl-3-methylimidazolium trifluoroacetate; phases: Liquid mixture 1, Liquid mixture 2
Fixed: Pressure, kPa = 101
Property: Liquid-liquid equilibrium temperature, K (Liquid mixture 1); method: VISOBS
Mole fraction of 1-ethyl-3-methylimidazolium trifluoroacetate	Liquid-liquid equilibrium temperature, K	uncertainty
0.0005	309	2
0.0011	316.9	2
0.0018	323.8	2
0.0023	328.8	2
0.0029	335	2
0.0036	344.1	2
0.0044	352.7	2
0.2776	283	2
0.2797	288.2	2
0.2816	292.8	2
0.2837	297.3	2
0.286	302.4	2
0.2883	306.7	2
0.2901	310	2
0.2916	314.2	2
0.2927	318.4	2
0.2939	322.9	2
0.2956	327.6	2
0.2974	333.8	2
0.2992	339.8	2
0.3008	344.2	2
0.3021	349.5	2

System: thiophene + 1-ethyl-3-methylimidazolium trifluoromethanesulfonate; phases: Liquid mixture 1, Liquid mixture 2
Fixed: Pressure, kPa = 101
Property: Liquid-liquid equilibrium temperature, K (Liquid mixture 1); method: VISOBS
Mole fraction of 1-ethyl-3-methylimidazolium trifluoromethanesulfonate	Liquid-liquid equilibrium temperature, K	uncertainty
0.2741	283.1	2
0.2766	288	2
0.2792	292.6	2
0.281	296.3	2
0.2832	299.8	2
0.285	302.8	2
0.2869	306.9	2
0.2893	311.3	2
0.2919	317	2
0.2943	323.2	2
0.2964	327.8	2
0.2978	331.4	2
0.299	334.3	2
0.3004	338	2
0.3013	341.3	2
0.3021	344.7	2
0.3029	348.6	2

System: thiophene + 1-butyl-3-methylimidazolium trifluoromethanesulfonate; phases: Liquid mixture 1, Liquid mixture 2
Fixed: Pressure, kPa = 101
Property: Liquid-liquid equilibrium temperature, K (Liquid mixture 1); method: VISOBS
Mole fraction of 1-butyl-3-methylimidazolium trifluoromethanesulfonate	Liquid-liquid equilibrium temperature, K	uncertainty
0.0024	297.3	2
0.0025	304	2
0.0029	309	2
0.0037	323.6	2
0.0038	327.7	2
0.0044	335.5	2
0.0049	344	2
0.0052	347.3	2
0.0055	353.1	2
0.1907	286.8	2
0.1914	290.7	2
0.192	295.3	2
0.1925	300.5	2
0.1931	307.2	2
0.1937	314.3	2
0.1942	319.5	2
0.1946	326.7	2
0.1952	335	2
0.1959	342.6	2

System: thiophene + 1-butyl-1-methylpyrrolidinium trifluoromethanesulfonate; phases: Liquid mixture 1, Liquid mixture 2
Fixed: Pressure, kPa = 101
Property: Liquid-liquid equilibrium temperature, K (Liquid mixture 1); method: VISOBS
Mole fraction of 1-butyl-1-methylpyrrolidinium trifluoromethanesulfonate	Liquid-liquid equilibrium temperature, K	uncertainty
0.0007	279.3	2
0.0009	286.7	2
0.0018	304.9	2
0.0022	314	2
0.0032	334.6	2
0.0036	346.6	2
0.004	354.3	2
0.1872	285	2
0.1878	287.5	2
0.1887	291.9	2
0.1896	296.3	2
0.1906	300.8	2
0.1917	305.2	2
0.1928	309.4	2
0.1937	313	2
0.1947	317.1	2
0.1957	322.7	2
0.1968	328.6	2
0.1972	333.7	2
0.1976	337.9	2
0.1982	342.8	2
0.1985	347.2	2

System: thiophene + 1-butyl-3-methylpyridinium trifluoromethanesulfonate; phases: Liquid mixture 1, Liquid mixture 2
Fixed: Pressure, kPa = 101
Property: Liquid-liquid equilibrium temperature, K (Liquid mixture 1); method: VISOBS
Mole fraction of 1-butyl-3-methylpyridinium trifluoromethanesulfonate	Liquid-liquid equilibrium temperature, K	uncertainty
0.0011	281	2
0.0014	290	2
0.0022	307.7	2
0.0026	315.6	2
0.003	327.5	2
0.0038	347.7	2
0.004	355.8	2
0.1792	286.3	2
0.1803	289.4	2
0.181	292.4	2
0.1817	295	2
0.1826	298.7	2
0.1833	301.4	2
0.1845	305.8	2
0.1857	309.9	2
0.1864	313.9	2
0.1871	318.6	2
0.1879	323.4	2
0.1887	329.2	2
0.1896	334.3	2
0.1903	339.3	2
0.1908	345.1	2
0.1913	350.4	2

System: thiophene + 1-(hexyloxymethyl)-3-methylimidazolium bis((trifluoromethyl)sulfonyl)amide; phases: Liquid mixture 1, Liquid mixture 2
Fixed: Pressure, kPa = 101
Property: Liquid-liquid equilibrium temperature, K (Liquid mixture 1); method: VISOBS
Mole fraction of 1-(hexyloxymethyl)-3-methylimidazolium bis((trifluoromethyl)sulfonyl)amide	Liquid-liquid equilibrium temperature, K	uncertainty
0.0019	282.9	2
0.0022	286.6	2
0.0024	289.3	2
0.0026	292.1	2
0.0029	293.9	2
0.0031	295.8	2
0.0033	297.9	2
0.0036	300	2
0.004	302.4	2
0.0044	305.1	2
0.0049	307.5	2
0.0055	309.9	2
0.0062	312.3	2
0.0068	314	2
0.0076	315.6	2
0.0083	317	2
0.009	318	2
0.0095	318.8	2
0.0108	319.8	2
0.0124	321	2
0.014	322.1	2
0.0157	323.2	2
0.0182	324.3	2
0.0242	324.3	2
0.0281	323.3	2
0.0317	322.2	2
0.0359	320.4	2
0.039	319.2	2
0.0414	317.9	2
0.0433	316.9	2
0.046	315.4	2
0.0479	314.1	2
0.05	312.5	2
0.0524	310.7	2
0.0549	308.9	2
0.0573	306.4	2
0.0599	304	2
0.063	301.4	2
0.0664	297.2	2
0.0693	293.8	2
0.0719	291.2	2
0.0737	289	2
0.0754	287.3	2
0.0765	285.8	2
0.0771	284.6	2
0.0773	284	2
0.0774	283.6	2

System: thiophene + 1-(3-hydroxypropyl)pyridinium bis(trifluoromethylsulfonyl)amide; phases: Liquid mixture 1, Liquid mixture 2
Fixed: Pressure, kPa = 101
Property: Liquid-liquid equilibrium temperature, K (Liquid mixture 1); method: VISOBS
Mole fraction of 1-(3-hydroxypropyl)pyridinium bis(trifluoromethylsulfonyl)amide	Liquid-liquid equilibrium temperature, K	uncertainty
0.0003	292.8	2
0.0008	315.6	2
0.0012	326.8	2
0.0017	341.3	2
0.0021	354.5	2
0.2638	354.4	2
0.2653	349.4	2
0.2672	344.4	2
0.2693	340	2
0.2707	335.3	2
0.2727	328.3	2
0.2744	322.8	2
0.2763	318.9	2
0.279	312.9	2
0.2801	309.4	2
0.2831	304.6	2
0.2861	299.1	2
0.2928	289.7	2

System: thiophene + 1-(3-hydroxypropyl)pyridinium trifluorotris(perfluoroethyl)phosphate(V); phases: Liquid mixture 1, Liquid mixture 2
Fixed: Pressure, kPa = 101
Property: Liquid-liquid equilibrium temperature, K (Liquid mixture 1); method: VISOBS
Mole fraction of 1-(3-hydroxypropyl)pyridinium trifluorotris(perfluoroethyl)phosphate(V)	Liquid-liquid equilibrium temperature, K	uncertainty
0.0007	293.6	2
0.0012	312.2	2
0.0014	323.3	2
0.0018	333.5	2
0.002	339.9	2
0.0026	348.2	2
0.0031	354.9	2
0.1773	350.5	2
0.1802	346.6	2
0.1833	342.4	2
0.1868	337.3	2
0.1903	332.1	2
0.1952	326.8	2
0.1995	320.9	2
0.2041	315.4	2
0.2086	310.1	2
0.2131	305	2
0.2175	301	2
0.2212	297.5	2
0.2255	294.1	2
0.2294	291.2	2
0.2324	289.2	2
0.2333	288.7	2
