Measured thermophysical data. The influence of temperature on the liquid liquid solid equilibria of the ternary system water + ethanol + 1-dodecanol
Source: Fluid Phase Equilib., 2005, 10.1016/j.fluid.2005.06.027
Compound 1: water, H2O, InChI=1S/H2O/h1H2
Compound 2: ethanol, C2H6O, InChI=1S/C2H6O/c1-2-3/h3H,2H2,1H3, purity 99.8%
Compound 3: dodecan-1-ol, C12H26O, InChI=1S/C12H26O/c1-2-3-4-5-6-7-8-9-10-11-12-13/h13H,2-12H2,1H3, purity 98%

System: ethanol + dodecan-1-ol; phases: Liquid, Crystal
Fixed: Pressure, kPa = 101
Property: Mole fraction of ethanol (Liquid); method: Titration method
Temperature, K	Mole fraction of ethanol	uncertainty
281.1	0.324	0.04
288.15	0.145	0.04
296.15	0.019	0.019

System: ethanol + dodecan-1-ol + water; phases: Liquid mixture 1, Crystal, Liquid mixture 2
Fixed: Pressure, kPa = 101
Property: Mole fraction of ethanol (Liquid mixture 1); method: Titration method
Temperature, K	Mole fraction of ethanol	uncertainty
281.1	0.444	0.04
288.15	0.169	0.04
296.15	0.0192	0.0192

System: ethanol + dodecan-1-ol + water; phases: Liquid mixture 2, Crystal, Liquid mixture 1
Fixed: Pressure, kPa = 101
Property: Mole fraction of ethanol (Liquid mixture 2); method: Titration method
Temperature, K	Mole fraction of ethanol	uncertainty
281.1	0.355	0.04
288.15	0.0664	0.04
296.15	0.005363	0.005363

System: ethanol + dodecan-1-ol + water; phases: Liquid mixture 1, Liquid mixture 2, Crystal
Fixed: Pressure, kPa = 101
Property: Mole fraction of water (Liquid mixture 1); method: Titration method
Temperature, K	Mole fraction of water	uncertainty
281.1	0.547	0.04
288.15	0.831	0.04
296.15	0.981	0.019

System: ethanol + dodecan-1-ol + water; phases: Liquid mixture 2, Liquid mixture 1, Crystal
Fixed: Pressure, kPa = 101
Property: Mole fraction of water (Liquid mixture 2); method: Titration method
Temperature, K	Mole fraction of water	uncertainty
281.1	0.149	0.04
288.15	0.0434	0.04
296.15	0.0225	0.0225

System: ethanol + dodecan-1-ol + water; phases: Liquid mixture 1, Liquid mixture 2
Fixed: Pressure, kPa = 101
Property: Mole fraction of ethanol (Liquid mixture 1); method: Titration method
Temperature, K	Mole fraction of water	Mole fraction of ethanol	uncertainty
278.1	0	0.393	0.042
278.1	0.039	0.4	0.042
278.1	0.088	0.416	0.042
278.1	0.147	0.436	0.042
278.1	0.197	0.462	0.042
278.1	0.242	0.474	0.042
278.1	0.276	0.486	0.042
278.1	0.31	0.492	0.042
278.1	0.351	0.5	0.042
278.1	0.396	0.507	0.042
278.1	0.441	0.5	0.042
278.1	0.493	0.485	0.042
278.1	0.514	0.475	0.042
278.1	0.547	0.448	0.042
278.1	0.578	0.419	0.042
281.1	0.113	0.322	0.041
281.1	0.16	0.371	0.041
281.1	0.206	0.409	0.042
281.1	0.255	0.437	0.042
281.1	0.33	0.475	0.042
281.1	0.407	0.489	0.042
281.1	0.504	0.476	0.042
288.15	0.05	0.116	0.04
288.15	0.055	0.166	0.04
288.15	0.069	0.206	0.04
288.15	0.083	0.249	0.041
288.15	0.11	0.29	0.041
288.15	0.138	0.323	0.041
288.15	0.161	0.35	0.041
288.15	0.189	0.379	0.041
288.15	0.233	0.405	0.042
288.15	0.278	0.425	0.042
288.15	0.319	0.45	0.042
288.15	0.35	0.466	0.042
288.15	0.422	0.469	0.042
288.15	0.474	0.474	0.042
288.15	0.503	0.475	0.042
288.15	0.527	0.461	0.042
288.15	0.54	0.452	0.042
288.15	0.574	0.421	0.042
296.15	0.026	0.025	0.025
296.15	0.06	0.158	0.04
296.15	0.108	0.268	0.041
296.15	0.194	0.362	0.041
296.15	0.239	0.408	0.042
296.15	0.287	0.424	0.042
296.15	0.376	0.448	0.042
296.15	0.463	0.461	0.042
296.15	0.555	0.427	0.042
303.15	0.021	0	0.001
303.15	0.029	0.044	0.04
303.15	0.031	0.015	0.015
303.15	0.032	0.117	0.04
303.15	0.033	0.07	0.04
303.15	0.038	0.139	0.04
303.15	0.061	0.183	0.04
303.15	0.073	0.225	0.041
303.15	0.107	0.296	0.041
303.15	0.148	0.353	0.041
303.15	0.296	0.425	0.042
303.15	0.356	0.444	0.042
303.15	0.41	0.459	0.042
303.15	0.472	0.464	0.042
303.15	0.504	0.456	0.042
303.15	0.508	0.456	0.042
303.15	0.588	0.408	0.042
303.15	0.613	0.384	0.041
303.15	0.636	0.362	0.041

System: ethanol + dodecan-1-ol + water; phases: Liquid mixture 1, Liquid mixture 2
Fixed: Pressure, kPa = 101
Property: Mole fraction of ethanol (Liquid mixture 1); method: Index of refraction calibration data
Property: Mole fraction of water (Liquid mixture 2); method: Index of refraction calibration data
Property: Mole fraction of ethanol (Liquid mixture 2); method: Index of refraction calibration data
Temperature, K	Mole fraction of water	Mole fraction of ethanol	uncertainty	Mole fraction of water	uncertainty	Mole fraction of ethanol	uncertainty
288.15	0.526	0.461	0.053	0.178	0.051	0.366	
288.15	0.635	0.365	0.055	0.084	0.046	0.245	
288.15	0.734	0.266	0.057	0.052	0.041	0.138	
288.15	0.797	0.203	0.057	0.046	0.04	0.096	
296.15	0.559	0.421	0.052	0.154	0.049	0.33	
296.15	0.634	0.363	0.054	0.102	0.045	0.256	
296.15	0.737	0.263	0.056	0.058	0.042	0.151	
296.15	0.86	0.14	0.057	0.034	0.034	0.063	
296.15	0.961	0.039	0.039	0.024	0.024	0.015	
303.15	0.527	0.446	0.051	0.214	0.057	0.383	
303.15	0.651	0.349	0.053	0.085	0.05	0.257	
303.15	0.76	0.244	0.057	0.049	0.042	0.163	
303.15	0.873	0.127	0.057	0.032	0.032	0.074	
303.15	1	0	0.001	0.028	0.028	0	
