Measured thermophysical data. Solubility studies on the system of trihexyl(tetradecyl)phosphonium bis[(trifluoromethyl)sulfonyl]amide) ionic liquid and pharmaceutical and bioactive compounds
Source: Fluid Phase Equilib., 2015, 10.1016/j.fluid.2014.10.033
Compound 1: trihexyl(tetradecyl)phosphonium bis[(trifluoromethyl)sulfonyl]imide, C34H68F6NO4PS2, InChI=1S/C32H68P.C2F6NO4S2/c1-5-9-13-17-18-19-20-21-22-23-24-28-32-33(29-25-14-10-6-2,30-26-15-11-7-3)31-27-16-12-8-4;3-1(4,5)14(10,11)9-15(12,13)2(6,7)8/h5-32H2,1-4H3;/q+1;-1, purity 98%
Compound 2: N-acetyl-L-cysteine, C5H9NO3S, InChI=1S/C5H9NO3S/c1-3(7)6-4(2-10)5(8)9/h4,10H,2H2,1H3,(H,6,7)(H,8,9)/t4-/m0/s1, purity 99%
Compound 3: isonicotinic acid hydrazide, C6H7N3O, InChI=1S/C6H7N3O/c7-9-6(10)5-1-3-8-4-2-5/h1-4H,7H2,(H,9,10), purity 99%
Compound 4: pyrazinecarboxamide, C5H5N3O, InChI=1S/C5H5N3O/c6-5(9)4-3-7-1-2-8-4/h1-3H,(H2,6,9), purity 99%
Compound 5: 1,2-benzopyrone, C9H6O2, InChI=1S/C9H6O2/c10-9-6-5-7-3-1-2-4-8(7)11-9/h1-6H, purity 99%
Compound 6: 4-hydroxycoumarin, C9H6O3, InChI=1S/C9H6O3/c10-7-5-9(11)12-8-4-2-1-3-6(7)8/h1-5,10H, purity 98%
Compound 7: ibuprofen, C13H18O2, InChI=1S/C13H18O2/c1-9(2)8-11-4-6-12(7-5-11)10(3)13(14)15/h4-7,9-10H,8H2,1-3H3,(H,14,15), purity 98%
Compound 8: 2-isopropyl-5-methylcyclohexa-2,5-diene-1,4-dione, C10H12O2, InChI=1S/C10H12O2/c1-6(2)8-5-9(11)7(3)4-10(8)12/h4-6H,1-3H3, purity 99%

System: N-acetyl-L-cysteine; phases: Crystal, Liquid, Air at 1 atmosphere
Property: Molar enthalpy of transition or fusion, kJ/mol (Crystal); method: DSC
Molar enthalpy of transition or fusion, kJ/mol	uncertainty
32.1	0.7

System: isonicotinic acid hydrazide; phases: Crystal, Liquid, Air at 1 atmosphere
Property: Normal melting temperature, K (Crystal); method: DTA
Normal melting temperature, K	uncertainty
445.84	1.06

System: ibuprofen; phases: Crystal, Liquid, Air at 1 atmosphere
Property: Normal melting temperature, K (Crystal); method: DTA
Normal melting temperature, K	uncertainty
347.7	0.39

System: 2-isopropyl-5-methylcyclohexa-2,5-diene-1,4-dione; phases: Crystal, Liquid, Air at 1 atmosphere
Property: Normal melting temperature, K (Crystal); method: DSC/DTA
Normal melting temperature, K	uncertainty
316.7	1

System: N-acetyl-L-cysteine + trihexyl(tetradecyl)phosphonium bis[(trifluoromethyl)sulfonyl]imide; phases: Liquid, Crystal
Fixed: Pressure, kPa = 101
Property: Solid-liquid equilibrium temperature, K (Liquid); method: VISOBS
Mole fraction of N-acetyl-L-cysteine	Solid-liquid equilibrium temperature, K	uncertainty
0.0013	348.55	1.01
0.0035	350.75	1.01
0.0172	362.22	0.62
0.0341	369.27	0.46
0.0457	374.61	0.37
0.0562	376.71	0.29
0.068	380.15	0.21
0.0817	380.46	0.16
0.1231	380.54	0.16
0.1748	380.43	0.16
0.2101	380.48	0.16
0.3238	380.58	0.16
0.4175	380.73	0.16
0.5244	380.63	0.16
0.5817	380.53	0.16
0.7376	380.68	0.16
0.8039	380.83	0.16
0.9035	380.99	0.16
1	381.99	0.16

System: isonicotinic acid hydrazide + trihexyl(tetradecyl)phosphonium bis[(trifluoromethyl)sulfonyl]imide; phases: Liquid, Crystal
Fixed: Pressure, kPa = 101
Property: Solid-liquid equilibrium temperature, K (Liquid); method: VISOBS
Mole fraction of isonicotinic acid hydrazide	Solid-liquid equilibrium temperature, K	uncertainty
0.0651	298.37	1.72
0.0845	331.52	1.61
0.1094	369.68	0.96
0.1465	392	0.37
0.2009	401.54	0.23
0.2531	409.9	0.2
0.3067	414.96	0.18
1	445.84	0.16

System: pyrazinecarboxamide + trihexyl(tetradecyl)phosphonium bis[(trifluoromethyl)sulfonyl]imide; phases: Liquid, Crystal
Fixed: Pressure, kPa = 101
Property: Solid-liquid equilibrium temperature, K (Liquid); method: VISOBS
Mole fraction of pyrazinecarboxamide	Solid-liquid equilibrium temperature, K	uncertainty
0.0125	294.14	7.97
0.0201	354.69	2.41
0.0498	397.85	0.8
0.0937	414.65	0.41
1	461.42	0.16

System: 1,2-benzopyrone + trihexyl(tetradecyl)phosphonium bis[(trifluoromethyl)sulfonyl]imide; phases: Liquid, Crystal
Fixed: Pressure, kPa = 101
Property: Solid-liquid equilibrium temperature, K (Liquid); method: VISOBS
Mole fraction of 1,2-benzopyrone	Solid-liquid equilibrium temperature, K	uncertainty
0.022	289.07	0.99
0.0425	309.17	0.46
0.1019	326.65	0.17
0.306	332.8	0.16
0.5012	336.29	0.16
0.6998	338.27	0.16
0.9021	339.35	0.16
1	341.68	0.16

System: 4-hydroxycoumarin + trihexyl(tetradecyl)phosphonium bis[(trifluoromethyl)sulfonyl]imide; phases: Liquid, Crystal
Fixed: Pressure, kPa = 101
Property: Solid-liquid equilibrium temperature, K (Liquid); method: VISOBS
Mole fraction of 4-hydroxycoumarin	Solid-liquid equilibrium temperature, K	uncertainty
0.0321	304.91	1.94
0.0524	344.18	0.91
0.1084	379.37	0.49
0.175	401.67	0.37
1	488.3	0.16

System: ibuprofen + trihexyl(tetradecyl)phosphonium bis[(trifluoromethyl)sulfonyl]imide; phases: Liquid, Crystal
Fixed: Pressure, kPa = 101
Property: Solid-liquid equilibrium temperature, K (Liquid); method: VISOBS
Mole fraction of ibuprofen	Solid-liquid equilibrium temperature, K	uncertainty
0.0528	326.64	0.37
0.0685	331.94	0.24
0.1036	336.34	0.17
0.1748	339.18	0.16
0.2455	341.19	0.16
0.303	342.7	0.16
0.3725	343.96	0.16
0.4435	345.04	0.16
0.5045	345.13	0.16
0.5742	346.37	0.16
0.6512	347.19	0.16
0.71	347.43	0.16
0.784	347.48	0.16
0.8372	347.51	0.16
0.9011	347.63	0.16
0.9485	347.68	0.16
1	347.7	0.16

System: 2-isopropyl-5-methylcyclohexa-2,5-diene-1,4-dione + trihexyl(tetradecyl)phosphonium bis[(trifluoromethyl)sulfonyl]imide; phases: Liquid, Crystal
Fixed: Pressure, kPa = 101
Property: Solid-liquid equilibrium temperature, K (Liquid); method: Visual observation
Mole fraction of 2-isopropyl-5-methylcyclohexa-2,5-diene-1,4-dione	Solid-liquid equilibrium temperature, K	uncertainty
0.023	290.01	0.41
0.1005	299.87	0.39
0.168	299.8	0.39
0.2356	299.87	0.39
0.3031	299.86	0.39
0.3687	299.78	0.39
0.4003	299.67	0.39
0.4344	299.71	0.39
0.5	299.64	0.39
0.5655	299.68	0.39
0.6311	299.69	0.39
0.6966	299.74	0.39
0.751	299.68	0.39
0.8144	299.78	0.39
0.8991	299.9	0.4
0.9186	301.68	0.43
0.959	310.17	0.43
1	316.7	0.39
