Measured thermophysical data. Experimental study of the density and viscosity of polyethylene glycols and their mixtures at temperatures from 293 K to 465 K and at high pressures up to 245 MPa
Source: Fluid Phase Equilib., 2012, 10.1016/j.fluid.2011.11.022
Compound 1: 1,2-ethanediol, C2H6O2, InChI=1S/C2H6O2/c3-1-2-4/h3-4H,1-2H2, purity 99.7%
Compound 2: diethylene glycol, C4H10O3, InChI=1S/C4H10O3/c5-1-3-7-4-2-6/h5-6H,1-4H2, purity 99.5%
Compound 3: triethylene glycol, C6H14O4, InChI=1S/C6H14O4/c7-1-3-9-5-6-10-4-2-8/h7-8H,1-6H2, purity 98.5%

System: 1,2-ethanediol; phases: Liquid
Property: Viscosity, Pa*s (Liquid); method: Falling or rolling sphere viscometry
Temperature, K	Pressure, kPa	Viscosity, Pa*s	uncertainty
293.15	98	0.0211	0.00086
293.15	49030	0.02675	0.00109
293.15	98060	0.03342	0.00136
293.15	147100	0.04119	0.00168
293.15	196130	0.05033	0.00202
293.15	245160	0.06043	0.00245
312.46	98	0.009925	0.000405
312.46	98060	0.01482	0.00061
312.49	49030	0.01224	0.0005
312.49	147100	0.01764	0.00072
312.65	245160	0.02469	0.00101
334.87	98	0.004949	0.000202
335	49030	0.005952	0.000243
335.3	98060	0.007031	0.000287
335.35	245160	0.01115	0.00046
335.43	147100	0.008234	0.000336
335.45	196130	0.009608	0.0004
349.24	98	0.003517	0.000143
349.5	49030	0.004157	0.000169
349.65	98060	0.00489	0.000199
349.67	147100	0.005688	0.000232
349.8	196130	0.006541	0.000266
349.91	245160	0.007454	0.000304
365.7	98	0.00239	9.7e-05
366.1	49030	0.002816	0.000115
366.15	98060	0.003302	0.000134
366.37	147100	0.003812	0.000155
366.48	196130	0.004344	0.000177
366.8	245160	0.004889	0.000199
380.15	98060	0.002558	0.000104
380.82	98	0.001872	7.6e-05
381	49030	0.002207	9e-05
381.2	196130	0.003345	0.000136
381.27	147100	0.002932	0.000119
381.3	245160	0.003784	0.000154
395.55	98	0.001419	5.8e-05
395.6	49030	0.001673	6.8e-05
395.61	98060	0.001936	7.9e-05
395.65	147100	0.002214	9e-05
395.73	196130	0.002501	0.000102
395.8	245160	0.002811	0.000114
421.7	98	0.00096	3.9e-05
421.71	49030	0.001174	4.8e-05
421.8	98060	0.001345	5.5e-05
421.9	147100	0.001521	6.2e-05
422	196130	0.001716	7e-05
422	245160	0.001898	7.7e-05
464.4	98	0.000652	2.7e-05
464.47	98060	0.00097	3.9e-05
464.53	196130	0.001203	4.9e-05
464.53	245160	0.001356	5.5e-05
464.54	147100	0.00111	4.5e-05
464.6	49030	0.000877	3.6e-05

System: 1,2-ethanediol; phases: Liquid
Property: Mass density, kg/m3 (Liquid); method: Buoyancy - hydrostatic balance
Temperature, K	Pressure, kPa	Mass density, kg/m3	uncertainty
293.15	98	1113.58	6.68
293.15	49030	1134.56	6.81
293.15	98060	1147.72	6.89
293.15	147100	1159.85	6.96
293.15	196130	1173.34	7.04
293.15	245160	1185.44	7.11
312.46	98	1100.88	6.61
312.46	98060	1139.02	6.83
312.49	49030	1123.04	6.74
312.49	147100	1153.18	6.92
312.65	245160	1179.39	7.08
334.87	98	1085.13	6.51
335	49030	1108.43	6.65
335.3	98060	1127.05	6.76
335.35	245160	1169.07	7.01
335.43	147100	1143.57	6.86
335.45	196130	1156.71	6.94
349.24	98	1074.46	6.45
349.5	49030	1098.33	6.59
349.65	98060	1118.59	6.71
349.67	147100	1136.69	6.82
349.8	196130	1149.28	6.9
349.91	245160	1161.91	6.97
365.7	98	1061.7	6.37
366.1	49030	1086.11	6.52
366.15	98060	1107.99	6.65
366.37	147100	1127.71	6.77
366.48	196130	1139.94	6.84
366.8	245160	1153.08	6.92
380.15	98060	1098.24	6.59
380.82	98	1049.47	6.3
381	49030	1074.54	6.45
381.2	196130	1131.06	6.79
381.27	147100	1118.88	6.71
381.3	245160	1145.04	6.87
395.55	98	1037.07	6.22
395.6	49030	1062.66	6.38
395.61	98060	1086.68	6.52
395.65	147100	1109.63	6.66
395.73	196130	1121.71	6.73
395.8	245160	1136.57	6.82
421.7	98	1013.93	6.08
421.71	49030	1040.05	6.24
421.8	98060	1065.2	6.39
421.9	147100	1090.87	6.55
422	196130	1103.32	6.62
422	245160	1120.22	6.72
464.4	98	972.98	5.84
464.47	98060	1025.08	6.15
464.53	196130	1069.52	6.42
464.53	245160	1090.75	6.55
464.54	147100	1055.29	6.33
464.6	49030	999.13	6

System: diethylene glycol; phases: Liquid
Property: Viscosity, Pa*s (Liquid); method: Falling or rolling sphere viscometry
Temperature, K	Pressure, kPa	Viscosity, Pa*s	uncertainty
293.15	98	0.03652	0.0015
293.15	49030	0.05272	0.00213
293.15	98060	0.07416	0.00313
293.15	147100	0.1026	0.0047
293.15	196130	0.1399	0.0072
293.15	245160	0.1873	0.0107
298.15	98	0.02836	0.00116
298.15	49030	0.04036	0.00165
298.15	98060	0.05652	0.00229
298.15	147100	0.07716	0.00328
298.15	196130	0.1038	0.0048
298.15	245160	0.1383	0.0071
312.6	98	0.01525	0.00062
312.62	49030	0.02104	0.00086
312.63	98060	0.0282	0.00116
312.67	147100	0.03714	0.00152
312.71	196130	0.04829	0.00198
312.75	245160	0.06207	0.00255
329.28	98	0.008458	0.000346
329.33	98060	0.01473	0.0006
329.33	196130	0.02382	0.00098
329.33	245160	0.02961	0.00121
329.38	49030	0.01129	0.00046
329.38	147100	0.01883	0.00077
344.99	98	0.00534	0.000218
345.2	49030	0.007062	0.000289
345.38	98060	0.008969	0.000367
345.47	147100	0.01123	0.00046
345.61	196130	0.01381	0.00057
345.78	245160	0.01675	0.00068
349.77	98	0.004809	0.000196
350.06	49030	0.00625	0.000255
350.13	147100	0.009866	0.000402
350.16	98060	0.007904	0.000322
350.4	196130	0.01204	0.00049
366.77	98	0.003231	0.000132
367.13	49030	0.004124	0.000168
367.26	147100	0.006331	0.000258
367.3	98060	0.005145	0.00021
367.37	196130	0.007607	0.00031
367.61	245160	0.009086	0.000371
413.65	98	0.001409	5.7e-05
413.8	49030	0.00178	7.3e-05
413.93	98060	0.002153	8.8e-05
414.01	147100	0.002554	0.000104
414.09	196130	0.002987	0.000122
414.29	245160	0.003474	0.000142
463.94	98060	0.001218	5e-05
463.99	49030	0.001002	4.1e-05
464.05	98	0.000789	3.2e-05
464.09	147100	0.001432	5.8e-05
464.2	196130	0.001655	6.7e-05
464.37	245160	0.001879	7.7e-05

System: diethylene glycol; phases: Liquid
Property: Mass density, kg/m3 (Liquid); method: Buoyancy - hydrostatic balance
Temperature, K	Pressure, kPa	Mass density, kg/m3	uncertainty
293.15	98	1117.04	6.7
293.15	49030	1137.67	6.83
293.15	98060	1158.16	6.95
293.15	147100	1171	7.03
293.15	196130	1184.89	7.11
293.15	245160	1196.63	7.18
298.15	98	1114.02	6.68
298.15	49030	1135.41	6.81
298.15	98060	1155.68	6.93
298.15	147100	1168.88	7.01
298.15	196130	1182.6	7.1
298.15	245160	1194.5	7.17
312.6	98	1104.9	6.63
312.62	49030	1128.43	6.77
312.63	98060	1148.18	6.89
312.67	147100	1162.46	6.98
312.71	196130	1175.84	7.06
312.75	245160	1188.18	7.13
329.28	98	1093.62	6.56
329.33	98060	1138.99	6.83
329.33	196130	1167.96	7.01
329.33	245160	1180.84	7.09
329.38	49030	1119.54	6.72
329.38	147100	1154.56	6.93
344.99	98	1082.27	6.49
345.2	49030	1110.34	6.66
345.38	98060	1129.61	6.78
345.47	147100	1146.46	6.88
345.61	196130	1160.06	6.96
345.78	245160	1173.38	7.04
349.77	98	1078.67	6.47
350.06	49030	1107.36	6.64
350.13	147100	1144.02	6.86
350.16	98060	1126.71	6.76
350.4	196130	1157.71	6.95
366.77	98	1065.35	6.39
367.13	49030	1096.31	6.58
367.26	147100	1134.7	6.81
367.3	98060	1115.94	6.7
367.37	196130	1149.25	6.9
367.61	245160	1163.2	6.98
413.65	98	1024.3	6.15
413.8	49030	1061.47	6.37
413.93	98060	1083.55	6.5
414.01	147100	1106.4	6.64
414.09	196130	1124.99	6.75
414.29	245160	1140.38	6.84
463.94	98060	1043.8	6.26
463.99	49030	1016.46	6.1
464.05	98	973.11	5.84
464.09	147100	1071.5	6.43
464.2	196130	1097.41	6.59
464.37	245160	1114.3	6.69

System: triethylene glycol; phases: Liquid
Property: Viscosity, Pa*s (Liquid); method: Falling or rolling sphere viscometry
Temperature, K	Pressure, kPa	Viscosity, Pa*s	uncertainty
298.15	98	0.03682	0.00153
298.15	49030	0.05523	0.00226
298.15	98060	0.08029	0.00348
298.15	147100	0.1144	0.0055
298.15	196130	0.1606	0.0087
298.15	245160	0.2218	0.0136
312.96	98	0.01903	0.00079
313.05	49030	0.02742	0.00114
313.1	98060	0.03828	0.00159
313.18	147100	0.0525	0.00215
313.25	196130	0.07068	0.00299
313.26	245160	0.09399	0.00427
334.96	98	0.009002	0.000374
335.11	49030	0.01245	0.00052
335.14	98060	0.0167	0.00069
335.2	147100	0.02203	0.00092
335.25	196130	0.02848	0.00119
335.26	245160	0.03637	0.00152
349.25	98	0.005945	0.000246
349.94	196130	0.01753	0.00073
349.98	49030	0.008061	0.000334
349.98	98060	0.01066	0.00044
349.99	245160	0.02184	0.00091
350.03	147100	0.01375	0.00057
364.44	98	0.004131	0.000171
364.44	49030	0.005537	0.000229
364.72	98060	0.007149	0.000296
365.03	147100	0.009021	0.000373
365.07	196130	0.01124	0.00046
365.2	245160	0.0138	0.00057
413.73	98	0.001679	6.9e-05
414	49030	0.002179	9e-05
414.15	98060	0.002836	0.000117
414.27	147100	0.00332	0.000137
414.3	196130	0.003995	0.000165
414.43	245160	0.004485	0.000186
462.25	98	0.000997	4.1e-05
462.26	49030	0.001303	5.4e-05
462.32	98060	0.001614	6.7e-05
462.41	147100	0.001941	8e-05
462.45	196130	0.0023	9.5e-05
462.58	245160	0.002678	0.000111

System: triethylene glycol; phases: Liquid
Property: Mass density, kg/m3 (Liquid); method: Buoyancy - hydrostatic balance
Temperature, K	Pressure, kPa	Mass density, kg/m3	uncertainty
298.15	98	1119.75	6.74
298.15	49030	1143.46	6.88
298.15	98060	1161.38	6.99
298.15	147100	1175.25	7.07
298.15	196130	1189.31	7.16
298.15	245160	1200.31	7.23
312.96	98	1109.61	6.68
313.05	49030	1134.18	6.83
313.1	98060	1152.38	6.94
313.18	147100	1166.44	7.02
313.25	196130	1180.35	7.11
313.26	245160	1191.47	7.17
334.96	98	1093.69	6.58
335.11	49030	1119.52	6.74
335.14	98060	1138.49	6.85
335.2	147100	1153.34	6.94
335.25	196130	1167.46	7.03
335.26	245160	1178.87	7.1
349.25	98	1082.8	6.52
349.94	196130	1158.94	6.98
349.98	49030	1109.01	6.67
349.98	98060	1128.74	6.79
349.99	245160	1170.6	7.05
350.03	147100	1144.4	6.89
364.44	98	1070.74	6.44
364.44	49030	1098.31	6.61
364.72	98060	1118.72	6.73
365.03	147100	1135.26	6.83
365.07	196130	1150.26	6.92
365.2	245160	1162.2	7
413.73	98	1028.27	6.19
414	49030	1058.03	6.37
414.15	98060	1082.77	6.51
414.27	147100	1104.57	6.65
414.3	196130	1122.57	6.76
414.43	245160	1136	6.84
462.25	98	981.42	5.9
462.26	49030	1013.43	6.1
462.32	98060	1044.24	6.28
462.41	147100	1073.54	6.46
462.45	196130	1096.35	6.6
462.58	245160	1111.83	6.69

System: 1,2-ethanediol + diethylene glycol; phases: Liquid
Fixed: Mass fraction of 1,2-ethanediol = 0.5
Property: Viscosity, Pa*s (Liquid); method: Falling or rolling sphere viscometry
Temperature, K	Pressure, kPa	Viscosity, Pa*s	uncertainty
298.15	98	0.02112	0.00086
298.15	49030	0.02823	0.00115
298.15	98060	0.03695	0.0015
298.15	196130	0.06047	0.00245
322.33	49030	0.01074	0.00044
322.34	98	0.008316	0.00034
332.21	196130	0.02076	0.00085
332.33	98060	0.01357	0.00055
353.8	196130	0.007683	0.000314
353.83	98	0.003488	0.000142
353.87	49030	0.004407	0.00018
354.1	98060	0.005334	0.000218
392.87	98	0.001641	6.7e-05
393.06	49030	0.001986	8.1e-05
393.3	98060	0.00236	9.6e-05
393.6	196130	0.003232	0.000132
435.93	49030	0.00109	4.4e-05
435.98	98060	0.001293	5.3e-05
436.08	98	0.000885	3.6e-05
436.13	196130	0.001731	7e-05
462.52	98060	0.000989	4e-05
462.54	196130	0.001313	5.3e-05
462.73	49030	0.000791	3.2e-05
462.75	98	0.000671	2.7e-05

System: 1,2-ethanediol + diethylene glycol; phases: Liquid
Fixed: Mass fraction of 1,2-ethanediol = 0.5
Property: Mass density, kg/m3 (Liquid); method: Buoyancy - hydrostatic balance
Temperature, K	Pressure, kPa	Mass density, kg/m3	uncertainty
298.15	98	1112.21	6.68
298.15	49030	1135.06	6.81
298.15	98060	1151.37	6.91
298.15	196130	1178.94	7.08
322.33	49030	1121.67	6.73
322.34	98	1097.38	6.59
332.21	196130	1162.18	6.98
332.33	98060	1132.91	6.8
353.8	196130	1150.15	6.91
353.83	98	1075.19	6.46
353.87	49030	1101.62	6.61
354.1	98060	1119.74	6.72
392.87	98	1043.14	6.26
393.06	49030	1072.66	6.44
393.3	98060	1093.17	6.56
393.6	196130	1126.12	6.76
435.93	49030	1035.82	6.22
435.98	98060	1060.12	6.36
436.08	98	1001.82	6.02
436.13	196130	1097.25	6.59
462.52	98060	1037.39	6.23
462.54	196130	1077.67	6.47
462.73	49030	1011.05	6.07
462.75	98	973.24	5.84

System: 1,2-ethanediol + triethylene glycol; phases: Liquid
Fixed: Mass fraction of 1,2-ethanediol = 0.5
Property: Viscosity, Pa*s (Liquid); method: Falling or rolling sphere viscometry
Temperature, K	Pressure, kPa	Viscosity, Pa*s	uncertainty
298.13	98	0.02624	0.00107
298.15	49030	0.03589	0.00147
298.15	98060	0.04805	0.00197
298.15	196130	0.08226	0.00355
322	196130	0.02705	0.00111
322.25	98060	0.01716	0.0007
322.32	49030	0.01334	0.00055
322.36	98	0.01013	0.00042
355.34	98	0.003999	0.000164
355.56	49030	0.005082	0.000208
355.67	98060	0.006302	0.000258
355.76	196130	0.009251	0.00038
392.2	98	0.001946	8e-05
392.33	49030	0.002418	9.9e-05
392.39	98060	0.002907	0.000119
392.77	196130	0.004045	0.000166
434.54	98060	0.001581	6.5e-05
434.56	49030	0.00133	5.4e-05
434.59	98	0.001058	4.3e-05
434.7	196130	0.002158	8.8e-05
462.27	196130	0.001616	6.6e-05
462.4	49030	0.000996	4.1e-05
462.47	98060	0.001196	4.9e-05
462.61	98	0.000705	2.9e-05

System: 1,2-ethanediol + triethylene glycol; phases: Liquid
Fixed: Mass fraction of 1,2-ethanediol = 0.5
Property: Mass density, kg/m3 (Liquid); method: Buoyancy - hydrostatic balance
Temperature, K	Pressure, kPa	Mass density, kg/m3	uncertainty
298.13	98	1115.1	6.7
298.15	49030	1136.47	6.83
298.15	98060	1152.73	6.92
298.15	196130	1180.8	7.09
322	196130	1169.4	7.02
322.25	98060	1139.05	6.84
322.32	49030	1121.83	6.74
322.36	98	1101.75	6.62
355.34	98	1079	6.48
355.56	49030	1099.04	6.6
355.67	98060	1118.11	6.72
355.76	196130	1151.43	6.92
392.2	98	1047.37	6.29
392.33	49030	1070.25	6.43
392.39	98060	1092.45	6.56
392.77	196130	1129.25	6.78
434.54	98060	1059.58	6.36
434.56	49030	1032.55	6.2
434.59	98	1002.88	6.02
434.7	196130	1101.01	6.61
462.27	196130	1080.63	6.49
462.4	49030	1004.97	6.04
462.47	98060	1035.79	6.22
462.61	98	968.72	5.82

System: diethylene glycol + triethylene glycol; phases: Liquid
Fixed: Mass fraction of diethylene glycol = 0.5
Property: Viscosity, Pa*s (Liquid); method: Falling or rolling sphere viscometry
Temperature, K	Pressure, kPa	Viscosity, Pa*s	uncertainty
298.15	98	0.0324	0.00133
298.15	49030	0.04805	0.00197
298.15	98060	0.06897	0.00287
298.15	196130	0.1349	0.0068
322.18	196130	0.03919	0.00162
322.32	98060	0.02233	0.00092
322.38	49030	0.01639	0.00067
322.43	98	0.01171	0.00048
355.15	98	0.004468	0.000183
355.59	49030	0.005935	0.000244
355.77	98060	0.007663	0.000315
355.95	196130	0.0121	0.0005
391.02	98	0.002179	8.9e-05
391.29	49030	0.002772	0.000114
391.39	98060	0.003484	0.000143
391.57	196130	0.005188	0.000213
432.13	98	0.001172	4.8e-05
432.65	98060	0.001884	7.7e-05
432.68	196130	0.002658	0.000109
432.76	49030	0.00151	6.2e-05
472.77	196130	0.001747	7.2e-05
472.82	98060	0.001236	5.1e-05
473.06	49030	0.001008	4.1e-05
473.1	98	0.000716	2.9e-05

System: diethylene glycol + triethylene glycol; phases: Liquid
Fixed: Mass fraction of diethylene glycol = 0.5
Property: Mass density, kg/m3 (Liquid); method: Buoyancy - hydrostatic balance
Temperature, K	Pressure, kPa	Mass density, kg/m3	uncertainty
298.15	98	1116.28	6.71
298.15	49030	1140.16	6.85
298.15	98060	1157.54	6.95
298.15	196130	1186.23	7.13
322.18	196130	1172.01	7.04
322.32	98060	1143.4	6.87
322.38	49030	1125.8	6.76
322.43	98	1104.5	6.63
355.15	98	1083.98	6.51
355.59	49030	1103.74	6.63
355.77	98060	1122.4	6.74
355.95	196130	1151.5	6.92
391.02	98	1055.33	6.34
391.29	49030	1076.96	6.47
391.39	98060	1098.19	6.6
391.57	196130	1129.2	6.78
432.13	98	1014.59	6.09
432.65	98060	1067.76	6.41
432.68	196130	1102.63	6.62
432.76	49030	1041.87	6.26
472.77	196130	1075.84	6.46
472.82	98060	1035.69	6.22
473.06	49030	1003.66	6.03
473.1	98	965.58	5.8

System: 1,2-ethanediol + diethylene glycol + triethylene glycol; phases: Liquid
Fixed: Mass fraction of 1,2-ethanediol = 0.333
Fixed: Mass fraction of diethylene glycol = 0.333
Property: Viscosity, Pa*s (Liquid); method: Falling or rolling sphere viscometry
Temperature, K	Pressure, kPa	Viscosity, Pa*s	uncertainty
298.15	98	0.0256	0.00105
298.15	49030	0.0357	0.00146
298.15	98060	0.04821	0.00197
298.15	196130	0.08529	0.00371
322.06	196130	0.02781	0.00114
322.18	98060	0.01702	0.0007
322.19	49030	0.01321	0.00054
322.25	98	0.009901	0.000406
354.72	98	0.003941	0.000161
354.8	196130	0.009528	0.00039
354.99	49030	0.005047	0.000206
355.03	98060	0.006342	0.00026
392.24	98	0.001884	7.7e-05
392.47	49030	0.00233	9.5e-05
392.76	98060	0.002824	0.000115
392.94	196130	0.004006	0.000164
434.46	98060	0.001585	6.5e-05
434.52	98	0.00103	4.2e-05
434.61	49030	0.001297	5.3e-05
434.68	196130	0.002134	8.7e-05
460.87	196130	0.00162	6.6e-05
461.04	98	0.000733	3e-05
461.07	49030	0.000988	4e-05
461.08	98060	0.001193	4.9e-05

System: 1,2-ethanediol + diethylene glycol + triethylene glycol; phases: Liquid
Fixed: Mass fraction of 1,2-ethanediol = 0.333
Fixed: Mass fraction of diethylene glycol = 0.333
Property: Mass density, kg/m3 (Liquid); method: Buoyancy - hydrostatic balance
Temperature, K	Pressure, kPa	Mass density, kg/m3	uncertainty
298.15	98	1116.11	6.71
298.15	49030	1136.73	6.83
298.15	98060	1150.84	6.91
298.15	196130	1181.11	7.1
322.06	196130	1169.14	7.02
322.18	98060	1140.96	6.85
322.19	49030	1124.25	6.75
322.25	98	1103.17	6.63
354.72	98	1081.3	6.5
354.8	196130	1151.36	6.92
354.99	49030	1103.83	6.63
355.03	98060	1123.56	6.75
392.24	98	1049.66	6.31
392.47	49030	1075.71	6.46
392.76	98060	1098.01	6.6
392.94	196130	1128.64	6.78
434.46	98060	1062.85	6.39
434.52	98	1005.85	6.04
434.61	49030	1038.01	6.24
434.68	196130	1101.28	6.62
460.87	196130	1082.79	6.51
461.04	98	973.96	5.85
461.07	49030	1011.05	6.08
461.08	98060	1036.61	6.23
