Measured thermophysical data. Experimental vapor pressures and thermodynamic models of perfluorocarbons PP80 and PP90
Source: Fluid Phase Equilib., 2014, 10.1016/j.fluid.2014.02.027
Compound 1: perfluoro-2-methyl-3-ethylpentane, C8F18, InChI=1S/C8F18/c9-1(3(11,12)7(21,22)23,4(13,14)8(24,25)26)2(10,5(15,16)17)6(18,19)20, purity 95%
Compound 2: 1,1,1,2,2,3,4,5,5,5-decafluoro-3-[1,2,2,2-tetrafluoro-1-(trifluoromethyl)ethyl]-4-(trifluoromethyl)pentane, C9F20, InChI=1S/C9F20/c10-1(4(13,14)9(27,28)29,2(11,5(15,16)17)6(18,19)20)3(12,7(21,22)23)8(24,25)26, purity 99.5%

System: perfluoro-2-methyl-3-ethylpentane; phases: Liquid, Gas
Property: Critical temperature, K (Liquid); method: Visual observation in an unstirred cell
Critical temperature, K	uncertainty
507.12	0.6

System: perfluoro-2-methyl-3-ethylpentane; phases: Liquid, Gas
Property: Critical pressure, kPa (Liquid); method: Direct measurement
Critical pressure, kPa	uncertainty
1685	14

System: perfluoro-2-methyl-3-ethylpentane; phases: Liquid, Gas
Property: Vapor or sublimation pressure, kPa (Liquid); method: Closed cell (Static) method
Temperature, K	Vapor or sublimation pressure, kPa	uncertainty
358.2	59	6
368.19	82	6
378.2	111	6
388.17	146	6
398.19	191	6
408.13	245	6
418.15	312	6
428.16	391	6
438.11	484	7
448.07	593	7
458.05	720	7
468	866	8
473	947	8
477.98	1034	8
482.95	1127	8
487.89	1225	9
492.92	1332	9
497.89	1447	10
502.9	1571	10

System: 1,1,1,2,2,3,4,5,5,5-decafluoro-3-[1,2,2,2-tetrafluoro-1-(trifluoromethyl)ethyl]-4-(trifluoromethyl)pentane; phases: Liquid, Gas
Property: Vapor or sublimation pressure, kPa (Liquid); method: Closed cell (Static) method
Temperature, K	Vapor or sublimation pressure, kPa	uncertainty
364.58	35	6
368.2	40	6
373.47	48	6
378.29	56	6
388.47	77	6
398.2	103	6
408.48	137	6
418.26	176	6
428.22	226	6
438.31	286	6
448.23	357	6
458.16	438	6
468.16	536	6
478.24	649	6
488.03	778	6
498.02	928	6
503.12	1014	6
507.94	1104	6
