Measured thermophysical data. A group contribution method for the influence of the temperature in the viscosity of magnetic ionic liquids
Source: Fluid Phase Equilib., 2013, 10.1016/j.fluid.2013.08.031
Compound 1: tris(trihexyltetradecylphosphonium) hexachlorogadolinate, C96H204Cl6GdP3, InChI=1S/3C32H68P.6ClH.Gd/c3*1-5-9-13-17-18-19-20-21-22-23-24-28-32-33(29-25-14-10-6-2,30-26-15-11-7-3)31-27-16-12-8-4;;;;;;;/h3*5-32H2,1-4H3;6*1H;/q3*+1;;;;;;;+3/p-6
Compound 2: bis(trihexyltetradecylphosphonium) tetrachloromanganate, C64H136Cl4MnP2, InChI=1S/2C32H68P.4ClH.Mn/c2*1-5-9-13-17-18-19-20-21-22-23-24-28-32-33(29-25-14-10-6-2,30-26-15-11-7-3)31-27-16-12-8-4;;;;;/h2*5-32H2,1-4H3;4*1H;/q2*+1;;;;;+2/p-4
Compound 3: trihexyltetradecylphosphonium tetrachloroferrate, C32H68Cl4FeP, InChI=1S/C32H68P.4ClH.Fe/c1-5-9-13-17-18-19-20-21-22-23-24-28-32-33(29-25-14-10-6-2,30-26-15-11-7-3)31-27-16-12-8-4;;;;;/h5-32H2,1-4H3;4*1H;/q+1;;;;;+3/p-4
Compound 4: bis(trihexyltetradecylphosphonium) tetrachlorocobaltate, C64H136Cl4CoP2, InChI=1S/2C32H68P.4ClH.Co/c2*1-5-9-13-17-18-19-20-21-22-23-24-28-32-33(29-25-14-10-6-2,30-26-15-11-7-3)31-27-16-12-8-4;;;;;/h2*5-32H2,1-4H3;4*1H;/q2*+1;;;;;+2/p-4

System: tris(trihexyltetradecylphosphonium) hexachlorogadolinate; phases: Liquid
Fixed: Pressure, kPa = 101.325
Property: Viscosity, Pa*s (Liquid); method: Cone and plate viscometry
Temperature, K	Viscosity, Pa*s	uncertainty
293.15	28.23	4.367
298.15	18.39	2.741
303.15	13.01	1.871
323.15	2.98	0.376
373.15	0.29	0.032

System: tris(trihexyltetradecylphosphonium) hexachlorogadolinate; phases: Liquid
Fixed: Pressure, kPa = 101.325
Property: Mass density, kg/m3 (Liquid); method: Pycnometric method
Temperature, K	Mass density, kg/m3	uncertainty
293.15	983	10
298.15	981	10
303.15	979	10

System: bis(trihexyltetradecylphosphonium) tetrachloromanganate; phases: Liquid
Fixed: Pressure, kPa = 101.325
Property: Viscosity, Pa*s (Liquid); method: Cone and plate viscometry
Temperature, K	Viscosity, Pa*s	uncertainty
293.15	112.3	19.61
298.15	75.23	12.729
303.15	41.56	6.643
323.15	13.97	2.021
373.15	0.92	0.117

System: bis(trihexyltetradecylphosphonium) tetrachloromanganate; phases: Liquid
Fixed: Pressure, kPa = 101.325
Property: Mass density, kg/m3 (Liquid); method: Pycnometric method
Temperature, K	Mass density, kg/m3	uncertainty
293.15	956	10
298.15	949	10
303.15	943	9

System: trihexyltetradecylphosphonium tetrachloroferrate; phases: Liquid
Fixed: Pressure, kPa = 101.325
Property: Viscosity, Pa*s (Liquid); method: Cone and plate viscometry
Temperature, K	Viscosity, Pa*s	uncertainty
293.15	0.79	0.089
298.15	0.65	0.072
303.15	0.52	0.057
323.15	0.23	0.024
373.15	0.044	0.005

System: trihexyltetradecylphosphonium tetrachloroferrate; phases: Liquid
Fixed: Pressure, kPa = 101.325
Property: Mass density, kg/m3 (Liquid); method: Pycnometric method
Temperature, K	Mass density, kg/m3	uncertainty
293.15	1012	10
298.15	1008	10
303.15	1004	10

System: bis(trihexyltetradecylphosphonium) tetrachlorocobaltate; phases: Liquid
Fixed: Pressure, kPa = 101.325
Property: Viscosity, Pa*s (Liquid); method: Cone and plate viscometry
Temperature, K	Viscosity, Pa*s	uncertainty
293.15	123.5	21.74
298.15	83.45	14.258
303.15	40.25	6.419
323.15	15.36	2.24
373.15	11.05	1.563

System: bis(trihexyltetradecylphosphonium) tetrachlorocobaltate; phases: Liquid
Fixed: Pressure, kPa = 101.325
Property: Mass density, kg/m3 (Liquid); method: Pycnometric method
Temperature, K	Mass density, kg/m3	uncertainty
293.15	965	10
298.15	962	10
303.15	959	10
