Measured thermophysical data. Gas solubilities of carbon dioxide in methanol, acetone, mixtures of methanol and water, and mixtures of methanol and acetone
Source: Fluid Phase Equilib., 2018, 10.1016/j.fluid.2017.12.004
Compound 1: carbon dioxide, CO2, InChI=1S/CO2/c2-1-3
Compound 2: methanol, CH4O, InChI=1S/CH4O/c1-2/h2H,1H3, purity 99.9%
Compound 3: water, H2O, InChI=1S/H2O/h1H2, purity 99.8%
Compound 4: acetone, C3H6O, InChI=1S/C3H6O/c1-3(2)4/h1-2H3, purity 99.8%

System: carbon dioxide + methanol; phases: Liquid, Gas
Property: Mole fraction of carbon dioxide (Liquid); method: Chromatography
Temperature, K	Pressure, kPa	Mole fraction of carbon dioxide	uncertainty
258.2	465	0.0736	0.0095
258.2	643	0.112	0.0136
258.2	824	0.1551	0.0174
258.2	1044	0.1996	0.0202
258.2	1303	0.2632	0.0245
258.2	1430	0.3014	0.0351
258.2	1733	0.3981	0.0331
258.2	1839	0.4656	0.045
258.2	2018	0.5718	0.0366
258.2	2121	0.6824	0.0413
258.2	2208	0.823	0.0403
272.9	438	0.0459	0.0058
272.9	733	0.0803	0.0093
272.9	1013	0.1159	0.013
272.9	1303	0.1623	0.0172
272.9	1601	0.2081	0.0233
272.9	1963	0.2738	0.0251
272.9	2370	0.3497	0.033
272.9	2702	0.4587	0.0326
272.9	2985	0.5597	0.0361
272.9	3205	0.7196	0.0387
272.9	3272	0.8024	0.0321
288	472	0.0341	0.0045
288	791	0.0587	0.007
288	1119	0.0921	0.0104
288	1460	0.1236	0.0134
288	1865	0.1656	0.0173
288	1921	0.1637	0.0175
288	2490	0.2359	0.0222
288	3043	0.3046	0.0266
288	3605	0.4052	0.0306
288	4146	0.5317	0.0477
288	4597	0.7407	0.0338
298.2	508	0.0291	0.0036
298.2	1091	0.0662	0.0078
298.2	1666	0.1187	0.0135
298.2	2229	0.1604	0.0167
298.2	2838	0.2088	0.0206
298.2	3431	0.2721	0.0245
298.2	4019	0.3494	0.0284
298.2	4681	0.4496	0.0327
298.2	5238	0.5623	0.0313
298.2	5547	0.658	0.0374
298.2	5734	0.7494	0.0276

System: carbon dioxide + methanol; phases: Gas, Liquid
Property: Vapor or sublimation pressure, kPa (Gas); method: Closed cell (Static) method
Temperature, K	Mole fraction of carbon dioxide	Vapor or sublimation pressure, kPa	uncertainty
258.8	0.021	144	72
258.8	0.0781	473	103
273.1	0.0182	170	102
273.1	0.0594	520	148
273.1	0.0907	767	198
288.1	0.02	223	485
288.1	0.0266	410	533
288.1	0.0414	683	534
288.1	0.0497	822	530
288.1	0.0602	985	550
298.3	0.0112	188	168
298.3	0.0236	379	221
298.3	0.0444	690	306

System: carbon dioxide + methanol + water; phases: Liquid, Gas
Property: Mole fraction of carbon dioxide (Liquid); method: Chromatography
Temperature, K	Pressure, kPa	Solvent: Amount ratio of component to other component of binary solvent of water	Mole fraction of carbon dioxide	uncertainty
273	557	0.05	0.0465	0.0081
273	911	0.05	0.0858	0.014
273	1283	0.05	0.1331	0.0206
273	1669	0.05	0.1692	0.0254
273	2035	0.05	0.2244	0.0313
258.3	523	0.1	0.0635	0.0119
258.3	852	0.1	0.1054	0.0192
258.3	1109	0.1	0.1417	0.0235
258.3	1384	0.1	0.1918	0.0279
258.3	1694	0.1	0.2791	0.0365
258.3	1977	0.1	0.3818	0.0438
272.9	645	0.1	0.0434	0.0076
272.9	1004	0.1	0.0801	0.0132
272.9	1549	0.1	0.1254	0.0196
272.9	2188	0.1	0.2107	0.0301
272.9	2569	0.1	0.2767	0.0361
272.9	3022	0.1	0.4121	0.0467
272.9	3354	0.1	0.5171	0.0483
258.3	653	0.2	0.0601	0.0126
258.3	818	0.2	0.0765	0.0131
258.3	1046	0.2	0.1119	0.0179
258.3	1244	0.2	0.1361	0.021
258.3	1481	0.2	0.1669	0.0249
258.3	1728	0.2	0.2124	0.03
258.3	1955	0.2	0.2714	0.0358
258.3	2134	0.2	0.3548	0.044
258.3	2256	0.2	0.5359	0.0584
273	581	0.2	0.0346	0.0061
273	1085	0.2	0.0666	0.0111
273	1525	0.2	0.0965	0.0183
273	1573	0.2	0.1015	0.0207
273	2068	0.2	0.1524	0.0277
273	2458	0.2	0.1861	0.0319
273	2603	0.2	0.1988	0.0345
273	3014	0.2	0.2935	0.0437
273	3217	0.2	0.3451	0.0464
273	3347	0.2	0.6415	0.0614
298.3	485	0.2	0.0199	0.0035
298.3	1159	0.2	0.0407	0.007
298.3	1734	0.2	0.0617	0.0108
298.3	2017	0.2	0.0753	0.0125
298.3	2528	0.2	0.0974	0.0157
298.3	3052	0.2	0.1202	0.0189
298.3	3484	0.2	0.1457	0.0224
298.3	3523	0.2	0.1441	0.0224
298.3	4078	0.2	0.1849	0.027
298.3	4538	0.2	0.2181	0.031
298.3	5005	0.2	0.2601	0.0348
298.3	5449	0.2	0.3191	0.0404

System: carbon dioxide + methanol + water; phases: Gas, Liquid
Property: Vapor or sublimation pressure, kPa (Gas); method: Closed cell (Static) method
Temperature, K	Mole fraction of carbon dioxide	Solvent: Amount ratio of component to other component of binary solvent of water	Vapor or sublimation pressure, kPa	uncertainty
273	0.0217	0.05	185	20
273	0.0419	0.05	383	20
273	0.0636	0.05	584	21
273	0.0841	0.05	772	22
273	0.112	0.05	1017	23
258.3	0.0275	0.1	194	20
258.3	0.0562	0.1	399	20
258.3	0.077	0.1	541	21
258.3	0.1105	0.1	761	22
258.3	0.1385	0.1	977	22
273	0.0157	0.1	195	20
273	0.0317	0.1	365	20
273	0.051	0.1	560	21
273	0.0754	0.1	799	22
273	0.0986	0.1	1018	23
258.3	0.0216	0.2	191	20
258.3	0.0464	0.2	412	20
258.3	0.0661	0.2	582	21
258.3	0.0884	0.2	766	22
258.3	0.1103	0.2	938	22
273.1	0.0184	0.2	213	20
273.1	0.0345	0.2	423	20
273.1	0.0474	0.2	590	21
273.1	0.0635	0.2	791	22
273.1	0.0786	0.2	975	22
298.3	0.0208	0.2	441	21
298.3	0.0339	0.2	722	21
298.3	0.0403	0.2	853	22
298.3	0.0493	0.2	1040	23

System: carbon dioxide + acetone; phases: Liquid, Gas
Property: Mole fraction of carbon dioxide (Liquid); method: Chromatography
Temperature, K	Pressure, kPa	Mole fraction of carbon dioxide	uncertainty
258.3	496	0.2202	0.0301
258.3	787	0.4042	0.04
258.3	1017	0.5154	0.0381
258.3	1265	0.634	0.0309
258.3	1518	0.7339	0.0265
258.3	1749	0.7968	0.0217
258.3	2064	0.9113	0.0204
273	653	0.2048	0.0312
273	1007	0.3246	0.0322
273	1355	0.4372	0.046
273	1735	0.572	0.032
273	2091	0.6802	0.0307
273	2442	0.7527	0.0241
273	2704	0.8035	0.0278
273	3139	0.9251	0.0108
288.1	694	0.1459	0.0167
288.1	1016	0.2342	0.0251
288.1	1402	0.3355	0.0331
288.1	1802	0.4423	0.0316
288.1	2193	0.5279	0.0328
288.1	2568	0.6187	0.0329
288.1	2950	0.6973	0.0293
288.1	3278	0.7702	0.0252
288.1	3646	0.8227	0.0187
298.2	604	0.1066	0.0129
298.2	1055	0.2099	0.0213
298.2	1494	0.2962	0.0285
298.2	1955	0.3609	0.0301
298.2	2416	0.4369	0.0317
298.2	2855	0.5159	0.0328
298.2	3481	0.6659	0.0293
298.2	3970	0.7196	0.0273
298.2	4423	0.785	0.0218
298.2	5495	0.9259	0.0093

System: carbon dioxide + acetone; phases: Gas, Liquid
Property: Vapor or sublimation pressure, kPa (Gas); method: Closed cell (Static) method
Temperature, K	Mole fraction of carbon dioxide	Vapor or sublimation pressure, kPa	uncertainty
258.4	0.1106	228	20
258.4	0.1989	414	20
258.4	0.273	577	21
258.4	0.3337	712	21
258.4	0.3831	826	22
273	0.0755	206	20
273	0.1395	405	20
273	0.1971	590	21
273	0.2536	773	22
273	0.3181	986	22
288.2	0.0713	244	20
288.2	0.1152	459	21
288.2	0.1645	673	21
288.2	0.2015	834	22
288.2	0.2463	1032	23
298.3	0.0633	256	20
298.3	0.0922	441	21
298.3	0.1375	682	21
298.3	0.1672	880	22
298.3	0.212	1075	23

System: carbon dioxide + acetone + methanol; phases: Liquid, Gas
Property: Mole fraction of carbon dioxide (Liquid); method: Chromatography
Temperature, K	Pressure, kPa	Solvent: Amount ratio of component to other component of binary solvent of acetone	Mole fraction of carbon dioxide	uncertainty
258.3	525	0.0613	0.0897	0.0107
258.3	795	0.0613	0.147	0.0157
258.3	925	0.0613	0.1801	0.0185
258.3	1327	0.0613	0.307	0.0397
258.3	1811	0.0613	0.5223	0.0477
273	509	0.0613	0.0568	0.007
273	882	0.0613	0.1118	0.0126
273	1224	0.0613	0.1803	0.0185
273	1782	0.0613	0.2698	0.0251
273	2215	0.0613	0.3832	0.0328
273	2627	0.0613	0.5034	0.0372
288.1	555	0.0613	0.0442	0.0054
288.1	1016	0.0613	0.0905	0.0115
288.1	1637	0.0613	0.1649	0.0169
288.1	2065	0.0613	0.2085	0.0205
288.1	2583	0.0613	0.2781	0.0248
288.1	3205	0.0613	0.3822	0.0289
288.1	3749	0.0613	0.5068	0.0336
298.2	534	0.0613	0.0343	0.0043
298.2	1046	0.0613	0.0718	0.0092
298.2	1535	0.0613	0.116	0.0171
298.2	2034	0.0613	0.1593	0.0164
298.2	2600	0.0613	0.2135	0.0206
298.2	3416	0.0613	0.3101	0.0259
298.2	4101	0.0613	0.4154	0.0309
298.2	4578	0.0613	0.4979	0.0319
258.3	555	0.2364	0.1264	0.012
258.3	886	0.2364	0.2111	0.0176
258.3	1290	0.2364	0.3642	0.0284
258.3	1548	0.2364	0.5048	0.0446
258.3	1807	0.2364	0.6301	0.0254
272.9	551	0.2364	0.0782	0.0078
272.9	938	0.2364	0.1533	0.0131
272.9	1370	0.2364	0.2405	0.0182
272.9	1830	0.2364	0.3639	0.0244
272.9	2418	0.2364	0.529	0.026
288.1	533	0.2364	0.0523	0.0054
288.1	1005	0.2364	0.111	0.01
288.1	1659	0.2364	0.2036	0.016
288.1	2304	0.2364	0.3112	0.0211
288.1	2872	0.2364	0.4138	0.0327
288.1	3498	0.2364	0.5607	0.0358
288.1	3913	0.2364	0.6637	0.0238
298.2	517	0.2364	0.0409	0.0044
298.2	1135	0.2364	0.1067	0.0114
298.2	1734	0.2364	0.1671	0.0156
298.2	2333	0.2364	0.2381	0.0181
298.2	2925	0.2364	0.3197	0.0226
298.2	3574	0.2364	0.4046	0.0262
298.2	4118	0.2364	0.5221	0.0368

System: carbon dioxide + acetone + methanol; phases: Gas, Liquid
Property: Vapor or sublimation pressure, kPa (Gas); method: Closed cell (Static) method
Temperature, K	Mole fraction of carbon dioxide	Solvent: Amount ratio of component to other component of binary solvent of acetone	Vapor or sublimation pressure, kPa	uncertainty
258.3	0.0399	0.0613	209	20
258.3	0.0795	0.0613	418	20
258.3	0.1147	0.0613	595	21
258.3	0.1559	0.0613	796	22
258.3	0.1836	0.0613	953	22
273	0.0306	0.0613	218	20
273	0.0559	0.0613	421	20
273	0.0833	0.0613	631	21
273	0.1133	0.0613	856	22
273	0.1398	0.0613	1049	23
288.2	0.0242	0.0613	212	20
288.2	0.0419	0.0613	422	20
288.2	0.0621	0.0613	651	21
288.2	0.0796	0.0613	837	22
288.2	0.0997	0.0613	1047	23
298.3	0.0202	0.0613	219	20
298.3	0.0377	0.0613	477	21
298.3	0.0551	0.0613	714	21
298.3	0.0693	0.0613	897	22
298.3	0.0946	0.0613	1221	24
258.3	0.0455	0.2364	206	20
258.3	0.0906	0.2364	407	20
258.3	0.1356	0.2364	602	21
258.3	0.1803	0.2364	783	22
258.3	0.2175	0.2364	927	22
273	0.0365	0.2364	223	20
273	0.0663	0.2364	421	20
273	0.0974	0.2364	620	21
273	0.1313	0.2364	834	22
273	0.1597	0.2364	1004	23
288.2	0.0353	0.2364	270	20
288.2	0.0557	0.2364	469	21
288.2	0.0711	0.2364	611	21
288.2	0.1026	0.2364	886	22
288.2	0.1259	0.2364	1086	23
298.3	0.0235	0.2364	213	20
298.3	0.0434	0.2364	461	21
298.3	0.0581	0.2364	628	21
298.3	0.0751	0.2364	815	22
298.3	0.0966	0.2364	1046	23
