Measured thermophysical data. Solubilities of several non-polar gases in mixtures water + 2,2,2-trifluoroethanol at 298.15 K and 101.33 kPa
Source: Fluid Phase Equilib., 2012, 10.1016/j.fluid.2011.11.006
Compound 1: water, H2O, InChI=1S/H2O/h1H2
Compound 2: 2,2,2-trifluoroethanol, C2H3F3O, InChI=1S/C2H3F3O/c3-2(4,5)1-6/h6H,1H2, purity 99%
Compound 3: hydrogen, H2, InChI=1S/H2/h1H, purity 99.99%
Compound 4: nitrogen, N2, InChI=1S/N2/c1-2, purity 99.998%
Compound 5: oxygen, O2, InChI=1S/O2/c1-2, purity 99.98%
Compound 6: methane, CH4, InChI=1S/CH4/h1H4, purity 99.95%
Compound 7: ethane, C2H6, InChI=1S/C2H6/c1-2/h1-2H3, purity 99%
Compound 8: ethene, C2H4, InChI=1S/C2H4/c1-2/h1-2H2, purity 99.9%
Compound 9: tetrafluoromethane, CF4, InChI=1S/CF4/c2-1(3,4)5, purity 99%
Compound 10: sulfur hexafluoride, F6S, InChI=1S/F6S/c1-7(2,3,4,5)6, purity 99.5%
Compound 11: carbon dioxide, CO2, InChI=1S/CO2/c2-1-3, purity 99.998%

System: 2,2,2-trifluoroethanol + hydrogen + water; phases: Liquid, Gas
Fixed: Temperature, K = 298.15
Fixed: Pressure, kPa = 101.33
Property: Mole fraction of hydrogen (Liquid); method: Saturation method
Solvent: Mole fraction of 2,2,2-trifluoroethanol	Mole fraction of hydrogen	uncertainty
0.0287	1.377e-05	2.8e-07
0.0594	1.548e-05	3.1e-07
0.0998	2.069e-05	4.1e-07
0.1449	2.75e-05	5.5e-07
0.196	3.398e-05	6.8e-07
0.2676	5.152e-05	1.03e-06
0.3624	7.291e-05	1.46e-06
0.4895	0.0001051	2.1e-06
0.6965	0.0001642	3.28e-06

System: 2,2,2-trifluoroethanol + nitrogen + water; phases: Liquid, Gas
Fixed: Temperature, K = 298.15
Fixed: Pressure, kPa = 101.33
Property: Mole fraction of nitrogen (Liquid); method: Saturation method
Solvent: Mole fraction of 2,2,2-trifluoroethanol	Mole fraction of nitrogen	uncertainty
0.0292	1.173e-05	2.3e-07
0.0622	1.52e-05	3e-07
0.0993	2.34e-05	4.7e-07
0.1442	3.64e-05	7.3e-07
0.1926	5.103e-05	1.02e-06
0.2679	8.79e-05	1.76e-06
0.3611	0.0001315	2.63e-06
0.4815	0.0001995	3.99e-06
0.6953	0.0003543	7.09e-06

System: 2,2,2-trifluoroethanol + water + oxygen; phases: Liquid, Gas
Fixed: Temperature, K = 298.15
Fixed: Pressure, kPa = 101.33
Property: Mole fraction of oxygen (Liquid); method: Saturation method
Solvent: Mole fraction of 2,2,2-trifluoroethanol	Mole fraction of oxygen	uncertainty
0.0289	2.355e-05	4.7e-07
0.0612	2.869e-05	5.7e-07
0.0984	4.099e-05	8.2e-07
0.1452	6.143e-05	1.23e-06
0.1947	8.303e-05	1.66e-06
0.2682	0.0001318	2.64e-06
0.3596	0.0001966	3.93e-06
0.4882	0.0003016	6.03e-06
0.6733	0.0004843	9.69e-06

System: methane + 2,2,2-trifluoroethanol + water; phases: Liquid, Gas
Fixed: Temperature, K = 298.15
Fixed: Pressure, kPa = 101.33
Property: Mole fraction of methane (Liquid); method: Saturation method
Solvent: Mole fraction of 2,2,2-trifluoroethanol	Mole fraction of methane	uncertainty
0.0285	2.556e-05	5.1e-07
0.0605	3.073e-05	6.1e-07
0.0985	4.738e-05	9.5e-07
0.144	7.323e-05	1.46e-06
0.1887	0.0001021	2.04e-06
0.2683	0.0001692	3.38e-06
0.3568	0.0002553	5.11e-06
0.467	0.0003758	7.52e-06
0.6777	0.0006655	1.331e-05

System: ethane + 2,2,2-trifluoroethanol + water; phases: Liquid, Gas
Fixed: Temperature, K = 298.15
Fixed: Pressure, kPa = 101.33
Property: Mole fraction of ethane (Liquid); method: Saturation method
Solvent: Mole fraction of 2,2,2-trifluoroethanol	Mole fraction of ethane	uncertainty
0.0282	3.543e-05	7.1e-07
0.0617	4.807e-05	9.6e-07
0.0997	9.025e-05	1.81e-06
0.1421	0.0001599	3.2e-06
0.1943	0.0002706	5.41e-06
0.268	0.0004625	9.25e-06
0.362	0.0007638	1.528e-05
0.4991	0.001289	2.578e-05
0.686	0.002291	4.582e-05

System: ethene + 2,2,2-trifluoroethanol + water; phases: Liquid, Gas
Fixed: Temperature, K = 298.15
Fixed: Pressure, kPa = 101.33
Property: Mole fraction of ethene (Liquid); method: Saturation method
Solvent: Mole fraction of 2,2,2-trifluoroethanol	Mole fraction of ethene	uncertainty
0.0298	9.558e-05	1.91e-06
0.0614	0.0001193	2.39e-06
0.099	0.0001923	3.85e-06
0.1438	0.0003137	6.27e-06
0.194	0.0004822	9.64e-06
0.264	0.0007247	1.449e-05
0.3633	0.001197	2.394e-05
0.4884	0.001848	3.696e-05
0.6995	0.003236	6.472e-05

System: tetrafluoromethane + 2,2,2-trifluoroethanol + water; phases: Liquid, Gas
Fixed: Temperature, K = 298.15
Fixed: Pressure, kPa = 101.33
Property: Mole fraction of tetrafluoromethane (Liquid); method: Saturation method
Solvent: Mole fraction of 2,2,2-trifluoroethanol	Mole fraction of tetrafluoromethane	uncertainty
0.0293	3.8e-06	8e-08
0.0614	6.17e-06	1.2e-07
0.0997	1.633e-05	3.3e-07
0.1445	3.551e-05	7.1e-07
0.1954	6.523e-05	1.3e-06
0.2685	0.0001171	2.34e-06
0.3633	0.0002036	4.07e-06
0.4942	0.0003511	7.02e-06
0.6726	0.0006402	1.28e-05

System: 2,2,2-trifluoroethanol + sulfur hexafluoride + water; phases: Liquid, Gas
Fixed: Temperature, K = 298.15
Fixed: Pressure, kPa = 101.33
Property: Mole fraction of sulfur hexafluoride (Liquid); method: Saturation method
Solvent: Mole fraction of 2,2,2-trifluoroethanol	Mole fraction of sulfur hexafluoride	uncertainty
0.0276	4.71e-06	9e-08
0.0594	8.3e-06	1.7e-07
0.0993	3.685e-05	7.4e-07
0.1442	9.568e-05	1.91e-06
0.192	0.0001781	3.56e-06
0.2637	0.0003753	7.51e-06
0.3638	0.0007058	1.412e-05
0.4638	0.001197	2.394e-05
0.694	0.002752	5.504e-05

System: 2,2,2-trifluoroethanol + carbon dioxide + water; phases: Liquid, Gas
Fixed: Temperature, K = 298.15
Fixed: Pressure, kPa = 101.33
Property: Mole fraction of carbon dioxide (Liquid); method: Saturation method
Solvent: Mole fraction of 2,2,2-trifluoroethanol	Mole fraction of carbon dioxide	uncertainty
0.0279	0.000648	1.3e-05
0.0622	0.000747	1.5e-05
0.1003	0.000998	2e-05
0.1453	0.001376	2.8e-05
0.1953	0.001917	3.8e-05
0.2669	0.0027	5.4e-05
0.3657	0.003805	7.6e-05
0.4935	0.005367	0.000107
0.7194	0.008173	0.000163
