Measured thermophysical data. Solubility of boldo leaf antioxidant components (Boldine) in high-pressure carbon dioxide
Source: Fluid Phase Equilib., 2005, 10.1016/j.fluid.2005.04.024
Compound 1: boldine, C19H21NO4, InChI=1S/C19H21NO4/c1-20-5-4-10-7-15(22)19(24-3)18-12-9-16(23-2)14(21)8-11(12)6-13(20)17(10)18/h7-9,13,21-22H,4-6H2,1-3H3
Compound 2: carbon dioxide, CO2, InChI=1S/CO2/c2-1-3

System: carbon dioxide + boldine; phases: Fluid (supercritical or subcritical phases), Crystal
Property: Mole fraction of boldine (Fluid (supercritical or subcritical phases)); method: Chromatography
Temperature, K	Pressure, kPa	Mole fraction of boldine	uncertainty
298	8600	5e-07	1e-07
298	9100	6e-07	2e-07
298	15200	9e-07	2e-07
298	19800	1e-06	2e-07
298	26300	1.8e-06	4e-07
298	29000	2.2e-06	5e-07
298	33700	2.4e-06	7e-07
298	37900	2.6e-06	7e-07
308	10100	7e-07	2e-07
308	13800	1e-06	3e-07
308	14800	9e-07	4e-07
308	19900	1.5e-06	4e-07
308	21600	2.4e-06	1e-06
308	25900	3.8e-06	8e-07
308	33000	6.8e-06	1.6e-06
308	34800	5.5e-06	1.4e-06
308	35900	7.6e-06	3.1e-06
308	37700	7.5e-06	1.8e-06
308	40900	9.3e-06	3.1e-06
313	9300	1.6e-06	9e-07
313	13000	3.3e-06	1e-06
313	16100	3.6e-06	1.2e-06
313	19000	5.2e-06	1.5e-06
313	19900	6.2e-06	1.7e-06
313	23900	7.9e-06	1.8e-06
313	25600	7e-06	1.8e-06
313	28000	9e-06	2.2e-06
313	29000	1.1e-05	2.5e-06
313	31800	1.6e-05	3.5e-06
313	33700	1.7e-05	3.7e-06
313	37700	2.1e-05	4.5e-06
313	39400	2.1e-05	4.6e-06
323	10600	1.2e-05	2.5e-06
323	15000	1.4e-05	2.9e-06
323	20400	1.8e-05	3.7e-06
323	22500	1.5e-05	3.2e-06
323	26900	2e-05	4.3e-06
323	29300	2.6e-05	5.4e-06
323	33100	2.8e-05	5.7e-06
323	36800	3.1e-05	6.5e-06
323	37900	3.2e-05	6.6e-06
333	10700	1.3e-05	2.6e-06
333	15200	1.8e-05	3.6e-06
333	18700	1.8e-05	3.6e-06
333	24700	2.4e-05	4.9e-06
333	30300	3.5e-05	7.1e-06
333	36200	5.1e-05	1.05e-05
333	37000	5.3e-05	1.09e-05
333	39200	5.9e-05	1.21e-05
