Measured thermophysical data. Liquid liquid equilibrium of ternary mixture (propargyl alcohol +water + butyl acetate)
Source: Fluid Phase Equilib., 2009, 10.1016/j.fluid.2009.04.010
Compound 1: 2-propyn-1-ol, C3H4O, InChI=1S/C3H4O/c1-2-3-4/h1,4H,3H2
Compound 2: water, H2O, InChI=1S/H2O/h1H2
Compound 3: butyl ethanoate, C6H12O2, InChI=1S/C6H12O2/c1-3-4-5-8-6(2)7/h3-5H2,1-2H3

System: 2-propyn-1-ol + butyl ethanoate + water; phases: Liquid mixture 2, Liquid mixture 1
Fixed: Pressure, kPa = 101
Property: Mass fraction of water (Liquid mixture 2); method: Chromatography
Property: Mass fraction of water (Liquid mixture 1); method: Chromatography
Property: Mass fraction of 2-propyn-1-ol (Liquid mixture 1); method: Chromatography
Temperature, K	Mass fraction of 2-propyn-1-ol	Mass fraction of water	uncertainty	Mass fraction of water	uncertainty	Mass fraction of 2-propyn-1-ol	uncertainty
291.95	0.0988	0.8939	0.0011	0.0216	0.0002	0.0868	
291.95	0.166	0.8254	0.0017	0.0398	0.0004	0.1711	
291.95	0.2124	0.7745	0.0023	0.0574	0.0006	0.2369	
291.95	0.2561	0.7264	0.0027	0.0821	0.001	0.299	
291.95	0.2946	0.6797	0.0032	0.1124	0.0011	0.3467	
291.95	0.3293	0.6328	0.0037	0.1458	0.0015	0.3854	
297.35	0.1001	0.8934	0.0011	0.0218	0.0002	0.0897	
297.35	0.1634	0.8275	0.0017	0.0416	0.0004	0.1693	
297.35	0.2138	0.7725	0.0023	0.0597	0.0006	0.2378	
297.35	0.2584	0.7228	0.0028	0.1009	0.001	0.2931	
297.35	0.2975	0.6757	0.0032	0.1145	0.0012	0.3451	
297.35	0.3331	0.6267	0.0037	0.1506	0.0015	0.3835	
303.55	0.0973	0.8941	0.0011	0.0225	0.0002	0.0872	
303.55	0.1661	0.8248	0.0018	0.042	0.0004	0.1672	
303.55	0.2209	0.7687	0.0023	0.0586	0.0006	0.2368	
303.55	0.2677	0.7127	0.0029	0.0872	0.0009	0.2933	
303.55	0.3076	0.6621	0.0034	0.1165	0.0012	0.3419	
303.55	0.3449	0.6109	0.0039	0.1566	0.0016	0.3808	
313.75	0.1017	0.8939	0.0011	0.0196	0.0002	0.0884	
313.75	0.1589	0.8377	0.0016	0.0374	0.0004	0.1734	
313.75	0.2239	0.7656	0.0023	0.0626	0.0006	0.2401	
313.75	0.2637	0.7273	0.0027	0.0936	0.0009	0.3039	
313.75	0.3047	0.6738	0.0033	0.1214	0.0012	0.3525	
313.75	0.3408	0.6241	0.0038	0.1597	0.0016	0.3879	
323.25	0.0958	0.9007	0.001	0.0248	0.0003	0.0846	
323.25	0.1661	0.829	0.0017	0.0417	0.0005	0.1634	
323.25	0.2235	0.7667	0.0023	0.0667	0.0007	0.2305	
323.25	0.2734	0.7117	0.0029	0.0923	0.001	0.2877	
323.25	0.3122	0.6596	0.0034	0.1263	0.0014	0.3397	
323.25	0.3511	0.6044	0.004	0.1709	0.0018	0.3768	
