Measured thermophysical data. Gas gas experimental interfacial tension measurement
Source: Fluid Phase Equilib., 2010, 10.1016/j.fluid.2010.05.020
Compound 1: carbon dioxide, CO2, InChI=1S/CO2/c2-1-3
Compound 2: methane, CH4, InChI=1S/CH4/h1H4

System: methane + carbon dioxide; phases: Fluid (supercritical or subcritical phases), Gas
Property: Interfacial tension, N/m (Fluid (supercritical or subcritical phases)); method: pendant drop
Temperature, K	Pressure, kPa	Interfacial tension, N/m	uncertainty
368.15	8963.18	3.6e-07	8e-08
368.15	10962.66	3.73e-06	9e-08
368.15	13031.09	6.8e-06	8e-08
368.15	16340.57	9.37e-06	7e-08
368.15	18753.74	1.068e-05	6e-08
368.15	23166.38	1.211e-05	7e-08
433.15	8963.18	3.6e-07	8e-08
433.15	10962.66	3.73e-06	1e-07
433.15	11858.98	5.81e-06	1.2e-07
433.15	13237.93	8.12e-06	8e-08
433.15	15513.2	9.83e-06	6e-08
433.15	18960.58	1.14e-05	1e-07
433.15	27579.03	1.24e-05	1e-07
433.15	34473.79	1.26e-05	1e-07
433.15	39989.59	1.24e-05	1e-07
