Measured thermophysical data. In situ Raman spectroscopic study of diffusion coefficients of methane in liquid water under high pressure and wide temperatures
Source: Fluid Phase Equilib., 2013, 10.1016/j.fluid.2013.09.051
Compound 1: water, H2O, InChI=1S/H2O/h1H2, purity 99.9%
Compound 2: methane, CH4, InChI=1S/CH4/h1H4, purity 99.99%

System: methane + water; phases: Liquid
Fixed: Mole fraction of methane = 0
Property: Binary diffusion coefficient, m2/s (Liquid); method: Time-dependent Raman spectra
Pressure, kPa	Temperature, K	Binary diffusion coefficient, m2/s	uncertainty
5000	298	1.61e-09	0.26
5000	353	4.85e-09	0.22
5000	393	8.59e-09	2.4
10000	298	1.63e-09	0.13
10000	353	5e-09	0.72
10000	393	8.7e-09	0.83
20000	273	7.02e-10	0.07
20000	298	1.64e-09	0.1
20000	313	2.39e-09	0.21
20000	353	4.98e-09	0.34
20000	393	8.68e-09	0.66
20000	433	1.25e-08	0.8
20000	473	1.71e-08	0.9
30000	298	1.6e-09	0.13
30000	353	4.79e-09	0.38
30000	393	8.45e-09	0.74
40000	298	1.62e-09	0.11
40000	353	4.8e-09	0.33
40000	393	8.08e-09	0.66
