Measured thermophysical data. Liquid-liquid equilibrium data for extractive desulfurization using 1-butyl-3-methyl imidazolium thiocyanate, n-alkane and thiophene
Source: Fluid Phase Equilib., 2018, 10.1016/j.fluid.2017.10.017
Compound 1: hexane, C6H14, InChI=1S/C6H14/c1-3-5-6-4-2/h3-6H2,1-2H3, purity 95%
Compound 2: octane, C8H18, InChI=1S/C8H18/c1-3-5-7-8-6-4-2/h3-8H2,1-2H3, purity 99%
Compound 3: decane, C10H22, InChI=1S/C10H22/c1-3-5-7-9-10-8-6-4-2/h3-10H2,1-2H3, purity 99%
Compound 4: thiophene, C4H4S, InChI=1S/C4H4S/c1-2-4-5-3-1/h1-4H, purity 99%
Compound 5: 1-butyl-3-methylimidazolium thiocyanate, C9H15N3S, InChI=1S/C8H15N2.CHNS/c1-3-4-5-10-7-6-9(2)8-10;2-1-3/h6-8H,3-5H2,1-2H3;3H/q+1;/p-1, purity 98%

System: 1-butyl-3-methylimidazolium thiocyanate + hexane + thiophene; phases: Liquid mixture 1, Liquid mixture 2
Fixed: Temperature, K = 298.15
Fixed: Pressure, kPa = 101
Property: Mole fraction of hexane (Liquid mixture 1); method: Chromatography
Property: Mole fraction of hexane (Liquid mixture 2); method: Chromatography
Property: Mole fraction of thiophene (Liquid mixture 2); method: Chromatography
Mole fraction of thiophene	Mole fraction of hexane	uncertainty	Mole fraction of hexane	uncertainty	Mole fraction of thiophene	uncertainty
0.012	0.988	0.003	0.013	0.004	0.029	
0.038	0.962	0.003	0.013	0.004	0.083	
0.054	0.946	0.003	0.012	0.004	0.105	
0.078	0.922	0.003	0.013	0.004	0.158	
0.11	0.89	0.003	0.013	0.004	0.192	
0.175	0.825	0.003	0.014	0.004	0.271	
0.245	0.755	0.003	0.011	0.004	0.325	
0.294	0.706	0.004	0.013	0.004	0.382	
0.386	0.614	0.004	0.014	0.004	0.466	

System: 1-butyl-3-methylimidazolium thiocyanate + octane + thiophene; phases: Liquid mixture 2, Liquid mixture 1
Fixed: Temperature, K = 298.15
Fixed: Pressure, kPa = 101
Property: Mole fraction of octane (Liquid mixture 2); method: Chromatography
Property: Mole fraction of thiophene (Liquid mixture 1); method: Chromatography
Property: Mole fraction of octane (Liquid mixture 1); method: Chromatography
Mole fraction of thiophene	Mole fraction of octane	uncertainty	Mole fraction of thiophene	uncertainty	Mole fraction of octane	uncertainty
0.047	0.003	0.003	0.03	0.003	0.97	
0.058	0.004	0.004	0.033	0.003	0.967	
0.084	0.004	0.004	0.051	0.003	0.949	
0.105	0.004	0.004	0.071	0.003	0.929	
0.148	0.004	0.004	0.104	0.003	0.896	
0.197	0.004	0.004	0.139	0.003	0.861	
0.27	0.005	0.004	0.186	0.003	0.814	
0.347	0.006	0.004	0.264	0.003	0.736	
0.419	0.006	0.004	0.352	0.004	0.648	
0.489	0.006	0.004	0.435	0.004	0.565	

System: 1-butyl-3-methylimidazolium thiocyanate + decane + thiophene; phases: Liquid mixture 2, Liquid mixture 1
Fixed: Temperature, K = 298.15
Fixed: Pressure, kPa = 101
Property: Mole fraction of decane (Liquid mixture 2); method: Chromatography
Property: Mole fraction of thiophene (Liquid mixture 1); method: Chromatography
Property: Mole fraction of decane (Liquid mixture 1); method: Chromatography
Mole fraction of thiophene	Mole fraction of decane	uncertainty	Mole fraction of thiophene	uncertainty	Mole fraction of decane	uncertainty
0.031	0.002	0.002	0.021	0.003	0.979	
0.043	0.002	0.002	0.03	0.01	0.97	
0.051	0.002	0.002	0.04	0.01	0.96	
0.058	0.002	0.002	0.038	0.003	0.962	
0.085	0.002	0.002	0.063	0.003	0.937	
0.103	0.002	0.002	0.073	0.003	0.927	
0.121	0.002	0.002	0.091	0.003	0.909	
0.146	0.002	0.002	0.113	0.003	0.887	
0.203	0.002	0.002	0.158	0.003	0.842	
0.253	0.002	0.002	0.197	0.003	0.803	
0.319	0.003	0.003	0.276	0.003	0.724	
0.325	0.002	0.002	0.281	0.004	0.719	
0.425	0.003	0.003	0.389	0.004	0.611	
