Measured thermophysical data. Investigation on isobaric vapor-liquid equilibrium for acetic acid + water + (n-propyl acetate or iso-butyl acetate)
Source: Fluid Phase Equilib., 2011, 10.1016/j.fluid.2011.03.006
Compound 1: acetic acid, C2H4O2, InChI=1S/C2H4O2/c1-2(3)4/h1H3,(H,3,4), purity 99.5%
Compound 2: water, H2O, InChI=1S/H2O/h1H2
Compound 3: propyl ethanoate, C5H10O2, InChI=1S/C5H10O2/c1-3-4-7-5(2)6/h3-4H2,1-2H3, purity 98.5%
Compound 4: 2-methylpropyl ethanoate, C6H12O2, InChI=1S/C6H12O2/c1-5(2)4-8-6(3)7/h5H,4H2,1-3H3, purity 98%

System: acetic acid + propyl ethanoate + water; phases: Liquid, Gas
Fixed: Pressure, kPa = 101.33
Property: Mole fraction of water (Liquid); method: Chromatography
Property: Mole fraction of water (Gas); method: Chromatography
Property: Mole fraction of acetic acid (Gas); method: Chromatography
Temperature, K	Mole fraction of acetic acid	Mole fraction of water	uncertainty	Mole fraction of water	uncertainty	Mole fraction of acetic acid	uncertainty
381.57	0.7815	0.1772	0.0024	0.2914	0.0032	0.6372	
379.16	0.7168	0.2235	0.0026	0.3803	0.0039	0.5199	
377.35	0.6614	0.2648	0.0027	0.4187	0.0042	0.4538	
375.4	0.6134	0.3038	0.003	0.4474	0.0045	0.3959	
373.73	0.5573	0.3554	0.0032	0.498	0.0049	0.3268	
372.07	0.5375	0.3486	0.0032	0.4795	0.0048	0.3127	
371.26	0.5136	0.3596	0.0033	0.4853	0.0048	0.2872	
370.47	0.4943	0.3408	0.0032	0.4773	0.0048	0.2622	
370.95	0.5252	0.3027	0.0029	0.4592	0.0046	0.2749	
371.2	0.5329	0.2702	0.0028	0.4243	0.0043	0.2859	
370.77	0.5161	0.2477	0.0027	0.4028	0.0041	0.2764	
371.16	0.5144	0.2143	0.0025	0.37	0.0039	0.2863	
372.25	0.5371	0.175	0.0024	0.3302	0.0036	0.3153	
372.6	0.5244	0.161	0.0023	0.3178	0.0035	0.3004	
372.88	0.5174	0.129	0.0022	0.2896	0.0033	0.2952	
372.8	0.4788	0.0988	0.0021	0.2358	0.0029	0.2864	
373.26	0.4798	0.0983	0.0021	0.2371	0.0029	0.2838	
373.57	0.4549	0.0868	0.0021	0.2155	0.0027	0.2702	

System: acetic acid + 2-methylpropyl ethanoate + water; phases: Liquid, Gas
Fixed: Pressure, kPa = 101.33
Property: Mole fraction of water (Liquid); method: Chromatography
Property: Mole fraction of water (Gas); method: Chromatography
Property: Mole fraction of acetic acid (Gas); method: Chromatography
Temperature, K	Mole fraction of acetic acid	Mole fraction of water	uncertainty	Mole fraction of water	uncertainty	Mole fraction of acetic acid	uncertainty
386.58	0.874	0.0781	0.0021	0.137	0.0023	0.807	
383.75	0.8247	0.1316	0.0022	0.2505	0.0029	0.6954	
381.66	0.7634	0.1816	0.0024	0.3095	0.0034	0.6187	
379.38	0.6849	0.2478	0.0027	0.4005	0.0041	0.5089	
375.43	0.5497	0.3787	0.0034	0.5405	0.0046	0.3389	
375.37	0.5564	0.3645	0.0033	0.5203	0.0048	0.351	
376.75	0.5999	0.306	0.003	0.4743	0.0047	0.3945	
376.43	0.5944	0.2762	0.0028	0.4654	0.0046	0.3709	
376.55	0.5926	0.2412	0.0026	0.4349	0.0044	0.3775	
376.59	0.568	0.2198	0.0025	0.4142	0.0042	0.3666	
377.85	0.561	0.1753	0.0024	0.3693	0.0038	0.3779	
378.56	0.5298	0.1415	0.0022	0.3396	0.0036	0.3666	
379.48	0.5185	0.1143	0.0022	0.3089	0.0034	0.3641	
380.57	0.4932	0.0915	0.0021	0.2791	0.0032	0.358	
380.96	0.4452	0.0822	0.0021	0.2487	0.003	0.3362	
