Measured thermophysical data. The effect of temperature on polyethylene glycol (4000 or 8000)e(sodium or ammonium) sulfate Aqueous Two Phase Systems
Source: Fluid Phase Equilib., 2016, 10.1016/j.fluid.2016.06.019
Compound 1: ammonium sulfate, H8N2O4S, InChI=1S/2H3N.H2O4S/c;;1-5(2,3)4/h2*1H3;(H2,1,2,3,4), purity 99%
Compound 2: sodium sulfate, Na2O4S, InChI=1S/2Na.H2O4S/c;;1-5(2,3)4/h;;(H2,1,2,3,4)/q2*+1;/p-2, purity 99%
Compound 3: water, H2O, InChI=1S/H2O/h1H2

System: water; phases: Liquid
Property: Mass density, kg/m3 (Liquid); method: Vibrating tube method
Pressure, kPa	Temperature, K	Mass density, kg/m3	uncertainty
100	298.15	997.1	0.2

System: water; phases: Liquid
Property: Refractive index (Na D-line) (Liquid); method: Standard Abbe refractometry
Pressure, kPa	Temperature, K	Refractive index (Na D-line)	uncertainty
100	298.15	1.3325	0.00031

System: water + ammonium sulfate; phases: Liquid
Fixed: Pressure, kPa = 100
Fixed: Temperature, K = 298.15
Property: Mass density, kg/m3 (Liquid); method: Vibrating tube method
Mass fraction of ammonium sulfate	Mass density, kg/m3	uncertainty
0.0005	997.4	0.2
0.0011	997.7	0.2
0.0053	1000.3	0.2
0.0104	1003.3	0.2
0.0208	1009.4	0.2
0.0412	1021.2	0.2
0.0712	1038.4	0.2
0.1007	1055.3	0.2
0	997.1	0.2

System: water + ammonium sulfate; phases: Liquid
Fixed: Pressure, kPa = 100
Fixed: Temperature, K = 298.15
Property: Refractive index (Na D-line) (Liquid); method: Standard Abbe refractometry
Mass fraction of ammonium sulfate	Refractive index (Na D-line)	uncertainty
0.0005	1.33259	0.00031
0.0011	1.33268	0.00031
0.0053	1.33337	0.00031
0.0104	1.33425	0.00031
0.0208	1.33594	0.00031
0.0412	1.33921	0.00032
0.0712	1.34393	0.00032
0.1007	1.34856	0.00032
0	1.3325	0.00031

System: water + sodium sulfate; phases: Liquid
Fixed: Pressure, kPa = 100
Fixed: Temperature, K = 298.15
Property: Mass density, kg/m3 (Liquid); method: Vibrating tube method
Mass fraction of sodium sulfate	Mass density, kg/m3	uncertainty
0.0005	997.6	0.3
0.0011	998.1	0.3
0.0053	1002	0.3
0.0108	1006.9	0.3
0.0214	1016.5	0.3
0.042	1035.1	0.3
0.0719	1062.6	0.3
0.0994	1088.5	0.3
0	997.1	0.2

System: water + sodium sulfate; phases: Liquid
Fixed: Pressure, kPa = 100
Fixed: Temperature, K = 298.15
Property: Refractive index (Na D-line) (Liquid); method: Standard Abbe refractometry
Mass fraction of sodium sulfate	Refractive index (Na D-line)	uncertainty
0.0005	1.33258	0.00031
0.0011	1.33266	0.00031
0.0053	1.33331	0.00031
0.0108	1.33414	0.00031
0.0214	1.3357	0.00031
0.042	1.33875	0.00031
0.0719	1.34307	0.00032
0.0994	1.34535	0.00032
0	1.3325	0.00031
