Measured thermophysical data. Vapor-liquid phase equilibria of binary tineantimony system in vacuum distillation: Experimental investigation and calculation
Source: Fluid Phase Equilib., 2016, 10.1016/j.fluid.2016.02.012
Compound 1: tin, Sn, InChI=1S/Sn, purity 99.995%
Compound 2: antimony, Sb, InChI=1S/Sb, purity 99.99%

System: tin + antimony; phases: Gas, Liquid
Property: Vapor or sublimation pressure, kPa (Gas); method: Closed cell (Static) method
Temperature, K	Mole fraction of antimony	Vapor or sublimation pressure, kPa	uncertainty
1173	0.190236	0.01	0.005
1223	0.178433	0.01	0.005
1273	0.133506	0.01	0.005
1323	0.08666	0.01	0.005
1373	0.061923	0.01	0.005

System: tin + antimony; phases: Gas, Liquid
Property: Mole fraction of antimony (Gas); method: titration with cerium sulphate standard solution
Temperature, K	Mole fraction of antimony	Mole fraction of antimony	uncertainty
1173	0.190236	0.996923	0.003077
1223	0.178433	0.995693	0.004307
1273	0.133506	0.991591	0.006045
1323	0.08666	0.98667	0.006671
1373	0.061923	0.97335	0.006671
