Measured thermophysical data. Fluid phase equilibria and mass transfer studies applied to supercritical fluid extraction of Illicium verum volatile oil
Source: Fluid Phase Equilib., 2016, 10.1016/j.fluid.2016.02.042
Compound 1: (E)-1-(4-methoxyphenyl)propene, C10H12O, InChI=1S/C10H12O/c1-3-4-9-5-7-10(11-2)8-6-9/h3-8H,1-2H3/b4-3+, purity 99%
Compound 2: carbon dioxide, CO2, InChI=1S/CO2/c2-1-3, purity 99.9%

System: carbon dioxide + (E)-1-(4-methoxyphenyl)propene; phases: Gas, Liquid
Property: Vapor or sublimation pressure, kPa (Gas); method: CCELL:UFactor:8
Temperature, K	Mole fraction of carbon dioxide	Vapor or sublimation pressure, kPa	uncertainty
298.15	0.102	1067	39
298.15	0.2	1989	56
298.15	0.301	3249	85
298.15	0.4	4282	110
298.15	0.503	5252	134
298.15	0.598	5496	138
298.15	0.7	6141	154
303.15	0.102	1124	43
303.15	0.2	2312	65
303.15	0.301	3588	93
303.15	0.4	4738	121
303.15	0.503	5725	144
303.15	0.598	6078	153
303.15	0.7	6663	168
308.15	0.102	1245	50
308.15	0.2	2869	79
308.15	0.301	3900	101
308.15	0.4	5167	132
308.15	0.503	6322	160
308.15	0.598	6716	169
308.15	0.7	7458	189
313.15	0.102	1389	57
313.15	0.2	3352	88
313.15	0.301	4275	111
313.15	0.4	5637	143
313.15	0.503	6937	174
313.15	0.598	7430	188
313.15	0.7	8306	210
