Measured thermophysical data. Ternary phase behavior of phenol + toluene + zwitterionic alkaloids for separating phenols from oil mixtures via forming deep eutectic solvents
Source: Fluid Phase Equilib., 2017, 10.1016/j.fluid.2017.05.001
Compound 1: phenol, C6H6O, InChI=1S/C6H6O/c7-6-4-2-1-3-5-6/h1-5,7H, purity 99%
Compound 2: toluene, C7H8, InChI=1S/C7H8/c1-7-5-3-2-4-6-7/h2-6H,1H3, purity 98%
Compound 3: (trimethylammonio)acetate, C5H11NO2, InChI=1S/C5H11NO2/c1-6(2,3)4-5(7)8/h4H2,1-3H3, purity 99%
Compound 4: (R)-3-hydroxy-4-(trimethylammonio)butanoate, C7H15NO3, InChI=1S/C7H15NO3/c1-8(2,3)5-6(9)4-7(10)11/h6,9H,4-5H2,1-3H3/t6-/m1/s1, purity 98%

System: toluene + phenol + (R)-3-hydroxy-4-(trimethylammonio)butanoate; phases: Liquid mixture 2, Liquid mixture 1
Fixed: Pressure, kPa = 101
Property: Mass fraction of (R)-3-hydroxy-4-(trimethylammonio)butanoate (Liquid mixture 2); method: Chromatography
Property: Mass fraction of (R)-3-hydroxy-4-(trimethylammonio)butanoate (Liquid mixture 1); method: Chromatography
Property: Mass fraction of phenol (Liquid mixture 1); method: Chromatography
Temperature, K	Mass fraction of phenol	Mass fraction of (R)-3-hydroxy-4-(trimethylammonio)butanoate	uncertainty	Mass fraction of (R)-3-hydroxy-4-(trimethylammonio)butanoate	uncertainty	Mass fraction of phenol	uncertainty
298.15	0.4086	0.1481	0.0048	0.0211	0.004	0.1279	
298.15	0.4934	0.1982	0.0297	0.015	0.0041	0.079	
298.15	0.5	0.2467	0.0176	0.004	0.004	0.0469	
298.15	0.5144	0.292	0.0134	0.0018	0.0018	0.0282	
318.15	0.3991	0.1252	0.0087	0.0199	0.004	0.1273	
318.15	0.4845	0.1901	0.0045	0.0131	0.0041	0.0799	
318.15	0.4708	0.2632	0.0218	0.0044	0.0041	0.0516	
318.15	0.4918	0.3012	0.0172	0.0017	0.0017	0.0341	
318.15	0.5147	0.3367	0.0078	0.0017	0.0017	0.0261	
338.15	0.3728	0.1214	0.0048	0.0219	0.004	0.1388	
338.15	0.4608	0.177	0.0357	0.0148	0.0041	0.0858	
338.15	0.4677	0.2381	0.016	0.0054	0.0042	0.0594	
338.15	0.485	0.2789	0.0068	0.0018	0.0018	0.0458	
338.15	0.529	0.3198	0.0059	0.0017	0.0017	0.0318	
338.15	0.5312	0.3456	0.0074	0.0008	0.0008	0.0228	

System: (trimethylammonio)acetate + toluene + phenol; phases: Liquid mixture 2, Liquid mixture 1
Fixed: Pressure, kPa = 101
Property: Mass fraction of phenol (Liquid mixture 2); method: Chromatography
Property: Mass fraction of (trimethylammonio)acetate (Liquid mixture 1); method: Chromatography
Property: Mass fraction of phenol (Liquid mixture 1); method: Chromatography
Temperature, K	Mass fraction of (trimethylammonio)acetate	Mass fraction of phenol	uncertainty	Mass fraction of (trimethylammonio)acetate	uncertainty	Mass fraction of phenol	uncertainty
298.15	0.1813	0.4593	0.0058	0.0318	0.0044	0.0996	
298.15	0.2396	0.4964	0.0057	0.0216	0.0044	0.0779	
298.15	0.2665	0.5039	0.0054	0.0074	0.0043	0.0446	
318.15	0.1901	0.4418	0.0055	0.0328	0.0043	0.1078	
318.15	0.2468	0.4804	0.0055	0.0265	0.0044	0.0926	
318.15	0.2907	0.4769	0.0053	0.0081	0.0043	0.0552	
318.15	0.3397	0.5018	0.0057	0.006	0.004	0.0347	
338.15	0.1845	0.434	0.0055	0.0397	0.0045	0.1251	
338.15	0.2525	0.4701	0.0054	0.0242	0.0045	0.0943	
338.15	0.2855	0.4669	0.0052	0.0075	0.0043	0.0593	
338.15	0.3337	0.4719	0.0053	0.0058	0.004	0.0405	
338.15	0.3746	0.4803	0.0053	0.0025	0.0025	0.0281	
