Measured thermophysical data. Solubility predictions of acetanilide derivatives in water: Combining thermochemistry and thermodynamic modeling
Source: Fluid Phase Equilib., 2018, 10.1016/j.fluid.2017.09.023
Compound 1: N-phenylethanamide, C8H9NO, InChI=1S/C8H9NO/c1-7(10)9-8-5-3-2-4-6-8/h2-6H,1H3,(H,9,10)
Compound 2: ethoxybenzene, C8H10O, InChI=1S/C8H10O/c1-2-9-8-6-4-3-5-7-8/h3-7H,2H2,1H3
Compound 3: benzene, C6H6, InChI=1S/C6H6/c1-2-4-6-5-3-1/h1-6H

System: N-phenylethanamide; phases: Crystal, Gas
Property: Vapor or sublimation pressure, kPa (Crystal); method: Transpiration method
Temperature, K	Vapor or sublimation pressure, kPa	uncertainty
322.3	0.00018	2e-05
325.3	0.00025	2e-05
328.2	0.00033	2e-05
334.3	0.00064	5e-05
340.3	0.00119	8e-05
346.1	0.00214	0.00015
351.2	0.00356	0.00023
356.4	0.00601	0.00043
360.2	0.00852	0.00059
364.3	0.01261	0.00085
366.7	0.01576	0.00104
369.2	0.01911	0.00125
372.2	0.02411	0.00156
316.3	9e-05	2e-05
320.3	0.00015	2e-05
323.2	0.00021	2e-05
327	0.0003	2e-05
328.1	0.00035	3e-05
333.3	0.0006	5e-05
337.1	0.00088	7e-05
339.4	0.00114	8e-05
342.4	0.00159	0.0001
345.5	0.00205	0.00014
347.2	0.0024	0.00016
349.4	0.00299	0.0002
352.5	0.00422	0.00028
355.5	0.00532	0.00038
357.4	0.00636	0.00044
359.2	0.00759	0.00052
362.2	0.01028	0.0007
365.3	0.01406	0.00095
368.4	0.01777	0.00116

System: ethoxybenzene + benzene; phases: Liquid
Property: Molar enthalpy of solution, kJ/mol (Liquid); method: Titration calorimetry
Mole fraction of ethoxybenzene	Pressure, kPa	Temperature, K	Molar enthalpy of solution, kJ/mol	uncertainty
0	100	298.15	0.34	0.01
