Measured thermophysical data. Influence of anion and cation on the vapor pressure of binary mixtures of water + ionic liquid and on the thermal stability of the ionic liquid
Source: Fluid Phase Equilib., 2015, 10.1016/j.fluid.2015.03.001
Compound 1: water, H2O, InChI=1S/H2O/h1H2, purity 99.9%
Compound 2: 1-ethyl-3-methylimidazolium methanesulfonate, C7H14N2O3S, InChI=1S/C6H11N2.CH4O3S/c1-3-8-5-4-7(2)6-8;1-5(2,3)4/h4-6H,3H2,1-2H3;1H3,(H,2,3,4)/q+1;/p-1, purity 97%
Compound 3: 1-ethyl-3-methylimidazolium trifluoromethanesulfonate, C7H11F3N2O3S, InChI=1S/C6H11N2.CHF3O3S/c1-3-8-5-4-7(2)6-8;2-1(3,4)8(5,6)7/h4-6H,3H2,1-2H3;(H,5,6,7)/q+1;/p-1, purity 98%
Compound 4: 1-ethyl-3-methylpyridin-1-ium methanesulfonate, C9H15NO3S, InChI=1S/C8H12N.CH4O3S/c1-3-9-6-4-5-8(2)7-9;1-5(2,3)4/h4-7H,3H2,1-2H3;1H3,(H,2,3,4)/q+1;/p-1, purity 97%

System: water + 1-ethyl-3-methylimidazolium methanesulfonate; phases: Gas, Liquid
Property: Partial pressure, kPa of water (Gas); method: FTIR spectroscopy
Temperature, K	Mole fraction of water	Partial pressure, kPa of water	uncertainty
293.17	0.4257	0.133	0.172
293.16	0.4437	0.123	0.172
293.19	0.5288	0.25	0.17
293.19	0.6254	0.431	0.175
293.15	0.6636	0.506	0.175
293.18	0.6823	0.597	0.176
293.18	0.7342	0.756	0.176
293.17	0.7785	0.951	0.176
293.15	0.8103	1.041	0.176
293.18	0.8233	1.219	0.177
293.17	0.8533	1.399	0.429
293.17	0.8771	1.606	0.457
293.15	0.8969	1.754	0.479
293.16	0.9016	1.72	0.48
293.12	0.9155	1.854	0.493
293.13	0.9291	1.947	0.507
293.14	0.9366	2.036	0.519
293.18	0.9408	2.045	0.521
293.13	0.9605	2.183	0.541
293.14	0.9751	2.252	0.553
293.18	1	2.309	0.561
303.16	0.3307	0.172	0.172
303.16	0.4255	0.295	0.173
303.15	0.4435	0.285	0.173
303.18	0.5286	0.522	0.177
303.15	0.6252	0.877	0.176
303.15	0.6633	0.914	0.177
303.15	0.6821	1.13	0.18
303.16	0.734	1.427	0.434
303.13	0.7782	1.813	0.488
303.14	0.8099	1.98	0.52
303.1	0.823	2.297	0.561
303.13	0.853	2.724	0.629
303.15	0.8767	2.999	0.674
303.12	0.8965	3.269	0.742
303.15	0.9013	3.196	0.708
303.12	0.9152	3.494	0.761
303.15	0.9288	3.693	0.796
303.14	0.9363	3.694	0.797
303.16	0.9406	3.704	0.804
303.18	0.9603	3.901	0.832
303.12	0.9748	4.062	0.862
303.17	1	4.214	0.89
313.17	0.3305	0.353	0.173
313.14	0.4254	0.565	0.175
313.15	0.4431	0.573	0.176
313.18	0.5284	0.949	0.182
313.12	0.6248	1.56	0.46
313.13	0.6629	1.647	0.466
313.12	0.6817	2.055	0.528
313.13	0.7336	2.597	0.611
313.13	0.7777	3.284	0.724
313.12	0.8094	3.552	0.773
313.12	0.8225	4.099	0.875
313.13	0.8525	4.836	0.395
313.13	0.8762	5.272	0.398
313.12	0.896	5.809	0.405
313.31	0.9007	5.635	0.403
313.14	0.9147	6.248	0.41
313.12	0.9283	6.556	0.414
313.12	0.9358	6.535	0.413
313.15	0.9401	6.612	0.44
313.18	0.9598	6.888	0.418
313.11	0.9744	7.189	0.42
313.18	1	7.445	0.425
323.17	0.3304	0.583	0.176
323.15	0.4251	0.95	0.18
323.14	0.4426	0.988	0.187
323.17	0.528	1.595	0.463
323.12	0.6243	2.685	0.627
323.12	0.6621	2.903	0.665
323.13	0.6811	3.538	0.777
323.13	0.7329	4.453	0.944
323.13	0.777	5.633	0.414
323.13	0.8085	6.188	0.425
323.12	0.8217	7.027	0.441
323.13	0.8517	8.218	0.45
323.12	0.8754	8.979	0.458
323.11	0.8953	9.753	0.476
323.12	0.8999	9.573	0.463
323.12	0.914	10.43	0.47
323.15	0.9276	10.975	0.486
323.13	0.9351	10.919	0.483
323.15	0.9394	11.009	0.534
323.18	0.9592	11.493	0.494
323.11	0.9739	11.998	0.502
323.17	1	12.478	0.512
333.18	0.3301	1	1
333.17	0.4247	1.566	0.454
333.15	0.4418	1.68	0.48
333.17	0.5275	2.702	0.64
333.14	0.6236	4.429	0.942
333.13	0.6609	4.914	0.423
333.13	0.6802	5.852	0.449
333.12	0.7319	7.455	0.466
333.12	0.7759	9.235	0.485
333.35	0.8072	10.285	0.505
333.13	0.8205	11.343	0.534
333.13	0.8505	13.149	0.551
333.12	0.8743	14.394	0.567
333.11	0.8941	15.59	0.77
333.13	0.8987	15.404	0.574
333.13	0.9129	16.653	0.608
333.14	0.9266	17.475	0.623
333.11	0.9341	17.441	0.612
333.15	0.9384	17.65	0.62
333.18	0.9583	18.555	0.637
333.12	0.973	19.249	0.651
333.16	1	19.959	0.666
343.16	0.3297	1.596	0.457
343.15	0.0827	0.176	0.172
343.17	0.4241	2.607	0.621
342.07	0.4405	2.769	0.647
343.16	0.5266	4.341	0.947
343.14	0.6224	7.152	0.476
343.14	0.6592	8.024	0.504
343.14	0.6789	9.34	0.55
343.13	0.7305	11.76	0.57
343.12	0.7743	14.531	0.614
343.14	0.8053	16.119	0.648
343.13	0.8189	17.733	0.686
343.15	0.8489	20.458	0.727
343.12	0.8727	22.36	0.75
343.12	0.8926	24.151	0.804
343.13	0.897	24.017	0.773
343.15	0.9113	25.963	0.817
343.12	0.9325	27.163	0.839
343.19	0.9569	28.905	0.882
343.14	0.9718	29.944	0.906
343.15	1	31.131	0.937
353.14	0.082	0.331	0.173
353.17	0.329	2.63	0.63
353.16	0.4232	4.118	0.884
353.14	0.4386	4.383	0.935
353.16	0.5254	6.949	0.542
353.15	0.6208	11.023	0.577
353.39	0.6567	12.509	0.643
353.11	0.6771	14.358	0.761
353.18	0.7722	22.009	0.799
353.14	0.8026	24.615	0.907
353.1	0.8466	30.791	1.014
353.14	0.8704	33.801	1.055
353.17	0.8903	36.377	1.073
353.14	0.8946	36.359	1.119
353.14	0.9092	38.997	1.169
353.14	0.9304	41.136	1.214
353.19	0.955	43.794	1.286
353.09	0.97	45.363	1.328
353.17	1	47.283	1.385

System: water + 1-ethyl-3-methylimidazolium trifluoromethanesulfonate; phases: Gas, Liquid
Property: Partial pressure, kPa of water (Gas); method: FTIR spectroscopy
Temperature, K	Mole fraction of water	Partial pressure, kPa of water	uncertainty
293.13	0.2202	0.458	0.174
293.15	0.4134	0.927	0.176
293.15	0.5154	1.173	0.177
293.15	0.5921	1.415	0.431
293.15	0.7171	1.727	0.475
293.14	0.7996	1.964	0.509
293.15	0.8678	2.089	0.527
293.16	0.924	2.183	0.541
293.14	0.9484	2.217	0.547
293.15	1	2.289	0.559
303.19	0.2199	0.792	0.175
303.18	0.4129	1.629	0.462
303.19	0.5147	2.179	0.544
303.15	0.5914	2.596	0.609
303.16	0.7165	3.202	0.708
303.14	0.7991	3.582	0.776
303.16	0.8674	3.872	0.828
303.15	0.9237	3.973	0.846
303.16	0.9482	4.049	0.86
303.15	1	4.172	0.882
313.16	0.2194	1.257	0.178
313.17	0.412	2.832	0.649
313.17	0.5138	3.753	0.811
313.19	0.5905	4.463	0.941
313.14	0.7156	5.548	0.403
313.14	0.7983	6.279	0.409
313.13	0.8668	6.805	0.415
313.11	0.9232	7.033	0.418
313.18	0.9478	7.165	0.42
313.13	1	7.364	0.423
323.16	0.2187	2.042	0.524
323.16	0.4107	4.658	0.984
323.16	0.5123	6.275	0.437
323.18	0.5889	7.506	0.442
323.14	0.7142	9.335	0.462
323.14	0.7971	10.494	0.478
323.12	0.8658	11.274	0.489
323.17	0.9225	11.72	0.497
323.18	0.9471	11.952	0.501
323.18	1	12.321	0.507
333.17	0.2177	3.233	0.72
333.17	0.4088	7.445	0.465
333.17	0.5102	9.985	0.526
333.15	0.5868	11.838	0.533
333.15	0.7122	14.811	0.573
333.15	0.7954	16.652	0.6
333.13	0.8644	17.917	0.622
333.18	0.9214	18.768	0.639
333.18	0.9462	19.106	0.645
333.18	1	19.832	0.663
343.17	0.2163	4.881	0.413
343.15	0.4063	11.3	0.565
343.18	0.5074	15.063	0.676
343.15	0.5838	18.025	0.694
343.16	0.7094	22.771	0.761
343.15	0.793	25.753	0.813
343.13	0.8624	27.889	0.858
343.12	0.9199	29.122	0.887
343.13	0.9451	28.79	0.877
343.16	1	30.925	0.932
353.18	0.2143	7.235	0.472
353.15	0.4029	16.568	0.721
353.15	0.5035	22.206	0.912
353.15	0.5798	26.702	0.955
353.13	0.7056	33.899	1.059
353.13	0.7895	38.566	1.153
353.13	0.8596	41.881	1.234
353.12	0.9177	44.193	1.294
353.14	0.9431	44.798	1.313
353.16	1	46.88	1.373

System: water + 1-ethyl-3-methylpyridin-1-ium methanesulfonate; phases: Gas, Liquid
Property: Partial pressure, kPa of water (Gas); method: FTIR spectroscopy
Temperature, K	Mole fraction of water	Partial pressure, kPa of water	uncertainty
293.13	0.561	0.25	0.157
292.36	0.6503	0.427	0.157
293.18	0.7302	0.705	0.158
293.18	0.7896	0.964	0.16
293.18	0.8466	1.327	0.163
293.18	0.8868	1.533	0.533
293.18	0.9162	1.774	0.575
293.18	0.9442	1.989	0.613
293.17	0.969	2.215	0.655
293.14	0.9853	2.305	0.671
293.18	1	2.3	0.671
303.11	0.4369	0.243	0.158
303.18	0.5608	0.552	0.158
303.18	0.6501	0.854	0.161
303.16	0.73	1.264	0.164
303.14	0.7894	1.821	0.584
303.15	0.8463	2.45	0.702
303.14	0.8865	2.924	0.798
303.14	0.9159	3.306	0.88
303.15	0.9439	3.793	0.99
303.14	0.9687	4.011	1.04
303.15	1	4.215	0.348
313.12	0.2395	0.117	0.156
313.17	0.4368	0.51	0.158
313.17	0.5606	1.002	0.164
313.16	0.6498	1.506	0.532
313.14	0.7296	2.372	0.688
313.13	0.7889	3.219	0.863
313.13	0.8458	4.388	0.358
313.14	0.886	5.172	0.368
313.13	0.9154	5.933	0.379
313.13	0.9434	6.639	0.39
313.12	0.9683	7.03	0.397
313.13	1	7.495	0.404
323.11	0.2394	0.243	0.157
323.17	0.4365	0.93	0.163
323.16	0.5602	1.716	0.569
323.16	0.6493	2.701	0.757
323.14	0.729	4.07	1.06
323.13	0.7882	5.622	0.393
323.13	0.845	7.555	0.42
323.12	0.8853	8.784	0.438
323.12	0.9146	9.916	0.458
323.12	0.9427	10.901	0.475
323.11	0.9677	11.597	0.488
323.11	1	12.332	0.505
333.18	0.4361	1.545	0.542
333.17	0.5596	2.987	0.819
333.17	0.6485	4.629	0.392
333.14	0.728	6.974	0.436
333.13	0.7872	9.229	0.478
333.14	0.844	12.188	0.525
333.13	0.8843	14.057	0.558
333.13	0.9135	16.004	0.598
333.13	0.9417	17.571	0.628
333.12	0.9668	18.637	0.651
333.18	1	19.9	0.682
343.18	0.4355	2.612	0.748
343.18	0.5587	4.875	0.414
343.16	0.6473	7.59	0.481
343.16	0.7267	11.029	0.55
343.14	0.7857	14.583	0.63
343.15	0.8424	19.084	0.708
343.14	0.8827	22.115	0.764
343.14	0.912	24.852	0.822
343.14	0.9402	27.489	0.88
343.14	0.9655	29.031	0.917
343.18	0.9832	30.225	0.947
343.17	1	31.149	0.972
353.16	0.2386	1.296	0.176
353.19	0.4346	4.162	1.089
353.19	0.5573	7.721	0.513
353.18	0.6458	11.653	0.624
353.17	0.7248	16.917	0.741
353.16	0.7836	22.352	0.87
353.16	0.8401	29.1	0.989
353.14	0.8805	33.716	1.08
353.14	0.9097	37.814	1.178
353.15	0.9381	41.502	1.265
353.12	0.9637	44.284	1.337
353.18	0.9821	45.522	1.373
353.17	1	46.911	1.413
