Measured thermophysical data. Experimental determination of dissociation constant, Henry's constant, heat of reactions, SO2 absorbed and gas bubble liquid interfacial area for dilute sulphur dioxide absorption into water
Source: Fluid Phase Equilib., 2007, 10.1016/j.fluid.2007.01.015
Compound 1: sulfur dioxide, O2S, InChI=1S/O2S/c1-3-2
Compound 2: water, H2O, InChI=1S/H2O/h1H2

System: sulfur dioxide + water; phases: Liquid, Gas
Property: Amount concentration (molarity), mol/dm3 of sulfur dioxide (Liquid); method: SPECTR
Temperature, K	Pressure, kPa of sulfur dioxide	Amount concentration (molarity), mol/dm3 of sulfur dioxide	uncertainty
293	0.447	0.0181	0.0011
293	0.608	0.022	0.0013
293	0.831	0.0272	0.0015
293	0.963	0.0309	0.0018
303	0.447	0.0127	0.0009
303	0.608	0.0159	0.0011
303	0.831	0.0201	0.0013
303	0.963	0.0223	0.0014
313	0.447	0.0092	0.0006
313	0.608	0.0118	0.0008
313	0.831	0.0147	0.001
313	0.963	0.0173	0.001
323	0.447	0.0067	0.0004
323	0.608	0.0087	0.0006
323	0.831	0.0109	0.0007
323	0.963	0.0128	0.0008
333	0.447	0.0049	0.0004
333	0.608	0.0065	0.0005
333	0.831	0.0083	0.0005
333	0.963	0.0094	0.0007
