Measured thermophysical data. An improved static-analytic apparatus for vapor-liquid equilibrium (PTxy) measurement using modified in-situ samplers
Source: Fluid Phase Equilib., 2016, 10.1016/j.fluid.2015.10.041
Compound 1: butane, C4H10, InChI=1S/C4H10/c1-3-4-2/h3-4H2,1-2H3
Compound 2: ethanol, C2H6O, InChI=1S/C2H6O/c1-2-3/h3H,2H2,1H3, purity 99.99%
Compound 3: 3-thiapentane, C4H10S, InChI=1S/C4H10S/c1-3-5-4-2/h3-4H2,1-2H3, purity 98%
Compound 4: pentan-1-ol, C5H12O, InChI=1S/C5H12O/c1-2-3-4-5-6/h6H,2-5H2,1H3, purity 99%
Compound 5: 1-pentanethiol, C5H12S, InChI=1S/C5H12S/c1-2-3-4-5-6/h6H,2-5H2,1H3, purity 98%

System: ethanol + butane; phases: Gas, Liquid
Fixed: Temperature, K = 323.22
Property: Mole fraction of butane (Gas); method: Chromatography
Mole fraction of butane	Mole fraction of butane	uncertainty
0.014	0.568	0.027
0.032	0.743	0.019
0.053	0.819	0.014
0.078	0.863	0.011
0.109	0.892	0.007
0.205	0.924	0.007
0.323	0.938	0.004
0.544	0.943	0.004

System: ethanol + butane; phases: Gas, Liquid
Fixed: Temperature, K = 323.22
Property: Vapor or sublimation pressure, kPa (Gas); method: Closed cell (Static) method
Mole fraction of butane	Vapor or sublimation pressure, kPa	uncertainty
0.014	70.2	5.6
0.032	120.5	5.2
0.053	171.3	8.7
0.078	220.8	10.8
0.109	271.8	9.3
0.205	372	9
0.323	432	4.8
0.544	473.4	3.8

System: ethanol + 3-thiapentane; phases: Gas, Liquid
Fixed: Temperature, K = 343.13
Property: Mole fraction of 3-thiapentane (Gas); method: Chromatography
Mole fraction of 3-thiapentane	Mole fraction of 3-thiapentane	uncertainty
0	0	
0.027	0.069	0.006
0.063	0.139	0.01
0.11	0.204	0.014
0.148	0.244	0.014
0.243	0.317	0.016
0.321	0.362	0.018
0.368	0.375	0.017
0.444	0.407	0.018
0.649	0.483	0.018
0.761	0.541	0.021
0.902	0.66	0.018
0.964	0.811	0.022
0.979	0.885	0.014
1	1	

System: ethanol + 3-thiapentane; phases: Gas, Liquid
Fixed: Temperature, K = 343.13
Property: Vapor or sublimation pressure, kPa (Gas); method: Closed cell (Static) method
Mole fraction of 3-thiapentane	Vapor or sublimation pressure, kPa	uncertainty
0	72	0.5
0.027	75.3	0.6
0.063	79.8	0.6
0.11	82.5	0.7
0.148	84.8	0.6
0.243	87.1	0.6
0.321	87.8	0.6
0.368	88.3	0.6
0.444	87.7	0.6
0.649	84.7	0.7
0.761	81.1	0.9
0.902	70.7	0.8
0.964	60.8	1.3
0.979	56.3	0.8
1	49.7	0.5

System: butane + 3-thiapentane; phases: Gas, Liquid
Property: Mole fraction of 3-thiapentane (Gas); method: Chromatography
Temperature, K	Mole fraction of 3-thiapentane	Mole fraction of 3-thiapentane	uncertainty
317.62	0.09	0.009	0.002
317.62	0.268	0.024	0.002
317.62	0.461	0.042	0.005
317.62	0.678	0.079	0.007
317.62	0.847	0.157	0.017
317.62	0.973	0.507	0.041
317.62	1	1	
343.14	0.088	0.014	0.002
343.14	0.225	0.03	0.003
343.14	0.383	0.051	0.005
343.14	0.608	0.096	0.008
343.14	0.805	0.186	0.02
343.14	0.969	0.604	0.054
343.14	1	1	

System: butane + 3-thiapentane; phases: Gas, Liquid
Property: Vapor or sublimation pressure, kPa (Gas); method: Closed cell (Static) method
Temperature, K	Mole fraction of 3-thiapentane	Vapor or sublimation pressure, kPa	uncertainty
317.62	0.09	390.9	2.9
317.62	0.268	323.3	5.3
317.62	0.461	255.1	6.8
317.62	0.678	171.9	6.2
317.62	0.847	99.1	4.7
317.62	0.973	35.4	1.3
317.62	1	19	0.4
343.14	0.088	732.3	8
343.14	0.225	630.8	9
343.14	0.383	520.6	11
343.14	0.608	371.7	11.4
343.14	0.805	223.1	9.7
343.14	0.969	80.6	4
343.14	1	49.7	0.5

System: pentan-1-ol + 1-pentanethiol; phases: Gas, Liquid
Property: Mole fraction of 1-pentanethiol (Gas); method: Chromatography
Temperature, K	Mole fraction of 1-pentanethiol	Mole fraction of 1-pentanethiol	uncertainty
372.75	0	0	
372.75	0.056	0.197	0.016
372.75	0.13	0.351	0.022
372.75	0.203	0.452	0.023
372.75	0.321	0.56	0.022
372.75	0.543	0.685	0.02
372.75	0.838	0.834	0.012
372.75	0.942	0.925	0.006
372.75	1	1	
392.72	0	0	
392.72	0.052	0.147	0.012
392.72	0.123	0.28	0.019
392.72	0.209	0.392	0.02
392.72	0.39	0.55	0.023
392.72	0.584	0.67	0.02
392.72	0.828	0.819	0.014
392.72	0.865	0.849	0.013
392.72	0.94	0.92	0.008
392.72	1	1	

System: pentan-1-ol + 1-pentanethiol; phases: Gas, Liquid
Property: Vapor or sublimation pressure, kPa (Gas); method: Closed cell (Static) method
Temperature, K	Mole fraction of 1-pentanethiol	Vapor or sublimation pressure, kPa	uncertainty
372.75	0	24.3	0.4
372.75	0.056	28.3	0.5
372.75	0.13	32.3	0.6
372.75	0.203	35.7	0.7
372.75	0.321	40.1	0.6
372.75	0.543	44.2	0.5
372.75	0.838	46.6	0.5
372.75	0.942	46.1	0.5
372.75	1	45.1	0.5
392.72	0	53.4	0.5
392.72	0.052	59.1	0.6
392.72	0.123	65.8	0.8
392.72	0.209	72.3	0.9
392.72	0.39	81.4	0.8
392.72	0.584	86.1	0.6
392.72	0.828	88.2	0.6
392.72	0.865	87.7	0.6
392.72	0.94	85.9	0.6
392.72	1	83.1	0.5
