Measured thermophysical data. (Solid + liquid) equilibrium phase diagrams in binary mixtures containing terpenes: New experimental data and analysis of several modelling strategies with modified UNIFAC (Dortmund) and PC-SAFT equation of state
Source: Fluid Phase Equilib., 2016, 10.1016/j.fluid.2015.12.048
Compound 1: L-menthol, C10H20O, InChI=1S/C10H20O/c1-7(2)9-5-4-8(3)6-10(9)11/h7-11H,4-6H2,1-3H3/t8-,9+,10-/m1/s1, purity 99%
Compound 2: 3-methyl-6-isopropylphenol, C10H14O, InChI=1S/C10H14O/c1-7(2)9-5-4-8(3)6-10(9)11/h4-7,11H,1-3H3, purity 99%
Compound 3: decan-1-ol, C10H22O, InChI=1S/C10H22O/c1-2-3-4-5-6-7-8-9-10-11/h11H,2-10H2,1H3, purity 99%
Compound 4: benzenemethanol, C7H8O, InChI=1S/C7H8O/c8-6-7-4-2-1-3-5-7/h1-5,8H,6H2, purity 99.8%
Compound 5: 2-cyclohexylethanol, C8H16O, InChI=1S/C8H16O/c9-7-6-8-4-2-1-3-5-8/h8-9H,1-7H2, purity 98%
Compound 6: decane, C10H22, InChI=1S/C10H22/c1-3-5-7-9-10-8-6-4-2/h3-10H2,1-2H3, purity 99%

System: L-menthol; phases: Crystal, Liquid, Air at 1 atmosphere
Property: Normal melting temperature, K (Crystal); method: VISOBS
Normal melting temperature, K	uncertainty
315.9	0.4

System: L-menthol; phases: Crystal, Liquid, Air at 1 atmosphere
Property: Normal melting temperature, K (Crystal); method: DTA
Normal melting temperature, K	uncertainty
316.7	0.4

System: L-menthol; phases: Crystal, Liquid, Air at 1 atmosphere
Property: Molar enthalpy of transition or fusion, kJ/mol (Crystal); method: DSC
Molar enthalpy of transition or fusion, kJ/mol	uncertainty
12.83	0.36

System: 3-methyl-6-isopropylphenol; phases: Crystal, Liquid, Air at 1 atmosphere
Property: Normal melting temperature, K (Crystal); method: VISOBS
Normal melting temperature, K	uncertainty
323.1	0.4

System: 3-methyl-6-isopropylphenol; phases: Crystal, Liquid, Air at 1 atmosphere
Property: Normal melting temperature, K (Crystal); method: DTA
Normal melting temperature, K	uncertainty
322.8	0.4

System: 3-methyl-6-isopropylphenol; phases: Crystal, Liquid, Air at 1 atmosphere
Property: Molar enthalpy of transition or fusion, kJ/mol (Crystal); method: DSC
Molar enthalpy of transition or fusion, kJ/mol	uncertainty
17.54	0.43

System: decan-1-ol; phases: Crystal, Liquid, Air at 1 atmosphere
Property: Normal melting temperature, K (Crystal); method: VISOBS
Normal melting temperature, K	uncertainty
280.1	0.4

System: decan-1-ol; phases: Crystal, Liquid, Air at 1 atmosphere
Property: Normal melting temperature, K (Crystal); method: DTA
Normal melting temperature, K	uncertainty
280.1	0.4

System: benzenemethanol; phases: Crystal, Liquid, Air at 1 atmosphere
Property: Normal melting temperature, K (Crystal); method: VISOBS
Normal melting temperature, K	uncertainty
258.1	0.4

System: benzenemethanol; phases: Crystal, Liquid, Air at 1 atmosphere
Property: Normal melting temperature, K (Crystal); method: DTA
Normal melting temperature, K	uncertainty
258.1	0.4

System: decan-1-ol + L-menthol; phases: Liquid, Crystal
Fixed: Pressure, kPa = 101
Property: Solid-liquid equilibrium temperature, K (Liquid); method: VISOBS
Mole fraction of L-menthol	Solid-liquid equilibrium temperature, K	uncertainty
0.9704	314.5	0.3
0.9302	311.6	0.3
0.895	309.2	0.3
0.8515	306.4	0.3
0.8151	303.3	0.3
0.7822	300.4	0.3
0.748	297.9	0.3
0.7103	294.8	0.3
0.6664	289.9	0.3
0.6441	287.3	0.3
0.6124	284	0.3
0.5922	282.1	0.3
0.5682	278.3	0.3
0.5389	274.7	0.3
0.4993	268.9	0.3

System: decan-1-ol + L-menthol; phases: Liquid, Crystal
Fixed: Pressure, kPa = 101
Property: Solid-liquid equilibrium temperature, K (Liquid); method: VISOBS
Mole fraction of L-menthol	Solid-liquid equilibrium temperature, K	uncertainty
0.4674	268.3	0.3
0.4257	269.6	0.3
0.3759	270.6	0.3
0.3518	271.3	0.3
0.2876	273.1	0.3
0.2284	274.3	0.3
0.1928	275.2	0.3
0.1578	276.2	0.3
0.0996	277.6	0.3
0.0671	278.4	0.3

System: benzenemethanol + L-menthol; phases: Liquid, Crystal
Fixed: Pressure, kPa = 101
Property: Solid-liquid equilibrium temperature, K (Liquid); method: VISOBS
Mole fraction of L-menthol	Solid-liquid equilibrium temperature, K	uncertainty
0.9697	314.6	0.3
0.9356	312.3	0.3
0.8923	308.8	0.3
0.8498	305.6	0.3
0.8091	302.5	0.3
0.7671	299.4	0.3
0.7348	296.9	0.3
0.698	293.5	0.3
0.6599	290.4	0.3
0.6303	287.5	0.3
0.5895	283.5	0.3
0.5523	279.6	0.3
0.511	275.6	0.3
0.4935	273.4	0.3
0.46	269.2	0.3
0.3987	260.6	0.3
0.3516	255.3	0.3
0.3151	251.3	0.3
0.2818	248.3	0.3
0.2586	246.9	0.3

System: benzenemethanol + L-menthol; phases: Liquid, Crystal
Fixed: Pressure, kPa = 101
Property: Solid-liquid equilibrium temperature, K (Liquid); method: VISOBS
Mole fraction of L-menthol	Solid-liquid equilibrium temperature, K	uncertainty
0.2079	245.8	0.3
0.1579	248.9	0.3
0.1358	250.5	0.3
0.1082	253.1	0.3
0.0898	254.8	0.3
0.0641	256.5	0.3
0.0225	257.8	0.3
0.0056	258.1	0.3

System: L-menthol + 2-cyclohexylethanol; phases: Liquid, Crystal
Fixed: Pressure, kPa = 101
Property: Solid-liquid equilibrium temperature, K (Liquid); method: VISOBS
Mole fraction of L-menthol	Solid-liquid equilibrium temperature, K	uncertainty
0.9738	314.7	0.3
0.9622	314.1	0.3
0.9469	312.6	0.3
0.9101	310.7	0.3
0.8888	308.5	0.3
0.8412	305.3	0.3
0.8288	304.2	0.3
0.8056	302.4	0.3
0.7717	300.1	0.3
0.7511	298.5	0.3
0.7293	297	0.3
0.7141	295.1	0.3
0.6866	292.8	0.3
0.6504	289.4	0.3
0.6232	286.5	0.3
0.5925	282.2	0.3

System: decane + L-menthol; phases: Liquid, Crystal
Fixed: Pressure, kPa = 101
Property: Solid-liquid equilibrium temperature, K (Liquid); method: VISOBS
Mole fraction of L-menthol	Solid-liquid equilibrium temperature, K	uncertainty
0.968	314.1	0.3
0.9209	311.9	0.3
0.867	308.5	0.3
0.8167	305	0.3
0.768	302.1	0.3
0.7345	300.3	0.3
0.6849	297.6	0.3
0.6521	295.8	0.3
0.6121	293.3	0.3
0.549	289.6	0.3
0.5009	286.2	0.3
0.4542	284.1	0.3
0.4111	281.8	0.3
0.3775	279.3	0.3
0.3405	276.4	0.3
0.3124	274.5	0.3
0.2653	271.1	0.3
0.2318	268.7	0.3
0.2048	266.6	0.3
0.1743	263.3	0.3
0.1501	260.5	0.3
0.1332	258.1	0.3
0.1179	256.1	0.3

System: 3-methyl-6-isopropylphenol + decan-1-ol; phases: Liquid, Crystal
Fixed: Pressure, kPa = 101
Property: Solid-liquid equilibrium temperature, K (Liquid); method: VISOBS
Mole fraction of 3-methyl-6-isopropylphenol	Solid-liquid equilibrium temperature, K	uncertainty
0.9514	320.4	0.3
0.9007	318.1	0.3
0.8531	315	0.3
0.8059	312.7	0.3
0.7678	309.1	0.3
0.7304	306	0.3
0.7018	303.4	0.3
0.6751	301.1	0.3
0.6488	298.8	0.3
0.6235	296.5	0.3
0.6009	293.8	0.3
0.5786	290.6	0.3
0.5569	287.7	0.3
0.5369	285.1	0.3
0.5165	282.3	0.3
0.498	279.5	0.3
0.481	277.3	0.3
0.4571	274.2	0.3
0.4344	269.7	0.3
0.417	267.3	0.3

System: 3-methyl-6-isopropylphenol + decan-1-ol; phases: Liquid, Crystal
Fixed: Pressure, kPa = 101
Property: Solid-liquid equilibrium temperature, K (Liquid); method: VISOBS
Mole fraction of 3-methyl-6-isopropylphenol	Solid-liquid equilibrium temperature, K	uncertainty
0.3981	264.1	0.3
0.3788	264.9	0.3
0.3614	266	0.3
0.3405	267.3	0.3
0.324	268.4	0.3
0.2906	270.4	0.3
0.2353	272.5	0.3
0.2163	273.5	0.3
0.1951	274	0.3
0.148	276	0.3

System: 3-methyl-6-isopropylphenol + benzenemethanol; phases: Liquid, Crystal
Fixed: Pressure, kPa = 101
Property: Solid-liquid equilibrium temperature, K (Liquid); method: VISOBS
Mole fraction of 3-methyl-6-isopropylphenol	Solid-liquid equilibrium temperature, K	uncertainty
0.9444	320.4	0.3
0.9006	317.9	0.3
0.8666	316.1	0.3
0.8379	315.1	0.3
0.7905	311.5	0.3
0.7482	308.6	0.3
0.7113	305.7	0.3
0.6665	302	0.3
0.6327	298.9	0.3
0.6028	296.3	0.3
0.5731	293.1	0.3
0.5467	290.5	0.3
0.5214	288	0.3
0.497	284.5	0.3
0.471	281.5	0.3
0.4509	278.6	0.3
0.4331	276.1	0.3
0.4146	273.5	0.3
0.3838	268.6	0.3
0.3463	263.8	0.3
0.3072	253.4	0.4

System: 3-methyl-6-isopropylphenol + benzenemethanol; phases: Liquid, Crystal
Fixed: Pressure, kPa = 101
Property: Solid-liquid equilibrium temperature, K (Liquid); method: VISOBS
Mole fraction of 3-methyl-6-isopropylphenol	Solid-liquid equilibrium temperature, K	uncertainty
0.1977	245.9	0.3
0.1672	247.9	0.3
0.1302	251.1	0.3
0.0997	252.4	0.3
0.061	254.8	0.3
0.0353	257.1	0.3
0.0145	257.8	0.3

System: 3-methyl-6-isopropylphenol + 2-cyclohexylethanol; phases: Liquid, Crystal
Fixed: Pressure, kPa = 101
Property: Solid-liquid equilibrium temperature, K (Liquid); method: VISOBS
Mole fraction of 3-methyl-6-isopropylphenol	Solid-liquid equilibrium temperature, K	uncertainty
0.9383	320.3	0.3
0.9087	319.3	0.3
0.8771	317.8	0.3
0.8621	317.1	0.3
0.8316	314.6	0.3
0.8027	312.7	0.3
0.7802	310.7	0.3
0.7444	307.4	0.3
0.7155	305.2	0.3
0.6782	300.5	0.3
0.6422	296.5	0.3
0.6142	293.1	0.3
0.5798	288.3	0.3
0.5472	284	0.3
0.5141	278.4	0.3
0.4813	272.5	0.3

System: 3-methyl-6-isopropylphenol + decane; phases: Liquid, Crystal
Fixed: Pressure, kPa = 101
Property: Solid-liquid equilibrium temperature, K (Liquid); method: VISOBS
Mole fraction of 3-methyl-6-isopropylphenol	Solid-liquid equilibrium temperature, K	uncertainty
0.9755	322.1	0.3
0.9492	320.7	0.3
0.925	320.4	0.3
0.8855	318.4	0.3
0.8423	317	0.3
0.7401	314.5	0.3
0.693	313.3	0.3
0.6374	311.7	0.3
0.5911	310.8	0.3
0.5577	309.6	0.3
0.5156	308.7	0.3
0.4688	307.4	0.3
0.4418	306.6	0.3
0.4203	306.1	0.3
0.3723	304.8	0.3
0.328	303.6	0.3
0.2934	302.1	0.3
0.2518	300.8	0.3
0.2385	300	0.3
0.2151	299	0.3
0.1901	297.5	0.3
0.1479	295.5	0.3
0.1266	293.2	0.3
0.0901	288.5	0.3
