Measured thermophysical data. Thermodynamic properties of binary aqueous solutions of orthophosphate salts, sodium, potassium and ammonium at T= 298.15 K
Source: Fluid Phase Equilib., 2014, 10.1016/j.fluid.2014.02.019
Compound 1: sodium dihydrogen phosphate, H2NaO4P, InChI=1S/Na.H3O4P/c;1-5(2,3)4/h;(H3,1,2,3,4)/q+1;/p-1, purity 98%
Compound 2: monopotassium phosphate, H2KO4P, InChI=1S/K.H3O4P/c;1-5(2,3)4/h;(H3,1,2,3,4)/q+1;/p-1, purity 98%
Compound 3: ammonium dihydrogen phosphate, H6NO4P, InChI=1S/H3N.H3O4P/c;1-5(2,3)4/h1H3;(H3,1,2,3,4), purity 98%
Compound 4: disodium hydrogen phosphate, HNa2O4P, InChI=1S/2Na.H3O4P/c;;1-5(2,3)4/h;;(H3,1,2,3,4)/q2*+1;/p-2, purity 98%
Compound 5: dipotassium hydrogen phosphate, HK2O4P, InChI=1S/2K.H3O4P/c;;1-5(2,3)4/h;;(H3,1,2,3,4)/q2*+1;/p-2, purity 98%
Compound 6: trisodium phosphate, Na3O4P, InChI=1S/3Na.H3O4P/c;;;1-5(2,3)4/h;;;(H3,1,2,3,4)/q3*+1;/p-3, purity 98%
Compound 7: tripotassium phosphate, K3O4P, InChI=1S/3K.H3O4P/c;;;1-5(2,3)4/h;;;(H3,1,2,3,4)/q3*+1;/p-3, purity 98%
Compound 8: ammonium phosphate, H12N3O4P, InChI=1S/3H3N.H3O4P/c;;;1-5(2,3)4/h3*1H3;(H3,1,2,3,4), purity 98%
Compound 9: diammonium hydrogen phosphate, H9N2O4P, InChI=1S/2H3N.H3O4P/c;;1-5(2,3)4/h2*1H3;(H3,1,2,3,4), purity 98%
Compound 10: water, H2O, InChI=1S/H2O/h1H2, purity 99.8%

System: sodium dihydrogen phosphate + water; phases: Liquid
Fixed: Pressure, kPa = 101
Fixed: Temperature, K = 298.15
Property: (Relative) activity of water (Liquid); method: isopiestic method
Molality, mol/kg of sodium dihydrogen phosphate	(Relative) activity of water	uncertainty
0.1	0.9967	0.0007
0.2	0.9937	0.0007
0.3	0.9907	0.0007
0.4	0.9879	0.0007
0.5	0.9851	0.0007
1	0.9722	0.0006
1.5	0.9604	0.0011
2	0.9492	0.0018
2.5	0.9383	0.0017
3	0.9276	0.0017
3.5	0.9169	0.0017
4	0.9055	0.0017
4.5	0.8941	0.0036
5	0.882	0.0036
5.5	0.8696	0.0035
6	0.857	0.0035
6.5	0.8438	0.0034
7	0.8298	0.0034
7.5	0.8148	0.0033
7.9	0.8011	0.0033

System: sodium dihydrogen phosphate + water; phases: Liquid, Crystal of intercomponent compound 1
Property: Molality, mol/kg of sodium dihydrogen phosphate (Liquid); method: gravimetric
Pressure, kPa	Temperature, K	Molality, mol/kg of sodium dihydrogen phosphate	uncertainty
101	298.15	7.9	0.03

System: water + monopotassium phosphate; phases: Liquid
Fixed: Pressure, kPa = 101
Fixed: Temperature, K = 298.15
Property: (Relative) activity of water (Liquid); method: isopiestic method
Molality, mol/kg of monopotassium phosphate	(Relative) activity of water	uncertainty
0.1	0.9967	0.0007
0.15	0.9952	0.0007
0.2	0.9937	0.0007
0.25	0.9923	0.0007
0.3	0.9909	0.0007
0.35	0.9895	0.0007
0.4	0.9882	0.0007
0.45	0.9869	0.0007
0.5	0.9856	0.0006
0.55	0.9844	0.0006
0.6	0.9832	0.0006
0.7	0.9807	0.0006
0.8	0.9785	0.0006
0.9	0.9762	0.0006
1	0.974	0.0006
1.2	0.9695	0.0011
1.4	0.9655	0.001
1.6	0.9616	0.001
1.8	0.9575	0.001
1.83	0.9573	0.001

System: water + monopotassium phosphate; phases: Liquid, Crystal
Property: Molality, mol/kg of monopotassium phosphate (Liquid); method: gravimetric
Pressure, kPa	Temperature, K	Molality, mol/kg of monopotassium phosphate	uncertainty
101	298.15	1.83	0.02

System: ammonium dihydrogen phosphate + water; phases: Liquid
Fixed: Pressure, kPa = 101
Fixed: Temperature, K = 298.15
Property: (Relative) activity of water (Liquid); method: isopiestic method
Molality, mol/kg of ammonium dihydrogen phosphate	(Relative) activity of water	uncertainty
0.1	0.9968	0.0007
0.15	0.9954	0.0007
0.2	0.9939	0.0007
0.25	0.9925	0.0007
0.3	0.9912	0.0007
0.35	0.9899	0.0006
0.4	0.9887	0.0006
0.45	0.9874	0.0006
0.5	0.9862	0.0006
0.6	0.984	0.0006
0.7	0.9816	0.0006
0.8	0.9795	0.0006
0.9	0.9772	0.0006
1	0.9751	0.0006
1.5	0.9651	0.001
2	0.9556	0.001
2.5	0.9467	0.0017
3	0.9385	0.0017
3.5	0.9303	0.0017

System: ammonium dihydrogen phosphate + water; phases: Liquid, Crystal
Property: Molality, mol/kg of ammonium dihydrogen phosphate (Liquid); method: gravimetric
Pressure, kPa	Temperature, K	Molality, mol/kg of ammonium dihydrogen phosphate	uncertainty
101	298.15	3.5	0.02

System: disodium hydrogen phosphate + water; phases: Liquid
Fixed: Pressure, kPa = 101
Fixed: Temperature, K = 298.15
Property: (Relative) activity of water (Liquid); method: isopiestic method
Molality, mol/kg of disodium hydrogen phosphate	(Relative) activity of water	uncertainty
0.1	0.9957	0.0009
0.15	0.9937	0.0009
0.2	0.9919	0.0008
0.25	0.9901	0.0008
0.3	0.9884	0.0008
0.35	0.9868	0.0008
0.4	0.9852	0.0008
0.45	0.9836	0.0008
0.5	0.982	0.0007
0.55	0.9805	0.0007
0.6	0.9789	0.0007
0.65	0.9776	0.0007
0.7	0.9763	0.0007
0.75	0.9749	0.0007
0.8	0.9735	0.0007
0.83	0.9727	0.0007

System: disodium hydrogen phosphate + water; phases: Liquid, Crystal of intercomponent compound 1
Property: Molality, mol/kg of disodium hydrogen phosphate (Liquid); method: gravimetric
Pressure, kPa	Temperature, K	Molality, mol/kg of disodium hydrogen phosphate	uncertainty
101	298.15	0.83	0.02

System: water + dipotassium hydrogen phosphate; phases: Liquid
Fixed: Pressure, kPa = 101
Fixed: Temperature, K = 298.15
Property: (Relative) activity of water (Liquid); method: isopiestic method
Molality, mol/kg of dipotassium hydrogen phosphate	(Relative) activity of water	uncertainty
0.1	0.9957	0.0009
0.2	0.9917	0.0009
0.3	0.988	0.0008
0.4	0.9845	0.0008
0.5	0.9811	0.0008
1	0.9642	0.0012
1.5	0.9481	0.0018
2	0.9311	0.0018
2.5	0.9132	0.0018
3	0.8933	0.0037
3.5	0.871	0.0036
4	0.8485	0.0035
4.5	0.824	0.0034
5	0.8004	0.0034
5.5	0.774	0.0033
6	0.7464	0.0032
7	0.6884	0.003
8	0.6307	0.0028
9	0.5716	0.0026
9.66	0.5314	0.0025

System: water + dipotassium hydrogen phosphate; phases: Liquid, Crystal of intercomponent compound 1
Property: Molality, mol/kg of dipotassium hydrogen phosphate (Liquid); method: gravimetric
Pressure, kPa	Temperature, K	Molality, mol/kg of dipotassium hydrogen phosphate	uncertainty
101	298.15	9.66	0.03

System: trisodium phosphate + water; phases: Liquid
Fixed: Pressure, kPa = 101
Fixed: Temperature, K = 298.15
Property: (Relative) activity of water (Liquid); method: isopiestic method
Molality, mol/kg of trisodium phosphate	(Relative) activity of water	uncertainty
0.1	0.9951	0.0009
0.15	0.993	0.0009
0.2	0.9911	0.0009
0.25	0.9892	0.0008
0.3	0.9875	0.0008
0.35	0.9858	0.0008
0.4	0.9841	0.0008
0.45	0.9826	0.0007
0.5	0.9811	0.0008
0.55	0.9794	0.0007
0.6	0.9782	0.0007
0.65	0.9768	0.0007
0.68	0.9758	0.0008

System: trisodium phosphate + water; phases: Liquid, Crystal of intercomponent compound 1
Property: Molality, mol/kg of trisodium phosphate (Liquid); method: gravimetric
Pressure, kPa	Temperature, K	Molality, mol/kg of trisodium phosphate	uncertainty
101	298.15	0.68	0.02

System: water + tripotassium phosphate; phases: Liquid
Fixed: Pressure, kPa = 101
Fixed: Temperature, K = 298.15
Property: (Relative) activity of water (Liquid); method: isopiestic method
Molality, mol/kg of tripotassium phosphate	(Relative) activity of water	uncertainty
0.1	0.995	0.001
0.15	0.9926	0.001
0.2	0.9903	0.001
0.25	0.988	0.001
0.3	0.9858	0.001
0.4	0.9813	0.001
0.5	0.9768	0.001
1	0.9538	0.0013
1.5	0.9301	0.0019
2	0.9047	0.002
2.5	0.873	0.0038
3	0.8301	0.0037
3.5	0.7915	0.0036
4	0.7473	0.0035
4.5	0.6969	0.0035
5	0.6409	0.0034
5.5	0.5886	0.0032

System: water + tripotassium phosphate; phases: Liquid, Crystal of intercomponent compound 1
Property: Molality, mol/kg of tripotassium phosphate (Liquid); method: gravimetric
Pressure, kPa	Temperature, K	Molality, mol/kg of tripotassium phosphate	uncertainty
101	298.15	5.5	0.02

System: water + ammonium phosphate; phases: Liquid
Fixed: Pressure, kPa = 101
Fixed: Temperature, K = 298.15
Property: (Relative) activity of water (Liquid); method: isopiestic method
Molality, mol/kg of ammonium phosphate	(Relative) activity of water	uncertainty
0.1	0.9959	0.0007
0.15	0.9946	0.0006
0.2	0.9935	0.0006
0.25	0.9926	0.0006
0.3	0.9916	0.0006
0.35	0.9907	0.0005
0.4	0.9898	0.0005
0.45	0.989	0.0005
0.5	0.9881	0.0006
0.55	0.9871	0.0006
0.6	0.9861	0.0006
0.7	0.9838	0.0006
0.8	0.9816	0.0006
0.9	0.9788	0.0007
1	0.9764	0.0007
1.1	0.9732	0.0007
1.2	0.9701	0.0007
1.23	0.9691	0.0012

System: water + ammonium phosphate; phases: Liquid, Crystal of intercomponent compound 1
Property: Molality, mol/kg of ammonium phosphate (Liquid); method: gravimetric
Pressure, kPa	Temperature, K	Molality, mol/kg of ammonium phosphate	uncertainty
101	298.15	1.23	0.02

System: water + diammonium hydrogen phosphate; phases: Liquid
Fixed: Pressure, kPa = 101
Fixed: Temperature, K = 298.15
Property: (Relative) activity of water (Liquid); method: isopiestic method
Molality, mol/kg of diammonium hydrogen phosphate	(Relative) activity of water	uncertainty
0.1	0.9962	0.0008
0.15	0.9946	0.0007
0.2	0.9931	0.0007
0.25	0.9917	0.0007
0.3	0.9904	0.0007
0.35	0.9891	0.0007
0.4	0.9878	0.0007
0.45	0.9865	0.0006
0.5	0.9854	0.0006
0.55	0.9842	0.0006
1	0.9741	0.0006
1.5	0.9641	0.001
2	0.9548	0.001
2.5	0.9459	0.0017
3	0.9375	0.0017
3.5	0.9296	0.0017
4	0.9213	0.0017
4.5	0.9139	0.0017
5	0.9063	0.0017
5.26	0.9025	0.0017

System: water + diammonium hydrogen phosphate; phases: Liquid, Crystal
Property: Molality, mol/kg of diammonium hydrogen phosphate (Liquid); method: gravimetric
Pressure, kPa	Temperature, K	Molality, mol/kg of diammonium hydrogen phosphate	uncertainty
101	298.15	5.26	0.02
