Measured thermophysical data. Measurements of activity coefficient at infinite dilution for organic solutes in tetramethylammonium chloride + ethylene glycol deep eutectic solvent using gas-liquid chromatography
Source: Fluid Phase Equilib., 2018, 10.1016/j.fluid.2018.01.019
Compound 1: hexane, C6H14, InChI=1S/C6H14/c1-3-5-6-4-2/h3-6H2,1-2H3, purity 99%
Compound 2: heptane, C7H16, InChI=1S/C7H16/c1-3-5-7-6-4-2/h3-7H2,1-2H3, purity 99.9%
Compound 3: cyclopentane, C5H10, InChI=1S/C5H10/c1-2-4-5-3-1/h1-5H2, purity 98.5%
Compound 4: cyclohexane, C6H12, InChI=1S/C6H12/c1-2-4-6-5-3-1/h1-6H2, purity 99%
Compound 5: hex-1-ene, C6H12, InChI=1S/C6H12/c1-3-5-6-4-2/h3H,1,4-6H2,2H3, purity 98%
Compound 6: 1-heptene, C7H14, InChI=1S/C7H14/c1-3-5-7-6-4-2/h3H,1,4-7H2,2H3, purity 98%
Compound 7: 1-heptyne, C7H12, InChI=1S/C7H12/c1-3-5-7-6-4-2/h1H,4-7H2,2H3, purity 99.9%
Compound 8: 1-octyne, C8H14, InChI=1S/C8H14/c1-3-5-7-8-6-4-2/h1H,4-8H2,2H3, purity 99.9%
Compound 9: ethanol, C2H6O, InChI=1S/C2H6O/c1-2-3/h3H,2H2,1H3, purity 99.9%
Compound 10: methanol, CH4O, InChI=1S/CH4O/c1-2/h2H,1H3, purity 99.9%
Compound 11: propan-1-ol, C3H8O, InChI=1S/C3H8O/c1-2-3-4/h4H,2-3H2,1H3, purity 99.5%
Compound 12: propan-2-ol, C3H8O, InChI=1S/C3H8O/c1-3(2)4/h3-4H,1-2H3, purity 99.5%
Compound 13: benzene, C6H6, InChI=1S/C6H6/c1-2-4-6-5-3-1/h1-6H, purity 99.9%
Compound 14: toluene, C7H8, InChI=1S/C7H8/c1-7-5-3-2-4-6-7/h2-6H,1H3, purity 99.9%
Compound 15: acetone, C3H6O, InChI=1S/C3H6O/c1-3(2)4/h1-2H3, purity 99.9%
Compound 16: butanone, C4H8O, InChI=1S/C4H8O/c1-3-4(2)5/h3H2,1-2H3, purity 99.7%
Compound 17: thiophene, C4H4S, InChI=1S/C4H4S/c1-2-4-5-3-1/h1-4H, purity 99.9%
Compound 18: pyridine, C5H5N, InChI=1S/C5H5N/c1-2-4-6-5-3-1/h1-5H, purity 99.9%
Compound 19: methyl ethanoate, C3H6O2, InChI=1S/C3H6O2/c1-3(4)5-2/h1-2H3, purity 98%
Compound 20: ethyl acetate, C4H8O2, InChI=1S/C4H8O2/c1-3-6-4(2)5/h3H2,1-2H3, purity 99.5%
Compound 21: tetramethylammonium chloride, C4H12ClN, InChI=1S/C4H12N.ClH/c1-5(2,3)4;/h1-4H3;1H/q+1;/p-1, purity 99%
Compound 22: 1,2-ethanediol, C2H6O2, InChI=1S/C2H6O2/c3-1-2-4/h3-4H,1-2H2, purity 99.9%

System: tetramethylammonium chloride + 1,2-ethanediol; phases: Liquid
Property: Refractive index (Na D-line) (Liquid); method: Standard Abbe refractometry
Mole fraction of tetramethylammonium chloride	Temperature, K	Pressure, kPa	Refractive index (Na D-line)	uncertainty
0.333	313.15	101	1.45599	0.00033

System: tetramethylammonium chloride + 1,2-ethanediol; phases: Liquid
Property: Mass density, kg/m3 (Liquid); method: Vibrating tube method
Mole fraction of tetramethylammonium chloride	Temperature, K	Pressure, kPa	Mass density, kg/m3	uncertainty
0.333	313.15	101	1072.19	0.19

System: hexane + tetramethylammonium chloride + 1,2-ethanediol; phases: Liquid
Fixed: Pressure, kPa = 101
Fixed: Mole fraction of hexane = 0
Fixed: Mole fraction of tetramethylammonium chloride = 0.333
Property: Activity coefficient of hexane (Liquid); method: Chromatography
Temperature, K	Activity coefficient of hexane	uncertainty
313.15	1780.112	201.612
323.15	1670.539	189.192
333.15	1554.798	176.074
343.15	1435.144	162.513
313.15	1837.492	208.12
323.15	1742.233	197.319
333.15	1628.822	184.464
343.15	1461.935	165.548

System: heptane + tetramethylammonium chloride + 1,2-ethanediol; phases: Liquid
Fixed: Pressure, kPa = 101
Fixed: Mole fraction of heptane = 0
Fixed: Mole fraction of tetramethylammonium chloride = 0.333
Property: Activity coefficient of heptane (Liquid); method: Chromatography
Temperature, K	Activity coefficient of heptane	uncertainty
313.15	1565.295	177.262
323.15	1490.629	168.799
333.15	1426.685	161.552
343.15	1353.412	153.248
313.15	1565.295	177.262
323.15	1490.629	168.799
333.15	1426.685	161.552
343.15	1363.412	154.381

System: cyclopentane + tetramethylammonium chloride + 1,2-ethanediol; phases: Liquid
Fixed: Pressure, kPa = 101
Fixed: Mole fraction of cyclopentane = 0
Fixed: Mole fraction of tetramethylammonium chloride = 0.333
Property: Activity coefficient of cyclopentane (Liquid); method: Chromatography
Temperature, K	Activity coefficient of cyclopentane	uncertainty
313.15	212.041	23.972
323.15	203.351	22.989
333.15	187.403	21.185
343.15	166.489	18.819
313.15	211.383	23.897
323.15	203.77	23.036
333.15	186.219	21.051
343.15	167.41	18.923

System: cyclohexane + tetramethylammonium chloride + 1,2-ethanediol; phases: Liquid
Fixed: Pressure, kPa = 101
Fixed: Mole fraction of cyclohexane = 0
Fixed: Mole fraction of tetramethylammonium chloride = 0.333
Property: Activity coefficient of cyclohexane (Liquid); method: Chromatography
Temperature, K	Activity coefficient of cyclohexane	uncertainty
313.15	313.405	35.443
323.15	295.53	33.42
333.15	295.273	33.391
343.15	276.371	31.252
313.15	317.546	35.912
323.15	306.514	34.663
333.15	298.29	33.732
343.15	277.921	31.427

System: hex-1-ene + tetramethylammonium chloride + 1,2-ethanediol; phases: Liquid
Fixed: Pressure, kPa = 101
Fixed: Mole fraction of hex-1-ene = 0
Fixed: Mole fraction of tetramethylammonium chloride = 0.333
Property: Activity coefficient of hex-1-ene (Liquid); method: Chromatography
Temperature, K	Activity coefficient of hex-1-ene	uncertainty
313.15	596.789	67.56
323.15	383.948	43.458
333.15	271.383	30.7
343.15	201.82	22.826
313.15	592.661	67.092
323.15	404.221	45.752
333.15	271.879	30.756
343.15	199.216	22.532

System: 1-heptene + tetramethylammonium chloride + 1,2-ethanediol; phases: Liquid
Fixed: Pressure, kPa = 101
Fixed: Mole fraction of 1-heptene = 0
Fixed: Mole fraction of tetramethylammonium chloride = 0.333
Property: Activity coefficient of 1-heptene (Liquid); method: Chromatography
Temperature, K	Activity coefficient of 1-heptene	uncertainty
313.15	1093.129	123.816
323.15	694.502	78.671
333.15	392.154	44.411
343.15	253.42	28.688
313.15	1073.227	121.556
323.15	641.693	72.697
333.15	384.388	43.533
343.15	276.587	31.297

System: 1-heptyne + tetramethylammonium chloride + 1,2-ethanediol; phases: Liquid
Fixed: Pressure, kPa = 101
Fixed: Mole fraction of 1-heptyne = 0
Fixed: Mole fraction of tetramethylammonium chloride = 0.333
Property: Activity coefficient of 1-heptyne (Liquid); method: Chromatography
Temperature, K	Activity coefficient of 1-heptyne	uncertainty
313.15	41.284	4.661
323.15	40.655	4.59
333.15	37.014	4.179
343.15	34.664	3.913
313.15	41.036	4.633
323.15	39.129	4.418
333.15	37.743	4.261
343.15	35.848	4.047

System: 1-octyne + tetramethylammonium chloride + 1,2-ethanediol; phases: Liquid
Fixed: Pressure, kPa = 101
Fixed: Mole fraction of 1-octyne = 0
Fixed: Mole fraction of tetramethylammonium chloride = 0.333
Property: Activity coefficient of 1-octyne (Liquid); method: Chromatography
Temperature, K	Activity coefficient of 1-octyne	uncertainty
313.15	52.707	5.952
323.15	50.781	5.734
333.15	45.675	5.157
343.15	42.208	4.766
313.15	52.858	5.969
323.15	49.255	5.562
333.15	45.448	5.132
343.15	42.092	4.753

System: ethanol + tetramethylammonium chloride + 1,2-ethanediol; phases: Liquid
Fixed: Pressure, kPa = 101
Fixed: Mole fraction of ethanol = 0
Fixed: Mole fraction of tetramethylammonium chloride = 0.333
Property: Activity coefficient of ethanol (Liquid); method: Chromatography
Temperature, K	Activity coefficient of ethanol	uncertainty
313.15	2.253	0.254
323.15	2.194	0.247
333.15	2.052	0.231
343.15	2.005	0.226
313.15	2.253	0.254
323.15	2.194	0.247
333.15	2.052	0.231
343.15	2.005	0.226

System: methanol + tetramethylammonium chloride + 1,2-ethanediol; phases: Liquid
Fixed: Pressure, kPa = 101
Fixed: Mole fraction of methanol = 0
Fixed: Mole fraction of tetramethylammonium chloride = 0.333
Property: Activity coefficient of methanol (Liquid); method: Chromatography
Temperature, K	Activity coefficient of methanol	uncertainty
313.15	0.726	0.081
323.15	0.659	0.074
333.15	0.603	0.069
343.15	0.577	0.066
313.15	0.715	0.08
323.15	0.648	0.073
333.15	0.608	0.069
343.15	0.587	0.067

System: propan-1-ol + tetramethylammonium chloride + 1,2-ethanediol; phases: Liquid
Fixed: Pressure, kPa = 101
Fixed: Mole fraction of propan-1-ol = 0
Fixed: Mole fraction of tetramethylammonium chloride = 0.333
Property: Activity coefficient of propan-1-ol (Liquid); method: Chromatography
Temperature, K	Activity coefficient of propan-1-ol	uncertainty
313.15	2.786	0.314
323.15	2.568	0.289
333.15	2.307	0.26
343.15	2.288	0.258
313.15	2.798	0.315
323.15	2.571	0.29
333.15	2.32	0.261
343.15	2.307	0.26

System: propan-2-ol + tetramethylammonium chloride + 1,2-ethanediol; phases: Liquid
Fixed: Pressure, kPa = 101
Fixed: Mole fraction of propan-2-ol = 0
Fixed: Mole fraction of tetramethylammonium chloride = 0.333
Property: Activity coefficient of propan-2-ol (Liquid); method: Chromatography
Temperature, K	Activity coefficient of propan-2-ol	uncertainty
313.15	2.877	0.324
323.15	2.719	0.306
333.15	2.625	0.296
343.15	2.533	0.285
313.15	2.89	0.326
323.15	2.745	0.309
333.15	2.649	0.298
343.15	2.556	0.288

System: benzene + tetramethylammonium chloride + 1,2-ethanediol; phases: Liquid
Fixed: Pressure, kPa = 101
Fixed: Mole fraction of benzene = 0
Fixed: Mole fraction of tetramethylammonium chloride = 0.333
Property: Activity coefficient of benzene (Liquid); method: Chromatography
Temperature, K	Activity coefficient of benzene	uncertainty
313.15	20.489	2.312
323.15	18.372	2.073
333.15	17.022	1.921
343.15	16.171	1.824
313.15	18.979	2.142
323.15	17.978	2.029
333.15	16.792	1.895
343.15	15.349	1.732

System: toluene + tetramethylammonium chloride + 1,2-ethanediol; phases: Liquid
Fixed: Pressure, kPa = 101
Fixed: Mole fraction of toluene = 0
Fixed: Mole fraction of tetramethylammonium chloride = 0.333
Property: Activity coefficient of toluene (Liquid); method: Chromatography
Temperature, K	Activity coefficient of toluene	uncertainty
313.15	42.998	4.855
323.15	40.526	4.576
333.15	38.122	4.304
343.15	36.488	4.119
313.15	41.369	4.671
323.15	38.642	4.363
333.15	37.523	4.236
343.15	36.005	4.065

System: acetone + tetramethylammonium chloride + 1,2-ethanediol; phases: Liquid
Fixed: Pressure, kPa = 101
Fixed: Mole fraction of acetone = 0
Fixed: Mole fraction of tetramethylammonium chloride = 0.333
Property: Activity coefficient of acetone (Liquid); method: Chromatography
Temperature, K	Activity coefficient of acetone	uncertainty
313.15	5.279	0.595
323.15	4.953	0.558
333.15	4.811	0.542
343.15	4.677	0.527
313.15	5.057	0.57
323.15	4.952	0.558
333.15	4.708	0.531
343.15	4.562	0.514

System: butanone + tetramethylammonium chloride + 1,2-ethanediol; phases: Liquid
Fixed: Pressure, kPa = 101
Fixed: Mole fraction of butanone = 0
Fixed: Mole fraction of tetramethylammonium chloride = 0.333
Property: Activity coefficient of butanone (Liquid); method: Chromatography
Temperature, K	Activity coefficient of butanone	uncertainty
313.15	9.724	1.097
323.15	9.5996	1.0826
333.15	9.176	1.035
343.15	8.514	0.96
313.15	9.8995	1.1165
323.15	9.509	1.072
333.15	8.957	1.01
343.15	8.826	0.995

System: thiophene + tetramethylammonium chloride + 1,2-ethanediol; phases: Liquid
Fixed: Pressure, kPa = 101
Fixed: Mole fraction of thiophene = 0
Fixed: Mole fraction of tetramethylammonium chloride = 0.333
Property: Activity coefficient of thiophene (Liquid); method: Chromatography
Temperature, K	Activity coefficient of thiophene	uncertainty
313.15	1.082	0.119
323.15	1.073	0.118
333.15	1.045	0.115
343.15	1.011	0.111
313.15	1.051	0.115
323.15	1.046	0.115
333.15	1.014	0.111
343.15	1.008	0.11

System: pyridine + tetramethylammonium chloride + 1,2-ethanediol; phases: Liquid
Fixed: Pressure, kPa = 101
Fixed: Mole fraction of pyridine = 0
Fixed: Mole fraction of tetramethylammonium chloride = 0.333
Property: Activity coefficient of pyridine (Liquid); method: Chromatography
Temperature, K	Activity coefficient of pyridine	uncertainty
313.15	0.426	0.052
323.15	0.414	0.051
333.15	0.41	0.05
343.15	0.396	0.049
313.15	0.406	0.05
323.15	0.395	0.049
333.15	0.393	0.049
343.15	0.385	0.048

System: methyl ethanoate + tetramethylammonium chloride + 1,2-ethanediol; phases: Liquid
Fixed: Pressure, kPa = 101
Fixed: Mole fraction of methyl ethanoate = 0
Fixed: Mole fraction of tetramethylammonium chloride = 0.333
Property: Activity coefficient of methyl ethanoate (Liquid); method: Chromatography
Temperature, K	Activity coefficient of methyl ethanoate	uncertainty
313.15	1.118	0.123
323.15	1.138	0.125
333.15	1.143	0.126
343.15	1.227	0.135
313.15	1.121	0.123
323.15	1.141	0.126
333.15	1.144	0.126
343.15	1.24	0.137

System: ethyl acetate + tetramethylammonium chloride + 1,2-ethanediol; phases: Liquid
Fixed: Pressure, kPa = 101
Fixed: Mole fraction of ethyl acetate = 0
Fixed: Mole fraction of tetramethylammonium chloride = 0.333
Property: Activity coefficient of ethyl acetate (Liquid); method: Chromatography
Temperature, K	Activity coefficient of ethyl acetate	uncertainty
313.15	2.0996	0.2365
323.15	2.144	0.242
333.15	2.214	0.249
343.15	2.24	0.252
313.15	2.049	0.231
323.15	2.071	0.233
333.15	2.193	0.247
343.15	2.24	0.252
