Measured thermophysical data. Liquid-liquid equilibrium for the ternary system of isopropyl acetate + 2-propanol + glycerol at different temperatures under atmospheric pressure
Source: Fluid Phase Equilib., 2016, 10.1016/j.fluid.2015.12.050
Compound 1: 1-methylethyl ethanoate, C5H10O2, InChI=1S/C5H10O2/c1-4(2)7-5(3)6/h4H,1-3H3, purity 99%
Compound 2: propan-2-ol, C3H8O, InChI=1S/C3H8O/c1-3(2)4/h3-4H,1-2H3, purity 99.9%
Compound 3: glycerol, C3H8O3, InChI=1S/C3H8O3/c4-1-3(6)2-5/h3-6H,1-2H2, purity 99.5%

System: glycerol + propan-2-ol + 1-methylethyl ethanoate; phases: Liquid mixture 2, Liquid mixture 1
Fixed: Pressure, kPa = 101.3
Property: Mole fraction of 1-methylethyl ethanoate (Liquid mixture 2); method: Chromatography
Property: Mole fraction of propan-2-ol (Liquid mixture 1); method: Chromatography
Property: Mole fraction of 1-methylethyl ethanoate (Liquid mixture 1); method: Chromatography
Temperature, K	Mole fraction of propan-2-ol	Mole fraction of 1-methylethyl ethanoate	uncertainty	Mole fraction of propan-2-ol	uncertainty	Mole fraction of 1-methylethyl ethanoate	uncertainty
298.15	0	0.01	0.002	0		0.995	
298.15	0.049	0.012	0.002	0.13	0.003	0.85	
298.15	0.071	0.013	0.002	0.198	0.003	0.782	
298.15	0.121	0.02	0.002	0.324	0.003	0.633	
298.15	0.129	0.021	0.002	0.39	0.004	0.545	
298.15	0.153	0.024	0.002	0.418	0.004	0.508	
298.15	0.173	0.029	0.002	0.447	0.004	0.447	
298.15	0.209	0.037	0.002	0.483	0.004	0.372	
298.15	0.225	0.047	0.002	0.493	0.004	0.319	
298.15	0.246	0.045	0.002	0.5	0.004	0.265	
308.15	0	0.011	0.002	0		0.994	
308.15	0.043	0.013	0.002	0.114	0.003	0.857	
308.15	0.063	0.014	0.002	0.192	0.003	0.785	
308.15	0.115	0.022	0.002	0.316	0.003	0.634	
308.15	0.129	0.024	0.002	0.372	0.004	0.564	
308.15	0.155	0.025	0.002	0.414	0.004	0.491	
308.15	0.165	0.027	0.002	0.457	0.004	0.42	
308.15	0.221	0.036	0.002	0.48	0.004	0.361	
308.15	0.249	0.039	0.002	0.49	0.004	0.305	
308.15	0.275	0.04	0.002	0.499	0.004	0.26	
318.15	0	0.012	0.002	0		0.989	
318.15	0.043	0.013	0.002	0.132	0.003	0.84	
318.15	0.065	0.016	0.002	0.18	0.003	0.795	
318.15	0.097	0.023	0.002	0.296	0.003	0.649	
318.15	0.133	0.026	0.002	0.362	0.004	0.566	
318.15	0.158	0.032	0.002	0.415	0.004	0.495	
318.15	0.181	0.033	0.002	0.45	0.004	0.421	
318.15	0.216	0.045	0.002	0.468	0.004	0.358	
318.15	0.259	0.051	0.002	0.483	0.004	0.292	
318.15	0.301	0.055	0.002	0.49	0.004	0.217	
