Measured thermophysical data. The solubility of maleic acid in various inorganic salts and organic solvents: Thermodynamics model and parameters
Source: Fluid Phase Equilib., 2017, 10.1016/j.fluid.2017.07.012
Compound 1: cis-1,4-butenedioic acid, C4H4O4, InChI=1S/C4H4O4/c5-3(6)1-2-4(7)8/h1-2H,(H,5,6)(H,7,8)/b2-1-
Compound 2: 4-methylpentan-2-one, C6H12O, InChI=1S/C6H12O/c1-5(2)4-6(3)7/h5H,4H2,1-3H3
Compound 3: butan-1-ol, C4H10O, InChI=1S/C4H10O/c1-2-3-4-5/h5H,2-4H2,1H3
Compound 4: butanone, C4H8O, InChI=1S/C4H8O/c1-3-4(2)5/h3H2,1-2H3
Compound 5: ethyl acetate, C4H8O2, InChI=1S/C4H8O2/c1-3-6-4(2)5/h3H2,1-2H3
Compound 6: toluene, C7H8, InChI=1S/C7H8/c1-7-5-3-2-4-6-7/h2-6H,1H3
Compound 7: sodium chloride, ClNa, InChI=1S/ClH.Na/h1H;/q;+1/p-1

System: cis-1,4-butenedioic acid + 4-methylpentan-2-one + sodium chloride; phases: Liquid, Crystal
Fixed: Temperature, K = 298
Fixed: Pressure, kPa = 101
Property: Mole fraction of cis-1,4-butenedioic acid (Liquid); method: Titration method
Solvent: Mass fraction of sodium chloride	Mole fraction of cis-1,4-butenedioic acid	uncertainty
0	4e-05	1e-05
0.05	5.01e-05	2e-07
0.1	7.02e-05	2e-07
0.15	8.99e-05	3e-07
0.2	0.000119945	3.6e-07

System: cis-1,4-butenedioic acid + butan-1-ol + sodium chloride; phases: Liquid, Crystal
Fixed: Temperature, K = 298
Fixed: Pressure, kPa = 101
Property: Mole fraction of cis-1,4-butenedioic acid (Liquid); method: Titration method
Solvent: Mass fraction of sodium chloride	Mole fraction of cis-1,4-butenedioic acid	uncertainty
0	9.99e-05	3e-07
0.05	0.000140104	4.2e-07
0.1	0.000180178	5.41e-07
0.15	0.000230086	6.9e-07
0.2	0.000280086	8.4e-07

System: cis-1,4-butenedioic acid + toluene + sodium chloride; phases: Liquid, Crystal
Fixed: Temperature, K = 298
Fixed: Pressure, kPa = 101
Property: Mole fraction of cis-1,4-butenedioic acid (Liquid); method: Titration method
Solvent: Mass fraction of sodium chloride	Mole fraction of cis-1,4-butenedioic acid	uncertainty
0	8.76e-06	3e-08
0.05	1.36e-05	1e-07
0.1	2.17e-05	1e-07
0.15	2.59e-05	1e-07
0.2	2.87e-05	1e-07

System: cis-1,4-butenedioic acid + ethyl acetate + sodium chloride; phases: Liquid, Crystal
Fixed: Temperature, K = 298
Fixed: Pressure, kPa = 101
Property: Mole fraction of cis-1,4-butenedioic acid (Liquid); method: Titration method
Solvent: Mass fraction of sodium chloride	Mole fraction of cis-1,4-butenedioic acid	uncertainty
0	2.98e-05	1e-07
0.05	4e-05	1e-05
0.1	6e-05	1e-05
0.15	8e-05	1e-05
0.2	9.98e-05	3e-07

System: cis-1,4-butenedioic acid + butanone + sodium chloride; phases: Liquid, Crystal
Fixed: Temperature, K = 298
Fixed: Pressure, kPa = 101
Property: Mole fraction of cis-1,4-butenedioic acid (Liquid); method: Titration method
Solvent: Mass fraction of sodium chloride	Mole fraction of cis-1,4-butenedioic acid	uncertainty
0	8e-05	1e-05
0.05	0.000109988	3.3e-07
0.1	0.000150199	4.51e-07
0.15	0.000189982	5.7e-07
0.2	0.000229841	6.9e-07
