Measured thermophysical data. Solubility of aspirin in supercritical carbon dioxide/alcohol mixtures
Source: Fluid Phase Equilib., 2005, 10.1016/j.fluid.2005.08.004
Compound 1: carbon dioxide, CO2, InChI=1S/CO2/c2-1-3
Compound 2: 2-acetoxybenzoic acid, C9H8O4, InChI=1S/C9H8O4/c1-6(10)13-8-5-3-2-4-7(8)9(11)12/h2-5H,1H3,(H,11,12)
Compound 3: methanol, CH4O, InChI=1S/CH4O/c1-2/h2H,1H3
Compound 4: ethanol, C2H6O, InChI=1S/C2H6O/c1-2-3/h3H,2H2,1H3

System: 2-acetoxybenzoic acid + methanol + carbon dioxide; phases: Fluid (supercritical or subcritical phases), Crystal
Fixed: Mole fraction of methanol = 0.03
Property: Mole fraction of 2-acetoxybenzoic acid (Fluid (supercritical or subcritical phases)); method: dynamic saturation method
Pressure, kPa	Temperature, K	Mole fraction of 2-acetoxybenzoic acid	uncertainty
10000	318.15	0.000697	0.00014
10000	328.15	0.000279	5.6e-05
12000	318.15	0.000979	0.000196
12000	328.15	0.000581	0.000116
15000	318.15	0.00117	0.00023
15000	328.15	0.00115	0.00023
17200	318.15	0.00136	0.00027
17200	328.15	0.00138	0.00028
20000	318.15	0.00154	0.00031
20000	328.15	0.00161	0.00032

System: 2-acetoxybenzoic acid + ethanol + carbon dioxide; phases: Fluid (supercritical or subcritical phases), Crystal
Fixed: Mole fraction of ethanol = 0.03
Property: Mole fraction of 2-acetoxybenzoic acid (Fluid (supercritical or subcritical phases)); method: dynamic saturation method
Pressure, kPa	Temperature, K	Mole fraction of 2-acetoxybenzoic acid	uncertainty
10000	318.15	0.000681	0.000136
10000	328.15	0.000315	6.3e-05
12000	318.15	0.000938	0.000188
12000	328.15	0.000722	0.000145
15000	318.15	0.00115	0.00023
15000	328.15	0.00128	0.00026
17200	318.15	0.00134	0.00027
17200	328.15	0.00149	0.0003
20000	318.15	0.00152	0.0003
20000	328.15	0.00164	0.00033
