Measured thermophysical data. Vapor-liquid and liquid-liquid equilibrium modeling of systems involving ethanol, water, and ethyl valerate (valeric acid) using the PC-SAFT equation of state
Source: Fluid Phase Equilib., 2018, 10.1016/j.fluid.2018.07.014
Compound 1: ethanol, C2H6O, InChI=1S/C2H6O/c1-2-3/h3H,2H2,1H3, purity 99.8%
Compound 2: ethyl pentanoate, C7H14O2, InChI=1S/C7H14O2/c1-3-5-6-7(8)9-4-2/h3-6H2,1-2H3, purity 98%
Compound 3: water, H2O, InChI=1S/H2O/h1H2, purity 99.8%

System: ethanol; phases: Liquid, Gas
Property: Boiling temperature at pressure P, K (Liquid); method: Closed cell (Static) method
Pressure, kPa	Boiling temperature at pressure P, K	uncertainty
9.6	303.3	7.1
13.7	309.9	5.2
23.8	320	3.9
38.9	330.1	3.1
54.5	337.5	2.7
69.5	342.8	2.4
91.7	349.7	2.4

System: ethyl pentanoate; phases: Liquid, Gas
Property: Boiling temperature at pressure P, K (Liquid); method: Closed cell (Static) method
Pressure, kPa	Boiling temperature at pressure P, K	uncertainty
7.1	345.4	10
8.9	350.7	9
13.9	361.1	6.9
24.1	374.9	4.9
39.1	388.3	3.7
52.7	395.7	3
69.3	403.9	2.9
91.7	414.9	2.9

System: water; phases: Liquid, Gas
Property: Boiling temperature at pressure P, K (Liquid); method: Closed cell (Static) method
Pressure, kPa	Boiling temperature at pressure P, K	uncertainty
6.9	311.9	8.5
9	317	7.7
14.1	326	6
24.1	337.4	4.3
39.5	348.8	3.4
54.3	356.9	2.8
69.5	363.1	2.6
92.1	371.1	2.5

System: ethanol + water; phases: Liquid, Gas
Fixed: Pressure, kPa = 91.4
Property: Boiling temperature at pressure P, K (Liquid); method: Closed cell (Static) method
Mole fraction of ethanol	Boiling temperature at pressure P, K	uncertainty
1	349.6	2.1
0.853	349.1	2.1
0.738	349.5	2.1
0.61	349.9	2.1
0.596	349.5	2.1
0.498	350.4	2.1
0.358	351.4	2.1
0.283	351.8	2.1
0.256	352.5	2.1
0.233	353.1	2.1
0.21	353.3	2.1
0.148	354.7	2.1
0.095	356.7	2.1
0.075	358.5	2.1
0.052	360.8	2.2
0.029	363.9	2.2
0	370	2.1

System: ethanol + ethyl pentanoate; phases: Liquid, Gas
Property: Boiling temperature at pressure P, K (Liquid); method: Closed cell (Static) method
Pressure, kPa	Mole fraction of ethanol	Boiling temperature at pressure P, K	uncertainty
91.4	1	349.1	2.3
91.4	0.894	350.7	2.2
91.4	0.785	352.2	2.2
91.4	0.695	353.7	2.5
91.4	0.645	354.8	2.5
91.4	0.593	355.9	2.5
91.4	0.542	357.4	2.9
91.4	0.492	359.6	2.8
91.4	0.436	359.7	2.9
91.4	0.358	361.9	2.7
91.4	0.303	362.6	3.7
91.4	0.225	369.9	4.1
91.4	0.186	374.6	4.1
91.4	0.098	386.2	3.2
91.4	0.063	394.7	3.7
91.4	0.032	401.1	3.8
91.4	0.024	405.1	3.8
91.4	0.019	404.9	3.8
91.4	0.005	410.3	3.6
91.4	0.003	414.1	3.8
91.4	0	414.4	3.2
6.9	0.801	301.5	7.5
6.9	0.6	301.9	8
6.9	0.5	302.1	7.3
6.9	0.204	305.3	6
6.9	0.033	316.8	11.2
6.9	0	341	8.4
8.9	1	303.3	6.2
8.9	0.801	305.7	7.2
8.9	0.6	305.5	7.8
8.9	0.5	306.1	6.8
8.9	0.204	309.5	4.3
8.9	0.033	322.5	10.6
8.9	0	345.5	7.9
13.7	1	309.9	5.1
13.7	0.801	312.7	5.4
13.7	0.6	314.3	5.4
13.7	0.5	313.7	5.3
13.7	0.204	318.3	5.3
13.7	0.033	333.9	10.6
13.7	0	354.1	6.4
23.9	1	320	3.9
23.9	0.801	323.9	4
23.9	0.6	324	3.9
23.9	0.5	324.5	4
23.9	0.204	329.8	3.8
23.9	0	367.5	5.2
39.1	1	330.1	3.2
39.1	0.801	333.8	3.1
39.1	0.6	334.5	3.2
39.1	0.5	335.1	3.2
39.1	0.204	341.3	3.3
39.1	0.033	358.1	4.7
39.1	0	383	4.2
54	1	337.5	2.7
54	0.801	341	2.8
54	0.6	341.9	2.8
54	0.5	342.3	2.7
54	0.204	348.5	2.7
54	0.033	368.4	5.2
54	0	393.5	3.3
69.5	1	342.8	2.4
69.5	0.801	347.3	2.4
69.5	0.6	348.1	2.6
69.5	0.5	348.3	2.8
69.5	0.204	354.3	3.3
69.5	0.033	386	4.7
69.5	0	401.5	3.1
