Measured thermophysical data. Thermodynamics of ketone + amine mixtures. Part X. Excess molarenthalpies at 298.15 K for N,N,N-triethylamine + 2-alkanone systems.Characterization of tertiary amine + 2-alkanone, and ofamino-ketone + n-alkane mixtures in terms of DISQUAC
Source: Fluid Phase Equilib., 2013, 10.1016/j.fluid.2013.07.037
Compound 1: acetone, C3H6O, InChI=1S/C3H6O/c1-3(2)4/h1-2H3, purity 99.8%
Compound 2: butanone, C4H8O, InChI=1S/C4H8O/c1-3-4(2)5/h3H2,1-2H3, purity 99.5%
Compound 3: pentan-2-one, C5H10O, InChI=1S/C5H10O/c1-3-4-5(2)6/h3-4H2,1-2H3, purity 99%
Compound 4: 2-heptanone, C7H14O, InChI=1S/C7H14O/c1-3-4-5-6-7(2)8/h3-6H2,1-2H3, purity 99%
Compound 5: triethylamine, C6H15N, InChI=1S/C6H15N/c1-4-7(5-2)6-3/h4-6H2,1-3H3, purity 99.5%

System: acetone; phases: Liquid
Property: Mass density, kg/m3 (Liquid); method: Vibrating tube method
Temperature, K	Pressure, kPa	Mass density, kg/m3	uncertainty
298.15	101.325	785.094	0.151

System: butanone; phases: Liquid
Property: Mass density, kg/m3 (Liquid); method: Vibrating tube method
Temperature, K	Pressure, kPa	Mass density, kg/m3	uncertainty
298.15	101.325	799.969	0.165

System: pentan-2-one; phases: Liquid
Property: Mass density, kg/m3 (Liquid); method: Vibrating tube method
Temperature, K	Pressure, kPa	Mass density, kg/m3	uncertainty
298.15	101.325	801.522	0.239

System: 2-heptanone; phases: Liquid
Property: Mass density, kg/m3 (Liquid); method: Vibrating tube method
Temperature, K	Pressure, kPa	Mass density, kg/m3	uncertainty
298.15	101.325	811.162	0.239

System: triethylamine; phases: Liquid
Property: Mass density, kg/m3 (Liquid); method: Vibrating tube method
Temperature, K	Pressure, kPa	Mass density, kg/m3	uncertainty
298.15	101.325	722.814	0.183

System: acetone + triethylamine; phases: Liquid
Fixed: Pressure, kPa = 100
Fixed: Temperature, K = 298.15
Property: Excess molar enthalpy (molar enthalpy of mixing), kJ/mol (Liquid); method: Calvet calorimetry
Mole fraction of triethylamine	Excess molar enthalpy (molar enthalpy of mixing), kJ/mol	uncertainty
0.1108	0.446	0.01
0.2016	0.674	0.015
0.3005	0.908	0.02
0.4042	1.011	0.022
0.4967	1.069	0.023
0.6123	1.028	0.022
0.7023	0.931	0.02
0.7881	0.767	0.017
0.8828	0.509	0.011

System: butanone + triethylamine; phases: Liquid
Fixed: Pressure, kPa = 100
Fixed: Temperature, K = 298.15
Property: Excess molar enthalpy (molar enthalpy of mixing), kJ/mol (Liquid); method: Calvet calorimetry
Mole fraction of triethylamine	Excess molar enthalpy (molar enthalpy of mixing), kJ/mol	uncertainty
0.1089	0.258	0.006
0.2107	0.455	0.01
0.3018	0.608	0.013
0.4042	0.7	0.015
0.5033	0.746	0.016
0.5906	0.735	0.016
0.7022	0.682	0.015
0.7876	0.57	0.012
0.8875	0.367	0.008

System: pentan-2-one + triethylamine; phases: Liquid
Fixed: Pressure, kPa = 100
Fixed: Temperature, K = 298.15
Property: Excess molar enthalpy (molar enthalpy of mixing), kJ/mol (Liquid); method: Calvet calorimetry
Mole fraction of triethylamine	Excess molar enthalpy (molar enthalpy of mixing), kJ/mol	uncertainty
0.1135	0.178	0.004
0.2162	0.336	0.007
0.3067	0.449	0.01
0.4077	0.534	0.012
0.5057	0.585	0.013
0.575	0.596	0.013
0.7077	0.548	0.012
0.8027	0.448	0.01
0.8907	0.3	0.007

System: 2-heptanone + triethylamine; phases: Liquid
Fixed: Pressure, kPa = 100
Fixed: Temperature, K = 298.15
Property: Excess molar enthalpy (molar enthalpy of mixing), kJ/mol (Liquid); method: Calvet calorimetry
Mole fraction of triethylamine	Excess molar enthalpy (molar enthalpy of mixing), kJ/mol	uncertainty
0.1292	0.119	0.003
0.2196	0.216	0.005
0.3104	0.291	0.006
0.4092	0.374	0.008
0.508	0.419	0.009
0.5973	0.432	0.009
0.7061	0.412	0.009
0.8014	0.344	0.008
0.8954	0.231	0.005
