Measured thermophysical data. The investigation on the vapor + liquid equilibrium for the ternary mixture isobutene (R600a) + 1,1-difluoroethane (R152a) + 1,1,2,2-tetrafluoroethane (R134) at temperatures from 253.150 to 273.150 K
Source: Fluid Phase Equilib., 2016, 10.1016/j.fluid.2015.08.020
Compound 1: 2-methylpropane, C4H10, InChI=1S/C4H10/c1-4(2)3/h4H,1-3H3, purity 99.9%
Compound 2: 1,1-difluoroethane, C2H4F2, InChI=1S/C2H4F2/c1-2(3)4/h2H,1H3, purity 99.9%
Compound 3: 1,1,2,2-tetrafluoroethane, C2H2F4, InChI=1S/C2H2F4/c3-1(4)2(5)6/h1-2H, purity 99.5%

System: 2-methylpropane + 1,1-difluoroethane + 1,1,2,2-tetrafluoroethane; phases: Liquid, Gas
Property: Azeotropic composition: mole fraction of 2-methylpropane (Liquid); method: By X=Y
Temperature, K	Pressure, kPa	Azeotropic composition: mole fraction of 2-methylpropane	uncertainty
273.15	300.2	0.371	0.0116
263.15	209.8	0.3823	0.0117
253.15	142	0.386	0.0118

System: 2-methylpropane + 1,1-difluoroethane + 1,1,2,2-tetrafluoroethane; phases: Liquid, Gas
Property: Azeotropic composition: mole fraction of 1,1-difluoroethane (Liquid); method: By X=Y
Temperature, K	Pressure, kPa	Azeotropic composition: mole fraction of 1,1-difluoroethane	uncertainty
273.15	300.2	0.3856	0.0117
263.15	209.8	0.3742	0.0117
253.15	142	0.359	0.0116

System: 2-methylpropane + 1,1-difluoroethane + 1,1,2,2-tetrafluoroethane; phases: Gas, Liquid
Property: Vapor or sublimation pressure, kPa (Gas); method: Closed cell (Static) method
Temperature, K	Mole fraction of 2-methylpropane	Mole fraction of 1,1-difluoroethane	Vapor or sublimation pressure, kPa	uncertainty
273.15	0.7387	0.1228	281.5	1.9
273.15	0.5952	0.0659	303.3	2.1
273.15	0.4163	0.3356	302.1	1.4
273.15	0.374	0.4039	301.5	1.6
273.15	0.3654	0.4184	300.1	1.6
273.15	0.3373	0.4626	300.1	1.4
273.15	0.3175	0.4947	300.3	1.4
273.15	0.3137	0.4971	299.5	1.4
273.15	0.31	0.499	299.4	1.4
273.15	0.1732	0.313	293.3	1.4
273.15	0.3804	0.2267	302.3	1.3
273.15	0.462	0.193	301.4	1.3
263.15	0.7393	0.1226	199.1	1.5
263.15	0.5965	0.0657	213.6	2.2
263.15	0.4142	0.3366	211.2	1.4
263.15	0.3735	0.4042	210.6	4.4
263.15	0.3645	0.419	209.4	2.6
263.15	0.3379	0.4625	210	1.3
263.15	0.318	0.4948	209.9	5042.3
263.15	0.3134	0.4973	209.2	5.7
263.15	0.3101	0.4989	209.2	39.8
263.15	0.1773	0.311	205.1	1.2
263.15	0.3802	0.2261	211.4	1.7
263.15	0.4615	0.1928	211.1	1.4
253.15	0.7989	0.0976	129.4	4.2
253.15	0.5716	0.0662	145.3	1.4
253.15	0.4145	0.3362	143.1	1.1
253.15	0.3666	0.4086	142.5	1.1
253.15	0.3647	0.4101	142.5	1.1
253.15	0.3273	0.4696	142.5	1.1
253.15	0.3196	0.4932	142.1	1.1
253.15	0.3134	0.497	141.7	25.9
253.15	0.3115	0.4976	141.5	62.3
253.15	0.1519	0.3264	139	1.1
253.15	0.3793	0.227	143.2	1.1
253.15	0.4581	0.1937	143	1.1

System: 2-methylpropane + 1,1-difluoroethane + 1,1,2,2-tetrafluoroethane; phases: Gas, Liquid
Property: Mole fraction of 2-methylpropane (Gas); method: Chromatography
Temperature, K	Mole fraction of 2-methylpropane	Mole fraction of 1,1-difluoroethane	Mole fraction of 2-methylpropane	uncertainty
273.15	0.7387	0.1228	0.4829	0.006
273.15	0.5952	0.0659	0.4219	0.0056
273.15	0.4163	0.3356	0.3881	0.0051
273.15	0.374	0.4039	0.3674	0.0045
273.15	0.3654	0.4184	0.3659	0.0045
273.15	0.3373	0.4626	0.3528	0.0048
273.15	0.3175	0.4947	0.3434	0.0048
273.15	0.3137	0.4971	0.3425	0.0048
273.15	0.31	0.499	0.3346	0.0057
273.15	0.1732	0.313	0.3056	0.0046
273.15	0.3804	0.2267	0.382	0.0042
273.15	0.462	0.193	0.4009	0.0044
263.15	0.7393	0.1226	0.4725	0.0057
263.15	0.5965	0.0657	0.4191	0.0052
263.15	0.4142	0.3366	0.3872	0.0046
263.15	0.3735	0.4042	0.374	0.0044
263.15	0.3645	0.419	0.3718	0.0042
263.15	0.3379	0.4625	0.3598	0.0044
263.15	0.318	0.4948	0.3503	0.3503
263.15	0.3134	0.4973	0.3515	0.0196
263.15	0.3101	0.4989	0.3499	0.0183
263.15	0.1773	0.311	0.3282	0.004
263.15	0.3802	0.2261	0.3894	0.004
263.15	0.4615	0.1928	0.4044	0.0042
253.15	0.7989	0.0976	0.5003	0.0062
253.15	0.5716	0.0662	0.4166	0.0057
253.15	0.4145	0.3362	0.3959	0.0042
253.15	0.3666	0.4086	0.3816	0.0041
253.15	0.3647	0.4101	0.3794	0.0041
253.15	0.3273	0.4696	0.3682	0.0054
253.15	0.3196	0.4932	0.3597	0.0053
253.15	0.3134	0.497	0.3592	0.0061
253.15	0.3115	0.4976	0.36	0.0205
253.15	0.1519	0.3264	0.349	0.0039
253.15	0.3793	0.227	0.3976	0.004
253.15	0.4581	0.1937	0.409	0.0041

System: 2-methylpropane + 1,1-difluoroethane + 1,1,2,2-tetrafluoroethane; phases: Gas, Liquid
Property: Mole fraction of 1,1-difluoroethane (Gas); method: Chromatography
Temperature, K	Mole fraction of 2-methylpropane	Mole fraction of 1,1-difluoroethane	Mole fraction of 1,1-difluoroethane	uncertainty
273.15	0.7387	0.1228	0.2327	0.0146
273.15	0.5952	0.0659	0.0802	0.0156
273.15	0.4163	0.3356	0.3481	0.0122
273.15	0.374	0.4039	0.411	0.01
273.15	0.3654	0.4184	0.4194	0.01
273.15	0.3373	0.4626	0.4553	0.0117
273.15	0.3175	0.4947	0.4803	0.0113
273.15	0.3137	0.4971	0.4801	0.0112
273.15	0.31	0.499	0.4858	0.0117
273.15	0.1732	0.313	0.2542	0.011
273.15	0.3804	0.2267	0.2141	0.0119
273.15	0.462	0.193	0.204	0.0119
263.15	0.7393	0.1226	0.2359	0.015
263.15	0.5965	0.0657	0.0791	0.0154
263.15	0.4142	0.3366	0.3503	0.0124
263.15	0.3735	0.4042	0.4072	0.011
263.15	0.3645	0.419	0.4174	0.0114
263.15	0.3379	0.4625	0.4519	0.0118
263.15	0.318	0.4948	0.4766	0.1747
263.15	0.3134	0.4973	0.4744	0.0079
263.15	0.3101	0.4989	0.475	0.0073
263.15	0.1773	0.311	0.2426	0.0108
263.15	0.3802	0.2261	0.2104	0.0123
263.15	0.4615	0.1928	0.2015	0.0123
253.15	0.7989	0.0976	0.2281	0.0162
253.15	0.5716	0.0662	0.0777	0.0146
253.15	0.4145	0.3362	0.3471	0.0126
253.15	0.3666	0.4086	0.4029	0.0119
253.15	0.3647	0.4101	0.4131	0.0122
253.15	0.3273	0.4696	0.4471	0.0122
253.15	0.3196	0.4932	0.4708	0.0123
253.15	0.3134	0.497	0.4707	0.011
253.15	0.3115	0.4976	0.4688	0.0113
253.15	0.1519	0.3264	0.2343	0.011
253.15	0.3793	0.227	0.2069	0.0124
253.15	0.4581	0.1937	0.199	0.0124
