Measured thermophysical data. Solid-liquid phase equilibria in aqueous solutions of four common fertilizers at 303.2 K and atmospheric pressure
Source: Fluid Phase Equilib., 2018, 10.1016/j.fluid.2018.07.016
Compound 1: ammonium dihydrogen phosphate, H6NO4P, InChI=1S/H3N.H3O4P/c;1-5(2,3)4/h1H3;(H3,1,2,3,4), purity 99%
Compound 2: diammonium hydrogen phosphate, H9N2O4P, InChI=1S/2H3N.H3O4P/c;;1-5(2,3)4/h2*1H3;(H3,1,2,3,4), purity 99%
Compound 3: urea, CH4N2O, InChI=1S/CH4N2O/c2-1(3)4/h(H4,2,3,4), purity 99%
Compound 4: potassium sulfate, K2O4S, InChI=1S/2K.H2O4S/c;;1-5(2,3)4/h;;(H2,1,2,3,4)/q2*+1;/p-2, purity 99%
Compound 5: water, H2O, InChI=1S/H2O/h1H2, purity 99.9%

System: ammonium dihydrogen phosphate + water; phases: Liquid, Crystal
Property: Mass fraction of ammonium dihydrogen phosphate (Liquid); method: Phase equilibration
Temperature, K	Pressure, kPa	Mass fraction of ammonium dihydrogen phosphate	uncertainty
303.2	101	0.3138	0.0024

System: ammonium dihydrogen phosphate + water; phases: Liquid, Crystal
Property: Mass density, kg/m3 (Liquid); method: Pycnometric method
Temperature, K	Pressure, kPa	Mass density, kg/m3	uncertainty
303.2	101	1186	1.3

System: diammonium hydrogen phosphate + water; phases: Liquid, Crystal
Property: Mass fraction of diammonium hydrogen phosphate (Liquid); method: Phase equilibration
Temperature, K	Pressure, kPa	Mass fraction of diammonium hydrogen phosphate	uncertainty
303.2	101	0.424	0.0032

System: diammonium hydrogen phosphate + water; phases: Liquid, Crystal
Property: Mass density, kg/m3 (Liquid); method: Pycnometric method
Temperature, K	Pressure, kPa	Mass density, kg/m3	uncertainty
303.2	101	1254.1	1.4

System: urea + water; phases: Liquid, Crystal
Property: Mass fraction of urea (Liquid); method: Phase equilibration
Temperature, K	Pressure, kPa	Mass fraction of urea	uncertainty
303.2	101	0.5721	0.0035

System: urea + water; phases: Liquid, Crystal
Property: Mass density, kg/m3 (Liquid); method: Pycnometric method
Temperature, K	Pressure, kPa	Mass density, kg/m3	uncertainty
303.2	101	1158.2	1.3

System: potassium sulfate + water; phases: Liquid, Crystal
Property: Mass fraction of potassium sulfate (Liquid); method: Phase equilibration
Temperature, K	Pressure, kPa	Mass fraction of potassium sulfate	uncertainty
303.2	101	0.1171	0.0007

System: potassium sulfate + water; phases: Liquid, Crystal
Property: Mass density, kg/m3 (Liquid); method: Pycnometric method
Temperature, K	Pressure, kPa	Mass density, kg/m3	uncertainty
303.2	101	1091.2	1.2

System: ammonium dihydrogen phosphate + urea + water; phases: Liquid, Crystal
Fixed: Temperature, K = 303.2
Fixed: Pressure, kPa = 101
Property: Mass fraction of urea (Liquid); method: Phase equilibration
Mass fraction of ammonium dihydrogen phosphate	Mass fraction of urea	uncertainty
0	0.5721	0.0035
0.0363	0.5361	0.0037
0.0712	0.5108	0.0039
0.1015	0.4979	0.0039
0.1314	0.4899	0.0039
0.1486	0.4891	0.0039

System: ammonium dihydrogen phosphate + urea + water; phases: Liquid, Crystal
Fixed: Temperature, K = 303.2
Fixed: Pressure, kPa = 101
Property: Mass fraction of urea (Liquid); method: Phase equilibration
Mass fraction of ammonium dihydrogen phosphate	Mass fraction of urea	uncertainty
0.1486	0.4891	0.0085
0.1558	0.4381	0.0057
0.1731	0.3857	0.0057
0.1825	0.3323	0.008
0.1928	0.2727	0.0045
0.2208	0.2152	0.0033
0.2544	0.1646	0.0039
0.2802	0.0944	0.0056
0.3138	0	

System: ammonium dihydrogen phosphate + urea + water; phases: Liquid, Crystal
Fixed: Temperature, K = 303.2
Fixed: Pressure, kPa = 101
Property: Mass density, kg/m3 (Liquid); method: Pycnometric method
Mass fraction of ammonium dihydrogen phosphate	Mass density, kg/m3	uncertainty
0	1158.2	1.3
0.0363	1181.1	1.3
0.0712	1201	1.4
0.1015	1219	1.4
0.1314	1234	1.4
0.1486	1239.8	1.4

System: ammonium dihydrogen phosphate + urea + water; phases: Liquid, Crystal
Fixed: Temperature, K = 303.2
Fixed: Pressure, kPa = 101
Property: Mass density, kg/m3 (Liquid); method: Pycnometric method
Mass fraction of ammonium dihydrogen phosphate	Mass density, kg/m3	uncertainty
0.1486	1239.8	1.9
0.1558	1230.6	1.7
0.1731	1218.7	1.6
0.1825	1211.9	1.5
0.1928	1209.5	1.4
0.2208	1197.8	1.4
0.2544	1189.2	1.4
0.2802	1186.1	1.3
0.3138	1186	1.3

System: diammonium hydrogen phosphate + urea + water; phases: Liquid, Crystal
Fixed: Temperature, K = 303.2
Fixed: Pressure, kPa = 101
Property: Mass fraction of urea (Liquid); method: Phase equilibration
Mass fraction of diammonium hydrogen phosphate	Mass fraction of urea	uncertainty
0.0874	0.4927	0.0042
0.1037	0.449	0.004
0.1253	0.3964	0.0036
0.1477	0.3573	0.0033
0.1801	0.3047	0.0032
0.2241	0.2319	0.0029
0.2774	0.1698	0.0028
0.3393	0.0895	0.0029
0.424	0	

System: diammonium hydrogen phosphate + urea + water; phases: Liquid, Crystal
Fixed: Temperature, K = 303.2
Fixed: Pressure, kPa = 101
Property: Mass fraction of urea (Liquid); method: Phase equilibration
Mass fraction of diammonium hydrogen phosphate	Mass fraction of urea	uncertainty
0	0.5721	0.0035
0.0201	0.5406	0.0037
0.0438	0.5199	0.0038
0.0601	0.5078	0.0039
0.0874	0.4927	0.0039

System: diammonium hydrogen phosphate + urea + water; phases: Liquid, Crystal
Fixed: Temperature, K = 303.2
Fixed: Pressure, kPa = 101
Property: Mass density, kg/m3 (Liquid); method: Pycnometric method
Mass fraction of diammonium hydrogen phosphate	Mass density, kg/m3	uncertainty
0	1158.2	1.3
0.0201	1174.1	1.3
0.0438	1182.2	1.3
0.0601	1191	1.3
0.0874	1197	1.3

System: diammonium hydrogen phosphate + urea + water; phases: Liquid, Crystal
Fixed: Temperature, K = 303.2
Fixed: Pressure, kPa = 101
Property: Mass density, kg/m3 (Liquid); method: Pycnometric method
Mass fraction of diammonium hydrogen phosphate	Mass density, kg/m3	uncertainty
0.0874	1197	1.3
0.1037	1196.7	1.3
0.1253	1196.1	1.3
0.1477	1194	1.3
0.1801	1196.8	1.3
0.2241	1204	1.4
0.2774	1215.2	1.4
0.3393	1227.7	1.5
0.424	1254.1	1.7

System: potassium sulfate + urea + water; phases: Liquid, Crystal
Fixed: Temperature, K = 303.2
Fixed: Pressure, kPa = 101
Property: Mass fraction of urea (Liquid); method: Phase equilibration
Mass fraction of potassium sulfate	Mass fraction of urea	uncertainty
0.1171	0	
0.0917	0.0929	0.0021
0.0722	0.1771	0.0024
0.0605	0.2521	0.0032
0.0561	0.306	0.0041
0.0478	0.393	0.0041
0.044	0.4327	0.0042
0.0393	0.479	0.0042
0.034	0.5169	0.0041
0.0303	0.55	0.0039

System: potassium sulfate + urea + water; phases: Liquid, Crystal
Fixed: Temperature, K = 303.2
Fixed: Pressure, kPa = 101
Property: Mass fraction of urea (Liquid); method: Phase equilibration
Mass fraction of potassium sulfate	Mass fraction of urea	uncertainty
0.0303	0.55	0.0036
0.0226	0.5509	0.0036
0.0168	0.5511	0.0036
0.0117	0.5562	0.0036
0.0053	0.5617	0.0035
0	0.5721	0.0035

System: potassium sulfate + urea + water; phases: Liquid, Crystal
Fixed: Temperature, K = 303.2
Fixed: Pressure, kPa = 101
Property: Mass density, kg/m3 (Liquid); method: Pycnometric method
Mass fraction of potassium sulfate	Mass density, kg/m3	uncertainty
0.1171	1091.2	1.3
0.0917	1104.9	1.3
0.0722	1117.4	1.3
0.0605	1129.1	1.3
0.0561	1139.1	1.4
0.0478	1157.9	1.4
0.044	1164.2	1.4
0.0393	1172.8	1.4
0.034	1183.7	1.4
0.0303	1188.5	1.3

System: potassium sulfate + urea + water; phases: Liquid, Crystal
Fixed: Temperature, K = 303.2
Fixed: Pressure, kPa = 101
Property: Mass density, kg/m3 (Liquid); method: Pycnometric method
Mass fraction of potassium sulfate	Mass density, kg/m3	uncertainty
0.0303	1188.5	1.3
0.0226	1183.7	1.3
0.0168	1182.7	1.3
0.0117	1180.2	1.3
0.0053	1175.7	1.3
0	1158.2	1.3

System: potassium sulfate + ammonium dihydrogen phosphate + water; phases: Liquid, Crystal
Fixed: Temperature, K = 303.2
Fixed: Pressure, kPa = 101
Property: Mass fraction of ammonium dihydrogen phosphate (Liquid); method: Phase equilibration
Mass fraction of potassium sulfate	Mass fraction of ammonium dihydrogen phosphate	uncertainty
0.1171	0	
0.1234	0.0735	0.007
0.1279	0.1371	0.0117
0.1302	0.1909	0.0165
0.1213	0.2363	0.0119
0.113	0.2458	0.0366

System: potassium sulfate + ammonium dihydrogen phosphate + water; phases: Liquid, Crystal
Fixed: Temperature, K = 303.2
Fixed: Pressure, kPa = 101
Property: Mass fraction of ammonium dihydrogen phosphate (Liquid); method: Phase equilibration
Mass fraction of potassium sulfate	Mass fraction of ammonium dihydrogen phosphate	uncertainty
0.113	0.2458	0.002
0.1017	0.2598	0.002
0.0884	0.2735	0.0021
0.0783	0.2811	0.0021
0.0677	0.2902	0.0022
0.0537	0.3009	0.0023
0.0303	0.3073	0.0023
0	0.3138	0.0024

System: potassium sulfate + ammonium dihydrogen phosphate + water; phases: Liquid, Crystal
Fixed: Temperature, K = 303.2
Fixed: Pressure, kPa = 101
Property: Mass density, kg/m3 (Liquid); method: Pycnometric method
Mass fraction of potassium sulfate	Mass density, kg/m3	uncertainty
0.1171	1091.2	1.3
0.1234	1154.1	3.2
0.1279	1204.6	7.8
0.1302	1229.3	7.7
0.1213	1253.2	9.3
0.113	1261.7	25.4

System: potassium sulfate + ammonium dihydrogen phosphate + water; phases: Liquid, Crystal
Fixed: Temperature, K = 303.2
Fixed: Pressure, kPa = 101
Property: Mass density, kg/m3 (Liquid); method: Pycnometric method
Mass fraction of potassium sulfate	Mass density, kg/m3	uncertainty
0.113	1261.7	1.4
0.1017	1257	1.4
0.0884	1249.1	1.4
0.0783	1244.1	1.4
0.0677	1235.6	1.4
0.0537	1219.6	1.4
0.0303	1199.3	1.3
0	1186	1.3

System: potassium sulfate + diammonium hydrogen phosphate + water; phases: Liquid, Crystal
Fixed: Temperature, K = 303.2
Fixed: Pressure, kPa = 101
Property: Mass fraction of diammonium hydrogen phosphate (Liquid); method: Phase equilibration
Mass fraction of potassium sulfate	Mass fraction of diammonium hydrogen phosphate	uncertainty
0.1171	0	
0.1286	0.085	0.006
0.1213	0.1478	0.0038
0.1166	0.2031	0.2031
0.1114	0.2532	0.0037
0.1035	0.2756	0.0029
0.0982	0.3015	0.005
0.0968	0.3417	0.0051
0.0918	0.364	0.005
0.0907	0.3734	0.0037
0.0897	0.3744	0.0029

System: potassium sulfate + diammonium hydrogen phosphate + water; phases: Liquid, Crystal
Fixed: Temperature, K = 303.2
Fixed: Pressure, kPa = 101
Property: Mass fraction of diammonium hydrogen phosphate (Liquid); method: Phase equilibration
Mass fraction of potassium sulfate	Mass fraction of diammonium hydrogen phosphate	uncertainty
0.0897	0.3744	0.0028
0.0646	0.3805	0.0029
0.0493	0.393	0.003
0.034	0.4056	0.003
0.0188	0.4094	0.0031
0	0.424	0.0032

System: potassium sulfate + diammonium hydrogen phosphate + water; phases: Liquid, Crystal
Fixed: Temperature, K = 303.2
Fixed: Pressure, kPa = 101
Property: Mass density, kg/m3 (Liquid); method: Pycnometric method
Mass fraction of potassium sulfate	Mass density, kg/m3	uncertainty
0.0897	1305.9	1.5
0.0646	1299.4	1.5
0.0493	1286	1.5
0.034	1274.7	1.4
0.0188	1266.2	1.4
0	1254.1	1.4

System: potassium sulfate + diammonium hydrogen phosphate + water; phases: Liquid, Crystal
Fixed: Temperature, K = 303.2
Fixed: Pressure, kPa = 101
Property: Mass density, kg/m3 (Liquid); method: Pycnometric method
Mass fraction of potassium sulfate	Mass density, kg/m3	uncertainty
0.1171	1091.2	172.8
0.1286	1158	3.8
0.1213	1195.6	3.3
0.1166	1227.8	172
0.1114	1254.1	2.4
0.1035	1271.8	2.1
0.0982	1291.6	2.6
0.0968	1299.1	1.6
0.0918	1302.4	1.6
0.0907	1304.1	1.7
0.0897	1305.9	1.7
