Measured thermophysical data. Measurement and correlation of vapor liquid equilibria for methanol + methyl laurate and methanol + methyl myristate systems near critical temperature of methanol
Source: Fluid Phase Equilib., 2007, 10.1016/j.fluid.2007.01.034
Compound 1: methanol, CH4O, InChI=1S/CH4O/c1-2/h2H,1H3
Compound 2: methyl dodecanoate, C13H26O2, InChI=1S/C13H26O2/c1-3-4-5-6-7-8-9-10-11-12-13(14)15-2/h3-12H2,1-2H3
Compound 3: methyl tetradecanoate, C15H30O2, InChI=1S/C15H30O2/c1-3-4-5-6-7-8-9-10-11-12-13-14-15(16)17-2/h3-14H2,1-2H3

System: methanol + methyl dodecanoate; phases: Liquid, Gas
Property: Vapor or sublimation pressure, kPa (Liquid); method: CCELL:UFactor:8
Mole fraction of methanol	Temperature, K	Vapor or sublimation pressure, kPa	uncertainty
0.433	493	2160	70
0.473	543	4090	110
0.525	493	2630	80
0.535	523	3810	100
0.557	543	4880	130
0.587	523	4290	120
0.61	493	3200	90
0.62	543	5530	140
0.656	523	4900	130
0.68	543	6270	170
0.699	493	3700	110
0.712	523	5520	150
0.742	543	7140	190
0.769	493	4110	120
0.783	523	6200	170
0.801	543	7920	210
0.842	493	4480	140
0.842	543	8490	230
0.886	523	7280	200
0.895	493	4830	150

System: methanol + methyl dodecanoate; phases: Gas, Liquid
Property: Mole fraction of methanol (Gas); method: Chromatography
Mole fraction of methanol	Temperature, K	Mole fraction of methanol	uncertainty
0.433	493	0.999	0.0006
0.473	543	0.9998	0.0002
0.525	493	0.9991	0.0006
0.535	523	0.999	0.0006
0.557	543	0.9998	0.0002
0.587	523	0.9991	0.0006
0.61	493	0.9994	0.0006
0.62	543	0.9997	0.0003
0.656	523	0.9993	0.0006
0.68	543	0.999	0.0006
0.699	493	0.9988	0.0006
0.712	523	0.9994	0.0006
0.742	543	0.9997	0.0003
0.769	493	0.9995	0.0005
0.783	523	0.9996	0.0004
0.801	543	0.997	0.0008
0.842	493	0.9995	0.0005
0.842	543	0.98	0.0021
0.886	523	0.9999	0.0001
0.895	493	0.9986	0.0006

System: methanol + methyl tetradecanoate; phases: Liquid, Gas
Property: Vapor or sublimation pressure, kPa (Liquid); method: CCELL:UFactor:4
Mole fraction of methanol	Temperature, K	Vapor or sublimation pressure, kPa	uncertainty
0.397	523	2780	60
0.47	543	4020	70
0.472	493	2410	60
0.511	523	3680	70
0.533	493	2770	60
0.591	543	5240	90
0.601	493	3190	70
0.617	523	4620	80
0.634	543	5780	90
0.67	543	6230	100
0.694	493	3700	80
0.724	523	5650	100
0.738	543	7200	110
0.777	493	4200	90
0.782	543	7790	130
0.797	523	6400	110
0.829	543	8420	140
0.857	523	7070	120
0.898	493	4880	110

System: methanol + methyl tetradecanoate; phases: Gas, Liquid
Property: Mole fraction of methanol (Gas); method: Chromatography
Mole fraction of methanol	Temperature, K	Mole fraction of methanol	uncertainty
0.397	523	0.9994	0.0002
0.47	543	0.9994	0.0002
0.472	493	0.9997	0.0002
0.511	523	0.9993	0.0002
0.533	493	0.9997	0.0002
0.591	543	0.9993	0.0002
0.601	493	0.9996	0.0002
0.617	523	0.9994	0.0002
0.634	543	0.9993	0.0002
0.67	543	0.9992	0.0002
0.694	493	0.9996	0.0002
0.724	523	0.9996	0.0002
0.738	543	0.9993	0.0002
0.777	493	0.9999	0.0001
0.782	543	0.9995	0.0003
0.797	523	0.9998	0.0002
0.829	543	0.991	0.0007
0.857	523	0.9999	0.0001
0.898	493	0.9999	0.0001
