Measured thermophysical data. The role of organic diluents in the aspects of equilibrium, kinetics and thermodynamic model for silver ion extraction using an extractant D2EHPA
Source: Fluid Phase Equilib., 2015, 10.1016/j.fluid.2014.12.033
Compound 1: water, H2O, InChI=1S/H2O/h1H2
Compound 2: bis(2-ethylhexyl) hydrogen phosphate, C16H35O4P, InChI=1S/C16H35O4P/c1-5-9-11-15(7-3)13-19-21(17,18)20-14-16(8-4)12-10-6-2/h15-16H,5-14H2,1-4H3,(H,17,18), purity 95%
Compound 3: cyclohexane, C6H12, InChI=1S/C6H12/c1-2-4-6-5-3-1/h1-6H2, purity 99.7%
Compound 4: trichloromethane, CHCl3, InChI=1S/CHCl3/c2-1(3)4/h1H, purity 99.2%
Compound 5: octan-1-ol, C8H18O, InChI=1S/C8H18O/c1-2-3-4-5-6-7-8-9/h9H,2-8H2,1H3, purity 99%

System: bis(2-ethylhexyl) hydrogen phosphate; phases: Liquid, Gas
Property: Normal boiling temperature, K (Liquid); method: DSC
Normal boiling temperature, K	uncertainty
533	16

System: cyclohexane; phases: Liquid, Gas
Property: Normal boiling temperature, K (Liquid); method: Distillation
Normal boiling temperature, K	uncertainty
355	1

System: trichloromethane; phases: Liquid, Gas
Property: Normal boiling temperature, K (Liquid); method: Distillation
Normal boiling temperature, K	uncertainty
335	1

System: octan-1-ol; phases: Liquid, Gas
Property: Normal boiling temperature, K (Liquid); method: Distillation
Normal boiling temperature, K	uncertainty
466	1

System: bis(2-ethylhexyl) hydrogen phosphate + water; phases: Liquid mixture 1, Liquid mixture 2
Property: Mass ratio of solute to solvent of bis(2-ethylhexyl) hydrogen phosphate (Liquid mixture 1); method: titration
Temperature, K	Pressure, kPa	Mass ratio of solute to solvent of bis(2-ethylhexyl) hydrogen phosphate	uncertainty
298.2	100	0.000847	2.5e-05

System: bis(2-ethylhexyl) hydrogen phosphate + water; phases: Liquid mixture 1, Liquid mixture 2
Fixed: Temperature, K = 298.2
Fixed: Pressure, kPa = 100
Property: Mass fraction of bis(2-ethylhexyl) hydrogen phosphate (Liquid mixture 1); method: Titration method
Mass fraction of bis(2-ethylhexyl) hydrogen phosphate	uncertainty
0.9995	0.0005
0.0008	0.0008

System: cyclohexane + water; phases: Liquid mixture 1, Liquid mixture 2
Property: Mass ratio of solute to solvent of cyclohexane (Liquid mixture 1); method: titration
Temperature, K	Pressure, kPa	Mass ratio of solute to solvent of cyclohexane	uncertainty
298.2	100	6.2e-05	2e-06

System: cyclohexane + water; phases: Liquid mixture 1, Liquid mixture 2
Fixed: Temperature, K = 298.2
Fixed: Pressure, kPa = 100
Property: Mass fraction of water (Liquid mixture 1); method: Titration method
Mass fraction of water	uncertainty
0.0006	0.0006
0.9999	0.0001

System: trichloromethane + water; phases: Liquid mixture 1, Liquid mixture 2
Property: Mass ratio of solute to solvent of trichloromethane (Liquid mixture 1); method: titration
Temperature, K	Pressure, kPa	Mass ratio of solute to solvent of trichloromethane	uncertainty
298.2	100	0.007455	0.000224

System: trichloromethane + water; phases: Liquid mixture 1, Liquid mixture 2
Fixed: Temperature, K = 298.2
Fixed: Pressure, kPa = 100
Property: Mass fraction of water (Liquid mixture 1); method: Titration method
Mass fraction of water	uncertainty
0.0002	0.0002
0.9926	0.0016

System: octan-1-ol + water; phases: Liquid mixture 1, Liquid mixture 2
Property: Mass ratio of solute to solvent of octan-1-ol (Liquid mixture 1); method: titration
Temperature, K	Pressure, kPa	Mass ratio of solute to solvent of octan-1-ol	uncertainty
298.2	100	0.000543	1.6e-05

System: octan-1-ol + water; phases: Liquid mixture 1, Liquid mixture 2
Fixed: Temperature, K = 298.2
Fixed: Pressure, kPa = 100
Property: Mass fraction of water (Liquid mixture 1); method: Titration method
Mass fraction of water	uncertainty
0.0401	0.0017
0.9995	0.0005

System: cyclohexane + bis(2-ethylhexyl) hydrogen phosphate + water; phases: Liquid mixture 1, Liquid mixture 2
Fixed: Pressure, kPa = 100
Fixed: Temperature, K = 298.2
Property: Mass fraction of bis(2-ethylhexyl) hydrogen phosphate (Liquid mixture 1); method: Titration method
Mass fraction of water	Mass fraction of bis(2-ethylhexyl) hydrogen phosphate	uncertainty
0.0006	0	
0.0005	0.0846	0.0214
0.0012	0.1587	0.0414
0.0019	0.2507	0.0331
0.0067	0.3472	0.0634
0.0082	0.4647	0.067
0.01	0.5791	0.1124
0.0122	0.6788	0.0862
0.0128	0.7729	0.111
0.0122	0.8558	0.1442
0.0005	0.9995	0.0005
0.9999	0	
0.9992	0.0008	0.0008

System: cyclohexane + bis(2-ethylhexyl) hydrogen phosphate + water; phases: Liquid mixture 2, Liquid mixture 1
Fixed: Temperature, K = 298.2
Fixed: Pressure, kPa = 100
Property: Mass fraction of water (Liquid mixture 2); method: FT-IR
Property: Mass fraction of water (Liquid mixture 1); method: FT-IR
Property: Mass fraction of bis(2-ethylhexyl) hydrogen phosphate (Liquid mixture 1); method: FT-IR
Mass fraction of bis(2-ethylhexyl) hydrogen phosphate	Mass fraction of water	uncertainty	Mass fraction of water	uncertainty	Mass fraction of bis(2-ethylhexyl) hydrogen phosphate	uncertainty
0.0283	0.0017	0.0017	0.9948	0.002	0.0011	
0.8847	0.0132	0.002	0.9952	0.002	0.0018	
0.0896	0.0019	0.0019	0.9949	0.002	0.0012	
0.2063	0.0019	0.0019	0.9948	0.002	0.0013	
0.3078	0.002	0.002	0.995	0.002	0.002	
0.4054	0.003	0.002	0.9947	0.002	0.0017	
0.5458	0.0062	0.002	0.9948	0.002	0.0019	
0.6107	0.0085	0.002	0.9949	0.002	0.0021	
0.7227	0.0112	0.002	0.9951	0.002	0.0022	
0.8039	0.0121	0.002	0.9948	0.002	0.0023	

System: trichloromethane + bis(2-ethylhexyl) hydrogen phosphate + water; phases: Liquid mixture 1, Liquid mixture 2
Fixed: Pressure, kPa = 100
Fixed: Temperature, K = 298.2
Property: Mass fraction of bis(2-ethylhexyl) hydrogen phosphate (Liquid mixture 1); method: Titration method
Mass fraction of water	Mass fraction of bis(2-ethylhexyl) hydrogen phosphate	uncertainty
0.0002	0	
0.0012	0.0571	0.0424
0.0027	0.1356	0.0612
0.0063	0.2372	0.042
0.011	0.3509	0.0478
0.0146	0.4807	0.0999
0.0151	0.5849	0.1005
0.0161	0.6601	0.0976
0.0174	0.754	0.1564
0.0152	0.8603	0.1132
0.0005	0.9995	0.0005
0.9926	0	
0.9992	0.0008	0.0008

System: trichloromethane + bis(2-ethylhexyl) hydrogen phosphate + water; phases: Liquid mixture 1, Liquid mixture 2
Fixed: Temperature, K = 298.2
Fixed: Pressure, kPa = 100
Property: Mass fraction of water (Liquid mixture 1); method: FT-IR
Property: Mass fraction of water (Liquid mixture 2); method: FT-IR
Property: Mass fraction of bis(2-ethylhexyl) hydrogen phosphate (Liquid mixture 2); method: FT-IR
Mass fraction of bis(2-ethylhexyl) hydrogen phosphate	Mass fraction of water	uncertainty	Mass fraction of water	uncertainty	Mass fraction of bis(2-ethylhexyl) hydrogen phosphate	uncertainty
0.0011	0.9947	0.002	0.0018	0.0018	0.0274	
0.0013	0.9948	0.002	0.0019	0.0019	0.0542	
0.0021	0.995	0.002	0.002	0.002	0.1169	
0.0028	0.9951	0.002	0.0026	0.002	0.1754	
0.0034	0.9949	0.0021	0.0082	0.002	0.3151	
0.0051	0.9938	0.0023	0.0114	0.002	0.3704	
0.0059	0.9935	0.0025	0.0142	0.002	0.4893	
0.0075	0.9924	0.0027	0.0161	0.002	0.5611	
0.0092	0.9906	0.0027	0.0178	0.002	0.6516	
0.0114	0.9884	0.002	0.0192	0.002	0.7578	

System: octan-1-ol + bis(2-ethylhexyl) hydrogen phosphate + water; phases: Liquid mixture 1, Liquid mixture 2
Fixed: Pressure, kPa = 100
Fixed: Temperature, K = 298.2
Property: Mass fraction of bis(2-ethylhexyl) hydrogen phosphate (Liquid mixture 1); method: Titration method
Mass fraction of water	Mass fraction of bis(2-ethylhexyl) hydrogen phosphate	uncertainty
0.0401	0	
0.0385	0.0714	0.0636
0.04	0.1371	0.1097
0.0409	0.2258	0.0451
0.0372	0.3289	0.1201
0.0341	0.4513	0.0585
0.0308	0.5565	0.0709
0.0293	0.6588	0.07
0.0271	0.7542	0.0733
0.0244	0.8448	0.0539
0.0005	0.9995	0.0005
0.9995	0	
0.9992	0.0008	0.0008

System: octan-1-ol + bis(2-ethylhexyl) hydrogen phosphate + water; phases: Liquid mixture 1, Liquid mixture 2
Fixed: Temperature, K = 298.2
Fixed: Pressure, kPa = 100
Property: Mass fraction of water (Liquid mixture 1); method: FT-IR
Property: Mass fraction of water (Liquid mixture 2); method: FT-IR
Property: Mass fraction of bis(2-ethylhexyl) hydrogen phosphate (Liquid mixture 2); method: FT-IR
Mass fraction of bis(2-ethylhexyl) hydrogen phosphate	Mass fraction of water	uncertainty	Mass fraction of water	uncertainty	Mass fraction of bis(2-ethylhexyl) hydrogen phosphate	uncertainty
0.0012	0.9932	0.002	0.0414	0.0022	0.0412	
0.0049	0.994	0.002	0.0411	0.0022	0.0708	
0.0053	0.9935	0.002	0.0431	0.0022	0.1742	
0.0064	0.9928	0.002	0.0421	0.0022	0.3051	
0.0078	0.9919	0.002	0.0387	0.0022	0.3879	
0.0085	0.9902	0.002	0.0327	0.0021	0.4906	
0.0093	0.99	0.002	0.0317	0.0021	0.5596	
0.0096	0.9898	0.002	0.031	0.0021	0.6829	
0.0051	0.9945	0.002	0.0296	0.0021	0.7721	
0.0039	0.9931	0.002	0.0244	0.0021	0.8739	
