Measured thermophysical data. Solubility of carbon dioxide and hydrogen sulfide in the ionic liquid 1-butyl-3-methylimidazolium trifluoromethanesulfonate
Source: Fluid Phase Equilib., 2017, 10.1016/j.fluid.2017.09.003
Compound 1: hydrogen sulfide, H2S, InChI=1S/H2S/h1H2, purity 99.5%
Compound 2: carbon dioxide, CO2, InChI=1S/CO2/c2-1-3, purity 99.5%
Compound 3: 1-butyl-3-methylimidazolium trifluoromethanesulfonate, C9H15F3N2O3S, InChI=1S/C8H15N2.CHF3O3S/c1-3-4-5-10-7-6-9(2)8-10;2-1(3,4)8(5,6)7/h6-8H,3-5H2,1-2H3;(H,5,6,7)/q+1;/p-1, purity 99%
Compound 4: 1-hexyl-3-methylimidazolium bis[(trifluoromethyl)sulfonyl]imide, C12H19F6N3O4S2, InChI=1S/C10H19N2.C2F6NO4S2/c1-3-4-5-6-7-12-9-8-11(2)10-12;3-1(4,5)14(10,11)9-15(12,13)2(6,7)8/h8-10H,3-7H2,1-2H3;/q+1;-1, purity 99%

System: carbon dioxide + 1-hexyl-3-methylimidazolium bis[(trifluoromethyl)sulfonyl]imide; phases: Liquid, Gas
Property: Molality, mol/kg of carbon dioxide (Liquid); method: phase equilibration
Temperature, K	Pressure, kPa	Molality, mol/kg of carbon dioxide	uncertainty
303.15	228.1	0.1549	0.0049
303.15	400.5	0.277	0.0086
303.15	642.1	0.4471	0.0141
303.15	786.2	0.5432	0.0179
303.15	1036.5	0.726	0.0253
303.15	1399.2	0.9896	0.0104
303.15	1689	1.1937	0.0504
303.15	1806.5	1.2896	0.0562
303.15	2065.3	1.4804	0.0696
303.15	2289.9	1.6496	0.0827
303.15	2463.9	1.7822	0.0935
303.15	2819.3	2.0688	0.1194
303.15	3076.9	2.2674	0.1404
303.15	3555.5	2.6495	0.186
313.15	337.1	0.1947	0.0067
313.15	699.4	0.4069	0.0144
313.15	1209.5	0.7242	0.0283
313.15	1653.6	1.0057	0.0435
313.15	2111.8	1.2847	0.063
313.15	2538.3	1.6155	0.0853
313.15	3188.6	2.1096	0.1284
323.15	465.7	0.2272	0.0087
323.15	850.7	0.4281	0.017
323.15	1323.9	0.6731	0.0291
323.15	1708.8	0.8789	0.041
323.15	2180.2	1.1517	0.0591
323.15	2704.6	1.3454	0.082
323.15	3105.7	1.5458	0.1026
333.15	245.6	0.1044	0.0046
333.15	519.1	0.2209	0.0093
333.15	894.3	0.3855	0.0168
333.15	1364.2	0.6046	0.0281
333.15	1849.2	0.8295	0.0422
333.15	2312.2	1.0513	0.0583
333.15	2799.2	1.2996	0.0783
343.15	474.1	0.1783	0.0081
343.15	952.8	0.3503	0.0171
343.15	1440.2	0.553	0.0282
343.15	1937.6	0.7557	0.0414
343.15	2453.7	0.974	0.026
343.15	2938.6	1.1811	0.0759
343.15	3446.9	1.4241	0.0986
353.15	502	0.1643	0.0083
353.15	987.3	0.3338	0.0169
353.15	1440.2	0.4916	0.0266
353.15	1907.3	0.6717	0.0381
353.15	2419.6	0.8598	0.0526
353.15	2888.3	1.0373	0.0681

System: carbon dioxide + 1-hexyl-3-methylimidazolium bis[(trifluoromethyl)sulfonyl]imide; phases: Liquid
Property: Molar volume, m3/mol (Liquid); method: ISOCHOR
Temperature, K	Pressure, kPa	Molality, mol/kg of carbon dioxide	Molar volume, m3/mol	uncertainty
303.15	228.1	0.1549	0.0003078	2e-07
303.15	400.5	0.277	0.0002962	2e-07
303.15	642.1	0.4471	0.0002815	2e-07
303.15	786.2	0.5432	0.0002738	2e-07
303.15	1036.5	0.726	0.0002604	2e-07
303.15	1399.2	0.9896	0.000243	2e-07
303.15	1689	1.1937	0.0002316	2e-07
303.15	1806.5	1.2896	0.0002265	2e-07
303.15	2065.3	1.4804	0.000217	2e-07
303.15	2289.9	1.6496	0.0002093	2e-07
303.15	2463.9	1.7822	0.0002037	2e-07
303.15	2819.3	2.0688	0.0001926	3e-07
303.15	3076.9	2.2674	0.0001856	3e-07
303.15	3555.5	2.6495	0.0001736	3e-07
313.15	337.1	0.1947	0.0003066	2e-07
313.15	699.4	0.4069	0.0002879	2e-07
313.15	1209.5	0.7242	0.0002644	2e-07
313.15	1653.6	1.0057	0.0002471	2e-07
313.15	2111.8	1.2847	0.0002306	2e-07
313.15	2538.3	1.6155	0.0002177	2e-07
313.15	3188.6	2.1096	0.0001995	1e-07
323.15	465.7	0.2272	0.0003063	2e-07
323.15	850.7	0.4281	0.0002889	2e-07
323.15	1323.9	0.6731	0.0002706	2e-07
323.15	1708.8	0.8789	0.0002573	2e-07
323.15	2180.2	1.1517	0.0002419	2e-07
323.15	2704.6	1.3454	0.0002273	1e-07
323.15	3105.7	1.5458	0.0002172	1e-07
333.15	245.6	0.1044	0.0003209	2e-07
333.15	519.1	0.2209	0.0003096	2e-07
333.15	894.3	0.3855	0.0002952	2e-07
333.15	1364.2	0.6046	0.0002782	2e-07
333.15	1849.2	0.8295	0.0002632	2e-07
333.15	2312.2	1.0513	0.0002501	2e-07
333.15	2799.2	1.2996	0.0002373	2e-07
343.15	474.1	0.1783	0.0003165	2e-07
343.15	952.8	0.3503	0.0003002	2e-07
343.15	1440.2	0.553	0.0002849	2e-07
343.15	1937.6	0.7557	0.0002707	2e-07
343.15	2453.7	0.974	0.0002573	2e-07
343.15	2938.6	1.1811	0.0002461	2e-07
343.15	3446.9	1.4241	0.0002344	2e-07
353.15	502	0.1643	0.0003208	2e-07
353.15	987.3	0.3338	0.0003053	2e-07
353.15	1440.2	0.4916	0.0002925	2e-07
353.15	1907.3	0.6717	0.0002794	2e-07
353.15	2419.6	0.8598	0.0002671	2e-07
353.15	2888.3	1.0373	0.0002567	2e-07

System: carbon dioxide + 1-butyl-3-methylimidazolium trifluoromethanesulfonate; phases: Liquid, Gas
Property: Molality, mol/kg of carbon dioxide (Liquid); method: phase equilibration
Temperature, K	Pressure, kPa	Molality, mol/kg of carbon dioxide	uncertainty
303.15	233.6	0.1586	0.0146
303.15	712	0.5016	0.0453
303.15	1209.3	0.8577	0.0858
303.15	1706.3	1.236	0.1371
303.15	2180.4	1.6375	0.1987
303.15	2663.3	2.0384	0.2748
303.15	3188	2.4809	0.3764
313.15	244.1	0.1345	0.0146
313.15	713.2	0.418	0.0427
313.15	1212.5	0.7087	0.0794
313.15	1722.9	1.0286	0.1259
313.15	2194.4	1.3285	1.772
313.15	2669.6	1.6317	0.2387
313.15	3135.3	1.9438	0.3103
323.15	239.4	0.1102	0.0138
323.15	707.7	0.3453	0.0401
323.15	1223.5	0.5993	0.0751
323.15	1721.4	0.8739	0.1158
323.15	2204.9	1.1313	0.1623
323.15	2697.2	1.3971	0.2177
323.15	3198.1	1.7072	0.2859
333.15	239.9	0.0968	0.0132
333.15	756.2	0.3124	0.041
333.15	1259.5	0.5379	0.0733
333.15	1767.4	0.7626	0.1112
333.15	2242.8	0.9814	0.0186
333.15	2734.2	1.226	0.2026
333.15	3236.7	1.4736	0.2615
343.15	250.3	0.0877	0.0132
343.15	746.9	0.2655	0.0386
343.15	1255	0.4535	0.0689
343.15	1759	0.6555	0.1036
343.15	2265.7	0.8561	0.1436
343.15	2732.5	1.0719	0.1866
343.15	3216	1.2761	0.2362

System: carbon dioxide + 1-butyl-3-methylimidazolium trifluoromethanesulfonate; phases: Liquid
Property: Molar volume, m3/mol (Liquid); method: ISOCHOR
Temperature, K	Pressure, kPa	Molality, mol/kg of carbon dioxide	Molar volume, m3/mol	uncertainty
303.15	233.6	0.1586	0.0002163	1e-07
303.15	712	0.5016	0.0002044	2e-07
303.15	1209.3	0.8577	0.0001937	1e-07
303.15	1706.3	1.236	0.0001836	1e-07
303.15	2180.4	1.6375	0.0001742	1e-07
303.15	2663.3	2.0384	0.000166	5e-07
303.15	3188	2.4809	0.000158	6e-07
313.15	244.1	0.1345	0.0002188	1e-07
313.15	713.2	0.418	0.0002088	1e-07
313.15	1212.5	0.7087	0.0001997	1e-07
313.15	1722.9	1.0286	0.0001907	3e-07
313.15	2194.4	1.3285	0.0001831	1e-07
313.15	2669.6	1.6317	0.0001761	1e-07
313.15	3135.3	1.9438	0.0001696	5e-07
323.15	239.4	0.1102	0.0002213	1e-07
323.15	707.7	0.3453	0.0002129	1e-07
323.15	1223.5	0.5993	0.0002047	1e-07
323.15	1721.4	0.8739	0.0001966	1e-07
323.15	2204.9	1.1313	0.0001897	1e-07
323.15	2697.2	1.3971	0.0001832	1e-07
323.15	3198.1	1.7072	0.0001762	5e-07
333.15	239.9	0.0968	0.0002234	1e-07
333.15	756.2	0.3124	0.0002157	1e-07
333.15	1259.5	0.5379	0.0002083	1e-07
333.15	1767.4	0.7626	0.0002015	1e-07
333.15	2242.8	0.9814	0.0001953	1e-07
333.15	2734.2	1.226	0.000189	1e-07
333.15	3236.7	1.4736	0.0001831	1e-07
343.15	250.3	0.0877	0.0002253	1e-07
343.15	746.9	0.2655	0.0002189	1e-07
343.15	1255	0.4535	0.0002126	1e-07
343.15	1759	0.6555	0.0002063	1e-07
343.15	2265.7	0.8561	0.0002004	1e-07
343.15	2732.5	1.0719	0.0001946	1e-07
343.15	3216	1.2761	0.0001895	1e-07

System: hydrogen sulfide + 1-butyl-3-methylimidazolium trifluoromethanesulfonate; phases: Liquid, Gas
Property: Molality, mol/kg of hydrogen sulfide (Liquid); method: phase equilibration
Temperature, K	Pressure, kPa	Molality, mol/kg of hydrogen sulfide	uncertainty
303.15	172.6	0.5717	0.0139
303.15	339.1	1.1415	0.027
303.15	491.8	1.7153	0.0439
303.15	691.5	2.5174	0.0735
303.15	857	3.1923	0.104
303.15	1016.5	3.8566	0.1394
303.15	1178.1	4.5117	0.1808
303.15	1368.5	5.4488	0.2432
303.15	1494.2	6.1271	0.2922
313.15	169.3	0.4237	0.0126
313.15	392.6	1.0168	0.0289
313.15	605	1.6336	0.0509
313.15	813.7	2.2949	0.0794
313.15	1021.5	3.0304	0.1165
313.15	1244.6	3.8915	0.167
313.15	1455.3	4.8067	0.2278
313.15	1592.1	5.4897	0.2762
323.15	188	0.3783	0.0129
323.15	418.4	0.874	0.0283
323.15	647.6	1.4085	0.0495
323.15	1041.4	2.4199	0.1017
323.15	1294	3.1383	0.1467
323.15	1501.2	3.8188	0.1939
323.15	1614.4	4.1921	0.223
333.15	196.6	0.3257	0.0126
333.15	459.2	0.7804	0.0291
333.15	705.7	1.2372	0.0498
333.15	907.8	1.6345	0.0709
333.15	1176.8	2.1877	0.1055
333.15	1400.8	2.6851	0.1408
333.15	1570.7	3.1139	0.1726
343.15	207.6	0.279	0.0123
343.15	456.9	0.6403	0.0269
343.15	706.7	1.0211	0.0456
343.15	923.5	1.3695	0.0654
343.15	1176.5	1.7976	0.0931
343.15	1391.1	2.1785	0.121
343.15	1632	2.6458	0.1585

System: hydrogen sulfide + 1-butyl-3-methylimidazolium trifluoromethanesulfonate; phases: Liquid
Property: Molar volume, m3/mol (Liquid); method: ISOCHOR
Temperature, K	Pressure, kPa	Molality, mol/kg of hydrogen sulfide	Molar volume, m3/mol	uncertainty
303.15	172.6	0.5717	0.0001972	1e-07
303.15	339.1	1.1415	0.000178	1e-07
303.15	491.8	1.7153	0.0001633	1e-07
303.15	691.5	2.5174	0.0001472	1e-07
303.15	857	3.1923	0.0001371	1e-07
303.15	1016.5	3.8566	0.0001282	1e-07
303.15	1178.1	4.5117	0.0001212	1e-07
303.15	1368.5	5.4488	0.0001129	1e-07
303.15	1494.2	6.1271	0.000108	3e-07
313.15	169.3	0.4237	0.0002046	1e-07
313.15	392.6	1.0168	0.0001836	1e-07
313.15	605	1.6336	0.0001669	1e-07
313.15	813.7	2.2949	0.0001529	1e-07
313.15	1021.5	3.0304	0.0001406	1e-07
313.15	1244.6	3.8915	0.0001294	1e-07
313.15	1455.3	4.8067	0.00012	1e-07
313.15	1592.1	5.4897	0.0001142	3e-07
323.15	188	0.3783	0.000208	1e-07
323.15	418.4	0.874	0.0001897	1e-07
323.15	647.6	1.4085	0.0001741	1e-07
323.15	1041.4	2.4199	0.0001522	1e-07
323.15	1294	3.1383	0.0001407	1e-07
323.15	1501.2	3.8188	0.0001319	3e-07
323.15	1614.4	4.1921	0.0001272	3e-07
333.15	196.6	0.3257	0.0002118	1e-07
333.15	459.2	0.7804	0.0001944	1e-07
333.15	705.7	1.2372	0.0001803	1e-07
333.15	907.8	1.6345	0.00017	1e-07
333.15	1176.8	2.1877	0.0001581	1e-07
333.15	1400.8	2.6851	0.0001492	1e-07
333.15	1570.7	3.1139	0.0001426	1e-07
343.15	207.6	0.279	0.0002154	1e-07
343.15	456.9	0.6403	0.000201	1e-07
343.15	706.7	1.0211	0.0001882	1e-07
343.15	923.5	1.3695	0.0001783	1e-07
343.15	1176.5	1.7976	0.0001679	1e-07
343.15	1391.1	2.1785	0.0001599	1e-07
343.15	1632	2.6458	0.0001515	1e-07
