Measured thermophysical data. Solubilities of cinnamic acid esters in binary mixtures of ionic liquids and organic solvents
Source: Fluid Phase Equilib., 2010, 10.1016/j.fluid.2010.05.015
Compound 1: 2-propenoic acid, 3-(4-hydroxyphenyl)-, methyl ester, C10H10O3, InChI=1S/C10H10O3/c1-13-10(12)7-4-8-2-5-9(11)6-3-8/h2-7,11H,1H3
Compound 2: methyl 3-(4-hydroxy-3-methoxyphenyl)-2-propenoate, C11H12O4, InChI=1S/C11H12O4/c1-14-10-7-8(3-5-9(10)12)4-6-11(13)15-2/h3-7,12H,1-2H3
Compound 3: 3,5-dimethoxy-4-hydroxy cinnamic acid methyl ester, C12H14O5, InChI=1S/C12H14O5/c1-15-9-6-8(4-5-11(13)17-3)7-10(16-2)12(9)14/h4-7,14H,1-3H3/b5-4+
Compound 4: 1-butyl-3-methylimidazolium hexafluorophosphate, C8H15F6N2P, InChI=1S/C8H15N2.F6P/c1-3-4-5-10-7-6-9(2)8-10;1-7(2,3,4,5)6/h6-8H,3-5H2,1-2H3;/q+1;-1
Compound 5: 1-butyl-3-methylimidazolium tetrafluoroborate, C8H15BF4N2, InChI=1S/C8H15N2.BF4/c1-3-4-5-10-7-6-9(2)8-10;2-1(3,4)5/h6-8H,3-5H2,1-2H3;/q+1;-1
Compound 6: 1-methyl-3-octylimidazolium tetrafluoroborate, C12H23BF4N2, InChI=1S/C12H23N2.BF4/c1-3-4-5-6-7-8-9-14-11-10-13(2)12-14;2-1(3,4)5/h10-12H,3-9H2,1-2H3;/q+1;-1
Compound 7: ethyl acetate, C4H8O2, InChI=1S/C4H8O2/c1-3-6-4(2)5/h3H2,1-2H3, purity 99.5%
Compound 8: 2-methylpropan-2-ol, C4H10O, InChI=1S/C4H10O/c1-4(2,3)5/h5H,1-3H3

System: 2-methylpropan-2-ol + 2-propenoic acid, 3-(4-hydroxyphenyl)-, methyl ester + 1-butyl-3-methylimidazolium hexafluorophosphate; phases: Liquid, Crystal
Fixed: Pressure, kPa = 101
Property: Mole fraction of 2-propenoic acid, 3-(4-hydroxyphenyl)-, methyl ester (Liquid); method: Chromatography
Temperature, K	Solvent: Mole fraction of 2-methylpropan-2-ol	Mole fraction of 2-propenoic acid, 3-(4-hydroxyphenyl)-, methyl ester	uncertainty
303.15	0	0.0255	0.0007
303.15	0.1	0.0357	0.0049
303.15	0.2	0.0478	0.0018
303.15	0.3	0.0597	0.0076
303.15	0.4	0.0668	0.0068
303.15	0.5	0.0742	0.014
303.15	1	0.0977	0.0018
321.15	0	0.0556	0.0007
321.15	0.1	0.0617	0.0144
321.15	0.2	0.0754	0.0041
321.15	0.3	0.0815	0.012
321.15	0.4	0.0917	0.0196
321.15	0.5	0.1004	0.0045
321.15	1	0.1711	0.0022

System: 2-methylpropan-2-ol + methyl 3-(4-hydroxy-3-methoxyphenyl)-2-propenoate + 1-butyl-3-methylimidazolium hexafluorophosphate; phases: Liquid, Crystal
Fixed: Pressure, kPa = 101
Property: Mole fraction of methyl 3-(4-hydroxy-3-methoxyphenyl)-2-propenoate (Liquid); method: Chromatography
Temperature, K	Solvent: Mole fraction of 2-methylpropan-2-ol	Mole fraction of methyl 3-(4-hydroxy-3-methoxyphenyl)-2-propenoate	uncertainty
303.15	0	0.2005	0.0043
303.15	0.1	0.2025	0.0173
303.15	0.2	0.2105	0.0055
303.15	0.3	0.2157	0.0044
303.15	0.4	0.2231	0.0164
303.15	0.5	0.2298	0.0072
303.15	1	0.1821	0.0037
321.15	0	0.3942	0.0045
321.15	0.1	0.3809	0.0193
321.15	0.2	0.3758	0.0092
321.15	0.3	0.3684	0.0302
321.15	0.4	0.3747	0.011
321.15	0.5	0.3728	0.0243
321.15	1	0.3248	0.0051

System: 2-methylpropan-2-ol + 3,5-dimethoxy-4-hydroxy cinnamic acid methyl ester + 1-butyl-3-methylimidazolium hexafluorophosphate; phases: Liquid, Crystal
Fixed: Pressure, kPa = 101
Property: Mole fraction of 3,5-dimethoxy-4-hydroxy cinnamic acid methyl ester (Liquid); method: Chromatography
Temperature, K	Solvent: Mole fraction of 2-methylpropan-2-ol	Mole fraction of 3,5-dimethoxy-4-hydroxy cinnamic acid methyl ester	uncertainty
303.15	0	0.1239	0.0017
303.15	0.1	0.1282	0.0221
303.15	0.2	0.13	0.0023
303.15	0.3	0.1303	0.0052
303.15	0.4	0.1251	0.0114
303.15	0.5	0.117	0.0145
303.15	1	0.0184	0.0018
321.15	0	0.1973	0.0017
321.15	0.1	0.2124	0.0388
321.15	0.2	0.2177	0.0201
321.15	0.3	0.2146	0.0102
321.15	0.4	0.205	0.0197
321.15	0.5	0.1953	0.0197
321.15	1	0.0973	0.002

System: 2-methylpropan-2-ol + methyl 3-(4-hydroxy-3-methoxyphenyl)-2-propenoate + 1-butyl-3-methylimidazolium tetrafluoroborate; phases: Liquid, Crystal
Fixed: Pressure, kPa = 101
Property: Mole fraction of methyl 3-(4-hydroxy-3-methoxyphenyl)-2-propenoate (Liquid); method: Chromatography
Temperature, K	Solvent: Mole fraction of 2-methylpropan-2-ol	Mole fraction of methyl 3-(4-hydroxy-3-methoxyphenyl)-2-propenoate	uncertainty
303.15	0	0.2756	0.0032
303.15	0.1	0.2715	0.0063
303.15	0.2	0.2644	0.0097
303.15	0.3	0.2567	0.0131
303.15	0.4	0.2455	0.0116
303.15	0.5	0.2479	0.0056
303.15	1	0.1821	0.0037
321.15	0	0.4098	0.0035
321.15	0.1	0.3966	0.0214
321.15	0.2	0.3908	0.012
321.15	0.3	0.3837	0.0167
321.15	0.4	0.3776	0.0035
321.15	0.5	0.3665	0.0042
321.15	1	0.3248	0.0051

System: 2-methylpropan-2-ol + 3,5-dimethoxy-4-hydroxy cinnamic acid methyl ester + 1-butyl-3-methylimidazolium tetrafluoroborate; phases: Liquid, Crystal
Fixed: Pressure, kPa = 101
Property: Mole fraction of 3,5-dimethoxy-4-hydroxy cinnamic acid methyl ester (Liquid); method: Chromatography
Temperature, K	Solvent: Mole fraction of 2-methylpropan-2-ol	Mole fraction of 3,5-dimethoxy-4-hydroxy cinnamic acid methyl ester	uncertainty
303.15	0	0.1756	0.0013
303.15	0.1	0.1702	0.0071
303.15	0.2	0.1625	0.002
303.15	0.3	0.157	0.0153
303.15	0.4	0.1501	0.0197
303.15	0.5	0.143	0.0141
303.15	1	0.0184	0.0018
321.15	0	0.2246	0.0014
321.15	0.1	0.2547	0.0037
321.15	0.2	0.2428	0.0045
321.15	0.3	0.2366	0.0114
321.15	0.4	0.2265	0.0293
321.15	0.5	0.2138	0.0157
321.15	1	0.0973	0.002

System: 2-methylpropan-2-ol + 2-propenoic acid, 3-(4-hydroxyphenyl)-, methyl ester + 1-methyl-3-octylimidazolium tetrafluoroborate; phases: Liquid, Crystal
Fixed: Pressure, kPa = 101
Property: Mole fraction of 2-propenoic acid, 3-(4-hydroxyphenyl)-, methyl ester (Liquid); method: Chromatography
Temperature, K	Solvent: Mole fraction of 2-methylpropan-2-ol	Mole fraction of 2-propenoic acid, 3-(4-hydroxyphenyl)-, methyl ester	uncertainty
303.15	0	0.1881	0.0016
303.15	0.1	0.1892	0.011
303.15	0.2	0.184	0.0213
303.15	0.3	0.176	0.004
303.15	0.4	0.168	0.0043
303.15	0.5	0.1642	0.0085
303.15	1	0.0977	0.0018
321.15	0	0.2569	0.0185
321.15	0.1	0.2687	0.0125
321.15	0.2	0.264	0.0348
321.15	0.3	0.2552	0.0098
321.15	0.4	0.2404	0.0055
321.15	0.5	0.2297	0.0082
321.15	1	0.1711	0.0022

System: 2-methylpropan-2-ol + methyl 3-(4-hydroxy-3-methoxyphenyl)-2-propenoate + 1-methyl-3-octylimidazolium tetrafluoroborate; phases: Liquid, Crystal
Fixed: Pressure, kPa = 101
Property: Mole fraction of methyl 3-(4-hydroxy-3-methoxyphenyl)-2-propenoate (Liquid); method: Chromatography
Temperature, K	Solvent: Mole fraction of 2-methylpropan-2-ol	Mole fraction of methyl 3-(4-hydroxy-3-methoxyphenyl)-2-propenoate	uncertainty
303.15	0	0.3357	0.0036
303.15	0.1	0.3447	0.0074
303.15	0.2	0.3216	0.0053
303.15	0.3	0.3112	0.0031
303.15	0.4	0.3067	0.0202
303.15	0.5	0.293	0.0035
303.15	1	0.1821	0.0037
321.15	0	0.4917	0.0041
321.15	0.1	0.4633	0.012
321.15	0.2	0.4518	0.0079
321.15	0.3	0.4346	0.021
321.15	0.4	0.4209	0.0329
321.15	0.5	0.3972	0.021
321.15	1	0.3248	0.0051

System: 2-methylpropan-2-ol + 3,5-dimethoxy-4-hydroxy cinnamic acid methyl ester + 1-methyl-3-octylimidazolium tetrafluoroborate; phases: Liquid, Crystal
Fixed: Pressure, kPa = 101
Property: Mole fraction of 3,5-dimethoxy-4-hydroxy cinnamic acid methyl ester (Liquid); method: Chromatography
Temperature, K	Solvent: Mole fraction of 2-methylpropan-2-ol	Mole fraction of 3,5-dimethoxy-4-hydroxy cinnamic acid methyl ester	uncertainty
303.15	0	0.2264	0.0015
303.15	0.1	0.217	0.0022
303.15	0.2	0.2058	0.0028
303.15	0.3	0.1997	0.0117
303.15	0.4	0.1817	0.0086
303.15	0.5	0.1676	0.0097
303.15	1	0.0184	0.0018
321.15	0	0.2865	0.0017
321.15	0.1	0.3021	0.0044
321.15	0.2	0.289	0.0201
321.15	0.3	0.2717	0.0157
321.15	0.4	0.2511	0.0094
321.15	0.5	0.232	0.0037
321.15	1	0.0975	0.002

System: ethyl acetate + 2-propenoic acid, 3-(4-hydroxyphenyl)-, methyl ester + 1-butyl-3-methylimidazolium tetrafluoroborate; phases: Liquid, Crystal
Fixed: Pressure, kPa = 101
Fixed: Temperature, K = 303.15
Property: Mole fraction of 2-propenoic acid, 3-(4-hydroxyphenyl)-, methyl ester (Liquid); method: Chromatography
Solvent: Mole fraction of ethyl acetate	Mole fraction of 2-propenoic acid, 3-(4-hydroxyphenyl)-, methyl ester	uncertainty
0	0.1363	0.0004
0.3	0.1252	0.0088
0.4	0.1201	0.0096
0.5	0.1169	0.0009
1	0.0856	0.0006

System: ethyl acetate + methyl 3-(4-hydroxy-3-methoxyphenyl)-2-propenoate + 1-butyl-3-methylimidazolium tetrafluoroborate; phases: Liquid, Crystal
Fixed: Pressure, kPa = 101
Fixed: Temperature, K = 303.15
Property: Mole fraction of methyl 3-(4-hydroxy-3-methoxyphenyl)-2-propenoate (Liquid); method: Chromatography
Solvent: Mole fraction of ethyl acetate	Mole fraction of methyl 3-(4-hydroxy-3-methoxyphenyl)-2-propenoate	uncertainty
0	0.2758	0.0011
0.1	0.2575	0.0084
0.3	0.2428	0.0033
0.5	0.2328	0.01
1	0.2172	0.002

System: ethyl acetate + 3,5-dimethoxy-4-hydroxy cinnamic acid methyl ester + 1-butyl-3-methylimidazolium tetrafluoroborate; phases: Liquid, Crystal
Fixed: Temperature, K = 303.15
Fixed: Pressure, kPa = 101
Property: Mole fraction of 3,5-dimethoxy-4-hydroxy cinnamic acid methyl ester (Liquid); method: Chromatography
Solvent: Mole fraction of ethyl acetate	Mole fraction of 3,5-dimethoxy-4-hydroxy cinnamic acid methyl ester	uncertainty
0	0.1756	0.0007
0.1	0.165	0.028
0.3	0.153	0.02
0.5	0.1395	0.0007
1	0.1169	0.0011

System: ethyl acetate + 2-propenoic acid, 3-(4-hydroxyphenyl)-, methyl ester + 1-methyl-3-octylimidazolium tetrafluoroborate; phases: Liquid, Crystal
Fixed: Temperature, K = 303.15
Fixed: Pressure, kPa = 101
Property: Mole fraction of 2-propenoic acid, 3-(4-hydroxyphenyl)-, methyl ester (Liquid); method: Chromatography
Solvent: Mole fraction of ethyl acetate	Mole fraction of 2-propenoic acid, 3-(4-hydroxyphenyl)-, methyl ester	uncertainty
0	0.1881	0.0004
0.1	0.1661	0.0132
0.3	0.1453	0.0056
0.5	0.1226	0.0108
1	0.0856	0.0006

System: ethyl acetate + methyl 3-(4-hydroxy-3-methoxyphenyl)-2-propenoate + 1-methyl-3-octylimidazolium tetrafluoroborate; phases: Liquid, Crystal
Fixed: Temperature, K = 303.15
Fixed: Pressure, kPa = 101
Property: Mole fraction of methyl 3-(4-hydroxy-3-methoxyphenyl)-2-propenoate (Liquid); method: Chromatography
Solvent: Mole fraction of ethyl acetate	Mole fraction of methyl 3-(4-hydroxy-3-methoxyphenyl)-2-propenoate	uncertainty
0	0.3357	0.0011
0.1	0.3226	0.058
0.3	0.3026	0.0022
0.5	0.2815	0.0468
1	0.2172	0.002

System: ethyl acetate + 3,5-dimethoxy-4-hydroxy cinnamic acid methyl ester + 1-methyl-3-octylimidazolium tetrafluoroborate; phases: Liquid, Crystal
Fixed: Temperature, K = 303.15
Fixed: Pressure, kPa = 101
Property: Mole fraction of 3,5-dimethoxy-4-hydroxy cinnamic acid methyl ester (Liquid); method: Chromatography
Solvent: Mole fraction of ethyl acetate	Mole fraction of 3,5-dimethoxy-4-hydroxy cinnamic acid methyl ester	uncertainty
0	0.2263	0.0007
0.1	0.2002	0.0152
0.3	0.1838	0.016
0.5	0.1532	0.0116
1	0.1169	0.0011
