Measured thermophysical data. Vapor liquid equilibria of carbon dioxide with isopropyl acetate, diethyl carbonate and ethyl butyrate at elevated pressures
Source: Fluid Phase Equilib., 2005, 10.1016/j.fluid.2005.05.018
Compound 1: ethanol, C2H6O, InChI=1S/C2H6O/c1-2-3/h3H,2H2,1H3, purity 99.9%
Compound 2: 1-methylethyl ethanoate, C5H10O2, InChI=1S/C5H10O2/c1-4(2)7-5(3)6/h4H,1-3H3, purity 99.5%
Compound 3: diethyl carbonate, C5H10O3, InChI=1S/C5H10O3/c1-3-7-5(6)8-4-2/h3-4H2,1-2H3, purity 99.6%
Compound 4: ethyl butanoate, C6H12O2, InChI=1S/C6H12O2/c1-3-5-6(7)8-4-2/h3-5H2,1-2H3, purity 99.3%
Compound 5: carbon dioxide, CO2, InChI=1S/CO2/c2-1-3, purity 99.9%

System: ethanol; phases: Liquid
Property: Refractive index (Na D-line) (Liquid); method: Standard Abbe refractometry
Temperature, K	Pressure, kPa	Refractive index (Na D-line)	uncertainty
293.15	101.325	1.3592	0.0007

System: ethanol; phases: Liquid
Property: Mass density, kg/m3 (Liquid); method: VIBTUB:UFactor:4
Temperature, K	Pressure, kPa	Mass density, kg/m3	uncertainty
293.15	101.325	789.4	0.6

System: 1-methylethyl ethanoate; phases: Liquid
Property: Refractive index (Na D-line) (Liquid); method: Standard Abbe refractometry
Temperature, K	Pressure, kPa	Refractive index (Na D-line)	uncertainty
293.15	101.325	1.3751	0.0007

System: 1-methylethyl ethanoate; phases: Liquid
Property: Mass density, kg/m3 (Liquid); method: VIBTUB:UFactor:4
Temperature, K	Pressure, kPa	Mass density, kg/m3	uncertainty
298.15	101.325	866.4	0.5

System: diethyl carbonate; phases: Liquid
Property: Refractive index (Na D-line) (Liquid); method: Standard Abbe refractometry
Temperature, K	Pressure, kPa	Refractive index (Na D-line)	uncertainty
293.15	101.325	1.383	0.0007

System: diethyl carbonate; phases: Liquid
Property: Mass density, kg/m3 (Liquid); method: VIBTUB:UFactor:4
Temperature, K	Pressure, kPa	Mass density, kg/m3	uncertainty
298.15	101.325	969.2	0.3

System: ethyl butanoate; phases: Liquid
Property: Refractive index (Na D-line) (Liquid); method: Standard Abbe refractometry
Temperature, K	Pressure, kPa	Refractive index (Na D-line)	uncertainty
293.15	101.325	1.3899	0.0007

System: ethyl butanoate; phases: Liquid
Property: Mass density, kg/m3 (Liquid); method: VIBTUB:UFactor:4
Temperature, K	Pressure, kPa	Mass density, kg/m3	uncertainty
293.15	101.325	879	0.5

System: 1-methylethyl ethanoate + carbon dioxide; phases: Liquid, Gas
Property: Vapor or sublimation pressure, kPa (Liquid); method: EBULLIO:UFactor:16
Mole fraction of carbon dioxide	Temperature, K	Vapor or sublimation pressure, kPa	uncertainty
0.36	318.55	3060	90
0.4	313.45	3080	90
0.445	318.55	3740	90
0.453	313.45	3560	90
0.462	308.45	3300	90
0.475	318.55	4050	90
0.5	318.55	4300	90
0.538	313.45	4230	90
0.573	308.45	4120	90
0.585	318.55	5050	100
0.59	313.45	4620	100
0.644	308.45	4700	100
0.675	318.55	5830	100
0.703	313.45	5670	100
0.707	308.45	5200	100
0.728	318.55	6210	110
0.74	313.45	5940	100
0.763	308.45	5500	100
0.795	318.55	6930	120
0.81	318.55	7140	130
0.824	308.45	5990	110
0.841	308.45	6130	110
0.853	313.45	6810	110
0.88	308.45	6400	110
0.897	313.45	7160	120
0.899	318.55	7800	120

System: 1-methylethyl ethanoate + carbon dioxide; phases: Gas, Liquid
Property: Mole fraction of carbon dioxide (Gas); method: Chromatography
Mole fraction of carbon dioxide	Temperature, K	Mole fraction of carbon dioxide	uncertainty
0.36	318.55	0.9941	0.004
0.4	313.45	0.993	0.004
0.445	318.55	0.9951	0.004
0.453	313.45	0.994	0.004
0.462	308.45	0.9933	0.004
0.475	318.55	0.9953	0.004
0.5	318.55	0.9955	0.004
0.538	313.45	0.9949	0.004
0.573	308.45	0.9946	0.004
0.585	318.55	0.9958	0.004
0.59	313.45	0.9952	0.004
0.644	308.45	0.9953	0.004
0.675	318.55	0.9967	0.0033
0.703	313.45	0.9961	0.0039
0.707	308.45	0.9964	0.0036
0.728	318.55	0.9949	0.004
0.74	313.45	0.9965	0.0035
0.763	308.45	0.9969	0.0031
0.795	318.55	0.9943	0.004
0.81	318.55	0.9937	0.004
0.824	308.45	0.9974	0.0026
0.841	308.45	0.9974	0.0026
0.853	313.45	0.9969	0.0031
0.88	308.45	0.995	0.004
0.897	313.45	0.9973	0.0027
0.899	318.55	0.9929	0.004

System: diethyl carbonate + carbon dioxide; phases: Liquid, Gas
Property: Vapor or sublimation pressure, kPa (Liquid); method: EBULLIO:UFactor:16
Mole fraction of carbon dioxide	Temperature, K	Vapor or sublimation pressure, kPa	uncertainty
0.4	318.55	4300	100
0.45	313.45	4500	100
0.46	318.55	5000	110
0.475	318.55	5210	100
0.5	308.45	4720	100
0.505	313.45	5120	100
0.523	318.55	5730	110
0.53	308.45	5060	100
0.545	313.45	5460	100
0.565	318.55	6130	110
0.585	308.45	5500	100
0.61	313.45	6130	110
0.619	318.55	6850	120
0.625	308.45	5800	100
0.66	318.55	7200	120
0.682	308.45	6070	100
0.685	313.45	6660	110
0.701	318.55	7500	120
0.73	308.45	6500	110
0.745	313.45	7080	110
0.75	318.55	7800	120
0.78	318.55	8200	130
0.781	313.45	7420	120
0.795	313.45	7500	120
0.8	308.45	6750	110
0.84	308.45	6940	110
0.84	313.45	7690	120
0.892	308.45	7140	110

System: diethyl carbonate + carbon dioxide; phases: Gas, Liquid
Property: Mole fraction of carbon dioxide (Gas); method: Chromatography
Mole fraction of carbon dioxide	Temperature, K	Mole fraction of carbon dioxide	uncertainty
0.4	318.55	0.9933	0.004
0.45	313.45	0.995	0.004
0.46	318.55	0.9935	0.004
0.475	318.55	0.9947	0.004
0.5	308.45	0.9947	0.004
0.505	313.45	0.9961	0.0039
0.523	318.55	0.9951	0.004
0.53	308.45	0.9948	0.004
0.545	313.45	0.9969	0.0031
0.565	318.55	0.9963	0.0037
0.585	308.45	0.995	0.004
0.61	313.45	0.9978	0.0022
0.619	318.55	0.9975	0.0025
0.625	308.45	0.9955	0.004
0.66	318.55	0.9977	0.0023
0.682	308.45	0.9958	0.004
0.685	313.45	0.9983	0.0017
0.701	318.55	0.997	0.003
0.73	308.45	0.9968	0.0032
0.745	313.45	0.9977	0.0023
0.75	318.55	0.996	0.004
0.78	318.55	0.994	0.004
0.781	313.45	0.9975	0.0025
0.795	313.45	0.9965	0.0035
0.8	308.45	0.9973	0.0027
0.84	308.45	0.9968	0.0032
0.84	313.45	0.996	0.004
0.892	308.45	0.9961	0.0039

System: ethyl butanoate + carbon dioxide; phases: Liquid, Gas
Property: Vapor or sublimation pressure, kPa (Liquid); method: EBULLIO:UFactor:16
Mole fraction of carbon dioxide	Temperature, K	Vapor or sublimation pressure, kPa	uncertainty
0.395	318.55	4550	90
0.43	313.45	4600	100
0.43	318.55	4900	100
0.47	318.55	5400	100
0.48	308.45	4800	100
0.48	313.45	5100	100
0.53	308.45	5300	100
0.53	318.55	6000	110
0.535	313.45	5700	100
0.58	308.45	5650	100
0.58	318.55	6600	110
0.595	313.45	6200	110
0.63	308.45	6000	100
0.64	318.55	7200	120
0.65	313.45	6700	110
0.67	308.45	6300	110
0.69	313.45	7050	110
0.725	308.45	6600	110
0.755	313.45	7400	120
0.76	318.55	8100	120
0.81	308.45	6800	110
0.82	313.45	7900	130
0.86	318.55	8900	130

System: ethyl butanoate + carbon dioxide; phases: Gas, Liquid
Property: Mole fraction of carbon dioxide (Gas); method: Chromatography
Mole fraction of carbon dioxide	Temperature, K	Mole fraction of carbon dioxide	uncertainty
0.395	318.55	0.996	0.004
0.43	313.45	0.9957	0.004
0.43	318.55	0.9965	0.0035
0.47	318.55	0.9969	0.0031
0.48	308.45	0.9947	0.004
0.48	313.45	0.9961	0.0039
0.53	308.45	0.9958	0.004
0.53	318.55	0.9971	0.0029
0.535	313.45	0.9969	0.0031
0.58	308.45	0.9966	0.0034
0.58	318.55	0.9973	0.0027
0.595	313.45	0.9978	0.0022
0.63	308.45	0.9974	0.0026
0.64	318.55	0.9985	0.0015
0.65	313.45	0.9983	0.0017
0.67	308.45	0.9968	0.0032
0.69	313.45	0.9977	0.0023
0.725	308.45	0.9953	0.004
0.755	313.45	0.9965	0.0035
0.76	318.55	0.996	0.004
0.81	308.45	0.994	0.004
0.82	313.45	0.995	0.004
0.86	318.55	0.994	0.004
