Measured thermophysical data. Resistivity viscosity relationship in liquid liquid critical mixtures with added ions
Source: Fluid Phase Equilib., 2007, 10.1016/j.fluid.2006.10.027
Compound 1: 2-methylpropanoic acid, C4H8O2, InChI=1S/C4H8O2/c1-3(2)4(5)6/h3H,1-2H3,(H,5,6), purity 99.99%
Compound 2: water, H2O, InChI=1S/H2O/h1H2
Compound 3: potassium chloride, ClK, InChI=1S/ClH.K/h1H;/q;+1/p-1

System: 2-methylpropanoic acid + water; phases: Liquid
Fixed: Mole fraction of 2-methylpropanoic acid = 0.38
Fixed: Pressure, kPa = 101
Property: Viscosity, Pa*s (Liquid); method: Capillary tube (Ostwald; Ubbelohde) method
Temperature, K	Viscosity, Pa*s	uncertainty
300.25	0.00221	2e-05
300.332	0.002205	2e-05
300.363	0.002204	2e-05
300.493	0.002197	2e-05
300.612	0.00219	2e-05
300.661	0.002187	2e-05
300.763	0.002182	2e-05
300.872	0.002176	3.8e-05
300.963	0.002171	3.8e-05
301.091	0.002164	3.9e-05
301.159	0.00216	3.9e-05
301.261	0.002154	3.8e-05
301.363	0.002149	3.8e-05
301.49	0.002142	3.8e-05
301.56	0.002138	3.8e-05
301.852	0.002122	3.8e-05
302.16	0.002105	1.9e-05
302.459	0.002088	3.8e-05

System: 2-methylpropanoic acid + potassium chloride + water; phases: Liquid
Fixed: Pressure, kPa = 101
Property: Viscosity, Pa*s (Liquid); method: Capillary tube (Ostwald; Ubbelohde) method
Amount concentration (molarity), mol/dm3 of potassium chloride	Solvent: Mole fraction of 2-methylpropanoic acid	Temperature, K	Viscosity, Pa*s	uncertainty
0	0.38	300.25	0.00221	2e-05
0	0.38	300.332	0.002205	2e-05
0	0.38	300.363	0.002204	2e-05
0	0.38	300.493	0.002197	2e-05
0	0.38	300.612	0.00219	2e-05
0	0.38	300.661	0.002187	2e-05
0	0.38	300.763	0.002182	2e-05
0	0.38	300.872	0.002176	3.8e-05
0	0.38	300.963	0.002171	3.8e-05
0	0.38	301.091	0.002164	3.9e-05
0	0.38	301.159	0.00216	3.9e-05
0	0.38	301.261	0.002154	3.8e-05
0	0.38	301.363	0.002149	3.8e-05
0	0.38	301.49	0.002142	3.8e-05
0	0.38	301.56	0.002138	3.8e-05
0	0.38	301.852	0.002122	3.8e-05
0	0.38	302.16	0.002105	1.9e-05
0	0.38	302.459	0.002088	3.8e-05
0.0005	0.38	301.013	0.002367	3.9e-05
0.0005	0.38	301.16	0.002359	3.9e-05
0.0005	0.38	301.364	0.002347	3.9e-05
0.0005	0.38	301.483	0.00234	3.9e-05
0.0005	0.38	301.776	0.002323	3.9e-05
0.0005	0.38	302.369	0.002288	3.8e-05
0.0005	0.38	302.715	0.002268	3.9e-05
0.0005	0.38	302.991	0.002252	3.9e-05
0.0005	0.38	303.295	0.002235	3.8e-05
0.0005	0.38	303.386	0.00223	4e-05
0.0005	0.38	303.703	0.002211	4e-05
0.0005	0.38	304.012	0.002193	3.9e-05
0.0005	0.38	304.332	0.002175	3.8e-05
0.0005	0.38	304.575	0.002161	3.9e-05
0.0005	0.38	304.867	0.002144	4e-05
0.0005	0.38	305.246	0.002121	4e-05
0.0005	0.38	305.499	0.002107	3.8e-05
0.0005	0.38	305.839	0.002087	4e-05
0.0005	0.38	306.128	0.00207	3.8e-05
0.0005	0.38	306.412	0.002054	3.8e-05
0.0005	0.38	306.705	0.002037	3.9e-05
0.0005	0.38	306.978	0.002021	3.8e-05
0.0005	0.38	307.312	0.002002	3.9e-05
0.0005	0.38	307.601	0.001985	4e-05
0.005	0.4	302.118	0.00235	4.2e-05
0.005	0.4	302.395	0.002333	4.2e-05
0.005	0.4	302.71	0.002314	4.2e-05
0.005	0.4	303.003	0.002296	4.3e-05
0.005	0.4	303.435	0.002269	4.3e-05
0.005	0.4	303.806	0.002247	4.3e-05
0.005	0.4	304.106	0.002228	4.3e-05
0.005	0.4	304.435	0.002208	4.2e-05
0.005	0.4	304.808	0.002186	4.2e-05
0.005	0.4	305.117	0.002167	4.4e-05
0.005	0.4	305.391	0.00215	4.3e-05
0.005	0.4	305.806	0.002125	4.3e-05
0.005	0.4	306.111	0.002106	4.4e-05
0.005	0.4	306.443	0.002086	4.3e-05
0.005	0.4	306.79	0.002065	4.1e-05
0.005	0.4	306.824	0.002063	4.1e-05
0.005	0.4	307.11	0.002045	4.8e-05
0.005	0.4	307.395	0.002026	4.3e-05
0.005	0.4	307.787	0.002004	4.1e-05
0.005	0.4	308.13	0.001983	4.4e-05
0.005	0.4	308.428	0.001965	4.3e-05
0.005	0.4	308.793	0.001943	4.4e-05
0.005	0.4	309.13	0.001922	4.4e-05
0.005	0.4	309.413	0.001905	4.4e-05
0.005	0.4	309.752	0.001884	4.5e-05
0.01	0.42	302.746	0.002338	1.9e-05
0.01	0.42	302.927	0.002328	1.7e-05
0.01	0.42	303.117	0.002317	1.8e-05
0.01	0.42	303.338	0.002305	1.7e-05
0.01	0.42	303.534	0.002294	1.7e-05
0.01	0.42	303.741	0.002282	1.7e-05
0.01	0.42	303.947	0.002271	1.7e-05
0.01	0.42	304.132	0.00226	1.7e-05
0.01	0.42	304.324	0.00225	1.7e-05
0.01	0.42	304.515	0.002239	1.7e-05
0.01	0.42	304.747	0.002226	1.7e-05
0.01	0.42	304.913	0.002217	1.7e-05
0.01	0.42	305.143	0.002204	1.7e-05
0.01	0.42	305.327	0.002193	1.7e-05
0.01	0.42	305.526	0.002182	1.7e-05
0.01	0.42	305.731	0.002171	1.7e-05
0.01	0.42	305.917	0.00216	1.7e-05
0.01	0.42	306.146	0.002148	1.7e-05
0.01	0.42	306.298	0.002139	1.7e-05
0.01	0.42	306.475	0.002129	1.7e-05
0.01	0.42	306.687	0.002117	1.7e-05
0.01	0.42	306.876	0.002107	1.7e-05
0.01	0.42	307.168	0.00209	1.7e-05
0.05	0.48	309.091	0.002008	1.9e-05
0.05	0.48	309.243	0.001999	1.9e-05
0.05	0.48	309.401	0.001991	1.8e-05
0.05	0.48	309.684	0.001976	1.8e-05
0.05	0.48	309.912	0.001964	1.8e-05
0.05	0.48	310.101	0.001953	1.8e-05
0.05	0.48	310.275	0.001944	1.8e-05
0.05	0.48	310.508	0.001931	1.8e-05
0.05	0.48	310.681	0.001922	1.8e-05
0.05	0.48	310.89	0.001911	1.8e-05
0.05	0.48	311.088	0.0019	1.8e-05
0.05	0.48	311.299	0.001889	1.8e-05
0.05	0.48	311.501	0.001878	1.8e-05
0.05	0.48	311.822	0.00186	1.8e-05
0.05	0.48	312.012	0.00185	1.7e-05
0.05	0.48	312.205	0.00184	1.7e-05
0.05	0.48	312.522	0.001823	1.8e-05
0.05	0.48	312.711	0.001812	1.8e-05
0.05	0.48	312.989	0.001797	1.7e-05
0.05	0.48	313.111	0.001791	1.7e-05
0.05	0.48	313.336	0.001779	1.7e-05
0.05	0.48	313.542	0.001768	1.7e-05
0.05	0.48	313.892	0.001749	1.7e-05
0.05	0.48	314.116	0.001737	1.7e-05
