Measured thermophysical data. Density and viscosity study of pyridinium based ionic liquids as potential absorbents for natural refrigerants: experimental and modelling
Source: Fluid Phase Equilib., 2015, 10.1016/j.fluid.2015.06.043
Compound 1: 1-ethylpyridinium bis[(trifluoromethyl)sulfonyl]imide, C9H10F6N2O4S2, InChI=1S/C7H10N.C2F6NO4S2/c1-2-8-6-4-3-5-7-8;3-1(4,5)14(10,11)9-15(12,13)2(6,7)8/h3-7H,2H2,1H3;/q+1;-1, purity 99%
Compound 2: 1-ethylpyridinium triflate, C8H10F3NO3S, InChI=1S/C7H10N.CHF3O3S/c1-2-8-6-4-3-5-7-8;2-1(3,4)8(5,6)7/h3-7H,2H2,1H3;(H,5,6,7)/q+1;/p-1, purity 99%
Compound 3: water, H2O, InChI=1S/H2O/h1H2, purity 99.8%

System: 1-ethylpyridinium triflate; phases: Liquid
Fixed: Pressure, kPa = 101
Property: Mass density, kg/m3 (Liquid); method: Vibrating tube method
Temperature, K	Mass density, kg/m3	uncertainty
293.15	1409	0.6
298.15	1404.8	0.6
303.15	1400.6	0.6
313.15	1392.3	0.6
323.15	1384.1	0.6
333.15	1376	0.6
343.15	1367.8	0.5
353.15	1359.8	0.5

System: 1-ethylpyridinium triflate; phases: Liquid
Fixed: Pressure, kPa = 101
Property: Viscosity, Pa*s (Liquid); method: Falling or rolling sphere viscometry
Temperature, K	Viscosity, Pa*s	uncertainty
293.15	0.0752	0.00463
298.15	0.06058	0.00367
303.15	0.04877	0.00296
313.15	0.03378	0.00205
323.15	0.02447	0.00148
333.15	0.01824	0.00111
343.15	0.01405	0.00085
353.15	0.01113	0.00067

System: water; phases: Liquid
Fixed: Pressure, kPa = 101
Property: Mass density, kg/m3 (Liquid); method: Vibrating tube method
Temperature, K	Mass density, kg/m3	uncertainty
283.15	999.7	0.2
293.15	998.2	0.2
298.15	997	0.2
303.15	995.6	0.2
313.15	992.2	0.2
323.15	988	0.2
333.15	983.2	0.2
343.15	977.8	0.2
353.15	971.8	0.2

System: water; phases: Liquid
Fixed: Pressure, kPa = 101
Property: Viscosity, Pa*s (Liquid); method: Falling or rolling sphere viscometry
Temperature, K	Viscosity, Pa*s	uncertainty
293.15	0.001	6e-05
298.15	0.00089	5e-05
303.15	0.0008	5e-05
313.15	0.00065	4e-05
323.15	0.00055	3e-05
333.15	0.00047	3e-05
343.15	0.0004	2e-05
353.15	0.00035	2e-05

System: water + 1-ethylpyridinium bis[(trifluoromethyl)sulfonyl]imide; phases: Liquid
Fixed: Pressure, kPa = 101
Property: Mass density, kg/m3 (Liquid); method: Vibrating tube method
Temperature, K	Mass fraction of water	Mass density, kg/m3	uncertainty
283.15	0.000239	1551.6	0.7
293.15	0.000239	1541.4	0.7
298.15	0.000239	1536.4	0.7
303.15	0.000239	1531.4	0.7
313.15	0.000239	1521.5	0.7
323.15	0.000239	1511.6	0.7
333.15	0.000239	1501.9	0.7
343.15	0.000239	1492.2	0.7
353.15	0.000239	1482.6	0.7
283.15	0.004399	1546.8	0.7
293.15	0.004399	1536.6	0.7
298.15	0.004399	1531.6	0.7
303.15	0.004399	1526.6	0.7
313.15	0.004399	1516.6	0.7
323.15	0.004399	1506.8	0.7
333.15	0.004399	1497	1
343.15	0.004399	1487.2	0.7
353.15	0.004399	1477.5	0.6

System: water + 1-ethylpyridinium bis[(trifluoromethyl)sulfonyl]imide; phases: Liquid
Fixed: Pressure, kPa = 101
Property: Viscosity, Pa*s (Liquid); method: Falling or rolling sphere viscometry
Temperature, K	Mass fraction of water	Viscosity, Pa*s	uncertainty
283.15	0.000239	0.07856	0.00485
293.15	0.000239	0.04988	0.00302
298.15	0.000239	0.04012	0.00243
303.15	0.000239	0.03332	0.00202
313.15	0.000239	0.02404	0.00146
323.15	0.000239	0.01781	0.00108
333.15	0.000239	0.0137	0.00083
343.15	0.000239	0.01088	0.00066
353.15	0.000239	0.00868	0.00053
283.15	0.004399	0.06431	0.0039
293.15	0.004399	0.04167	0.00253
298.15	0.004399	0.03411	0.00207
303.15	0.004399	0.02841	0.00172
313.15	0.004399	0.02061	0.00125
323.15	0.004399	0.01547	0.00094
333.15	0.004399	0.01215	0.00074
343.15	0.004399	0.0097	0.00059
353.15	0.004399	0.00792	0.00048

System: 1-ethylpyridinium triflate + water; phases: Liquid
Fixed: Pressure, kPa = 101
Property: Mass density, kg/m3 (Liquid); method: Vibrating tube method
Temperature, K	Mole fraction of 1-ethylpyridinium triflate	Mass density, kg/m3	uncertainty
283.15	0	999.7	0.2
293.15	0	998.2	0.2
298.15	0	997	0.2
303.15	0	995.6	0.2
313.15	0	992.2	0.2
323.15	0	988	0.2
333.15	0	983.2	0.2
343.15	0	977.8	0.2
353.15	0	971.8	0.2
283.15	0.067	1176.4	0.3
293.15	0.067	1170.2	0.3
298.15	0.067	1167	1
303.15	0.067	1163.7	0.2
313.15	0.067	1156.9	0.2
323.15	0.067	1149.7	0.2
333.15	0.067	1142.2	0.2
343.15	0.067	1134.4	0.2
353.15	0.067	1126.3	0.3
283.15	0.183	1288.1	0.3
293.15	0.183	1280.2	0.3
298.15	0.183	1276.2	0.3
303.15	0.183	1272.1	0.3
313.15	0.183	1264	1
323.15	0.183	1255.7	0.3
333.15	0.183	1247.3	0.3
343.15	0.183	1238.7	0.3
353.15	0.183	1230.1	0.3
293.15	0.498	1366.1	0.4
298.15	0.498	1361.9	0.4
303.15	0.498	1357.8	0.4
313.15	0.498	1349.4	0.4
323.15	0.498	1341.1	0.4
333.15	0.498	1332.8	0.4
343.15	0.498	1324.4	0.3
353.15	0.498	1316.1	0.3
293.15	0.689	1387.2	0.4
298.15	0.689	1383	1
303.15	0.689	1378.8	0.4
313.15	0.689	1370.5	0.4
323.15	0.689	1362.3	0.4
333.15	0.689	1354	1
343.15	0.689	1345.9	0.4
353.15	0.689	1337.7	0.4
293.15	0.893	1401.9	0.5
298.15	0.893	1397.7	0.5
303.15	0.893	1393.5	0.5
313.15	0.893	1385.2	0.5
323.15	0.893	1377	1
333.15	0.893	1368.8	0.5
343.15	0.893	1360.7	0.5
353.15	0.893	1352.7	0.5
293.15	1	1409	0.6
298.15	1	1404.8	0.6
303.15	1	1400.6	0.6
313.15	1	1392.3	0.6
323.15	1	1384.1	0.6
333.15	1	1376	0.6
343.15	1	1367.8	0.5
353.15	1	1359.8	0.5

System: 1-ethylpyridinium triflate + water; phases: Liquid
Fixed: Pressure, kPa = 101
Property: Viscosity, Pa*s (Liquid); method: Falling or rolling sphere viscometry
Temperature, K	Mole fraction of 1-ethylpyridinium triflate	Viscosity, Pa*s	uncertainty
293.15	0	0.001	6e-05
298.15	0	0.00089	5e-05
303.15	0	0.0008	5e-05
313.15	0	0.00065	4e-05
323.15	0	0.00055	3e-05
333.15	0	0.00047	3e-05
343.15	0	0.0004	2e-05
353.15	0	0.00035	2e-05
293.15	0.067	0.00247	0.00015
298.15	0.067	0.00216	0.00013
303.15	0.067	0.0019	0.00011
313.15	0.067	0.0015	9e-05
323.15	0.067	0.00122	7e-05
333.15	0.067	0.00102	6e-05
293.15	0.183	0.0053	0.00032
298.15	0.183	0.0046	0.00028
303.15	0.183	0.00403	0.00024
313.15	0.183	0.00316	0.00019
323.15	0.183	0.00255	0.00015
333.15	0.183	0.0021	0.00013
343.15	0.183	0.00176	0.00011
293.15	0.498	0.01769	0.00107
298.15	0.498	0.01504	0.00091
303.15	0.498	0.013	0.00079
313.15	0.498	0.00996	0.0006
323.15	0.498	0.00786	0.00048
333.15	0.498	0.00634	0.00038
343.15	0.498	0.00524	0.00032
353.15	0.498	0.00441	0.00027
293.15	0.689	0.03337	0.00202
298.15	0.689	0.02781	0.00168
303.15	0.689	0.02354	0.00143
313.15	0.689	0.01736	0.00105
323.15	0.689	0.01326	0.0008
333.15	0.689	0.01046	0.00063
343.15	0.689	0.00842	0.00051
353.15	0.689	0.00692	0.00042
293.15	0.893	0.06573	0.00399
298.15	0.893	0.0532	0.0032
303.15	0.893	0.04369	0.00265
313.15	0.893	0.03078	0.00187
323.15	0.893	0.02252	0.00136
333.15	0.893	0.01713	0.00104
343.15	0.893	0.0134	0.00081
353.15	0.893	0.01074	0.00065
293.15	1	0.0752	0.00463
298.15	1	0.06058	0.00367
303.15	1	0.04877	0.00296
313.15	1	0.03378	0.00205
323.15	1	0.02447	0.00148
333.15	1	0.01824	0.00111
343.15	1	0.01405	0.00085
353.15	1	0.01113	0.00067
