Measured thermophysical data. Investigation of the aqueous salt solutions of some first and second group metals at various pressures
Source: Fluid Phase Equilib., 2008, 10.1016/j.fluid.2008.02.014
Compound 1: sodium chloride, ClNa, InChI=1S/ClH.Na/h1H;/q;+1/p-1
Compound 2: water, H2O, InChI=1S/H2O/h1H2
Compound 3: calcium chloride, CaCl2, InChI=1S/Ca.2ClH/h;2*1H/q+2;;/p-2
Compound 4: barium chloride, BaCl2, InChI=1S/Ba.2ClH/h;2*1H/q+2;;/p-2
Compound 5: potassium nitrate, KNO3, InChI=1S/K.NO3/c;2-1(3)4/q+1;-1
Compound 6: potassium chloride, ClK, InChI=1S/ClH.K/h1H;/q;+1/p-1

System: sodium chloride + water; phases: Liquid, Gas
Property: Boiling temperature at pressure P, K (Liquid); method: EBULLIO:UFactor:4
Molality, mol/kg of sodium chloride	Pressure, kPa	Boiling temperature at pressure P, K	uncertainty
1.9013	21.332	342.95	0.41
1.9013	27.998	348.26	0.44
1.9013	34.664	352.62	0.45
1.9013	41.334	356.71	0.47
1.9013	47.996	360.31	0.46
1.9013	54.662	363.35	0.45
1.9013	61.328	366.15	0.46
1.9013	67.994	368.75	0.45
1.9013	74.66	370.95	0.44
1.9013	81.326	373.05	0.46
1.9013	87.992	375.15	0.45
1.9013	94.658	376.95	0.44
1.9013	101.325	378.65	0.45
4.2779	21.332	346.45	0.41
4.2779	27.998	351.75	0.44
4.2779	34.664	356.15	0.44
4.2779	41.334	359.95	0.44
4.2779	47.996	363.35	0.45
4.2779	54.662	366.55	0.47
4.2779	61.328	369.55	0.47
4.2779	67.994	372.15	0.46
4.2779	74.66	374.55	0.47
4.2779	81.326	376.85	0.46
4.2779	87.992	378.85	0.45
4.2779	94.658	380.75	0.42
4.2779	101.325	382.15	0.39

System: water + calcium chloride; phases: Liquid, Gas
Property: Boiling temperature at pressure P, K (Liquid); method: EBULLIO:UFactor:8
Molality, mol/kg of calcium chloride	Pressure, kPa	Boiling temperature at pressure P, K	uncertainty
1.0011	21.332	344.35	0.67
1.0011	27.998	348.95	0.73
1.0011	34.664	352.65	0.73
1.0011	41.334	355.95	0.79
1.0011	47.996	359.25	0.86
1.0011	54.662	362.35	0.8
1.0011	61.328	364.55	0.81
1.0011	67.994	367.25	0.94
1.0011	74.66	369.75	0.95
1.0011	81.326	372.05	0.96
1.0011	87.992	374.25	0.96
1.0011	94.658	376.25	0.9
1.0011	101.325	377.95	0.88
2.2524	21.332	345.95	0.62
2.2524	27.998	351.05	0.79
2.2524	34.664	354.85	0.82
2.2524	41.334	358.95	0.82
2.2524	47.996	361.75	0.8
2.2524	54.662	364.85	0.9
2.2524	61.328	367.75	0.93
2.2524	67.994	370.45	0.93
2.2524	74.66	372.85	1.08
2.2524	81.326	375.95	1.04
2.2524	87.992	377.75	0.57
2.2524	94.658	378.45	0.93
2.2524	101.325	381.55	1.5
3.8613	21.332	350.95	0.54
3.8613	27.998	355.05	0.72
3.8613	34.664	359.15	0.82
3.8613	41.334	362.95	0.88
3.8613	47.996	366.55	0.85
3.8613	54.662	369.25	0.86
3.8613	61.328	372.25	0.93
3.8613	67.994	374.85	0.83
3.8613	74.66	376.85	0.73
3.8613	81.326	378.55	0.68
3.8613	87.992	380.05	0.82
3.8613	94.658	382.15	1.31
3.8613	101.325	385.45	1.64
6.0065	21.332	358.95	0.76
6.0065	27.998	364.15	0.7
6.0065	34.664	366.85	0.69
6.0065	41.334	370.75	0.85
6.0065	47.996	373.95	0.92
6.0065	54.662	377.55	0.9
6.0065	61.328	379.95	0.76
6.0065	67.994	382.15	0.82
6.0065	74.66	384.45	0.75
6.0065	81.326	385.95	0.57
6.0065	87.992	387.15	0.68
6.0065	94.658	388.95	0.73
6.0065	101.325	390.15	0.62

System: water + barium chloride; phases: Liquid, Gas
Property: Boiling temperature at pressure P, K (Liquid); method: EBULLIO:UFactor:4
Molality, mol/kg of barium chloride	Pressure, kPa	Boiling temperature at pressure P, K	uncertainty
0.5335	21.332	343.85	0.38
0.5335	27.998	348.65	0.41
0.5335	34.664	352.55	0.42
0.5335	41.334	356.45	0.44
0.5335	47.996	359.65	0.44
0.5335	54.662	362.75	0.45
0.5335	61.328	365.55	0.46
0.5335	67.994	368.15	0.45
0.5335	74.66	370.45	0.45
0.5335	81.326	372.65	0.46
0.5335	87.992	374.65	0.45
0.5335	94.658	376.55	0.47
0.5335	101.325	378.45	0.49
1.2005	21.332	344.55	0.39
1.2005	27.998	349.65	0.43
1.2005	34.664	353.85	0.45
1.2005	41.334	358.05	0.45
1.2005	47.996	361.25	0.44
1.2005	54.662	364.35	0.46
1.2005	61.328	367.25	0.46
1.2005	67.994	369.85	0.45
1.2005	74.66	372.15	0.45
1.2005	81.326	374.25	0.44
1.2005	87.992	376.15	0.44
1.2005	94.658	377.95	0.39
1.2005	101.325	379.15	0.35
2.0579	21.332	345.85	0.4
2.0579	27.998	350.95	0.43
2.0579	34.664	355.15	0.44
2.0579	41.334	359.15	0.46
2.0579	47.996	362.65	0.45
2.0579	54.662	365.65	0.45
2.0579	61.328	368.55	0.46
2.0579	67.994	371.15	0.43
2.0579	74.66	373.15	0.42
2.0579	81.326	375.25	0.46
2.0579	87.992	377.35	0.43
2.0579	94.658	378.85	0.37
2.0579	101.325	380.15	0.37

System: water + potassium nitrate; phases: Liquid, Gas
Property: Boiling temperature at pressure P, K (Liquid); method: EBULLIO:UFactor:4
Molality, mol/kg of potassium nitrate	Pressure, kPa	Boiling temperature at pressure P, K	uncertainty
1.0989	21.332	342.25	0.37
1.0989	27.998	346.95	0.38
1.0989	34.664	350.35	0.44
1.0989	41.334	355.25	0.48
1.0989	47.996	358.35	0.42
1.0989	54.662	361.15	0.44
1.0989	61.328	363.95	0.45
1.0989	67.994	366.45	0.45
1.0989	74.66	368.75	0.45
1.0989	81.326	370.85	0.42
1.0989	87.992	372.55	0.43
1.0989	94.658	374.45	0.45
1.0989	101.325	376.15	0.45
2.4726	21.332	343.15	0.38
2.4726	27.998	348.25	0.44
2.4726	34.664	352.75	0.44
2.4726	41.334	356.55	0.45
2.4726	47.996	360.15	0.43
2.4726	54.662	362.75	0.42
2.4726	61.328	365.55	0.43
2.4726	67.994	367.75	0.43
2.4726	74.66	370.15	0.45
2.4726	81.326	372.15	0.42
2.4726	87.992	373.95	0.42
2.4726	94.658	375.65	0.43
2.4726	101.325	377.35	0.47
4.2387	21.332	345.15	0.41
4.2387	27.998	350.35	0.43
4.2387	34.664	354.55	0.42
4.2387	41.334	358.15	0.44
4.2387	47.996	361.65	0.46
4.2387	54.662	364.75	0.45
4.2387	61.328	367.55	0.44
4.2387	67.994	369.95	0.43
4.2387	74.66	372.15	0.43
4.2387	81.326	374.15	0.42
4.2387	87.992	375.95	0.42
4.2387	94.658	377.65	0.41
4.2387	101.325	379.15	0.34
6.5935	21.332	347.55	0.37
6.5935	27.998	352.15	0.4
6.5935	34.664	356.15	0.42
6.5935	41.334	359.95	0.43
6.5935	47.996	363.15	0.43
6.5935	54.662	366.15	0.46
6.5935	61.328	369.15	0.47
6.5935	67.994	371.75	0.43
6.5935	74.66	373.65	0.41
6.5935	81.326	375.75	0.41
6.5935	87.992	377.35	0.41
6.5935	94.658	379.15	0.38
6.5935	101.325	380.25	0.33

System: potassium chloride + water; phases: Liquid, Gas
Property: Boiling temperature at pressure P, K (Liquid); method: EBULLIO:UFactor:8
Molality, mol/kg of potassium chloride	Pressure, kPa	Boiling temperature at pressure P, K	uncertainty
1.4902	21.332	343.55	0.79
1.4902	27.998	348.95	0.88
1.4902	34.664	353.55	0.86
1.4902	41.334	357.25	0.85
1.4902	47.996	360.65	0.86
1.4902	54.662	363.65	0.86
1.4902	61.328	366.35	0.88
1.4902	67.994	368.95	0.91
1.4902	74.66	371.35	0.89
1.4902	81.326	373.45	0.85
1.4902	87.992	375.35	0.89
1.4902	94.658	377.35	0.93
1.4902	101.325	379.15	0.93
3.353	21.332	345.55	0.74
3.353	27.998	350.55	0.8
3.353	34.664	354.55	0.82
3.353	41.334	358.45	0.84
3.353	47.996	361.55	0.85
3.353	54.662	364.75	0.92
3.353	61.328	367.65	0.9
3.353	67.994	370.15	0.89
3.353	74.66	372.55	0.89
3.353	81.326	374.65	0.87
3.353	87.992	376.65	0.84
3.353	94.658	378.35	0.88
3.353	101.325	380.25	0.95
5.748	21.332	347.75	0.73
5.748	27.998	352.75	0.77
5.748	34.664	356.45	0.83
5.748	41.334	360.75	0.9
5.748	47.996	363.95	0.82
5.748	54.662	366.85	0.89
5.748	61.328	369.85	0.81
5.748	67.994	371.75	0.69
5.748	74.66	373.65	0.83
5.748	81.326	375.95	0.91
5.748	87.992	377.95	0.89
5.748	94.658	379.85	0.85
5.748	101.325	381.45	0.83
