Measured thermophysical data. Isothermal vapor liquid equilibria for different binary mixtures involved in the alcoholic distillation
Source: Fluid Phase Equilib., 2008, 10.1016/j.fluid.2008.03.002
Compound 1: ethanol, C2H6O, InChI=1S/C2H6O/c1-2-3/h3H,2H2,1H3, purity 99.7%
Compound 2: 2-methyl-1-butanol, C5H12O, InChI=1S/C5H12O/c1-3-5(2)4-6/h5-6H,3-4H2,1-2H3, purity 99.3%
Compound 3: 2-methyl-1-propanol, C4H10O, InChI=1S/C4H10O/c1-4(2)3-5/h4-5H,3H2,1-2H3, purity 99.7%
Compound 4: ethyl acetate, C4H8O2, InChI=1S/C4H8O2/c1-3-6-4(2)5/h3H2,1-2H3, purity 99.7%
Compound 5: 3-methylbutan-1-ol, C5H12O, InChI=1S/C5H12O/c1-5(2)3-4-6/h5-6H,3-4H2,1-2H3, purity 99.7%

System: ethyl acetate; phases: Liquid
Property: Mass density, kg/m3 (Liquid); method: VIBTUB:UFactor:3
Temperature, K	Pressure, kPa	Mass density, kg/m3	uncertainty
332.7	101	851.36	0.28

System: 3-methylbutan-1-ol; phases: Liquid
Property: Mass density, kg/m3 (Liquid); method: VIBTUB:UFactor:3
Temperature, K	Pressure, kPa	Mass density, kg/m3	uncertainty
332.7	101	778.14	0.37

System: 3-methylbutan-1-ol + ethyl acetate; phases: Liquid
Fixed: Temperature, K = 332.7
Fixed: Pressure, kPa = 101
Property: Mass density, kg/m3 (Liquid); method: VIBTUB:UFactor:3
Mole fraction of ethyl acetate	Mass density, kg/m3	uncertainty
0	778.14	0.37
0.0501	780.94	0.36
0.1087	784.25	0.36
0.1714	788.1	0.36
0.2296	791.81	0.35
0.29	795.6	0.35
0.3561	799.89	0.34
0.4088	803.56	0.34
0.4659	807.59	0.34
0.5339	812.5	0.33
0.5891	816.6	0.33
0.6597	821.96	0.32
0.7088	825.91	0.31
0.7693	830.72	0.31
0.8286	835.79	0.3
0.8882	840.96	0.3
0.9488	846.43	0.29
1	851.36	0.28

System: 3-methylbutan-1-ol + ethyl acetate; phases: Gas, Liquid
Fixed: Temperature, K = 332.95
Property: Mole fraction of ethyl acetate (Gas); method: CHROM:UFactor:6
Mole fraction of ethyl acetate	Mole fraction of ethyl acetate	uncertainty
0.0297	0.4328	0.0312
0.0598	0.592	0.0294
0.0901	0.6961	0.0219
0.101	0.7182	0.0203
0.12	0.7473	0.0182
0.1592	0.7931	0.0149
0.1993	0.8242	0.0127
0.2395	0.8445	0.0112
0.2803	0.8659	0.0097
0.323	0.8762	0.0089
0.3601	0.889	0.008
0.4016	0.9044	0.0069
0.44	0.9125	0.0063
0.4781	0.9199	0.0058
0.5288	0.9281	0.0052
0.5757	0.9383	0.0045
0.6306	0.9438	0.0041
0.6791	0.9526	0.0034
0.7308	0.9577	0.0031
0.7795	0.9669	0.0024
0.8298	0.9731	0.0019
0.8783	0.9809	0.0014
0.9279	0.989	0.0008
0.9788	0.9972	0.0002

System: ethanol + 3-methylbutan-1-ol; phases: Gas, Liquid
Fixed: Temperature, K = 332.95
Property: Mole fraction of ethanol (Gas); method: CHROM:UFactor:6
Mole fraction of ethanol	Mole fraction of ethanol	uncertainty
0.0217	0.2135	0.0154
0.0448	0.3585	0.0258
0.0925	0.5607	0.0317
0.1403	0.6603	0.0245
0.1496	0.6803	0.0231
0.1786	0.7178	0.0204
0.1835	0.7223	0.02
0.2201	0.7674	0.0168
0.294	0.8345	0.0119
0.3652	0.8682	0.0095
0.4001	0.8871	0.0082
0.5011	0.9211	0.0057
0.5367	0.9339	0.0048
0.6788	0.9588	0.003
0.7502	0.9696	0.0022
0.8186	0.9791	0.0015
0.8901	0.986	0.001
0.9195	0.9874	0.0009
0.9598	0.9938	0.0005

System: 2-methyl-1-butanol + ethyl acetate; phases: Gas, Liquid
Fixed: Temperature, K = 332.95
Property: Mole fraction of ethyl acetate (Gas); method: CHROM:UFactor:6
Mole fraction of ethyl acetate	Mole fraction of ethyl acetate	uncertainty
0.0107	0.1794	0.0129
0.0299	0.396	0.0285
0.059	0.5503	0.0324
0.0893	0.6506	0.0252
0.1195	0.7166	0.0204
0.1621	0.7711	0.0165
0.1893	0.7909	0.0151
0.24	0.8293	0.0123
0.2901	0.8561	0.0104
0.3395	0.8764	0.0089
0.3889	0.8897	0.008
0.439	0.9033	0.007
0.4891	0.9134	0.0062
0.5399	0.9258	0.0054
0.5902	0.9343	0.0047
0.6397	0.9378	0.0045
0.6886	0.9508	0.0035
0.7397	0.9586	0.003
0.7897	0.9647	0.0025
0.8313	0.9719	0.002
0.8898	0.9807	0.0014
0.9397	0.9897	0.0007
0.9801	0.9961	0.0003

System: 2-methyl-1-propanol + ethyl acetate; phases: Gas, Liquid
Fixed: Temperature, K = 332.95
Property: Mole fraction of ethyl acetate (Gas); method: CHROM:UFactor:6
Mole fraction of ethyl acetate	Mole fraction of ethyl acetate	uncertainty
0.0204	0.1508	0.0109
0.0402	0.2593	0.0187
0.0606	0.3465	0.025
0.1035	0.4618	0.0333
0.1494	0.5484	0.0325
0.1999	0.6066	0.0284
0.2486	0.6544	0.0249
0.2996	0.6931	0.0221
0.344	0.7221	0.02
0.3888	0.7519	0.0179
0.435	0.7802	0.0159
0.48	0.8013	0.0143
0.5242	0.8176	0.0132
0.5698	0.8386	0.0116
0.6146	0.8557	0.0104
0.6595	0.8736	0.0091
0.7043	0.8894	0.008
0.7479	0.9064	0.0068
0.8306	0.9353	0.0047
0.8844	0.9548	0.0033
0.9297	0.9724	0.002
0.9748	0.9903	0.0007

System: ethanol + 2-methyl-1-butanol; phases: Gas, Liquid
Fixed: Temperature, K = 332.95
Property: Mole fraction of ethanol (Gas); method: CHROM:UFactor:6
Mole fraction of ethanol	Mole fraction of ethanol	uncertainty
0.0098	0.1165	0.0084
0.03	0.258	0.0186
0.0511	0.3693	0.0266
0.0722	0.4519	0.0326
0.0998	0.5368	0.0334
0.1396	0.634	0.0264
0.1907	0.715	0.0205
0.2303	0.7565	0.0176
0.2696	0.7913	0.0151
0.3486	0.8405	0.0115
0.3903	0.8606	0.0101
0.4298	0.8777	0.0088
0.4787	0.8948	0.0076
0.5292	0.9121	0.0063
0.6286	0.9399	0.0043
0.7306	0.9592	0.0029
0.78	0.9675	0.0023
0.8301	0.9754	0.0018
0.8806	0.9829	0.0012
0.9296	0.9896	0.0008
0.9806	0.9971	0.0002
