Measured thermophysical data. Liquid-liquid equilibria for methyl isobutyl ketone + cresols + water at 333.15K, 343.15K and 353.15K: Experimental results and data correlation
Source: Fluid Phase Equilib., 2016, 10.1016/j.fluid.2016.07.023
Compound 1: 2-methylphenol, C7H8O, InChI=1S/C7H8O/c1-6-4-2-3-5-7(6)8/h2-5,8H,1H3, purity 99%
Compound 2: 3-methylphenol, C7H8O, InChI=1S/C7H8O/c1-6-3-2-4-7(8)5-6/h2-5,8H,1H3, purity 99%
Compound 3: 4-methylphenol, C7H8O, InChI=1S/C7H8O/c1-6-2-4-7(8)5-3-6/h2-5,8H,1H3, purity 99%
Compound 4: 4-methylpentan-2-one, C6H12O, InChI=1S/C6H12O/c1-5(2)4-6(3)7/h5H,4H2,1-3H3, purity 99%
Compound 5: water, H2O, InChI=1S/H2O/h1H2, purity 99.8%

System: 2-methylphenol + 4-methylpentan-2-one + water; phases: Liquid mixture 1, Liquid mixture 2
Fixed: Pressure, kPa = 101.3
Property: Mole fraction of 2-methylphenol (Liquid mixture 1); method: Chromatography
Property: Mole fraction of 2-methylphenol (Liquid mixture 2); method: Chromatography
Property: Mole fraction of 4-methylpentan-2-one (Liquid mixture 2); method: Chromatography
Temperature, K	Mole fraction of 4-methylpentan-2-one	Mole fraction of 2-methylphenol	uncertainty	Mole fraction of 2-methylphenol	uncertainty	Mole fraction of 4-methylpentan-2-one	uncertainty
333.15	0.0007	0.0008	0.0004	0.3588	0.0028	0.2521	
333.15	0.0009	0.0007	0.0004	0.3363	0.0026	0.2869	
333.15	0.001	0.0006	0.0004	0.3148	0.0025	0.3197	
333.15	0.0011	0.0005	0.0004	0.2828	0.0022	0.3682	
333.15	0.0013	0.0004	0.0004	0.2459	0.0019	0.4135	
333.15	0.0014	0.0003	0.0003	0.2017	0.0016	0.475	
333.15	0.0015	0.0002	0.0002	0.1615	0.0013	0.523	
333.15	0.0016	0.0001	0.0001	0.1357	0.0011	0.5599	
333.15	0.0017	0.0001	0.0001	0.0967	0.0008	0.633	
333.15	0.0023	0		0		0.8112	
343.15	0.0006	0.0009	0.0004	0.365	0.0028	0.2341	
343.15	0.0008	0.0008	0.0004	0.3446	0.0027	0.2653	
343.15	0.0009	0.0007	0.0004	0.3212	0.0025	0.3008	
343.15	0.0011	0.0006	0.0004	0.2905	0.0023	0.3566	
343.15	0.0012	0.0004	0.0004	0.2512	0.002	0.4054	
343.15	0.0014	0.0003	0.0003	0.2084	0.0016	0.4677	
343.15	0.0015	0.0002	0.0002	0.1698	0.0014	0.5233	
343.15	0.0016	0.0001	0.0001	0.1393	0.0011	0.5667	
343.15	0.0017	0.0001	0.0001	0.1053	0.0009	0.6145	
343.15	0.0022	0		0		0.7413	
353.15	0.0006	0.001	0.0004	0.371	0.0029	0.2175	
353.15	0.0007	0.0009	0.0004	0.3519	0.0027	0.2375	
353.15	0.0008	0.0008	0.0004	0.3251	0.0025	0.2787	
353.15	0.0009	0.0006	0.0004	0.2998	0.0024	0.3169	
353.15	0.0011	0.0005	0.0004	0.2509	0.002	0.3745	
353.15	0.0013	0.0004	0.0004	0.2229	0.0018	0.419	
353.15	0.0014	0.0003	0.0003	0.1844	0.0015	0.4752	
353.15	0.0015	0.0002	0.0002	0.1437	0.0012	0.5347	
353.15	0.0016	0.0001	0.0001	0.1104	0.001	0.5794	
353.15	0.0019	0		0		0.6928	

System: 4-methylpentan-2-one + 3-methylphenol + water; phases: Liquid mixture 1, Liquid mixture 2
Fixed: Pressure, kPa = 101.3
Property: Mole fraction of 3-methylphenol (Liquid mixture 1); method: Chromatography
Property: Mole fraction of 3-methylphenol (Liquid mixture 2); method: Chromatography
Property: Mole fraction of 4-methylpentan-2-one (Liquid mixture 2); method: Chromatography
Temperature, K	Mole fraction of 4-methylpentan-2-one	Mole fraction of 3-methylphenol	uncertainty	Mole fraction of 3-methylphenol	uncertainty	Mole fraction of 4-methylpentan-2-one	uncertainty
333.15	0.0007	0.0009	0.0004	0.3989	0.0031	0.2413	
333.15	0.0009	0.0008	0.0004	0.3563	0.0028	0.301	
333.15	0.001	0.0007	0.0004	0.3318	0.0026	0.3391	
333.15	0.0011	0.0006	0.0004	0.2865	0.0023	0.3971	
333.15	0.0013	0.0005	0.0004	0.2365	0.0019	0.4566	
333.15	0.0014	0.0004	0.0004	0.2102	0.0017	0.4929	
333.15	0.0015	0.0003	0.0003	0.1886	0.0015	0.5293	
333.15	0.0016	0.0002	0.0002	0.1433	0.0012	0.5864	
333.15	0.0018	0.0001	0.0001	0.1007	0.0009	0.6361	
333.15	0.0023	0		0		0.8112	
343.15	0.0007	0.001	0.0004	0.4042	0.0032	0.2263	
343.15	0.0008	0.0008	0.0004	0.3529	0.0028	0.2805	
343.15	0.0009	0.0007	0.0004	0.3267	0.0026	0.3178	
343.15	0.0011	0.0006	0.0004	0.2846	0.0022	0.3702	
343.15	0.0013	0.0005	0.0004	0.2397	0.0019	0.4277	
343.15	0.0013	0.0004	0.0004	0.2126	0.0017	0.4628	
343.15	0.0014	0.0003	0.0003	0.1859	0.0015	0.503	
343.15	0.0015	0.0002	0.0002	0.1492	0.0012	0.5577	
343.15	0.0017	0.0002	0.0002	0.1063	0.001	0.6188	
343.15	0.0022	0		0		0.7413	
353.15	0.0006	0.001	0.0004	0.4011	0.0031	0.221	
353.15	0.0008	0.0009	0.0004	0.35	0.0027	0.2786	
353.15	0.0009	0.0008	0.0004	0.3277	0.0026	0.3073	
353.15	0.001	0.0007	0.0004	0.2931	0.0023	0.3573	
353.15	0.0012	0.0005	0.0004	0.242	0.0019	0.4181	
353.15	0.0013	0.0005	0.0004	0.2157	0.0017	0.4575	
353.15	0.0014	0.0004	0.0004	0.1851	0.0015	0.495	
353.15	0.0015	0.0003	0.0003	0.147	0.0013	0.5379	
353.15	0.0016	0.0002	0.0002	0.1029	0.001	0.5865	
353.15	0.0019	0		0		0.6928	

System: 4-methylphenol + 4-methylpentan-2-one + water; phases: Liquid mixture 1, Liquid mixture 2
Fixed: Pressure, kPa = 101.3
Property: Mole fraction of 4-methylphenol (Liquid mixture 1); method: Chromatography
Property: Mole fraction of 4-methylphenol (Liquid mixture 2); method: Chromatography
Property: Mole fraction of 4-methylpentan-2-one (Liquid mixture 2); method: Chromatography
Temperature, K	Mole fraction of 4-methylpentan-2-one	Mole fraction of 4-methylphenol	uncertainty	Mole fraction of 4-methylphenol	uncertainty	Mole fraction of 4-methylpentan-2-one	uncertainty
333.15	0.0006	0.0009	0.0004	0.3882	0.003	0.232	
333.15	0.0008	0.0008	0.0004	0.36	0.0028	0.2703	
333.15	0.0009	0.0007	0.0004	0.3173	0.0025	0.3168	
333.15	0.0011	0.0005	0.0004	0.2844	0.0022	0.3654	
333.15	0.0013	0.0004	0.0004	0.2516	0.002	0.4131	
333.15	0.0014	0.0003	0.0003	0.217	0.0017	0.463	
333.15	0.0015	0.0002	0.0002	0.1645	0.0013	0.5197	
333.15	0.0016	0.0001	0.0001	0.1519	0.0012	0.5555	
333.15	0.0017	0.0001	0.0001	0.111	0.001	0.6123	
333.15	0.0023	0		0		0.8112	
343.15	0.0006	0.0009	0.0004	0.3948	0.0031	0.2241	
343.15	0.0007	0.0009	0.0004	0.3621	0.0028	0.2617	
343.15	0.0009	0.0007	0.0004	0.3337	0.0026	0.2937	
343.15	0.0011	0.0005	0.0004	0.2866	0.0022	0.3544	
343.15	0.0012	0.0004	0.0004	0.2568	0.002	0.3943	
343.15	0.0014	0.0003	0.0003	0.2215	0.0017	0.4418	
343.15	0.0015	0.0002	0.0002	0.1901	0.0015	0.4837	
343.15	0.0016	0.0002	0.0002	0.153	0.0012	0.5329	
343.15	0.0017	0.0001	0.0001	0.1144	0.001	0.5874	
343.15	0.0022	0		0		0.7413	
353.15	0.0006	0.001	0.0004	0.3943	0.0031	0.209	
353.15	0.0007	0.0009	0.0004	0.3698	0.0029	0.2454	
353.15	0.0009	0.0007	0.0004	0.3274	0.0026	0.2935	
353.15	0.001	0.0006	0.0004	0.2916	0.0023	0.3412	
353.15	0.0012	0.0005	0.0004	0.2601	0.002	0.3831	
353.15	0.0013	0.0003	0.0003	0.2252	0.0018	0.4294	
353.15	0.0014	0.0003	0.0003	0.1743	0.0014	0.484	
353.15	0.0015	0.0002	0.0002	0.1606	0.0013	0.5144	
353.15	0.0016	0.0001	0.0001	0.1196	0.0011	0.5697	
353.15	0.0019	0		0		0.6928	
