Measured thermophysical data. Unusual behavior of the isotope effect on miscibility of 1-hexyl-3-methylimidazolium bis(trifluorosulfonyl)imide with 1-alkanols
Source: Fluid Phase Equilib., 2014, 10.1016/j.fluid.2014.03.005
Compound 1: butan-1-ol, C4H10O, InChI=1S/C4H10O/c1-2-3-4-5/h5H,2-4H2,1H3, purity 99%
Compound 2: 1-hexyl-3-methylimidazolium bis[(trifluoromethyl)sulfonyl]imide, C12H19F6N3O4S2, InChI=1S/C10H19N2.C2F6NO4S2/c1-3-4-5-6-7-12-9-8-11(2)10-12;3-1(4,5)14(10,11)9-15(12,13)2(6,7)8/h8-10H,3-7H2,1-2H3;/q+1;-1, purity 99%
Compound 3: pentan-1-ol, C5H12O, InChI=1S/C5H12O/c1-2-3-4-5-6/h6H,2-5H2,1H3, purity 99%
Compound 4: hexan-1-ol, C6H14O, InChI=1S/C6H14O/c1-2-3-4-5-6-7/h7H,2-6H2,1H3, purity 99%
Compound 5: heptan-1-ol, C7H16O, InChI=1S/C7H16O/c1-2-3-4-5-6-7-8/h8H,2-7H2,1H3, purity 99%
Compound 6: octan-1-ol, C8H18O, InChI=1S/C8H18O/c1-2-3-4-5-6-7-8-9/h9H,2-8H2,1H3, purity 99%
Compound 7: nonan-1-ol, C9H20O, InChI=1S/C9H20O/c1-2-3-4-5-6-7-8-9-10/h10H,2-9H2,1H3, purity 99%
Compound 8: decan-1-ol, C10H22O, InChI=1S/C10H22O/c1-2-3-4-5-6-7-8-9-10-11/h11H,2-10H2,1H3, purity 99%
Compound 9: n-butan(ol-d), C4H9DO, InChI=1S/C4H10O/c1-2-3-4-5/h5H,2-4H2,1H3/i5D
Compound 10: pentan-1-ol-d, C5H11DO, InChI=1S/C5H12O/c1-2-3-4-5-6/h6H,2-5H2,1H3/i6D
Compound 11: 1-hexanol-d, C6H13DO, InChI=1S/C6H14O/c1-2-3-4-5-6-7/h7H,2-6H2,1H3/i7D
Compound 12: 1-heptanol-d, C7H15DO, InChI=1S/C7H16O/c1-2-3-4-5-6-7-8/h8H,2-7H2,1H3/i8D
Compound 13: 1-octanol-d, C8H17DO, InChI=1S/C8H18O/c1-2-3-4-5-6-7-8-9/h9H,2-8H2,1H3/i9D
Compound 14: 1-nonanol-d, C9H19DO, InChI=1S/C9H20O/c1-2-3-4-5-6-7-8-9-10/h10H,2-9H2,1H3/i10D
Compound 15: 1-decanol-d, C10H21DO, InChI=1S/C10H22O/c1-2-3-4-5-6-7-8-9-10-11/h11H,2-10H2,1H3/i11D

System: butan-1-ol + 1-hexyl-3-methylimidazolium bis[(trifluoromethyl)sulfonyl]imide; phases: Liquid mixture 1, Liquid mixture 2
Fixed: Pressure, kPa = 100
Property: Liquid-liquid equilibrium temperature, K (Liquid mixture 1); method: VISOBS
Mole fraction of 1-hexyl-3-methylimidazolium bis[(trifluoromethyl)sulfonyl]imide	Liquid-liquid equilibrium temperature, K	uncertainty
0.0717	270	0.3
0.0782	270.6	0.3
0.0828	271.1	0.3
0.0838	271.2	0.3
0.0891	271.6	0.3
0.0995	271.9	0.3
0.1094	272.2	0.3
0.1168	272.2	0.3
0.1284	272.3	0.3
0.1337	272.3	0.3
0.1416	272.3	0.3
0.1604	272	0.3
0.1711	271.8	0.3
0.193	271.2	0.3
0.2105	270	0.3
0.2176	269.6	0.3

System: butan-1-ol + 1-hexyl-3-methylimidazolium bis[(trifluoromethyl)sulfonyl]imide; phases: Liquid mixture 1, Liquid mixture 2
Property: Upper consolute temperature, K (Liquid mixture 1); method: from the extended scaling equation
Mole fraction of 1-hexyl-3-methylimidazolium bis[(trifluoromethyl)sulfonyl]imide	Upper consolute temperature, K	uncertainty
0.131	272.3	0.4

System: pentan-1-ol + 1-hexyl-3-methylimidazolium bis[(trifluoromethyl)sulfonyl]imide; phases: Liquid mixture 1, Liquid mixture 2
Fixed: Pressure, kPa = 100
Property: Liquid-liquid equilibrium temperature, K (Liquid mixture 1); method: VISOBS
Mole fraction of 1-hexyl-3-methylimidazolium bis[(trifluoromethyl)sulfonyl]imide	Liquid-liquid equilibrium temperature, K	uncertainty
0.0433	288	0.3
0.0496	288.8	0.3
0.0557	289	0.3
0.0628	289.4	0.3
0.0678	289.6	0.3
0.0783	289.8	0.3
0.0981	290.1	0.3
0.112	290.2	0.3
0.124	290.3	0.3
0.142	290.3	0.3
0.1486	290.3	0.3
0.1619	290.1	0.3
0.1628	290.1	0.3
0.1865	289.6	0.3
0.1957	289.4	0.3
0.2065	289	0.3
0.2274	288.6	0.3
0.229	288.6	0.3
0.2581	288.2	0.3

System: pentan-1-ol + 1-hexyl-3-methylimidazolium bis[(trifluoromethyl)sulfonyl]imide; phases: Liquid mixture 1, Liquid mixture 2
Property: Upper consolute temperature, K (Liquid mixture 1); method: from the extended scaling equation
Mole fraction of 1-hexyl-3-methylimidazolium bis[(trifluoromethyl)sulfonyl]imide	Upper consolute temperature, K	uncertainty
0.129	290.3	0.2

System: hexan-1-ol + 1-hexyl-3-methylimidazolium bis[(trifluoromethyl)sulfonyl]imide; phases: Liquid mixture 1, Liquid mixture 2
Fixed: Pressure, kPa = 100
Property: Liquid-liquid equilibrium temperature, K (Liquid mixture 1); method: VISOBS
Mole fraction of 1-hexyl-3-methylimidazolium bis[(trifluoromethyl)sulfonyl]imide	Liquid-liquid equilibrium temperature, K	uncertainty
0.0543	301.8	0.3
0.0618	303	0.3
0.0689	304	0.3
0.0817	304.6	0.3
0.0905	304.9	0.3
0.0926	305	0.3
0.1117	305.2	0.3
0.1233	305.4	0.3
0.1356	305.4	0.3
0.1653	305.4	0.3
0.1909	305.2	0.3
0.2163	305	0.3
0.248	304.5	0.3
0.2692	304	0.3
0.2829	303.6	0.3

System: hexan-1-ol + 1-hexyl-3-methylimidazolium bis[(trifluoromethyl)sulfonyl]imide; phases: Liquid mixture 1, Liquid mixture 2
Property: Upper consolute temperature, K (Liquid mixture 1); method: from the extended scaling equation
Mole fraction of 1-hexyl-3-methylimidazolium bis[(trifluoromethyl)sulfonyl]imide	Upper consolute temperature, K	uncertainty
0.152	305.4	0.2

System: heptan-1-ol + 1-hexyl-3-methylimidazolium bis[(trifluoromethyl)sulfonyl]imide; phases: Liquid mixture 1, Liquid mixture 2
Fixed: Pressure, kPa = 100
Property: Liquid-liquid equilibrium temperature, K (Liquid mixture 1); method: VISOBS
Mole fraction of 1-hexyl-3-methylimidazolium bis[(trifluoromethyl)sulfonyl]imide	Liquid-liquid equilibrium temperature, K	uncertainty
0.0977	317.6	0.3
0.1035	318.4	0.3
0.1104	319.2	0.3
0.1149	319.4	0.3
0.1224	319.6	0.3
0.1294	319.7	0.3
0.1418	319.9	0.3
0.1591	319.9	0.3
0.1715	319.9	0.3
0.1855	319.8	0.3
0.2012	319.7	0.3
0.2224	319.5	0.3
0.2442	319.1	0.3
0.258	318.6	0.3
0.2621	318.3	0.3
0.2893	316.9	0.3

System: heptan-1-ol + 1-hexyl-3-methylimidazolium bis[(trifluoromethyl)sulfonyl]imide; phases: Liquid mixture 1, Liquid mixture 2
Property: Upper consolute temperature, K (Liquid mixture 1); method: from the extended scaling equation
Mole fraction of 1-hexyl-3-methylimidazolium bis[(trifluoromethyl)sulfonyl]imide	Upper consolute temperature, K	uncertainty
0.166	319.9	0.2

System: octan-1-ol + 1-hexyl-3-methylimidazolium bis[(trifluoromethyl)sulfonyl]imide; phases: Liquid mixture 1, Liquid mixture 2
Fixed: Pressure, kPa = 100
Property: Liquid-liquid equilibrium temperature, K (Liquid mixture 1); method: VISOBS
Mole fraction of 1-hexyl-3-methylimidazolium bis[(trifluoromethyl)sulfonyl]imide	Liquid-liquid equilibrium temperature, K	uncertainty
0.0708	330.2	0.3
0.0826	331.5	0.3
0.0904	332.1	0.3
0.1042	332.6	0.3
0.1134	332.9	0.3
0.1243	333	0.3
0.1384	333.1	0.3
0.1507	333.1	0.3
0.1621	333	0.3
0.1739	333	0.3
0.1926	332.8	0.3
0.2123	332.5	0.3
0.2264	332.1	0.3
0.241	331.8	0.3
0.2644	331.2	0.3
0.3008	330.4	0.3

System: octan-1-ol + 1-hexyl-3-methylimidazolium bis[(trifluoromethyl)sulfonyl]imide; phases: Liquid mixture 1, Liquid mixture 2
Property: Upper consolute temperature, K (Liquid mixture 1); method: from the extended scaling equation
Mole fraction of 1-hexyl-3-methylimidazolium bis[(trifluoromethyl)sulfonyl]imide	Upper consolute temperature, K	uncertainty
0.15	333.1	0.2

System: nonan-1-ol + 1-hexyl-3-methylimidazolium bis[(trifluoromethyl)sulfonyl]imide; phases: Liquid mixture 1, Liquid mixture 2
Fixed: Pressure, kPa = 100
Property: Liquid-liquid equilibrium temperature, K (Liquid mixture 1); method: VISOBS
Mole fraction of 1-hexyl-3-methylimidazolium bis[(trifluoromethyl)sulfonyl]imide	Liquid-liquid equilibrium temperature, K	uncertainty
0.0846	341.2	0.3
0.0937	341.8	0.3
0.1153	343	0.3
0.1259	343.5	0.3
0.1336	343.7	0.3
0.1509	344	0.3
0.1628	344.2	0.3
0.1644	344.1	0.3
0.1789	344.1	0.3
0.1919	344	0.3
0.2091	343.8	0.3
0.2432	343.3	0.3
0.2874	342.4	0.3
0.3159	341.6	0.3

System: nonan-1-ol + 1-hexyl-3-methylimidazolium bis[(trifluoromethyl)sulfonyl]imide; phases: Liquid mixture 1, Liquid mixture 2
Property: Upper consolute temperature, K (Liquid mixture 1); method: from the extended scaling equation
Mole fraction of 1-hexyl-3-methylimidazolium bis[(trifluoromethyl)sulfonyl]imide	Upper consolute temperature, K	uncertainty
0.176	344.1	0.2

System: decan-1-ol + 1-hexyl-3-methylimidazolium bis[(trifluoromethyl)sulfonyl]imide; phases: Liquid mixture 1, Liquid mixture 2
Fixed: Pressure, kPa = 100
Property: Liquid-liquid equilibrium temperature, K (Liquid mixture 1); method: VISOBS
Mole fraction of 1-hexyl-3-methylimidazolium bis[(trifluoromethyl)sulfonyl]imide	Liquid-liquid equilibrium temperature, K	uncertainty
0.0922	354.9	0.3
0.101	355.5	0.3
0.1138	355.9	0.3
0.1203	356	0.3
0.1348	356.3	0.3
0.1529	356.4	0.3
0.1659	356.5	0.3
0.1741	356.5	0.3
0.1909	356.5	0.3
0.2079	356.4	0.3
0.2243	356.2	0.3
0.2365	355.9	0.3
0.2525	355.7	0.3
0.2783	355.1	0.3

System: decan-1-ol + 1-hexyl-3-methylimidazolium bis[(trifluoromethyl)sulfonyl]imide; phases: Liquid mixture 1, Liquid mixture 2
Property: Upper consolute temperature, K (Liquid mixture 1); method: from the extended scaling equation
Mole fraction of 1-hexyl-3-methylimidazolium bis[(trifluoromethyl)sulfonyl]imide	Upper consolute temperature, K	uncertainty
0.175	356.5	0.2

System: n-butan(ol-d) + 1-hexyl-3-methylimidazolium bis[(trifluoromethyl)sulfonyl]imide; phases: Liquid mixture 1, Liquid mixture 2
Fixed: Pressure, kPa = 100
Property: Liquid-liquid equilibrium temperature, K (Liquid mixture 1); method: VISOBS
Mole fraction of 1-hexyl-3-methylimidazolium bis[(trifluoromethyl)sulfonyl]imide	Liquid-liquid equilibrium temperature, K	uncertainty
0.0562	269.5	0.3
0.0583	269.7	0.3
0.069	270.3	0.3
0.0763	270.6	0.3
0.0927	270.9	0.3
0.1003	271	0.3
0.111	271	0.3
0.1181	271	0.3
0.1337	270.9	0.3
0.1421	270.8	0.3
0.1522	270.6	0.3
0.1589	270.5	0.3
0.174	270.2	0.3
0.1808	270	0.3
0.2012	269.4	0.3

System: n-butan(ol-d) + 1-hexyl-3-methylimidazolium bis[(trifluoromethyl)sulfonyl]imide; phases: Liquid mixture 1, Liquid mixture 2
Property: Upper consolute temperature, K (Liquid mixture 1); method: from the extended scaling equation
Mole fraction of 1-hexyl-3-methylimidazolium bis[(trifluoromethyl)sulfonyl]imide	Upper consolute temperature, K	uncertainty
0.113	271	0.4

System: pentan-1-ol-d + 1-hexyl-3-methylimidazolium bis[(trifluoromethyl)sulfonyl]imide; phases: Liquid mixture 1, Liquid mixture 2
Fixed: Pressure, kPa = 100
Property: Liquid-liquid equilibrium temperature, K (Liquid mixture 1); method: VISOBS
Mole fraction of 1-hexyl-3-methylimidazolium bis[(trifluoromethyl)sulfonyl]imide	Liquid-liquid equilibrium temperature, K	uncertainty
0.1071	288.5	0.3
0.0583	286.9	0.3
0.0626	287.2	0.3
0.0674	287.4	0.3
0.0754	287.9	0.3
0.0882	288.4	0.3
0.1186	288.6	0.3
0.1341	288.5	0.3
0.1568	288.5	0.3
0.1802	288.2	0.3
0.1927	288	0.3
0.2027	287.6	0.3
0.2079	287.3	0.3
0.215	287	0.3
0.2317	286.1	0.3

System: pentan-1-ol-d + 1-hexyl-3-methylimidazolium bis[(trifluoromethyl)sulfonyl]imide; phases: Liquid mixture 1, Liquid mixture 2
Property: Upper consolute temperature, K (Liquid mixture 1); method: from the extended scaling equation
Mole fraction of 1-hexyl-3-methylimidazolium bis[(trifluoromethyl)sulfonyl]imide	Upper consolute temperature, K	uncertainty
0.131	288.6	0.2

System: 1-hexanol-d + 1-hexyl-3-methylimidazolium bis[(trifluoromethyl)sulfonyl]imide; phases: Liquid mixture 1, Liquid mixture 2
Fixed: Pressure, kPa = 100
Property: Liquid-liquid equilibrium temperature, K (Liquid mixture 1); method: VISOBS
Mole fraction of 1-hexyl-3-methylimidazolium bis[(trifluoromethyl)sulfonyl]imide	Liquid-liquid equilibrium temperature, K	uncertainty
0.0968	303.6	0.3
0.1095	304.3	0.3
0.1212	304.8	0.3
0.1286	305	0.3
0.1391	305.2	0.3
0.1521	305.2	0.3
0.1676	305.3	0.3
0.177	305.3	0.3
0.1919	305.2	0.3
0.2101	305.1	0.3
0.2284	304.9	0.3
0.2466	304.6	0.3
0.2668	304.4	0.3
0.2777	304.2	0.3
0.3082	303.8	0.3
0.3256	303.3	0.3

System: 1-hexanol-d + 1-hexyl-3-methylimidazolium bis[(trifluoromethyl)sulfonyl]imide; phases: Liquid mixture 1, Liquid mixture 2
Property: Upper consolute temperature, K (Liquid mixture 1); method: from the extended scaling equation
Mole fraction of 1-hexyl-3-methylimidazolium bis[(trifluoromethyl)sulfonyl]imide	Upper consolute temperature, K	uncertainty
0.17	305.3	0.2

System: 1-heptanol-d + 1-hexyl-3-methylimidazolium bis[(trifluoromethyl)sulfonyl]imide; phases: Liquid mixture 1, Liquid mixture 2
Fixed: Pressure, kPa = 100
Property: Liquid-liquid equilibrium temperature, K (Liquid mixture 1); method: VISOBS
Mole fraction of 1-hexyl-3-methylimidazolium bis[(trifluoromethyl)sulfonyl]imide	Liquid-liquid equilibrium temperature, K	uncertainty
0.0738	318.4	0.3
0.085	319.6	0.3
0.0988	320.2	0.3
0.1065	320.5	0.3
0.1189	320.7	0.3
0.1477	320.9	0.3
0.165	321	0.3
0.181	321.1	0.3
0.1844	321	0.3
0.1916	321	0.3
0.2279	320.6	0.3
0.2462	320.1	0.3
0.2738	319.4	0.3
0.3039	318.7	0.3

System: 1-heptanol-d + 1-hexyl-3-methylimidazolium bis[(trifluoromethyl)sulfonyl]imide; phases: Liquid mixture 1, Liquid mixture 2
Property: Upper consolute temperature, K (Liquid mixture 1); method: from the extended scaling equation
Mole fraction of 1-hexyl-3-methylimidazolium bis[(trifluoromethyl)sulfonyl]imide	Upper consolute temperature, K	uncertainty
0.169	321	0.2

System: 1-octanol-d + 1-hexyl-3-methylimidazolium bis[(trifluoromethyl)sulfonyl]imide; phases: Liquid mixture 1, Liquid mixture 2
Fixed: Pressure, kPa = 100
Property: Liquid-liquid equilibrium temperature, K (Liquid mixture 1); method: VISOBS
Mole fraction of 1-hexyl-3-methylimidazolium bis[(trifluoromethyl)sulfonyl]imide	Liquid-liquid equilibrium temperature, K	uncertainty
0.0761	330.3	0.3
0.0844	330.9	0.3
0.0942	331.6	0.3
0.1064	332.2	0.3
0.1155	332.7	0.3
0.1265	332.9	0.3
0.1488	333.2	0.3
0.1537	333.1	0.3
0.1796	332.9	0.3
0.2213	332.4	0.3
0.2414	332	0.3
0.2757	331.3	0.3
0.2965	331.1	0.3
0.321	330.4	0.3

System: 1-octanol-d + 1-hexyl-3-methylimidazolium bis[(trifluoromethyl)sulfonyl]imide; phases: Liquid mixture 1, Liquid mixture 2
Property: Upper consolute temperature, K (Liquid mixture 1); method: from the extended scaling equation
Mole fraction of 1-hexyl-3-methylimidazolium bis[(trifluoromethyl)sulfonyl]imide	Upper consolute temperature, K	uncertainty
0.161	333.1	0.2

System: 1-nonanol-d + 1-hexyl-3-methylimidazolium bis[(trifluoromethyl)sulfonyl]imide; phases: Liquid mixture 1, Liquid mixture 2
Fixed: Pressure, kPa = 100
Property: Liquid-liquid equilibrium temperature, K (Liquid mixture 1); method: VISOBS
Mole fraction of 1-hexyl-3-methylimidazolium bis[(trifluoromethyl)sulfonyl]imide	Liquid-liquid equilibrium temperature, K	uncertainty
0.058	339.2	0.3
0.0788	341.2	0.3
0.0877	341.6	0.3
0.1145	343	0.3
0.1249	343.3	0.3
0.1523	343.8	0.3
0.1543	343.8	0.3
0.1774	344.1	0.3
0.2058	343.8	0.3
0.2285	343.5	0.3
0.2662	343	0.3
0.2993	342.2	0.3
0.3476	340.7	0.3
0.4325	335	0.3

System: 1-nonanol-d + 1-hexyl-3-methylimidazolium bis[(trifluoromethyl)sulfonyl]imide; phases: Liquid mixture 1, Liquid mixture 2
Property: Upper consolute temperature, K (Liquid mixture 1); method: from the extended scaling equation
Mole fraction of 1-hexyl-3-methylimidazolium bis[(trifluoromethyl)sulfonyl]imide	Upper consolute temperature, K	uncertainty
0.188	344.1	0.2

System: 1-decanol-d + 1-hexyl-3-methylimidazolium bis[(trifluoromethyl)sulfonyl]imide; phases: Liquid mixture 1, Liquid mixture 2
Fixed: Pressure, kPa = 100
Property: Liquid-liquid equilibrium temperature, K (Liquid mixture 1); method: VISOBS
Mole fraction of 1-hexyl-3-methylimidazolium bis[(trifluoromethyl)sulfonyl]imide	Liquid-liquid equilibrium temperature, K	uncertainty
0.1025	355.3	0.3
0.1181	355.6	0.3
0.128	355.9	0.3
0.1313	356	0.3
0.1401	356.1	0.3
0.147	356.3	0.3
0.1553	356.5	0.3
0.1715	356.6	0.3
0.1808	356.6	0.3
0.1936	356.6	0.3
0.204	356.6	0.3
0.216	356.5	0.3
0.2226	356.4	0.3
0.2331	356.2	0.3
0.2459	356.1	0.3
0.2598	355.8	0.3
0.2665	355.6	0.3
0.2886	355.4	0.3

System: 1-decanol-d + 1-hexyl-3-methylimidazolium bis[(trifluoromethyl)sulfonyl]imide; phases: Liquid mixture 1, Liquid mixture 2
Property: Upper consolute temperature, K (Liquid mixture 1); method: from the extended scaling equation
Mole fraction of 1-hexyl-3-methylimidazolium bis[(trifluoromethyl)sulfonyl]imide	Upper consolute temperature, K	uncertainty
0.188	356.5	0.2
