Measured thermophysical data. Vapor liquid equilibrium data for the nitrogen + n-octane system from (344.5 to 543.5)K and at pressures up to 50MPa
Source: Fluid Phase Equilib., 2009, 10.1016/j.fluid.2009.04.015
Compound 1: nitrogen, N2, InChI=1S/N2/c1-2, purity 99.999%
Compound 2: octane, C8H18, InChI=1S/C8H18/c1-3-5-7-8-6-4-2/h3-8H2,1-2H3, purity 99%

System: octane + nitrogen; phases: Liquid, Gas
Property: Critical pressure, kPa (Liquid); method: Polynomial fitting of K-p data
Mole fraction of nitrogen	Critical pressure, kPa	uncertainty
0	2487	40
0.4031	10810	180
0.6085	21430	410
0.7065	32330	970
0.7908	50980	1330

System: octane + nitrogen; phases: Liquid, Gas
Property: Critical temperature, K (Liquid); method: Polynomial fitting of K-p data
Mole fraction of nitrogen	Critical temperature, K	uncertainty
0	568.83	0.4
0.4031	543.5	0.7
0.6085	508.1	1.4
0.7065	473.5	2.8
0.7908	424	3.5

System: octane + nitrogen; phases: Liquid, Gas
Property: Vapor or sublimation pressure, kPa (Liquid); method: Closed cell (Static) method
Mole fraction of nitrogen	Temperature, K	Vapor or sublimation pressure, kPa	uncertainty
0.0204	543.5	2290	190
0.0256	508.1	2050	230
0.0309	344.5	2390	470
0.0369	424	2420	360
0.0394	473.5	2540	280
0.0409	543.5	2920	180
0.0491	344.5	3820	490
0.0518	424	3380	360
0.0552	508.1	3260	260
0.0571	543.5	3390	180
0.062	424	4040	390
0.068	543.5	3720	190
0.0693	473.5	4020	300
0.0715	344.5	5670	500
0.0765	424	4930	390
0.0782	508.1	4230	260
0.0809	543.5	4130	180
0.0911	344.5	7340	530
0.0967	543.5	4570	190
0.1011	473.5	5620	320
0.1059	508.1	5400	260
0.1146	543.5	5140	190
0.1175	424	7630	410
0.1216	344.5	10040	560
0.1326	543.5	5650	180
0.1412	508.1	6930	270
0.1429	473.5	7830	320
0.153	424	10130	420
0.1632	508.1	7900	260
0.1668	344.5	14310	600
0.1767	543.5	6940	180
0.191	508.1	9060	250
0.1949	473.5	10640	330
0.2021	543.5	7650	170
0.2062	344.5	18500	650
0.2191	508.1	10280	260
0.2261	424	15250	440
0.2269	543.5	8330	160
0.2275	344.5	20820	680
0.2354	473.5	12880	340
0.2487	508.1	11530	260
0.2572	543.5	9080	140
0.258	344.5	24310	700
0.2773	473.5	15270	350
0.2802	508.1	12850	240
0.2875	344.5	27740	760
0.2884	424	19920	460
0.297	543.5	9830	120
0.3072	508.1	13990	260
0.3136	344.5	31280	820
0.3202	473.5	17700	340
0.3398	344.5	34790	810
0.3426	508.1	15440	230
0.3508	543.5	10570	110
0.3592	424	25380	500
0.3617	473.5	19990	340
0.3629	344.5	37810	840
0.3813	508.1	16940	240
0.3914	344.5	41860	900
0.4125	424	29810	510
0.4141	508.1	18080	190
0.4176	344.5	45910	950
0.418	473.5	23120	340
0.4448	344.5	50140	950
0.4791	424	35270	500
0.4922	473.5	27010	310
0.5083	508.1	20560	180
0.5405	424	40170	480
0.5534	508.1	21210	150
0.5591	473.5	29920	220
0.608	424	45000	400
0.6603	473.5	32130	210
0.6991	424	49700	370

System: octane + nitrogen; phases: Gas, Liquid
Property: Mole fraction of nitrogen (Gas); method: Chromatography
Mole fraction of nitrogen	Temperature, K	Mole fraction of nitrogen	uncertainty
0	344.5	0	0.0001
0	424	0	0.0001
0	473.5	0	0.0001
0	508.1	0	0.0001
0	543.5	0	0.0001
0.0204	543.5	0.1849	0.0583
0.0256	508.1	0.4201	0.076
0.0309	344.5	0.9883	0.0117
0.0369	424	0.8948	0.1052
0.0394	473.5	0.7227	0.0797
0.0409	543.5	0.2888	0.0476
0.0491	344.5	0.9928	0.0072
0.0518	424	0.9196	0.0442
0.0552	508.1	0.5885	0.0481
0.0571	543.5	0.3392	0.0444
0.062	424	0.9301	0.0401
0.068	543.5	0.3737	0.0435
0.0693	473.5	0.8062	0.0416
0.0715	344.5	0.9942	0.0058
0.0765	424	0.9392	0.0404
0.0782	508.1	0.6606	0.0429
0.0809	543.5	0.4046	0.0422
0.0911	344.5	0.9947	0.0053
0.0967	543.5	0.4337	0.0417
0.1011	473.5	0.8457	0.0403
0.1059	508.1	0.7082	0.0409
0.1146	543.5	0.4642	0.0413
0.1175	424	0.9519	0.0401
0.1216	344.5	0.9946	0.0054
0.1326	543.5	0.4858	0.0407
0.1412	508.1	0.7444	0.0404
0.1429	473.5	0.8703	0.0401
0.153	424	0.9559	0.04
0.1632	508.1	0.7587	0.0404
0.1668	344.5	0.9941	0.0059
0.1767	543.5	0.523	0.0405
0.191	508.1	0.7715	0.0401
0.1949	473.5	0.8853	0.0401
0.2021	543.5	0.5311	0.0404
0.2062	344.5	0.9932	0.0068
0.2191	508.1	0.7796	0.0401
0.2261	424	0.9586	0.04
0.2269	543.5	0.538	0.0403
0.2275	344.5	0.9925	0.0075
0.2354	473.5	0.8902	0.04
0.2487	508.1	0.7847	0.0401
0.2572	543.5	0.5374	0.0403
0.258	344.5	0.9914	0.0086
0.2773	473.5	0.892	0.04
0.2802	508.1	0.7875	0.0402
0.2875	344.5	0.9903	0.0097
0.2884	424	0.9569	0.04
0.297	543.5	0.5263	0.0405
0.3072	508.1	0.7871	0.0401
0.3136	344.5	0.989	0.011
0.3202	473.5	0.8899	0.04
0.3398	344.5	0.9875	0.0125
0.3426	508.1	0.7846	0.0403
0.3508	543.5	0.4907	0.0406
0.3592	424	0.9517	0.04
0.3617	473.5	0.8865	0.04
0.3629	344.5	0.9861	0.0139
0.3813	508.1	0.7751	0.0401
0.3914	344.5	0.9841	0.0159
0.4125	424	0.9451	0.04
0.4141	508.1	0.7653	0.0402
0.4176	344.5	0.9818	0.0182
0.418	473.5	0.8776	0.04
0.4448	344.5	0.9787	0.0213
0.4791	424	0.9359	0.04
0.4922	473.5	0.8582	0.0401
0.5083	508.1	0.721	0.0403
0.5405	424	0.9229	0.04
0.5534	508.1	0.672	0.0407
0.5591	473.5	0.8311	0.0401
0.608	424	0.9018	0.0401
0.6603	473.5	0.7618	0.0403
0.6991	424	0.8565	0.0401
