Measured thermophysical data. Evaluation of the effect of ionic-liquids as soluting-out agents on the solubility of carbohydrates in aqueous solutions
Source: Fluid Phase Equilib., 2018, 10.1016/j.fluid.2017.12.006
Compound 1: water, H2O, InChI=1S/H2O/h1H2, purity 99.8%
Compound 2: 1-butyl-3-methylimidazolium bromide, C8H15BrN2, InChI=1S/C8H15N2.BrH/c1-3-4-5-10-7-6-9(2)8-10;/h6-8H,3-5H2,1-2H3;1H/q+1;/p-1, purity 98%
Compound 3: 1-butyl-3-methylimidazolium hydrogen sulfate, C8H16N2O4S, InChI=1S/C8H15N2.H2O4S/c1-3-4-5-10-7-6-9(2)8-10;1-5(2,3)4/h6-8H,3-5H2,1-2H3;(H2,1,2,3,4)/q+1;/p-1, purity 99%
Compound 4: 4-O-.alpha.-D-glucopyranosyl-D-glucitol, C12H24O11, InChI=1S/C12H24O11/c13-1-4(16)7(18)11(5(17)2-14)23-12-10(21)9(20)8(19)6(3-15)22-12/h4-21H,1-3H2/t4-,5+,6+,7+,8+,9-,10+,11+,12+/m0/s1, purity 97%
Compound 5: D-maltose, C12H22O11, InChI=1S/C12H22O11/c13-1-3-5(15)6(16)9(19)12(22-3)23-10-4(2-14)21-11(20)8(18)7(10)17/h3-20H,1-2H2/t3-,4-,5-,6+,7-,8-,9-,10-,11?,12-/m1/s1, purity 99%
Compound 6: D-sucrose, C12H22O11, InChI=1S/C12H22O11/c13-1-4-6(16)8(18)9(19)11(21-4)23-12(3-15)10(20)7(17)5(2-14)22-12/h4-11,13-20H,1-3H2/t4-,5-,6-,7-,8+,9-,10+,11-,12+/m1/s1, purity 98%
Compound 7: D-glucose, C6H12O6, InChI=1S/C6H12O6/c7-1-3(9)5(11)6(12)4(10)2-8/h1,3-6,8-12H,2H2/t3-,4+,5+,6+/m0/s1, purity 99%
Compound 8: D-fructose, C6H12O6, InChI=1S/C6H12O6/c7-1-3(9)5(11)6(12)4(10)2-8/h3,5-9,11-12H,1-2H2/t3-,5-,6-/m1/s1, purity 99%
Compound 9: D-xylose, C5H10O5, InChI=1S/C5H10O5/c6-1-3(8)5(10)4(9)2-7/h1,3-5,7-10H,2H2/t3-,4+,5+/m0/s1, purity 97%
Compound 10: L-arabinose, C5H10O5, InChI=1S/C5H10O5/c6-1-3(8)5(10)4(9)2-7/h1,3-5,7-10H,2H2/t3-,4-,5+/m0/s1, purity 99%

System: water + 1-butyl-3-methylimidazolium bromide; phases: Liquid, Gas
Property: (Relative) activity of water (Liquid); method: ISOPIE
Temperature, K	Molality, mol/kg of 1-butyl-3-methylimidazolium bromide	(Relative) activity of water	uncertainty
298.2	0.5026	0.9858	0.0387
298.2	0.7214	0.9807	0.0387
298.2	0.9064	0.9766	0.0387
298.2	0.962	0.9753	0.0387
298.2	1.2219	0.9695	0.0387
298.2	1.3933	0.9657	0.0387
298.2	1.4793	0.9639	0.0387
298.2	1.8388	0.9562	0.0387
298.2	2.3301	0.9451	0.0387
298.2	2.3552	0.9457	0.0387
298.2	2.6722	0.9377	0.0387
298.2	2.7359	0.9377	0.0387
298.2	3.0935	0.9287	0.0388
298.2	3.3594	0.9239	0.0388
298.2	3.4287	0.9211	0.0388
298.2	3.488	0.9188	0.0388
298.2	5.0928	0.8837	0.0388
303.2	0.5652	0.9845	0.0387
303.2	0.7609	0.9795	0.0387
303.2	0.9553	0.9753	0.0387
303.2	1.0229	0.9739	0.0387
303.2	1.2117	0.9695	0.0387
303.2	1.3083	0.9677	0.0387
303.2	1.4994	0.9635	0.0387
303.2	1.6235	0.9606	0.0387
303.2	2.0446	0.9524	0.0387
303.2	2.1595	0.949	0.0387
303.2	2.3021	0.946	0.0387
303.2	2.8341	0.9356	0.0387
303.2	3.3415	0.9235	0.0388
303.2	3.6267	0.9149	0.0388
303.2	4.0649	0.9049	0.0388
303.2	4.938	0.8895	0.0388
308.2	0.7965	0.9789	0.0387
308.2	0.8161	0.9785	0.0387
308.2	0.9195	0.9764	0.0387
308.2	1.0628	0.973	0.0387
308.2	1.1097	0.9725	0.0387
308.2	1.1797	0.9702	0.0387
308.2	1.1927	0.9706	0.0387
308.2	1.3501	0.9675	0.0387
308.2	1.5318	0.9628	0.0387
308.2	1.917	0.9556	0.0387
308.2	2.0503	0.9517	0.0387
308.2	2.262	0.947	0.0387
308.2	2.3228	0.9469	0.0387
308.2	2.8485	0.9342	0.0388
308.2	3.0033	0.9316	0.0388
308.2	3.0412	0.9297	0.0388
308.2	3.1465	0.9281	0.0387
308.2	4.4394	0.9003	0.0388
308.2	4.4572	0.9	0.0388
308.2	4.54	0.896	0.039
308.2	5.3552	0.8768	0.0388
308.2	5.5756	0.8816	0.0388
308.2	6.5428	0.8493	0.039
308.2	5.3573	0.8787	0.0388

System: water + 1-butyl-3-methylimidazolium hydrogen sulfate; phases: Liquid, Gas
Property: (Relative) activity of water (Liquid); method: ISOPIE
Temperature, K	Molality, mol/kg of 1-butyl-3-methylimidazolium hydrogen sulfate	(Relative) activity of water	uncertainty
298.2	0.4765	0.9833	0.0387
298.2	0.6374	0.9779	0.0387
298.2	0.8296	0.972	0.0387
298.2	0.8865	0.9703	0.0387
298.2	1.0527	0.9653	0.0387
298.2	1.3696	0.9555	0.0387
298.2	1.441	0.9536	0.0387
298.2	1.5455	0.9505	0.0387
298.2	1.9925	0.937	0.0387
298.2	2.0488	0.9353	0.0387
298.2	2.0958	0.9345	0.0388
298.2	2.241	0.9287	0.0387
298.2	2.4802	0.9237	0.0387
298.2	4.4172	0.8691	0.0388
298.2	6.156	0.8241	0.0389
298.2	8.5075	0.7659	0.039
303.2	0.4186	0.9854	0.0387
303.2	0.5408	0.9816	0.0387
303.2	0.6952	0.9768	0.0387
303.2	0.748	0.9749	0.0387
303.2	0.7698	0.9749	0.0387
303.2	0.8533	0.9718	0.0387
303.2	0.8674	0.9714	0.0387
303.2	1.0324	0.9665	0.0387
303.2	1.1277	0.964	0.0387
303.2	1.2756	0.9591	0.0387
303.2	1.3897	0.9558	0.0387
303.2	1.6174	0.9492	0.0387
303.2	1.6393	0.9481	0.0387
303.2	2.1714	0.933	0.0387
303.2	2.2026	0.9325	0.0387
303.2	2.2638	0.9304	0.0388
303.2	2.3982	0.9261	0.0388
303.2	2.7389	0.9172	0.0388
303.2	2.8747	0.9139	0.0388
303.2	3.5935	0.8924	0.0388
303.2	3.7605	0.8881	0.0388
308.2	0.6487	0.9783	0.0387
308.2	0.8785	0.9714	0.0387
308.2	1.0271	0.9658	0.0387
308.2	1.1169	0.9644	0.0387
308.2	1.5384	0.9522	0.0387
308.2	1.5701	0.9511	0.0387
308.2	1.9121	0.9417	0.0387
308.2	2.0145	0.9383	0.0387
308.2	2.4023	0.9278	0.0387
308.2	2.4516	0.9275	0.0387
308.2	2.9715	0.9127	0.0388
308.2	3.7065	0.8916	0.0388
308.2	4.9045	0.8622	0.0388
308.2	7.0475	0.8041	0.0389
303.2	0.638	0.9778	0.0387
303.2	0.5842	0.9795	0.0387
308.2	2.7263	0.9161	0.0388
303.2	7.1018	0.8001	0.0389
303.2	4.687	0.8641	0.0388
308.2	1.2132	0.9615	0.0387

System: 4-O-.alpha.-D-glucopyranosyl-D-glucitol + water + 1-butyl-3-methylimidazolium bromide; phases: Liquid, Gas
Property: (Relative) activity of water (Liquid); method: ISOPIE
Temperature, K	Molality, mol/kg of 1-butyl-3-methylimidazolium bromide	Molality, mol/kg of 4-O-.alpha.-D-glucopyranosyl-D-glucitol	(Relative) activity of water	uncertainty
298.2	3.488	0	0.9188	0.0388
298.2	2.5527	0.8326	0.9188	0.0387
298.2	2.0688	1.3249	0.9188	0.0387
298.2	1.0558	2.2923	0.9188	0.0387
298.2	0	3.5454	0.9188	0.0388
298.2	2.3552	0	0.9457	0.0387
298.2	1.687	0.5502	0.9457	0.0387
298.2	1.3402	0.858	0.9457	0.0387
298.2	0.7066	1.5338	0.9457	0.0387
298.2	0	2.4306	0.9457	0.0387
298.2	1.4793	0	0.9639	0.0387
298.2	1.1235	0.3663	0.9639	0.0387
298.2	0.9189	0.5889	0.9639	0.0387
298.2	0.5013	1.0877	0.9639	0.0387
298.2	0	1.7786	0.9639	0.0387
298.2	0.9064	0	0.9766	0.0387
298.2	0.709	0.2314	0.9766	0.0387
298.2	0.5846	0.3746	0.9766	0.0387
298.2	0.3338	0.7249	0.9766	0.0387
298.2	0	1.2153	0.9766	0.0387
303.2	2.3021	0	0.946	0.0387
303.2	1.8122	0.4369	0.946	0.0387
303.2	1.385	0.8679	0.946	0.0387
303.2	0.8008	1.4862	0.946	0.0387
303.2	0	2.4931	0.946	0.0387
303.2	1.4994	0	0.9635	0.0387
303.2	1.2044	0.2904	0.9635	0.0387
303.2	0.9362	0.5864	0.9635	0.0387
303.2	0.5492	1.0191	0.9635	0.0387
303.2	0	1.7688	0.9635	0.0387
303.2	1.0229	0	0.9739	0.0387
303.2	0.8313	0.2002	0.9739	0.0387
303.2	0.6565	0.4114	0.9739	0.0387
303.2	0.3971	0.7367	0.9739	0.0387
303.2	0	1.3165	0.9739	0.0387
308.2	2.0503	0	0.9517	0.0387
308.2	1.6653	0.3687	0.9517	0.0387
308.2	1.2366	0.8185	0.9517	0.0387
308.2	0.8729	1.2125	0.9517	0.0387
308.2	0	2.294	0.9517	0.0387
308.2	1.1797	0	0.9702	0.0387
308.2	1.0094	0.2232	0.9702	0.0387
308.2	0.7526	0.498	0.9702	0.0387
308.2	0.5491	0.7627	0.9702	0.0387
308.2	0	1.4928	0.9702	0.0387
308.2	0.8161	0	0.9785	0.0387
308.2	0.7382	0.1634	0.9785	0.0387
308.2	0.5561	0.3681	0.9785	0.0387
308.2	0.3997	0.5548	0.9785	0.0387
308.2	0	1.1072	0.9785	0.0387
308.2	0.7965	0	0.9789	0.0387
308.2	0.7213	0.1596	0.9789	0.0387
308.2	0.5399	0.3573	0.9789	0.0387
308.2	0.3938	0.5467	0.9789	0.0387
308.2	0	1.0704	0.9789	0.0387

System: D-maltose + water + 1-butyl-3-methylimidazolium bromide; phases: Liquid, Gas
Property: (Relative) activity of water (Liquid); method: ISOPIE
Temperature, K	Molality, mol/kg of 1-butyl-3-methylimidazolium bromide	Molality, mol/kg of D-maltose	(Relative) activity of water	uncertainty
298.2	1.2219	0	0.9695	0.0387
298.2	0.9602	0.2793	0.9695	0.0387
298.2	0.8246	0.4294	0.9695	0.0387
298.2	0.4317	0.9088	0.9695	0.0387
298.2	0	1.5511	0.9695	0.0387
298.2	0.962	0	0.9753	0.0387
298.2	0.7786	0.2264	0.9753	0.0387
298.2	0.6661	0.3469	0.9753	0.0387
298.2	0.3516	0.7405	0.9753	0.0387
298.2	0	1.2772	0.9753	0.0387
298.2	0.7214	0	0.9807	0.0387
298.2	0.6015	0.1751	0.9807	0.0387
298.2	0.5151	0.2682	0.9807	0.0387
298.2	0.2758	0.58	0.9807	0.0387
298.2	0	1.0211	0.9807	0.0387
298.2	0.5026	0	0.9858	0.0387
298.2	0.4385	0.1279	0.9858	0.0387
298.2	0.3731	0.1946	0.9858	0.0387
298.2	0.2007	0.4226	0.9858	0.0387
298.2	0	0.7483	0.9858	0.0387
303.2	0.9553	0	0.9753	0.0387
303.2	0.7941	0.1908	0.9753	0.0387
303.2	0.6206	0.384	0.9753	0.0387
303.2	0.3967	0.6782	0.9753	0.0387
303.2	0	1.2348	0.9753	0.0387
303.2	0.7609	0	0.9795	0.0387
303.2	0.65	0.1562	0.9795	0.0387
303.2	0.5073	0.3144	0.9795	0.0387
303.2	0.326	0.5572	0.9795	0.0387
303.2	0	1.0436	0.9795	0.0387
303.2	0.5652	0	0.9845	0.0387
303.2	0.4849	0.1165	0.9845	0.0387
303.2	0.384	0.2377	0.9845	0.0387
303.2	0.2499	0.4274	0.9845	0.0387
303.2	0	0.8125	0.9845	0.0387
308.2	1.1927	0	0.9706	0.0387
308.2	0.9981	0.2248	0.9706	0.0387
308.2	0.696	0.5724	0.9706	0.0387
308.2	0.4396	0.9171	0.9706	0.0387
308.2	0	1.5381	0.9706	0.0387
308.2	1.1097	0	0.9725	0.0387
308.2	0.908	0.2232	0.9725	0.0387
308.2	0.623	0.5631	0.9725	0.0387
308.2	0.4187	0.8351	0.9725	0.0387
308.2	0	1.475	0.9725	0.0387
308.2	1.0628	0	0.973	0.0387
308.2	0.8896	0.2189	0.973	0.0387
308.2	0.6078	0.5497	0.973	0.0387
308.2	0.4059	0.8103	0.973	0.0387
308.2	0	1.397	0.973	0.0387

System: D-maltose + water + 1-butyl-3-methylimidazolium bromide; phases: Liquid, Crystal
Fixed: Temperature, K = 298.2
Fixed: Pressure, kPa = 101
Property: Molality, mol/kg of D-maltose (Liquid); method: Anton Paar Gyromat Digital Automatic Polarimeter
Molality, mol/kg of 1-butyl-3-methylimidazolium bromide	Molality, mol/kg of D-maltose	uncertainty
0	3.3483	0.2001
0.7428	3.2488	0.2001
1.0387	3.2216	0.2001

System: D-sucrose + water + 1-butyl-3-methylimidazolium bromide; phases: Liquid, Gas
Property: (Relative) activity of water (Liquid); method: ISOPIE
Temperature, K	Molality, mol/kg of 1-butyl-3-methylimidazolium bromide	Molality, mol/kg of D-sucrose	(Relative) activity of water	uncertainty
298.2	5.0928	0	0.8837	0.0388
298.2	3.685	1.3608	0.8837	0.0388
298.2	2.074	2.7906	0.8837	0.0388
298.2	0	4.7667	0.8837	0.0388
298.2	2.7359	0	0.9377	0.0388
298.2	1.8791	0.867	0.9377	0.0387
298.2	0.8767	1.8621	0.9377	0.0387
298.2	0	2.7946	0.9377	0.0388
303.2	4.938	0	0.8895	0.0388
303.2	3.1774	1.4894	0.8895	0.0388
303.2	1.4135	3.113	0.8895	0.0388
303.2	0	4.4784	0.8895	0.0388
303.2	4.0649	0	0.9049	0.0388
303.2	2.6736	1.3956	0.9049	0.0388
303.2	1.4236	2.5627	0.9049	0.0388
303.2	0	3.9445	0.9049	0.0388
303.2	2.1595	0	0.949	0.0387
303.2	1.4948	0.6893	0.949	0.0387
303.2	0.722	1.533	0.949	0.0387
303.2	0	2.3132	0.949	0.0388
308.2	5.5756	0	0.8816	0.0388
308.2	3.6551	2.0156	0.8816	0.039
308.2	2.1665	3.6041	0.8816	0.0388
308.2	0	6.1349	0.8816	0.0388
308.2	5.3552	0	0.8768	0.0388
308.2	3.7356	1.9672	0.8768	0.039
308.2	2.3608	3.5072	0.8768	0.0388
308.2	0	6.4429	0.8768	0.0388
308.2	4.54	0	0.896	0.0388
308.2	3.1046	1.6343	0.896	0.0388
308.2	1.9546	2.9026	0.896	0.0388
308.2	0	5.4125	0.896	0.0388
308.2	3.0412	0	0.9297	0.0388
308.2	2.0479	1.0789	0.9297	0.0387
308.2	1.2858	1.9095	0.9297	0.0387
308.2	0	3.7391	0.9297	0.0388

System: D-sucrose + water + 1-butyl-3-methylimidazolium bromide; phases: Liquid, Crystal
Fixed: Temperature, K = 298.2
Fixed: Pressure, kPa = 101
Property: Molality, mol/kg of D-sucrose (Liquid); method: Anton Paar Gyromat Digital Automatic Polarimeter
Molality, mol/kg of 1-butyl-3-methylimidazolium bromide	Molality, mol/kg of D-sucrose	uncertainty
0	6.0782	0.2004
0.5916	5.9421	0.2006
1.4979	5.1005	0.2018
2.3316	4.5093	0.2029
6.9798	3.6317	0.2019

System: D-glucose + water + 1-butyl-3-methylimidazolium bromide; phases: Liquid, Gas
Property: (Relative) activity of water (Liquid); method: ISOPIE
Temperature, K	Molality, mol/kg of 1-butyl-3-methylimidazolium bromide	Molality, mol/kg of D-glucose	(Relative) activity of water	uncertainty
298.2	3.3594	0	0.9239	0.0387
298.2	2.0175	1.2868	0.9239	0.0388
298.2	1.0929	2.3511	0.9239	0.0388
298.2	0	3.8381	0.9239	0.0388
298.2	3.0935	0	0.9287	0.0388
298.2	2.0492	1.0833	0.9287	0.0387
298.2	1.0132	2.2453	0.9287	0.0387
298.2	0	3.6896	0.9287	0.0388
298.2	2.3301	0	0.9451	0.0387
298.2	1.5735	0.8312	0.9451	0.0387
298.2	0.7839	1.7362	0.9451	0.0387
298.2	0	2.8709	0.9451	0.0387
303.2	2.8341	0	0.9356	0.0388
303.2	1.3261	1.6261	0.9356	0.0387
303.2	1.1075	1.8435	0.9356	0.0387
303.2	0.6676	2.4158	0.9356	0.0387
303.2	0	3.3962	0.9356	0.0388
303.2	2.0446	0	0.9524	0.0387
303.2	0.9675	1.1863	0.9524	0.0387
303.2	0.8114	1.3514	0.9524	0.0387
303.2	0.4904	1.7744	0.9524	0.0387
303.2	0	2.5242	0.9524	0.0387
303.2	1.2117	0	0.9695	0.0387
303.2	0.6139	0.753	0.9695	0.0387
303.2	0.5162	0.8601	0.9695	0.0387
303.2	0.3182	1.1512	0.9695	0.0387
303.2	0	1.617	0.9695	0.0387
308.2	4.4572	0	0.9	0.0388
308.2	2.1204	2.5715	0.9	0.0388
308.2	1.7389	3.0107	0.9	0.0388
308.2	1.3336	3.4771	0.9	0.0388
308.2	0	5.2106	0.9	0.0388
308.2	3.0033	0	0.9316	0.0388
308.2	1.471	1.7836	0.9316	0.0387
308.2	1.1733	2.0316	0.9316	0.0387
308.2	0.9226	2.4058	0.9316	0.0387
308.2	0	3.5742	0.9316	0.0388
308.2	1.917	0	0.9556	0.0387
308.2	0.9259	1.1223	0.9556	0.0387
308.2	0.7595	1.3148	0.9556	0.0387
308.2	0.5906	1.5389	0.9556	0.0387
308.2	0	2.3472	0.9556	0.0387

System: D-glucose + water + 1-butyl-3-methylimidazolium bromide; phases: Liquid, Crystal
Fixed: Temperature, K = 298.2
Fixed: Pressure, kPa = 101
Property: Molality, mol/kg of D-glucose (Liquid); method: Anton Paar Gyromat Digital Automatic Polarimeter
Molality, mol/kg of 1-butyl-3-methylimidazolium bromide	Molality, mol/kg of D-glucose	uncertainty
0	7.4642	0.2006
1.4317	7.0953	0.2009
2.6983	6.3243	0.2031

System: D-fructose + water + 1-butyl-3-methylimidazolium bromide; phases: Liquid, Gas
Property: (Relative) activity of water (Liquid); method: ISOPIE
Temperature, K	Molality, mol/kg of 1-butyl-3-methylimidazolium bromide	Molality, mol/kg of D-fructose	(Relative) activity of water	uncertainty
298.2	2.7359	0	0.9377	0.0387
298.2	1.9056	0.8317	0.9377	0.0387
298.2	1.1241	1.6971	0.9377	0.0387
298.2	0	3.2627	0.9377	0.0388
298.2	3.3594	0	0.9239	0.0387
298.2	2.0077	1.3347	0.9239	0.0387
298.2	1.0179	2.464	0.9239	0.0388
298.2	0	3.9669	0.9239	0.0388
298.2	3.0935	0	0.9287	0.0388
298.2	2.0717	1.0559	0.9287	0.0387
298.2	0.9901	2.2926	0.9287	0.0387
298.2	0	3.7221	0.9287	0.0388
298.2	2.3301	0	0.9451	0.0387
298.2	1.6121	0.8216	0.9451	0.0387
298.2	0.7633	1.7661	0.9451	0.0387
298.2	0	2.9081	0.9451	0.0387
298.2	5.0928	0	0.8837	0.0388
298.2	3.3542	1.7908	0.8837	0.0388
298.2	1.7881	3.6255	0.8837	0.0388
298.2	0	6.1645	0.8837	0.0388
303.2	4.938	0	0.8895	0.0388
303.2	3.2719	1.7082	0.8895	0.0388
303.2	2.0051	3.0457	0.8895	0.0388
303.2	0	5.6289	0.8895	0.0388
303.2	4.0649	0	0.9049	0.0388
303.2	2.9242	1.3106	0.9049	0.0388
303.2	1.7729	2.6102	0.9049	0.0388
303.2	0	4.9242	0.9049	0.0388
303.2	2.1595	0	0.949	0.0387
303.2	1.5834	0.691	0.949	0.0387
303.2	0.9595	1.4487	0.949	0.0387
303.2	0	2.7215	0.949	0.0387
308.2	5.5756	0	0.8816	0.0388
308.2	3.6551	2.0156	0.8816	0.039
308.2	2.1665	3.6041	0.8816	0.0388
308.2	0	6.1349	0.8816	0.0388
308.2	5.3552	0	0.8768	0.0388
308.2	3.7356	1.9672	0.8768	0.039
308.2	2.3608	3.5072	0.8768	0.0388
308.2	0	6.4429	0.8768	0.0388
308.2	4.54	0	0.896	0.0388
308.2	3.1046	1.6343	0.896	0.0388
308.2	1.9546	2.9026	0.896	0.0388
308.2	0	5.4125	0.896	0.0388
308.2	3.0412	0	0.9297	0.0388
308.2	2.0479	1.0789	0.9297	0.0387
308.2	1.2858	1.9095	0.9297	0.0387
308.2	0	3.7391	0.9297	0.0388

System: D-fructose + water + 1-butyl-3-methylimidazolium bromide; phases: Liquid, Crystal
Fixed: Temperature, K = 298.2
Fixed: Pressure, kPa = 101
Property: Molality, mol/kg of D-fructose (Liquid); method: Anton Paar Gyromat Digital Automatic Polarimeter
Molality, mol/kg of 1-butyl-3-methylimidazolium bromide	Molality, mol/kg of D-fructose	uncertainty
0	17.5356	0.2034
6.8419	10.5106	0.2392
9.0511	9.2131	0.22734

System: D-xylose + water + 1-butyl-3-methylimidazolium bromide; phases: Liquid, Gas
Property: (Relative) activity of water (Liquid); method: ISOPIE
Temperature, K	Molality, mol/kg of 1-butyl-3-methylimidazolium bromide	Molality, mol/kg of D-xylose	(Relative) activity of water	uncertainty
298.2	3.4287	0	0.9211	0.0388
298.2	2.8992	0.6817	0.9211	0.0388
298.2	1.637	2.094	0.9211	0.0387
298.2	0	4.2694	0.9211	0.0388
298.2	2.6722	0	0.9377	0.0387
298.2	2.2485	0.5288	0.9377	0.0387
298.2	1.275	1.6305	0.9377	0.0387
298.2	0	3.3706	0.9377	0.0388
298.2	1.8388	0	0.9562	0.0387
298.2	1.5851	0.373	0.9562	0.0387
298.2	0.8842	1.1307	0.9562	0.0387
298.2	0	2.3806	0.9562	0.0387
298.2	1.3933	0	0.9657	0.0387
298.2	1.1795	0.2771	0.9657	0.0387
298.2	0.6774	0.866	0.9657	0.0387
298.2	0	1.8678	0.9657	0.0387
303.2	3.6267	0	0.9149	0.0388
303.2	3.2433	0.6352	0.9149	0.0388
303.2	1.7824	2.3258	0.9149	0.0387
303.2	0	4.5906	0.9149	0.0388
303.2	1.6235	0	0.9606	0.0387
303.2	1.4605	0.286	0.9606	0.0387
303.2	0.8072	1.0528	0.9606	0.0387
303.2	0	2.1627	0.9606	0.0387
303.2	1.3083	0	0.9677	0.0387
303.2	1.1336	0.2176	0.9677	0.0387
303.2	0.6613	0.8033	0.9677	0.0387
303.2	0	1.7824	0.9677	0.0387
308.2	6.5428	0	0.8493	0.0389
308.2	5.689	1.3136	0.8493	0.0388
308.2	4.4557	3.0779	0.8493	0.0388
308.2	2.5298	5.2132	0.8493	0.0388
308.2	0	8.2638	0.8493	0.0388
308.2	5.3573	0	0.8787	0.0388
308.2	4.6987	1.0851	0.8787	0.0388
308.2	3.6597	2.5283	0.8787	0.0388
308.2	2.0656	4.2562	0.8787	0.0388
308.2	0	6.5973	0.8787	0.0388
308.2	4.4394	0	0.9003	0.0388
308.2	3.6249	1.0732	0.9003	0.0388
308.2	2.8767	1.9375	0.9003	0.0388
308.2	1.4133	3.5771	0.9003	0.0388
308.2	0	5.441	0.9003	0.0388
308.2	2.3228	0	0.9469	0.0387
308.2	1.8878	0.5596	0.9469	0.0387
308.2	1.4866	1.0009	0.9469	0.0387
308.2	0.7377	1.8672	0.9469	0.0387
308.2	0	2.9383	0.9469	0.0387
308.2	1.3501	0	0.9675	0.0387
308.2	1.1294	0.3345	0.9675	0.0387
308.2	0.8663	0.5837	0.9675	0.0387
308.2	0.4415	1.1177	0.9675	0.0387
308.2	0	1.8189	0.9675	0.0387

System: D-xylose + water + 1-butyl-3-methylimidazolium bromide; phases: Liquid, Crystal
Fixed: Temperature, K = 298.2
Fixed: Pressure, kPa = 101
Property: Molality, mol/kg of D-xylose (Liquid); method: Anton Paar Gyromat Digital Automatic Polarimeter
Molality, mol/kg of 1-butyl-3-methylimidazolium bromide	Molality, mol/kg of D-xylose	uncertainty
0	9.9539	0.2011
2.4025	9.5346	0.2015
3.708	8.7976	0.2052

System: L-arabinose + water + 1-butyl-3-methylimidazolium bromide; phases: Liquid, Gas
Property: (Relative) activity of water (Liquid); method: ISOPIE
Temperature, K	Molality, mol/kg of 1-butyl-3-methylimidazolium bromide	Molality, mol/kg of L-arabinose	(Relative) activity of water	uncertainty
298.2	3.4287	0	0.9211	0.0388
298.2	2.6719	0.8489	0.9211	0.0387
298.2	1.415	2.2654	0.9211	0.0387
298.2	0	4.2747	0.9211	0.0388
298.2	2.6722	0	0.9377	0.0387
298.2	2.0755	0.6593	0.9377	0.0387
298.2	1.106	1.7699	0.9377	0.0387
298.2	0	3.4085	0.9377	0.0388
298.2	1.8388	0	0.9562	0.0387
298.2	1.4649	0.4651	0.9562	0.0387
298.2	0.7723	1.2363	0.9562	0.0387
298.2	0	2.4151	0.9562	0.0387
298.2	1.3933	0	0.9657	0.0387
298.2	1.0967	0.3487	0.9657	0.0387
298.2	0.5966	0.9547	0.9657	0.0387
298.2	0	1.8941	0.9657	0.0387
303.2	3.6267	0	0.9149	0.0388
303.2	3.0443	0.8051	0.9149	0.0388
303.2	1.7926	2.1932	0.9149	0.0387
303.2	0	4.6787	0.9149	0.0388
303.2	1.6235	0	0.9606	0.0387
303.2	1.375	0.364	0.9606	0.0387
303.2	0.8026	0.9819	0.9606	0.0387
303.2	0	2.2038	0.9606	0.0387
303.2	1.3083	0	0.9677	0.0387
303.2	1.079	0.2723	0.9677	0.0387
303.2	0.6641	0.7833	0.9677	0.0387
303.2	0	1.8124	0.9677	0.0387
308.2	2.8485	0	0.9342	0.0387
308.2	2.3214	0.646	0.9342	0.0387
308.2	1.5086	1.5579	0.9342	0.0387
308.2	1.1061	2.0405	0.9342	0.0387
308.2	0	3.6072	0.9342	0.0388
308.2	2.262	0	0.947	0.0387
308.2	1.8139	0.5044	0.947	0.0387
308.2	1.1832	1.2224	0.947	0.0387
308.2	0.874	1.6118	0.947	0.0387
308.2	0	2.9162	0.947	0.0387
308.2	1.5318	0	0.9628	0.0387
308.2	1.244	0.3458	0.9628	0.0387
308.2	0.8162	0.8435	0.9628	0.0387
308.2	0.6083	1.121	0.9628	0.0387
308.2	0	2.0701	0.9628	0.0387

System: L-arabinose + water + 1-butyl-3-methylimidazolium bromide; phases: Liquid, Crystal
Fixed: Temperature, K = 298.2
Fixed: Pressure, kPa = 101
Property: Molality, mol/kg of L-arabinose (Liquid); method: Anton Paar Gyromat Digital Automatic Polarimeter
Molality, mol/kg of 1-butyl-3-methylimidazolium bromide	Molality, mol/kg of L-arabinose	uncertainty
0	5.9532	0.2004
1.3045	5.333	0.2008
2.4827	4.6708	0.2018
2.8599	4.5906	0.2006

System: 4-O-.alpha.-D-glucopyranosyl-D-glucitol + water + 1-butyl-3-methylimidazolium hydrogen sulfate; phases: Liquid, Gas
Property: (Relative) activity of water (Liquid); method: ISOPIE
Temperature, K	Molality, mol/kg of 1-butyl-3-methylimidazolium hydrogen sulfate	Molality, mol/kg of 4-O-.alpha.-D-glucopyranosyl-D-glucitol	(Relative) activity of water	uncertainty
298.2	0.8865	0	0.9703	0.0387
298.2	0.7741	0.1759	0.9703	0.0387
298.2	0.496	0.5798	0.9703	0.0387
298.2	0	1.4703	0.9703	0.0387
298.2	0.8296	0	0.972	0.0387
298.2	0.6885	0.1973	0.972	0.0387
298.2	0.3886	0.6886	0.972	0.0387
298.2	0	1.3876	0.972	0.0387
298.2	0.6374	0	0.9779	0.0387
298.2	0.5426	0.1555	0.9779	0.0387
298.2	0.3065	0.5436	0.9779	0.0387
298.2	0	1.1272	0.9779	0.0387
298.2	0.4765	0	0.9833	0.0387
298.2	0.4047	0.1161	0.9833	0.0387
298.2	0.2319	0.4106	0.9833	0.0387
298.2	0	0.8461	0.9833	0.0387
303.2	2.2026	0	0.9325	0.0388
303.2	1.8099	0.4607	0.9325	0.0387
303.2	1.223	1.1991	0.9325	0.0387
303.2	0.8225	1.724	0.9325	0.0387
303.2	0	2.9785	0.9325	0.0388
303.2	1.6174	0	0.9492	0.0387
303.2	1.3393	0.3411	0.9492	0.0387
303.2	0.9213	0.9036	0.9492	0.0387
303.2	0.6286	1.3179	0.9492	0.0387
303.2	0	2.3457	0.9492	0.0387
303.2	1.1277	0	0.964	0.0387
303.2	0.9642	0.2455	0.964	0.0387
303.2	0.6591	0.646	0.964	0.0387
303.2	0.4536	0.9519	0.964	0.0387
303.2	0	1.7508	0.964	0.0387
303.2	0.748	0	0.9749	0.0387
303.2	0.6614	0.1686	0.9749	0.0387
303.2	0.4546	0.4457	0.9749	0.0387
303.2	0.3195	0.6704	0.9749	0.0387
303.2	0	1.2782	0.9749	0.0387
308.2	2.4023	0	0.9278	0.0388
308.2	1.9481	0.5013	0.9278	0.0387
308.2	1.3113	1.2715	0.9278	0.0387
308.2	0.7135	2.0766	0.9278	0.0387
308.2	0	3.1972	0.9278	0.0388
308.2	1.5701	0	0.9511	0.0387
308.2	1.29	0.3318	0.9511	0.0387
308.2	0.8899	0.8629	0.9511	0.0387
308.2	0.4949	1.4405	0.9511	0.0387
308.2	0	2.2913	0.9511	0.0387
308.2	1.0271	0	0.9658	0.0387
308.2	0.9096	0.234	0.9658	0.0387
308.2	0.6089	0.5904	0.9658	0.0387
308.2	0.3519	1.0247	0.9658	0.0387
308.2	0	1.5922	0.9658	0.0387

System: D-maltose + water + 1-butyl-3-methylimidazolium hydrogen sulfate; phases: Liquid, Gas
Property: (Relative) activity of water (Liquid); method: ISOPIE
Temperature, K	Molality, mol/kg of 1-butyl-3-methylimidazolium hydrogen sulfate	Molality, mol/kg of D-maltose	(Relative) activity of water	uncertainty
298.2	0.8865	0	0.9703	0.0387
298.2	0.7858	0.1598	0.9703	0.0387
298.2	0.5082	0.5702	0.9703	0.0387
298.2	0	1.4743	0.9703	0.0387
298.2	0.8296	0	0.972	0.0387
298.2	0.7141	0.1549	0.972	0.0387
298.2	0.397	0.6591	0.972	0.0387
298.2	0	1.4047	0.972	0.0387
298.2	0.6374	0	0.9779	0.0387
298.2	0.5675	0.123	0.9779	0.0387
298.2	0.3132	0.5201	0.9779	0.0387
298.2	0	1.1339	0.9779	0.0387
298.2	0.4765	0	0.9833	0.0387
298.2	0.4077	0.0885	0.9833	0.0387
298.2	0.235	0.3901	0.9833	0.0387
298.2	0	0.8638	0.9833	0.0387
303.2	1.0324	0	0.9665	0.0387
303.2	0.8897	0.1912	0.9665	0.0387
303.2	0.6101	0.6005	0.9665	0.0387
303.2	0.3608	1.0089	0.9665	0.0387
303.2	0	1.6909	0.9665	0.0387
303.2	0.8674	0	0.9714	0.0387
303.2	0.7545	0.1622	0.9714	0.0387
303.2	0.5204	0.5124	0.9714	0.0387
303.2	0.3102	0.8664	0.9714	0.0387
303.2	0	1.4618	0.9714	0.0387
303.2	0.638	0	0.9778	0.0387
303.2	0.579	0.1244	0.9778	0.0387
303.2	0.3988	0.3923	0.9778	0.0387
303.2	0.2367	0.6621	0.9778	0.0387
303.2	0	1.1282	0.9778	0.0387
303.2	0.5842	0	0.9795	0.0387
303.2	0.5302	0.1139	0.9795	0.0387
303.2	0.3693	0.3639	0.9795	0.0387
303.2	0.2215	0.6186	0.9795	0.0387
303.2	0	1.0468	0.9795	0.0387
303.2	0.8533	0	0.9718	0.0387
303.2	0.7367	0.1665	0.9718	0.0387
303.2	0.5653	0.4227	0.9718	0.0387
303.2	0.392	0.7012	0.9718	0.0387
303.2	0	1.4298	0.9718	0.0387
303.2	0.6952	0	0.9768	0.0387
303.2	0.6269	0.1416	0.9768	0.0387
303.2	0.4713	0.3524	0.9768	0.0387
303.2	0.3258	0.5833	0.9768	0.0387
303.2	0	1.2213	0.9768	0.0387
303.2	0.5408	0	0.9816	0.0387
303.2	0.4948	0.1121	0.9816	0.0387
303.2	0.372	0.2782	0.9816	0.0387
303.2	0.258	0.4619	0.9816	0.0387
303.2	0	0.9821	0.9816	0.0387
303.2	0.4186	0	0.9854	0.0387
303.2	0.3857	0.0871	0.9854	0.0387
303.2	0.2902	0.217	0.9854	0.0387
303.2	0.2087	0.3735	0.9854	0.0387
303.2	0	0.7883	0.9854	0.0387
308.2	1.1169	0	0.9644	0.0387
308.2	0.9613	0.2135	0.9644	0.0387
308.2	0.6881	0.6017	0.9644	0.0387
308.2	0.3816	1.0988	0.9644	0.0387
308.2	0	1.8028	0.9644	0.0387
308.2	0.8785	0	0.9714	0.0387
308.2	0.7676	0.1706	0.9714	0.0387
308.2	0.5479	0.4787	0.9714	0.0387
308.2	0.309	0.8893	0.9714	0.0387
308.2	0	1.4949	0.9714	0.0387
308.2	0.6487	0	0.9783	0.0387
308.2	0.5746	0.1278	0.9783	0.0387
308.2	0.4206	0.368	0.9783	0.0387
308.2	0.2397	0.6914	0.9783	0.0387
308.2	0	1.1708	0.9783	0.0387

System: D-maltose + water + 1-butyl-3-methylimidazolium hydrogen sulfate; phases: Liquid, Crystal
Fixed: Temperature, K = 298.2
Fixed: Pressure, kPa = 101
Property: Molality, mol/kg of D-maltose (Liquid); method: Anton Paar Gyromat Digital Automatic Polarimeter
Molality, mol/kg of 1-butyl-3-methylimidazolium hydrogen sulfate	Molality, mol/kg of D-maltose	uncertainty
0	3.3483	0.2001
1.495	3.0526	0.2002
2.302	3.0099	0.2001

System: D-sucrose + water + 1-butyl-3-methylimidazolium hydrogen sulfate; phases: Liquid, Gas
Property: (Relative) activity of water (Liquid); method: ISOPIE
Temperature, K	Molality, mol/kg of 1-butyl-3-methylimidazolium hydrogen sulfate	Molality, mol/kg of D-sucrose	(Relative) activity of water	uncertainty
298.2	2.4802	0	0.9237	0.0388
298.2	1.7736	0.4535	0.9237	0.0387
298.2	1.0311	0.9886	0.9237	0.0387
298.2	0	3.3237	0.9237	0.0388
298.2	2.0488	0	0.9353	0.0387
298.2	1.5068	0.3851	0.9353	0.0387
298.2	0.8815	0.8448	0.9353	0.0387
298.2	0	2.8971	0.9353	0.0388
298.2	1.441	0	0.9536	0.0387
298.2	1.0964	0.2803	0.9536	0.0387
298.2	0.6361	0.6099	0.9536	0.0387
298.2	0	2.1753	0.9536	0.0387
303.2	2.3982	0	0.9261	0.0388
303.2	1.9558	0.3082	0.9261	0.0388
303.2	1.2846	0.7509	0.9261	0.0387
303.2	0	3.2226	0.9261	0.0388
303.2	2.1714	0	0.933	0.0388
303.2	1.768	0.2785	0.933	0.0387
303.2	1.1775	0.6881	0.933	0.0387
303.2	0	2.9509	0.933	0.0388
303.2	3.5935	0	0.8924	0.0388
303.2	2.7345	0.5308	0.8924	0.0388
303.2	1.2485	1.5498	0.8924	0.0388
303.2	0	4.4374	0.8924	0.0388
303.2	1.3897	0	0.9558	0.0387
303.2	1.1273	0.2186	0.9558	0.0387
303.2	0.5305	0.6586	0.9558	0.0387
303.2	0	2.0991	0.9558	0.0387
303.2	0.7698	0	0.9749	0.0387
303.2	0.6729	0.1305	0.9749	0.0387
303.2	0.3101	0.3852	0.9749	0.0387
303.2	0	1.2449	0.9749	0.0387
308.2	3.7065	0	0.8916	0.0388
308.2	2.5968	0.7001	0.8916	0.0388
308.2	1.6894	1.2425	0.8916	0.0388
308.2	0	4.443	0.8916	0.0388
308.2	2.7263	0	0.9161	0.0388
308.2	1.9737	0.5322	0.9161	0.0388
308.2	1.3085	0.9622	0.9161	0.0388
308.2	0	3.6437	0.9161	0.0388
308.2	1.9121	0	0.9417	0.0387
308.2	1.3893	0.3744	0.9417	0.0387
308.2	0.9376	0.6894	0.9417	0.0387
308.2	0	2.6699	0.9417	0.0388

System: D-sucrose + water + 1-butyl-3-methylimidazolium hydrogen sulfate; phases: Liquid, Crystal
Fixed: Temperature, K = 298.2
Fixed: Pressure, kPa = 101
Property: Molality, mol/kg of D-sucrose (Liquid); method: Anton Paar Gyromat Digital Automatic Polarimeter
Molality, mol/kg of 1-butyl-3-methylimidazolium hydrogen sulfate	Molality, mol/kg of D-sucrose	uncertainty
0	6.0782	0.2004
0.7047	1.5894	0.2057
1.5047	0.8693	0.2
1.5923	0.874	0.2
2.3745	0.4592	0.2016

System: D-glucose + water + 1-butyl-3-methylimidazolium hydrogen sulfate; phases: Liquid, Gas
Property: (Relative) activity of water (Liquid); method: ISOPIE
Temperature, K	Molality, mol/kg of 1-butyl-3-methylimidazolium hydrogen sulfate	Molality, mol/kg of D-glucose	(Relative) activity of water	uncertainty
298.2	2.4802	0	0.9237	0.0388
298.2	1.7967	0.8825	0.9237	0.0387
298.2	1.1967	1.7523	0.9237	0.0387
298.2	0	3.9718	0.9237	0.0388
298.2	2.0488	0	0.9353	0.0387
298.2	1.5242	0.7485	0.9353	0.0387
298.2	1.0134	1.4847	0.9353	0.0387
298.2	0	3.3361	0.9353	0.0388
298.2	1.441	0	0.9536	0.0387
298.2	1.1008	0.541	0.9536	0.0387
298.2	0.7438	1.089	0.9536	0.0387
298.2	0	2.4682	0.9536	0.0387
303.2	2.3982	0	0.9261	0.0388
303.2	1.9778	0.5952	0.9261	0.0387
303.2	1.4909	1.2351	0.9261	0.0387
303.2	0	3.8049	0.9261	0.0388
303.2	2.1714	0	0.933	0.0388
303.2	1.7836	0.5368	0.933	0.0387
303.2	1.3589	1.1259	0.933	0.0387
303.2	0	3.4954	0.933	0.0388
303.2	3.5935	0	0.8924	0.0388
303.2	2.7502	1.0984	0.8924	0.0388
303.2	1.8715	2.2737	0.8924	0.0388
303.2	0	5.3715	0.8924	0.0388
303.2	1.3897	0	0.9558	0.0387
303.2	1.1107	0.4441	0.9558	0.0387
303.2	0.7675	0.9325	0.9558	0.0387
303.2	0	2.3551	0.9558	0.0387
303.2	0.7698	0	0.9749	0.0387
303.2	0.6552	0.2615	0.9749	0.0387
303.2	0.4369	0.531	0.9749	0.0387
303.2	0	1.3283	0.9749	0.0387
308.2	3.7065	0	0.8916	0.0388
308.2	2.6138	1.3595	0.8916	0.0388
308.2	1.8037	2.4278	0.8916	0.0388
308.2	0	5.5285	0.8916	0.0388
308.2	1.9121	0	0.9417	0.0387
308.2	1.3903	0.7231	0.9417	0.0387
308.2	0.9753	1.3125	0.9417	0.0387
308.2	0	3.0059	0.9417	0.0387

System: D-glucose + water + 1-butyl-3-methylimidazolium hydrogen sulfate; phases: Liquid, Crystal
Fixed: Temperature, K = 298.2
Fixed: Pressure, kPa = 101
Property: Molality, mol/kg of D-glucose (Liquid); method: Anton Paar Gyromat Digital Automatic Polarimeter
Molality, mol/kg of 1-butyl-3-methylimidazolium hydrogen sulfate	Molality, mol/kg of D-glucose	uncertainty
0	7.4642	0.2006
1.3198	6.6492	0.2026
2.2523	4.8816	0.2177

System: D-fructose + water + 1-butyl-3-methylimidazolium hydrogen sulfate; phases: Liquid, Gas
Property: (Relative) activity of water (Liquid); method: ISOPIE
Temperature, K	Molality, mol/kg of 1-butyl-3-methylimidazolium hydrogen sulfate	Molality, mol/kg of D-fructose	(Relative) activity of water	uncertainty
298.2	8.5075	0	0.7659	0.039
298.2	7.0252	2.0708	0.7659	0.0389
298.2	5.1754	4.5635	0.7659	0.0389
298.2	3.2305	7.3386	0.7659	0.0389
298.2	0	12.3546	0.7659	0.039
298.2	6.156	0	0.8241	0.0389
298.2	5.0579	1.4906	0.8241	0.0388
298.2	3.7189	3.2805	0.8241	0.0388
298.2	2.3391	5.3138	0.8241	0.0388
298.2	0	9.0832	0.8241	0.0389
298.2	2.241	0	0.9287	0.0387
298.2	1.8192	0.5363	0.9287	0.0387
298.2	1.3789	1.2159	0.9287	0.0387
298.2	0.8924	2.0269	0.9287	0.0387
298.2	0	3.6912	0.9287	0.0388
303.2	7.1018	0	0.8001	0.0389
303.2	5.8107	1.7453	0.8001	0.0388
303.2	4.5594	3.4267	0.8001	0.0388
303.2	2.5949	6.1786	0.8001	0.0388
303.2	0	10.3629	0.8001	0.0389
303.2	4.687	0	0.8641	0.0388
303.2	3.7619	1.1301	0.8641	0.0388
303.2	2.9689	2.2312	0.8641	0.0388
303.2	1.7111	4.0731	0.8641	0.0388
303.2	0	7.0216	0.8641	0.0388
303.2	3.7605	0	0.8881	0.0388
303.2	3.0779	0.9251	0.8881	0.0388
303.2	2.4315	1.827	0.8881	0.0388
303.2	1.4112	3.3596	0.8881	0.0388
303.2	0	5.7934	0.8881	0.0388
303.2	2.8747	0	0.9139	0.0388
303.2	2.3566	0.7077	0.9139	0.0388
303.2	1.8666	1.4027	0.9139	0.0387
303.2	1.0889	2.593	0.9139	0.0388
303.2	0	4.5598	0.9139	0.0388
308.2	7.0475	0	0.8041	0.0389
308.2	5.7955	1.7934	0.8041	0.0388
308.2	3.729	4.5887	0.8041	0.0388
308.2	2.3188	6.6446	0.8041	0.0388
308.2	0	10.3446	0.8041	0.0389
308.2	4.9045	0	0.8622	0.0388
308.2	3.9146	1.211	0.8622	0.0388
308.2	2.5308	3.1132	0.8622	0.0388
308.2	1.597	4.5754	0.8622	0.0388
308.2	0	7.2388	0.8622	0.0388
308.2	2.9715	0	0.9127	0.0388
308.2	2.4122	0.7465	0.9127	0.0388
308.2	1.5761	1.9391	0.9127	0.0388
308.2	1.0036	2.8762	0.9127	0.0388
308.2	0	4.649	0.9127	0.0388
308.2	1.5384	0	0.9522	0.0387
308.2	1.3158	0.4072	0.9522	0.0387
308.2	0.8725	1.0736	0.9522	0.0387
308.2	0.5593	1.6036	0.9522	0.0387
308.2	0	2.581	0.9522	0.0387

System: D-fructose + water + 1-butyl-3-methylimidazolium hydrogen sulfate; phases: Liquid, Crystal
Fixed: Temperature, K = 298.2
Fixed: Pressure, kPa = 101
Property: Molality, mol/kg of D-fructose (Liquid); method: Anton Paar Gyromat Digital Automatic Polarimeter
Molality, mol/kg of 1-butyl-3-methylimidazolium hydrogen sulfate	Molality, mol/kg of D-fructose	uncertainty
0	17.5356	0.2034
1.1714	11.7919	0.2178
2.3651	9.1977	0.2139
3.4045	8.3688	0.208

System: D-xylose + water + 1-butyl-3-methylimidazolium hydrogen sulfate; phases: Liquid, Gas
Property: (Relative) activity of water (Liquid); method: ISOPIE
Temperature, K	Molality, mol/kg of 1-butyl-3-methylimidazolium hydrogen sulfate	Molality, mol/kg of D-xylose	(Relative) activity of water	uncertainty
298.2	4.4172	0	0.8691	0.0388
298.2	3.8231	0.9017	0.8691	0.0388
298.2	2.4489	3.004	0.8691	0.0388
298.2	1.5074	4.3178	0.8691	0.0388
298.2	0	7.0165	0.8691	0.0388
298.2	1.9925	0	0.937	0.0387
298.2	1.7402	0.4101	0.937	0.0387
298.2	1.1208	1.3749	0.937	0.0387
298.2	0.7045	2.0171	0.937	0.0387
298.2	0	3.3903	0.937	0.0388
298.2	1.3696	0	0.9555	0.0387
298.2	1.208	0.2849	0.9555	0.0387
298.2	0.7898	0.9689	0.9555	0.0387
298.2	0.5043	1.4432	0.9555	0.0387
298.2	0	2.4412	0.9555	0.0387
303.2	2.7389	0	0.9172	0.0388
303.2	2.3046	0.6207	0.9172	0.0388
303.2	1.4495	1.9008	0.9172	0.0387
303.2	0	4.4647	0.9172	0.0388
303.2	2.2638	0	0.9304	0.0388
303.2	1.9175	0.5169	0.9304	0.0387
303.2	1.2109	1.587	0.9304	0.0387
303.2	0	3.763	0.9304	0.0388
303.2	1.6393	0	0.9481	0.0387
303.2	1.4276	0.3847	0.9481	0.0387
303.2	0.8949	1.1728	0.9481	0.0387
303.2	0	2.8154	0.9481	0.0387
303.2	1.2756	0	0.9591	0.0387
303.2	1.1011	0.2972	0.9591	0.0387
303.2	0.7049	0.9242	0.9591	0.0387
303.2	0	2.2429	0.9591	0.0387
308.2	2.4516	0	0.9275	0.0387
308.2	2.1334	0.4941	0.9275	0.0387
308.2	1.3073	1.6892	0.9275	0.0387
308.2	0	3.912	0.9275	0.0388
308.2	2.0145	0	0.9383	0.0387
308.2	1.7659	0.4087	0.9383	0.0387
308.2	1.0943	1.4137	0.9383	0.0387
308.2	0	3.4039	0.9383	0.0388
308.2	1.2132	0	0.9615	0.0387
308.2	1.0631	0.2463	0.9615	0.0387
308.2	0.6722	0.8681	0.9615	0.0387
308.2	0	2.1127	0.9615	0.0387

System: D-xylose + water + 1-butyl-3-methylimidazolium hydrogen sulfate; phases: Liquid, Crystal
Fixed: Temperature, K = 298.2
Fixed: Pressure, kPa = 101
Property: Molality, mol/kg of D-xylose (Liquid); method: Anton Paar Gyromat Digital Automatic Polarimeter
Molality, mol/kg of 1-butyl-3-methylimidazolium hydrogen sulfate	Molality, mol/kg of D-xylose	uncertainty
0	9.9539	0.2011
1.0487	9.6605	0.2012
1.5803	9.374	0.2013
2.087	9.2868	0.2011
4.6478	8.0988	0.2053

System: L-arabinose + water + 1-butyl-3-methylimidazolium hydrogen sulfate; phases: Liquid, Gas
Property: (Relative) activity of water (Liquid); method: ISOPIE
Temperature, K	Molality, mol/kg of 1-butyl-3-methylimidazolium hydrogen sulfate	Molality, mol/kg of L-arabinose	(Relative) activity of water	uncertainty
298.2	2.0958	0	0.9345	0.0387
298.2	1.7847	0.4348	0.9345	0.0387
298.2	1.2016	1.313	0.9345	0.0387
298.2	0.7372	2.0791	0.9345	0.0387
298.2	0	3.5725	0.9345	0.0388
298.2	1.5455	0	0.9505	0.0387
298.2	1.3262	0.3229	0.9505	0.0387
298.2	0.9005	0.9842	0.9505	0.0387
298.2	0.5581	1.5727	0.9505	0.0387
298.2	0	2.714	0.9505	0.0387
298.2	1.0527	0	0.9653	0.0387
298.2	0.9624	0.2346	0.9653	0.0387
298.2	0.6275	0.6859	0.9653	0.0387
298.2	0.392	1.1048	0.9653	0.0387
298.2	0	1.9194	0.9653	0.0387
303.2	2.7389	0	0.9172	0.0388
303.2	2.3361	0.5372	0.9172	0.0388
303.2	1.525	1.7362	0.9172	0.0387
303.2	0	4.4926	0.9172	0.0388
303.2	2.2638	0	0.9304	0.0388
303.2	1.9429	0.4473	0.9304	0.0387
303.2	1.2759	1.4524	0.9304	0.0387
303.2	0	3.7761	0.9304	0.0388
303.2	1.6393	0	0.9481	0.0387
303.2	1.4516	0.3341	0.9481	0.0387
303.2	0.9512	1.083	0.9481	0.0387
303.2	0	2.8384	0.9481	0.0387
303.2	1.2756	0	0.9591	0.0387
303.2	1.1153	0.2567	0.9591	0.0387
303.2	0.7452	0.8482	0.9591	0.0387
303.2	0	2.2369	0.9591	0.0387
308.2	2.4516	0	0.9275	0.0387
308.2	2.1227	0.5109	0.9275	0.0387
308.2	1.4436	1.4796	0.9275	0.0387
308.2	0	4.0051	0.9275	0.0388
308.2	2.0145	0	0.9383	0.0387
308.2	1.7361	0.418	0.9383	0.0387
308.2	1.187	1.2162	0.9383	0.0387
308.2	0	3.4054	0.9383	0.0387
308.2	1.2132	0	0.9615	0.0387
308.2	1.0576	0.2548	0.9615	0.0387
308.2	0.738	0.7557	0.9615	0.0387
308.2	0	2.1242	0.9615	0.0387

System: L-arabinose + water + 1-butyl-3-methylimidazolium hydrogen sulfate; phases: Liquid, Crystal
Fixed: Temperature, K = 298.2
Fixed: Pressure, kPa = 101
Property: Molality, mol/kg of L-arabinose (Liquid); method: Anton Paar Gyromat Digital Automatic Polarimeter
Molality, mol/kg of 1-butyl-3-methylimidazolium hydrogen sulfate	Molality, mol/kg of L-arabinose	uncertainty
0	5.9532	0.2004
0.6136	5.8495	0.2004
1.3443	5.5159	0.2007

System: 4-O-.alpha.-D-glucopyranosyl-D-glucitol + water; phases: Liquid, Gas
Property: (Relative) activity of water (Liquid); method: ISOPIE
Temperature, K	Molality, mol/kg of 4-O-.alpha.-D-glucopyranosyl-D-glucitol	(Relative) activity of water	uncertainty
298.2	3.5454	0.9188	0.0388
298.2	2.4306	0.9457	0.0387
298.2	1.7786	0.9639	0.0387
298.2	1.2153	0.9766	0.0387
303.2	2.4931	0.946	0.0388
303.2	1.7688	0.9635	0.0387
303.2	1.3165	0.9739	0.0387
308.2	2.294	0.9517	0.0401
308.2	1.4928	0.9702	0.0387
308.2	1.1072	0.9785	0.0387
308.2	1.0704	0.9789	0.0387
298.2	1.4703	0.9703	0.0387
298.2	1.3876	0.972	0.0387
298.2	1.1272	0.9779	0.0387
298.2	0.8461	0.9833	0.0387
303.2	2.9785	0.9325	0.0388
303.2	2.3457	0.9492	0.0387
303.2	1.7508	0.964	0.0387
303.2	1.2782	0.9749	0.0387
308.2	3.1972	0.9278	0.0388
308.2	2.2913	0.9511	0.0401
308.2	1.5922	0.9658	0.0388

System: D-maltose + water; phases: Liquid, Gas
Property: (Relative) activity of water (Liquid); method: ISOPIE
Temperature, K	Molality, mol/kg of D-maltose	(Relative) activity of water	uncertainty
298.2	1.5511	0.9695	0.0387
298.2	1.2772	0.9753	0.0387
298.2	1.0211	0.9807	0.0387
298.2	0.7483	0.9858	0.0387
303.2	1.2348	0.9753	0.0388
303.2	1.0436	0.9795	0.0387
303.2	0.8125	0.9845	0.0387
308.2	1.5381	0.9706	0.0387
308.2	1.475	0.9725	0.0387
308.2	1.397	0.973	0.0387
298.2	1.4743	0.9703	0.0387
298.2	1.4047	0.972	0.0387
298.2	1.1339	0.9779	0.0387
298.2	0.8638	0.9833	0.0387
303.2	1.6909	0.9665	0.0387
303.2	1.4618	0.9714	0.0387
303.2	1.1282	0.9778	0.0387
303.2	1.0468	0.9795	0.0387
303.2	1.4298	0.9718	0.0387
303.2	1.2213	0.9768	0.0388
303.2	0.9821	0.9816	0.0387
303.2	0.7883	0.9854	0.0387
308.2	1.8028	0.9644	0.0387
308.2	1.4949	0.9714	0.0387
308.2	1.1708	0.9783	0.0387

System: D-maltose + water; phases: Liquid, Crystal
Property: Molality, mol/kg of D-maltose (Liquid); method: Anton Paar Gyromat Digital Automatic Polarimeter
Temperature, K	Pressure, kPa	Molality, mol/kg of D-maltose	uncertainty
298.2	101	3.3483	0.2001

System: D-sucrose + water; phases: Liquid, Gas
Property: (Relative) activity of water (Liquid); method: ISOPIE
Temperature, K	Molality, mol/kg of D-sucrose	(Relative) activity of water	uncertainty
298.2	4.7667	0.8837	0.0388
298.2	2.7946	0.9377	0.0388
303.2	4.4784	0.8895	0.0388
303.2	3.9445	0.9049	0.0388
303.2	2.3132	0.949	0.0387
308.2	6.1349	0.8816	0.0388
308.2	6.4429	0.8768	0.0388
308.2	5.4125	0.896	0.0387
308.2	3.7391	0.9297	0.0402
298.2	3.3237	0.9237	0.0388
298.2	2.8971	0.9353	0.0388
298.2	2.1753	0.9536	0.0387
303.2	3.2226	0.9261	0.0388
303.2	2.9509	0.933	0.0388
303.2	4.4374	0.8924	0.0388
303.2	2.0991	0.9558	0.0387
303.2	1.2449	0.9749	0.0387
308.2	4.443	0.8916	0.0388
308.2	3.6437	0.9161	0.0402
308.2	2.6699	0.9417	0.0388

System: D-sucrose + water; phases: Liquid, Crystal
Property: Molality, mol/kg of D-sucrose (Liquid); method: Anton Paar Gyromat Digital Automatic Polarimeter
Temperature, K	Pressure, kPa	Molality, mol/kg of D-sucrose	uncertainty
298.2	101	6.0782	0.2004

System: D-glucose + water; phases: Liquid, Gas
Property: (Relative) activity of water (Liquid); method: ISOPIE
Temperature, K	Molality, mol/kg of D-glucose	(Relative) activity of water	uncertainty
298.2	3.8381	0.9239	0.0388
298.2	3.6896	0.9287	0.0388
298.2	2.8709	0.9451	0.0387
303.2	3.3962	0.9356	0.0388
303.2	2.5242	0.9524	0.0387
303.2	1.617	0.9695	0.0387
308.2	5.2106	0.9	0.0388
308.2	3.5742	0.9316	0.0388
308.2	2.3472	0.9556	0.0387
298.2	3.9718	0.9237	0.0387
298.2	3.3361	0.9353	0.0388
298.2	2.4682	0.9536	0.0387
303.2	3.8049	0.9261	0.0388
303.2	3.4954	0.933	0.0388
303.2	5.3715	0.8924	0.0388
303.2	2.3551	0.9558	0.0387
303.2	1.3283	0.9749	0.0387
308.2	5.5285	0.8916	0.0388
308.2	3.0059	0.9417	0.0387

System: D-glucose + water; phases: Liquid, Crystal
Property: Molality, mol/kg of D-glucose (Liquid); method: Anton Paar Gyromat Digital Automatic Polarimeter
Temperature, K	Pressure, kPa	Molality, mol/kg of D-glucose	uncertainty
298.2	101	7.4642	0.2006

System: D-fructose + water; phases: Liquid, Gas
Property: (Relative) activity of water (Liquid); method: ISOPIE
Temperature, K	Molality, mol/kg of D-fructose	(Relative) activity of water	uncertainty
298.2	3.2627	0.9377	0.0388
298.2	3.9669	0.9239	0.0388
298.2	3.7221	0.9287	0.0387
298.2	2.9081	0.9451	0.0387
298.2	6.1645	0.8837	0.0388
303.2	5.6289	0.8895	0.0387
303.2	4.9242	0.9049	0.0388
303.2	2.7215	0.949	0.0387
308.2	6.1349	0.8816	0.0388
308.2	6.4429	0.8768	0.0388
308.2	5.4125	0.896	0.0388
308.2	3.7391	0.9297	0.0388
298.2	12.3546	0.7659	0.039
298.2	9.0832	0.8241	0.0389
298.2	3.6912	0.9287	0.0387
303.2	10.3629	0.8001	0.0389
303.2	7.0216	0.8641	0.0388
303.2	5.7934	0.8881	0.0388
303.2	4.5598	0.9139	0.0388
308.2	10.3446	0.8041	0.0389
308.2	7.2388	0.8622	0.0388
308.2	4.649	0.9127	0.0388
308.2	2.581	0.9522	0.0387

System: D-fructose + water; phases: Liquid, Crystal
Property: Molality, mol/kg of D-fructose (Liquid); method: Anton Paar Gyromat Digital Automatic Polarimeter
Temperature, K	Pressure, kPa	Molality, mol/kg of D-fructose	uncertainty
298.2	101	17.5356	0.2034

System: D-xylose + water; phases: Liquid, Gas
Property: (Relative) activity of water (Liquid); method: ISOPIE
Temperature, K	Molality, mol/kg of D-xylose	(Relative) activity of water	uncertainty
298.2	4.2694	0.9211	0.0388
298.2	3.3706	0.9377	0.0388
298.2	2.3806	0.9562	0.0387
298.2	1.8678	0.9657	0.0387
303.2	4.5906	0.9149	0.0388
303.2	2.1627	0.9606	0.0387
303.2	1.7824	0.9677	0.0387
308.2	8.2638	0.8493	0.0388
308.2	6.5973	0.8787	0.0388
308.2	5.441	0.9003	0.0388
308.2	2.9383	0.9469	0.0387
308.2	1.8189	0.9675	0.0387
298.2	7.0165	0.8691	0.0388
298.2	3.3903	0.937	0.0388
298.2	2.4412	0.9555	0.0387
303.2	4.4647	0.9172	0.0388
303.2	3.763	0.9304	0.0388
303.2	2.8154	0.9481	0.0387
303.2	2.2429	0.9591	0.0387
308.2	3.912	0.9275	0.0388
308.2	3.4039	0.9383	0.0388
308.2	2.1127	0.9615	0.0387

System: D-xylose + water; phases: Liquid, Crystal
Property: Molality, mol/kg of D-xylose (Liquid); method: Anton Paar Gyromat Digital Automatic Polarimeter
Temperature, K	Pressure, kPa	Molality, mol/kg of D-xylose	uncertainty
298.2	101	9.9539	0.2011

System: L-arabinose + water; phases: Liquid, Gas
Property: (Relative) activity of water (Liquid); method: ISOPIE
Temperature, K	Molality, mol/kg of L-arabinose	(Relative) activity of water	uncertainty
298.2	4.2747	0.9211	0.0388
298.2	3.4085	0.9377	0.0388
298.2	2.4151	0.9562	0.0387
298.2	1.8941	0.9657	0.0387
303.2	4.6787	0.9149	0.0387
303.2	2.2038	0.9606	0.0387
303.2	1.8124	0.9677	0.0387
308.2	3.6072	0.9342	0.0388
308.2	2.9162	0.947	0.0387
308.2	2.0701	0.9628	0.0387
298.2	3.5725	0.9345	0.0388
298.2	2.714	0.9505	0.0387
298.2	1.9194	0.9653	0.0387
303.2	4.4926	0.9172	0.0388
303.2	3.7761	0.9304	0.0388
303.2	2.8384	0.9481	0.0387
303.2	2.2369	0.9591	0.0387
308.2	4.0051	0.9275	0.0388
308.2	3.4054	0.9383	0.0388
308.2	2.1242	0.9615	0.0387

System: L-arabinose + water; phases: Liquid, Crystal
Property: Molality, mol/kg of L-arabinose (Liquid); method: Anton Paar Gyromat Digital Automatic Polarimeter
Temperature, K	Pressure, kPa	Molality, mol/kg of L-arabinose	uncertainty
298.2	101	5.9532	0.2004
