Measured thermophysical data. Determination and correlation of solubility and solution thermodynamics of ethenzamide in different pure solvents
Source: Fluid Phase Equilib., 2016, 10.1016/j.fluid.2016.08.019
Compound 1: Ethenzamide, C9H11NO2, InChI=1S/C9H11NO2/c1-2-12-8-6-4-3-5-7(8)9(10)11/h3-6H,2H2,1H3,(H2,10,11), purity 99%
Compound 2: methanol, CH4O, InChI=1S/CH4O/c1-2/h2H,1H3, purity 99.5%
Compound 3: ethanol, C2H6O, InChI=1S/C2H6O/c1-2-3/h3H,2H2,1H3, purity 99.5%
Compound 4: propan-1-ol, C3H8O, InChI=1S/C3H8O/c1-2-3-4/h4H,2-3H2,1H3, purity 99.5%
Compound 5: 2-methyl-1-propanol, C4H10O, InChI=1S/C4H10O/c1-4(2)3-5/h4-5H,3H2,1-2H3, purity 99.5%
Compound 6: ethyl acetate, C4H8O2, InChI=1S/C4H8O2/c1-3-6-4(2)5/h3H2,1-2H3, purity 99.5%
Compound 7: acetonitrile, C2H3N, InChI=1S/C2H3N/c1-2-3/h1H3, purity 99.5%

System: Ethenzamide; phases: Crystal, Liquid, Air at 1 atmosphere
Property: Normal melting temperature, K (Crystal); method: DTA
Normal melting temperature, K	uncertainty
411.48	0.39

System: Ethenzamide; phases: Crystal, Liquid, Air at 1 atmosphere
Property: Molar enthalpy of transition or fusion, kJ/mol (Crystal); method: DSC
Molar enthalpy of transition or fusion, kJ/mol	uncertainty
20.44	0.93

System: methanol + Ethenzamide; phases: Liquid, Crystal
Fixed: Pressure, kPa = 101.3
Property: Mole fraction of Ethenzamide (Liquid); method: gravemetric
Temperature, K	Mole fraction of Ethenzamide	uncertainty
288.15	0.01544	0.00155
293.15	0.01803	0.00181
298.15	0.02251	0.00225
303.15	0.02695	0.0027
308.15	0.03282	0.00329
313.15	0.04023	0.00403
318.15	0.04918	0.00492
323.15	0.05972	0.00598

System: ethanol + Ethenzamide; phases: Liquid, Crystal
Fixed: Pressure, kPa = 101.3
Property: Mole fraction of Ethenzamide (Liquid); method: gravemetric
Temperature, K	Mole fraction of Ethenzamide	uncertainty
288.15	0.01098	0.0011
293.15	0.01371	0.00137
298.15	0.01707	0.00171
303.15	0.02114	0.00212
308.15	0.02645	0.00265
313.15	0.03266	0.00327
318.15	0.04017	0.00402
323.15	0.04858	0.00486

System: propan-1-ol + Ethenzamide; phases: Liquid, Crystal
Fixed: Pressure, kPa = 101.3
Property: Mole fraction of Ethenzamide (Liquid); method: gravemetric
Temperature, K	Mole fraction of Ethenzamide	uncertainty
288.15	0.00832	0.00084
293.15	0.01128	0.00113
298.15	0.01422	0.00142
303.15	0.01787	0.00179
308.15	0.02273	0.00228
313.15	0.03011	0.00302
318.15	0.03889	0.0039
323.15	0.05016	0.00502

System: 2-methyl-1-propanol + Ethenzamide; phases: Liquid, Crystal
Fixed: Pressure, kPa = 101.3
Property: Mole fraction of Ethenzamide (Liquid); method: gravemetric
Temperature, K	Mole fraction of Ethenzamide	uncertainty
288.15	0.00816	0.00082
293.15	0.00984	0.00099
298.15	0.01257	0.00126
303.15	0.01616	0.00162
308.15	0.0208	0.00208
313.15	0.02728	0.00273
318.15	0.03543	0.00355
323.15	0.04539	0.00455

System: ethyl acetate + Ethenzamide; phases: Liquid, Crystal
Fixed: Pressure, kPa = 101.3
Property: Mole fraction of Ethenzamide (Liquid); method: gravemetric
Temperature, K	Mole fraction of Ethenzamide	uncertainty
288.15	0.00336	0.00034
293.15	0.00459	0.00046
298.15	0.00639	0.00064
303.15	0.00835	0.00084
308.15	0.01124	0.00113
313.15	0.01473	0.00148
318.15	0.01961	0.00197
323.15	0.02512	0.00252

System: acetonitrile + Ethenzamide; phases: Liquid, Crystal
Fixed: Pressure, kPa = 101.3
Property: Mole fraction of Ethenzamide (Liquid); method: gravemetric
Temperature, K	Mole fraction of Ethenzamide	uncertainty
288.15	0.00524	0.00053
293.15	0.0075	0.00075
298.15	0.01013	0.00102
303.15	0.01325	0.00133
308.15	0.01756	0.00176
313.15	0.02314	0.00232
318.15	0.0302	0.00303
323.15	0.03981	0.00399
