Measured thermophysical data. The capability of tetra alkyl ammonium bromides for aqueous biphasic systems formation with both polymers and electrolytes in aqueous solutions
Source: Fluid Phase Equilib., 2018, 10.1016/j.fluid.2018.03.002
Compound 1: sodium chloride, ClNa, InChI=1S/ClH.Na/h1H;/q;+1/p-1, purity 99.5%
Compound 2: sodium nitrate, NNaO3, InChI=1S/NO3.Na/c2-1(3)4;/q-1;+1, purity 99.5%
Compound 3: sodium carbonate, CNa2O3, InChI=1S/CH2O3.2Na/c2-1(3)4;;/h(H2,2,3,4);;/q;2*+1/p-2, purity 99.5%
Compound 4: trisodium citrate, C6H5Na3O7, InChI=1S/C6H8O7.3Na/c7-3(8)1-6(13,5(11)12)2-4(9)10;;;/h13H,1-2H2,(H,7,8)(H,9,10)(H,11,12);;;/q;3*+1/p-3, purity 99%
Compound 5: tetramethylammonium bromide, C4H12BrN, InChI=1S/C4H12N.BrH/c1-5(2,3)4;/h1-4H3;1H/q+1;/p-1, purity 99%
Compound 6: tetraethylammonium bromide, C8H20BrN, InChI=1S/C8H20N.BrH/c1-5-9(6-2,7-3)8-4;/h5-8H2,1-4H3;1H/q+1;/p-1, purity 99%
Compound 7: tetrapropylammonium bromide, C12H28BrN, InChI=1S/C12H28N.BrH/c1-5-9-13(10-6-2,11-7-3)12-8-4;/h5-12H2,1-4H3;1H/q+1;/p-1, purity 99%
Compound 8: tetrabutylammonium bromide, C16H36BrN, InChI=1S/C16H36N.BrH/c1-5-9-13-17(14-10-6-2,15-11-7-3)16-12-8-4;/h5-16H2,1-4H3;1H/q+1;/p-1, purity 99%
Compound 9: water, H2O, InChI=1S/H2O/h1H2, purity 99.8%

System: tetramethylammonium bromide + water; phases: Liquid, Gas
Property: (Relative) activity of water (Liquid); method: ISOPIE
Temperature, K	Molality, mol/kg of tetramethylammonium bromide	(Relative) activity of water	uncertainty
298.15	6.1921	0.8201	0.0387
298.15	5.471	0.833	0.0387
298.15	5.0533	0.8541	0.0387
298.15	4.5924	0.8717	0.0387
298.15	4.362	0.8786	0.0387
298.15	4.2157	0.8809	0.0387
298.15	4.1022	0.8813	0.0388
298.15	3.7262	0.8969	0.0387
298.15	3.5123	0.9021	0.0387
298.15	3.4163	0.9026	0.0387
298.15	3.2178	0.9088	0.0387
298.15	3.0507	0.9143	0.0387
298.15	2.9892	0.9168	0.0387
298.15	2.9111	0.9187	0.0387
298.15	2.9059	0.9196	0.0387
298.15	2.8934	0.9189	0.0387
298.15	2.4746	0.9309	0.0387
298.15	2.184	0.9397	0.0387
298.15	2.1486	0.9403	0.0387
298.15	2.0677	0.9421	0.0387
298.15	1.8253	0.9496	0.0387
298.15	1.0955	0.969	0.0387
298.15	0.9265	0.9731	0.0387
318.15	5.4959	0.8406	0.0387
318.15	3.4533	0.8977	0.0387
318.15	3.0183	0.906	0.0387
318.15	2.52	0.9243	0.0387
318.15	1.9774	0.9436	0.0387
318.15	1.6436	0.9524	0.0387
318.15	1.043	0.9714	0.0387
298.15	4.0895	0.8861	0.0388
298.15	3.5697	0.9006	0.0387
298.15	2.5194	0.931	0.0387
298.15	2.1592	0.9413	0.0387
298.15	1.1035	0.9692	0.0387
298.15	0.8793	0.975	0.0387
298.15	2.0745	0.9419	0.0387
298.15	4.3911	0.8786	0.0387
298.15	3.5297	0.9021	0.0387

System: tetramethylammonium bromide + water; phases: Liquid
Fixed: Temperature, K = 298.15
Fixed: Pressure, kPa = 84.5
Property: Mass density, kg/m3 (Liquid); method: Vibrating tube method
Molality, mol/kg of tetramethylammonium bromide	Mass density, kg/m3	uncertainty
0.0988	1000.91	0.058
0.1155	1001.544	0.058
0.1325	1002.197	0.058
0.1665	1003.485	0.059
0.1993	1004.717	0.059
0.2349	1006.046	0.059
0.2692	1007.317	0.06
0.3063	1008.681	0.06
0.3375	1009.803	0.06

System: tetramethylammonium bromide + water; phases: Liquid
Fixed: Temperature, K = 298.15
Fixed: Pressure, kPa = 84.5
Property: Speed of sound, m/s (Liquid); method: Sing-around technique in a fixed-path interferometer
Molality, mol/kg of tetramethylammonium bromide	Speed of sound, m/s	uncertainty
0.0988	1502.85	2.12
0.1155	1503.7	2.12
0.1325	1504.81	2.12
0.1665	1506.76	2.12
0.1993	1508.6	2.12
0.2349	1510.65	2.12
0.2692	1512.61	2.12
0.3063	1514.67	2.13
0.3375	1516.26	2.13

System: tetraethylammonium bromide + water; phases: Liquid, Gas
Property: (Relative) activity of water (Liquid); method: ISOPIE
Temperature, K	Molality, mol/kg of tetraethylammonium bromide	(Relative) activity of water	uncertainty
298.15	5.7619	0.8248	0.0388
298.15	5.2507	0.8399	0.0387
298.15	4.7114	0.8541	0.0387
298.15	4.2919	0.8717	0.0387
298.15	4.2741	0.8729	0.0387
298.15	4.1203	0.8809	0.0387
298.15	4.1191	0.8813	0.0387
298.15	4.1009	0.8786	0.0387
298.15	3.5865	0.8969	0.0387
298.15	3.575	0.8992	0.0387
298.15	3.457	0.9021	0.0387
298.15	3.3991	0.9026	0.0387
298.15	3.323	0.9088	0.0387
298.15	3.1419	0.9143	0.0387
298.15	3.018	0.9168	0.0387
298.15	2.9624	0.9189	0.0387
298.15	2.9599	0.9187	0.0387
298.15	2.2827	0.9397	0.0387
298.15	2.182	0.9421	0.0387
298.15	1.9335	0.9496	0.0387
298.15	1.1694	0.969	0.0387
298.15	1.0266	0.9731	0.0387
318.15	5.2226	0.8406	0.0387
318.15	3.6047	0.8977	0.0387
318.15	3.3388	0.906	0.0387
318.15	2.6162	0.9243	0.0387
318.15	2.0583	0.9436	0.0387
318.15	1.7034	0.9524	0.0387
318.15	1.1328	0.9714	0.0387
298.15	3.323	0.9088	0.0387
298.15	2.9624	0.9189	0.0387
298.15	2.5375	0.9309	0.0387
298.15	2.182	0.9421	0.0387
298.15	4.1125	0.8813	0.0387
298.15	3.1419	0.9143	0.0387
298.15	2.1709	0.9419	0.0387
298.15	5.4768	0.8234	0.0387
298.15	3.575	0.8992	0.0387
298.15	2.9599	0.9187	0.0387
298.15	2.2536	0.9403	0.0387
298.15	5.7619	0.8248	0.0388
298.15	5.2507	0.8399	0.0387
298.15	4.1307	0.8786	0.0387
298.15	3.457	0.9021	0.0387
298.15	3.018	0.9168	0.0387
298.15	5.7318	0.8184	0.0388
298.15	4.8778	0.85	0.0387
298.15	4.3241	0.8729	0.0387
298.15	3.6412	0.8973	0.0387
298.15	1.9748	0.9485	0.0387
298.15	1.8358	0.9513	0.0387
298.15	1.3814	0.9643	0.0387
298.15	1.0873	0.9707	0.0387

System: tetraethylammonium bromide + water; phases: Liquid
Fixed: Temperature, K = 298.15
Fixed: Pressure, kPa = 84.5
Property: Mass density, kg/m3 (Liquid); method: Vibrating tube method
Molality, mol/kg of tetraethylammonium bromide	Mass density, kg/m3	uncertainty
0.0578	999.151	0.056
0.0724	999.676	0.056
0.0822	1000.027	0.056
0.0917	1000.363	0.056
0.1068	1000.9	0.056
0.122	1001.439	0.056
0.1369	1001.954	0.057
0.1622	1002.846	0.057
0.1883	1003.757	0.057
0.2085	1004.464	0.058
0.2292	1005.171	0.058
0.25	1005.892	0.058

System: tetraethylammonium bromide + water; phases: Liquid
Fixed: Temperature, K = 298.15
Fixed: Pressure, kPa = 84.5
Property: Speed of sound, m/s (Liquid); method: Sing-around technique in a fixed-path interferometer
Molality, mol/kg of tetraethylammonium bromide	Speed of sound, m/s	uncertainty
0.0578	1503.12	2.12
0.0724	1504.7	2.12
0.0822	1505.78	2.12
0.0917	1506.68	2.12
0.1068	1508.39	2.12
0.122	1509.9	2.12
0.1369	1511.45	2.12
0.1622	1514.22	2.12
0.1883	1516.91	2.12
0.2085	1518.95	2.13
0.2292	1521.11	2.13
0.25	1523.31	2.13

System: tetrapropylammonium bromide + water; phases: Liquid, Gas
Property: (Relative) activity of water (Liquid); method: ISOPIE
Temperature, K	Molality, mol/kg of tetrapropylammonium bromide	(Relative) activity of water	uncertainty
298.15	4.8138	0.833	0.0387
298.15	4.4213	0.8541	0.0387
298.15	4.4087	0.8518	0.0387
298.15	4.1128	0.8685	0.0387
298.15	3.9646	0.8717	0.0387
298.15	3.8591	0.88	0.0387
298.15	3.232	0.8969	0.0387
298.15	3.0549	0.9026	0.0387
298.15	3.0039	0.9036	0.0387
298.15	2.6796	0.9196	0.0387
298.15	2.3991	0.9273	0.0387
298.15	2.368	0.9292	0.0387
298.15	2.0151	0.942	0.0387
298.15	2.0142	0.9428	0.0387
298.15	1.8455	0.9496	0.0387
298.15	1.8356	0.9469	0.0387
298.15	1.3996	0.9629	0.0387
298.15	1.3216	0.963	0.0387
298.15	1.1584	0.969	0.0387
298.15	1.034	0.9731	0.0387
298.15	0.5274	0.9844	0.0387
318.15	5.5126	0.8406	0.0387
318.15	3.5925	0.8977	0.0387
318.15	3.2874	0.906	0.0387
318.15	2.7744	0.9243	0.0387
318.15	2.0511	0.9436	0.0387
318.15	1.7569	0.9524	0.0387
318.15	1.194	0.9714	0.0387
298.15	4.9359	0.8339	0.0387
298.15	2.638	0.9204	0.0387
298.15	3.0777	0.9064	0.0387
298.15	2.7544	0.917	0.0387
298.15	1.9347	0.9436	0.0387
298.15	2.4829	0.9287	0.0387

System: tetrapropylammonium bromide + water; phases: Liquid
Fixed: Temperature, K = 298.15
Fixed: Pressure, kPa = 84.5
Property: Mass density, kg/m3 (Liquid); method: Vibrating tube method
Molality, mol/kg of tetrapropylammonium bromide	Mass density, kg/m3	uncertainty
0.0379	998.087	0.051
0.0572	998.615	0.051
0.0766	999.143	0.051
0.0962	999.679	0.052
0.1159	1000.218	0.052
0.1359	1000.761	0.052
0.1566	1001.332	0.053
0.1768	1001.878	0.053
0.2396	1003.58	0.054
0.2818	1004.734	0.055
0.3277	1005.966	0.056
0.3718	1007.151	0.057

System: tetrapropylammonium bromide + water; phases: Liquid
Fixed: Temperature, K = 298.15
Fixed: Pressure, kPa = 84.5
Property: Speed of sound, m/s (Liquid); method: Sing-around technique in a fixed-path interferometer
Molality, mol/kg of tetrapropylammonium bromide	Speed of sound, m/s	uncertainty
0.0379	1503.32	2.12
0.0572	1506.6	2.12
0.0766	1509.89	2.12
0.0962	1513.2	2.12
0.1159	1516.42	2.12
0.1359	1519.69	2.13
0.1566	1523.11	2.13
0.1768	1526.38	2.13
0.2396	1536.42	2.13
0.2818	1542.99	2.13
0.3277	1550.01	2.13
0.3718	1556.7	2.14

System: tetrabutylammonium bromide + water; phases: Liquid, Gas
Property: (Relative) activity of water (Liquid); method: ISOPIE
Temperature, K	Molality, mol/kg of tetrabutylammonium bromide	(Relative) activity of water	uncertainty
298.15	11.017	0.8339	0.0387
298.15	9.7319	0.8518	0.0387
298.15	7.6686	0.8717	0.0387
298.15	7.1134	0.8809	0.0387
298.15	5.9469	0.8969	0.0387
298.15	5.5603	0.9064	0.0387
298.15	4.7491	0.917	0.0387
298.15	4.3768	0.9196	0.0387
298.15	4.3475	0.9204	0.0387
298.15	3.8267	0.9273	0.0387
298.15	3.7501	0.9292	0.0387
298.15	3.7456	0.9287	0.0387
298.15	3.0031	0.9397	0.0387
298.15	2.6917	0.9428	0.0387
298.15	2.4263	0.9496	0.0387
298.15	2.4254	0.9469	0.0387
298.15	1.6166	0.9629	0.0387
298.15	1.5202	0.963	0.0387
298.15	1.2439	0.969	0.0387
298.15	0.9769	0.9731	0.0387
318.15	11.2769	0.8406	0.0387
318.15	6.929	0.8977	0.0387
318.15	6.2761	0.906	0.0387
318.15	5.0334	0.9243	0.0387
318.15	3.3237	0.9436	0.0387
318.15	2.8494	0.9524	0.0387
318.15	1.4437	0.9714	0.0387
298.15	5.4764	0.9036	0.0387
298.15	2.8189	0.942	0.0387
298.15	2.6766	0.9436	0.0387
298.15	8.6746	0.8685	0.0387
298.15	7.859	0.88	0.0387

System: tetrabutylammonium bromide + water; phases: Liquid
Fixed: Temperature, K = 298.15
Fixed: Pressure, kPa = 84.5
Property: Mass density, kg/m3 (Liquid); method: Vibrating tube method
Molality, mol/kg of tetrabutylammonium bromide	Mass density, kg/m3	uncertainty
0.04921	998.14	0.049
0.07961	998.844	0.05
0.09973	999.297	0.05
0.11183	999.574	0.05
0.1291	999.966	0.05
0.14639	1000.369	0.05
0.16264	1000.734	0.051
0.19522	1001.489	0.051
0.23093	1002.304	0.052
0.27324	1003.274	0.053
0.30729	1004.05	0.054
0.34489	1004.884	0.055
0.54371	1009.296	0.06
0.77115	1014.011	0.067

System: tetrabutylammonium bromide + water; phases: Liquid
Fixed: Temperature, K = 298.15
Fixed: Pressure, kPa = 84.5
Property: Speed of sound, m/s (Liquid); method: Sing-around technique in a fixed-path interferometer
Molality, mol/kg of tetrabutylammonium bromide	Speed of sound, m/s	uncertainty
0.04921	1508.43	2.12
0.07961	1515.22	2.12
0.09973	1519.66	2.12
0.11183	1522.39	2.13
0.1291	1526.18	2.13
0.14639	1529.93	2.13
0.16264	1533.31	2.13
0.19522	1540.09	2.13
0.23093	1547.3	2.13
0.27324	1555.72	2.13
0.30729	1562.33	2.14
0.34489	1569.46	2.14
0.54371	1603.7	2.15
0.77115	1636.27	2.16

System: trisodium citrate + water; phases: Liquid, Gas
Property: (Relative) activity of water (Liquid); method: ISOPIE
Temperature, K	Molality, mol/kg of trisodium citrate	(Relative) activity of water	uncertainty
298.15	3.3275	0.8248	0.0387
298.15	2.9906	0.8399	0.0387
298.15	2.5099	0.8685	0.0387
298.15	2.2699	0.8786	0.0387
298.15	2.3459	0.88	0.0387
298.15	1.8615	0.9021	0.0387
298.15	1.7352	0.9106	0.0387
298.15	1.6441	0.9168	0.0387
298.15	1.5704	0.9205	0.0387
298.15	1.4558	0.9273	0.0387
298.15	1.4397	0.9287	0.0387
298.15	1.3096	0.9361	0.0387
298.15	1.2116	0.9428	0.0387
298.15	1.125	0.9468	0.0387
298.15	0.9398	0.9559	0.0387
298.15	0.8431	0.9608	0.0387
298.15	0.8265	0.9629	0.0387
298.15	0.625	0.9711	0.0387
298.15	0.4858	0.9773	0.0387
298.15	0.4234	0.9808	0.0387
318.15	1.9267	0.9017	0.0387
318.15	1.7613	0.9104	0.0387
318.15	1.5651	0.9226	0.0387

System: sodium carbonate + water; phases: Liquid, Gas
Property: (Relative) activity of water (Liquid); method: ISOPIE
Temperature, K	Molality, mol/kg of sodium carbonate	(Relative) activity of water	uncertainty
298.15	4.485	0.8201	0.0387
298.15	4.2131	0.8234	0.0387
298.15	3.2396	0.8729	0.0387
298.15	2.8517	0.8992	0.0387
298.15	2.5718	0.9064	0.0387
298.15	2.4741	0.9106	0.0387
298.15	2.3117	0.917	0.0387
298.15	2.2709	0.9187	0.0387
298.15	2.0359	0.9273	0.0387
298.15	1.8118	0.9361	0.0387
298.15	1.6925	0.9403	0.0387
298.15	1.2549	0.9559	0.0387
298.15	1.0986	0.9608	0.0387
298.15	0.7789	0.9711	0.0387
298.15	0.5947	0.9773	0.0387
298.15	0.5071	0.9808	0.0387
318.15	2.6703	0.9017	0.0387
318.15	2.5225	0.9104	0.0387
318.15	2.1541	0.9226	0.0387
298.15	1.6026	0.9436	0.0387
298.15	1.0286	0.963	0.0387

System: sodium nitrate + water; phases: Liquid, Gas
Property: (Relative) activity of water (Liquid); method: ISOPIE
Temperature, K	Molality, mol/kg of sodium nitrate	(Relative) activity of water	uncertainty
298.15	6.5184	0.8339	0.0387
298.15	5.7696	0.8518	0.0387
298.15	4.3695	0.8813	0.0387
298.15	3.626	0.9002	0.0387
298.15	3.179	0.9117	0.0387
298.15	3.0303	0.9143	0.0387
298.15	2.8176	0.9204	0.0387
298.15	2.564	0.9279	0.0387
298.15	2.4579	0.9292	0.0387
298.15	2.0388	0.9411	0.0387
298.15	1.9858	0.9419	0.0387
298.15	1.9809	0.942	0.0387
298.15	1.3969	0.9578	0.0387
318.15	4.9946	0.8678	0.0387
318.15	3.8885	0.8924	0.0387
318.15	3.4906	0.9017	0.0387
318.15	3.2243	0.9104	0.0387
318.15	2.6883	0.9226	0.0387
298.15	6.5185	0.8339	0.0387

System: sodium chloride + water; phases: Liquid, Gas
Property: (Relative) activity of water (Liquid); method: ISOPIE
Temperature, K	Molality, mol/kg of sodium chloride	(Relative) activity of water	uncertainty
298.15	3.2091	0.8838	0.0387
298.15	2.8535	0.9002	0.0387
298.15	2.7164	0.9036	0.0387
298.15	2.5841	0.9088	0.0387
298.15	2.5512	0.9117	0.0387
298.15	2.3224	0.9189	0.0387
298.15	2.117	0.9279	0.0387
298.15	2.0998	0.9273	0.0387
298.15	2.0032	0.9309	0.0387
298.15	1.7248	0.9411	0.0387
298.15	1.6986	0.9421	0.0387
298.15	1.5651	0.9469	0.0387
298.15	1.2578	0.9578	0.0387
318.15	2.7817	0.9017	0.0387
318.15	2.5586	0.9104	0.0387
318.15	2.2386	0.9226	0.0387

System: tetramethylammonium bromide + sodium chloride + water; phases: Liquid, Gas
Fixed: Temperature, K = 298.15
Property: (Relative) activity of water (Liquid); method: ISOPIE
Molality, mol/kg of tetramethylammonium bromide	Molality, mol/kg of sodium chloride	(Relative) activity of water	uncertainty
0	2.5841	0.9088	0.0387
0.9233	1.7295	0.9088	0.0387
1.9778	0.901	0.9088	0.0387
3.2178	0	0.9088	0.0387
0	2.3224	0.9189	0.0387
0.852	1.5943	0.9189	0.0387
1.8093	0.824	0.9189	0.0387
2.8934	0	0.9189	0.0387
0	2.0032	0.9309	0.0387
0.7241	1.3548	0.9309	0.0387
1.5352	0.6993	0.9309	0.0387
2.4746	0	0.9309	0.0387
0	1.6986	0.9421	0.0387
0.6127	1.1466	0.9421	0.0387
1.2965	0.5891	0.9421	0.0387
2.0677	0	0.9421	0.0387

System: tetraethylammonium bromide + sodium chloride + water; phases: Liquid, Gas
Fixed: Temperature, K = 298.15
Property: (Relative) activity of water (Liquid); method: ISOPIE
Molality, mol/kg of tetraethylammonium bromide	Molality, mol/kg of sodium chloride	(Relative) activity of water	uncertainty
0	2.5841	0.9088	0.0387
1.1078	1.527	0.9088	0.0387
2.0847	0.7794	0.9088	0.0387
3.323	0	0.9088	0.0387
0	2.3224	0.9189	0.0387
1.0174	1.4036	0.9189	0.0387
1.9284	0.7207	0.9189	0.0387
2.9624	0	0.9189	0.0387
0	2.0032	0.9309	0.0387
0.8668	1.1955	0.9309	0.0387
1.6439	0.6146	0.9309	0.0387
2.5375	0	0.9309	0.0387
0	1.6986	0.9421	0.0387
0.7359	1.0136	0.9421	0.0387
1.3934	0.5208	0.9421	0.0387
2.182	0	0.9421	0.0387

System: tetrapropylammonium bromide + sodium chloride + water; phases: Liquid, Gas
Fixed: Temperature, K = 298.15
Property: (Relative) activity of water (Liquid); method: ISOPIE
Molality, mol/kg of tetrapropylammonium bromide	Molality, mol/kg of sodium chloride	(Relative) activity of water	uncertainty
0	2.7164	0.9036	0.0387
0.8561	1.785	0.9036	0.0387
1.9074	0.8971	0.9036	0.0387
3.0039	0	0.9036	0.0387
0	2.0998	0.9273	0.0387
0.6671	1.3917	0.9273	0.0387
1.4779	0.6945	0.9273	0.0387
2.3991	0	0.9273	0.0387
0	1.5651	0.9469	0.0387
0.5022	1.0469	0.9469	0.0387
1.144	0.5372	0.9469	0.0387
1.8356	0	0.9469	0.0387

System: tetrabutylammonium bromide + sodium chloride + water; phases: Liquid, Gas
Fixed: Temperature, K = 298.15
Property: (Relative) activity of water (Liquid); method: ISOPIE
Molality, mol/kg of tetrabutylammonium bromide	Molality, mol/kg of sodium chloride	(Relative) activity of water	uncertainty
0	2.7164	0.9036	0.0387
1.25	1.5324	0.9036	0.0387
2.9055	0.7178	0.9036	0.0387
5.4764	0	0.9036	0.0387
0	2.0998	0.9273	0.0387
0.9381	1.1508	0.9273	0.0387
2.1778	0.5369	0.9273	0.0387
3.8267	0	0.9273	0.0387
0	1.5651	0.9469	0.0387
0.6901	0.8467	0.9469	0.0387
1.53	0.3786	0.9469	0.0387
2.4254	0	0.9469	0.0387

System: tetramethylammonium bromide + sodium nitrate + water; phases: Liquid, Gas
Fixed: Temperature, K = 298.15
Property: (Relative) activity of water (Liquid); method: ISOPIE
Molality, mol/kg of tetramethylammonium bromide	Molality, mol/kg of sodium nitrate	(Relative) activity of water	uncertainty
0	4.3695	0.8813	0.0387
0.9542	3.0245	0.8813	0.0387
2.5706	1.3391	0.8813	0.0387
4.1022	0	0.8813	0.0387
0	3.0303	0.9143	0.0387
0.7557	2.156	0.9143	0.0387
1.9268	1.0031	0.9143	0.0387
3.0507	0	0.9143	0.0387
0	1.9858	0.9419	0.0387
0.4595	1.4576	0.9419	0.0387
1.2837	0.6686	0.9419	0.0387
2.0745	0	0.9419	0.0387

System: tetraethylammonium bromide + sodium nitrate + water; phases: Liquid, Gas
Fixed: Temperature, K = 298.15
Property: (Relative) activity of water (Liquid); method: ISOPIE
Molality, mol/kg of tetraethylammonium bromide	Molality, mol/kg of sodium nitrate	(Relative) activity of water	uncertainty
0	4.3695	0.8813	0.0387
1.075	2.8483	0.8813	0.0387
2.5706	1.3223	0.8813	0.0387
4.1125	0	0.8813	0.0387
0	3.0303	0.9143	0.0387
0.7958	2.0849	0.9143	0.0387
1.9574	1.0075	0.9143	0.0387
3.1419	0	0.9143	0.0387
0	1.9858	0.9419	0.0387
0.5089	1.3895	0.9419	0.0387
1.3117	0.6744	0.9419	0.0387
2.1709	0	0.9419	0.0387

System: tetrapropylammonium bromide + sodium nitrate + water; phases: Liquid, Gas
Fixed: Temperature, K = 298.15
Property: (Relative) activity of water (Liquid); method: ISOPIE
Molality, mol/kg of tetrapropylammonium bromide	Molality, mol/kg of sodium nitrate	(Relative) activity of water	uncertainty
0	6.5185	0.8339	0.0387
1.3281	4.0969	0.8339	0.0387
2.9262	2.3286	0.8339	0.0387
4.9359	0	0.8339	0.0387
0	5.7696	0.8518	0.0387
1.1659	3.5956	0.8518	0.0387
2.5804	2.0523	0.8518	0.0387
4.4087	0	0.8518	0.0387
0	2.8176	0.9204	0.0387
0.631	1.9472	0.9204	0.0387
1.4604	1.1623	0.9204	0.0387
2.638	0	0.9204	0.0387
0	2.4579	0.9292	0.0387
0.5609	1.7297	0.9292	0.0387
1.3002	1.0344	0.9292	0.0387
2.368	0	0.9292	0.0387
0	1.9809	0.942	0.0387
0.4604	1.4205	0.942	0.0387
1.0761	0.8556	0.942	0.0387
2.0151	0	0.942	0.0387

System: tetrabutylammonium bromide + sodium nitrate + water; phases: Liquid, Gas
Fixed: Temperature, K = 298.15
Property: (Relative) activity of water (Liquid); method: ISOPIE
Molality, mol/kg of tetrabutylammonium bromide	Molality, mol/kg of sodium nitrate	(Relative) activity of water	uncertainty
0	6.5184	0.8339	0.0387
1.8438	4.7252	0.8339	0.0387
5.9186	2.099	0.8339	0.0387
11.017	0	0.8339	0.0387
0	5.7696	0.8518	0.0387
1.7013	4.3601	0.8518	0.0387
5.4483	1.9312	0.8518	0.0387
9.7319	0	0.8518	0.0387
0	2.8176	0.9204	0.0387
0.7557	1.937	0.9204	0.0387
2.5511	0.9051	0.9204	0.0387
4.3475	0	0.9204	0.0387
0	2.4579	0.9292	0.0387
0.6558	1.6811	0.9292	0.0387
2.1937	0.7783	0.9292	0.0387
3.7501	0	0.9292	0.0387
0	1.9809	0.942	0.0387
0.5361	1.3748	0.942	0.0387
1.7282	0.6135	0.942	0.0387
2.8189	0	0.942	0.0387

System: tetrabutylammonium bromide + sodium nitrate + water; phases: Liquid mixture 2, Liquid mixture 1
Fixed: Pressure, kPa = 84.5
Property: Mass fraction of sodium nitrate (Liquid mixture 2); method: Titration method
Property: Mass fraction of sodium nitrate (Liquid mixture 1); method: Titration method
Property: Mass fraction of tetrabutylammonium bromide (Liquid mixture 1); method: Titration method
Temperature, K	Mass fraction of tetrabutylammonium bromide	Mass fraction of sodium nitrate	uncertainty	Mass fraction of sodium nitrate	uncertainty	Mass fraction of tetrabutylammonium bromide	uncertainty
298.15	0.5839	0.0909	0.0028	0.0909	0.0028	0.5839	
298.15	0.5545	0.0952	0.003	0.0952	0.003	0.5545	
298.15	0.4969	0.1061	0.0033	0.1061	0.0033	0.4969	
298.15	0.4253	0.1201	0.0037	0.1201	0.0037	0.4253	
298.15	0.3515	0.1346	0.0042	0.1346	0.0042	0.3515	
298.15	0.2876	0.1476	0.0046	0.1476	0.0046	0.2876	
298.15	0.2334	0.1583	0.0049	0.1583	0.0049	0.2334	
298.15	0.1907	0.1676	0.0052	0.1676	0.0052	0.1907	
298.15	0.1553	0.1771	0.0055	0.1771	0.0055	0.1553	
298.15	0.1286	0.1856	0.0058	0.1856	0.0058	0.1286	
298.15	0.1059	0.1948	0.0061	0.1948	0.0061	0.1059	
308.15	0.5277	0.0861	0.0027	0.0861	0.0027	0.5277	
308.15	0.4858	0.0931	0.0029	0.0931	0.0029	0.4858	
308.15	0.4282	0.1019	0.0032	0.1019	0.0032	0.4282	
308.15	0.3546	0.1116	0.0035	0.1116	0.0035	0.3546	
308.15	0.2891	0.1248	0.0039	0.1248	0.0039	0.2891	
308.15	0.2332	0.1336	0.0042	0.1336	0.0042	0.2332	
308.15	0.1929	0.1411	0.0044	0.1411	0.0044	0.1929	
308.15	0.1542	0.1498	0.0047	0.1498	0.0047	0.1542	
308.15	0.1276	0.1586	0.0049	0.1586	0.0049	0.1276	
308.15	0.1075	0.1671	0.0052	0.1671	0.0052	0.1075	
308.15	0.0897	0.1764	0.0055	0.1764	0.0055	0.0897	
318.15	0.5337	0.0725	0.0023	0.0725	0.0023	0.5337	
318.15	0.5086	0.0751	0.0023	0.0751	0.0023	0.5086	
318.15	0.4682	0.0818	0.0026	0.0818	0.0026	0.4682	
318.15	0.4042	0.0899	0.0028	0.0899	0.0028	0.4042	
318.15	0.3227	0.1001	0.0031	0.1001	0.0031	0.3227	
318.15	0.2593	0.1084	0.0034	0.1084	0.0034	0.2593	
318.15	0.2064	0.1158	0.0036	0.1158	0.0036	0.2064	
318.15	0.164	0.1233	0.0038	0.1233	0.0038	0.164	
318.15	0.1332	0.1321	0.0041	0.1321	0.0041	0.1332	
318.15	0.1094	0.1415	0.0044	0.1415	0.0044	0.1094	
318.15	0.0904	0.1522	0.0047	0.1522	0.0047	0.0904	
318.15	0.0754	0.163	0.0051	0.163	0.0051	0.0754	
318.15	0.0624	0.1756	0.0055	0.1756	0.0055	0.0624	

System: tetramethylammonium bromide + sodium carbonate + water; phases: Liquid, Gas
Fixed: Temperature, K = 298.15
Property: (Relative) activity of water (Liquid); method: ISOPIE
Molality, mol/kg of tetramethylammonium bromide	Molality, mol/kg of sodium carbonate	(Relative) activity of water	uncertainty
0	4.485	0.8201	0.0387
1.9436	2.2643	0.8201	0.0387
3.5254	1.1397	0.8201	0.0387
6.1921	0	0.8201	0.0387
0	2.8517	0.8992	0.0387
1.1299	1.3176	0.8992	0.0387
2.078	0.6763	0.8992	0.0387
3.5681	0	0.8992	0.0387
0	2.2709	0.9187	0.0387
0.8945	1.0422	0.9187	0.0387
1.6198	0.527	0.9187	0.0387
2.9111	0	0.9187	0.0387
0	1.6925	0.9403	0.0387
0.6769	0.7889	0.9403	0.0387
1.2242	0.3982	0.9403	0.0387
2.1486	0	0.9403	0.0387

System: tetramethylammonium bromide + sodium carbonate + water; phases: Liquid mixture 2, Liquid mixture 1
Fixed: Pressure, kPa = 84.5
Property: Mass fraction of sodium carbonate (Liquid mixture 2); method: Titration method
Property: Mass fraction of sodium carbonate (Liquid mixture 1); method: Titration method
Property: Mass fraction of tetramethylammonium bromide (Liquid mixture 1); method: Titration method
Temperature, K	Mass fraction of tetramethylammonium bromide	Mass fraction of sodium carbonate	uncertainty	Mass fraction of sodium carbonate	uncertainty	Mass fraction of tetramethylammonium bromide	uncertainty
298.15	0.4279	0.025	0.0009	0.025	0.0009	0.4279	
298.15	0.3791	0.044	0.0014	0.044	0.0014	0.3791	
298.15	0.3386	0.0628	0.002	0.0628	0.002	0.3386	
298.15	0.3094	0.0757	0.0024	0.0757	0.0024	0.3094	
298.15	0.2761	0.0925	0.0029	0.0925	0.0029	0.2761	
298.15	0.2352	0.1158	0.0036	0.1158	0.0036	0.2352	
298.15	0.193	0.1424	0.0044	0.1424	0.0044	0.193	
298.15	0.1597	0.1654	0.0051	0.1654	0.0051	0.1597	
298.15	0.1261	0.1899	0.0059	0.1899	0.0059	0.1261	
298.15	0.0959	0.2159	0.0067	0.2159	0.0067	0.0959	
308.15	0.3203	0.0751	0.0024	0.0751	0.0024	0.3203	
308.15	0.2864	0.093	0.0029	0.093	0.0029	0.2864	
308.15	0.2564	0.1109	0.0035	0.1109	0.0035	0.2564	
308.15	0.2548	0.1121	0.0035	0.1121	0.0035	0.2548	
308.15	0.2222	0.1327	0.0041	0.1327	0.0041	0.2222	
308.15	0.2083	0.1414	0.0044	0.1414	0.0044	0.2083	
308.15	0.1939	0.1508	0.0047	0.1508	0.0047	0.1939	
308.15	0.169	0.1672	0.0052	0.1672	0.0052	0.169	
308.15	0.1384	0.1884	0.0058	0.1884	0.0058	0.1384	
308.15	0.116	0.2061	0.0064	0.2061	0.0064	0.116	
308.15	0.0953	0.2232	0.0069	0.2232	0.0069	0.0953	
308.15	0.081	0.2343	0.0073	0.2343	0.0073	0.081	
318.15	0.272	0.1088	0.0034	0.1088	0.0034	0.272	
318.15	0.2399	0.1278	0.004	0.1278	0.004	0.2399	
318.15	0.2194	0.1409	0.0044	0.1409	0.0044	0.2194	
318.15	0.1953	0.1568	0.0049	0.1568	0.0049	0.1953	
318.15	0.1891	0.1611	0.005	0.1611	0.005	0.1891	
318.15	0.1682	0.1754	0.0054	0.1754	0.0054	0.1682	
318.15	0.1479	0.1904	0.0059	0.1904	0.0059	0.1479	
318.15	0.1258	0.2069	0.0064	0.2069	0.0064	0.1258	
318.15	0.1085	0.2204	0.0068	0.2204	0.0068	0.1085	

System: tetraethylammonium bromide + sodium carbonate + water; phases: Liquid, Gas
Fixed: Temperature, K = 298.15
Property: (Relative) activity of water (Liquid); method: ISOPIE
Molality, mol/kg of tetraethylammonium bromide	Molality, mol/kg of sodium carbonate	(Relative) activity of water	uncertainty
0	4.2131	0.8234	0.0387
1.5114	2.8971	0.8234	0.0387
3.0672	1.644	0.8234	0.0387
5.4768	0	0.8234	0.0387
0	3.2396	0.8729	0.0387
1.1878	1.9193	0.8729	0.0387
2.1364	1.1405	0.8729	0.0387
4.2741	0	0.8729	0.0387
0	2.8517	0.8992	0.0387
0.8359	1.5991	0.8992	0.0387
1.6779	0.8901	0.8992	0.0387
3.575	0	0.8992	0.0387
0	2.2709	0.9187	0.0387
0.6378	1.2206	0.9187	0.0387
1.2945	0.6864	0.9187	0.0387
2.9599	0	0.9187	0.0387
0	1.6925	0.9403	0.0387
0.48	0.9179	0.9403	0.0387
0.9768	0.5184	0.9403	0.0387
2.2536	0	0.9403	0.0387

System: tetraethylammonium bromide + sodium carbonate + water; phases: Liquid mixture 2, Liquid mixture 1
Fixed: Pressure, kPa = 84.5
Property: Mass fraction of sodium carbonate (Liquid mixture 2); method: Titration method
Property: Mass fraction of sodium carbonate (Liquid mixture 1); method: Titration method
Property: Mass fraction of tetraethylammonium bromide (Liquid mixture 1); method: Titration method
Temperature, K	Mass fraction of tetraethylammonium bromide	Mass fraction of sodium carbonate	uncertainty	Mass fraction of sodium carbonate	uncertainty	Mass fraction of tetraethylammonium bromide	uncertainty
298.15	0.3185	0.0405	0.0013	0.0405	0.0013	0.3185	
298.15	0.297	0.048	0.0015	0.048	0.0015	0.297	
298.15	0.2703	0.0583	0.0018	0.0583	0.0018	0.2703	
298.15	0.242	0.0714	0.0022	0.0714	0.0022	0.242	
298.15	0.2163	0.0847	0.0026	0.0847	0.0026	0.2163	
298.15	0.1909	0.0982	0.0031	0.0982	0.0031	0.1909	
298.15	0.1684	0.1103	0.0034	0.1103	0.0034	0.1684	
298.15	0.1485	0.1222	0.0038	0.1222	0.0038	0.1485	
298.15	0.1314	0.133	0.0041	0.133	0.0041	0.1314	
298.15	0.1156	0.1428	0.0044	0.1428	0.0044	0.1156	
298.15	0.102	0.1526	0.0047	0.1526	0.0047	0.102	
298.15	0.0889	0.162	0.005	0.162	0.005	0.0889	
298.15	0.0802	0.1692	0.0052	0.1692	0.0052	0.0802	
308.15	0.042	0.2022	0.0063	0.2022	0.0063	0.042	
308.15	0.073	0.1777	0.0055	0.1777	0.0055	0.073	
308.15	0.1143	0.1503	0.0047	0.1503	0.0047	0.1143	
308.15	0.1534	0.1257	0.0039	0.1257	0.0039	0.1534	
308.15	0.1889	0.1051	0.0033	0.1051	0.0033	0.1889	
308.15	0.2232	0.0868	0.0027	0.0868	0.0027	0.2232	
308.15	0.2467	0.0751	0.0023	0.0751	0.0023	0.2467	
308.15	0.2687	0.0653	0.002	0.0653	0.002	0.2687	
308.15	0.2949	0.0551	0.0017	0.0551	0.0017	0.2949	
308.15	0.3161	0.0476	0.0015	0.0476	0.0015	0.3161	
308.15	0.336	0.0409	0.0013	0.0409	0.0013	0.336	
318.15	0.0472	0.2061	0.0064	0.2061	0.0064	0.0472	
318.15	0.0788	0.1803	0.0056	0.1803	0.0056	0.0788	
318.15	0.1118	0.1548	0.0048	0.1548	0.0048	0.1118	
318.15	0.1501	0.1321	0.0041	0.1321	0.0041	0.1501	
318.15	0.1834	0.1125	0.0035	0.1125	0.0035	0.1834	
318.15	0.2111	0.0974	0.003	0.0974	0.003	0.2111	
318.15	0.2375	0.0838	0.0026	0.0838	0.0026	0.2375	
318.15	0.2647	0.0713	0.0022	0.0713	0.0022	0.2647	
318.15	0.2846	0.0617	0.0019	0.0617	0.0019	0.2846	
318.15	0.3071	0.0536	0.0017	0.0536	0.0017	0.3071	
318.15	0.3312	0.0459	0.0014	0.0459	0.0014	0.3312	
318.15	0.3494	0.0396	0.0012	0.0396	0.0012	0.3494	
318.15	0.3683	0.0348	0.0011	0.0348	0.0011	0.3683	

System: sodium carbonate + tetrapropylammonium bromide + water; phases: Liquid, Gas
Fixed: Temperature, K = 298.15
Property: (Relative) activity of water (Liquid); method: ISOPIE
Molality, mol/kg of tetrapropylammonium bromide	Molality, mol/kg of sodium carbonate	(Relative) activity of water	uncertainty
0	2.5718	0.9064	0.0387
0.5929	1.7196	0.9064	0.0387
1.437	0.9368	0.9064	0.0387
3.0777	0	0.9064	0.0387
0	2.3117	0.917	0.0387
0.4909	1.4231	0.917	0.0387
1.1821	0.7708	0.917	0.0387
2.7544	0	0.917	0.0387
0	1.6026	0.9436	0.0387
0.3338	0.9679	0.9436	0.0387
0.8136	0.5308	0.9436	0.0387
1.9347	0	0.9436	0.0387
0	1.0286	0.963	0.0387
0.2247	0.6519	0.963	0.0387
0.5524	0.3601	0.963	0.0387
1.3216	0	0.963	0.0387

System: sodium carbonate + tetrapropylammonium bromide + water; phases: Liquid mixture 2, Liquid mixture 1
Fixed: Pressure, kPa = 84.5
Property: Mass fraction of sodium carbonate (Liquid mixture 2); method: Titration method
Property: Mass fraction of sodium carbonate (Liquid mixture 1); method: Titration method
Property: Mass fraction of tetrapropylammonium bromide (Liquid mixture 1); method: Titration method
Temperature, K	Mass fraction of tetrapropylammonium bromide	Mass fraction of sodium carbonate	uncertainty	Mass fraction of sodium carbonate	uncertainty	Mass fraction of tetrapropylammonium bromide	uncertainty
298.15	0.0436	0.1668	0.0052	0.1668	0.0052	0.0436	
298.15	0.0548	0.1542	0.0048	0.1542	0.0048	0.0548	
298.15	0.0639	0.1462	0.0045	0.1462	0.0045	0.0639	
298.15	0.0667	0.1455	0.0045	0.1455	0.0045	0.0667	
298.15	0.0723	0.1403	0.0044	0.1403	0.0044	0.0723	
298.15	0.0821	0.1332	0.0041	0.1332	0.0041	0.0821	
298.15	0.0892	0.1279	0.004	0.1279	0.004	0.0892	
298.15	0.0932	0.1258	0.0039	0.1258	0.0039	0.0932	
298.15	0.1093	0.1166	0.0036	0.1166	0.0036	0.1093	
298.15	0.1127	0.1145	0.0036	0.1145	0.0036	0.1127	
298.15	0.1277	0.1063	0.0033	0.1063	0.0033	0.1277	
298.15	0.1365	0.1012	0.0031	0.1012	0.0031	0.1365	
298.15	0.1474	0.0955	0.003	0.0955	0.003	0.1474	
298.15	0.1566	0.0913	0.0028	0.0913	0.0028	0.1566	
298.15	0.1711	0.0824	0.0026	0.0824	0.0026	0.1711	
298.15	0.1798	0.0782	0.0024	0.0782	0.0024	0.1798	
298.15	0.2014	0.0691	0.0022	0.0691	0.0022	0.2014	
298.15	0.2329	0.0558	0.0017	0.0558	0.0017	0.2329	
298.15	0.2728	0.0422	0.0013	0.0422	0.0013	0.2728	
298.15	0.3439	0.0244	0.0008	0.0244	0.0008	0.3439	
308.15	0.4051	0.0164	0.0005	0.0164	0.0005	0.4051	
308.15	0.3481	0.0261	0.0008	0.0261	0.0008	0.3481	
308.15	0.2969	0.0391	0.0012	0.0391	0.0012	0.2969	
308.15	0.2579	0.051	0.0016	0.051	0.0016	0.2579	
308.15	0.2259	0.0628	0.002	0.0628	0.002	0.2259	
308.15	0.1991	0.0747	0.0023	0.0747	0.0023	0.1991	
308.15	0.1743	0.086	0.0027	0.086	0.0027	0.1743	
308.15	0.1539	0.0963	0.003	0.0963	0.003	0.1539	
308.15	0.1342	0.1065	0.0033	0.1065	0.0033	0.1342	
308.15	0.1178	0.1155	0.0036	0.1155	0.0036	0.1178	
308.15	0.1016	0.1248	0.0039	0.1248	0.0039	0.1016	
318.15	0.4285	0.0169	0.0006	0.0169	0.0006	0.4285	
318.15	0.3621	0.0281	0.0009	0.0281	0.0009	0.3621	
318.15	0.3172	0.0391	0.0012	0.0391	0.0012	0.3172	
318.15	0.277	0.0509	0.0016	0.0509	0.0016	0.277	
318.15	0.2408	0.0633	0.002	0.0633	0.002	0.2408	
318.15	0.2052	0.078	0.0024	0.078	0.0024	0.2052	
318.15	0.1786	0.0894	0.0028	0.0894	0.0028	0.1786	
318.15	0.1541	0.1013	0.0031	0.1013	0.0031	0.1541	
318.15	0.1313	0.1129	0.0035	0.1129	0.0035	0.1313	
318.15	0.108	0.1254	0.0039	0.1254	0.0039	0.108	

System: sodium carbonate + tetrabutylammonium bromide + water; phases: Liquid, Gas
Fixed: Temperature, K = 298.15
Property: (Relative) activity of water (Liquid); method: ISOPIE
Molality, mol/kg of tetrabutylammonium bromide	Molality, mol/kg of sodium carbonate	(Relative) activity of water	uncertainty
0	2.5718	0.9064	0.0387
0.8518	2.0164	0.9064	0.0387
2.6431	1.1352	0.9064	0.0387
5.5603	0	0.9064	0.0387
0	2.3117	0.917	0.0387
0.7318	1.7316	0.917	0.0387
2.1792	0.9367	0.917	0.0387
4.7491	0	0.917	0.0387
0	1.6026	0.9436	0.0387
0.3874	0.9166	0.9436	0.0387
1.0335	0.4441	0.9436	0.0387
2.6766	0	0.9436	0.0387
0	1.0286	0.963	0.0387
0.2537	0.6009	0.963	0.0387
0.6667	0.2867	0.963	0.0387
1.5202	0	0.963	0.0387

System: sodium carbonate + tetrabutylammonium bromide + water; phases: Liquid mixture 2, Liquid mixture 1
Fixed: Pressure, kPa = 84.5
Property: Mass fraction of sodium carbonate (Liquid mixture 2); method: Titration method
Property: Mass fraction of sodium carbonate (Liquid mixture 1); method: Titration method
Property: Mass fraction of tetrabutylammonium bromide (Liquid mixture 1); method: Titration method
Temperature, K	Mass fraction of tetrabutylammonium bromide	Mass fraction of sodium carbonate	uncertainty	Mass fraction of sodium carbonate	uncertainty	Mass fraction of tetrabutylammonium bromide	uncertainty
298.15	0.0107	0.1875	0.0059	0.1875	0.0059	0.0107	
298.15	0.0235	0.1581	0.0049	0.1581	0.0049	0.0235	
298.15	0.0405	0.1397	0.0043	0.1397	0.0043	0.0405	
298.15	0.0608	0.1233	0.0038	0.1233	0.0038	0.0608	
298.15	0.0847	0.1083	0.0034	0.1083	0.0034	0.0847	
298.15	0.1103	0.0955	0.003	0.0955	0.003	0.1103	
298.15	0.138	0.0835	0.0026	0.0835	0.0026	0.138	
298.15	0.1658	0.0729	0.0023	0.0729	0.0023	0.1658	
298.15	0.1922	0.0633	0.002	0.0633	0.002	0.1922	
298.15	0.2167	0.0551	0.0017	0.0551	0.0017	0.2167	
298.15	0.2395	0.0482	0.0015	0.0482	0.0015	0.2395	
298.15	0.2726	0.038	0.0012	0.038	0.0012	0.2726	
298.15	0.3263	0.0271	0.0008	0.0271	0.0008	0.3263	
298.15	0.3844	0.0185	0.0006	0.0185	0.0006	0.3844	
308.15	0.3504	0.0246	0.0008	0.0246	0.0008	0.3504	
308.15	0.2895	0.0366	0.0011	0.0366	0.0011	0.2895	
308.15	0.2425	0.0479	0.0015	0.0479	0.0015	0.2425	
308.15	0.2031	0.0592	0.0018	0.0592	0.0018	0.2031	
308.15	0.1717	0.0692	0.0021	0.0692	0.0021	0.1717	
308.15	0.1474	0.0771	0.0024	0.0771	0.0024	0.1474	
308.15	0.1267	0.0854	0.0026	0.0854	0.0026	0.1267	
308.15	0.1102	0.0922	0.0029	0.0922	0.0029	0.1102	
308.15	0.0937	0.0995	0.0031	0.0995	0.0031	0.0937	
308.15	0.0822	0.1052	0.0033	0.1052	0.0033	0.0822	
308.15	0.0704	0.1114	0.0035	0.1114	0.0035	0.0704	
318.15	0.4323	0.0138	0.0004	0.0138	0.0004	0.4323	
318.15	0.3549	0.0247	0.0008	0.0247	0.0008	0.3549	
318.15	0.3024	0.0343	0.0011	0.0343	0.0011	0.3024	
318.15	0.2594	0.0437	0.0014	0.0437	0.0014	0.2594	
318.15	0.2201	0.0534	0.0017	0.0534	0.0017	0.2201	
318.15	0.1829	0.0638	0.002	0.0638	0.002	0.1829	
318.15	0.1555	0.0726	0.0023	0.0726	0.0023	0.1555	
318.15	0.1343	0.0799	0.0025	0.0799	0.0025	0.1343	
318.15	0.1152	0.0871	0.0027	0.0871	0.0027	0.1152	
318.15	0.0996	0.0938	0.0029	0.0938	0.0029	0.0996	
318.15	0.0864	0.1001	0.0031	0.1001	0.0031	0.0864	
318.15	0.0757	0.1052	0.0033	0.1052	0.0033	0.0757	
318.15	0.0662	0.1119	0.0035	0.1119	0.0035	0.0662	

System: tetramethylammonium bromide + trisodium citrate + water; phases: Liquid, Gas
Fixed: Temperature, K = 298.15
Property: (Relative) activity of water (Liquid); method: ISOPIE
Molality, mol/kg of tetramethylammonium bromide	Molality, mol/kg of trisodium citrate	(Relative) activity of water	uncertainty
0	2.2699	0.8786	0.0387
0.7629	1.4931	0.8786	0.0387
1.6584	0.9446	0.8786	0.0387
4.3911	0	0.8786	0.0387
0	1.8615	0.9021	0.0387
0.6408	1.2545	0.9021	0.0387
1.3737	0.7828	0.9021	0.0387
3.5297	0	0.9021	0.0387
0	1.6441	0.9168	0.0387
0.5598	1.0954	0.9168	0.0387
1.1881	0.6771	0.9168	0.0387
2.9892	0	0.9168	0.0387

System: trisodium citrate + tetraethylammonium bromide + water; phases: Liquid, Gas
Fixed: Temperature, K = 298.15
Property: (Relative) activity of water (Liquid); method: ISOPIE
Molality, mol/kg of tetraethylammonium bromide	Molality, mol/kg of trisodium citrate	(Relative) activity of water	uncertainty
0	3.3275	0.8248	0.0387
2.2737	1.5833	0.8248	0.0387
3.6047	0.8963	0.8248	0.0387
5.7619	0	0.8248	0.0387
0	2.9906	0.8399	0.0387
2.0948	1.4364	0.8399	0.0387
3.3082	0.816	0.8399	0.0387
5.2507	0	0.8399	0.0387
0	2.2699	0.8786	0.0387
1.4561	1.0109	0.8786	0.0387
2.2671	0.6146	0.8786	0.0387
4.1307	0	0.8786	0.0387
0	1.8615	0.9021	0.0387
1.188	0.8252	0.9021	0.0387
1.8523	0.502	0.9021	0.0387
3.457	0	0.9021	0.0387
0	1.6441	0.9168	0.0387
1.0039	0.6968	0.9168	0.0387
1.5822	0.4289	0.9168	0.0387
3.018	0	0.9168	0.0387

System: trisodium citrate + tetraethylammonium bromide + water; phases: Liquid mixture 2, Liquid mixture 1
Fixed: Pressure, kPa = 84.5
Property: Mass fraction of trisodium citrate (Liquid mixture 2); method: Titration method
Property: Mass fraction of trisodium citrate (Liquid mixture 1); method: Titration method
Property: Mass fraction of tetraethylammonium bromide (Liquid mixture 1); method: Titration method
Temperature, K	Mass fraction of tetraethylammonium bromide	Mass fraction of trisodium citrate	uncertainty	Mass fraction of trisodium citrate	uncertainty	Mass fraction of tetraethylammonium bromide	uncertainty
298.15	0.1729	0.2408	0.0075	0.2408	0.0075	0.1729	
298.15	0.1975	0.222	0.0069	0.222	0.0069	0.1975	
298.15	0.2223	0.2011	0.0062	0.2011	0.0062	0.2223	
298.15	0.2477	0.1823	0.0057	0.1823	0.0057	0.2477	
298.15	0.2825	0.1575	0.0049	0.1575	0.0049	0.2825	
298.15	0.3163	0.1331	0.0042	0.1331	0.0042	0.3163	
298.15	0.3444	0.114	0.0036	0.114	0.0036	0.3444	
298.15	0.3733	0.0944	0.003	0.0944	0.003	0.3733	
298.15	0.3977	0.08	0.0025	0.08	0.0025	0.3977	
298.15	0.419	0.0671	0.0021	0.0671	0.0021	0.419	
308.15	0.1872	0.2417	0.0075	0.2417	0.0075	0.1872	
308.15	0.2078	0.2249	0.007	0.2249	0.007	0.2078	
308.15	0.2314	0.2061	0.0064	0.2061	0.0064	0.2314	
308.15	0.2579	0.1859	0.0058	0.1859	0.0058	0.2579	
308.15	0.2829	0.1661	0.0052	0.1661	0.0052	0.2829	
308.15	0.3079	0.1485	0.0046	0.1485	0.0046	0.3079	
308.15	0.3301	0.1325	0.0041	0.1325	0.0041	0.3301	
308.15	0.3521	0.1168	0.0037	0.1168	0.0037	0.3521	
308.15	0.3736	0.1033	0.0032	0.1033	0.0032	0.3736	
308.15	0.3939	0.0908	0.0029	0.0908	0.0029	0.3939	
308.15	0.4139	0.0794	0.0025	0.0794	0.0025	0.4139	
308.15	0.4313	0.0688	0.0022	0.0688	0.0022	0.4313	
318.15	0.201	0.2364	0.0073	0.2364	0.0073	0.201	
318.15	0.2131	0.2266	0.007	0.2266	0.007	0.2131	
318.15	0.23	0.2141	0.0066	0.2141	0.0066	0.23	
318.15	0.2541	0.1961	0.0061	0.1961	0.0061	0.2541	
318.15	0.2754	0.1788	0.0056	0.1788	0.0056	0.2754	
318.15	0.2987	0.1607	0.005	0.1607	0.005	0.2987	
318.15	0.3286	0.1393	0.0043	0.1393	0.0043	0.3286	
318.15	0.3493	0.1243	0.0039	0.1243	0.0039	0.3493	
318.15	0.3696	0.1115	0.0035	0.1115	0.0035	0.3696	
318.15	0.3878	0.1	0.0031	0.1	0.0031	0.3878	
318.15	0.4058	0.09	0.0028	0.09	0.0028	0.4058	
318.15	0.4189	0.0817	0.0026	0.0817	0.0026	0.4189	
318.15	0.4346	0.0734	0.0023	0.0734	0.0023	0.4346	
318.15	0.448	0.0669	0.0021	0.0669	0.0021	0.448	

System: trisodium citrate + tetrapropylammonium bromide + water; phases: Liquid, Gas
Fixed: Temperature, K = 298.15
Property: (Relative) activity of water (Liquid); method: ISOPIE
Molality, mol/kg of tetrapropylammonium bromide	Molality, mol/kg of trisodium citrate	(Relative) activity of water	uncertainty
0	2.5099	0.8685	0.0387
1.5238	1.4124	0.8685	0.0387
2.5519	0.7978	0.8685	0.0387
4.1128	0	0.8685	0.0387
0	2.3459	0.88	0.0387
1.3589	1.2596	0.88	0.0387
2.3247	0.7134	0.88	0.0387
3.8591	0	0.88	0.0387
0	1.4397	0.9287	0.0387
0.8222	0.6804	0.9287	0.0387
1.3693	0.3815	0.9287	0.0387
2.4829	0	0.9287	0.0387
0	1.2116	0.9428	0.0387
0.6344	0.588	0.9428	0.0387
1.0727	0.3293	0.9428	0.0387
2.0142	0	0.9428	0.0387
0	0.8265	0.9629	0.0387
0.4282	0.3984	0.9629	0.0387
0.7399	0.2272	0.9629	0.0387
1.3996	0	0.9629	0.0387

System: trisodium citrate + tetrapropylammonium bromide + water; phases: Liquid mixture 2, Liquid mixture 1
Fixed: Pressure, kPa = 84.5
Property: Mass fraction of trisodium citrate (Liquid mixture 2); method: Titration method
Property: Mass fraction of trisodium citrate (Liquid mixture 1); method: Titration method
Property: Mass fraction of tetrapropylammonium bromide (Liquid mixture 1); method: Titration method
Temperature, K	Mass fraction of tetrapropylammonium bromide	Mass fraction of trisodium citrate	uncertainty	Mass fraction of trisodium citrate	uncertainty	Mass fraction of tetrapropylammonium bromide	uncertainty
298.15	0.0473	0.3208	0.01	0.3208	0.01	0.0473	
298.15	0.0686	0.2897	0.009	0.2897	0.009	0.0686	
298.15	0.0946	0.2582	0.008	0.2582	0.008	0.0946	
298.15	0.123	0.2299	0.0071	0.2299	0.0071	0.123	
298.15	0.143	0.214	0.0066	0.214	0.0066	0.143	
298.15	0.1525	0.2055	0.0064	0.2055	0.0064	0.1525	
298.15	0.1683	0.1932	0.006	0.1932	0.006	0.1683	
298.15	0.1819	0.1814	0.0056	0.1814	0.0056	0.1819	
298.15	0.1943	0.173	0.0054	0.173	0.0054	0.1943	
298.15	0.2094	0.1608	0.005	0.1608	0.005	0.2094	
298.15	0.2251	0.1493	0.0046	0.1493	0.0046	0.2251	
298.15	0.2404	0.1381	0.0043	0.1381	0.0043	0.2404	
298.15	0.2579	0.1256	0.0039	0.1256	0.0039	0.2579	
298.15	0.2948	0.1016	0.0032	0.1016	0.0032	0.2948	
298.15	0.3302	0.0814	0.0025	0.0814	0.0025	0.3302	
298.15	0.3749	0.061	0.0019	0.061	0.0019	0.3749	
298.15	0.4167	0.0445	0.0014	0.0445	0.0014	0.4167	
298.15	0.4537	0.032	0.001	0.032	0.001	0.4537	
298.15	0.4833	0.024	0.0008	0.024	0.0008	0.4833	
308.15	0.4819	0.0266	0.0009	0.0266	0.0009	0.4819	
308.15	0.4309	0.0448	0.0014	0.0448	0.0014	0.4309	
308.15	0.3793	0.0644	0.002	0.0644	0.002	0.3793	
308.15	0.3401	0.082	0.0026	0.082	0.0026	0.3401	
308.15	0.3101	0.098	0.0031	0.098	0.0031	0.3101	
308.15	0.2825	0.1163	0.0036	0.1163	0.0036	0.2825	
308.15	0.2535	0.135	0.0042	0.135	0.0042	0.2535	
308.15	0.2246	0.1531	0.0048	0.1531	0.0048	0.2246	
308.15	0.1775	0.1907	0.0059	0.1907	0.0059	0.1775	
308.15	0.1485	0.2136	0.0066	0.2136	0.0066	0.1485	
318.15	0.5126	0.0216	0.0007	0.0216	0.0007	0.5126	
318.15	0.4515	0.0398	0.0013	0.0398	0.0013	0.4515	
318.15	0.3909	0.0617	0.0019	0.0617	0.0019	0.3909	
318.15	0.3434	0.0834	0.0026	0.0834	0.0026	0.3434	
318.15	0.3026	0.106	0.0033	0.106	0.0033	0.3026	
318.15	0.271	0.1257	0.0039	0.1257	0.0039	0.271	
318.15	0.2381	0.1489	0.0046	0.1489	0.0046	0.2381	
318.15	0.2097	0.1693	0.0053	0.1693	0.0053	0.2097	
318.15	0.1832	0.1885	0.0058	0.1885	0.0058	0.1832	
318.15	0.1601	0.2063	0.0064	0.2063	0.0064	0.1601	
318.15	0.1335	0.2282	0.0071	0.2282	0.0071	0.1335	

System: trisodium citrate + tetrabutylammonium bromide + water; phases: Liquid, Gas
Fixed: Temperature, K = 298.15
Property: (Relative) activity of water (Liquid); method: ISOPIE
Molality, mol/kg of tetrabutylammonium bromide	Molality, mol/kg of trisodium citrate	(Relative) activity of water	uncertainty
0	2.5099	0.8685	0.0387
2.6399	1.7066	0.8685	0.0387
5.4809	0.8869	0.8685	0.0387
8.6746	0	0.8685	0.0387
0	2.3459	0.88	0.0387
2.4297	1.5468	0.88	0.0387
4.9362	0.7977	0.88	0.0387
7.859	0	0.88	0.0387
0	1.4397	0.9287	0.0387
1.0875	0.7326	0.9287	0.0387
1.9444	0.3967	0.9287	0.0387
3.7456	0	0.9287	0.0387
0	1.2116	0.9428	0.0387
0.7944	0.5056	0.9428	0.0387
1.5053	0.2429	0.9428	0.0387
2.6917	0	0.9428	0.0387
0	0.8265	0.9629	0.0387
0.5245	0.3337	0.9629	0.0387
0.9514	0.1539	0.9629	0.0387
1.6166	0	0.9629	0.0387

System: trisodium citrate + tetrabutylammonium bromide + water; phases: Liquid mixture 2, Liquid mixture 1
Fixed: Pressure, kPa = 84.5
Property: Mass fraction of trisodium citrate (Liquid mixture 2); method: Titration method
Property: Mass fraction of trisodium citrate (Liquid mixture 1); method: Titration method
Property: Mass fraction of tetrabutylammonium bromide (Liquid mixture 1); method: Titration method
Temperature, K	Mass fraction of tetrabutylammonium bromide	Mass fraction of trisodium citrate	uncertainty	Mass fraction of trisodium citrate	uncertainty	Mass fraction of tetrabutylammonium bromide	uncertainty
298.15	0.554	0.0103	0.0004	0.0103	0.0004	0.554	
298.15	0.4595	0.0248	0.0008	0.0248	0.0008	0.4595	
298.15	0.3906	0.0414	0.0013	0.0414	0.0013	0.3906	
298.15	0.3376	0.0591	0.0019	0.0591	0.0019	0.3376	
298.15	0.3355	0.0601	0.0019	0.0601	0.0019	0.3355	
298.15	0.3146	0.0682	0.0021	0.0682	0.0021	0.3146	
298.15	0.2953	0.0768	0.0024	0.0768	0.0024	0.2953	
298.15	0.2923	0.0783	0.0024	0.0783	0.0024	0.2923	
298.15	0.2724	0.0874	0.0027	0.0874	0.0027	0.2724	
298.15	0.2564	0.0947	0.0029	0.0947	0.0029	0.2564	
298.15	0.2525	0.0968	0.003	0.0968	0.003	0.2525	
298.15	0.226	0.1099	0.0034	0.1099	0.0034	0.226	
298.15	0.2251	0.1109	0.0035	0.1109	0.0035	0.2251	
298.15	0.1987	0.1234	0.0038	0.1234	0.0038	0.1987	
298.15	0.1961	0.1255	0.0039	0.1255	0.0039	0.1961	
298.15	0.175	0.1373	0.0043	0.1373	0.0043	0.175	
298.15	0.1731	0.1387	0.0043	0.1387	0.0043	0.1731	
298.15	0.1527	0.1514	0.0047	0.1514	0.0047	0.1527	
298.15	0.1507	0.1515	0.0047	0.1515	0.0047	0.1507	
298.15	0.1324	0.1646	0.0051	0.1646	0.0051	0.1324	
298.15	0.1273	0.1656	0.0051	0.1656	0.0051	0.1273	
298.15	0.1148	0.1767	0.0055	0.1767	0.0055	0.1148	
298.15	0.1051	0.1826	0.0057	0.1826	0.0057	0.1051	
298.15	0.0855	0.2007	0.0062	0.2007	0.0062	0.0855	
298.15	0.0663	0.2156	0.0067	0.2156	0.0067	0.0663	
298.15	0.0505	0.2317	0.0072	0.2317	0.0072	0.0505	
298.15	0.0379	0.2457	0.0076	0.2457	0.0076	0.0379	
298.15	0.0296	0.2556	0.0079	0.2556	0.0079	0.0296	
308.15	0.4054	0.0389	0.0012	0.0389	0.0012	0.4054	
308.15	0.3388	0.0598	0.0019	0.0598	0.0019	0.3388	
308.15	0.2855	0.0808	0.0025	0.0808	0.0025	0.2855	
308.15	0.2325	0.1032	0.0032	0.1032	0.0032	0.2325	
308.15	0.1906	0.1242	0.0039	0.1242	0.0039	0.1906	
308.15	0.1618	0.1393	0.0043	0.1393	0.0043	0.1618	
308.15	0.1354	0.1548	0.0048	0.1548	0.0048	0.1354	
308.15	0.1161	0.1678	0.0052	0.1678	0.0052	0.1161	
308.15	0.0988	0.1805	0.0056	0.1805	0.0056	0.0988	
308.15	0.0859	0.1908	0.0059	0.1908	0.0059	0.0859	
308.15	0.0718	0.2053	0.0064	0.2053	0.0064	0.0718	
318.15	0.5345	0.0144	0.0005	0.0144	0.0005	0.5345	
318.15	0.4306	0.0326	0.001	0.0326	0.001	0.4306	
318.15	0.352	0.0535	0.0017	0.0535	0.0017	0.352	
318.15	0.2909	0.0747	0.0023	0.0747	0.0023	0.2909	
318.15	0.2432	0.094	0.0029	0.094	0.0029	0.2432	
318.15	0.206	0.112	0.0035	0.112	0.0035	0.206	
318.15	0.1723	0.1283	0.004	0.1283	0.004	0.1723	
318.15	0.1459	0.1422	0.0044	0.1422	0.0044	0.1459	
318.15	0.1246	0.1551	0.0048	0.1551	0.0048	0.1246	
318.15	0.1	0.1725	0.0053	0.1725	0.0053	0.1	
