Measured thermophysical data. Determination of saturated vapour pressure of aniline hydrochloride and vapour-liquid equilibrium of the water- aniline hydrochloride system
Source: Fluid Phase Equilib., 2016, 10.1016/j.fluid.2015.12.053
Compound 1: aniline hydrochloride, C6H8ClN, InChI=1S/C6H7N.ClH/c7-6-4-2-1-3-5-6;/h1-5H,7H2;1H, purity 98.5%
Compound 2: water, H2O, InChI=1S/H2O/h1H2, purity 99.9%

System: aniline hydrochloride; phases: Liquid, Gas
Property: Vapor or sublimation pressure, kPa (Liquid); method: Ebulliometric method (Recirculating still)
Temperature, K	Vapor or sublimation pressure, kPa	uncertainty
475.15	23.25	0.18
480.15	27.25	0.2
484.15	31.25	0.2
488.15	34.25	0.25
493.15	41.25	0.61
494.15	44.25	0.42
495.15	45.25	0.25
496.15	46.25	0.31
498.15	49.25	0.37
499.15	51.25	0.39
500.15	52.75	0.39
501.15	54.75	0.39
502.15	56.25	0.46
503.15	59	0.43
505.15	62.25	0.46
509.15	71.25	0.53
512.15	79.25	0.6
513.65	83.75	0.66
516.15	91.25	0.73
517.65	97.25	0.75
519.15	101.5	0.81
519.65	105.25	1.09
521.15	112.25	1.09
522.15	118.25	1.32
524.15	131.25	1.28
525.15	136.25	1.09
526.15	141.25	1.28
527.15	148.25	1.48

System: aniline hydrochloride + water; phases: Liquid
Fixed: Pressure, kPa = 100
Property: Mass density, kg/m3 (Liquid); method: Pycnometric method
Temperature, K	Mass fraction of aniline hydrochloride	Mass density, kg/m3	uncertainty
298.15	0	997.7	0.3
303.15	0	996	1
313.15	0	992	1
323.15	0	986.6	0.3
333.15	0	983.1	0.4
343.15	0	977.3	0.4
353.15	0	971.8	0.4
356.65	0	963.9	0.7
298.15	0.01	1000	1
303.15	0.01	997.4	0.3
313.15	0.01	994.3	0.3
323.15	0.01	989.5	0.3
333.15	0.01	985.6	0.4
343.15	0.01	979.1	0.4
353.15	0.01	975.1	0.4
356.65	0.01	965.4	0.9
298.15	0.05	1009.2	0.3
303.15	0.05	1007.3	0.3
313.15	0.05	1002.3	0.3
323.15	0.05	995.9	0.3
333.15	0.05	991.2	0.4
343.15	0.05	985.1	0.4
353.15	0.05	980.7	0.4
356.65	0.05	973.4	0.8
298.15	0.1	1018.9	0.3
303.15	0.1	1016.3	0.3
313.15	0.1	1012.3	0.3
323.15	0.1	1007.3	0.3
333.15	0.1	1003.8	0.4
343.15	0.1	997.1	0.4
353.15	0.1	990.2	0.5
356.65	0.1	978.7	0.9
298.15	0.15	1028.7	0.3
303.15	0.15	1026.6	0.3
313.15	0.15	1021.7	0.3
323.15	0.15	1016.5	0.3
333.15	0.15	1012.8	0.4
343.15	0.15	1005.9	0.4
353.15	0.15	998.8	0.5
356.65	0.15	987.6	1
298.15	0.2	1038.5	0.3
303.15	0.2	1036.8	0.3
313.15	0.2	1031	1
323.15	0.2	1025.8	0.3
333.15	0.2	1021.8	0.4
343.15	0.2	1014.7	0.4
353.15	0.2	1007.4	0.5
356.65	0.2	996.6	0.9
298.15	0.3	1057.8	0.3
303.15	0.3	1056	1
313.15	0.3	1049.6	0.3
323.15	0.3	1045.3	0.4
333.15	0.3	1040.6	0.4
343.15	0.3	1033.5	0.4
353.15	0.3	1026.7	0.5
356.65	0.3	1016	1
298.15	0.35	1068	1
303.15	0.35	1065.8	0.3
313.15	0.35	1059.7	0.4
323.15	0.35	1055.1	0.4
333.15	0.35	1050.1	0.4
343.15	0.35	1043	1
353.15	0.35	1036.3	0.5
356.65	0.35	1026.1	0.9
298.15	0.4	1078.3	0.3
303.15	0.4	1075.6	0.3
313.15	0.4	1069.7	0.4
323.15	0.4	1065	1
333.15	0.4	1059.6	0.4
343.15	0.4	1052.5	0.4
353.15	0.4	1045.9	0.5
356.65	0.4	1036.3	0.9
323.15	0.6	1107.5	0.4
333.15	0.6	1103.3	0.4
343.15	0.6	1097.1	0.5
353.15	0.6	1087	1
356.65	0.6	1078	1

System: aniline hydrochloride + water; phases: Liquid, Gas
Fixed: Pressure, kPa = 101.3
Property: Mole fraction of aniline hydrochloride (Liquid); method: Chromatography
Temperature, K	Mole fraction of aniline hydrochloride	uncertainty
375.15	0.0013	0.0013
376.15	0.0069	0.0022
378.15	0.0154	0.0026
379.15	0.035	0.0072
381.15	0.1163	0.0055
384.65	0.1803	0.0056
394.15	0.4368	0.0039
396.15	0.4504	0.0043
398.15	0.4797	0.006
400.15	0.5397	0.0057
402.15	0.5641	0.0071
406.15	0.7129	0.0074
407.15	0.7296	0.0044
427.15	0.7931	0.0026
433.15	0.818	0.0026
460.15	0.872	0.0023
468.15	0.8835	0.0024
477.15	0.9564	0.0024
483.15	0.9747	0.0021
513.15	0.9928	0.002
518.15	0.9957	0.002

System: aniline hydrochloride + water; phases: Gas, Liquid
Fixed: Pressure, kPa = 101.3
Property: Mole fraction of aniline hydrochloride (Gas); method: Chromatography
Temperature, K	Mole fraction of aniline hydrochloride	uncertainty
375.15	0.0004	0.0004
376.15	0.0008	0.0008
378.15	0.0012	0.0012
379.15	0.0011	0.0011
381.15	0.0014	0.0014
384.65	0.0017	0.0017
394.15	0.002	0.002
396.15	0.003	0.002
398.15	0.0034	0.002
400.15	0.0037	0.002
402.15	0.0056	0.002
406.15	0.0128	0.002
407.15	0.016	0.0021
427.15	0.0212	0.002
433.15	0.0242	0.002
460.15	0.0281	0.002
468.15	0.0296	0.002
477.15	0.0342	0.002
483.15	0.0555	0.0022
513.15	0.1201	0.0351
518.15	0.9957	0.0043
