Measured thermophysical data. High-pressure vapor-liquid equilibria of the second generation biofuel blends (2-methylfuran + iso-octane) and (2-methyltetrahydrofuran + di-n-butyl ether): Experiments and PCP-SAFT modeling
Source: Fluid Phase Equilib., 2015, 10.1016/j.fluid.2015.05.002
Compound 1: 2-methylfuran, C5H6O, InChI=1S/C5H6O/c1-5-3-2-4-6-5/h2-4H,1H3, purity 98.5%
Compound 2: 2-methyltetrahydrofuran, C5H10O, InChI=1S/C5H10O/c1-5-3-2-4-6-5/h5H,2-4H2,1H3, purity 99%
Compound 3: dibutyl ether, C8H18O, InChI=1S/C8H18O/c1-3-5-7-9-8-6-4-2/h3-8H2,1-2H3, purity 99.3%
Compound 4: 2,2,4-trimethylpentane, C8H18, InChI=1S/C8H18/c1-7(2)6-8(3,4)5/h7H,6H2,1-5H3, purity 99.8%

System: 2-methylfuran; phases: Liquid
Property: Mass density, kg/m3 (Liquid); method: Vibrating tube method
Temperature, K	Pressure, kPa	Mass density, kg/m3	uncertainty
295	101.325	916.7	0.4

System: 2-methylfuran; phases: Liquid, Gas
Property: Vapor or sublimation pressure, kPa (Liquid); method: Closed cell (Static) method
Temperature, K	Vapor or sublimation pressure, kPa	uncertainty
353.1	167	1
358.07	194	1
363.06	224	1
368.02	257	1
372.97	294	2
377.98	334	2
382.99	379	2
387.96	427	2
392.97	480	2
397.93	538	2
402.98	600	2
407.95	670	3
412.96	743	3
417.96	823	3
422.94	909	3
427.97	1001	4
432.93	1099	4
437.97	1206	4
442.93	1319	5
447.95	1442	5
452.97	1571	6
457.97	1710	6
462.96	1856	7
467.96	2013	7
472.97	2179	8
482.96	2541	9
492.93	2947	10
502.93	3403	12
507.92	3651	13

System: 2-methyltetrahydrofuran; phases: Liquid
Property: Mass density, kg/m3 (Liquid); method: Vibrating tube method
Temperature, K	Pressure, kPa	Mass density, kg/m3	uncertainty
295	101.325	851.6	0.2

System: 2-methyltetrahydrofuran; phases: Liquid, Gas
Property: Vapor or sublimation pressure, kPa (Liquid); method: Closed cell (Static) method
Temperature, K	Vapor or sublimation pressure, kPa	uncertainty
368.95	163	1
372.89	181	1
377.88	207	1
382.89	237	1
387.86	268	1
392.93	304	1
398.03	344	1
403.02	386	1
408.05	432	1
413.07	483	1
418.08	538	1
423.11	597	2
428.18	661	2
433.16	730	2
438.19	804	2
443.19	883	2
448.17	968	2
453.22	1060	2
458.19	1157	2
463.25	1262	3
468.25	1372	3
473.2	1489	3
483.25	1746	3
493.28	2035	4
503.24	2358	4
508.21	2532	5

System: dibutyl ether; phases: Liquid
Property: Mass density, kg/m3 (Liquid); method: Vibrating tube method
Temperature, K	Pressure, kPa	Mass density, kg/m3	uncertainty
298	101.325	763.8	0.2

System: dibutyl ether; phases: Liquid, Gas
Property: Vapor or sublimation pressure, kPa (Liquid); method: Closed cell (Static) method
Temperature, K	Vapor or sublimation pressure, kPa	uncertainty
430.15	159	1
435.15	178	1
440.15	200	1
445.15	224	1
450.15	251	1
453.15	267	1
458.15	297	1
463.15	329	1
468.15	363	1
473.15	401	1
483.15	486	1
493.15	584	1
503.15	696	2
508.15	758	2

System: 2,2,4-trimethylpentane; phases: Liquid
Property: Mass density, kg/m3 (Liquid); method: Vibrating tube method
Temperature, K	Pressure, kPa	Mass density, kg/m3	uncertainty
295	101.325	690.4	0.2

System: 2,2,4-trimethylpentane; phases: Liquid, Gas
Property: Vapor or sublimation pressure, kPa (Liquid); method: Closed cell (Static) method
Temperature, K	Vapor or sublimation pressure, kPa	uncertainty
388.02	163	1
392.98	184	1
398.09	208	1
403.09	233	1
408.08	262	1
413.12	293	1
418.11	326	1
423.15	362	1
428.13	401	1
433.09	442	1
438.15	488	1
443.1	536	1
448.13	589	1
453.09	644	1
458.11	704	2
463.05	769	2
468.08	837	2
473.08	911	2
483.1	1072	2
493.14	1255	2
503.18	1459	2
508.17	1571	3

System: 2-methylfuran + 2,2,4-trimethylpentane; phases: Gas, Liquid
Property: Vapor or sublimation pressure, kPa (Gas); method: Closed cell (Static) method
Mole fraction of 2-methylfuran	Temperature, K	Vapor or sublimation pressure, kPa	uncertainty
0	388.02	163	1
0	392.98	184	1
0	398.09	208	1
0	403.09	233	1
0	408.08	262	1
0	413.12	293	2
0	418.11	326	2
0	423.15	362	2
0	428.13	401	2
0	433.09	442	2
0	438.15	488	2
0	443.1	536	2
0	448.13	589	2
0	453.09	644	2
0	458.11	704	3
0	463.05	769	3
0	468.08	837	3
0	473.08	911	3
0	483.1	1072	4
0	493.14	1255	4
0	503.18	1459	5
0	508.17	1571	6
0.1	377.93	160	1
0.1	382.95	180	1
0.1	387.96	203	2
0.1	393.02	228	2
0.1	398.07	256	2
0.1	403.11	286	2
0.1	408.06	318	2
0.1	413.13	353	2
0.1	418.11	391	2
0.1	423.11	432	292
0.1	428.15	477	2
0.1	433.12	526	3
0.1	438.15	578	3
0.1	443.12	633	3
0.1	448.15	692	3
0.1	453.18	755	4
0.1	458.13	823	4
0.1	463.17	895	4
0.1	468.14	971	4
0.1	473.13	1053	5
0.1	483.1	1230	5
0.1	493.1	1430	6
0.1	503.1	1653	7
0.1	508.1	1775	8
0.2	373.02	170	1
0.2	378.08	192	1
0.2	383.08	216	1
0.2	388.11	242	2
0.2	393.11	271	2
0.2	398.21	303	2
0.2	403.17	337	2
0.2	408.13	374	2
0.2	413.15	413	2
0.2	418.16	457	2
0.2	423.15	503	2
0.2	428.14	553	3
0.2	433.15	607	3
0.2	438.18	665	3
0.2	443.19	728	3
0.2	448.17	793	3
0.2	453.22	864	4
0.2	458.21	939	4
0.2	463.22	1019	4
0.2	468.22	1104	5
0.2	473.24	1194	5
0.2	483.22	1390	6
0.2	493.25	1609	7
0.2	503.23	1853	8
0.2	508.21	1985	8
0.3	367.99	161	1
0.3	372.95	183	1
0.3	377.97	208	1
0.3	383	235	1
0.3	388.01	265	2
0.3	393.05	297	2
0.3	398.06	332	2
0.3	403.14	371	2
0.3	408.13	412	2
0.3	413.15	456	2
0.3	418.15	504	2
0.3	423.12	556	2
0.3	428.13	611	3
0.3	433.13	671	3
0.3	438.13	736	3
0.3	443.13	804	3
0.3	448.11	877	4
0.3	453.08	954	4
0.3	458.11	1037	4
0.3	463.1	1124	5
0.3	468.12	1218	5
0.3	473.1	1317	5
0.3	483.11	1532	6
0.3	493.08	1771	7
0.3	503.06	2038	8
0.3	508.06	2182	9
0.404	362.98	158	1
0.404	368.06	180	1
0.404	373.09	204	1
0.404	377.97	230	1
0.404	383.05	260	2
0.404	388.06	293	2
0.404	392.98	329	2
0.404	398.09	367	2
0.404	403.17	411	2
0.404	408.18	456	2
0.404	413.18	506	2
0.404	418.17	558	2
0.404	423.16	615	3
0.404	428.17	677	3
0.404	433.17	742	3
0.404	438.18	813	3
0.404	443.16	888	4
0.404	448.22	969	4
0.404	453.22	1055	4
0.404	458.21	1146	5
0.404	463.22	1242	5
0.404	468.2	1343	5
0.404	473.18	1451	6
0.404	483.19	1688	7
0.404	493.22	1950	8
0.404	503.2	2240	9
0.404	508.21	2397	10
0.5	358.12	153	1
0.5	363.12	175	1
0.5	368.09	200	1
0.5	373.07	227	1
0.5	378.1	257	1
0.5	383.1	289	2
0.5	388.1	325	2
0.5	393.11	364	2
0.5	398.14	407	2
0.5	403.19	455	2
0.5	408.21	505	2
0.5	413.21	559	2
0.5	418.21	617	3
0.5	423.17	679	3
0.5	428.2	747	3
0.5	433.19	818	3
0.5	438.21	895	4
0.5	443.1	976	4
0.5	448.16	1064	4
0.5	453.15	1157	5
0.5	458.16	1256	5
0.5	463.15	1362	5
0.5	468.17	1473	6
0.5	473.17	1591	6
0.5	483.18	1846	7
0.5	493.18	2132	8
0.5	503.13	2447	10
0.5	508.17	2618	10
0.6	357.99	159	1
0.6	363.02	183	1
0.6	367.99	209	1
0.6	372.98	238	1
0.6	378.07	271	1
0.6	383.09	306	2
0.6	388.13	345	2
0.6	393.11	387	2
0.6	398.18	433	2
0.6	403.24	484	2
0.6	408.25	537	2
0.6	413.22	595	2
0.6	418.27	658	3
0.6	423.2	724	3
0.6	428.25	798	3
0.6	433.22	875	3
0.6	438.23	958	4
0.6	443.23	1046	4
0.6	448.27	1141	4
0.6	453.25	1241	5
0.6	458.22	1347	5
0.6	463.23	1460	6
0.6	468.27	1582	6
0.6	473.28	1709	7
0.6	483.26	1984	8
0.6	493.29	2293	9
0.6	503.33	2635	10
0.6	508.32	2820	11
0.7	357.85	169	1
0.7	362.84	194	1
0.7	367.82	223	1
0.7	372.83	254	1
0.7	377.8	287	2
0.7	382.81	325	2
0.7	387.83	366	2
0.7	392.85	411	2
0.7	397.96	460	2
0.7	402.98	514	2
0.7	407.99	572	2
0.7	413	633	3
0.7	418	701	3
0.7	422.99	773	3
0.7	427.9	848	3
0.7	432.9	932	4
0.7	437.94	1021	4
0.7	442.95	1116	4
0.7	447.96	1217	5
0.7	452.98	1325	5
0.7	458	1440	6
0.7	463	1561	6
0.7	468.01	1691	6
0.7	473.02	1828	7
0.7	483	2125	8
0.7	493.01	2456	9
0.7	502.99	2825	11
0.7	508.03	3027	12
0.8	352.93	155	1
0.8	357.86	179	1
0.8	362.79	205	1
0.8	367.78	235	1
0.8	372.86	268	1
0.8	377.92	305	2
0.8	382.92	346	2
0.8	387.95	390	2
0.8	392.93	437	2
0.8	398.02	490	2
0.8	403.04	547	2
0.8	408.06	609	2
0.8	413.07	675	3
0.8	418.09	748	3
0.8	423.12	825	3
0.8	428.07	907	3
0.8	433.08	995	4
0.8	438.1	1091	4
0.8	443.07	1192	5
0.8	448.03	1301	5
0.8	453.03	1416	5
0.8	458.04	1539	6
0.8	463.03	1669	6
0.8	468.05	1808	7
0.8	473.02	1954	7
0.8	483.07	2276	9
0.8	493.08	2634	10
0.8	503.13	3034	12
0.8	508.12	3251	12
0.9	353.05	164	1
0.9	358.02	190	1
0.9	363.04	219	1
0.9	368.03	251	1
0.9	373.09	286	2
0.9	378.07	325	2
0.9	383.1	367	2
0.9	388.07	413	2
0.9	393.1	465	2
0.9	398.09	520	2
0.9	403.13	580	2
0.9	408.15	646	3
0.9	413.14	716	3
0.9	418.14	792	3
0.9	423.16	875	3
0.9	428.16	963	4
0.9	433.19	1058	4
0.9	438.18	1160	4
0.9	443.2	1268	5
0.9	448.19	1383	5
0.9	453.18	1506	6
0.9	458.21	1639	6
0.9	463.13	1776	7
0.9	468.18	1927	7
0.9	473.17	2083	8
0.9	483.15	2426	9
0.9	493.14	2811	10
0.9	503.17	3240	12
0.9	508.17	3473	13
1	353.1	167	1
1	358.07	194	1
1	363.06	224	1
1	368.02	257	1
1	372.97	294	2
1	377.98	334	2
1	382.99	379	2
1	387.96	427	2
1	392.97	480	2
1	397.93	538	2
1	402.98	600	2
1	407.95	670	3
1	412.96	743	3
1	417.96	823	3
1	422.94	909	3
1	427.97	1001	4
1	432.93	1099	4
1	437.97	1206	4
1	442.93	1319	5
1	447.95	1442	5
1	452.97	1571	6
1	457.97	1710	6
1	462.96	1856	7
1	467.96	2013	7
1	472.97	2179	8
1	482.96	2541	9
1	492.93	2947	10
1	502.93	3403	12
1	507.92	3651	13

System: 2-methyltetrahydrofuran + dibutyl ether; phases: Gas, Liquid
Property: Vapor or sublimation pressure, kPa (Gas); method: Closed cell (Static) method
Mole fraction of 2-methyltetrahydrofuran	Temperature, K	Vapor or sublimation pressure, kPa	uncertainty
0	430.15	159	1
0	435.15	178	1
0	440.15	200	1
0	445.15	224	1
0	450.15	251	1
0	453.15	267	1
0	458.15	297	2
0	463.15	329	2
0	468.15	363	2
0	473.15	401	2
0	483.15	486	2
0	493.15	584	2
0	503.15	696	3
0	508.15	758	3
0.1	418.13	159	1
0.1	423.14	179	2
0.1	428.12	201	2
0.1	433.11	224	2
0.1	438.15	250	2
0.1	443.12	277	2
0.1	448.12	308	2
0.1	453.14	340	2
0.1	458.12	375	2
0.1	463.14	413	2
0.1	468.15	454	3
0.1	473.11	498	3
0.1	483.15	597	3
0.1	493.17	709	4
0.1	503.15	836	4
0.1	508.13	906	4
0.2	413.1	176	1
0.2	418.11	197	2
0.2	423.13	221	2
0.2	428.11	246	2
0.2	433.1	275	2
0.2	438.06	304	2
0.2	443.02	337	2
0.2	448.04	372	2
0.2	453.04	410	2
0.2	457.94	449	2
0.2	462.94	493	3
0.2	467.95	540	3
0.2	473	590	3
0.2	483.02	701	3
0.2	493.01	828	4
0.2	503.01	970	4
0.2	508.02	1048	5
0.3	403	167	1
0.3	408.04	188	1
0.3	413.07	211	2
0.3	418.03	236	2
0.3	423.03	263	2
0.3	428.09	293	2
0.3	433.06	325	2
0.3	438.06	360	2
0.3	443.05	397	2
0.3	448.05	438	2
0.3	453.04	481	2
0.3	458.05	527	3
0.3	463.05	577	3
0.3	468.07	630	3
0.3	473.04	687	3
0.3	483.04	811	4
0.3	493.03	952	4
0.3	503.01	1111	5
0.3	508.03	1198	5
0.4	393.05	154	1
0.4	398.15	174	1
0.4	403.16	197	1
0.4	408.19	222	2
0.4	413.16	248	2
0.4	418.2	277	2
0.4	423.18	308	2
0.4	428.18	343	2
0.4	433.17	380	2
0.4	438.15	419	2
0.4	443.18	462	2
0.4	448.18	508	2
0.4	453.17	557	3
0.4	458.17	610	3
0.4	463.19	666	3
0.4	468.18	727	3
0.4	473.2	790	4
0.4	483.15	931	4
0.4	493.21	1089	5
0.4	503.2	1266	5
0.4	508.24	1363	6
0.5	392.98	177	1
0.5	398.06	200	1
0.5	403.09	225	1
0.5	408.08	254	2
0.5	413.09	284	2
0.5	418.1	316	2
0.5	423.15	352	2
0.5	428.1	390	2
0.5	433.1	431	2
0.5	438.09	475	2
0.5	443.07	522	2
0.5	448.06	574	3
0.5	453.05	628	3
0.5	458.03	687	3
0.5	463.01	748	3
0.5	467.97	815	4
0.5	473.01	887	4
0.5	482.96	1041	4
0.5	492.96	1216	5
0.5	502.94	1410	6
0.5	507.98	1516	6
0.6	383.14	158	1
0.6	388.13	179	1
0.6	393.15	203	1
0.6	398.23	229	1
0.6	403.25	257	2
0.6	408.25	288	2
0.6	413.26	322	2
0.6	418.27	359	2
0.6	423.27	398	2
0.6	428.27	442	2
0.6	433.28	489	2
0.6	438.29	539	2
0.6	443.25	591	3
0.6	448.27	649	3
0.6	453.27	710	3
0.6	458.27	776	3
0.6	463.29	846	4
0.6	468.3	920	4
0.6	473.27	999	4
0.6	483.28	1171	5
0.6	493.3	1366	6
0.6	503.28	1582	7
0.6	508.27	1698	7
0.702	382.97	176	1
0.702	387.97	200	1
0.702	392.99	226	1
0.702	398.02	255	2
0.702	403.05	287	2
0.702	408.06	321	2
0.702	413.06	359	2
0.702	418.05	399	2
0.702	423.08	444	2
0.702	428.08	492	2
0.702	433.07	543	2
0.702	438	597	3
0.702	443.04	657	3
0.702	448.05	720	3
0.702	453.07	788	3
0.702	458.06	860	4
0.702	463.06	937	4
0.702	468.08	1019	4
0.702	473.04	1108	5
0.702	483.05	1299	5
0.702	493.05	1511	6
0.702	503.04	1749	7
0.702	508.06	1878	8
0.8	378.02	173	1
0.8	383.01	197	1
0.8	388.04	224	1
0.8	393	254	2
0.8	398.01	286	2
0.8	403.12	322	2
0.8	408.15	361	2
0.8	413.11	404	2
0.8	418.09	449	2
0.8	423.15	499	2
0.8	428.12	551	2
0.8	433.13	609	3
0.8	438.13	670	3
0.8	443.11	736	3
0.8	448.1	806	3
0.8	453.11	882	4
0.8	458.13	962	4
0.8	463.16	1050	4
0.8	468.16	1141	5
0.8	473.14	1238	5
0.8	483.16	1450	6
0.8	493.13	1688	7
0.8	503.16	1952	8
0.8	508.14	2096	9
0.9	373.1	166	1
0.9	378.09	190	1
0.9	383.12	216	1
0.9	388.13	246	1
0.9	393.13	278	2
0.9	398.19	314	2
0.9	403.23	353	2
0.9	408.25	395	2
0.9	413.24	441	2
0.9	418.27	491	2
0.9	423.26	544	2
0.9	428.24	602	3
0.9	433.25	664	3
0.9	438.25	731	3
0.9	443.25	804	3
0.9	448.24	881	4
0.9	453.26	964	4
0.9	458.28	1052	4
0.9	463.28	1146	5
0.9	468.28	1245	5
0.9	473.28	1351	5
0.9	483.31	1583	6
0.9	493.31	1844	7
0.9	503.3	2133	9
0.9	508.28	2290	9
1	368.95	163	1
1	372.89	181	1
1	377.88	207	1
1	382.89	237	1
1	387.86	268	1
1	392.93	304	2
1	398.03	344	2
1	403.02	386	2
1	408.05	432	2
1	413.07	483	2
1	418.08	538	2
1	423.11	597	2
1	428.18	661	2
1	433.16	730	3
1	438.19	804	3
1	443.19	883	3
1	448.17	968	3
1	453.22	1060	4
1	458.19	1157	4
1	463.25	1262	5
1	468.25	1372	5
1	473.2	1489	5
1	483.25	1746	6
1	493.28	2035	7
1	503.24	2358	8
1	508.21	2532	9
