Measured thermophysical data. Vapor liquid equilibrium for binary system of tetrahydrothiophene + 2,2,4-trimethylpentane and tetrahydrothiophene + 2,4,4-trimethyl-1-pentene at 358.15 and 368.15 K
Source: Fluid Phase Equilib., 2010, 10.1016/j.fluid.2010.03.022
Compound 1: tetrahydrothiophene, C4H8S, InChI=1S/C4H8S/c1-2-4-5-3-1/h1-4H2
Compound 2: 2,2,4-trimethylpentane, C8H18, InChI=1S/C8H18/c1-7(2)6-8(3,4)5/h7H,6H2,1-5H3
Compound 3: 2,4,4-trimethyl-1-pentene, C8H16, InChI=1S/C8H16/c1-7(2)6-8(3,4)5/h1,6H2,2-5H3

System: tetrahydrothiophene + 2,2,4-trimethylpentane; phases: Gas, Liquid
Property: Vapor or sublimation pressure, kPa (Gas); method: Ebulliometric method (Recirculating still)
Temperature, K	Mole fraction of tetrahydrothiophene	Vapor or sublimation pressure, kPa	uncertainty
358.15	0	66.85	0.5
358.15	0.099	66.11	0.5
358.15	0.212	64.73	0.5
358.15	0.345	62.57	0.5
358.15	0.46	60.12	0.5
358.15	0.546	58.03	0.5
358.15	0.644	55.16	0.5
358.15	0.719	52.48	0.51
358.15	0.784	49.57	0.53
358.15	0.838	46.8	0.55
358.15	0.885	43.8	0.6
358.15	0.927	40.62	0.65
358.15	0.958	37.73	0.72
358.15	0.983	35.08	0.78
358.15	1	33.07	0.4
368.15	0	90.35	0.55
368.15	0.102	89.44	0.55
368.15	0.178	88.61	0.55
368.15	0.317	85.78	0.55
368.15	0.462	81.65	0.55
368.15	0.581	77.69	0.56
368.15	0.687	73.22	0.57
368.15	0.776	68.5	0.59
368.15	0.833	64.62	0.64
368.15	0.877	61.04	0.7
368.15	0.916	57.3	0.77
368.15	0.948	53.65	0.84
368.15	0.973	50.42	0.91
368.15	0.989	48.12	0.99
368.15	1	46.4	0.42

System: tetrahydrothiophene + 2,2,4-trimethylpentane; phases: Gas, Liquid
Property: Mole fraction of tetrahydrothiophene (Gas); method: Chromatography
Temperature, K	Mole fraction of 2,2,4-trimethylpentane	Mole fraction of tetrahydrothiophene	uncertainty
358.15	0	0	1
358.15	0.099	0.082	0.008
358.15	0.212	0.168	0.007
358.15	0.345	0.254	0.007
358.15	0.46	0.326	0.008
358.15	0.546	0.373	0.008
358.15	0.644	0.435	0.008
358.15	0.719	0.493	0.009
358.15	0.784	0.552	0.01
358.15	0.838	0.614	0.01
358.15	0.885	0.682	0.012
358.15	0.927	0.763	0.015
358.15	0.958	0.844	0.019
358.15	0.983	0.93	0.023
358.15	1	1	0.001
368.15	0	0	0.001
368.15	0.102	0.089	0.008
368.15	0.178	0.147	0.007
368.15	0.317	0.243	0.007
368.15	0.462	0.334	0.008
368.15	0.581	0.407	0.008
368.15	0.687	0.481	0.009
368.15	0.776	0.553	0.009
368.15	0.833	0.616	0.011
368.15	0.877	0.685	0.012
368.15	0.916	0.752	0.013
368.15	0.948	0.823	0.016
368.15	0.973	0.896	0.02
368.15	0.989	0.955	0.024
368.15	1	1	0.001

System: 2,4,4-trimethyl-1-pentene + tetrahydrothiophene; phases: Gas, Liquid
Property: Vapor or sublimation pressure, kPa (Gas); method: Ebulliometric method (Recirculating still)
Temperature, K	Mole fraction of tetrahydrothiophene	Vapor or sublimation pressure, kPa	uncertainty
358.15	0	62.24	0.49
358.15	0.1	61.19	0.49
358.15	0.19	60.02	0.49
358.15	0.301	58.18	0.49
358.15	0.424	55.83	0.48
358.15	0.525	53.57	0.48
358.15	0.619	51.1	0.49
358.15	0.703	48.41	0.5
358.15	0.778	45.32	0.51
358.15	0.895	40.08	0.51
358.15	0.954	36.45	0.57
358.15	1	33.1	0.4
368.15	0	84.36	0.54
368.15	0.069	83.67	0.54
368.15	0.183	81.93	0.54
368.15	0.298	79.8	0.54
368.15	0.416	77.02	0.54
368.15	0.525	73.95	0.54
368.15	0.627	70.5	0.54
368.15	0.693	67.87	0.55
368.15	0.796	62.96	0.56
368.15	0.851	59.58	0.62
368.15	0.916	54.71	0.65
368.15	0.954	51.29	0.71
368.15	0.979	48.75	0.77
368.15	1	46.4	0.42

System: 2,4,4-trimethyl-1-pentene + tetrahydrothiophene; phases: Gas, Liquid
Property: Mole fraction of tetrahydrothiophene (Gas); method: Chromatography
Temperature, K	Mole fraction of tetrahydrothiophene	Mole fraction of tetrahydrothiophene	uncertainty
358.15	0	0	0.001
358.15	0.1	0.08	0.008
358.15	0.19	0.148	0.007
358.15	0.301	0.221	0.007
358.15	0.424	0.304	0.008
358.15	0.525	0.374	0.008
358.15	0.619	0.443	0.009
358.15	0.703	0.51	0.009
358.15	0.778	0.58	0.011
358.15	0.895	0.752	0.012
358.15	0.954	0.869	0.015
358.15	1	1	0.001
368.15	0	0	0.001
368.15	0.069	0.06	0.008
368.15	0.183	0.149	0.008
368.15	0.298	0.228	0.008
368.15	0.416	0.307	0.008
368.15	0.525	0.383	0.008
368.15	0.627	0.454	0.009
368.15	0.693	0.509	0.009
368.15	0.796	0.609	0.01
368.15	0.851	0.678	0.011
368.15	0.916	0.784	0.013
368.15	0.954	0.866	0.015
368.15	0.979	0.933	0.018
368.15	1	1	0.001
