Measured thermophysical data. Solubility of CO2 in branched alkanes in order to extend the PPR78 model (predictive 1978, Peng Robinson EOS with temperature-dependent kij calculated through a group contribution method) to such systems
Source: Fluid Phase Equilib., 2005, 10.1016/j.fluid.2005.10.001
Compound 1: carbon dioxide, CO2, InChI=1S/CO2/c2-1-3, purity 99.998%
Compound 2: heptane, C7H16, InChI=1S/C7H16/c1-3-5-7-6-4-2/h3-7H2,1-2H3, purity 99%
Compound 3: 2,2,4-trimethylpentane, C8H18, InChI=1S/C8H18/c1-7(2)6-8(3,4)5/h7H,6H2,1-5H3, purity 99%
Compound 4: 2,5-dimethylhexane, C8H18, InChI=1S/C8H18/c1-7(2)5-6-8(3)4/h7-8H,5-6H2,1-4H3, purity 99%
Compound 5: 3-methylpentane, C6H14, InChI=1S/C6H14/c1-4-6(3)5-2/h6H,4-5H2,1-3H3, purity 99%

System: carbon dioxide + heptane; phases: Liquid, Gas
Property: Vapor or sublimation pressure, kPa (Liquid); method: Closed cell (Static) method
Temperature, K	Mole fraction of carbon dioxide	Vapor or sublimation pressure, kPa	uncertainty
310.65	0.263	2300	220
310.65	0.327	2850	220
310.65	0.362	3200	220
310.65	0.38	3300	220
310.65	0.452	4000	220
310.65	0.459	4000	220
310.65	0.683	5800	210
310.65	0.697	5900	210
310.65	0.78	6400	210
310.65	0.88	6900	210
310.65	0.914	7100	210
323.2	0.263	2500	220
323.2	0.327	3200	230
323.2	0.362	3650	230
323.2	0.38	3800	220
323.2	0.452	4500	220
323.2	0.459	4650	220
323.2	0.683	6800	210
323.2	0.697	6850	200
323.2	0.78	7600	220
323.2	0.88	8300	210
323.2	0.914	8600	210
333.15	0.263	2800	230
333.15	0.327	3500	230
333.15	0.362	4000	240
333.15	0.38	4100	230
333.15	0.452	5000	230
333.15	0.459	5100	230
333.15	0.683	7550	210
333.15	0.697	7600	230
333.15	0.78	8500	220
333.15	0.88	9300	220
333.15	0.914	9600	220
343.1	0.263	3100	240
343.1	0.327	3900	240
343.1	0.362	4500	240
343.1	0.38	4600	230
343.1	0.452	5500	240
343.1	0.459	5600	240
343.1	0.683	8650	230
343.1	0.697	8700	200
343.1	0.78	9700	230
343.1	0.88	10600	220
352.59	0.263	3300	240
352.59	0.327	4200	250
352.59	0.362	4900	260
352.59	0.38	5050	210
352.59	0.459	6100	240
352.59	0.542	7200	250
352.59	0.605	8200	250
352.59	0.645	8700	230
352.59	0.683	9400	260
352.59	0.707	9700	240
352.59	0.762	10400	240
352.59	0.802	10900	230
352.59	0.85	11300	220
363.15	0.263	3600	250
363.15	0.327	4500	260
363.15	0.362	5300	270
363.15	0.38	5400	240
363.15	0.452	6400	260
363.15	0.459	6500	260
363.15	0.683	10150	220
363.15	0.697	10300	260
363.15	0.78	11500	250
373.15	0.263	3800	260
373.15	0.327	4900	270
373.15	0.362	5700	270
373.15	0.38	5800	240
373.15	0.452	6800	270
373.15	0.459	6900	270
373.15	0.683	11000	320
373.15	0.697	11200	220
373.15	0.78	12300	240
383.15	0.263	4000	260
383.15	0.327	5100	280
383.15	0.362	6000	290
383.15	0.38	6100	250
383.15	0.452	7200	270
383.15	0.459	7400	270
383.15	0.683	11400	390
383.15	0.697	11900	300
383.15	0.78	12900	230
393.15	0.263	4300	260
393.15	0.327	5400	280
393.15	0.362	6200	270
393.15	0.38	6300	260
393.15	0.452	7600	270
393.15	0.459	7700	270
393.15	0.683	11900	220
393.15	0.697	12000	250
393.15	0.78	13300	210
394.13	0.183	3000	260
394.13	0.263	4300	260
394.13	0.327	5400	280
394.13	0.362	6300	280
394.13	0.38	6400	210
394.13	0.459	7900	270
394.13	0.51	8700	270
394.13	0.612	10700	280
394.13	0.683	12150	280
394.13	0.702	12300	250
394.13	0.756	13100	240
403.15	0.263	4500	270
403.15	0.327	5600	270
403.15	0.362	6400	270
403.15	0.38	6500	290
403.15	0.447	8000	200
403.15	0.459	8100	200
403.15	0.683	12200	230
403.15	0.697	12400	250
403.15	0.78	13400	240
413.15	0.263	4600	250
413.15	0.327	5600	260
413.15	0.38	6600	280
413.15	0.459	8100	280
413.15	0.683	12400	280

System: carbon dioxide + 2,2,4-trimethylpentane; phases: Liquid, Gas
Property: Vapor or sublimation pressure, kPa (Liquid); method: Closed cell (Static) method
Temperature, K	Mole fraction of carbon dioxide	Vapor or sublimation pressure, kPa	uncertainty
278.15	0.233	1200	210
278.15	0.285	1500	210
278.15	0.394	2050	210
278.15	0.486	2500	210
278.15	0.519	2600	200
278.15	0.658	3200	200
278.15	0.752	3400	200
283.15	0.233	1350	210
283.15	0.285	1650	210
283.15	0.394	2250	210
283.15	0.486	2700	210
283.15	0.519	2850	200
283.15	0.658	3400	200
283.15	0.752	3700	200
288.15	0.285	1750	210
288.15	0.394	2450	210
288.15	0.486	2850	210
288.15	0.519	3050	210
288.15	0.658	3700	210
288.15	0.752	4100	200
293.15	0.233	1500	210
293.15	0.285	1900	210
293.15	0.394	2600	210
293.15	0.486	3100	210
293.15	0.519	3300	210
293.15	0.658	4000	210
293.15	0.752	4400	210
298.15	0.285	2050	210
298.15	0.394	2800	210
298.15	0.486	3350	210
298.15	0.519	3550	210
298.15	0.658	4350	210
298.15	0.752	4850	210
303.15	0.285	2150	210
303.15	0.394	3000	210
303.15	0.486	3600	210
303.15	0.519	3900	210
303.15	0.658	4750	210
303.15	0.752	5300	210
308.15	0.285	2300	210
308.15	0.394	3100	210
308.15	0.486	3850	220
308.15	0.519	4100	220
308.15	0.658	5150	210
308.15	0.752	5750	210
313.15	0.285	2400	220
313.15	0.394	3400	220
313.15	0.486	4100	220
313.15	0.519	4450	220
313.15	0.658	5500	220
313.15	0.752	6250	220
318.15	0.285	2500	220
318.15	0.394	3600	220
318.15	0.486	4350	220
318.15	0.519	4700	230
318.15	0.658	5900	220
318.15	0.752	6700	220
323.15	0.285	2600	230
323.15	0.394	3800	230
323.15	0.486	4650	220
323.15	0.519	5000	220
323.15	0.658	6300	220
323.15	0.752	7200	220
328.15	0.285	2800	220
328.15	0.394	3900	230
328.15	0.486	4900	230
328.15	0.519	5150	220
328.15	0.658	6700	230
328.15	0.752	7600	230
333.15	0.285	3000	230
333.15	0.394	4150	230
333.15	0.486	5200	230
333.15	0.519	5500	220
333.15	0.658	7100	230
333.15	0.752	8100	230
338.15	0.285	3100	230
338.15	0.394	4300	230
338.15	0.486	5450	240
338.15	0.519	5800	230
338.15	0.658	7500	230
338.15	0.752	8600	230
343.15	0.285	3300	230
343.15	0.394	4500	230
343.15	0.486	5700	240
343.15	0.519	6050	230
343.15	0.658	7850	240
346.35	0.285	3350	230
346.35	0.394	4600	240
346.35	0.486	5850	240
346.35	0.519	6250	230
346.35	0.658	8200	240
348.15	0.285	3400	230
348.15	0.394	4700	240
348.15	0.486	5950	240
348.15	0.519	6300	230
348.15	0.658	8300	250
353.15	0.285	3500	240
353.15	0.394	4900	240
353.15	0.486	6250	250
353.15	0.519	6700	230
353.15	0.658	8650	250
358.15	0.285	3600	240
358.15	0.394	5100	250
358.15	0.486	6500	250
358.15	0.519	6850	230
358.15	0.658	9000	260
363.15	0.285	3700	250
363.15	0.394	5250	250
363.15	0.486	6800	250
363.15	0.519	7100	220
363.15	0.658	9400	260
368.15	0.285	3800	250
368.15	0.394	5400	250
368.15	0.486	6950	260
368.15	0.519	7350	240
368.15	0.658	9700	260
373.15	0.285	3950	250
373.15	0.394	5550	260
373.15	0.486	7200	260
373.15	0.519	7600	230
373.15	0.658	10050	270
378.15	0.285	4050	250
378.15	0.394	5750	260
378.15	0.486	7450	270
378.15	0.519	7800	230
378.15	0.658	10400	270
383.15	0.285	4150	260
383.15	0.394	5900	270
383.15	0.486	7750	270
383.15	0.519	8050	220
383.15	0.658	10600	270
388.15	0.285	4300	260
388.15	0.394	6100	270
388.15	0.486	7800	270
388.15	0.519	8250	240
388.15	0.658	10900	280
393.15	0.285	4400	260
393.15	0.394	6250	270
393.15	0.486	8100	270
393.15	0.519	8400	220
393.15	0.658	11100	280

System: carbon dioxide + 2,5-dimethylhexane; phases: Liquid, Gas
Property: Vapor or sublimation pressure, kPa (Liquid); method: Closed cell (Static) method
Temperature, K	Mole fraction of carbon dioxide	Vapor or sublimation pressure, kPa	uncertainty
278.15	0.51	2550	200
278.15	0.594	2900	200
278.15	0.655	3150	200
278.15	0.804	3500	200
278.15	0.888	3650	200
283.15	0.51	2700	210
283.15	0.594	3100	210
283.15	0.655	3400	200
283.15	0.804	3900	200
283.15	0.888	4100	200
288.15	0.51	2950	210
288.15	0.594	3400	210
288.15	0.655	3700	200
288.15	0.804	4250	200
288.15	0.888	4500	200
293.15	0.51	3200	210
293.15	0.594	3650	210
293.15	0.655	4000	210
293.15	0.804	4700	210
293.15	0.888	4950	200
298.15	0.51	3400	210
298.15	0.594	3900	210
298.15	0.655	4300	210
298.15	0.804	5100	210
298.15	0.888	5500	210
303.15	0.51	3600	210
303.15	0.594	4200	210
303.15	0.655	4600	210
303.15	0.804	5600	210
303.15	0.888	6000	210
308.15	0.51	3800	220
308.15	0.594	4500	220
308.15	0.655	5000	210
308.15	0.804	6000	210
308.15	0.888	6500	210
313.15	0.51	4050	220
313.15	0.594	4800	220
313.15	0.655	5300	220
313.15	0.804	6550	220
313.15	0.888	7100	210
318.15	0.51	4250	220
318.15	0.594	5100	220
318.15	0.655	5700	220
318.15	0.804	7050	220
318.15	0.888	7600	210
323.15	0.51	4450	230
323.15	0.594	5400	230
323.15	0.655	6000	220
323.15	0.804	7500	220
323.15	0.888	8200	220
328.15	0.51	4700	230
328.15	0.594	5700	230
328.15	0.655	6300	230
328.15	0.804	8000	230
328.15	0.888	8750	220
333.15	0.51	4900	240
333.15	0.594	6000	240
333.15	0.655	6700	230
333.15	0.804	8500	230
333.15	0.888	9350	230
338.15	0.51	5200	240
338.15	0.594	6300	240
338.15	0.655	7100	240
338.15	0.804	9000	240
338.15	0.888	9850	230
343.15	0.51	5500	240
343.15	0.594	6600	240
343.15	0.655	7500	240
343.15	0.804	9500	240
343.15	0.888	10350	230
348.15	0.51	5700	240
348.15	0.594	6900	250
348.15	0.655	7850	250
348.15	0.804	9950	240
353.15	0.51	6000	250
353.15	0.594	7200	250
353.15	0.655	8200	250
353.15	0.804	10350	250
358.15	0.51	6200	250
358.15	0.594	7500	260
358.15	0.655	8500	260
358.15	0.804	10800	250
363.15	0.51	6400	260
363.15	0.594	7800	260
363.15	0.655	8850	260
363.15	0.804	11200	260
368.15	0.51	6600	260
368.15	0.594	8000	270
368.15	0.655	9200	260
368.15	0.804	11600	260
373.15	0.51	6800	270
373.15	0.594	8300	270
373.15	0.655	9500	260
373.15	0.804	11900	260
378.15	0.51	7000	280
378.15	0.594	8600	280
378.15	0.655	9800	260
378.15	0.804	12200	260
383.15	0.51	7100	280
383.15	0.594	8800	290
383.15	0.655	10100	270
383.15	0.804	12500	260
388.15	0.51	7300	290
388.15	0.594	9000	290
388.15	0.655	10350	270
393.15	0.51	7500	290
393.15	0.594	9300	290
393.15	0.655	10600	290
398.15	0.51	7700	300
398.15	0.594	9500	290
398.15	0.655	10800	290
403.15	0.51	7850	300
403.15	0.594	9700	300
408.15	0.51	8050	300
408.15	0.594	9900	300
413.15	0.51	8150	300
413.15	0.594	10000	300

System: 3-methylpentane + carbon dioxide; phases: Liquid, Gas
Property: Vapor or sublimation pressure, kPa (Liquid); method: Closed cell (Static) method
Temperature, K	Mole fraction of carbon dioxide	Vapor or sublimation pressure, kPa	uncertainty
293.15	0.48	2800	210
293.15	0.574	3300	210
293.15	0.682	3900	210
293.15	0.766	4300	210
293.15	0.818	4500	200
303.15	0.48	3300	210
303.15	0.574	3900	210
303.15	0.682	4600	210
303.15	0.766	5100	210
303.15	0.818	5400	210
313.15	0.48	3800	210
313.15	0.574	4500	210
313.15	0.682	5300	220
313.15	0.766	6000	220
313.15	0.818	6400	220
323.15	0.48	4300	220
323.15	0.574	5200	220
323.15	0.682	6100	220
323.15	0.766	6900	220
323.15	0.818	7400	220
333.15	0.48	4900	230
333.15	0.574	5900	230
333.15	0.682	7000	220
333.15	0.766	7800	230
333.15	0.818	8400	230
343.15	0.48	5400	240
343.15	0.574	6600	230
343.15	0.682	7700	230
343.15	0.766	8700	230
343.15	0.818	9300	230
353.15	0.48	5900	240
353.15	0.574	7200	240
353.15	0.682	8500	230
353.15	0.766	9500	230
353.15	0.818	10000	220
363.15	0.48	6400	250
363.15	0.574	7800	240
363.15	0.682	9200	240
363.15	0.766	10200	230
363.15	0.818	10700	210
373.15	0.48	6800	250
373.15	0.574	8300	250
373.15	0.682	9800	240
373.15	0.766	10800	220
373.15	0.818	11000	210
383.15	0.48	7300	260
383.15	0.574	8800	250
383.15	0.682	10300	240
383.15	0.766	11100	220
