Measured thermophysical data. Experimental study of the solubilities of salts in the systems Na2B4O7 - NaBr - H2O and Na2B4O7 - Na2SO4 - NaBr - H2O at 323 K
Source: Fluid Phase Equilib., 2014, 10.1016/j.fluid.2013.10.047
Compound 1: sodium bromide, BrNa, InChI=1S/BrH.Na/h1H;/q;+1/p-1, purity 98%
Compound 2: sodium tetraborate, B4Na2O7, InChI=1S/B4O7.2Na/c5-1-9-3(7)11-4(8)10-2-6;;/q-2;2*+1, purity 98%
Compound 3: water, H2O, InChI=1S/H2O/h1H2, purity 99.8%

System: sodium tetraborate + sodium bromide + water; phases: Liquid, Crystal
Fixed: Temperature, K = 323
Fixed: Pressure, kPa = 101
Property: Mole fraction of sodium tetraborate (Liquid); method: Titration method
Mole fraction of sodium bromide	Mole fraction of sodium tetraborate	uncertainty
0	0.0944	0.0006
0.0858	0.0584	0.0004
0.162	0.0365	0.0003
0.2497	0.032	0.0002
0.3521	0.0201	0.0003
0.3899	0.0161	0.0002
0.4569	0.0152	0.0001
0.5012	0.0137	0.0002
0.5122	0.0131	0.0002

System: sodium tetraborate + sodium bromide + water; phases: Liquid, Crystal, Crystal
Property: Mole fraction of sodium tetraborate (Liquid); method: Titration method
Mole fraction of sodium bromide	Temperature, K	Mole fraction of sodium tetraborate	uncertainty
0.5287	323	0.0126	0.0001

System: sodium tetraborate + sodium bromide + water; phases: Liquid, Crystal
Fixed: Temperature, K = 323
Fixed: Pressure, kPa = 101
Property: Mole fraction of sodium tetraborate (Liquid); method: Titration method
Mole fraction of sodium bromide	Mole fraction of sodium tetraborate	uncertainty
0.5309	0.0124	0.0005
0.533	0.0121	0.0016
0.5367	0.0096	0.0066
0.538	0	
