Measured thermophysical data. Solid-liquid equilibria measurements of the carbondioxide + 2,3,3,3-tetrafluoroprop-1-ene and carbondioxide + trans-1,3,3,3-tetrafluoropropene mixtures
Source: Fluid Phase Equilib., 2013, 10.1016/j.fluid.2013.06.019
Compound 1: carbon dioxide, CO2, InChI=1S/CO2/c2-1-3, purity 99.99%
Compound 2: 2,3,3,3-tetrafluoro-1-propene, C3H2F4, InChI=1S/C3H2F4/c1-2(4)3(5,6)7/h1H2, purity 99.87%
Compound 3: trans-1,3,3,3-tetrafluoropropene, C3H2F4, InChI=1S/C3H2F4/c4-2-1-3(5,6)7/h1-2H/b2-1+, purity 99.5%

System: carbon dioxide; phases: Crystal, Liquid, Gas
Property: Triple point temperature, K (Crystal); method: Heating/Cooling curves
Triple point temperature, K	uncertainty
216.6	2

System: 2,3,3,3-tetrafluoro-1-propene; phases: Crystal, Liquid, Gas
Property: Triple point temperature, K (Crystal); method: Heating/Cooling curves
Triple point temperature, K	uncertainty
122.6	2

System: trans-1,3,3,3-tetrafluoropropene; phases: Crystal, Liquid, Gas
Property: Triple point temperature, K (Crystal); method: Heating/Cooling curves
Triple point temperature, K	uncertainty
168.8	2

System: carbon dioxide + 2,3,3,3-tetrafluoro-1-propene; phases: Liquid, Crystal
Fixed: Pressure, kPa = 101
Property: Solid-liquid equilibrium temperature, K (Liquid); method: Large-sample thermal analysis
Mole fraction of carbon dioxide	Solid-liquid equilibrium temperature, K	uncertainty
0.035	128.26	2.21
0.039	130.8	2.7
0.048	126.14	2.59
0.128	145.9	2.65
0.137	147.4	2.66
0.137	149.09	2.66
0.217	155.42	3.45
0.234	160.19	3.45
0.234	158.54	2.72
0.341	172.55	2.35
0.384	178.65	2.46
0.619	201.31	2.16
0.619	199.94	2.16
0.619	200.12	2.16
0.77	208.16	2.06
0.77	209.82	2.06
0.876	213.13	2.05
0.995	216.64	2.02
0.995	217.07	2.02
1	216.6	2.01

System: carbon dioxide + trans-1,3,3,3-tetrafluoropropene; phases: Liquid, Crystal
Fixed: Pressure, kPa = 101
Property: Solid-liquid equilibrium temperature, K (Liquid); method: Large-sample thermal analysis
Mole fraction of carbon dioxide	Solid-liquid equilibrium temperature, K	uncertainty
0.314	163.65	2.04
0.35	166.14	2.05
0.419	167.77	2.15
0.424	169.75	2.15
0.478	175.96	2.3
0.576	186.77	2.13
0.64	186.78	4.18
0.651	190.81	2.48
0.653	189.74	2.54
0.653	190.08	2.53
0.677	192.71	2.36
0.713	197.2	2.35
0.73	199.18	2.34
0.776	204.72	2.21
0.776	204.5	2.21
0.831	208.53	2.08
0.927	213.12	2.07
0.927	212.81	2.07
1	216.6	2.01

System: carbon dioxide + trans-1,3,3,3-tetrafluoropropene; phases: Liquid, Crystal
Fixed: Pressure, kPa = 101
Property: Solid-liquid equilibrium temperature, K (Liquid); method: Large-sample thermal analysis
Mole fraction of carbon dioxide	Solid-liquid equilibrium temperature, K	uncertainty
0	168.8	2.01
0.031	167.79	2.02
0.031	167.99	2.02
0.056	167.87	2.01
0.056	166.96	2.01
0.059	168.68	2.01
0.059	167.48	2.01
0.072	168	2.03
0.073	167.39	2.03
0.073	166.68	2.03
0.073	166.71	2.03
0.083	168.12	2.02
0.083	166.94	2.01
0.088	167.13	2.02
0.092	168.98	2.01
0.105	166.98	2.12
0.105	168	2.13
0.114	168.49	2.12
0.114	167.93	2.13
0.127	166.48	2.15
0.142	166.31	2.01
0.16	166.55	2.01
0.16	166.4	2.01
0.179	166.69	2.01
0.206	166.87	2.02
0.214	165.98	2.02
0.241	165.84	2.04
0.276	163.8	2.03
0.314	163.65	2.04
