Measured thermophysical data. Liquid liquid equilibria of the systems isobutyl acetate + isobutyl alcohol +water and isobutyl acetate + isobutyl alcohol + glycerol at different temperatures
Source: Fluid Phase Equilib., 2008, 10.1016/j.fluid.2008.01.010
Compound 1: 2-methylpropyl ethanoate, C6H12O2, InChI=1S/C6H12O2/c1-5(2)4-8-6(3)7/h5H,4H2,1-3H3
Compound 2: 2-methyl-1-propanol, C4H10O, InChI=1S/C4H10O/c1-4(2)3-5/h4-5H,3H2,1-2H3
Compound 3: glycerol, C3H8O3, InChI=1S/C3H8O3/c4-1-3(6)2-5/h3-6H,1-2H2
Compound 4: water, H2O, InChI=1S/H2O/h1H2

System: 2-methylpropyl ethanoate; phases: Liquid
Property: Refractive index (Na D-line) (Liquid); method: Standard Abbe refractometry
Temperature, K	Pressure, kPa	Refractive index (Na D-line)	uncertainty
298.15	101.325	1.3876	0.0006

System: 2-methylpropyl ethanoate; phases: Liquid
Property: Mass density, kg/m3 (Liquid); method: VIBTUB:UFactor:4
Temperature, K	Pressure, kPa	Mass density, kg/m3	uncertainty
298.15	101.325	866.12	0.67

System: 2-methyl-1-propanol; phases: Liquid
Property: Refractive index (Na D-line) (Liquid); method: Standard Abbe refractometry
Temperature, K	Pressure, kPa	Refractive index (Na D-line)	uncertainty
298.15	101.325	1.3938	0.0005

System: 2-methyl-1-propanol; phases: Liquid
Property: Mass density, kg/m3 (Liquid); method: VIBTUB:UFactor:4
Temperature, K	Pressure, kPa	Mass density, kg/m3	uncertainty
298.15	101.325	797.83	0.48

System: glycerol; phases: Liquid
Property: Refractive index (Na D-line) (Liquid); method: Standard Abbe refractometry
Temperature, K	Pressure, kPa	Refractive index (Na D-line)	uncertainty
298.15	101.325	1.4726	0.0005

System: glycerol; phases: Liquid
Property: Mass density, kg/m3 (Liquid); method: VIBTUB:UFactor:4
Temperature, K	Pressure, kPa	Mass density, kg/m3	uncertainty
298.15	101.325	1258.5	0.6

System: 2-methyl-1-propanol + 2-methylpropyl ethanoate + water; phases: Liquid mixture 1, Liquid mixture 2
Fixed: Pressure, kPa = 101
Property: Mole fraction of 2-methyl-1-propanol (Liquid mixture 1); method: Chromatography
Property: Mole fraction of 2-methylpropyl ethanoate (Liquid mixture 2); method: Chromatography
Property: Mole fraction of 2-methyl-1-propanol (Liquid mixture 2); method: Chromatography
Temperature, K	Mole fraction of 2-methylpropyl ethanoate	Mole fraction of 2-methyl-1-propanol	uncertainty	Mole fraction of 2-methylpropyl ethanoate	uncertainty	Mole fraction of 2-methyl-1-propanol	uncertainty
283.15	0.935	0	0.001	0.001	0.001	0	
283.15	0.808	0.09	0.01	0.002	0.002	0.005	
283.15	0.72	0.149	0.01	0.002	0.002	0.008	
283.15	0.616	0.204	0.01	0.001	0.001	0.01	
283.15	0.508	0.276	0.011	0.001	0.001	0.012	
283.15	0.45	0.314	0.011	0.001	0.001	0.013	
283.15	0.397	0.342	0.011	0.003	0.003	0.015	
283.15	0.368	0.359	0.011	0.001	0.001	0.015	
283.15	0.25	0.424	0.011	0.002	0.002	0.018	
283.15	0.23	0.428	0.011	0.001	0.001	0.017	
283.15	0.204	0.442	0.011	0.001	0.001	0.018	
283.15	0.233	0.429	0.011	0.001	0.001	0.018	
283.15	0.095	0.502	0.012	0.001	0.001	0.022	
283.15	0.09	0.508	0.012	0.001	0.001	0.022	
283.15	0.091	0.511	0.011	0.002	0.002	0.022	
283.15	0.054	0.528	0.011	0	0.001	0.024	
283.15	0.037	0.535	0.011	0	0.001	0.025	
283.15	0.02	0.544	0.011	0	0.001	0.026	
283.15	0	0.557	0.01	0	0.001	0.027	
323.15	0.903	0	0.001	0.002	0.002	0	
323.15	0.768	0.098	0.01	0.003	0.003	0.003	
323.15	0.678	0.155	0.01	0.003	0.003	0.004	
323.15	0.59	0.21	0.01	0.001	0.001	0.005	
323.15	0.474	0.28	0.011	0.001	0.001	0.007	
323.15	0.434	0.319	0.011	0.001	0.001	0.008	
323.15	0.376	0.342	0.01	0.001	0.001	0.009	
323.15	0.346	0.355	0.011	0.001	0.001	0.009	
323.15	0.236	0.416	0.011	0	0.001	0.011	
323.15	0.217	0.417	0.011	0.001	0.001	0.011	
323.15	0.194	0.428	0.011	0.001	0.001	0.012	
323.15	0.308	0.382	0.011	0	0.001	0.009	
323.15	0.085	0.474	0.011	0	0.001	0.015	
323.15	0.154	0.446	0.011	0.001	0.001	0.013	
323.15	0.05	0.486	0.011	0	0.001	0.016	
323.15	0.034	0.493	0.011	0	0.001	0.017	
323.15	0	0.51	0.011	0	0.001	0.019	

System: glycerol + 2-methyl-1-propanol + 2-methylpropyl ethanoate; phases: Liquid mixture 1, Liquid mixture 2
Fixed: Pressure, kPa = 101
Property: Mole fraction of 2-methyl-1-propanol (Liquid mixture 1); method: Chromatography
Property: Mole fraction of 2-methylpropyl ethanoate (Liquid mixture 2); method: Chromatography
Property: Mole fraction of 2-methyl-1-propanol (Liquid mixture 2); method: Chromatography
Temperature, K	Mole fraction of 2-methylpropyl ethanoate	Mole fraction of 2-methyl-1-propanol	uncertainty	Mole fraction of 2-methylpropyl ethanoate	uncertainty	Mole fraction of 2-methyl-1-propanol	uncertainty
283.15	1	0	0.001	0.007	0.004	0	
283.15	0.935	0.065	0.011	0.006	0.004	0.009	
283.15	0.875	0.125	0.011	0.007	0.004	0.017	
283.15	0.816	0.184	0.011	0.006	0.004	0.026	
283.15	0.767	0.233	0.011	0.005	0.004	0.028	
283.15	0.688	0.299	0.011	0.006	0.004	0.035	
283.15	0.62	0.359	0.011	0.006	0.004	0.043	
283.15	0.577	0.399	0.011	0.005	0.004	0.042	
283.15	0.531	0.435	0.011	0.005	0.004	0.049	
283.15	0.46	0.498	0.011	0.005	0.004	0.059	
283.15	0.395	0.552	0.011	0.005	0.004	0.064	
283.15	0.351	0.587	0.011	0.006	0.004	0.073	
283.15	0.316	0.618	0.011	0.005	0.004	0.072	
283.15	0.284	0.639	0.011	0.005	0.004	0.076	
283.15	0.262	0.651	0.011	0.005	0.004	0.077	
283.15	0.22	0.684	0.011	0.006	0.004	0.095	
283.15	0.187	0.702	0.01	0.005	0.004	0.09	
283.15	0.152	0.718	0.01	0.005	0.004	0.104	
283.15	0.095	0.72	0.01	0.005	0.004	0.119	
283.15	0.059	0.709	0.01	0.005	0.004	0.149	
323.15	1	0	0.001	0.007	0.004	0	
323.15	0.933	0.067	0.011	0.006	0.004	0.008	
323.15	0.862	0.125	0.011	0.006	0.004	0.013	
323.15	0.806	0.183	0.011	0.011	0.004	0.021	
323.15	0.754	0.23	0.011	0.007	0.004	0.029	
323.15	0.678	0.294	0.011	0.008	0.004	0.036	
323.15	0.61	0.351	0.011	0.007	0.004	0.044	
323.15	0.568	0.391	0.011	0.008	0.004	0.051	
323.15	0.516	0.423	0.011	0.009	0.004	0.06	
323.15	0.448	0.481	0.011	0.009	0.004	0.064	
323.15	0.38	0.525	0.011	0.008	0.004	0.074	
323.15	0.335	0.555	0.011	0.009	0.004	0.079	
323.15	0.299	0.579	0.011	0.009	0.004	0.09	
323.15	0.265	0.596	0.011	0.011	0.004	0.099	
323.15	0.247	0.611	0.01	0.009	0.004	0.102	
323.15	0.198	0.613	0.01	0.011	0.004	0.124	
323.15	0.164	0.614	0.011	0.01	0.004	0.132	
323.15	0.122	0.586	0.011	0.012	0.004	0.154	
