Measured thermophysical data. Thermodynamic analysis of the solubility of ketoprofen in some propylene glycol + water cosolvent mixtures
Source: Fluid Phase Equilib., 2010, 10.1016/j.fluid.2010.03.031
Compound 1: ketoprofen, C16H14O3, InChI=1S/C16H14O3/c1-11(16(18)19)13-8-5-9-14(10-13)15(17)12-6-3-2-4-7-12/h2-11H,1H3,(H,18,19), purity 99.95%
Compound 2: 1,2-propanediol, C3H8O2, InChI=1S/C3H8O2/c1-3(5)2-4/h3-5H,2H2,1H3, purity 99.95%
Compound 3: water, H2O, InChI=1S/H2O/h1H2
Compound 4: cyclohexane, C6H12, InChI=1S/C6H12/c1-2-4-6-5-3-1/h1-6H2, purity 99.95%

System: cyclohexane + ketoprofen; phases: Liquid, Crystal
Fixed: Pressure, kPa = 101.3
Property: Mole fraction of ketoprofen (Liquid); method: UV Spectrophotometry
Temperature, K	Mole fraction of ketoprofen	uncertainty
293.15	3.663e-05	7.4e-07
298.15	5.98e-05	1.3e-06
303.15	8.07e-05	1.2e-06
308.15	0.000124	1e-06
313.15	0.000162	2e-06

System: 1,2-propanediol + water + ketoprofen; phases: Liquid, Crystal
Fixed: Pressure, kPa = 101.3
Property: Mole fraction of ketoprofen (Liquid); method: UV Spectrophotometry
Temperature, K	Solvent: Mass fraction of 1,2-propanediol	Mole fraction of ketoprofen	uncertainty
293.15	0	5.77e-06	9e-08
293.15	0.1	8.75e-06	3e-07
293.15	0.2	1.591e-05	4.5e-07
293.15	0.3	3.53e-05	1.2e-06
293.15	0.4	8.37e-05	1.7e-06
293.15	0.5	0.000272	1e-05
293.15	0.6	0.000921	3.6e-05
293.15	0.7	0.00246	8e-05
293.15	0.8	0.00492	0.00018
293.15	0.9	0.00937	0.00033
293.15	1	0.01236	0.00018
298.15	0	7.73e-06	1.5e-07
298.15	0.1	1.08e-05	4e-07
298.15	0.2	2.107e-05	2.3e-07
298.15	0.3	4.94e-05	1.8e-06
298.15	0.4	0.0001169	2.8e-06
298.15	0.5	0.000374	1.1e-05
298.15	0.6	0.00125	8e-05
298.15	0.7	0.00299	0.00016
298.15	0.8	0.00572	0.00018
298.15	0.9	0.0107	0.0006
298.15	1	0.01383	0.00035
303.15	0	9.85e-06	2.9e-07
303.15	0.1	1.328e-05	1.57e-06
303.15	0.2	2.504e-05	5.3e-07
303.15	0.3	6.47e-05	1.5e-06
303.15	0.4	0.0001512	3.2e-06
303.15	0.5	0.000516	1.8e-05
303.15	0.6	0.00155	8e-05
303.15	0.7	0.00364	8e-05
303.15	0.8	0.00676	0.00011
303.15	0.9	0.01215	0.00056
303.15	1	0.0155	0.0006
308.15	0	1.169e-05	3.5e-07
308.15	0.1	0.0001652	1e-06
308.15	0.2	3.274e-05	6.9e-07
308.15	0.3	8.08e-05	2.3e-06
308.15	0.4	0.000206	8e-06
308.15	0.5	0.000684	2.7e-05
308.15	0.6	0.00195	6e-05
308.15	0.7	0.00436	0.00014
308.15	0.8	0.00772	0.00038
308.15	0.9	0.01363	0.00035
308.15	1	0.0174	0.0008
313.15	0	1.37e-05	3e-07
313.15	0.1	2.192e-05	2.78e-06
313.15	0.2	4.323e-05	6e-07
313.15	0.3	0.0001075	4.1e-06
313.15	0.4	0.000287	9e-06
313.15	0.5	0.000914	2.9e-05
313.15	0.6	0.00245	0.00012
313.15	0.7	0.0052	0.0001
313.15	0.8	0.009	0.001
313.15	0.9	0.0155	0.001
313.15	1	0.01905	0.00032
