Measured thermophysical data. High pressure phase equilibria in methane +waxy systems 1. Methane + heptadecane
Source: Fluid Phase Equilib., 2007, 10.1016/j.fluid.2007.04.014
Compound 1: methane, CH4, InChI=1S/CH4/h1H4
Compound 2: heptadecane, C17H36, InChI=1S/C17H36/c1-3-5-7-9-11-13-15-17-16-14-12-10-8-6-4-2/h3-17H2,1-2H3, purity 99%

System: heptadecane; phases: Crystal, Liquid, Air at 1 atmosphere
Property: Normal melting temperature, K (Crystal); method: Closed cell (Static) method
Normal melting temperature, K	uncertainty
295.35	0.4

System: heptadecane; phases: Crystal, Liquid
Property: Solid-liquid equilibrium temperature, K (Crystal); method: Closed cell (Static) method
Pressure, kPa	Solid-liquid equilibrium temperature, K	uncertainty
20800	299.75	0.46
40100	304.05	0.48
60100	308.3	0.49
80100	312.4	0.5
99300	316.5	0.51

System: methane + heptadecane; phases: Liquid, Crystal, Gas
Property: Triple point temperature, K (Liquid); method: CCELL:UFactor:4
Pressure, kPa	Triple point temperature, K	uncertainty
1820	293.35	0.4
2520	293.25	0.4
4090	292.45	0.41
5070	291.35	0.41
7490	290.15	0.41
9820	288.35	0.62
10010	288.85	0.62
10010	288.85	0.62
15020	287.15	0.4
20050	286.35	0.64
20210	286.65	0.64
24350	286.45	0.4
30070	286.15	0.4
38480	286.25	0.46
40080	286.25	0.46
50900	286.55	0.4
56830	286.65	0.4
58620	286.8	0.4
71270	287.15	0.42
73470	287.45	0.42
75080	287.65	0.41
78260	287.85	0.4
78330	287.85	0.4

System: methane + heptadecane; phases: Liquid, Crystal
Property: Vapor or sublimation pressure, kPa (Liquid); method: CCELL:UFactor:4
Temperature, K	Mole fraction of methane	Vapor or sublimation pressure, kPa	uncertainty
286.95	0.8009	59220	2960
287.25	0.6014	29860	2240
287.45	0.704	45190	2210
287.75	0.8009	65130	3110
288.05	0.8893	80760	6380
288.15	0.9316	84350	1020
288.25	0.8009	69800	3030
288.35	0.9316	90240	750
288.45	0.8893	87120	6090
289.05	0.8009	75110	3150
289.05	0.8893	95050	5290
289.15	0.6014	40500	2110
289.85	0.704	60020	2380
290.75	0.3993	19970	2110
290.85	0.8009	90060	3330
292.95	0.6014	59980	2100
293.05	0.704	80080	2510
293.55	0.2021	10010	1980
294.55	0.3993	40010	2040
295.35	0	100	1880
295.55	0.2021	19880	1780
296.65	0.6014	79810	2150
298.55	0.3993	59720	1990
299.65	0.2021	38700	1910
299.75	0	20800	1840
302.55	0.3993	79590	2000
303.85	0.2021	59320	1890
304.05	0	40100	1850
308.25	0.2021	78880	1810
308.3	0	60100	1940
312.4	0	80100	1960
316.5	0	99300	1940

System: methane + heptadecane; phases: Liquid, Gas
Property: Vapor or sublimation pressure, kPa (Liquid); method: CCELL:UFactor:4
Temperature, K	Mole fraction of methane	Vapor or sublimation pressure, kPa	uncertainty
286.25	0.704	38480	490
286.45	0.6014	24350	330
287.55	0.8009	57990	720
287.85	0.9316	78330	990
288.45	0.8893	74710	930
289.15	0.6014	24390	320
289.15	0.9316	77730	980
289.95	0.3993	10070	240
291.65	0.8009	57190	710
292.25	0.8893	73470	920
292.45	0.2021	4090	110
293.15	0.3993	10250	150
295.75	0.6014	24630	310
298.05	0.704	37940	470
298.15	0.9316	74790	940
298.65	0.8009	55880	700
299.65	0.3993	10570	200
301.75	0.2021	4220	110
302.55	0.6014	24820	310
302.85	0.3993	10730	160
303.15	0.704	37740	470
303.65	0.8009	55240	690
303.75	0.8893	70180	880
304.25	0.9316	72790	910
311.25	0.2021	4390	110
312.75	0.8009	54430	680
313.25	0.8893	68140	850
313.25	0.9316	70780	880
313.35	0.3993	11140	160
313.45	0.6014	25130	310
314.15	0.704	37440	460
322.25	0.8893	66440	830
322.45	0.2021	4570	110
322.45	0.704	37250	460
322.45	0.9316	68740	860
322.75	0.8009	53230	660
323.25	0.3993	11470	160
323.35	0.6014	25390	320
331.65	0.2021	4670	110
332.15	0.704	37070	460
332.15	0.8893	64680	800
332.25	0.8009	52360	650
332.75	0.3993	11730	170
332.95	0.6014	25670	320
333.55	0.9316	66640	830
341.55	0.2021	4810	110
341.95	0.704	36950	460
342.55	0.8893	63060	780
342.85	0.3993	12030	170
343.25	0.6014	25890	320
343.25	0.8009	51430	640
343.35	0.9316	64850	810
351.25	0.6014	26050	340
351.95	0.2021	4930	120
352.05	0.8009	50820	630
352.45	0.704	36820	460
352.65	0.9316	63520	790
353.15	0.3993	12250	170
353.25	0.8893	61550	770
362.15	0.2021	5020	120
362.15	0.9316	62040	770
362.65	0.8009	49910	620
363.15	0.3993	12460	170
363.25	0.8893	60050	750
371.15	0.2021	5090	120
371.15	0.704	36580	460
372.85	0.3993	12660	210
372.85	0.8009	49320	610
374.75	0.8893	58730	730

System: methane + heptadecane; phases: Gas, Crystal
Property: Vapor or sublimation pressure, kPa (Gas); method: CCELL:UFactor:8
Temperature, K	Mole fraction of methane	Vapor or sublimation pressure, kPa	uncertainty
283.85	0.9912	67260	3260
284.85	0.9912	60250	2600
285.7	0.9912	57500	1930
286.75	0.9803	90530	9090
286.95	0.9803	80070	2350
287.35	0.9747	82880	2410
287.35	0.9747	87090	2160
288.05	0.9513	85410	2560
288.15	0.9513	90570	4450
288.25	0.9513	95620	6140

System: methane + heptadecane; phases: Gas, Liquid
Property: Vapor or sublimation pressure, kPa (Gas); method: CCELL:UFactor:4
Temperature, K	Mole fraction of methane	Vapor or sublimation pressure, kPa	uncertainty
286.15	0.9912	56840	710
287.15	0.9803	71270	1000
287.75	0.9747	73760	920
288.05	0.9513	78250	990
288.45	0.9803	70770	880
289.65	0.9747	73290	910
290.45	0.9912	55780	700
290.55	0.9803	70330	920
291.05	0.9513	76890	960
297.45	0.9513	74900	940
302.45	0.9747	69430	870
302.75	0.9803	67190	840
303.65	0.9912	53450	670
304.75	0.9513	72550	910
311.65	0.9747	67280	840
312.65	0.9803	64980	810
312.85	0.9513	70560	880
313.15	0.9912	52120	650
320.75	0.9912	51360	640
322.25	0.9747	64940	810
323.65	0.9803	62630	780
325.85	0.9513	67870	850
332.65	0.9513	66540	830
332.65	0.9747	63160	790
332.65	0.9803	61050	760
333.15	0.9912	49730	620
341.15	0.9803	59710	740
341.85	0.9513	64790	810
342.65	0.9747	61310	760
342.65	0.9912	48280	600
352.45	0.9747	59950	750
352.75	0.9803	57710	720
353.15	0.9912	47030	580
353.35	0.9513	62940	780
360.25	0.9803	56710	720
361.15	0.9513	61680	770
361.65	0.9747	58470	730
362.95	0.9912	45810	570
370.15	0.9513	60220	750
