Measured thermophysical data. Determination and correlation of heat of mixing of the carbon dioxide + tert-butyl methyl ether system at 298.15 and 303.15 K and 5.0 - 7.0 MPa
Source: Fluid Phase Equilib., 2016, 10.1016/j.fluid.2016.01.033
Compound 1: carbon dioxide, CO2, InChI=1S/CO2/c2-1-3
Compound 2: 2-methoxy-2-methylpropane, C5H12O, InChI=1S/C5H12O/c1-5(2,3)6-4/h1-4H3

System: carbon dioxide + 2-methoxy-2-methylpropane; phases: Liquid
Property: Molar enthalpy of solution, kJ/mol (Liquid); method: Flow calorimetry
Temperature, K	Pressure, kPa	Mole fraction of carbon dioxide	Molar enthalpy of solution, kJ/mol	uncertainty
298.15	5000	0.1	-1.15	0.032
298.15	5000	0.2	-2.164	0.051
298.15	5000	0.299	-3.311	0.074
298.15	5000	0.4	-4.362	0.095
298.15	5000	0.5	-5.332	0.115
298.15	5000	0.6	-6.28	0.135
298.15	5000	0.7	-7.102	0.153
298.15	5000	0.77	-7.648	0.164
298.15	5000	0.799	-7.812	0.167
298.15	5500	0.1	-1.03	0.03
298.15	5500	0.2	-2.067	0.049
298.15	5500	0.3	-3.155	0.07
298.15	5500	0.4	-4.109	0.09
298.15	5500	0.5	-5.012	0.109
298.15	5500	0.6	-5.881	0.127
298.15	5500	0.7	-6.649	0.143
298.15	5500	0.799	-7.353	0.158
298.15	5500	0.85	-7.635	0.164
298.15	5500	0.88	-7.769	0.167
298.15	5500	0.9	-7.825	0.168
298.15	6000	0.1	-1.011	0.033
298.15	6000	0.2	-2.029	0.052
298.15	6000	0.3	-2.926	0.073
298.15	6000	0.399	-3.813	0.095
298.15	6000	0.5	-4.673	0.116
298.15	6000	0.6	-5.443	0.136
298.15	6000	0.7	-6.132	0.154
298.15	6000	0.799	-6.735	0.17
298.15	6000	0.85	-7.023	0.179
298.15	6000	0.9	-7.153	0.186
298.15	7000	0.1	-0.279	0.017
298.15	7000	0.2	-0.527	0.033
298.15	7000	0.299	-0.737	0.047
298.15	7000	0.4	-0.9	0.062
298.15	7000	0.5	-1.009	0.078
298.15	7000	0.6	-1.069	0.092
298.15	7000	0.7	-1.045	0.106
298.15	7000	0.8	-0.96	0.119
298.15	7000	0.85	-0.867	0.127
298.15	7000	0.9	-0.681	0.132
298.15	7000	0.929	-0.532	0.132
298.15	7000	0.95	-0.389	0.131
303.15	5000	0.1	-1.149	0.033
303.15	5000	0.2	-2.253	0.053
303.15	5000	0.3	-3.332	0.074
303.15	5000	0.4	-4.384	0.095
303.15	5000	0.5	-5.351	0.115
303.15	5000	0.6	-6.234	0.134
303.15	5000	0.7	-7.049	0.151
303.15	5000	0.72	-7.24	0.154
303.15	5000	0.75	-7.357	0.157
303.15	5500	0.2	-2.151	0.05
303.15	5500	0.3	-3.21	0.071
303.15	5500	0.4	-4.17	0.091
303.15	5500	0.5	-5.111	0.11
303.15	5500	0.6	-6.027	0.129
303.15	5500	0.7	-6.784	0.145
303.15	5500	0.75	-7.126	0.153
303.15	5500	0.799	-7.47	0.16
303.15	5500	0.819	-7.532	0.161
303.15	5500	0.849	-7.719	0.165
303.15	6000	0.1	-1.042	0.031
303.15	6000	0.2	-2.118	0.05
303.15	6000	0.3	-3.056	0.068
303.15	6000	0.4	-3.99	0.088
303.15	6000	0.5	-4.863	0.106
303.15	6000	0.6	-5.675	0.123
303.15	6000	0.7	-6.377	0.138
303.15	6000	0.8	-6.966	0.151
303.15	6000	0.85	-7.268	0.157
303.15	6000	0.9	-7.345	0.159
303.15	7000	0.1	-0.827	0.025
303.15	7000	0.2	-1.665	0.04
303.15	7000	0.299	-2.402	0.055
303.15	7000	0.4	-3.196	0.072
303.15	7000	0.5	-3.828	0.086
303.15	7000	0.6	-4.474	0.1
303.15	7000	0.7	-5.049	0.112
303.15	7000	0.8	-5.396	0.12
303.15	7000	0.85	-5.545	0.124
303.15	7000	0.95	-5.385	0.122
