Measured thermophysical data. Vapor liquid equilibria in ternary systems of associating components (water, aniline, cyclohexylamine) and hydrocarbons (octane or toluene)
Source: Fluid Phase Equilib., 2007, 10.1016/j.fluid.2007.07.023
Compound 1: octane, C8H18, InChI=1S/C8H18/c1-3-5-7-8-6-4-2/h3-8H2,1-2H3
Compound 2: toluene, C7H8, InChI=1S/C7H8/c1-7-5-3-2-4-6-7/h2-6H,1H3
Compound 3: aniline, C6H7N, InChI=1S/C6H7N/c7-6-4-2-1-3-5-6/h1-5H,7H2
Compound 4: water, H2O, InChI=1S/H2O/h1H2
Compound 5: cyclohexylamine, C6H13N, InChI=1S/C6H13N/c7-6-4-2-1-3-5-6/h6H,1-5,7H2, purity 99.9%

System: octane; phases: Liquid
Property: Refractive index (Na D-line) (Liquid); method: Standard Abbe refractometry
Temperature, K	Pressure, kPa	Refractive index (Na D-line)	uncertainty
298.15	101.325	1.3946	0.0007

System: octane; phases: Liquid
Property: Mass density, kg/m3 (Liquid); method: PYCNOM:UFactor:2
Temperature, K	Pressure, kPa	Mass density, kg/m3	uncertainty
298.15	101.325	698.49	0.71

System: toluene; phases: Liquid
Property: Refractive index (Na D-line) (Liquid); method: Standard Abbe refractometry
Temperature, K	Pressure, kPa	Refractive index (Na D-line)	uncertainty
293.15	101.325	1.496	0.0007

System: toluene; phases: Liquid
Property: Mass density, kg/m3 (Liquid); method: PYCNOM:UFactor:2
Temperature, K	Pressure, kPa	Mass density, kg/m3	uncertainty
293.15	101.325	866.78	0.89

System: aniline; phases: Liquid
Property: Refractive index (Na D-line) (Liquid); method: Standard Abbe refractometry
Temperature, K	Pressure, kPa	Refractive index (Na D-line)	uncertainty
293.15	101.325	1.5962	0.0007

System: aniline; phases: Liquid
Property: Mass density, kg/m3 (Liquid); method: PYCNOM:UFactor:4
Temperature, K	Pressure, kPa	Mass density, kg/m3	uncertainty
293.15	101.325	1021.72	1.56

System: cyclohexylamine; phases: Liquid
Property: Refractive index (Na D-line) (Liquid); method: Standard Abbe refractometry
Temperature, K	Pressure, kPa	Refractive index (Na D-line)	uncertainty
288.15	101.325	1.4624	0.0007

System: cyclohexylamine; phases: Liquid
Property: Mass density, kg/m3 (Liquid); method: PYCNOM:UFactor:2
Temperature, K	Pressure, kPa	Mass density, kg/m3	uncertainty
303.15	101.325	858.2	0.91

System: aniline + toluene + water; phases: Liquid, Gas
Property: Mole fraction of toluene (Liquid); method: Chromatography
Property: Mole fraction of toluene (Gas); method: Chromatography
Property: Mole fraction of water (Gas); method: Chromatography
Temperature, K	Pressure, kPa	Mole fraction of water	Mole fraction of toluene	uncertainty	Mole fraction of toluene	uncertainty	Mole fraction of water	uncertainty
333.15	12.67	0.0839	0.0353	0.02	0.1016	0.02	0.8265	
333.15	14.67	0.066	0.1013	0.02	0.2665	0.0201	0.6514	
333.15	17.2	0.1529	0.0132	0.0132	0.0232	0.02	0.9373	
333.15	18.8	0.2006	0.0163	0.0163	0.0714	0.02	0.8935	
333.15	19.07	0.187	0.0309	0.02	0.0572	0.02	0.9062	
333.15	21.2	0.087	0.1948	0.02	0.3063	0.0202	0.6618	
333.15	25.06	0.0909	0.2291	0.0201	0.3417	0.0202	0.637	
363.15	55.33	0.0756	0.1355	0.02	0.2611	0.0201	0.6699	
363.15	58.26	0.1617	0.0288	0.02	0.0631	0.02	0.8818	
363.15	61.33	0.2149	0.0149	0.0149	0.0239	0.02	0.9222	
363.15	61.33	0.1898	0.0233	0.02	0.0694	0.02	0.8677	
363.15	61.59	0.1489	0.0383	0.02	0.0763	0.02	0.864	
363.15	65.06	0.1782	0.0194	0.0194	0.048	0.02	0.9072	
363.15	65.33	0.2233	0.0205	0.02	0.0388	0.02	0.9172	

System: aniline + octane + water; phases: Liquid, Gas
Property: Mole fraction of octane (Liquid); method: Chromatography
Property: Mole fraction of octane (Gas); method: Chromatography
Property: Mole fraction of water (Gas); method: Chromatography
Temperature, K	Pressure, kPa	Mole fraction of water	Mole fraction of octane	uncertainty	Mole fraction of octane	uncertainty	Mole fraction of water	uncertainty
333.15	8.71	0.0583	0.0023	0.0023	0.0502	0.02	0.8754	
333.15	10.83	0.0693	0.0071	0.0071	0.1383	0.02	0.759	
333.15	11.3	0.0895	0.0004	0.0004	0.0025	0.0025	0.9202	
333.15	11.51	0.0911	0.0013	0.0013	0.0308	0.02	0.9064	
333.15	12.44	0.0998	0.0026	0.0026	0.0454	0.02	0.9008	
333.15	12.94	0.1011	0.0025	0.0025	0.0446	0.02	0.9098	
333.15	15.17	0.1115	0.0023	0.0023	0.0355	0.02	0.9135	
333.15	15.4	0.1402	0.0018	0.0018	0.0471	0.02	0.9104	
333.15	15.45	0.1366	0.0014	0.0014	0.0169	0.0169	0.9364	
333.15	16.2	0.1395	0.0031	0.0031	0.0397	0.02	0.9317	
333.15	18.09	0.1562	0.0012	0.0012	0.0061	0.0061	0.9838	
363.15	37.5	0.0761	0.0082	0.0082	0.1191	0.02	0.7907	
363.15	42.58	0.1083	0.0014	0.0014	0.0187	0.0187	0.8962	
363.15	43.68	0.1094	0.0039	0.0039	0.0404	0.02	0.8935	
363.15	46.2	0.106	0.0054	0.0054	0.0452	0.02	0.9004	
363.15	47	0.1225	0.0014	0.0014	0.0072	0.0072	0.9144	
363.15	53.02	0.1362	0.0035	0.0035	0.0429	0.02	0.8883	
363.15	56.86	0.1553	0.0042	0.0042	0.069	0.02	0.8598	
363.15	59.17	0.1653	0.0083	0.0083	0.0946	0.02	0.8478	
363.15	63.07	0.1876	0.0052	0.0052	0.0682	0.02	0.8838	
363.15	65.71	0.2142	0.0033	0.0033	0.0565	0.02	0.8827	
363.15	73.56	0.2166	0.0153	0.0153	0.1505	0.02	0.8046	
363.15	77.03	0.2248	0.0158	0.0158	0.1722	0.0201	0.7828	
363.15	78.45	0.3316	0.0102	0.0102	0.1157	0.02	0.8569	

System: toluene + cyclohexylamine + water; phases: Liquid, Gas
Property: Mole fraction of toluene (Liquid); method: Chromatography
Property: Mole fraction of toluene (Gas); method: Chromatography
Property: Mole fraction of water (Gas); method: Chromatography
Temperature, K	Pressure, kPa	Mole fraction of water	Mole fraction of toluene	uncertainty	Mole fraction of toluene	uncertainty	Mole fraction of water	uncertainty
333.15	10.87	0.0575	0.0764	0.02	0.1576	0.02	0.2473	
333.15	13.99	0.1569	0.066	0.02	0.1268	0.02	0.467	
333.15	15.65	0.0241	0.4584	0.0203	0.5833	0.0203	0.1649	
333.15	17.5	0.3124	0.0459	0.02	0.1102	0.02	0.6048	
333.15	18.03	0.0333	0.5177	0.0203	0.5608	0.0204	0.2554	
333.15	18.63	0.1337	0.2659	0.0201	0.349	0.0202	0.4173	
333.15	20.81	0.4788	0.0314	0.02	0.1034	0.02	0.7094	
333.15	22.63	0.5835	0.0231	0.02	0.1058	0.02	0.7544	
333.15	24.51	0.2657	0.2492	0.0201	0.3218	0.0202	0.5597	
333.15	26.09	0.0732	0.6257	0.0202	0.466	0.0204	0.4621	
333.15	26.29	0.3472	0.2123	0.0201	0.2875	0.0201	0.5681	
333.15	29.12	0.1495	0.5065	0.0203	0.3572	0.0202	0.5781	
333.15	31.24	0.5783	0.1311	0.02	0.2862	0.0201	0.6574	
363.15	37.44	0.0542	0.0835	0.02	0.1272	0.02	0.3053	
363.15	47.01	0.0488	0.2977	0.0201	0.3843	0.0203	0.2663	
363.15	47.55	0.0204	0.4458	0.0202	0.5433	0.0204	0.1739	
363.15	51.12	0.1538	0.0689	0.02	0.0949	0.02	0.5326	
363.15	53	0.0254	0.5264	0.0203	0.5558	0.0204	0.222	
363.15	64.38	0.2952	0.0476	0.02	0.0746	0.02	0.6672	
363.15	75.77	0.4753	0.0312	0.02	0.0757	0.02	0.748	
363.15	76.26	0.0463	0.6554	0.0201	0.4693	0.0204	0.44	
363.15	82.07	0.6035	0.0218	0.02	0.0744	0.02	0.7957	
363.15	82.97	0.2517	0.2498	0.0201	0.2431	0.0201	0.6283	
363.15	90.31	0.1314	0.5049	0.0203	0.2907	0.0202	0.6373	
363.15	97.41	0.4615	0.1717	0.02	0.2334	0.0201	0.6865	

System: cyclohexylamine + octane + water; phases: Liquid, Gas
Property: Mole fraction of octane (Liquid); method: Chromatography
Property: Mole fraction of octane (Gas); method: Chromatography
Property: Mole fraction of water (Gas); method: Chromatography
Temperature, K	Pressure, kPa	Mole fraction of water	Mole fraction of octane	uncertainty	Mole fraction of octane	uncertainty	Mole fraction of water	uncertainty
333.15	9.01	0.0202	0.0563	0.02	0.1296	0.02	0.0997	
333.15	18.14	0.1004	0.2938	0.0201	0.1982	0.0201	0.5658	
333.15	18.83	0.3289	0.0388	0.02	0.1096	0.02	0.6171	
333.15	19.46	0.1772	0.1899	0.02	0.1921	0.0201	0.5539	
333.15	19.61	0.2603	0.1053	0.02	0.1425	0.02	0.6138	
333.15	20.88	0.145	0.3133	0.0201	0.2185	0.0201	0.5904	
333.15	21.48	0.1281	0.3578	0.0202	0.2453	0.0201	0.5727	
333.15	22.61	0.1179	0.4166	0.0202	0.2565	0.0201	0.5877	
333.15	22.64	0.1459	0.3485	0.0202	0.2187	0.0201	0.618	
333.15	24.71	0.1001	0.5184	0.0203	0.2737	0.0201	0.6034	
333.15	25.59	0.46	0.1097	0.02	0.2169	0.0201	0.6604	
363.15	30.56	0.0097	0.1054	0.02	0.1818	0.0201	0.071	
363.15	64.42	0.333	0.0381	0.02	0.0338	0.02	0.7241	
363.15	65.07	0.1258	0.2697	0.0201	0.1889	0.0201	0.5715	
363.15	67.15	0.281	0.0755	0.02	0.0931	0.02	0.6347	
363.15	70.21	0.2013	0.1861	0.02	0.2176	0.0201	0.5595	
363.15	78.18	0.1927	0.2465	0.0201	0.1901	0.0201	0.6461	
363.15	79.82	0.1862	0.2796	0.0201	0.1718	0.0201	0.6483	
363.15	88.33	0.444	0.0975	0.02	0.1677	0.0201	0.7045	
363.15	90.21	0.1903	0.3766	0.0202	0.22	0.0201	0.6669	
363.15	97.17	0.2802	0.3091	0.0201	0.2429	0.0201	0.6625	

System: aniline + toluene + cyclohexylamine; phases: Liquid, Gas
Property: Mole fraction of aniline (Liquid); method: Chromatography
Property: Mole fraction of aniline (Gas); method: Chromatography
Property: Mole fraction of toluene (Gas); method: Chromatography
Temperature, K	Pressure, kPa	Mole fraction of toluene	Mole fraction of aniline	uncertainty	Mole fraction of aniline	uncertainty	Mole fraction of toluene	uncertainty
333.15	5.01	0.0691	0.5591	0.0202	0.085	0.02	0.4176	
333.15	6.13	0.1248	0.5534	0.0203	0.0635	0.02	0.5981	
333.15	6.38	0.1549	0.7383	0.0201	0.0821	0.02	0.8147	
333.15	7.01	0.1147	0.3591	0.0202	0.0354	0.02	0.438	
333.15	8.31	0.2045	0.3481	0.0202	0.0295	0.02	0.6041	
333.15	8.57	0.2548	0.6128	0.0202	0.0509	0.02	0.8585	
333.15	8.73	0.2609	0.7137	0.0201	0.0564	0.02	0.9273	
333.15	9.65	0.1855	0.0789	0.02	0.0049	0.0049	0.4165	
333.15	10.16	0.3334	0.5135	0.0203	0.0352	0.02	0.8777	
333.15	10.7	0.2914	0.1407	0.02	0.0093	0.0093	0.6047	
333.15	10.74	0.3807	0.5853	0.0202	0.0416	0.02	0.9415	
333.15	11.98	0.3827	0.1675	0.02	0.0138	0.0138	0.6774	
333.15	12.4	0.4863	0.3234	0.0201	0.0439	0.02	0.8729	
333.15	12.59	0.5224	0.4357	0.0202	0.0268	0.02	0.9554	
333.15	12.8	0.499	0.2214	0.0201	0.0155	0.0155	0.8356	
333.15	13.95	0.6329	0.3167	0.0201	0.0202	0.02	0.9597	
333.15	14.84	0.7093	0.2372	0.0201	0.0153	0.0153	0.9633	
333.15	16.08	0.8066	0.1343	0.02	0.0095	0.0095	0.9652	
333.15	16.95	0.8658	0.0688	0.02	0.005	0.005	0.9668	
363.15	7.24	0.0079	0.8617	0.02	0.4118	0.0203	0.1166	
363.15	10.15	0.0247	0.7718	0.0201	0.2554	0.0201	0.2432	
363.15	13.55	0.0483	0.6761	0.0201	0.163	0.02	0.3296	
363.15	16.5	0.0666	0.5806	0.0202	0.1031	0.02	0.3694	
363.15	18.78	0.1486	0.7473	0.0201	0.1222	0.02	0.7502	
363.15	19.27	0.1183	0.5708	0.0202	0.0853	0.02	0.5396	
363.15	22	0.1098	0.3847	0.0202	0.0521	0.02	0.3866	
363.15	24.65	0.2476	0.7283	0.0201	0.0843	0.02	0.8949	
363.15	25.06	0.1861	0.3869	0.0202	0.0395	0.02	0.5596	
363.15	26.36	0.2674	0.6037	0.0202	0.0665	0.02	0.8293	
363.15	29.22	0.1695	0.1305	0.02	0.0126	0.0126	0.3819	
363.15	30.34	0.3611	0.6063	0.0202	0.0568	0.02	0.9221	
363.15	31.06	0.3635	0.4866	0.0203	0.0485	0.02	0.8502	
363.15	32.6	0.2756	0.1472	0.02	0.0107	0.0107	0.5414	
363.15	35.43	0.3827	0.1675	0.02	0.0138	0.0138	0.6774	
363.15	35.8	0.4881	0.471	0.0203	0.0419	0.02	0.9353	
363.15	36.49	0.4698	0.3155	0.0201	0.0291	0.02	0.8413	
363.15	39.06	0.5192	0.2159	0.0201	0.0186	0.0186	0.8254	
363.15	40.27	0.6218	0.3303	0.0201	0.0295	0.02	0.9465	
363.15	42.8	0.6843	0.2633	0.0201	0.0231	0.02	0.9514	
363.15	45.89	0.7674	0.1755	0.02	0.0156	0.0156	0.957	
363.15	50.04	0.8683	0.0677	0.02	0.0059	0.0059	0.9631	

System: aniline + cyclohexylamine + octane; phases: Liquid, Gas
Property: Mole fraction of aniline (Liquid); method: Chromatography
Property: Mole fraction of aniline (Gas); method: Chromatography
Property: Mole fraction of octane (Gas); method: Chromatography
Temperature, K	Pressure, kPa	Mole fraction of octane	Mole fraction of aniline	uncertainty	Mole fraction of aniline	uncertainty	Mole fraction of octane	uncertainty
333.15	6.92	0.0813	0.8726	0.02	0.0885	0.02	0.8813	
333.15	7.43	0.1273	0.3603	0.0202	0.0891	0.02	0.5836	
333.15	8.94	0.1486	0.0169	0.0169	0.0025	0.0025	0.265	
333.15	8.95	0.2678	0.2124	0.0201	0.0223	0.02	0.5788	
333.15	9.32	0.248	0.0097	0.0097	0.0015	0.0015	0.4576	
333.15	9.39	0.3754	0.0358	0.02	0.0014	0.0014	0.6055	
333.15	9.79	0.2807	0.0269	0.02	0.0038	0.0038	0.421	
333.15	10.02	0.5528	0.0222	0.02	0.0053	0.0053	0.7645	
333.15	10.07	0.6099	0.1407	0.02	0.0512	0.02	0.7258	
333.15	10.42	0.6881	0.1107	0.02	0.029	0.02	0.8018	
363.15	23.32	0.1563	0.5506	0.0203	0.0537	0.02	0.6566	
363.15	23.88	0.1096	0.1814	0.02	0.0372	0.02	0.3247	
363.15	26.18	0.1786	0.5154	0.0203	0.0572	0.02	0.654	
363.15	27.92	0.318	0.2561	0.0201	0.0568	0.02	0.6827	
363.15	28.32	0.1391	0.0083	0.0083	0.0024	0.0024	0.2504	
363.15	28.88	0.1593	0.0081	0.0081	0.0008	0.0008	0.3131	
363.15	29.22	0.2009	0.0072	0.0072	0.0009	0.0009	0.3601	
363.15	30.64	0.2767	0.0105	0.0105	0.0039	0.0039	0.4566	
363.15	31.39	0.4743	0.0459	0.02	0.0045	0.0045	0.658	
363.15	32.04	0.6918	0.159	0.02	0.1111	0.02	0.7606	
363.15	32.71	0.7566	0.1137	0.02	0.0396	0.02	0.8363	

System: aniline + cyclohexylamine + water; phases: Liquid, Gas
Property: Mole fraction of aniline (Liquid); method: Chromatography
Property: Mole fraction of aniline (Gas); method: Chromatography
Property: Mole fraction of water (Gas); method: Chromatography
Temperature, K	Pressure, kPa	Mole fraction of water	Mole fraction of aniline	uncertainty	Mole fraction of aniline	uncertainty	Mole fraction of water	uncertainty
333.15	10.36	0.1598	0.0903	0.02	0.039	0.02	0.6123	
333.15	11.1	0.1527	0.3474	0.0202	0.0325	0.02	0.5975	
333.15	11.67	0.1646	0.3748	0.0202	0.0303	0.02	0.6406	
333.15	12.14	0.1802	0.2167	0.0201	0.0153	0.0153	0.5945	
333.15	13.08	0.1838	0.5124	0.0203	0.0306	0.02	0.8212	
333.15	13.62	0.2667	0.0853	0.02	0.0444	0.02	0.7394	
333.15	16.59	0.3595	0.1815	0.02	0.0414	0.02	0.8634	
333.15	17.15	0.2898	0.4321	0.0202	0.0132	0.0132	0.8883	
333.15	17.4	0.4035	0.2852	0.0201	0.0211	0.02	0.8125	
333.15	20.12	0.4988	0.1878	0.02	0.0515	0.02	0.8982	
363.15	36.06	0.1086	0.4129	0.0202	0.0067	0.0067	0.588	
363.15	36.95	0.1421	0.0886	0.02	0.0287	0.02	0.6002	
363.15	40.76	0.147	0.3005	0.0201	0.0298	0.02	0.5999	
363.15	46.21	0.1893	0.5123	0.0203	0.0497	0.02	0.8121	
363.15	48.02	0.2268	0.1057	0.02	0.0465	0.02	0.7539	
363.15	49.4	0.2043	0.4259	0.0202	0.0143	0.0143	0.7587	
363.15	51.14	0.2625	0.2854	0.0201	0.0155	0.0155	0.7986	
363.15	53.79	0.2706	0.4043	0.0202	0.0226	0.02	0.8436	
363.15	58.84	0.3568	0.1223	0.02	0.0475	0.02	0.8366	
363.15	71.82	0.5336	0.1717	0.02	0.0183	0.0183	0.9437	
