Measured thermophysical data. Hydrogen substitution effect on the solubility of perhalogenated compounds in ionic liquid [bmim][PF6]
Source: Fluid Phase Equilib., 2007, 10.1016/j.fluid.2007.07.035
Compound 1: trichlorofluoromethane, CCl3F, InChI=1S/CCl3F/c2-1(3,4)5
Compound 2: 1,1,2-trichloro-1,2,2-trifluoroethane, C2Cl3F3, InChI=1S/C2Cl3F3/c3-1(4,6)2(5,7)8
Compound 3: 1,1-dichloro-2,2,2-trifluoroethane, C2HCl2F3, InChI=1S/C2HCl2F3/c3-1(4)2(5,6)7/h1H
Compound 4: trichloromethane, CHCl3, InChI=1S/CHCl3/c2-1(3)4/h1H
Compound 5: chloroform-d, CDCl3, InChI=1S/CHCl3/c2-1(3)4/h1H/i1D
Compound 6: 1-butyl-3-methylimidazolium hexafluorophosphate, C8H15F6N2P, InChI=1S/C8H15N2.F6P/c1-3-4-5-10-7-6-9(2)8-10;1-7(2,3,4,5)6/h6-8H,3-5H2,1-2H3;/q+1;-1

System: trichlorofluoromethane + 1-butyl-3-methylimidazolium hexafluorophosphate; phases: Liquid mixture 1, Liquid mixture 2, Gas
Property: Mole fraction of trichlorofluoromethane (Liquid mixture 1); method: Volumetric Method
Temperature, K	Mole fraction of trichlorofluoromethane	uncertainty
282.7	0.99	0.01
293.5	0.995	0.005
303.7	0.98	0.008
313.8	0.984	0.008
323.9	1	0.001
333.6	1	0.001

System: trichlorofluoromethane + 1-butyl-3-methylimidazolium hexafluorophosphate; phases: Liquid mixture 2, Liquid mixture 1, Gas
Property: Mole fraction of trichlorofluoromethane (Liquid mixture 2); method: Volumetric Method.
Temperature, K	Mole fraction of trichlorofluoromethane	uncertainty
282.7	0.21	0.06
293.5	0.206	0.024
303.7	0.205	0.032
313.8	0.204	0.032
323.9	0.193	0.048
333.6	0.178	0.048

System: trichloromethane + 1-butyl-3-methylimidazolium hexafluorophosphate; phases: Liquid mixture 1, Liquid mixture 2, Gas
Property: Mole fraction of trichloromethane (Liquid mixture 1); method: Volumetric Method
Temperature, K	Mole fraction of trichloromethane	uncertainty
283.1	1	0.001
293.2	1	0.001
303.2	1	0.001
313	0.996	0.004
323.3	0.994	0.006
333.7	0.996	0.004

System: trichloromethane + 1-butyl-3-methylimidazolium hexafluorophosphate; phases: Liquid mixture 2, Liquid mixture 1, Gas
Property: Mole fraction of trichloromethane (Liquid mixture 2); method: Volumetric Method.
Temperature, K	Mole fraction of trichloromethane	uncertainty
283.1	0.735	0.052
293.2	0.726	0.052
303.2	0.719	0.05
313	0.722	0.048
323.3	0.719	0.048
333.7	0.706	0.032

System: chloroform-d + 1-butyl-3-methylimidazolium hexafluorophosphate; phases: Liquid mixture 1, Liquid mixture 2, Gas
Property: Mole fraction of chloroform-d (Liquid mixture 1); method: Volumetric Method
Temperature, K	Mole fraction of chloroform-d	uncertainty
283.1	0.996	0.004
293.2	0.994	0.006
303.2	0.995	0.005
313.1	0.989	0.008
323.3	0.992	0.008
333.9	0.995	0.005

System: chloroform-d + 1-butyl-3-methylimidazolium hexafluorophosphate; phases: Liquid mixture 2, Liquid mixture 1, Gas
Property: Mole fraction of chloroform-d (Liquid mixture 2); method: Volumetric Method.
Temperature, K	Mole fraction of chloroform-d	uncertainty
283.1	0.742	0.028
293.2	0.735	0.028
303.2	0.722	0.04
313.1	0.733	0.032
323.3	0.713	0.04
333.9	0.708	0.018

System: 1,1,2-trichloro-1,2,2-trifluoroethane + 1-butyl-3-methylimidazolium hexafluorophosphate; phases: Liquid mixture 1, Liquid mixture 2, Gas
Property: Mole fraction of 1,1,2-trichloro-1,2,2-trifluoroethane (Liquid mixture 1); method: volumetric method.
Temperature, K	Mole fraction of 1,1,2-trichloro-1,2,2-trifluoroethane	uncertainty
282.9	0.983	0.017
288.5	0.986	0.014
293.4	0.987	0.013
303.3	0.981	0.019
313.6	0.988	0.012
323.6	0.985	0.015
333.7	0.991	0.009

System: 1,1,2-trichloro-1,2,2-trifluoroethane + 1-butyl-3-methylimidazolium hexafluorophosphate; phases: Liquid mixture 2, Liquid mixture 1, Gas
Property: Mole fraction of 1,1,2-trichloro-1,2,2-trifluoroethane (Liquid mixture 2); method: volumetric method.
Temperature, K	Mole fraction of 1,1,2-trichloro-1,2,2-trifluoroethane	uncertainty
282.9	0.097	0.024
288.5	0.084	0.024
293.4	0.076	0.034
303.3	0.087	0.04
313.6	0.072	0.044
323.6	0.088	0.054
333.7	0.107	0.056

System: 1,1-dichloro-2,2,2-trifluoroethane + 1-butyl-3-methylimidazolium hexafluorophosphate; phases: Liquid mixture 1, Liquid mixture 2, Gas
Property: Mole fraction of 1,1-dichloro-2,2,2-trifluoroethane (Liquid mixture 1); method: volumetric method.
Temperature, K	Mole fraction of 1,1-dichloro-2,2,2-trifluoroethane	uncertainty
283	0.994	0.006
288.5	0.992	0.008
293.4	0.993	0.007
303.4	0.726	0.017
313.7	0.704	0.016
323.7	0.677	0.022
333.7	0.651	0.024

System: 1,1-dichloro-2,2,2-trifluoroethane + 1-butyl-3-methylimidazolium hexafluorophosphate; phases: Liquid mixture 2, Liquid mixture 1, Gas
Property: Mole fraction of 1,1-dichloro-2,2,2-trifluoroethane (Liquid mixture 2); method: volumetric method.
Temperature, K	Mole fraction of 1,1-dichloro-2,2,2-trifluoroethane	uncertainty
283	0.772	0.02
288.5	0.761	0.016
293.4	0.749	0.023
303.4	0.997	0.003
313.7	0.998	0.002
323.7	0.998	0.002
333.7	0.999	0.001
