Measured thermophysical data. Separation of the isopropanol-water azeotropic mixture using ionic liquids
Source: Fluid Phase Equilib., 2018, 10.1016/j.fluid.2017.10.003
Compound 1: propan-2-ol, C3H8O, InChI=1S/C3H8O/c1-3(2)4/h3-4H,1-2H3, purity 98%
Compound 2: water, H2O, InChI=1S/H2O/h1H2, purity 99.8%
Compound 3: 2-hydroxyethylammonium formate, C3H9NO3, InChI=1S/C2H7NO.CH2O2/c3-1-2-4;2-1-3/h4H,1-3H2;1H,(H,2,3), purity 99%
Compound 4: 2-hydroxyethylammonium acetate, C4H11NO3, InChI=1S/C2H7NO.C2H4O2/c3-1-2-4;1-2(3)4/h4H,1-3H2;1H3,(H,3,4), purity 99%
Compound 5: 2-hydroxy ethylammonium butanoate, C6H15NO3, InChI=1S/C4H8O2.C2H7NO/c1-2-3-4(5)6;3-1-2-4/h2-3H2,1H3,(H,5,6);4H,1-3H2, purity 99%

System: 2-hydroxyethylammonium formate; phases: Liquid
Fixed: Pressure, kPa = 101.325
Property: Viscosity, Pa*s (Liquid); method: OTHER:UFactor:12:sMethod:Brookfield Digital Viscometer
Temperature, K	Viscosity, Pa*s	uncertainty
293.15	0.129	0.04976
298.15	0.09849	0.02726
303.15	0.0719	0.01073
308.15	0.05634	0.00283
313.15	0.04488	0.00429
318.15	0.03653	0.00351
323.15	0.0301	0.0029
328.15	0.02492	0.00242
333.15	0.021	0.00205
338.15	0.01898	0.00186
343.15	0.0163	0.00161
348.15	0.01396	0.00142
353.15	0.0121	0.00128
358.15	0.01057	0.00116
363.15	0.0093	0.00107

System: 2-hydroxyethylammonium acetate; phases: Liquid
Fixed: Pressure, kPa = 101.325
Property: Viscosity, Pa*s (Liquid); method: OTHER:UFactor:6:sMethod:Brookfield Digital Viscometer
Temperature, K	Viscosity, Pa*s	uncertainty
293.15	3.073	2.55573
298.15	1.974	1.46577
303.15	1.306	0.86102
308.15	0.8963	0.52293
313.15	0.6245	0.31897
318.15	0.36372	0.14626
323.15	0.27113	0.09292
328.15	0.20365	0.05806
333.15	0.15915	0.03747
338.15	0.12369	0.02284
343.15	0.0985	0.01365
348.15	0.07976	0.00835
353.15	0.06527	0.00564
358.15	0.05272	0.00462
363.15	0.04369	0.00496

System: 2-hydroxy ethylammonium butanoate; phases: Liquid
Fixed: Pressure, kPa = 101.325
Property: Viscosity, Pa*s (Liquid); method: OTHER:UFactor:6:sMethod:Brookfield Digital Viscometer
Temperature, K	Viscosity, Pa*s	uncertainty
293.15	2.619	2.09367
298.15	1.796	1.29929
303.15	1.26	0.82152
308.15	0.90436	0.52925
313.15	0.59688	0.2994
318.15	0.44506	0.19691
323.15	0.33581	0.12954
328.15	0.25628	0.08492
333.15	0.19967	0.05613
338.15	0.1538	0.03515
343.15	0.12253	0.02238
348.15	0.09865	0.01481
353.15	0.08046	0.01069
358.15	0.0662	0.00867
363.15	0.05333	0.00797

System: propan-2-ol + water + 2-hydroxyethylammonium formate; phases: Liquid, Gas
Fixed: Pressure, kPa = 101
Property: Mole fraction of propan-2-ol (Liquid); method: ebulliometer
Temperature, K	Mole fraction of 2-hydroxyethylammonium formate	Mole fraction of propan-2-ol	uncertainty
353.47	0.041	0.573	0.032
353.52	0.044	0.621	0.05
353.3	0.04	0.669	0.013
353.88	0.047	0.764	0.006
353.55	0.043	0.792	0.12
354.05	0.044	0.804	0.005
354.4	0.048	0.875	0.006
354.65	0.046	0.9	0.006
353.2	0.069	0.646	0.005
353.35	0.071	0.656	0.005
353.7	0.074	0.7	0.007
353.5	0.076	0.738	0.008
354.31	0.08	0.779	0.01
354.18	0.079	0.819	0.005
355.13	0.083	0.862	0.003
355.24	0.086	0.884	0.013
355.25	0.086	0.887	0.013
353.25	0.092	0.606	0.006
353.8	0.098	0.622	0.011
354.06	0.102	0.673	0.015
354.14	0.103	0.721	0.015
354.67	0.113	0.788	0.021
354.68	0.116	0.819	0.022
354.62	0.117	0.837	0.022

System: propan-2-ol + water + 2-hydroxyethylammonium formate; phases: Gas, Liquid
Fixed: Pressure, kPa = 101
Property: Mole fraction of propan-2-ol (Gas); method: Titration method
Temperature, K	Mole fraction of 2-hydroxyethylammonium formate	Mole fraction of propan-2-ol	uncertainty
353.47	0.041	0.665	0.026
353.52	0.044	0.699	0.037
353.3	0.04	0.734	0.01
353.88	0.047	0.811	0.006
353.55	0.043	0.831	0.094
354.05	0.044	0.839	0.006
354.4	0.048	0.914	0.004
354.65	0.046	0.938	0.004
353.2	0.069	0.775	0.005
353.35	0.071	0.784	0.005
353.7	0.074	0.811	0.005
353.5	0.076	0.842	0.01
354.31	0.08	0.876	0.007
354.18	0.079	0.907	0.004
355.13	0.083	0.947	0.004
355.24	0.086	0.972	0.011
355.25	0.086	0.973	0.01
353.25	0.092	0.78	0.005
353.8	0.098	0.798	0.006
354.06	0.102	0.83	0.009
354.14	0.103	0.861	0.009
354.67	0.113	0.919	0.019
354.68	0.116	0.947	0.019
354.62	0.117	0.962	0.019

System: propan-2-ol + water + 2-hydroxyethylammonium acetate; phases: Liquid, Gas
Fixed: Pressure, kPa = 101
Property: Mole fraction of propan-2-ol (Liquid); method: ebulliometer
Temperature, K	Mole fraction of 2-hydroxyethylammonium acetate	Mole fraction of propan-2-ol	uncertainty
353.52	0.038	0.603	0.012
353.57	0.031	0.674	0.017
353.72	0.041	0.709	0.008
354.25	0.044	0.807	0.005
354.26	0.046	0.815	0.008
354.53	0.048	0.854	0.006
354.81	0.044	0.909	0.005
353.55	0.06	0.577	0.007
353.26	0.064	0.662	0.007
353.1	0.068	0.714	0.008
353.87	0.068	0.734	0.012
354.49	0.07	0.801	0.005
354.4	0.074	0.84	0.017
354.72	0.077	0.897	0.004
353.47	0.085	0.59	0.005
353.87	0.083	0.646	0.012
354.02	0.09	0.666	0.009
354.36	0.087	0.723	0.008
354.46	0.097	0.755	0.024
354.4	0.099	0.814	0.024
354.67	0.106	0.836	0.006
354.85	0.104	0.867	0.005

System: propan-2-ol + water + 2-hydroxyethylammonium acetate; phases: Gas, Liquid
Fixed: Pressure, kPa = 101
Property: Mole fraction of propan-2-ol (Gas); method: Titration method
Temperature, K	Mole fraction of 2-hydroxyethylammonium acetate	Mole fraction of propan-2-ol	uncertainty
353.52	0.038	0.691	0.009
353.57	0.031	0.735	0.012
353.72	0.041	0.765	0.006
354.25	0.044	0.846	0.005
354.26	0.046	0.851	0.006
354.53	0.048	0.891	0.004
354.81	0.044	0.945	0.006
353.55	0.06	0.71	0.007
353.26	0.064	0.77	0.007
353.1	0.068	0.811	0.006
353.87	0.068	0.824	0.006
354.49	0.07	0.879	0.004
354.4	0.074	0.916	0.011
354.72	0.077	0.972	0.003
353.47	0.085	0.763	0.007
353.87	0.083	0.787	0.007
354.02	0.09	0.81	0.005
354.36	0.087	0.847	0.006
354.46	0.097	0.878	0.02
354.4	0.099	0.925	0.019
354.67	0.106	0.948	0.004
354.85	0.104	0.975	0.004

System: propan-2-ol + water + 2-hydroxy ethylammonium butanoate; phases: Liquid, Gas
Fixed: Pressure, kPa = 101
Property: Mole fraction of propan-2-ol (Liquid); method: ebulliometer
Temperature, K	Mole fraction of 2-hydroxy ethylammonium butanoate	Mole fraction of propan-2-ol	uncertainty
353.49	0.031	0.644	0.082
353.4	0.029	0.693	0.013
353.74	0.036	0.732	0.008
353.53	0.032	0.812	0.082
354.4	0.035	0.856	0.004
354.65	0.035	0.88	0.004
354.81	0.041	0.905	0.004
355.27	0.038	0.94	0.003
353.23	0.051	0.625	0.014
353.63	0.053	0.664	0.004
353.43	0.053	0.717	0.013
354.02	0.055	0.76	0.006
354.39	0.062	0.827	0.005
354.83	0.064	0.876	0.005
354.92	0.063	0.893	0.005
353.41	0.067	0.64	0.012
353.77	0.071	0.666	0.004
353.57	0.075	0.7	0.005
354.09	0.081	0.752	0.012
354.17	0.08	0.796	0.017
354.36	0.085	0.829	0.003
354.94	0.089	0.864	0.006
355.01	0.084	0.879	0.004
355.28	0.086	0.882	0.003

System: propan-2-ol + water + 2-hydroxy ethylammonium butanoate; phases: Gas, Liquid
Fixed: Pressure, kPa = 101
Property: Mole fraction of propan-2-ol (Gas); method: Titration method
Temperature, K	Mole fraction of 2-hydroxy ethylammonium butanoate	Mole fraction of propan-2-ol	uncertainty
353.49	0.031	0.708	0.061
353.4	0.029	0.731	0.009
353.74	0.036	0.768	0.006
353.53	0.032	0.833	0.061
354.4	0.035	0.873	0.005
354.65	0.035	0.9	0.004
354.81	0.041	0.934	0.003
355.27	0.038	0.971	0.003
353.23	0.051	0.731	0.008
353.63	0.053	0.745	0.006
353.43	0.053	0.78	0.008
354.02	0.055	0.813	0.005
354.39	0.062	0.881	0.004
354.83	0.064	0.933	0.004
354.92	0.063	0.948	0.004
353.41	0.067	0.762	0.005
353.77	0.071	0.776	0.006
353.57	0.075	0.8	0.006
354.09	0.081	0.842	0.009
354.17	0.08	0.877	0.016
354.36	0.085	0.915	0.004
354.94	0.089	0.95	0.004
355.01	0.084	0.961	0.003
355.28	0.086	0.966	0.002
