Measured thermophysical data. Isobaric vapor-liquid equilibrium, density and speed of sound of binary mixtures 2,2,4-trimethylpentane + 1-butanol or dibutyl ether (DBE) at 101.3 kPa
Source: Fluid Phase Equilib., 2018, 10.1016/j.fluid.2018.07.027
Compound 1: 2,2,4-trimethylpentane, C8H18, InChI=1S/C8H18/c1-7(2)6-8(3,4)5/h7H,6H2,1-5H3, purity 99.5%
Compound 2: butan-1-ol, C4H10O, InChI=1S/C4H10O/c1-2-3-4-5/h5H,2-4H2,1H3, purity 99.5%
Compound 3: dibutyl ether, C8H18O, InChI=1S/C8H18O/c1-3-5-7-9-8-6-4-2/h3-8H2,1-2H3, purity 99.5%

System: 2,2,4-trimethylpentane; phases: Liquid
Property: Mass density, kg/m3 (Liquid); method: Vibrating tube method
Temperature, K	Pressure, kPa	Mass density, kg/m3	uncertainty
298.15	101.325	687.824	0.915

System: 2,2,4-trimethylpentane; phases: Liquid
Property: Refractive index (Na D-line) (Liquid); method: Standard Abbe refractometry
Temperature, K	Pressure, kPa	Refractive index (Na D-line)	uncertainty
298.15	101.325	1.388975	0.000326

System: 2,2,4-trimethylpentane; phases: Liquid, Gas
Property: Boiling temperature at pressure P, K (Liquid); method: Ebulliometric method (Recirculating still)
Pressure, kPa	Boiling temperature at pressure P, K	uncertainty
101.3	372.16	0.05

System: 2,2,4-trimethylpentane; phases: Liquid
Property: Speed of sound, m/s (Liquid); method: Single path-length method
Temperature, K	Pressure, kPa	Speed of sound, m/s	uncertainty
298.15	101.325	1082.77	1.12

System: butan-1-ol; phases: Liquid
Property: Mass density, kg/m3 (Liquid); method: Vibrating tube method
Temperature, K	Pressure, kPa	Mass density, kg/m3	uncertainty
298.15	101.325	805.769	0.909

System: butan-1-ol; phases: Liquid
Property: Refractive index (Na D-line) (Liquid); method: Standard Abbe refractometry
Temperature, K	Pressure, kPa	Refractive index (Na D-line)	uncertainty
298.15	101.325	1.397245	0.000326

System: butan-1-ol; phases: Liquid, Gas
Property: Boiling temperature at pressure P, K (Liquid); method: Ebulliometric method (Recirculating still)
Pressure, kPa	Boiling temperature at pressure P, K	uncertainty
101.3	390.25	0.05

System: butan-1-ol; phases: Liquid
Property: Speed of sound, m/s (Liquid); method: Single path-length method
Temperature, K	Pressure, kPa	Speed of sound, m/s	uncertainty
298.15	101.325	1240.08	1.12

System: dibutyl ether; phases: Liquid
Property: Mass density, kg/m3 (Liquid); method: Vibrating tube method
Temperature, K	Pressure, kPa	Mass density, kg/m3	uncertainty
298.15	101.325	763.799	0.911

System: dibutyl ether; phases: Liquid
Property: Refractive index (Na D-line) (Liquid); method: Standard Abbe refractometry
Temperature, K	Pressure, kPa	Refractive index (Na D-line)	uncertainty
298.15	101.325	1.396522	0.000326

System: dibutyl ether; phases: Liquid, Gas
Property: Boiling temperature at pressure P, K (Liquid); method: Ebulliometric method (Recirculating still)
Pressure, kPa	Boiling temperature at pressure P, K	uncertainty
101.3	414.55	0.05

System: dibutyl ether; phases: Liquid
Property: Speed of sound, m/s (Liquid); method: Single path-length method
Temperature, K	Pressure, kPa	Speed of sound, m/s	uncertainty
298.15	101.325	1162.01	1.12

System: 2,2,4-trimethylpentane + butan-1-ol; phases: Liquid
Fixed: Pressure, kPa = 101.3
Fixed: Temperature, K = 298.15
Property: Mass density, kg/m3 (Liquid); method: Vibrating tube method
Mole fraction of 2,2,4-trimethylpentane	Mass density, kg/m3	uncertainty
0	805.78	0.91
0.0518	795.39	0.93
0.1022	785.94	0.93
0.1512	777.34	0.93
0.2028	768.9	0.92
0.2535	761.12	0.92
0.3042	753.81	0.92
0.3535	747.12	0.92
0.4049	740.56	0.92
0.4534	734.72	0.92
0.5032	729.09	0.92
0.5534	723.73	0.92
0.6041	718.63	0.92
0.6558	713.71	0.92
0.7046	709.35	0.92
0.7521	705.31	0.92
0.8047	701.05	0.92
0.8521	697.48	0.92
0.9005	694.03	0.92
0.9502	690.74	0.92
1	687.79	0.91

System: 2,2,4-trimethylpentane + butan-1-ol; phases: Liquid
Fixed: Pressure, kPa = 101.3
Fixed: Temperature, K = 298.15
Fixed: Frequency, MHz = 3
Property: Speed of sound, m/s (Liquid); method: Single path-length method
Mole fraction of 2,2,4-trimethylpentane	Speed of sound, m/s	uncertainty
0	1240.08	1.12
0.0518	1223.4	1.16
0.1022	1208.27	1.16
0.1512	1194.3	1.15
0.2028	1181.46	1.15
0.2535	1169.42	1.15
0.3042	1157.88	1.14
0.3535	1148.58	1.14
0.4049	1139.14	1.14
0.4534	1130.8	1.13
0.5032	1123.41	1.13
0.5534	1116.56	1.13
0.6041	1110.26	1.13
0.6558	1104.47	1.13
0.7046	1099.63	1.13
0.7521	1095.4	1.13
0.8047	1091.07	1.13
0.8521	1087.91	1.12
0.9005	1085.06	1.12
0.9502	1082.82	1.12
1	1082.77	1.12

System: 2,2,4-trimethylpentane + butan-1-ol; phases: Liquid
Fixed: Pressure, kPa = 101.3
Fixed: Temperature, K = 298.15
Property: Refractive index (Na D-line) (Liquid); method: Standard Abbe refractometry
Mole fraction of 2,2,4-trimethylpentane	Refractive index (Na D-line)	uncertainty
0	1.397245	0.000326
0.0518	1.39663	0.000326
0.1022	1.396034	0.000326
0.1512	1.395447	0.000326
0.2028	1.394835	0.000326
0.2535	1.394263	0.000326
0.3042	1.393715	0.000326
0.3535	1.393184	0.000326
0.4049	1.392663	0.000326
0.4534	1.392177	0.000326
0.5032	1.391729	0.000326
0.5534	1.391279	0.000326
0.6041	1.39088	0.000326
0.6558	1.390499	0.000326
0.7046	1.390161	0.000326
0.7521	1.389876	0.000326
0.8047	1.389579	0.000326
0.8521	1.389341	0.000326
0.9005	1.389141	0.000326
0.9502	1.388972	0.000326
1	1.388975	0.000326

System: 2,2,4-trimethylpentane + butan-1-ol; phases: Liquid, Gas
Fixed: Pressure, kPa = 101.3
Property: Boiling temperature at pressure P, K (Liquid); method: Ebulliometric method (Recirculating still)
Mole fraction of 2,2,4-trimethylpentane	Boiling temperature at pressure P, K	uncertainty
0	390.25	0.09
0.005	388.96	0.14
0.0212	385.91	0.12
0.033	385.17	0.1
0.0425	383.97	0.12
0.0525	382.1	0.11
0.0805	379.36	0.1
0.0873	378.82	0.1
0.1202	377.06	0.1
0.1768	374.15	0.09
0.2518	371.63	0.09
0.3803	369.35	0.09
0.5028	368.24	0.09
0.6521	367.51	0.09
0.7542	367.3	0.09
0.7819	367.46	0.09
0.7828	367.36	0.09
0.8351	367.45	0.09
0.8749	367.59	0.09
0.8914	367.69	0.09
0.9032	367.8	0.09
0.9209	368.04	0.09
0.9406	368.4	0.09
0.9639	369.21	0.09
0.9827	370.42	0.1
1	372.16	0.09

System: 2,2,4-trimethylpentane + butan-1-ol; phases: Gas, Liquid
Fixed: Pressure, kPa = 101.3
Property: Mole fraction of 2,2,4-trimethylpentane (Gas); method: Density calibration data
Mole fraction of 2,2,4-trimethylpentane	Mole fraction of 2,2,4-trimethylpentane	uncertainty
0	0	
0.005	0.0385	0.0031
0.0212	0.132	0.0034
0.033	0.1863	0.0037
0.0425	0.2334	0.0044
0.0525	0.2848	0.0049
0.0805	0.3863	0.0064
0.0873	0.4107	0.0067
0.1202	0.4597	0.0073
0.1768	0.5457	0.0073
0.2518	0.6079	0.0064
0.3803	0.6671	0.0054
0.5028	0.7031	0.0049
0.6521	0.741	0.0043
0.7542	0.7592	0.004
0.7819	0.7713	0.0038
0.7828	0.7669	0.0039
0.8351	0.7856	0.0036
0.8749	0.8035	0.0033
0.8914	0.8153	0.0031
0.9032	0.8265	0.0029
0.9209	0.8414	0.0027
0.9406	0.8646	0.0024
0.9639	0.8991	0.002
0.9827	0.9455	0.0017
1	1	

System: 2,2,4-trimethylpentane + dibutyl ether; phases: Liquid
Fixed: Pressure, kPa = 101.3
Fixed: Temperature, K = 298.15
Property: Mass density, kg/m3 (Liquid); method: Vibrating tube method
Mole fraction of 2,2,4-trimethylpentane	Mass density, kg/m3	uncertainty
0	763.75	0.91
0.0503	760.07	0.91
0.1016	756.32	0.91
0.1493	752.81	0.91
0.1972	749.28	0.91
0.2496	745.31	0.91
0.3005	741.56	0.91
0.3509	737.8	0.91
0.4013	733.95	0.91
0.451	730.21	0.91
0.4994	726.58	0.91
0.5474	722.91	0.91
0.5978	719.07	0.91
0.6491	715.12	0.91
0.7016	711.08	0.91
0.7505	707.28	0.91
0.8028	703.2	0.91
0.8516	699.4	0.91
0.8989	695.7	0.91
0.9497	691.68	0.91
1	687.71	0.91

System: 2,2,4-trimethylpentane + dibutyl ether; phases: Liquid
Fixed: Pressure, kPa = 101.3
Fixed: Temperature, K = 298.15
Fixed: Frequency, MHz = 3
Property: Speed of sound, m/s (Liquid); method: Single path-length method
Mole fraction of 2,2,4-trimethylpentane	Speed of sound, m/s	uncertainty
0	1162.01	1.12
0.0503	1158.32	1.12
0.1016	1154.52	1.12
0.1493	1151.01	1.12
0.1972	1147.4	1.12
0.2496	1142.34	1.12
0.3005	1139.06	1.12
0.3509	1135.24	1.12
0.4013	1130.67	1.12
0.451	1127.13	1.12
0.4994	1123.67	1.12
0.5474	1120.26	1.12
0.5978	1116.25	1.12
0.6491	1112.09	1.12
0.7016	1107.8	1.12
0.7505	1103.76	1.12
0.8028	1099.45	1.12
0.8516	1095.36	1.12
0.8989	1091.39	1.12
0.9497	1087.06	1.12
1	1082.63	1.12

System: 2,2,4-trimethylpentane + dibutyl ether; phases: Liquid
Fixed: Pressure, kPa = 101.3
Fixed: Temperature, K = 298.15
Property: Refractive index (Na D-line) (Liquid); method: Standard Abbe refractometry
Mole fraction of 2,2,4-trimethylpentane	Refractive index (Na D-line)	uncertainty
0	1.396522	0.000326
0.0503	1.396181	0.000326
0.1016	1.395839	0.000326
0.1493	1.395512	0.000326
0.1972	1.395193	0.000326
0.2496	1.394828	0.000326
0.3005	1.394483	0.000326
0.3509	1.394108	0.000326
0.4013	1.393737	0.000326
0.451	1.393381	0.000326
0.4994	1.39304	0.000326
0.5474	1.392671	0.000326
0.5978	1.392271	0.000326
0.6491	1.391863	0.000326
0.7016	1.391458	0.000326
0.7505	1.391055	0.000326
0.8028	1.390638	0.000326
0.8516	1.390228	0.000326
0.8989	1.389848	0.000326
0.9497	1.389401	0.000326
1	1.388983	0.000326

System: 2,2,4-trimethylpentane + dibutyl ether; phases: Liquid, Gas
Fixed: Pressure, kPa = 101.3
Property: Boiling temperature at pressure P, K (Liquid); method: Ebulliometric method (Recirculating still)
Mole fraction of 2,2,4-trimethylpentane	Boiling temperature at pressure P, K	uncertainty
0	414.55	0.09
0.0573	410.11	0.1
0.1073	406.74	0.1
0.172	402.77	0.1
0.2112	400.5	0.1
0.2447	398.52	0.1
0.2813	396.83	0.1
0.3351	394.04	0.1
0.3688	392.58	0.09
0.4286	390.08	0.09
0.4879	387.55	0.09
0.5543	385.04	0.09
0.6397	382.15	0.09
0.7206	379.54	0.09
0.7913	377.51	0.09
0.8366	376.21	0.09
0.8988	374.39	0.09
0.9907	372.21	0.09
1	372.16	0.09

System: 2,2,4-trimethylpentane + dibutyl ether; phases: Gas, Liquid
Fixed: Pressure, kPa = 101.3
Property: Mole fraction of 2,2,4-trimethylpentane (Gas); method: Density calibration data
Mole fraction of 2,2,4-trimethylpentane	Mole fraction of 2,2,4-trimethylpentane	uncertainty
0	0	
0.0573	0.1409	0.0025
0.1073	0.2571	0.0042
0.172	0.3819	0.0061
0.2112	0.4471	0.0071
0.2447	0.4989	0.008
0.2813	0.5452	0.0073
0.3351	0.6111	0.0063
0.3688	0.6455	0.0058
0.4286	0.7006	0.0049
0.4879	0.75	0.0042
0.5543	0.7969	0.0034
0.6397	0.848	0.0026
0.7206	0.8899	0.0019
0.7913	0.9218	0.0014
0.8366	0.9407	0.0011
0.8988	0.9649	0.0008
0.9907	0.9969	0.0005
1	1	
