Measured thermophysical data. Salts effect on isobaric vapor-liquid equilibrium for separation of the azeotropic mixture allyl alcohol + water
Source: Fluid Phase Equilib., 2018, 10.1016/j.fluid.2017.10.025
Compound 1: 2-propenol, C3H6O, InChI=1S/C3H6O/c1-2-3-4/h2,4H,1,3H2, purity 99%
Compound 2: calcium chloride, CaCl2, InChI=1S/Ca.2ClH/h;2*1H/q+2;;/p-2, purity 98%
Compound 3: calcium nitrate, CaN2O6, InChI=1S/Ca.2NO3/c;2*2-1(3)4/q+2;2*-1, purity 99%
Compound 4: magnesium nitrate, MgN2O6, InChI=1S/Mg.2NO3/c;2*2-1(3)4/q+2;2*-1, purity 99%
Compound 5: water, H2O, InChI=1S/H2O/h1H2, purity 99.8%

System: 2-propenol; phases: Liquid
Property: Mass density, kg/m3 (Liquid); method: ARCHIM
Temperature, K	Pressure, kPa	Mass density, kg/m3	uncertainty
293.15	101.325	855	0.7

System: 2-propenol; phases: Liquid
Property: Refractive index (Na D-line) (Liquid); method: 2AWJ refractometer
Temperature, K	Pressure, kPa	Refractive index (Na D-line)	uncertainty
298.15	101.325	1.4129	0.0003

System: water; phases: Liquid
Property: Mass density, kg/m3 (Liquid); method: ARCHIM
Temperature, K	Pressure, kPa	Mass density, kg/m3	uncertainty
293.15	101.325	998.3	0.6

System: water; phases: Liquid
Property: Refractive index (Na D-line) (Liquid); method: 2AWJ refractometer
Temperature, K	Pressure, kPa	Refractive index (Na D-line)	uncertainty
298.15	101.325	1.3327	0.0002

System: 2-propenol + water; phases: Liquid, Gas
Fixed: Pressure, kPa = 101.3
Property: Boiling temperature at pressure P, K (Liquid); method: Ebulliometric method (Recirculating still)
Mole fraction of 2-propenol	Boiling temperature at pressure P, K	uncertainty
0	373.4	0.45
0.004	372.15	0.45
0.007	371.52	0.45
0.013	370.4	0.45
0.026	368.73	0.45
0.037	367.62	0.45
0.054	366.24	0.45
0.077	365.24	0.45
0.121	364	0.45
0.248	363.02	0.45
0.391	362.7	0.45
0.535	362.66	0.45
0.64	363.18	0.45
0.724	363.92	0.45
0.777	364.6	0.45
0.816	365.22	0.45
0.835	365.55	0.45
0.887	366.61	0.45
0.918	367.33	0.45
0.958	368.55	0.45
1	369.9	0.45

System: 2-propenol + water; phases: Gas, Liquid
Fixed: Pressure, kPa = 101.3
Property: Mole fraction of 2-propenol (Gas); method: Chromatography
Mole fraction of 2-propenol	Mole fraction of 2-propenol	uncertainty
0	0	
0.004	0.038	0.026
0.007	0.063	0.04
0.013	0.107	0.078
0.026	0.166	0.045
0.037	0.2	0.046
0.054	0.257	0.029
0.077	0.291	0.019
0.121	0.338	0.014
0.248	0.385	0.013
0.391	0.428	0.013
0.535	0.487	0.014
0.64	0.549	0.015
0.724	0.616	0.016
0.777	0.654	0.017
0.816	0.704	0.019
0.835	0.726	0.019
0.887	0.789	0.02
0.918	0.837	0.024
0.958	0.911	0.027
1	1	

System: 2-propenol + water + calcium chloride; phases: Liquid, Gas
Fixed: Pressure, kPa = 101.3
Property: Boiling temperature at pressure P, K (Liquid); method: Ebulliometric method (Recirculating still)
Solvent: Mole fraction of 2-propenol	Mass fraction of calcium chloride	Boiling temperature at pressure P, K	uncertainty
0.02	0.0532	368.4	0.45
0.08	0.0545	363.6	0.45
0.167	0.0533	362.25	0.45
0.257	0.055	362.1	0.45
0.38	0.0532	362.9	0.45
0.535	0.0553	364	0.45
0.657	0.0522	365.15	0.45
0.725	0.053	366.15	0.45
0.805	0.0512	367.3	0.45
0.911	0.0503	368.8	0.45
0.009	0.101	372.75	0.45
0.063	0.1034	364.99	0.45
0.14	0.1	363.87	0.45
0.284	0.1035	363.18	0.45
0.424	0.1026	364.37	0.45
0.506	0.1031	365.26	0.45
0.602	0.1017	366.2	0.45
0.689	0.1026	366.98	0.45
0.771	0.1035	368	0.45
0.865	0.102	369.55	0.45
0.017	0.1511	370.85	0.45
0.04	0.1509	367.25	0.45
0.082	0.1523	364.68	0.45
0.148	0.159	363.05	0.45
0.24	0.1561	363.05	0.45
0.36	0.1523	365.2	0.45
0.488	0.1576	366.25	0.45
0.665	0.1541	368.5	0.45
0.741	0.1523	369.55	0.45
0.801	0.1514	370.7	0.45

System: 2-propenol + water + calcium chloride; phases: Gas, Liquid
Fixed: Pressure, kPa = 101.3
Property: Mole fraction of 2-propenol (Gas); method: Chromatography
Solvent: Mole fraction of 2-propenol	Mass fraction of calcium chloride	Mole fraction of 2-propenol	uncertainty
0.02	0.0532	0.119	0.04
0.08	0.0545	0.312	0.044
0.167	0.0533	0.432	0.034
0.257	0.055	0.506	0.024
0.38	0.0532	0.591	0.023
0.535	0.0553	0.671	0.019
0.657	0.0522	0.728	0.019
0.725	0.053	0.758	0.019
0.805	0.0512	0.809	0.02
0.911	0.0503	0.886	0.018
0.009	0.101	0.095	0.047
0.063	0.1034	0.373	0.043
0.14	0.1	0.494	0.025
0.284	0.1035	0.598	0.024
0.424	0.1026	0.679	0.02
0.506	0.1031	0.709	0.019
0.602	0.1017	0.76	0.019
0.689	0.1026	0.799	0.018
0.771	0.1035	0.843	0.017
0.865	0.102	0.895	0.016
0.017	0.1511	0.231	0.078
0.04	0.1509	0.372	0.051
0.082	0.1523	0.497	0.025
0.148	0.159	0.59	0.024
0.24	0.1561	0.654	0.022
0.36	0.1523	0.701	0.018
0.488	0.1576	0.761	0.019
0.665	0.1541	0.83	0.016
0.741	0.1523	0.862	0.015
0.801	0.1514	0.883	0.015

System: 2-propenol + water + calcium chloride; phases: Gas, Liquid
Fixed: Pressure, kPa = 101.3
Property: Mole fraction of calcium chloride (Gas); method: Chromatography
Solvent: Mole fraction of 2-propenol	Mass fraction of calcium chloride	Mole fraction of calcium chloride	uncertainty
0.02	0.0532	0	
0.08	0.0545	0	
0.167	0.0533	0	
0.257	0.055	0	
0.38	0.0532	0	
0.535	0.0553	0	
0.657	0.0522	0	
0.725	0.053	0	
0.805	0.0512	0	
0.911	0.0503	0	
0.009	0.101	0	
0.063	0.1034	0	
0.14	0.1	0	
0.284	0.1035	0	
0.424	0.1026	0	
0.506	0.1031	0	
0.602	0.1017	0	
0.689	0.1026	0	
0.771	0.1035	0	
0.865	0.102	0	
0.017	0.1511	0	
0.04	0.1509	0	
0.082	0.1523	0	
0.148	0.159	0	
0.24	0.1561	0	
0.36	0.1523	0	
0.488	0.1576	0	
0.665	0.1541	0	
0.741	0.1523	0	
0.801	0.1514	0	

System: 2-propenol + water + calcium nitrate; phases: Liquid, Gas
Fixed: Pressure, kPa = 101.3
Property: Boiling temperature at pressure P, K (Liquid); method: Ebulliometric method (Recirculating still)
Solvent: Mole fraction of 2-propenol	Mass fraction of calcium nitrate	Boiling temperature at pressure P, K	uncertainty
0.026	0.0512	368.25	0.45
0.069	0.0545	364.35	0.45
0.211	0.0523	362.35	0.45
0.31	0.0533	362.2	0.45
0.452	0.0533	362.65	0.45
0.561	0.0522	363.55	0.45
0.705	0.053	364.58	0.45
0.802	0.0512	365.85	0.45
0.892	0.0503	367.45	0.45
0.942	0.051	368.75	0.45
0.032	0.1032	367.45	0.45
0.052	0.104	365.52	0.45
0.1	0.1033	363.7	0.45
0.163	0.1026	362.6	0.45
0.328	0.103	362.61	0.45
0.441	0.1017	363.35	0.45
0.565	0.1016	364.4	0.45
0.671	0.1035	365.55	0.45
0.766	0.102	366.65	0.45
0.857	0.1014	367.83	0.45
0.036	0.1511	366.75	0.45
0.059	0.1521	365	0.45
0.121	0.1534	363.48	0.45
0.186	0.1551	363.05	0.45
0.276	0.1523	363.1	0.45
0.392	0.1536	363.89	0.45
0.533	0.1541	364.95	0.45
0.637	0.1523	366.05	0.45
0.721	0.1514	367.05	0.45
0.807	0.152	368.5	0.45

System: 2-propenol + water + calcium nitrate; phases: Gas, Liquid
Fixed: Pressure, kPa = 101.3
Property: Mole fraction of 2-propenol (Gas); method: Chromatography
Solvent: Mole fraction of 2-propenol	Mass fraction of calcium nitrate	Mole fraction of 2-propenol	uncertainty
0.026	0.0512	0.156	0.028
0.069	0.0545	0.242	0.026
0.211	0.0523	0.409	0.024
0.31	0.0533	0.487	0.018
0.452	0.0533	0.573	0.017
0.561	0.0522	0.628	0.016
0.705	0.053	0.696	0.017
0.802	0.0512	0.751	0.02
0.892	0.0503	0.823	0.019
0.942	0.051	0.883	0.023
0.032	0.1032	0.213	0.035
0.052	0.104	0.272	0.03
0.1	0.1033	0.355	0.024
0.163	0.1026	0.413	0.018
0.328	0.103	0.532	0.017
0.441	0.1017	0.598	0.016
0.565	0.1016	0.661	0.016
0.671	0.1035	0.721	0.017
0.766	0.102	0.788	0.017
0.857	0.1014	0.839	0.015
0.036	0.1511	0.275	0.036
0.059	0.1521	0.336	0.025
0.121	0.1534	0.421	0.02
0.186	0.1551	0.482	0.019
0.276	0.1523	0.534	0.016
0.392	0.1536	0.599	0.016
0.533	0.1541	0.674	0.016
0.637	0.1523	0.731	0.016
0.721	0.1514	0.776	0.016
0.807	0.152	0.83	0.015

System: 2-propenol + water + calcium nitrate; phases: Gas, Liquid
Fixed: Pressure, kPa = 101.3
Property: Mole fraction of calcium nitrate (Gas); method: Chromatography
Solvent: Mole fraction of 2-propenol	Mass fraction of calcium nitrate	Mole fraction of calcium nitrate	uncertainty
0.026	0.0512	0	
0.069	0.0545	0	
0.211	0.0523	0	
0.31	0.0533	0	
0.452	0.0533	0	
0.561	0.0522	0	
0.705	0.053	0	
0.802	0.0512	0	
0.892	0.0503	0	
0.942	0.051	0	
0.032	0.1032	0	
0.052	0.104	0	
0.1	0.1033	0	
0.163	0.1026	0	
0.328	0.103	0	
0.441	0.1017	0	
0.565	0.1016	0	
0.671	0.1035	0	
0.766	0.102	0	
0.857	0.1014	0	
0.036	0.1511	0	
0.059	0.1521	0	
0.121	0.1534	0	
0.186	0.1551	0	
0.276	0.1523	0	
0.392	0.1536	0	
0.533	0.1541	0	
0.637	0.1523	0	
0.721	0.1514	0	
0.807	0.152	0	

System: 2-propenol + water + magnesium nitrate; phases: Liquid, Gas
Fixed: Pressure, kPa = 101.3
Property: Boiling temperature at pressure P, K (Liquid); method: Ebulliometric method (Recirculating still)
Solvent: Mole fraction of 2-propenol	Mass fraction of magnesium nitrate	Boiling temperature at pressure P, K	uncertainty
0.006	0.0522	371.8	0.86
0.066	0.055	364.6	0.88
0.14	0.0532	363.1	0.73
0.181	0.0553	362.8	0.71
0.292	0.0522	362.25	0.7
0.405	0.053	362.65	0.51
0.584	0.0512	363.75	0.73
0.657	0.0503	364.85	0.83
0.745	0.0501	365.85	0.81
0.899	0.0521	368.5	0.86
0.011	0.1034	371.8	1.19
0.026	0.104	370.2	1.19
0.068	0.1026	366.95	0.87
0.158	0.1031	365.2	0.53
0.226	0.1017	364.7	0.57
0.393	0.1026	363.65	0.67
0.491	0.1035	365.05	0.71
0.556	0.102	366.2	0.7
0.657	0.1011	367.6	0.66
0.726	0.1007	368.5	0.84
0.017	0.1523	371.35	1.03
0.101	0.1576	364.95	0.78
0.158	0.1541	364.75	0.45
0.252	0.1523	365.2	0.47
0.409	0.1514	366.67	0.82
0.486	0.1523	367.18	0.72
0.583	0.1525	368.05	0.6
0.638	0.153	368.5	0.52
0.816	0.1517	369.85	0.49

System: 2-propenol + water + magnesium nitrate; phases: Gas, Liquid
Fixed: Pressure, kPa = 101.3
Property: Mole fraction of 2-propenol (Gas); method: Chromatography
Solvent: Mole fraction of 2-propenol	Mass fraction of magnesium nitrate	Mole fraction of 2-propenol	uncertainty
0.006	0.0522	0.029	0.025
0.066	0.055	0.231	0.041
0.14	0.0532	0.356	0.028
0.181	0.0553	0.404	0.023
0.292	0.0522	0.499	0.021
0.405	0.053	0.572	0.02
0.584	0.0512	0.656	0.018
0.657	0.0503	0.69	0.017
0.745	0.0501	0.737	0.017
0.899	0.0521	0.855	0.019
0.011	0.1034	0.08	0.054
0.026	0.104	0.163	0.05
0.068	0.1026	0.305	0.029
0.158	0.1031	0.443	0.026
0.226	0.1017	0.499	0.022
0.393	0.1026	0.616	0.017
0.491	0.1035	0.666	0.015
0.556	0.102	0.689	0.016
0.657	0.1011	0.73	0.016
0.726	0.1007	0.77	0.018
0.017	0.1523	0.172	0.043
0.101	0.1576	0.46	0.033
0.158	0.1541	0.516	0.022
0.252	0.1523	0.575	0.019
0.409	0.1514	0.65	0.015
0.486	0.1523	0.685	0.015
0.583	0.1525	0.73	0.015
0.638	0.153	0.759	0.017
0.816	0.1517	0.856	0.016

System: 2-propenol + water + magnesium nitrate; phases: Gas, Liquid
Fixed: Pressure, kPa = 101.3
Property: Mole fraction of magnesium nitrate (Gas); method: Chromatography
Solvent: Mole fraction of 2-propenol	Mass fraction of magnesium nitrate	Mole fraction of magnesium nitrate	uncertainty
0.006	0.0522	0	
0.066	0.055	0	
0.14	0.0532	0	
0.181	0.0553	0	
0.292	0.0522	0	
0.405	0.053	0	
0.584	0.0512	0	
0.657	0.0503	0	
0.745	0.0501	0	
0.899	0.0521	0	
0.011	0.1034	0	
0.026	0.104	0	
0.068	0.1026	0	
0.158	0.1031	0	
0.226	0.1017	0	
0.393	0.1026	0	
0.491	0.1035	0	
0.556	0.102	0	
0.657	0.1011	0	
0.726	0.1007	0	
0.017	0.1523	0	
0.101	0.1576	0	
0.158	0.1541	0	
0.252	0.1523	0	
0.409	0.1514	0	
0.486	0.1523	0	
0.583	0.1525	0	
0.638	0.153	0	
0.816	0.1517	0	
