Measured thermophysical data. Isobaric vapor-liquid equilibrium for chloroform + isopropanol + 1,3-dimethylimidazolium dimethylphosphate at 101.3 kPa
Source: Fluid Phase Equilib., 2018, 10.1016/j.fluid.2018.03.011
Compound 1: trichloromethane, CHCl3, InChI=1S/CHCl3/c2-1(3)4/h1H, purity 99.9%
Compound 2: propan-2-ol, C3H8O, InChI=1S/C3H8O/c1-3(2)4/h3-4H,1-2H3, purity 99.9%
Compound 3: 1,3-dimethylimidazolium dimethylphosphate, C7H15N2O4P, InChI=1S/C5H9N2.C2H7O4P/c1-6-3-4-7(2)5-6;1-5-7(3,4)6-2/h3-5H,1-2H3;1-2H3,(H,3,4)/q+1;/p-1, purity 99%

System: trichloromethane + propan-2-ol; phases: Liquid, Gas
Fixed: Pressure, kPa = 101.3
Property: Boiling temperature at pressure P, K (Liquid); method: Ebulliometric method (Recirculating still)
Mole fraction of trichloromethane	Boiling temperature at pressure P, K	uncertainty
0.076	351.05	0.22
0.176	346.75	0.2
0.268	343.95	0.19
0.342	340.95	0.18
0.434	338.85	0.15
0.534	337.25	0.14
0.645	335.85	0.14
0.795	334.75	0.13
0.898	334.35	0.13
0.948	334.25	0.13

System: trichloromethane + propan-2-ol; phases: Gas, Liquid
Fixed: Pressure, kPa = 101.3
Property: Mole fraction of trichloromethane (Gas); method: Chromatography
Mole fraction of trichloromethane	Mole fraction of trichloromethane	uncertainty
0.076	0.21	0.009
0.176	0.404	0.008
0.268	0.525	0.008
0.342	0.605	0.006
0.434	0.676	0.006
0.534	0.739	0.005
0.645	0.787	0.005
0.795	0.854	0.005
0.898	0.911	0.005
0.948	0.949	0.005

System: trichloromethane + propan-2-ol + 1,3-dimethylimidazolium dimethylphosphate; phases: Liquid, Gas
Fixed: Pressure, kPa = 101.3
Property: Boiling temperature at pressure P, K (Liquid); method: Ebulliometric method (Recirculating still)
Mole fraction of trichloromethane	Mole fraction of 1,3-dimethylimidazolium dimethylphosphate	Boiling temperature at pressure P, K	uncertainty
0.068	0.05	352.05	0.21
0.158	0.05	348.65	0.2
0.242	0.054	345.55	0.17
0.322	0.05	343.25	0.18
0.422	0.05	340.15	0.16
0.555	0.05	337.55	0.15
0.668	0.05	336.15	0.14
0.759	0.05	335.15	0.14
0.856	0.05	334.75	0.14
0.894	0.05	334.65	0.14
0.059	0.1	353.65	0.22
0.149	0.1	350.15	0.21
0.227	0.1	347.05	0.2
0.29	0.1	345.05	0.2
0.374	0.1	341.7	0.19
0.46	0.1	339.55	0.16
0.548	0.1	337.65	0.15
0.655	0.1	336.45	0.14
0.74	0.1	335.8	0.14
0.841	0.101	335.55	0.14
0.053	0.15	355.45	0.23
0.14	0.151	351.75	0.23
0.207	0.15	348.65	0.21
0.286	0.138	345.85	0.17
0.325	0.15	344.25	0.2
0.404	0.15	341.55	0.18
0.488	0.15	339.65	0.16
0.576	0.15	337.85	0.15
0.672	0.15	336.85	0.14
0.799	0.15	336.2	0.14

System: trichloromethane + propan-2-ol + 1,3-dimethylimidazolium dimethylphosphate; phases: Liquid, Gas
Fixed: Pressure, kPa = 101.3
Property: Mole fraction of 1,3-dimethylimidazolium dimethylphosphate (Liquid); method: Chromatography
Property: Mole fraction of 1,3-dimethylimidazolium dimethylphosphate (Gas); method: Chromatography
Property: Mole fraction of trichloromethane (Gas); method: Chromatography
Temperature, K	Mole fraction of trichloromethane	Mole fraction of 1,3-dimethylimidazolium dimethylphosphate	uncertainty	Mole fraction of 1,3-dimethylimidazolium dimethylphosphate	uncertainty	Mole fraction of trichloromethane	uncertainty
352.05	0.068	0.05	0.002	0		0.187	
343.25	0.322	0.05	0.002	0		0.587	
340.15	0.422	0.05	0.002	0		0.682	
336.45	0.655	0.1	0.002	0		0.864	
337.55	0.555	0.05	0.002	0		0.776	
336.15	0.668	0.05	0.002	0		0.829	
335.15	0.759	0.05	0.002	0		0.872	
353.65	0.059	0.1	0.002	0		0.168	
334.75	0.856	0.05	0.002	0		0.929	
350.15	0.149	0.1	0.002	0		0.355	
347.05	0.227	0.1	0.002	0		0.48	
344.25	0.325	0.15	0.002	0		0.625	
345.05	0.29	0.1	0.002	0		0.565	
341.7	0.374	0.1	0.002	0		0.659	
339.55	0.46	0.1	0.002	0		0.738	
335.8	0.74	0.1	0.002	0		0.902	
337.65	0.548	0.1	0.002	0		0.8	
348.65	0.158	0.05	0.002	0		0.368	
335.55	0.841	0.101	0.002	0		0.96	
355.45	0.053	0.15	0.002	0		0.148	
351.75	0.14	0.151	0.002	0		0.34	
348.65	0.207	0.15	0.002	0		0.461	
341.55	0.404	0.15	0.002	0		0.712	
345.85	0.286	0.138	0.002	0		0.568	
334.65	0.894	0.05	0.002	0		0.955	
339.65	0.488	0.15	0.002	0		0.787	
337.85	0.576	0.15	0.002	0		0.849	
336.85	0.672	0.15	0.002	0		0.908	
345.55	0.242	0.054	0.002	0		0.495	
336.2	0.799	0.15	0.002	0		0.975	
