Measured thermophysical data. Volumetric characterization of pyridinium-based ionic liquids
Source: Fluid Phase Equilib., 2012, 10.1016/j.fluid.2011.12.029
Compound 1: 2-(5-chloro-2-((1-propylpyridinium-2-yl)oxy)pyridinium-1-yl)ethyl sulfate tetrafluoroborate, C15H18BClF4N2O5S, InChI=1S/C15H18ClN2O5S.BF4/c1-2-8-17-9-4-3-5-14(17)23-15-7-6-13(16)12-18(15)10-11-22-24(19,20)21;2-1(3,4)5/h3-7,9,12H,2,8,10-11H2,1H3;/q+1;-1, purity 99%
Compound 2: 1-butylpyridinium tetrafluoroborate, C9H14BF4N, InChI=1S/C9H14N.BF4/c1-2-3-7-10-8-5-4-6-9-10;2-1(3,4)5/h4-6,8-9H,2-3,7H2,1H3;/q+1;-1, purity 99%
Compound 3: 1-butylpyridinium trifluoromethanesulfonate, C10H14F3NO3S, InChI=1S/C9H14N.CHF3O3S/c1-2-3-7-10-8-5-4-6-9-10;2-1(3,4)8(5,6)7/h4-6,8-9H,2-3,7H2,1H3;(H,5,6,7)/q+1;/p-1, purity 99%
Compound 4: 1-butyl-3-methylpyridinium dicyanamide, C12H16N4, InChI=1S/C10H16N.C2N3/c1-3-4-7-11-8-5-6-10(2)9-11;3-1-5-2-4/h5-6,8-9H,3-4,7H2,1-2H3;/q+1;-1, purity 98%
Compound 5: N-octyl-3-methylpyridinium tetrafluoroborate, C14H24BF4N, InChI=1S/C14H24N.BF4/c1-3-4-5-6-7-8-11-15-12-9-10-14(2)13-15;2-1(3,4)5/h9-10,12-13H,3-8,11H2,1-2H3;/q+1;-1, purity 98%

System: 2-(5-chloro-2-((1-propylpyridinium-2-yl)oxy)pyridinium-1-yl)ethyl sulfate tetrafluoroborate; phases: Liquid
Property: Mass density, kg/m3 (Liquid); method: Vibrating tube method
Temperature, K	Pressure, kPa	Mass density, kg/m3	uncertainty
283.15	100	1264.92	0.45
283.15	5000	1266.85	0.5
283.15	10000	1269.01	0.56
283.15	15000	1270.98	0.61
283.15	20000	1273.05	0.67
283.15	25000	1274.97	0.73
283.15	30000	1276.87	0.78
283.15	35000	1278.73	0.84
283.15	40000	1280.58	0.9
283.15	45000	1282.38	0.96
283.15	50000	1284.12	1.02
283.15	55000	1285.76	1.08
283.15	60000	1287.38	1.14
283.15	65000	1289.03	1.2
288.15	100	1260.92	0.45
288.15	5000	1262.99	0.5
288.15	10000	1265.09	0.55
288.15	15000	1267.22	0.61
288.15	20000	1269.26	0.66
288.15	25000	1271.11	0.72
288.15	30000	1273.09	0.78
288.15	35000	1275.02	0.83
288.15	40000	1276.87	0.89
288.15	45000	1278.72	0.95
288.15	50000	1280.38	1.01
288.15	55000	1282.18	1.07
288.15	60000	1283.78	1.13
288.15	65000	1285.51	1.19
293.15	100	1257.14	0.44
293.15	5000	1259.28	0.5
293.15	10000	1261.4	0.55
293.15	15000	1263.43	0.6
293.15	20000	1265.5	0.66
293.15	25000	1267.47	0.71
293.15	30000	1269.5	0.77
293.15	35000	1271.32	0.82
293.15	40000	1273.23	0.88
293.15	45000	1275.01	0.94
293.15	50000	1276.8	1
293.15	55000	1278.62	1.06
293.15	60000	1280.22	1.12
293.15	65000	1281.96	1.18
298.15	100	1253.37	0.44
298.15	5000	1255.54	0.49
298.15	10000	1257.73	0.54
298.15	15000	1259.9	0.6
298.15	20000	1262.01	0.65
298.15	25000	1263.98	0.71
298.15	30000	1265.98	0.76
298.15	35000	1267.9	0.82
298.15	40000	1269.81	0.87
298.15	45000	1271.6	0.93
298.15	50000	1273.47	0.99
298.15	55000	1275.21	1.05
298.15	60000	1276.93	1.11
298.15	65000	1278.65	1.17
303.15	100	1249.77	0.44
303.15	5000	1252.02	0.49
303.15	10000	1254.17	0.54
303.15	15000	1256.38	0.59
303.15	20000	1258.37	0.64
303.15	25000	1260.46	0.7
303.15	30000	1262.48	0.75
303.15	35000	1264.47	0.81
303.15	40000	1266.35	0.87
303.15	45000	1268.13	0.92
303.15	50000	1269.94	0.98
303.15	55000	1271.81	1.04
303.15	60000	1273.55	1.1
303.15	65000	1275.21	1.16
308.15	100	1246.14	0.44
308.15	5000	1248.19	0.48
308.15	10000	1250.57	0.53
308.15	15000	1252.6	0.59
308.15	20000	1254.8	0.64
308.15	25000	1256.85	0.69
308.15	30000	1258.87	0.75
308.15	35000	1260.93	0.8
308.15	40000	1262.88	0.86
308.15	45000	1264.72	0.91
308.15	50000	1266.61	0.97
308.15	55000	1268.36	1.03
308.15	60000	1270.11	1.09
308.15	65000	1271.84	1.15
313.15	100	1242.44	0.43
313.15	5000	1244.75	0.48
313.15	10000	1247.02	0.53
313.15	15000	1249.22	0.58
313.15	20000	1251.35	0.63
313.15	25000	1253.46	0.69
313.15	30000	1255.5	0.74
313.15	35000	1257.51	0.79
313.15	40000	1259.52	0.85
313.15	45000	1261.48	0.9
313.15	50000	1263.42	0.96
313.15	55000	1265.2	1.02
313.15	60000	1267	1.08
313.15	65000	1268.66	1.13
318.15	100	1238.82	0.43
318.15	5000	1241.01	0.48
318.15	10000	1243.39	0.53
318.15	15000	1245.52	0.58
318.15	20000	1247.69	0.63
318.15	25000	1249.81	0.68
318.15	30000	1251.93	0.73
318.15	35000	1253.97	0.79
318.15	40000	1255.96	0.84
318.15	45000	1257.93	0.9
318.15	50000	1259.75	0.95
318.15	55000	1261.48	1.01
318.15	60000	1263.53	1.07
318.15	65000	1265.2	1.12
323.15	100	1235.3	0.43
323.15	5000	1237.63	0.47
323.15	10000	1239.98	0.52
323.15	15000	1242.24	0.57
323.15	20000	1244.44	0.62
323.15	25000	1246.62	0.67
323.15	30000	1248.63	0.73
323.15	35000	1250.7	0.78
323.15	40000	1252.76	0.83
323.15	45000	1254.69	0.89
323.15	50000	1256.63	0.94
323.15	55000	1258.52	1
323.15	60000	1260.31	1.05
323.15	65000	1262.15	1.11
328.15	100	1231.68	0.42
328.15	5000	1233.97	0.47
328.15	10000	1236.25	0.52
328.15	15000	1238.61	0.57
328.15	20000	1240.87	0.62
328.15	25000	1243.01	0.67
328.15	30000	1245.19	0.72
328.15	35000	1247.33	0.77
328.15	40000	1249.3	0.82
328.15	45000	1251.23	0.88
328.15	50000	1253.26	0.93
328.15	55000	1255.02	0.99
328.15	60000	1256.98	1.04
328.15	65000	1258.79	1.1
333.15	100	1228.25	0.42
333.15	5000	1230.56	0.46
333.15	10000	1232.96	0.51
333.15	15000	1235.23	0.56
333.15	20000	1237.65	0.61
333.15	25000	1239.91	0.66
333.15	30000	1241.9	0.71
333.15	35000	1244.07	0.76
333.15	40000	1246.16	0.82
333.15	45000	1248.15	0.87
333.15	50000	1250.14	0.92
333.15	55000	1252	0.98
333.15	60000	1253.93	1.03
333.15	65000	1255.7	1.09

System: 2-(5-chloro-2-((1-propylpyridinium-2-yl)oxy)pyridinium-1-yl)ethyl sulfate tetrafluoroborate; phases: Liquid
Property: Isothermal compressibility, 1/kPa (Liquid); method: TRIDEN
Temperature, K	Pressure, kPa	Isothermal compressibility, 1/kPa	uncertainty
283.15	100	3.369e-07	1.68e-08
283.15	5000	3.286e-07	1.64e-08
283.15	10000	3.205e-07	1.6e-08
283.15	15000	3.128e-07	1.56e-08
283.15	20000	3.054e-07	1.53e-08
283.15	25000	2.985e-07	1.49e-08
283.15	30000	2.918e-07	1.46e-08
283.15	35000	2.854e-07	1.43e-08
283.15	40000	2.794e-07	1.4e-08
283.15	45000	2.735e-07	1.37e-08
283.15	50000	2.68e-07	1.34e-08
283.15	55000	2.626e-07	1.31e-08
283.15	60000	2.575e-07	1.29e-08
283.15	65000	2.526e-07	1.26e-08
288.15	100	3.429e-07	1.71e-08
288.15	5000	3.342e-07	1.67e-08
288.15	10000	3.259e-07	1.63e-08
288.15	15000	3.179e-07	1.59e-08
288.15	20000	3.103e-07	1.55e-08
288.15	25000	3.031e-07	1.52e-08
288.15	30000	2.963e-07	1.48e-08
288.15	35000	2.897e-07	1.45e-08
288.15	40000	2.834e-07	1.42e-08
288.15	45000	2.775e-07	1.39e-08
288.15	50000	2.717e-07	1.36e-08
288.15	55000	2.662e-07	1.33e-08
288.15	60000	2.61e-07	1.31e-08
288.15	65000	2.559e-07	1.28e-08
293.15	100	3.49e-07	1.75e-08
293.15	5000	3.401e-07	1.7e-08
293.15	10000	3.314e-07	1.66e-08
293.15	15000	3.232e-07	1.62e-08
293.15	20000	3.153e-07	1.58e-08
293.15	25000	3.079e-07	1.54e-08
293.15	30000	3.008e-07	1.5e-08
293.15	35000	2.941e-07	1.47e-08
293.15	40000	2.876e-07	1.44e-08
293.15	45000	2.815e-07	1.41e-08
293.15	50000	2.756e-07	1.38e-08
293.15	55000	2.699e-07	1.35e-08
293.15	60000	2.645e-07	1.32e-08
293.15	65000	2.593e-07	1.3e-08
298.15	100	3.554e-07	1.78e-08
298.15	5000	3.461e-07	1.73e-08
298.15	10000	3.371e-07	1.69e-08
298.15	15000	3.286e-07	1.64e-08
298.15	20000	3.205e-07	1.6e-08
298.15	25000	3.128e-07	1.56e-08
298.15	30000	3.055e-07	1.53e-08
298.15	35000	2.986e-07	1.49e-08
298.15	40000	2.919e-07	1.46e-08
298.15	45000	2.856e-07	1.43e-08
298.15	50000	2.795e-07	1.4e-08
298.15	55000	2.737e-07	1.37e-08
298.15	60000	2.681e-07	1.34e-08
298.15	65000	2.628e-07	1.31e-08
303.15	100	3.618e-07	1.81e-08
303.15	5000	3.522e-07	1.76e-08
303.15	10000	3.429e-07	1.71e-08
303.15	15000	3.341e-07	1.67e-08
303.15	20000	3.258e-07	1.63e-08
303.15	25000	3.178e-07	1.59e-08
303.15	30000	3.103e-07	1.55e-08
303.15	35000	3.031e-07	1.52e-08
303.15	40000	2.963e-07	1.48e-08
303.15	45000	2.898e-07	1.45e-08
303.15	50000	2.835e-07	1.42e-08
303.15	55000	2.776e-07	1.39e-08
303.15	60000	2.718e-07	1.36e-08
303.15	65000	2.664e-07	1.33e-08
308.15	100	3.685e-07	1.84e-08
308.15	5000	3.585e-07	1.79e-08
308.15	10000	3.489e-07	1.74e-08
308.15	15000	3.398e-07	1.7e-08
308.15	20000	3.312e-07	1.66e-08
308.15	25000	3.23e-07	1.62e-08
308.15	30000	3.152e-07	1.58e-08
308.15	35000	3.078e-07	1.54e-08
308.15	40000	3.008e-07	1.5e-08
308.15	45000	2.94e-07	1.47e-08
308.15	50000	2.876e-07	1.44e-08
308.15	55000	2.815e-07	1.41e-08
308.15	60000	2.756e-07	1.38e-08
308.15	65000	2.7e-07	1.35e-08
313.15	100	3.754e-07	1.88e-08
313.15	5000	3.65e-07	1.83e-08
313.15	10000	3.551e-07	1.78e-08
313.15	15000	3.456e-07	1.73e-08
313.15	20000	3.367e-07	1.68e-08
313.15	25000	3.282e-07	1.64e-08
313.15	30000	3.202e-07	1.6e-08
313.15	35000	3.126e-07	1.56e-08
313.15	40000	3.053e-07	1.53e-08
313.15	45000	2.984e-07	1.49e-08
313.15	50000	2.918e-07	1.46e-08
313.15	55000	2.855e-07	1.43e-08
313.15	60000	2.794e-07	1.4e-08
313.15	65000	2.737e-07	1.37e-08
318.15	100	3.824e-07	1.91e-08
318.15	5000	3.717e-07	1.86e-08
318.15	10000	3.614e-07	1.81e-08
318.15	15000	3.516e-07	1.76e-08
318.15	20000	3.424e-07	1.71e-08
318.15	25000	3.336e-07	1.67e-08
318.15	30000	3.253e-07	1.63e-08
318.15	35000	3.175e-07	1.59e-08
318.15	40000	3.1e-07	1.55e-08
318.15	45000	3.028e-07	1.51e-08
318.15	50000	2.96e-07	1.48e-08
318.15	55000	2.895e-07	1.45e-08
318.15	60000	2.833e-07	1.42e-08
318.15	65000	2.774e-07	1.39e-08
323.15	100	3.897e-07	1.95e-08
323.15	5000	3.785e-07	1.89e-08
323.15	10000	3.678e-07	1.84e-08
323.15	15000	3.577e-07	1.79e-08
323.15	20000	3.482e-07	1.74e-08
323.15	25000	3.391e-07	1.7e-08
323.15	30000	3.306e-07	1.65e-08
323.15	35000	3.224e-07	1.61e-08
323.15	40000	3.147e-07	1.57e-08
323.15	45000	3.074e-07	1.54e-08
323.15	50000	3.004e-07	1.5e-08
323.15	55000	2.937e-07	1.47e-08
323.15	60000	2.873e-07	1.44e-08
323.15	65000	2.812e-07	1.41e-08
328.15	100	3.971e-07	1.99e-08
328.15	5000	3.855e-07	1.93e-08
328.15	10000	3.744e-07	1.87e-08
328.15	15000	3.64e-07	1.82e-08
328.15	20000	3.541e-07	1.77e-08
328.15	25000	3.447e-07	1.72e-08
328.15	30000	3.359e-07	1.68e-08
328.15	35000	3.275e-07	1.64e-08
328.15	40000	3.195e-07	1.6e-08
328.15	45000	3.12e-07	1.56e-08
328.15	50000	3.048e-07	1.52e-08
328.15	55000	2.979e-07	1.49e-08
328.15	60000	2.913e-07	1.46e-08
328.15	65000	2.851e-07	1.43e-08
333.15	100	4.047e-07	2.02e-08
333.15	5000	3.927e-07	1.96e-08
333.15	10000	3.812e-07	1.91e-08
333.15	15000	3.703e-07	1.85e-08
333.15	20000	3.601e-07	1.8e-08
333.15	25000	3.505e-07	1.75e-08
333.15	30000	3.413e-07	1.71e-08
333.15	35000	3.327e-07	1.66e-08
333.15	40000	3.245e-07	1.62e-08
333.15	45000	3.167e-07	1.58e-08
333.15	50000	3.092e-07	1.55e-08
333.15	55000	3.022e-07	1.51e-08
333.15	60000	2.954e-07	1.48e-08
333.15	65000	2.89e-07	1.45e-08

System: 1-butylpyridinium tetrafluoroborate; phases: Liquid
Property: Mass density, kg/m3 (Liquid); method: Vibrating tube method
Temperature, K	Pressure, kPa	Mass density, kg/m3	uncertainty
283.15	100	1225.36	0.42
283.15	5000	1227.5	0.46
283.15	10000	1229.65	0.51
283.15	15000	1231.84	0.56
283.15	20000	1233.82	0.6
283.15	25000	1235.92	0.65
283.15	30000	1237.85	0.7
283.15	35000	1239.79	0.75
283.15	40000	1241.64	0.81
283.15	45000	1243.52	0.86
283.15	50000	1245.28	0.91
283.15	55000	1247	0.96
283.15	60000	1248.71	1.02
283.15	65000	1250.41	1.07
288.15	100	1221.64	0.41
288.15	5000	1223.77	0.46
288.15	10000	1225.95	0.5
288.15	15000	1228.23	0.55
288.15	20000	1230.2	0.6
288.15	25000	1232.3	0.65
288.15	30000	1234.24	0.7
288.15	35000	1236.23	0.75
288.15	40000	1238.24	0.8
288.15	45000	1240.13	0.85
288.15	50000	1241.78	0.9
288.15	55000	1243.6	0.95
288.15	60000	1245.23	1.01
288.15	65000	1247.03	1.06
293.15	100	1218.02	0.41
293.15	5000	1220.21	0.45
293.15	10000	1222.35	0.5
293.15	15000	1224.51	0.55
293.15	20000	1226.68	0.59
293.15	25000	1228.73	0.64
293.15	30000	1230.74	0.69
293.15	35000	1232.84	0.74
293.15	40000	1234.73	0.79
293.15	45000	1236.53	0.84
293.15	50000	1238.41	0.89
293.15	55000	1240.31	0.94
293.15	60000	1241.96	1
293.15	65000	1243.85	1.05
298.15	100	1214.34	0.41
298.15	5000	1216.62	0.45
298.15	10000	1218.93	0.5
298.15	15000	1221.01	0.54
298.15	20000	1223.33	0.59
298.15	25000	1225.43	0.63
298.15	30000	1227.48	0.68
298.15	35000	1229.43	0.73
298.15	40000	1231.45	0.78
298.15	45000	1233.36	0.83
298.15	50000	1235.32	0.88
298.15	55000	1237.1	0.93
298.15	60000	1238.81	0.99
298.15	65000	1240.44	1.04
303.15	100	1210.91	0.4
303.15	5000	1213.26	0.45
303.15	10000	1215.59	0.49
303.15	15000	1217.74	0.54
303.15	20000	1219.92	0.58
303.15	25000	1222.02	0.63
303.15	30000	1224.11	0.68
303.15	35000	1226.12	0.72
303.15	40000	1228.08	0.77
303.15	45000	1229.97	0.82
303.15	50000	1231.94	0.87
303.15	55000	1233.82	0.92
303.15	60000	1235.58	0.98
303.15	65000	1237.3	1.03
308.15	100	1207.32	0.4
308.15	5000	1209.57	0.44
308.15	10000	1211.82	0.49
308.15	15000	1214.09	0.53
308.15	20000	1216.23	0.58
308.15	25000	1218.48	0.62
308.15	30000	1220.54	0.67
308.15	35000	1222.62	0.72
308.15	40000	1224.5	0.76
308.15	45000	1226.48	0.81
308.15	50000	1228.36	0.86
308.15	55000	1230.34	0.91
308.15	60000	1232.17	0.97
308.15	65000	1234.06	1.02
313.15	100	1203.87	0.4
313.15	5000	1206.23	0.44
313.15	10000	1208.56	0.48
313.15	15000	1210.88	0.53
313.15	20000	1213.11	0.57
313.15	25000	1215.28	0.62
313.15	30000	1217.47	0.66
313.15	35000	1219.51	0.71
313.15	40000	1221.56	0.76
313.15	45000	1223.48	0.81
313.15	50000	1225.54	0.86
313.15	55000	1227.32	0.9
313.15	60000	1229.18	0.96
313.15	65000	1231.01	1.01
318.15	100	1200.36	0.4
318.15	5000	1202.66	0.44
318.15	10000	1205.15	0.48
318.15	15000	1207.31	0.52
318.15	20000	1209.58	0.56
318.15	25000	1211.7	0.61
318.15	30000	1213.85	0.65
318.15	35000	1216.03	0.7
318.15	40000	1218.05	0.75
318.15	45000	1220.04	0.8
318.15	50000	1222.02	0.85
318.15	55000	1223.9	0.89
318.15	60000	1225.83	0.95
318.15	65000	1227.74	1
323.15	100	1196.96	0.39
323.15	5000	1199.29	0.43
323.15	10000	1201.77	0.47
323.15	15000	1204.12	0.52
323.15	20000	1206.47	0.56
323.15	25000	1208.68	0.6
323.15	30000	1210.86	0.65
323.15	35000	1212.95	0.69
323.15	40000	1215.03	0.74
323.15	45000	1217	0.79
323.15	50000	1218.98	0.84
323.15	55000	1220.89	0.89
323.15	60000	1222.84	0.94
323.15	65000	1224.65	0.99
328.15	100	1193.36	0.39
328.15	5000	1195.72	0.43
328.15	10000	1198.11	0.47
328.15	15000	1200.54	0.51
328.15	20000	1202.82	0.55
328.15	25000	1205.08	0.6
328.15	30000	1207.36	0.64
328.15	35000	1209.57	0.69
328.15	40000	1211.63	0.73
328.15	45000	1213.66	0.78
328.15	50000	1215.6	0.83
328.15	55000	1217.56	0.88
328.15	60000	1219.5	0.93
328.15	65000	1221.56	0.98
333.15	100	1190.07	0.39
333.15	5000	1192.59	0.43
333.15	10000	1195	0.47
333.15	15000	1197.4	0.51
333.15	20000	1199.91	0.55
333.15	25000	1202.04	0.59
333.15	30000	1204.36	0.64
333.15	35000	1206.49	0.68
333.15	40000	1208.69	0.73
333.15	45000	1210.67	0.77
333.15	50000	1212.88	0.82
333.15	55000	1214.74	0.87
333.15	60000	1216.56	0.92
333.15	65000	1218.57	0.97

System: 1-butylpyridinium tetrafluoroborate; phases: Liquid
Property: Isothermal compressibility, 1/kPa (Liquid); method: TRIDEN
Temperature, K	Pressure, kPa	Isothermal compressibility, 1/kPa	uncertainty
283.15	100	3.627e-07	1.81e-08
283.15	5000	3.534e-07	1.77e-08
283.15	10000	3.444e-07	1.72e-08
283.15	15000	3.359e-07	1.68e-08
283.15	20000	3.278e-07	1.64e-08
283.15	25000	3.201e-07	1.6e-08
283.15	30000	3.128e-07	1.56e-08
283.15	35000	3.058e-07	1.53e-08
283.15	40000	2.992e-07	1.5e-08
283.15	45000	2.928e-07	1.46e-08
283.15	50000	2.867e-07	1.43e-08
283.15	55000	2.808e-07	1.4e-08
283.15	60000	2.752e-07	1.38e-08
283.15	65000	2.699e-07	1.35e-08
288.15	100	3.687e-07	1.84e-08
288.15	5000	3.591e-07	1.8e-08
288.15	10000	3.498e-07	1.75e-08
288.15	15000	3.411e-07	1.71e-08
288.15	20000	3.327e-07	1.66e-08
288.15	25000	3.248e-07	1.62e-08
288.15	30000	3.173e-07	1.59e-08
288.15	35000	3.101e-07	1.55e-08
288.15	40000	3.033e-07	1.52e-08
288.15	45000	2.967e-07	1.48e-08
288.15	50000	2.904e-07	1.45e-08
288.15	55000	2.844e-07	1.42e-08
288.15	60000	2.787e-07	1.39e-08
288.15	65000	2.732e-07	1.37e-08
293.15	100	3.749e-07	1.87e-08
293.15	5000	3.65e-07	1.83e-08
293.15	10000	3.554e-07	1.78e-08
293.15	15000	3.464e-07	1.73e-08
293.15	20000	3.378e-07	1.69e-08
293.15	25000	3.296e-07	1.65e-08
293.15	30000	3.219e-07	1.61e-08
293.15	35000	3.145e-07	1.57e-08
293.15	40000	3.075e-07	1.54e-08
293.15	45000	3.007e-07	1.5e-08
293.15	50000	2.943e-07	1.47e-08
293.15	55000	2.881e-07	1.44e-08
293.15	60000	2.823e-07	1.41e-08
293.15	65000	2.766e-07	1.38e-08
298.15	100	3.813e-07	1.91e-08
298.15	5000	3.711e-07	1.86e-08
298.15	10000	3.612e-07	1.81e-08
298.15	15000	3.519e-07	1.76e-08
298.15	20000	3.43e-07	1.72e-08
298.15	25000	3.346e-07	1.67e-08
298.15	30000	3.266e-07	1.63e-08
298.15	35000	3.19e-07	1.6e-08
298.15	40000	3.118e-07	1.56e-08
298.15	45000	3.049e-07	1.52e-08
298.15	50000	2.983e-07	1.49e-08
298.15	55000	2.919e-07	1.46e-08
298.15	60000	2.859e-07	1.43e-08
298.15	65000	2.801e-07	1.4e-08
303.15	100	3.88e-07	1.94e-08
303.15	5000	3.774e-07	1.89e-08
303.15	10000	3.672e-07	1.84e-08
303.15	15000	3.575e-07	1.79e-08
303.15	20000	3.484e-07	1.74e-08
303.15	25000	3.397e-07	1.7e-08
303.15	30000	3.315e-07	1.66e-08
303.15	35000	3.237e-07	1.62e-08
303.15	40000	3.162e-07	1.58e-08
303.15	45000	3.091e-07	1.55e-08
303.15	50000	3.023e-07	1.51e-08
303.15	55000	2.958e-07	1.48e-08
303.15	60000	2.896e-07	1.45e-08
303.15	65000	2.837e-07	1.42e-08
308.15	100	3.948e-07	1.97e-08
308.15	5000	3.839e-07	1.92e-08
308.15	10000	3.733e-07	1.87e-08
308.15	15000	3.634e-07	1.82e-08
308.15	20000	3.539e-07	1.77e-08
308.15	25000	3.45e-07	1.73e-08
308.15	30000	3.365e-07	1.68e-08
308.15	35000	3.284e-07	1.64e-08
308.15	40000	3.208e-07	1.6e-08
308.15	45000	3.135e-07	1.57e-08
308.15	50000	3.065e-07	1.53e-08
308.15	55000	2.998e-07	1.5e-08
308.15	60000	2.935e-07	1.47e-08
308.15	65000	2.874e-07	1.44e-08
313.15	100	4.02e-07	2.01e-08
313.15	5000	3.906e-07	1.95e-08
313.15	10000	3.797e-07	1.9e-08
313.15	15000	3.694e-07	1.85e-08
313.15	20000	3.596e-07	1.8e-08
313.15	25000	3.504e-07	1.75e-08
313.15	30000	3.417e-07	1.71e-08
313.15	35000	3.333e-07	1.67e-08
313.15	40000	3.254e-07	1.63e-08
313.15	45000	3.179e-07	1.59e-08
313.15	50000	3.108e-07	1.55e-08
313.15	55000	3.039e-07	1.52e-08
313.15	60000	2.974e-07	1.49e-08
313.15	65000	2.911e-07	1.46e-08
318.15	100	4.093e-07	2.05e-08
318.15	5000	3.976e-07	1.99e-08
318.15	10000	3.863e-07	1.93e-08
318.15	15000	3.756e-07	1.88e-08
318.15	20000	3.655e-07	1.83e-08
318.15	25000	3.56e-07	1.78e-08
318.15	30000	3.47e-07	1.74e-08
318.15	35000	3.384e-07	1.69e-08
318.15	40000	3.303e-07	1.65e-08
318.15	45000	3.225e-07	1.61e-08
318.15	50000	3.152e-07	1.58e-08
318.15	55000	3.081e-07	1.54e-08
318.15	60000	3.014e-07	1.51e-08
318.15	65000	2.95e-07	1.48e-08
323.15	100	4.17e-07	2.09e-08
323.15	5000	4.048e-07	2.02e-08
323.15	10000	3.93e-07	1.97e-08
323.15	15000	3.82e-07	1.91e-08
323.15	20000	3.716e-07	1.86e-08
323.15	25000	3.618e-07	1.81e-08
323.15	30000	3.525e-07	1.76e-08
323.15	35000	3.436e-07	1.72e-08
323.15	40000	3.352e-07	1.68e-08
323.15	45000	3.273e-07	1.64e-08
323.15	50000	3.197e-07	1.6e-08
323.15	55000	3.124e-07	1.56e-08
323.15	60000	3.055e-07	1.53e-08
323.15	65000	2.99e-07	1.5e-08
328.15	100	4.249e-07	2.12e-08
328.15	5000	4.122e-07	2.06e-08
328.15	10000	4.001e-07	2e-08
328.15	15000	3.887e-07	1.94e-08
328.15	20000	3.779e-07	1.89e-08
328.15	25000	3.677e-07	1.84e-08
328.15	30000	3.581e-07	1.79e-08
328.15	35000	3.49e-07	1.75e-08
328.15	40000	3.404e-07	1.7e-08
328.15	45000	3.321e-07	1.66e-08
328.15	50000	3.243e-07	1.62e-08
328.15	55000	3.169e-07	1.58e-08
328.15	60000	3.098e-07	1.55e-08
328.15	65000	3.03e-07	1.52e-08
333.15	100	4.331e-07	2.17e-08
333.15	5000	4.2e-07	2.1e-08
333.15	10000	4.074e-07	2.04e-08
333.15	15000	3.955e-07	1.98e-08
333.15	20000	3.844e-07	1.92e-08
333.15	25000	3.739e-07	1.87e-08
333.15	30000	3.639e-07	1.82e-08
333.15	35000	3.545e-07	1.77e-08
333.15	40000	3.456e-07	1.73e-08
333.15	45000	3.372e-07	1.69e-08
333.15	50000	3.291e-07	1.65e-08
333.15	55000	3.215e-07	1.61e-08
333.15	60000	3.142e-07	1.57e-08
333.15	65000	3.072e-07	1.54e-08

System: 1-butylpyridinium trifluoromethanesulfonate; phases: Liquid
Property: Mass density, kg/m3 (Liquid); method: Vibrating tube method
Temperature, K	Pressure, kPa	Mass density, kg/m3	uncertainty
303.15	100	1311.77	0.49
303.15	5000	1314.63	0.56
303.15	10000	1317.44	0.62
303.15	15000	1320.2	0.69
303.15	20000	1322.82	0.75
303.15	25000	1325.53	0.82
303.15	30000	1328.06	0.89
303.15	35000	1330.48	0.96
303.15	40000	1332.93	1.03
303.15	45000	1335.28	1.1
303.15	50000	1337.67	1.17
303.15	55000	1339.98	1.25
303.15	60000	1342.03	1.32
303.15	65000	1344.13	1.39
308.15	100	1307.87	0.49
308.15	5000	1310.78	0.55
308.15	10000	1313.65	0.62
308.15	15000	1316.6	0.68
308.15	20000	1319.24	0.75
308.15	25000	1321.85	0.81
308.15	30000	1324.38	0.88
308.15	35000	1326.93	0.95
308.15	40000	1329.48	1.02
308.15	45000	1331.89	1.09
308.15	50000	1333.97	1.16
308.15	55000	1336.34	1.23
308.15	60000	1338.51	1.31
308.15	65000	1340.54	1.38
313.15	100	1303.91	0.49
313.15	5000	1306.89	0.55
313.15	10000	1309.74	0.61
313.15	15000	1312.65	0.68
313.15	20000	1315.17	0.74
313.15	25000	1317.99	0.81
313.15	30000	1320.63	0.87
313.15	35000	1323.08	0.94
313.15	40000	1325.67	1.01
313.15	45000	1328.04	1.08
313.15	50000	1330.42	1.15
313.15	55000	1332.73	1.22
313.15	60000	1334.95	1.3
313.15	65000	1337.08	1.37
318.15	100	1299.91	0.48
318.15	5000	1303.07	0.54
318.15	10000	1305.66	0.61
318.15	15000	1308.66	0.67
318.15	20000	1311.4	0.73
318.15	25000	1314.14	0.8
318.15	30000	1316.74	0.87
318.15	35000	1319.52	0.93
318.15	40000	1322.07	1
318.15	45000	1324.29	1.07
318.15	50000	1326.61	1.14
318.15	55000	1328.88	1.21
318.15	60000	1331.4	1.29
318.15	65000	1333.55	1.36
323.15	100	1296.31	0.48
323.15	5000	1298.89	0.54
323.15	10000	1302.15	0.6
323.15	15000	1304.98	0.66
323.15	20000	1307.88	0.73
323.15	25000	1310.7	0.79
323.15	30000	1313.34	0.86
323.15	35000	1315.79	0.93
323.15	40000	1318.44	0.99
323.15	45000	1321.03	1.06
323.15	50000	1323.34	1.13
323.15	55000	1325.68	1.2
323.15	60000	1328.01	1.27
323.15	65000	1330.03	1.34
328.15	100	1292.18	0.48
328.15	5000	1295.18	0.54
328.15	10000	1298.11	0.6
328.15	15000	1301.2	0.66
328.15	20000	1304.07	0.72
328.15	25000	1306.75	0.79
328.15	30000	1309.49	0.85
328.15	35000	1312.17	0.92
328.15	40000	1314.65	0.98
328.15	45000	1317.18	1.05
328.15	50000	1319.65	1.12
328.15	55000	1322	1.19
328.15	60000	1324.3	1.26
328.15	65000	1326.69	1.34
333.15	100	1288.27	0.47
333.15	5000	1291.41	0.53
333.15	10000	1294.46	0.59
333.15	15000	1297.41	0.65
333.15	20000	1300.4	0.72
333.15	25000	1303.31	0.78
333.15	30000	1306.06	0.84
333.15	35000	1308.77	0.91
333.15	40000	1311.33	0.98
333.15	45000	1313.93	1.04
333.15	50000	1316.36	1.11
333.15	55000	1318.77	1.18
333.15	60000	1320.81	1.25
333.15	65000	1323.38	1.32

System: 1-butylpyridinium trifluoromethanesulfonate; phases: Liquid
Property: Isothermal compressibility, 1/kPa (Liquid); method: TRIDEN Equation
Temperature, K	Pressure, kPa	Isothermal compressibility, 1/kPa	uncertainty
303.15	100	4.49e-07	2.25e-08
303.15	5000	4.35e-07	2.18e-08
303.15	10000	4.217e-07	2.11e-08
303.15	15000	4.092e-07	2.05e-08
303.15	20000	3.974e-07	1.99e-08
303.15	25000	3.863e-07	1.93e-08
303.15	30000	3.758e-07	1.88e-08
303.15	35000	3.659e-07	1.83e-08
303.15	40000	3.565e-07	1.78e-08
303.15	45000	3.477e-07	1.74e-08
303.15	50000	3.392e-07	1.7e-08
303.15	55000	3.312e-07	1.66e-08
303.15	60000	3.235e-07	1.62e-08
303.15	65000	3.163e-07	1.58e-08
308.15	100	4.558e-07	2.28e-08
308.15	5000	4.415e-07	2.21e-08
308.15	10000	4.277e-07	2.14e-08
308.15	15000	4.148e-07	2.07e-08
308.15	20000	4.027e-07	2.01e-08
308.15	25000	3.914e-07	1.96e-08
308.15	30000	3.806e-07	1.9e-08
308.15	35000	3.705e-07	1.85e-08
308.15	40000	3.609e-07	1.8e-08
308.15	45000	3.518e-07	1.76e-08
308.15	50000	3.431e-07	1.72e-08
308.15	55000	3.349e-07	1.67e-08
308.15	60000	3.271e-07	1.64e-08
308.15	65000	3.197e-07	1.6e-08
313.15	100	4.634e-07	2.32e-08
313.15	5000	4.486e-07	2.24e-08
313.15	10000	4.344e-07	2.17e-08
313.15	15000	4.211e-07	2.11e-08
313.15	20000	4.087e-07	2.04e-08
313.15	25000	3.969e-07	1.98e-08
313.15	30000	3.859e-07	1.93e-08
313.15	35000	3.755e-07	1.88e-08
313.15	40000	3.656e-07	1.83e-08
313.15	45000	3.563e-07	1.78e-08
313.15	50000	3.474e-07	1.74e-08
313.15	55000	3.39e-07	1.7e-08
313.15	60000	3.31e-07	1.66e-08
313.15	65000	3.234e-07	1.62e-08
318.15	100	4.718e-07	2.36e-08
318.15	5000	4.565e-07	2.28e-08
318.15	10000	4.418e-07	2.21e-08
318.15	15000	4.281e-07	2.14e-08
318.15	20000	4.152e-07	2.08e-08
318.15	25000	4.031e-07	2.02e-08
318.15	30000	3.917e-07	1.96e-08
318.15	35000	3.81e-07	1.91e-08
318.15	40000	3.708e-07	1.85e-08
318.15	45000	3.612e-07	1.81e-08
318.15	50000	3.522e-07	1.76e-08
318.15	55000	3.435e-07	1.72e-08
318.15	60000	3.353e-07	1.68e-08
318.15	65000	3.275e-07	1.64e-08
323.15	100	4.811e-07	2.41e-08
323.15	5000	4.652e-07	2.33e-08
323.15	10000	4.499e-07	2.25e-08
323.15	15000	4.357e-07	2.18e-08
323.15	20000	4.224e-07	2.11e-08
323.15	25000	4.099e-07	2.05e-08
323.15	30000	3.981e-07	1.99e-08
323.15	35000	3.87e-07	1.94e-08
323.15	40000	3.766e-07	1.88e-08
323.15	45000	3.667e-07	1.83e-08
323.15	50000	3.573e-07	1.79e-08
323.15	55000	3.484e-07	1.74e-08
323.15	60000	3.4e-07	1.7e-08
323.15	65000	3.32e-07	1.66e-08
328.15	100	4.915e-07	2.46e-08
328.15	5000	4.748e-07	2.37e-08
328.15	10000	4.589e-07	2.29e-08
328.15	15000	4.441e-07	2.22e-08
328.15	20000	4.303e-07	2.15e-08
328.15	25000	4.173e-07	2.09e-08
328.15	30000	4.052e-07	2.03e-08
328.15	35000	3.937e-07	1.97e-08
328.15	40000	3.829e-07	1.91e-08
328.15	45000	3.727e-07	1.86e-08
328.15	50000	3.63e-07	1.82e-08
328.15	55000	3.538e-07	1.77e-08
328.15	60000	3.451e-07	1.73e-08
328.15	65000	3.369e-07	1.68e-08
333.15	100	5.029e-07	2.51e-08
333.15	5000	4.854e-07	2.43e-08
333.15	10000	4.689e-07	2.34e-08
333.15	15000	4.535e-07	2.27e-08
333.15	20000	4.39e-07	2.2e-08
333.15	25000	4.256e-07	2.13e-08
333.15	30000	4.129e-07	2.06e-08
333.15	35000	4.01e-07	2.01e-08
333.15	40000	3.898e-07	1.95e-08
333.15	45000	3.792e-07	1.9e-08
333.15	50000	3.692e-07	1.85e-08
333.15	55000	3.597e-07	1.8e-08
333.15	60000	3.508e-07	1.75e-08
333.15	65000	3.422e-07	1.71e-08

System: 1-butyl-3-methylpyridinium dicyanamide; phases: Liquid
Property: Mass density, kg/m3 (Liquid); method: Vibrating tube method
Temperature, K	Pressure, kPa	Mass density, kg/m3	uncertainty
283.15	100	1058.8	0.96
283.15	5000	1060.66	0.97
283.15	10000	1062.55	0.99
283.15	15000	1064.33	1.01
283.15	20000	1066.19	1.03
283.15	25000	1067.75	1.04
288.15	100	1055.64	0.95
288.15	5000	1057.59	0.97
288.15	10000	1059.47	0.98
288.15	15000	1061.24	1
288.15	20000	1063.09	1.02
288.15	25000	1064.88	1.03
288.15	30000	1066.59	1.05
288.15	35000	1068.35	1.07
288.15	40000	1070.07	1.09
288.15	45000	1071.67	1.11
288.15	50000	1073.24	1.13
293.15	100	1052.56	0.95
293.15	5000	1054.46	0.96
293.15	10000	1056.37	0.98
293.15	15000	1058.23	0.99
293.15	20000	1060.01	1.01
293.15	25000	1061.8	1.02
293.15	30000	1063.56	1.04
293.15	35000	1065.35	1.06
293.15	40000	1066.96	1.08
293.15	45000	1068.69	1.1
293.15	50000	1070.15	1.12
293.15	55000	1072.13	1.14
293.15	60000	1073.41	1.16
293.15	65000	1074.96	1.18
298.15	100	1049.45	0.94
298.15	5000	1051.35	0.95
298.15	10000	1053.24	0.97
298.15	15000	1055.19	0.98
298.15	20000	1057.08	1
298.15	25000	1058.87	1.02
298.15	30000	1060.59	1.03
298.15	35000	1062.37	1.05
298.15	40000	1064.1	1.07
298.15	45000	1065.73	1.09
298.15	50000	1067.37	1.11
298.15	55000	1069.04	1.13
298.15	60000	1070.61	1.15
298.15	65000	1072.1	1.17
303.15	100	1046.36	0.93
303.15	5000	1048.3	0.95
303.15	10000	1050.18	0.96
303.15	15000	1052.05	0.97
303.15	20000	1053.94	0.99
303.15	25000	1055.82	1.01
303.15	30000	1057.57	1.02
303.15	35000	1059.35	1.04
303.15	40000	1061.07	1.06
303.15	45000	1062.75	1.08
303.15	50000	1064.4	1.1
303.15	55000	1066.19	1.12
303.15	60000	1067.59	1.14
303.15	65000	1069.21	1.16
308.15	100	1043.21	0.93
308.15	5000	1045.23	0.94
308.15	10000	1047.28	0.95
308.15	15000	1049.14	0.97
308.15	20000	1051.02	0.98
308.15	25000	1052.92	1
308.15	30000	1054.8	1.01
308.15	35000	1056.51	1.03
308.15	40000	1058.23	1.05
308.15	45000	1059.9	1.07
308.15	50000	1061.71	1.09
308.15	55000	1063.27	1.1
308.15	60000	1064.76	1.12
308.15	65000	1066.44	1.15
313.15	100	1040.26	0.92
313.15	5000	1042.22	0.93
313.15	10000	1044.29	0.95
313.15	15000	1046.25	0.96
313.15	20000	1048.15	0.97
313.15	25000	1050.05	0.99
313.15	30000	1051.8	1
313.15	35000	1053.63	1.02
313.15	40000	1055.42	1.04
313.15	45000	1057.11	1.06
313.15	50000	1058.82	1.07
313.15	55000	1060.43	1.09
313.15	60000	1062.05	1.11
313.15	65000	1063.59	1.13
318.15	100	1037.22	0.91
318.15	5000	1039.29	0.93
318.15	10000	1041.17	0.94
318.15	15000	1043.3	0.95
318.15	20000	1045.08	0.96
318.15	25000	1046.98	0.98
318.15	30000	1048.91	0.99
318.15	35000	1050.75	1.01
318.15	40000	1052.38	1.03
318.15	45000	1054.09	1.04
318.15	50000	1055.97	1.06
318.15	55000	1057.54	1.08
318.15	60000	1059.3	1.1
318.15	65000	1060.96	1.12
323.15	100	1034.21	0.91
323.15	5000	1036.41	0.92
323.15	10000	1038.36	0.93
323.15	15000	1040.45	0.94
323.15	20000	1042.21	0.96
323.15	25000	1044.3	0.97
323.15	30000	1046.05	0.99
323.15	35000	1047.94	1
323.15	40000	1049.73	1.02
323.15	45000	1051.45	1.03
323.15	50000	1053.22	1.05
323.15	55000	1054.85	1.07
323.15	60000	1056.49	1.09
323.15	65000	1058.03	1.11
328.15	100	1031.21	0.9
328.15	5000	1033.17	0.91
328.15	10000	1035.31	0.92
328.15	15000	1037.3	0.94
328.15	20000	1039.35	0.95
328.15	25000	1041.31	0.96
328.15	30000	1042.96	0.98
328.15	35000	1044.93	0.99
328.15	40000	1046.72	1.01
328.15	45000	1048.66	1.02
328.15	50000	1050.54	1.04
328.15	55000	1052.18	1.06
328.15	60000	1053.85	1.08
328.15	65000	1055.47	1.09
333.15	100	1027.63	0.89
333.15	5000	1030.21	0.91
333.15	10000	1032.34	0.92
333.15	15000	1034.45	0.93
333.15	20000	1036.45	0.94
333.15	25000	1038.36	0.95
333.15	30000	1040.39	0.97
333.15	35000	1042.19	0.98
333.15	40000	1044.05	1
333.15	45000	1045.58	1.01
333.15	50000	1047.67	1.03
333.15	55000	1049.26	1.05
333.15	60000	1051.06	1.06
333.15	65000	1052.61	1.08

System: 1-butyl-3-methylpyridinium dicyanamide; phases: Liquid
Property: Isothermal compressibility, 1/kPa (Liquid); method: TRIDEN Equation
Temperature, K	Pressure, kPa	Isothermal compressibility, 1/kPa	uncertainty
283.15	100	3.65e-07	1.83e-08
283.15	5000	3.563e-07	1.78e-08
283.15	10000	3.478e-07	1.74e-08
283.15	15000	3.397e-07	1.7e-08
283.15	20000	3.321e-07	1.66e-08
283.15	25000	3.247e-07	1.62e-08
288.15	100	3.693e-07	1.85e-08
288.15	5000	3.604e-07	1.8e-08
288.15	10000	3.517e-07	1.76e-08
288.15	15000	3.435e-07	1.72e-08
288.15	20000	3.356e-07	1.68e-08
288.15	25000	3.281e-07	1.64e-08
288.15	30000	3.21e-07	1.61e-08
288.15	35000	3.141e-07	1.57e-08
288.15	40000	3.076e-07	1.54e-08
288.15	45000	3.013e-07	1.51e-08
288.15	50000	2.953e-07	1.48e-08
293.15	100	3.741e-07	1.87e-08
293.15	5000	3.649e-07	1.82e-08
293.15	10000	3.56e-07	1.78e-08
293.15	15000	3.476e-07	1.74e-08
293.15	20000	3.395e-07	1.7e-08
293.15	25000	3.319e-07	1.66e-08
293.15	30000	3.246e-07	1.62e-08
293.15	35000	3.176e-07	1.59e-08
293.15	40000	3.109e-07	1.55e-08
293.15	45000	3.045e-07	1.52e-08
293.15	50000	2.984e-07	1.49e-08
293.15	55000	2.925e-07	1.46e-08
293.15	60000	2.868e-07	1.43e-08
293.15	65000	2.814e-07	1.41e-08
298.15	100	3.794e-07	1.9e-08
298.15	5000	3.699e-07	1.85e-08
298.15	10000	3.608e-07	1.8e-08
298.15	15000	3.521e-07	1.76e-08
298.15	20000	3.439e-07	1.72e-08
298.15	25000	3.36e-07	1.68e-08
298.15	30000	3.285e-07	1.64e-08
298.15	35000	3.214e-07	1.61e-08
298.15	40000	3.145e-07	1.57e-08
298.15	45000	3.08e-07	1.54e-08
298.15	50000	3.017e-07	1.51e-08
298.15	55000	2.957e-07	1.48e-08
298.15	60000	2.899e-07	1.45e-08
298.15	65000	2.844e-07	1.42e-08
303.15	100	3.852e-07	1.93e-08
303.15	5000	3.755e-07	1.88e-08
303.15	10000	3.661e-07	1.83e-08
303.15	15000	3.572e-07	1.79e-08
303.15	20000	3.487e-07	1.74e-08
303.15	25000	3.406e-07	1.7e-08
303.15	30000	3.329e-07	1.66e-08
303.15	35000	3.255e-07	1.63e-08
303.15	40000	3.185e-07	1.59e-08
303.15	45000	3.118e-07	1.56e-08
303.15	50000	3.054e-07	1.53e-08
303.15	55000	2.992e-07	1.5e-08
303.15	60000	2.933e-07	1.47e-08
303.15	65000	2.877e-07	1.44e-08
308.15	100	3.916e-07	1.96e-08
308.15	5000	3.816e-07	1.91e-08
308.15	10000	3.719e-07	1.86e-08
308.15	15000	3.627e-07	1.81e-08
308.15	20000	3.539e-07	1.77e-08
308.15	25000	3.456e-07	1.73e-08
308.15	30000	3.377e-07	1.69e-08
308.15	35000	3.301e-07	1.65e-08
308.15	40000	3.229e-07	1.61e-08
308.15	45000	3.16e-07	1.58e-08
308.15	50000	3.094e-07	1.55e-08
308.15	55000	3.031e-07	1.52e-08
308.15	60000	2.971e-07	1.49e-08
308.15	65000	2.913e-07	1.46e-08
313.15	100	3.987e-07	1.99e-08
313.15	5000	3.883e-07	1.94e-08
313.15	10000	3.783e-07	1.89e-08
313.15	15000	3.688e-07	1.84e-08
313.15	20000	3.597e-07	1.8e-08
313.15	25000	3.511e-07	1.76e-08
313.15	30000	3.43e-07	1.72e-08
313.15	35000	3.352e-07	1.68e-08
313.15	40000	3.277e-07	1.64e-08
313.15	45000	3.206e-07	1.6e-08
313.15	50000	3.139e-07	1.57e-08
313.15	55000	3.074e-07	1.54e-08
313.15	60000	3.012e-07	1.51e-08
313.15	65000	2.952e-07	1.48e-08
318.15	100	4.066e-07	2.03e-08
318.15	5000	3.958e-07	1.98e-08
318.15	10000	3.853e-07	1.93e-08
318.15	15000	3.755e-07	1.88e-08
318.15	20000	3.661e-07	1.83e-08
318.15	25000	3.572e-07	1.79e-08
318.15	30000	3.488e-07	1.74e-08
318.15	35000	3.407e-07	1.7e-08
318.15	40000	3.33e-07	1.67e-08
318.15	45000	3.257e-07	1.63e-08
318.15	50000	3.187e-07	1.59e-08
318.15	55000	3.12e-07	1.56e-08
318.15	60000	3.056e-07	1.53e-08
318.15	65000	2.995e-07	1.5e-08
323.15	100	4.152e-07	2.08e-08
323.15	5000	4.04e-07	2.02e-08
323.15	10000	3.931e-07	1.97e-08
323.15	15000	3.828e-07	1.91e-08
323.15	20000	3.731e-07	1.87e-08
323.15	25000	3.639e-07	1.82e-08
323.15	30000	3.551e-07	1.78e-08
323.15	35000	3.468e-07	1.73e-08
323.15	40000	3.388e-07	1.69e-08
323.15	45000	3.313e-07	1.66e-08
323.15	50000	3.24e-07	1.62e-08
323.15	55000	3.171e-07	1.59e-08
323.15	60000	3.105e-07	1.55e-08
323.15	65000	3.042e-07	1.52e-08
328.15	100	4.248e-07	2.12e-08
328.15	5000	4.13e-07	2.07e-08
328.15	10000	4.017e-07	2.01e-08
328.15	15000	3.91e-07	1.96e-08
328.15	20000	3.808e-07	1.9e-08
328.15	25000	3.712e-07	1.86e-08
328.15	30000	3.621e-07	1.81e-08
328.15	35000	3.534e-07	1.77e-08
328.15	40000	3.452e-07	1.73e-08
328.15	45000	3.373e-07	1.69e-08
328.15	50000	3.298e-07	1.65e-08
328.15	55000	3.227e-07	1.61e-08
328.15	60000	3.159e-07	1.58e-08
328.15	65000	3.093e-07	1.55e-08
333.15	100	4.354e-07	2.18e-08
333.15	5000	4.231e-07	2.12e-08
333.15	10000	4.112e-07	2.06e-08
333.15	15000	3.999e-07	2e-08
333.15	20000	3.893e-07	1.95e-08
333.15	25000	3.793e-07	1.9e-08
333.15	30000	3.698e-07	1.85e-08
333.15	35000	3.608e-07	1.8e-08
333.15	40000	3.522e-07	1.76e-08
333.15	45000	3.44e-07	1.72e-08
333.15	50000	3.362e-07	1.68e-08
333.15	55000	3.288e-07	1.64e-08
333.15	60000	3.217e-07	1.61e-08
333.15	65000	3.149e-07	1.57e-08

System: N-octyl-3-methylpyridinium tetrafluoroborate; phases: Liquid
Property: Mass density, kg/m3 (Liquid); method: Vibrating tube method
Temperature, K	Pressure, kPa	Mass density, kg/m3	uncertainty
283.15	100	1106.25	1.06
283.15	5000	1108.56	1.09
283.15	10000	1110.95	1.11
283.15	15000	1113.26	1.14
283.15	20000	1115.53	1.17
283.15	25000	1117.71	1.2
283.15	30000	1119.8	1.23
283.15	35000	1121.93	1.26
283.15	40000	1123.9	1.29
283.15	45000	1125.95	1.32
283.15	50000	1127.8	1.36
283.15	55000	1129.77	1.39
283.15	60000	1131.58	1.42
283.15	65000	1133.37	1.46
288.15	100	1102.88	1.05
288.15	5000	1105.22	1.08
288.15	10000	1107.61	1.1
288.15	15000	1109.98	1.13
288.15	20000	1112.32	1.16
288.15	25000	1114.52	1.19
288.15	30000	1116.64	1.22
288.15	35000	1118.71	1.25
288.15	40000	1120.76	1.28
288.15	45000	1122.74	1.31
288.15	50000	1124.72	1.34
288.15	55000	1126.63	1.38
288.15	60000	1128.51	1.41
288.15	65000	1130.3	1.44
293.15	100	1099.53	1.05
293.15	5000	1102.06	1.07
293.15	10000	1104.51	1.1
293.15	15000	1106.86	1.12
293.15	20000	1109.18	1.15
293.15	25000	1111.4	1.18
293.15	30000	1113.56	1.21
293.15	35000	1115.81	1.24
293.15	40000	1117.82	1.27
293.15	45000	1119.87	1.3
293.15	50000	1121.88	1.33
293.15	55000	1123.82	1.36
293.15	60000	1125.67	1.4
293.15	65000	1127.47	1.43
298.15	100	1096.08	1.04
298.15	5000	1098.54	1.06
298.15	10000	1101.04	1.09
298.15	15000	1103.47	1.11
298.15	20000	1105.84	1.14
298.15	25000	1108.07	1.17
298.15	30000	1110.33	1.2
298.15	35000	1112.49	1.23
298.15	40000	1114.56	1.26
298.15	45000	1116.65	1.29
298.15	50000	1118.65	1.32
298.15	55000	1120.63	1.35
298.15	60000	1122.5	1.38
298.15	65000	1124.52	1.42
303.15	100	1092.83	1.03
303.15	5000	1095.28	1.05
303.15	10000	1097.84	1.08
303.15	15000	1100.3	1.1
303.15	20000	1102.65	1.13
303.15	25000	1104.99	1.16
303.15	30000	1107.32	1.19
303.15	35000	1109.47	1.22
303.15	40000	1111.6	1.24
303.15	45000	1113.68	1.28
303.15	50000	1115.8	1.31
303.15	55000	1117.71	1.34
303.15	60000	1119.7	1.37
303.15	65000	1121.56	1.4
308.15	100	1089.26	1.02
308.15	5000	1091.74	1.05
308.15	10000	1094.35	1.07
308.15	15000	1096.91	1.1
308.15	20000	1099.29	1.12
308.15	25000	1101.65	1.15
308.15	30000	1103.95	1.18
308.15	35000	1106.18	1.2
308.15	40000	1108.37	1.23
308.15	45000	1110.56	1.26
308.15	50000	1112.6	1.29
308.15	55000	1114.63	1.32
308.15	60000	1116.66	1.36
308.15	65000	1118.6	1.39
313.15	100	1085.88	1.02
313.15	5000	1088.47	1.04
313.15	10000	1091.09	1.06
313.15	15000	1093.69	1.09
313.15	20000	1096.09	1.11
313.15	25000	1098.54	1.14
313.15	30000	1100.84	1.17
313.15	35000	1103.14	1.19
313.15	40000	1105.37	1.22
313.15	45000	1107.51	1.25
313.15	50000	1109.66	1.28
313.15	55000	1111.71	1.31
313.15	60000	1113.7	1.34
313.15	65000	1115.65	1.38
318.15	100	1082.49	1.01
318.15	5000	1085.16	1.03
318.15	10000	1087.86	1.05
318.15	15000	1090.4	1.08
318.15	20000	1092.87	1.1
318.15	25000	1095.34	1.13
318.15	30000	1097.71	1.16
318.15	35000	1100	1.18
318.15	40000	1102.23	1.21
318.15	45000	1104.4	1.24
318.15	50000	1106.52	1.27
318.15	55000	1108.63	1.3
318.15	60000	1110.64	1.33
318.15	65000	1112.69	1.36
323.15	100	1079.26	1
323.15	5000	1082.03	1.02
323.15	10000	1084.69	1.05
323.15	15000	1087.27	1.07
323.15	20000	1089.69	1.09
323.15	25000	1092.26	1.12
323.15	30000	1094.65	1.14
323.15	35000	1096.93	1.17
323.15	40000	1099.23	1.2
323.15	45000	1101.43	1.23
323.15	50000	1103.63	1.26
323.15	55000	1105.69	1.29
323.15	60000	1107.78	1.32
323.15	65000	1109.77	1.35
328.15	100	1075.89	0.99
328.15	5000	1078.67	1.02
328.15	10000	1081.32	1.04
328.15	15000	1083.91	1.06
328.15	20000	1086.53	1.08
328.15	25000	1089.05	1.11
328.15	30000	1091.41	1.13
328.15	35000	1093.82	1.16
328.15	40000	1096.15	1.19
328.15	45000	1098.38	1.22
328.15	50000	1100.54	1.24
328.15	55000	1102.61	1.27
328.15	60000	1104.75	1.3
328.15	65000	1106.82	1.34
333.15	100	1072.64	0.99
333.15	5000	1075.39	1.01
333.15	10000	1078.24	1.03
333.15	15000	1080.9	1.05
333.15	20000	1083.46	1.08
333.15	25000	1086.03	1.1
333.15	30000	1088.48	1.12
333.15	35000	1090.88	1.15
333.15	40000	1093.31	1.18
333.15	45000	1095.48	1.2
333.15	50000	1097.71	1.23
333.15	55000	1099.8	1.26
333.15	60000	1101.97	1.29
333.15	65000	1104.05	1.32

System: N-octyl-3-methylpyridinium tetrafluoroborate; phases: Liquid
Property: Isothermal compressibility, 1/kPa (Liquid); method: TRIDEN equation
Temperature, K	Pressure, kPa	Isothermal compressibility, 1/kPa	uncertainty
283.15	100	4.424e-07	2.21e-08
283.15	5000	4.298e-07	2.15e-08
283.15	10000	4.176e-07	2.09e-08
283.15	15000	4.061e-07	2.03e-08
283.15	20000	3.953e-07	1.98e-08
283.15	25000	3.85e-07	1.93e-08
283.15	30000	3.753e-07	1.88e-08
283.15	35000	3.661e-07	1.83e-08
283.15	40000	3.573e-07	1.79e-08
283.15	45000	3.49e-07	1.75e-08
283.15	50000	3.411e-07	1.71e-08
283.15	55000	3.335e-07	1.67e-08
283.15	60000	3.262e-07	1.63e-08
283.15	65000	3.193e-07	1.6e-08
288.15	100	4.509e-07	2.25e-08
288.15	5000	4.378e-07	2.19e-08
288.15	10000	4.252e-07	2.13e-08
288.15	15000	4.133e-07	2.07e-08
288.15	20000	4.02e-07	2.01e-08
288.15	25000	3.914e-07	1.96e-08
288.15	30000	3.814e-07	1.91e-08
288.15	35000	3.719e-07	1.86e-08
288.15	40000	3.629e-07	1.81e-08
288.15	45000	3.543e-07	1.77e-08
288.15	50000	3.461e-07	1.73e-08
288.15	55000	3.383e-07	1.69e-08
288.15	60000	3.309e-07	1.65e-08
288.15	65000	3.238e-07	1.62e-08
293.15	100	4.597e-07	2.3e-08
293.15	5000	4.46e-07	2.23e-08
293.15	10000	4.329e-07	2.16e-08
293.15	15000	4.206e-07	2.1e-08
293.15	20000	4.09e-07	2.05e-08
293.15	25000	3.98e-07	1.99e-08
293.15	30000	3.877e-07	1.94e-08
293.15	35000	3.778e-07	1.89e-08
293.15	40000	3.685e-07	1.84e-08
293.15	45000	3.597e-07	1.8e-08
293.15	50000	3.512e-07	1.76e-08
293.15	55000	3.432e-07	1.72e-08
293.15	60000	3.356e-07	1.68e-08
293.15	65000	3.283e-07	1.64e-08
298.15	100	4.687e-07	2.34e-08
298.15	5000	4.545e-07	2.27e-08
298.15	10000	4.409e-07	2.2e-08
298.15	15000	4.281e-07	2.14e-08
298.15	20000	4.161e-07	2.08e-08
298.15	25000	4.048e-07	2.02e-08
298.15	30000	3.941e-07	1.97e-08
298.15	35000	3.839e-07	1.92e-08
298.15	40000	3.743e-07	1.87e-08
298.15	45000	3.652e-07	1.83e-08
298.15	50000	3.565e-07	1.78e-08
298.15	55000	3.482e-07	1.74e-08
298.15	60000	3.404e-07	1.7e-08
298.15	65000	3.329e-07	1.66e-08
303.15	100	4.779e-07	2.39e-08
303.15	5000	4.632e-07	2.32e-08
303.15	10000	4.491e-07	2.25e-08
303.15	15000	4.359e-07	2.18e-08
303.15	20000	4.234e-07	2.12e-08
303.15	25000	4.117e-07	2.06e-08
303.15	30000	4.006e-07	2e-08
303.15	35000	3.901e-07	1.95e-08
303.15	40000	3.802e-07	1.9e-08
303.15	45000	3.708e-07	1.85e-08
303.15	50000	3.619e-07	1.81e-08
303.15	55000	3.534e-07	1.77e-08
303.15	60000	3.453e-07	1.73e-08
303.15	65000	3.375e-07	1.69e-08
308.15	100	4.875e-07	2.44e-08
308.15	5000	4.721e-07	2.36e-08
308.15	10000	4.575e-07	2.29e-08
308.15	15000	4.438e-07	2.22e-08
308.15	20000	4.309e-07	2.15e-08
308.15	25000	4.187e-07	2.09e-08
308.15	30000	4.073e-07	2.04e-08
308.15	35000	3.965e-07	1.98e-08
308.15	40000	3.862e-07	1.93e-08
308.15	45000	3.765e-07	1.88e-08
308.15	50000	3.673e-07	1.84e-08
308.15	55000	3.586e-07	1.79e-08
308.15	60000	3.502e-07	1.75e-08
308.15	65000	3.423e-07	1.71e-08
313.15	100	4.973e-07	2.49e-08
313.15	5000	4.813e-07	2.41e-08
313.15	10000	4.661e-07	2.33e-08
313.15	15000	4.519e-07	2.26e-08
313.15	20000	4.385e-07	2.19e-08
313.15	25000	4.259e-07	2.13e-08
313.15	30000	4.141e-07	2.07e-08
313.15	35000	4.029e-07	2.01e-08
313.15	40000	3.924e-07	1.96e-08
313.15	45000	3.824e-07	1.91e-08
313.15	50000	3.729e-07	1.86e-08
313.15	55000	3.639e-07	1.82e-08
313.15	60000	3.553e-07	1.78e-08
313.15	65000	3.471e-07	1.74e-08
318.15	100	5.073e-07	2.54e-08
318.15	5000	4.908e-07	2.45e-08
318.15	10000	4.75e-07	2.38e-08
318.15	15000	4.602e-07	2.3e-08
318.15	20000	4.463e-07	2.23e-08
318.15	25000	4.333e-07	2.17e-08
318.15	30000	4.211e-07	2.11e-08
318.15	35000	4.095e-07	2.05e-08
318.15	40000	3.986e-07	1.99e-08
318.15	45000	3.883e-07	1.94e-08
318.15	50000	3.785e-07	1.89e-08
318.15	55000	3.692e-07	1.85e-08
318.15	60000	3.604e-07	1.8e-08
318.15	65000	3.52e-07	1.76e-08
