Measured thermophysical data. Determination of mutual solubilities of ionic liquids and water
Source: Fluid Phase Equilib., 2012, 10.1016/j.fluid.2011.12.008
Compound 1: 1-hexyl-1-methylpyrrolidinium bis(trifluoromethanesulfonyl)imide, C13H24F6N2O4S2, InChI=1S/C11H24N.C2F6NO4S2/c1-3-4-5-6-9-12(2)10-7-8-11-12;3-1(4,5)14(10,11)9-15(12,13)2(6,7)8/h3-11H2,1-2H3;/q+1;-1, purity 98%
Compound 2: N-ethyl-N,N-dimethyl-1-propanaminium 1,1,1-trifluoro-N-[(trifluoromethyl)sulfonyl]methanesulfonamide, C9H18F6N2O4S2, InChI=1S/C7H18N.C2F6NO4S2/c1-5-7-8(3,4)6-2;3-1(4,5)14(10,11)9-15(12,13)2(6,7)8/h5-7H2,1-4H3;/q+1;-1, purity 99%
Compound 3: water, H2O, InChI=1S/H2O/h1H2, purity 99.9%
Compound 4: 1-hexyl-3-methylimidazolium bis[(trifluoromethyl)sulfonyl]imide, C12H19F6N3O4S2, InChI=1S/C10H19N2.C2F6NO4S2/c1-3-4-5-6-7-12-9-8-11(2)10-12;3-1(4,5)14(10,11)9-15(12,13)2(6,7)8/h8-10H,3-7H2,1-2H3;/q+1;-1, purity 99%
Compound 5: 1-butyl-1-methylpyrrolidinium bis[(trifluoromethyl)sulfonyl]imide, C11H20F6N2O4S2, InChI=1S/C9H20N.C2F6NO4S2/c1-3-4-7-10(2)8-5-6-9-10;3-1(4,5)14(10,11)9-15(12,13)2(6,7)8/h3-9H2,1-2H3;/q+1;-1, purity 99%

System: 1-hexyl-1-methylpyrrolidinium bis(trifluoromethanesulfonyl)imide; phases: Liquid
Property: Mass density, kg/m3 (Liquid); method: Vibrating tube method
Temperature, K	Pressure, kPa	Mass density, kg/m3	uncertainty
298.15	101.325	1336	1.6

System: N-ethyl-N,N-dimethyl-1-propanaminium 1,1,1-trifluoro-N-[(trifluoromethyl)sulfonyl]methanesulfonamide; phases: Liquid
Property: Mass density, kg/m3 (Liquid); method: Vibrating tube method
Temperature, K	Pressure, kPa	Mass density, kg/m3	uncertainty
298.15	101.325	1403.5	0.6

System: 1-hexyl-3-methylimidazolium bis[(trifluoromethyl)sulfonyl]imide; phases: Liquid
Property: Mass density, kg/m3 (Liquid); method: Vibrating tube method
Temperature, K	Pressure, kPa	Mass density, kg/m3	uncertainty
298.15	101.325	1371.6	0.7

System: 1-butyl-1-methylpyrrolidinium bis[(trifluoromethyl)sulfonyl]imide; phases: Liquid
Property: Mass density, kg/m3 (Liquid); method: Vibrating tube method
Temperature, K	Pressure, kPa	Mass density, kg/m3	uncertainty
298.15	101.325	1394.3	0.6

System: water + 1-hexyl-3-methylimidazolium bis[(trifluoromethyl)sulfonyl]imide; phases: Liquid, Air at 1 atmosphere
Fixed: Pressure, kPa = 101
Property: Mole fraction of 1-hexyl-3-methylimidazolium bis[(trifluoromethyl)sulfonyl]imide (Liquid); method: evaporation method, based on vapor pressure
Temperature, K	Mole fraction of 1-hexyl-3-methylimidazolium bis[(trifluoromethyl)sulfonyl]imide	uncertainty
288.15	8.87e-05	4.8e-06
298.15	9.32e-05	4.8e-06
303.15	0.0001001	4.8e-06
313.15	0.0001098	4.8e-06
323.15	0.0001279	4.8e-06
333.15	0.0001496	4.8e-06
343.15	0.0001808	4.8e-06

System: water + 1-hexyl-3-methylimidazolium bis[(trifluoromethyl)sulfonyl]imide; phases: Liquid, Air at 1 atmosphere
Fixed: Pressure, kPa = 101
Property: Mole fraction of 1-hexyl-3-methylimidazolium bis[(trifluoromethyl)sulfonyl]imide (Liquid); method: conductivity method
Temperature, K	Mole fraction of 1-hexyl-3-methylimidazolium bis[(trifluoromethyl)sulfonyl]imide	uncertainty
288.15	8.6e-05	3.2e-06
298.15	9.28e-05	3.2e-06
313.15	0.0001121	3.2e-06
333.15	0.0001517	3.2e-06

System: water + 1-hexyl-1-methylpyrrolidinium bis(trifluoromethanesulfonyl)imide; phases: Liquid, Air at 1 atmosphere
Fixed: Pressure, kPa = 101
Property: Mole fraction of 1-hexyl-1-methylpyrrolidinium bis(trifluoromethanesulfonyl)imide (Liquid); method: evaporation method, based on vapor pressure
Temperature, K	Mole fraction of 1-hexyl-1-methylpyrrolidinium bis(trifluoromethanesulfonyl)imide	uncertainty
288.15	8.4e-05	6.4e-06
298.15	8.27e-05	6.4e-06
308.15	8.79e-05	6.4e-06
318.15	0.000101	6.4e-06
328.15	0.0001173	6.4e-06
338.15	0.0001369	6.4e-06

System: water + 1-hexyl-1-methylpyrrolidinium bis(trifluoromethanesulfonyl)imide; phases: Liquid, Air at 1 atmosphere
Fixed: Pressure, kPa = 101
Property: Mole fraction of 1-hexyl-1-methylpyrrolidinium bis(trifluoromethanesulfonyl)imide (Liquid); method: conductivity method
Temperature, K	Mole fraction of 1-hexyl-1-methylpyrrolidinium bis(trifluoromethanesulfonyl)imide	uncertainty
288.15	8.25e-05	4.8e-06
298.15	8.34e-05	4.8e-06
298.15	8.38e-05	4.8e-06
318.15	0.0001045	4.8e-06
333.15	0.0001276	4.8e-06

System: water + 1-butyl-1-methylpyrrolidinium bis[(trifluoromethyl)sulfonyl]imide; phases: Liquid, Air at 1 atmosphere
Fixed: Pressure, kPa = 101
Property: Mole fraction of 1-butyl-1-methylpyrrolidinium bis[(trifluoromethyl)sulfonyl]imide (Liquid); method: evaporation method, based on vapor pressure
Temperature, K	Mole fraction of 1-butyl-1-methylpyrrolidinium bis[(trifluoromethyl)sulfonyl]imide	uncertainty
288.15	0.0002421	5.2e-06
293.15	0.0002509	5.2e-06
298.15	0.0002609	5.2e-06
303.15	0.0002792	5.2e-06
308.15	0.0002937	5.2e-06
313.15	0.0003079	5.3e-06
323.15	0.0003475	5.3e-06
333.15	0.0004009	5.3e-06
343.15	0.0004662	5.4e-06

System: water + 1-butyl-1-methylpyrrolidinium bis[(trifluoromethyl)sulfonyl]imide; phases: Liquid, Air at 1 atmosphere
Fixed: Pressure, kPa = 101
Property: Mole fraction of 1-butyl-1-methylpyrrolidinium bis[(trifluoromethyl)sulfonyl]imide (Liquid); method: conductivity method
Temperature, K	Mole fraction of 1-butyl-1-methylpyrrolidinium bis[(trifluoromethyl)sulfonyl]imide	uncertainty
288.15	0.0002531	3.4e-06
298.15	0.0002627	3.4e-06
313.15	0.0003062	3.5e-06
333.15	0.000398	3.5e-06

System: water + N-ethyl-N,N-dimethyl-1-propanaminium 1,1,1-trifluoro-N-[(trifluoromethyl)sulfonyl]methanesulfonamide; phases: Liquid, Air at 1 atmosphere
Fixed: Pressure, kPa = 101
Property: Mole fraction of N-ethyl-N,N-dimethyl-1-propanaminium 1,1,1-trifluoro-N-[(trifluoromethyl)sulfonyl]methanesulfonamide (Liquid); method: evaporation method, based on vapor pressure
Temperature, K	Mole fraction of N-ethyl-N,N-dimethyl-1-propanaminium 1,1,1-trifluoro-N-[(trifluoromethyl)sulfonyl]methanesulfonamide	uncertainty
288.15	0.0005156	5.7e-06
293.15	0.0005391	5.7e-06
298.15	0.000561	5.7e-06
303.15	0.0005828	5.7e-06
308.15	0.0006166	5.8e-06
313.15	0.0006495	5.8e-06
323.15	0.0007374	6e-06
333.15	0.0008556	6.8e-06
343.15	0.0011282	8e-06

System: water + N-ethyl-N,N-dimethyl-1-propanaminium 1,1,1-trifluoro-N-[(trifluoromethyl)sulfonyl]methanesulfonamide; phases: Liquid, Air at 1 atmosphere
Fixed: Pressure, kPa = 101
Property: Mole fraction of N-ethyl-N,N-dimethyl-1-propanaminium 1,1,1-trifluoro-N-[(trifluoromethyl)sulfonyl]methanesulfonamide (Liquid); method: conductivity method
Temperature, K	Mole fraction of N-ethyl-N,N-dimethyl-1-propanaminium 1,1,1-trifluoro-N-[(trifluoromethyl)sulfonyl]methanesulfonamide	uncertainty
288.15	0.0005192	3.9e-06
298.15	0.0005564	3.9e-06
313.15	0.0006403	4.2e-06
333.15	0.0008654	4.4e-06
