Measured thermophysical data. Experimental determination and calculation of thermodynamic properties of CO2 + octane to high temperatures and high pressures
Source: Fluid Phase Equilib., 2006, 10.1016/j.fluid.2006.05.014
Compound 1: octane, C8H18, InChI=1S/C8H18/c1-3-5-7-8-6-4-2/h3-8H2,1-2H3, purity 99.5%
Compound 2: carbon dioxide, CO2, InChI=1S/CO2/c2-1-3, purity 99.99%

System: octane + carbon dioxide; phases: Liquid, Gas
Property: Critical pressure, kPa (Liquid); method: visual observation through viewing glass
Temperature, K	Critical pressure, kPa	uncertainty
313.2	7850	500
333.2	10480	500
353.2	12330	500
373.2	13850	500
393.2	14440	500

System: octane + carbon dioxide; phases: Liquid, Gas
Property: Critical temperature, K (Liquid); method: Visual observation in a stirred cell
Mole fraction of carbon dioxide	Critical temperature, K	uncertainty
0.8728	393.2	10
0.902	373.2	10
0.9154	353.2	10
0.9383	333.2	10
0.9447	313.2	10

System: octane + carbon dioxide; phases: Liquid, Gas
Property: Vapor or sublimation pressure, kPa (Liquid); method: CCELL:UFactor:16
Mole fraction of carbon dioxide	Temperature, K	Vapor or sublimation pressure, kPa	uncertainty
0.11	313.2	1150	60
0.1452	353.2	1700	80
0.156	393.2	1110	60
0.1573	333.2	1700	100
0.206	333.2	2170	110
0.2134	313.2	2080	100
0.2172	373.2	1850	90
0.2452	353.2	2780	140
0.2689	393.2	2760	140
0.2891	333.2	3250	160
0.3377	313.2	3150	160
0.3593	333.2	4150	210
0.3596	353.2	4010	200
0.369	373.2	3730	190
0.3933	393.2	3980	200
0.4296	333.2	5140	260
0.4342	313.2	4150	210
0.4373	353.2	5330	260
0.4582	393.2	5260	260
0.4948	353.2	6490	320
0.4956	333.2	6140	300
0.5134	373.2	6020	300
0.522	393.2	6790	340
0.5534	313.2	5140	260
0.5706	373.2	7800	390
0.5783	353.2	7960	390
0.5915	333.2	7140	350
0.5922	393.2	8310	410
0.6237	353.2	8970	450
0.6538	373.2	9400	470
0.6738	393.2	10000	500
0.6752	313.2	6140	310
0.7413	333.2	9170	460
0.7464	393.2	11440	570
0.752	313.2	6640	330
0.7761	353.2	11020	550
0.7837	373.2	12190	600
0.8146	393.2	12970	640
0.8255	353.2	11990	590
0.8522	373.2	13280	660
0.8558	333.2	9970	500
0.8581	313.2	7350	370
0.8728	393.2	14440	720
0.902	373.2	13850	690
0.9154	353.2	12330	610
0.9383	333.2	10480	520
0.9447	313.2	7850	390

System: octane + carbon dioxide; phases: Gas, Liquid
Property: Mass density, kg/m3 (Gas); method: dividing mass by volume
Temperature, K	Mole fraction of carbon dioxide	Mass density, kg/m3	uncertainty
313.2	0.11	31.9	3.2
313.2	0.2134	43.6	4.4
313.2	0.3377	50.7	5.1
313.2	0.4342	76.1	7.6
313.2	0.5534	116.7	11.7
313.2	0.6752	180.3	18
313.2	0.752	206.7	20.7
313.2	0.8581	260.7	26.1
313.2	0.9447	462.3	46.2
333.2	0.1573	28.7	2.9
333.2	0.206	39.8	4
333.2	0.2891	53.8	5.4
333.2	0.3593	72.5	7.3
333.2	0.4296	86.4	8.6
333.2	0.4956	109.9	11
333.2	0.5915	150.4	15
333.2	0.7413	269.8	27
333.2	0.8558	359.9	36
333.2	0.9383	451.2	45.1
353.2	0.1452	29.1	2.9
353.2	0.2452	40.3	4
353.2	0.3596	71	7.1
353.2	0.4373	99.7	10
353.2	0.4948	123.6	12.4
353.2	0.5783	171.8	17.2
353.2	0.6237	220	22
353.2	0.7761	251.1	25.1
353.2	0.8255	321.1	32.1
353.2	0.9154	458.2	45.8
373.2	0.2172	31.7	3.2
373.2	0.369	50.9	5.1
373.2	0.5134	99.4	9.9
373.2	0.5706	152.5	15.3
373.2	0.6538	195.6	19.6
373.2	0.7837	292.2	29.2
373.2	0.8522	362.3	36.2
373.2	0.902	425.1	42.5
393.2	0.156	14.2	1.4
393.2	0.2689	33.2	3.3
393.2	0.3933	58.5	5.9
393.2	0.4582	79.6	8
393.2	0.522	125.6	12.6
393.2	0.5922	150.9	15.1
393.2	0.6738	182.6	18.3
393.2	0.7464	227.9	22.8
393.2	0.8146	267.5	26.8
393.2	0.8728	400.2	40

System: octane + carbon dioxide; phases: Liquid, Gas
Property: Mass density, kg/m3 (Liquid); method: dividing mass by volume
Temperature, K	Mole fraction of carbon dioxide	Mass density, kg/m3	uncertainty
313.2	0.11	730	14.6
313.2	0.2134	729	14.6
313.2	0.3377	729.3	14.6
313.2	0.4342	711.9	14.2
313.2	0.5534	692.7	13.9
313.2	0.6752	663.5	13.3
313.2	0.752	644.6	12.9
313.2	0.8581	585	11.7
313.2	0.9447	462.3	9.3
333.2	0.1573	683.6	13.7
333.2	0.206	678.5	13.6
333.2	0.2891	670.1	13.4
333.2	0.3593	660.5	13.2
333.2	0.4296	657.3	13.2
333.2	0.4956	641.9	12.8
333.2	0.5915	627.8	12.6
333.2	0.7413	556.8	11.1
333.2	0.8558	516.5	10.3
333.2	0.9383	436.1	8.7
353.2	0.1452	658.6	13.2
353.2	0.2452	651.5	13.1
353.2	0.3596	642.5	12.9
353.2	0.4373	635.4	12.7
353.2	0.4948	621.3	12.4
353.2	0.5783	614.8	12.3
353.2	0.6237	600.1	12
353.2	0.7761	585.8	11.7
353.2	0.8255	560	11.2
353.2	0.9154	458.2	9.2
373.2	0.2172	550.7	11.1
373.2	0.369	565.2	11.3
373.2	0.5134	584.2	11.7
373.2	0.5706	592.6	11.9
373.2	0.6538	591.7	11.8
373.2	0.7837	565.8	11.3
373.2	0.8522	516.3	10.3
373.2	0.902	425.1	8.5
393.2	0.156	510.3	10.2
393.2	0.2689	525.1	10.5
393.2	0.3933	531.4	10.6
393.2	0.4582	537.8	10.8
393.2	0.522	544.7	10.9
393.2	0.5922	546.8	10.9
393.2	0.6738	551.1	11
393.2	0.7464	553.2	11.1
393.2	0.8146	519.8	10.4
393.2	0.8728	400.2	8

System: octane + carbon dioxide; phases: Gas, Liquid
Property: Mole fraction of carbon dioxide (Gas); method: Gas volume after depressurization
Mole fraction of carbon dioxide	Temperature, K	Mole fraction of carbon dioxide	uncertainty
0.11	313.2	0.9858	0.01
0.2134	313.2	0.9944	0.0056
0.3377	313.2	0.9926	0.0074
0.4342	313.2	0.9924	0.0076
0.5534	313.2	0.9903	0.0097
0.6752	313.2	0.9899	0.01
0.752	313.2	0.9928	0.0072
0.8581	313.2	0.9915	0.0085
0.9447	313.2	0.9447	0.01
0.2891	333.2	0.9927	0.0073
0.3593	333.2	0.9939	0.0061
0.4296	333.2	0.9923	0.0077
0.1573	333.2	0.9773	0.01
0.4956	333.2	0.9894	0.01
0.206	333.2	0.9883	0.01
0.5915	333.2	0.9891	0.01
0.7413	333.2	0.9854	0.01
0.8558	333.2	0.9815	0.01
0.9383	333.2	0.9383	0.01
0.4948	353.2	0.9868	0.01
0.5783	353.2	0.9834	0.01
0.6237	353.2	0.9832	0.01
0.1452	353.2	0.991	0.009
0.3596	353.2	0.9884	0.01
0.7761	353.2	0.9787	0.01
0.8255	353.2	0.9785	0.01
0.4373	353.2	0.9872	0.01
0.2452	353.2	0.9893	0.01
0.9154	353.2	0.9154	0.01
0.6538	373.2	0.9764	0.01
0.2172	373.2	0.9785	0.01
0.5706	373.2	0.98	0.01
0.7837	373.2	0.9591	0.01
0.369	373.2	0.9882	0.01
0.8522	373.2	0.934	0.01
0.902	373.2	0.902	0.01
0.5134	373.2	0.9875	0.01
0.8146	393.2	0.9642	0.01
0.7464	393.2	0.9651	0.01
0.6738	393.2	0.967	0.01
0.156	393.2	0.9214	0.01
0.5922	393.2	0.9699	0.01
0.8728	393.2	0.8728	0.01
0.522	393.2	0.9735	0.01
0.3933	393.2	0.9672	0.01
0.4582	393.2	0.9622	0.01
0.2689	393.2	0.9585	0.01
