Measured thermophysical data. Isobaric vapor-liquid equilibrium for acetone + methanol system containing different ionic liquids at 101.3 kPa
Source: Fluid Phase Equilib., 2018, 10.1016/j.fluid.2017.11.035
Compound 1: acetone, C3H6O, InChI=1S/C3H6O/c1-3(2)4/h1-2H3, purity 99.5%
Compound 2: methanol, CH4O, InChI=1S/CH4O/c1-2/h2H,1H3, purity 99.5%
Compound 3: 1-methyl-3-propylimidazolium bromide, C7H13BrN2, InChI=1S/C7H13N2.BrH/c1-3-4-9-6-5-8(2)7-9;/h5-7H,3-4H2,1-2H3;1H/q+1;/p-1, purity 99%
Compound 4: 1-allyl-3-methylimidazolium bromide, C7H11BrN2, InChI=1S/C7H11N2.BrH/c1-3-4-9-6-5-8(2)7-9;/h3,5-7H,1,4H2,2H3;1H/q+1;/p-1, purity 99%
Compound 5: 1-allyl-3-methylimidazolium chloride, C7H11ClN2, InChI=1S/C7H11N2.ClH/c1-3-4-9-6-5-8(2)7-9;/h3,5-7H,1,4H2,2H3;1H/q+1;/p-1, purity 99%

System: acetone; phases: Liquid, Gas
Property: Vapor or sublimation pressure, kPa (Liquid); method: Ebulliometric method (Recirculating still)
Temperature, K	Vapor or sublimation pressure, kPa	uncertainty
329.26	101.3	0.1

System: methanol; phases: Liquid, Gas
Property: Vapor or sublimation pressure, kPa (Liquid); method: Ebulliometric method (Recirculating still)
Temperature, K	Vapor or sublimation pressure, kPa	uncertainty
337.65	101.3	0.1

System: acetone + methanol; phases: Liquid, Gas
Fixed: Pressure, kPa = 101
Property: Boiling temperature at pressure P, K (Liquid); method: Ebulliometric method (Recirculating still)
Mole fraction of acetone	Boiling temperature at pressure P, K	uncertainty
0	337.65	0.09
0.051	336.1	0.1
0.098	334.83	0.1
0.151	333.59	0.1
0.198	332.65	0.09
0.253	331.78	0.09
0.302	331.13	0.09
0.349	330.6	0.09
0.401	330.1	0.09
0.449	329.61	0.09
0.498	329.1	0.09
0.551	328.71	0.09
0.599	328.46	0.09
0.651	328.33	0.09
0.702	328.25	0.09
0.748	328.21	0.09
0.801	328.2	0.09
0.85	328.28	0.09
0.901	328.45	0.09
0.949	328.7	0.09
1	329.26	0.09

System: acetone + methanol; phases: Gas, Liquid
Fixed: Pressure, kPa = 101
Property: Mole fraction of acetone (Gas); method: Chromatography
Mole fraction of acetone	Mole fraction of acetone	uncertainty
0	0	
0.051	0.109	0.005
0.098	0.191	0.004
0.151	0.267	0.004
0.198	0.326	0.004
0.253	0.387	0.005
0.302	0.433	0.005
0.349	0.471	0.005
0.401	0.513	0.005
0.449	0.548	0.005
0.498	0.582	0.005
0.551	0.616	0.004
0.599	0.651	0.004
0.651	0.684	0.004
0.702	0.721	0.004
0.748	0.753	0.004
0.801	0.795	0.003
0.85	0.838	0.003
0.901	0.885	0.003
0.949	0.936	0.003
1	1	

System: acetone + methanol + 1-allyl-3-methylimidazolium chloride; phases: Liquid, Gas
Fixed: Pressure, kPa = 101.3
Property: Mole fraction of 1-allyl-3-methylimidazolium chloride (Liquid); method: Chromatography
Property: Mole fraction of methanol (Gas); method: Chromatography
Property: Mole fraction of acetone (Gas); method: Chromatography
Temperature, K	Mole fraction of acetone	Mole fraction of 1-allyl-3-methylimidazolium chloride	uncertainty	Mole fraction of methanol	uncertainty	Mole fraction of acetone	uncertainty
337.03	0.042	0.019	0.002	0.901	0.002	0.099	
335.51	0.094	0.02	0.002	0.798	0.003	0.202	
334.26	0.145	0.02	0.002	0.719	0.003	0.281	
333.12	0.201	0.019	0.002	0.646	0.004	0.354	
332.26	0.255	0.019	0.002	0.587	0.004	0.413	
331.69	0.297	0.019	0.002	0.548	0.005	0.452	
331.1	0.348	0.019	0.002	0.503	0.005	0.497	
330.69	0.393	0.02	0.002	0.463	0.005	0.537	
330.26	0.449	0.02	0.002	0.421	0.004	0.579	
329.97	0.502	0.021	0.002	0.382	0.004	0.618	
329.76	0.547	0.022	0.002	0.348	0.004	0.652	
329.56	0.611	0.022	0.002	0.305	0.003	0.695	
329.46	0.654	0.022	0.002	0.275	0.003	0.725	
329.38	0.709	0.021	0.002	0.239	0.003	0.761	
329.39	0.766	0.021	0.002	0.197	0.003	0.803	
329.46	0.823	0.02	0.002	0.155	0.002	0.845	
329.59	0.862	0.02	0.002	0.122	0.002	0.878	
337.86	0.051	0.048	0.002	0.865	0.003	0.135	
336.22	0.1	0.049	0.002	0.763	0.003	0.237	
334.87	0.152	0.05	0.002	0.675	0.004	0.325	
333.88	0.197	0.05	0.002	0.612	0.004	0.388	
333.03	0.246	0.051	0.002	0.552	0.005	0.448	
332.29	0.295	0.05	0.002	0.505	0.005	0.495	
331.64	0.353	0.051	0.002	0.448	0.005	0.552	
331.2	0.401	0.051	0.002	0.407	0.004	0.593	
330.87	0.455	0.052	0.002	0.369	0.004	0.631	
330.59	0.504	0.052	0.002	0.334	0.004	0.666	
330.37	0.555	0.051	0.002	0.296	0.003	0.704	
330.26	0.601	0.051	0.002	0.266	0.003	0.734	
330.18	0.646	0.05	0.002	0.241	0.003	0.759	
330.18	0.703	0.05	0.002	0.202	0.003	0.798	
330.27	0.751	0.051	0.002	0.166	0.003	0.834	
330.41	0.806	0.051	0.002	0.125	0.002	0.875	
330.54	0.842	0.051	0.002	0.095	0.002	0.905	
340	0.058	0.099	0.002	0.821	0.003	0.179	
338.21	0.103	0.099	0.002	0.715	0.003	0.285	
336.77	0.149	0.1	0.002	0.629	0.004	0.371	
335.62	0.192	0.1	0.002	0.562	0.005	0.438	
334.38	0.251	0.1	0.002	0.486	0.005	0.514	
333.53	0.304	0.1	0.002	0.429	0.004	0.571	
332.78	0.366	0.099	0.002	0.374	0.004	0.626	
332.42	0.402	0.099	0.002	0.345	0.004	0.655	
332.04	0.456	0.099	0.002	0.305	0.003	0.695	
331.82	0.505	0.1	0.002	0.268	0.003	0.732	
331.68	0.561	0.101	0.002	0.231	0.003	0.769	
331.64	0.602	0.102	0.002	0.203	0.003	0.797	
331.63	0.648	0.102	0.002	0.173	0.003	0.827	
331.64	0.689	0.101	0.002	0.147	0.002	0.853	
331.7	0.722	0.101	0.002	0.126	0.002	0.874	
331.78	0.761	0.1	0.002	0.101	0.002	0.899	
331.87	0.797	0.098	0.002	0.078	0.002	0.922	

System: acetone + methanol + 1-allyl-3-methylimidazolium bromide; phases: Liquid, Gas
Fixed: Pressure, kPa = 101.3
Property: Mole fraction of 1-allyl-3-methylimidazolium bromide (Liquid); method: Chromatography
Property: Mole fraction of methanol (Gas); method: Chromatography
Property: Mole fraction of acetone (Gas); method: Chromatography
Temperature, K	Mole fraction of acetone	Mole fraction of 1-allyl-3-methylimidazolium bromide	uncertainty	Mole fraction of methanol	uncertainty	Mole fraction of acetone	uncertainty
336.71	0.053	0.021	0.002	0.875	0.002	0.125	
334.98	0.112	0.018	0.002	0.772	0.003	0.228	
333.94	0.159	0.02	0.002	0.702	0.004	0.298	
333.08	0.203	0.019	0.002	0.647	0.004	0.353	
332.33	0.251	0.021	0.002	0.591	0.004	0.409	
331.79	0.289	0.02	0.002	0.552	0.005	0.448	
331.11	0.347	0.019	0.002	0.502	0.005	0.498	
330.64	0.398	0.019	0.002	0.464	0.005	0.536	
330.28	0.449	0.021	0.002	0.424	0.004	0.576	
329.96	0.501	0.021	0.002	0.384	0.004	0.616	
329.66	0.562	0.019	0.002	0.345	0.004	0.655	
329.48	0.611	0.019	0.002	0.314	0.003	0.686	
329.41	0.653	0.02	0.002	0.285	0.003	0.715	
329.34	0.717	0.02	0.002	0.237	0.003	0.763	
329.38	0.762	0.021	0.002	0.202	0.003	0.798	
329.46	0.828	0.02	0.002	0.152	0.002	0.848	
329.58	0.872	0.019	0.002	0.114	0.002	0.886	
337.68	0.053	0.05	0.002	0.862	0.003	0.138	
336.1	0.112	0.051	0.002	0.762	0.003	0.238	
334.87	0.159	0.048	0.002	0.689	0.004	0.311	
333.94	0.203	0.049	0.002	0.633	0.004	0.367	
333.07	0.251	0.05	0.002	0.574	0.005	0.426	
332.41	0.289	0.052	0.002	0.521	0.005	0.479	
331.93	0.347	0.051	0.002	0.479	0.005	0.521	
331.09	0.398	0.05	0.002	0.418	0.004	0.582	
330.92	0.449	0.05	0.002	0.399	0.004	0.601	
330.53	0.501	0.051	0.002	0.347	0.004	0.653	
330.33	0.562	0.049	0.002	0.317	0.003	0.683	
330.2	0.611	0.048	0.002	0.289	0.003	0.711	
330.1	0.653	0.049	0.002	0.256	0.003	0.744	
330.11	0.717	0.049	0.002	0.213	0.003	0.787	
330.18	0.762	0.05	0.002	0.175	0.003	0.825	
330.31	0.828	0.051	0.002	0.143	0.002	0.857	
330.44	0.872	0.05	0.002	0.109	0.002	0.891	
339.87	0.047	0.1	0.002	0.852	0.003	0.148	
337.87	0.098	0.102	0.002	0.727	0.003	0.273	
336.4	0.143	0.102	0.002	0.641	0.004	0.359	
335.17	0.191	0.102	0.002	0.567	0.005	0.433	
333.91	0.252	0.102	0.002	0.489	0.005	0.511	
333.3	0.289	0.101	0.002	0.451	0.005	0.549	
332.56	0.347	0.1	0.002	0.397	0.004	0.603	
331.99	0.415	0.101	0.002	0.341	0.004	0.659	
331.69	0.462	0.1	0.002	0.307	0.003	0.693	
331.5	0.514	0.101	0.002	0.269	0.003	0.731	
331.39	0.562	0.101	0.002	0.237	0.003	0.763	
331.38	0.606	0.102	0.002	0.206	0.003	0.794	
331.38	0.641	0.102	0.002	0.183	0.003	0.817	
331.42	0.686	0.101	0.002	0.156	0.002	0.844	
331.5	0.729	0.1	0.002	0.128	0.002	0.872	
331.58	0.762	0.099	0.002	0.107	0.002	0.893	
331.8	0.803	0.099	0.002	0.078	0.002	0.922	

System: acetone + methanol + 1-methyl-3-propylimidazolium bromide; phases: Liquid, Gas
Fixed: Pressure, kPa = 101.3
Property: Mole fraction of 1-methyl-3-propylimidazolium bromide (Liquid); method: Chromatography
Property: Mole fraction of methanol (Gas); method: Chromatography
Property: Mole fraction of acetone (Gas); method: Chromatography
Temperature, K	Mole fraction of acetone	Mole fraction of 1-methyl-3-propylimidazolium bromide	uncertainty	Mole fraction of methanol	uncertainty	Mole fraction of acetone	uncertainty
336.84	0.048	0.018	0.002	0.889	0.002	0.111	
334.91	0.121	0.021	0.002	0.757	0.003	0.243	
333.98	0.163	0.021	0.002	0.698	0.004	0.302	
333.21	0.202	0.02	0.002	0.647	0.004	0.353	
332.3	0.258	0.019	0.002	0.588	0.004	0.412	
331.69	0.302	0.018	0.002	0.546	0.005	0.454	
331.16	0.353	0.02	0.002	0.499	0.005	0.501	
330.74	0.401	0.021	0.002	0.465	0.005	0.535	
330.34	0.451	0.021	0.002	0.422	0.004	0.578	
329.96	0.518	0.021	0.002	0.376	0.004	0.624	
329.77	0.552	0.02	0.002	0.354	0.004	0.646	
329.52	0.614	0.019	0.002	0.315	0.003	0.685	
329.42	0.659	0.019	0.002	0.284	0.003	0.716	
329.39	0.698	0.02	0.002	0.253	0.003	0.747	
329.41	0.747	0.021	0.002	0.218	0.003	0.782	
329.46	0.813	0.02	0.002	0.165	0.003	0.835	
329.66	0.876	0.02	0.002	0.111	0.002	0.889	
338.09	0.047	0.05	0.002	0.881	0.002	0.119	
336.12	0.112	0.051	0.002	0.754	0.003	0.246	
335.14	0.149	0.05	0.002	0.695	0.004	0.305	
334.07	0.202	0.051	0.002	0.622	0.004	0.378	
333.17	0.255	0.051	0.002	0.559	0.005	0.441	
332.53	0.298	0.05	0.002	0.516	0.005	0.484	
331.93	0.347	0.051	0.002	0.472	0.005	0.528	
331.53	0.392	0.051	0.002	0.434	0.004	0.566	
331.17	0.443	0.051	0.002	0.395	0.004	0.605	
330.79	0.498	0.05	0.002	0.356	0.004	0.644	
330.6	0.547	0.05	0.002	0.321	0.004	0.679	
330.37	0.614	0.048	0.002	0.276	0.003	0.724	
330.32	0.653	0.049	0.002	0.249	0.003	0.751	
330.33	0.712	0.05	0.002	0.205	0.003	0.795	
330.36	0.762	0.049	0.002	0.169	0.003	0.831	
330.48	0.802	0.05	0.002	0.136	0.002	0.864	
330.63	0.854	0.049	0.002	0.094	0.002	0.906	
340.17	0.062	0.101	0.002	0.829	0.003	0.171	
338.46	0.113	0.102	0.002	0.721	0.003	0.279	
337.16	0.158	0.102	0.002	0.643	0.004	0.357	
336.17	0.202	0.102	0.002	0.578	0.004	0.422	
335.18	0.251	0.101	0.002	0.518	0.005	0.482	
334.37	0.298	0.1	0.002	0.468	0.005	0.532	
333.73	0.349	0.1	0.002	0.419	0.004	0.581	
333.34	0.392	0.101	0.002	0.383	0.004	0.617	
332.87	0.451	0.101	0.002	0.334	0.004	0.666	
332.61	0.504	0.102	0.002	0.294	0.003	0.706	
332.38	0.553	0.101	0.002	0.262	0.003	0.738	
332.27	0.598	0.101	0.002	0.229	0.003	0.771	
332.18	0.632	0.1	0.002	0.208	0.003	0.792	
332.16	0.675	0.1	0.002	0.176	0.003	0.824	
332.24	0.717	0.101	0.002	0.146	0.002	0.854	
332.31	0.756	0.101	0.002	0.117	0.002	0.883	
332.44	0.802	0.101	0.002	0.082	0.002	0.918	
