Measured thermophysical data. Solid liquid equilibrium and hydrogen solubility of trans-decahydronaphthalene + naphthalene and cis-decahydronaphthalene + naphthalene for a new hydrogen storage medium in fuel cell system
Source: Fluid Phase Equilib., 2007, 10.1016/j.fluid.2007.01.029
Compound 1: hydrogen, H2, InChI=1S/H2/h1H
Compound 2: benzene, C6H6, InChI=1S/C6H6/c1-2-4-6-5-3-1/h1-6H
Compound 3: cyclohexane, C6H12, InChI=1S/C6H12/c1-2-4-6-5-3-1/h1-6H2
Compound 4: naphthalene, C10H8, InChI=1S/C10H8/c1-2-6-10-8-4-3-7-9(10)5-1/h1-8H
Compound 5: trans-decahydronaphthalene, C10H18, InChI=1S/C10H18/c1-2-6-10-8-4-3-7-9(10)5-1/h9-10H,1-8H2/t9-,10-
Compound 6: cis-decahydronaphthalene, C10H18, InChI=1S/C10H18/c1-2-6-10-8-4-3-7-9(10)5-1/h9-10H,1-8H2/t9-,10+

System: benzene; phases: Crystal, Liquid, Air at 1 atmosphere
Property: Normal melting temperature, K (Crystal); method: LSTA:UFactor:2
Normal melting temperature, K	uncertainty
278.59	0.6

System: cyclohexane; phases: Crystal, Liquid, Air at 1 atmosphere
Property: Normal melting temperature, K (Crystal); method: LSTA:UFactor:2
Normal melting temperature, K	uncertainty
279.63	0.6

System: naphthalene; phases: Crystal, Liquid, Air at 1 atmosphere
Property: Normal melting temperature, K (Crystal); method: LSTA:UFactor:2
Normal melting temperature, K	uncertainty
353.14	0.6

System: trans-decahydronaphthalene; phases: Crystal, Liquid, Air at 1 atmosphere
Property: Normal melting temperature, K (Crystal); method: LSTA:UFactor:2
Normal melting temperature, K	uncertainty
242.71	0.6

System: cis-decahydronaphthalene; phases: Crystal, Liquid, Air at 1 atmosphere
Property: Normal melting temperature, K (Crystal); method: LSTA:UFactor:2
Normal melting temperature, K	uncertainty
228.07	0.6

System: benzene + cyclohexane; phases: Crystal, Crystal, Air at 1 atmosphere, Liquid
Property: Eutectic temperature, K (Crystal); method: DTA
Eutectic temperature, K	uncertainty
232.11	0.6

System: benzene + cyclohexane; phases: Crystal, Crystal, Air at 1 atmosphere, Liquid
Property: Eutectic composition: mole fraction of benzene (Crystal); method: Derived from phase diagram analysis
Eutectic composition: mole fraction of benzene	uncertainty
0.2709	0.005

System: benzene + cyclohexane; phases: Liquid, Crystal
Fixed: Pressure, kPa = 101
Property: Solid-liquid equilibrium temperature, K (Liquid); method: LSTA:UFactor:2
Mole fraction of benzene	Solid-liquid equilibrium temperature, K	uncertainty
0.349	238.42	0.6
0.4346	244.53	0.6
0.5192	250.02	0.6
0.6118	255.36	0.6
0.7228	261.88	0.6
0.7296	262.19	0.6
0.8223	267.27	0.6
0.9042	272.5	0.6
1	278.59	0.6

System: benzene + cyclohexane; phases: Liquid, Crystal
Fixed: Pressure, kPa = 101
Property: Solid-liquid equilibrium temperature, K (Liquid); method: LSTA:UFactor:2
Mole fraction of benzene	Solid-liquid equilibrium temperature, K	uncertainty
0	279.63	0.6
0.1088	259.44	0.6
0.1607	249.06	0.6
0.2121	240.53	0.6

System: naphthalene + trans-decahydronaphthalene; phases: Crystal, Crystal, Air at 1 atmosphere, Liquid
Property: Eutectic temperature, K (Crystal); method: DTA
Eutectic temperature, K	uncertainty
241.98	0.6

System: naphthalene + trans-decahydronaphthalene; phases: Crystal, Crystal, Air at 1 atmosphere, Liquid
Property: Eutectic composition: mole fraction of trans-decahydronaphthalene (Crystal); method: Derived from phase diagram analysis
Eutectic composition: mole fraction of trans-decahydronaphthalene	uncertainty
0.9816	0.005

System: naphthalene + trans-decahydronaphthalene; phases: Liquid, Crystal
Fixed: Pressure, kPa = 101
Property: Solid-liquid equilibrium temperature, K (Liquid); method: LSTA:UFactor:2
Mole fraction of trans-decahydronaphthalene	Solid-liquid equilibrium temperature, K	uncertainty
0	353.14	0.6
0.0687	349.21	0.6
0.2164	341.67	0.6
0.3245	335.97	0.6
0.4634	328.04	0.6
0.5739	320.76	0.6
0.6539	313.52	0.6
0.7117	308.2	0.6
0.8272	290.96	0.6
0.9244	269.03	0.6
0.9384	264.1	0.6
0.961	251.96	0.6
0.9798	242	0.6

System: naphthalene + trans-decahydronaphthalene; phases: Liquid, Crystal
Fixed: Pressure, kPa = 101
Property: Solid-liquid equilibrium temperature, K (Liquid); method: LSTA:UFactor:2
Mole fraction of trans-decahydronaphthalene	Solid-liquid equilibrium temperature, K	uncertainty
0.9864	241.98	0.6
0.9899	242.31	0.6
1	242.71	0.6

System: naphthalene + cis-decahydronaphthalene; phases: Crystal, Crystal, Air at 1 atmosphere, Liquid
Property: Eutectic temperature, K (Crystal); method: DTA
Eutectic temperature, K	uncertainty
225.74	0.6

System: naphthalene + cis-decahydronaphthalene; phases: Crystal, Crystal, Air at 1 atmosphere, Liquid
Property: Eutectic composition: mole fraction of cis-decahydronaphthalene (Crystal); method: Derived from phase diagram analysis
Eutectic composition: mole fraction of cis-decahydronaphthalene	uncertainty
0.9822	0.005

System: naphthalene + cis-decahydronaphthalene; phases: Liquid, Crystal
Fixed: Pressure, kPa = 101
Property: Solid-liquid equilibrium temperature, K (Liquid); method: LSTA:UFactor:2
Mole fraction of cis-decahydronaphthalene	Solid-liquid equilibrium temperature, K	uncertainty
0	353.14	0.6
0.1073	347.35	0.6
0.2024	342.01	0.6
0.2985	336.54	0.6
0.4178	330.14	0.6
0.4971	325.4	0.6
0.5488	321.47	0.6
0.7041	308.48	0.6
0.7631	302.29	0.6
0.8045	295.66	0.6
0.9087	272.67	0.6
0.9642	244.47	0.6
0.98	227.99	0.6

System: naphthalene + cis-decahydronaphthalene; phases: Liquid, Crystal
Fixed: Pressure, kPa = 101
Property: Solid-liquid equilibrium temperature, K (Liquid); method: LSTA:UFactor:2
Mole fraction of cis-decahydronaphthalene	Solid-liquid equilibrium temperature, K	uncertainty
0.9895	226.69	0.6
1	228.07	0.6

System: trans-decahydronaphthalene + hydrogen; phases: Liquid, Gas
Fixed: Temperature, K = 303.15
Property: Vapor or sublimation pressure, kPa (Liquid); method: CCELL:UFactor:4
Mole fraction of hydrogen	Vapor or sublimation pressure, kPa	uncertainty
0.007294	1702	21
0.008936	2062	26
0.011064	2529	32
0.012767	2918	36
0.014058	3232	40
0.014748	3398	42
0.017354	4033	50
0.01813	4211	52

System: cis-decahydronaphthalene + hydrogen; phases: Liquid, Gas
Fixed: Temperature, K = 303.15
Property: Vapor or sublimation pressure, kPa (Liquid); method: CCELL:UFactor:4
Mole fraction of hydrogen	Vapor or sublimation pressure, kPa	uncertainty
0.006318	1702	22
0.007854	2105	28
0.009909	2667	35
0.011767	3195	42
0.013347	3604	48
0.015395	4153	55
0.01661	4473	59

System: cis-decahydronaphthalene + trans-decahydronaphthalene + hydrogen; phases: Liquid, Gas
Fixed: Temperature, K = 303.15
Fixed: Solvent: Mole fraction of trans-decahydronaphthalene = 0.5
Property: Vapor or sublimation pressure, kPa (Liquid); method: CCELL:UFactor:4
Mole fraction of hydrogen	Vapor or sublimation pressure, kPa	uncertainty
0.007443	1879	24
0.00922	2300	29
0.010946	2709	34
0.01306	3268	41
0.01533	3832	48
0.016228	4040	51
0.01759	4384	55

System: naphthalene + cis-decahydronaphthalene + hydrogen; phases: Liquid, Gas
Fixed: Temperature, K = 303.15
Fixed: Solvent: Mole fraction of cis-decahydronaphthalene = 0.85
Property: Vapor or sublimation pressure, kPa (Liquid); method: CCELL:UFactor:4
Mole fraction of hydrogen	Vapor or sublimation pressure, kPa	uncertainty
0.006798	1851	23
0.007302	2007	25
0.008241	2259	29
0.010151	2771	35
0.011969	3284	41
0.013512	3705	47
0.015593	4251	54

System: naphthalene + trans-decahydronaphthalene + hydrogen; phases: Liquid, Gas
Fixed: Temperature, K = 303.15
Fixed: Solvent: Mole fraction of trans-decahydronaphthalene = 0.85
Property: Vapor or sublimation pressure, kPa (Liquid); method: CCELL:UFactor:4
Mole fraction of hydrogen	Vapor or sublimation pressure, kPa	uncertainty
0.007892	1925	24
0.009176	2219	28
0.011613	2804	35
0.012819	3097	39
0.014125	3391	42
0.015903	3845	48
0.017795	4279	53
