Measured thermophysical data. Isothermal vapour liquid equilibria in the binary and ternary systems composed of tert-butyl methyl ether, 3,3-dimethyl-2-butanone and 2,2-dimethyl-1-propanol
Source: Fluid Phase Equilib., 2009, 10.1016/j.fluid.2009.01.016
Compound 1: 2-methoxy-2-methylpropane, C5H12O, InChI=1S/C5H12O/c1-5(2,3)6-4/h1-4H3
Compound 2: 3,3-dimethyl-2-butanone, C6H12O, InChI=1S/C6H12O/c1-5(7)6(2,3)4/h1-4H3
Compound 3: 2,2-dimethyl-1-propanol, C5H12O, InChI=1S/C5H12O/c1-5(2,3)4-6/h6H,4H2,1-3H3

System: 2,2-dimethyl-1-propanol + 3,3-dimethyl-2-butanone; phases: Liquid, Gas
Property: Vapor or sublimation pressure, kPa (Liquid); method: Ebulliometric method (Recirculating still)
Mole fraction of 3,3-dimethyl-2-butanone	Temperature, K	Vapor or sublimation pressure, kPa	uncertainty
0	320	5.11	0.07
0	330	8.83	0.09
0	340	14.66	0.13
0.2424	340	19.08	0.16
0.2794	330	12.43	0.11
0.2928	340	19.82	0.16
0.4715	320	9.05	0.09
0.4851	330	14.58	0.12
0.4963	340	22.54	0.17
0.5577	320	9.61	0.09
0.5709	330	15.43	0.13
0.5781	340	23.59	0.18
0.6589	320	10.23	0.09
0.6694	330	16.15	0.13
0.6776	340	24.57	0.18
0.7814	320	10.87	0.1
0.7894	330	17.06	0.13
0.7955	340	25.71	0.18
0.8658	320	11.23	0.1
0.8683	330	17.67	0.13
0.8731	340	26.49	0.18
0.9385	320	11.75	0.1
0.9398	330	18.15	0.14
0.9878	320	11.95	0.1
0.9884	340	27.58	0.19
0.9902	330	18.53	0.14
1	320	12.13	0.1
1	330	18.65	0.14
1	340	27.72	0.19

System: 2,2-dimethyl-1-propanol + 3,3-dimethyl-2-butanone; phases: Gas, Liquid
Property: Mole fraction of 3,3-dimethyl-2-butanone (Gas); method: Chromatography
Mole fraction of 3,3-dimethyl-2-butanone	Temperature, K	Mole fraction of 3,3-dimethyl-2-butanone	uncertainty
0	320	0	0.0001
0	330	0	0.0001
0	340	0	0.0001
0.2424	340	0.3961	0.0073
0.2794	330	0.4782	0.01
0.2928	340	0.4528	0.0091
0.4715	320	0.6845	0.0083
0.4851	330	0.6639	0.0087
0.4963	340	0.642	0.009
0.5577	320	0.7449	0.0071
0.5709	330	0.7281	0.0074
0.5781	340	0.708	0.0078
0.6589	320	0.8056	0.0056
0.6694	330	0.7891	0.006
0.6776	340	0.7773	0.0063
0.7814	320	0.8724	0.0039
0.7894	330	0.8669	0.0041
0.7955	340	0.8584	0.0042
0.8658	320	0.9202	0.0029
0.8683	330	0.9168	0.003
0.8731	340	0.9127	0.0031
0.9385	320	0.9635	0.0022
0.9398	330	0.9605	0.0022
0.9878	320	0.9926	0.002
0.9884	340	0.9918	0.002
0.9902	330	0.9922	0.002
1	320	1	0.0001
1	330	1	0.0001
1	340	1	0.0001

System: 2,2-dimethyl-1-propanol + 2-methoxy-2-methylpropane; phases: Liquid, Gas
Property: Vapor or sublimation pressure, kPa (Liquid); method: Ebulliometric method (Recirculating still)
Mole fraction of 2-methoxy-2-methylpropane	Temperature, K	Vapor or sublimation pressure, kPa	uncertainty
0	320	5.11	0.07
0	330	8.83	0.09
0	340	14.66	0.13
0.3021	340	58.88	0.47
0.3708	330	48.59	0.37
0.3905	340	70.53	0.5
0.4158	330	53.14	0.39
0.4395	340	77.12	0.5
0.4549	320	40.17	0.28
0.4655	330	57.65	0.4
0.4805	340	81.16	0.52
0.496	330	61.12	0.39
0.5257	320	44.97	0.3
0.5263	340	87.91	0.54
0.5849	340	94.48	0.54
0.5857	330	68.92	0.4
0.6532	320	53.63	0.32
0.6642	330	75.99	0.42
0.7408	320	59.04	0.33
0.7435	330	83.36	0.45
0.8084	320	63.59	0.35
0.8718	330	95.6	0.48
0.8763	320	68.11	0.36
0.934	320	72.31	0.38
0.9343	330	101.56	0.52
0.9604	320	74.09	0.38
0.989	320	76.08	0.38
1	320	76.17	0.36
1	330	108.14	0.49
1	340	146.97	0.65

System: 2,2-dimethyl-1-propanol + 2-methoxy-2-methylpropane; phases: Gas, Liquid
Property: Mole fraction of 2-methoxy-2-methylpropane (Gas); method: Chromatography
Mole fraction of 2-methoxy-2-methylpropane	Temperature, K	Mole fraction of 2-methoxy-2-methylpropane	uncertainty
0	320	0	0.0001
0	330	0	0.0001
0	340	0	0.0001
0.3021	340	0.8169	0.0053
0.3708	330	0.8792	0.0023
0.3905	340	0.8615	0.0024
0.4158	330	0.8955	0.0021
0.4395	340	0.8828	0.0023
0.4549	320	0.9149	0.0021
0.4655	330	0.911	0.0021
0.4805	340	0.8955	0.0022
0.496	330	0.92	0.0021
0.5257	320	0.9366	0.002
0.5263	340	0.9115	0.0021
0.5849	340	0.9253	0.002
0.5857	330	0.9402	0.002
0.6532	320	0.9616	0.002
0.6642	330	0.9543	0.002
0.7408	320	0.9723	0.002
0.7435	330	0.9667	0.002
0.8084	320	0.9792	0.002
0.8718	330	0.9842	0.002
0.8763	320	0.9874	0.002
0.934	320	0.9935	0.002
0.9343	330	0.9922	0.002
0.9604	320	0.9962	0.002
0.989	320	0.9989	0.0011
1	320	1	0.0001
1	330	1	0.0001
1	340	1	0.0001

System: 3,3-dimethyl-2-butanone + 2-methoxy-2-methylpropane; phases: Liquid, Gas
Property: Vapor or sublimation pressure, kPa (Liquid); method: Ebulliometric method (Recirculating still)
Mole fraction of 2-methoxy-2-methylpropane	Temperature, K	Vapor or sublimation pressure, kPa	uncertainty
0	320	12.13	0.1
0	330	18.65	0.14
0	340	27.72	0.19
0.0029	320	12.25	0.13
0.0033	330	19.16	0.77
0.0058	340	28.51	0.31
0.0176	320	13.37	0.19
0.0178	330	20.34	0.24
0.0183	340	30.01	0.33
0.0253	320	13.97	0.19
0.0336	330	22.07	0.26
0.0356	320	14.72	0.2
0.0394	340	32.91	0.35
0.047	320	15.73	0.21
0.063	330	25.01	0.26
0.0694	340	37.19	0.37
0.0824	330	27	0.24
0.0903	340	40.13	0.36
0.1232	330	31.33	0.26
0.132	340	45.5	0.38
0.2011	320	27.02	0.22
0.2084	330	39.81	0.3
0.2174	340	56.52	0.41
0.3095	320	34.12	0.24
0.3182	330	49.46	0.33
0.3256	340	69.98	0.45
0.414	330	57.98	0.36
0.4148	320	40.95	0.27
0.4152	340	80.36	0.48
0.4987	320	46.36	0.28
0.5064	330	66.13	0.38
0.5182	340	92.04	0.51
0.5793	320	51.57	0.3
0.5828	340	100.18	0.55
0.5918	330	73.35	0.4
0.6501	320	55.74	0.31
0.6505	340	109.26	0.57
0.6565	330	78.95	0.42
0.7331	320	60.84	0.33
0.7366	330	85.85	0.44
0.7389	340	118.26	0.59
0.8192	330	92.81	0.46
0.8208	320	66.16	0.35
0.8795	320	69.77	0.36
0.8799	330	98.39	0.48
1	320	76.17	0.36
1	330	108.14	0.49
1	340	146.97	0.65

System: 3,3-dimethyl-2-butanone + 2-methoxy-2-methylpropane; phases: Gas, Liquid
Property: Mole fraction of 2-methoxy-2-methylpropane (Gas); method: Chromatography
Mole fraction of 2-methoxy-2-methylpropane	Temperature, K	Mole fraction of 2-methoxy-2-methylpropane	uncertainty
0	320	0	0.0001
0	330	0	0.0001
0	340	0	0.0001
0.0029	320	0.0185	0.0128
0.0033	330	0.0304	0.0124
0.0058	340	0.0331	0.0107
0.0176	320	0.1101	0.0115
0.0178	330	0.1048	0.0105
0.0183	340	0.0985	0.0096
0.0253	320	0.1451	0.0101
0.0336	330	0.1881	0.0089
0.0356	320	0.1994	0.0102
0.0394	340	0.1945	0.0085
0.047	320	0.2531	0.0098
0.063	330	0.3032	0.0081
0.0694	340	0.3102	0.008
0.0824	330	0.3651	0.0073
0.0903	340	0.3762	0.0068
0.1232	330	0.4781	0.0073
0.132	340	0.4735	0.0069
0.2011	320	0.6209	0.0059
0.2084	330	0.6243	0.0052
0.2174	340	0.6111	0.0054
0.3095	320	0.7309	0.0037
0.3182	330	0.7352	0.0036
0.3256	340	0.7254	0.0037
0.414	330	0.7925	0.0028
0.4148	320	0.8128	0.0028
0.4152	340	0.789	0.0029
0.4987	320	0.8579	0.0024
0.5064	330	0.8371	0.0025
0.5182	340	0.8416	0.0025
0.5793	320	0.8912	0.0022
0.5828	340	0.8728	0.0023
0.5918	330	0.8856	0.0023
0.6501	320	0.9138	0.0021
0.6505	340	0.9014	0.0021
0.6565	330	0.9084	0.0021
0.7331	320	0.9379	0.002
0.7366	330	0.933	0.002
0.7389	340	0.9277	0.002
0.8192	330	0.9562	0.002
0.8208	320	0.9603	0.002
0.8795	320	0.9737	0.002
0.8799	330	0.9721	0.002
1	320	1	0.0001
1	330	1	0.0001
1	340	1	0.0001

System: 2,2-dimethyl-1-propanol + 3,3-dimethyl-2-butanone + 2-methoxy-2-methylpropane; phases: Liquid, Gas
Property: Vapor or sublimation pressure, kPa (Liquid); method: Ebulliometric method (Recirculating still)
Temperature, K	Mole fraction of 2-methoxy-2-methylpropane	Mole fraction of 3,3-dimethyl-2-butanone	Vapor or sublimation pressure, kPa	uncertainty
320	0.003	0.6802	10.7	0.19
320	0.0073	0.4391	9.48	0.18
320	0.0135	0.6958	11.62	0.19
320	0.0437	0.6782	13.91	0.2
320	0.0554	0.4186	12.98	0.19
320	0.1286	0.6234	20.22	0.22
320	0.1532	0.2914	19.56	0.21
320	0.2073	0.5703	25.7	0.23
320	0.253	0.2644	26.98	0.24
320	0.2588	0.5343	29.19	0.24
320	0.3602	0.2306	35.11	0.27
320	0.3763	0.4531	37.08	0.27
320	0.4638	0.3901	43.15	0.29
320	0.4661	0.1953	42.32	0.28
330	0.0024	0.7026	16.87	0.26
330	0.004	0.6801	16.88	0.24
330	0.0128	0.6985	17.86	0.4
330	0.0146	0.4468	15.91	0.13
330	0.0238	0.4433	16.84	0.15
330	0.0382	0.6859	21.09	0.32
330	0.0397	0.4313	18.38	0.23
330	0.0652	0.4206	21.01	0.35
330	0.0836	0.3204	22.06	0.22
330	0.1022	0.31	23.32	0.22
330	0.122	0.6294	29.03	0.3
330	0.1525	0.2953	28.57	0.33
330	0.21	0.5693	37.54	0.35
330	0.2563	0.2657	39.16	0.34
330	0.3106	0.5	47.06	0.35
330	0.3673	0.2286	51.27	0.34
330	0.3779	0.452	53.39	0.4
330	0.4604	0.1972	59.34	0.39
330	0.4691	0.3865	62.06	0.42
340	0.0026	0.7082	25.47	0.32
340	0.0045	0.683	25.57	0.35
340	0.0147	0.7027	26.99	0.32
340	0.0162	0.4514	24.59	0.32
340	0.0268	0.4485	25.91	0.34
340	0.042	0.3359	26.7	0.36
340	0.045	0.6831	31.67	0.37
340	0.0726	0.4237	31.97	0.35
340	0.0873	0.3213	33.34	0.29
340	0.1062	0.3135	34.95	0.3
340	0.1198	0.6315	41.31	0.39
340	0.1602	0.2968	42.24	0.4
340	0.21	0.5696	54.67	0.46
340	0.2586	0.2656	55.96	0.45
340	0.3171	0.4961	66.82	0.47
340	0.3837	0.4483	75.27	0.49
340	0.3863	0.2245	71.82	0.49
340	0.4638	0.1965	82.05	0.52
340	0.4815	0.3744	86.59	0.51

System: 2,2-dimethyl-1-propanol + 3,3-dimethyl-2-butanone + 2-methoxy-2-methylpropane; phases: Gas, Liquid
Property: Mole fraction of 3,3-dimethyl-2-butanone (Gas); method: Chromatography
Temperature, K	Mole fraction of 2-methoxy-2-methylpropane	Mole fraction of 3,3-dimethyl-2-butanone	Mole fraction of 3,3-dimethyl-2-butanone	uncertainty
320	0.003	0.6802	0.7989	0.0095
320	0.0073	0.4391	0.6225	0.0094
320	0.0135	0.6958	0.7505	0.0101
320	0.0437	0.6782	0.6271	0.011
320	0.0554	0.4186	0.4654	0.0076
320	0.1286	0.6234	0.4442	0.0084
320	0.1532	0.2914	0.2485	0.0037
320	0.2073	0.5703	0.3115	0.0044
320	0.253	0.2644	0.1592	0.003
320	0.2588	0.5343	0.2586	0.0038
320	0.3602	0.2306	0.0929	0.0025
320	0.3763	0.4531	0.1635	0.0033
320	0.4638	0.3901	0.1266	0.0024
320	0.4661	0.1953	0.0656	0.0022
330	0.0024	0.7026	0.7978	0.0106
330	0.004	0.6801	0.7777	0.0099
330	0.0128	0.6985	0.7468	0.0109
330	0.0146	0.4468	0.5704	0.0111
330	0.0238	0.4433	0.5347	0.0113
330	0.0382	0.6859	0.6371	0.0106
330	0.0397	0.4313	0.4764	0.009
330	0.0652	0.4206	0.4101	0.0071
330	0.0836	0.3204	0.3178	0.0048
330	0.1022	0.31	0.2927	0.0045
330	0.122	0.6294	0.4153	0.008
330	0.1525	0.2953	0.2306	0.0038
330	0.21	0.5693	0.3052	0.0045
330	0.2563	0.2657	0.1431	0.0029
330	0.3106	0.5	0.2102	0.0036
330	0.3673	0.2286	0.095	0.0023
330	0.3779	0.452	0.1695	0.0027
330	0.4604	0.1972	0.0709	0.0022
330	0.4691	0.3865	0.1258	0.0024
340	0.0026	0.7082	0.7894	0.01
340	0.0045	0.683	0.7612	0.0091
340	0.0147	0.7027	0.7328	0.0105
340	0.0162	0.4514	0.5464	0.0097
340	0.0268	0.4485	0.5132	0.0103
340	0.042	0.3359	0.3845	0.0064
340	0.045	0.6831	0.6149	0.0103
340	0.0726	0.4237	0.3936	0.0072
340	0.0873	0.3213	0.3005	0.0048
340	0.1062	0.3135	0.273	0.0045
340	0.1198	0.6315	0.4329	0.0082
340	0.1602	0.2968	0.2133	0.0036
340	0.21	0.5696	0.3017	0.0046
340	0.2586	0.2656	0.1447	0.0028
340	0.3171	0.4961	0.2165	0.0036
340	0.3837	0.4483	0.1748	0.0028
340	0.3863	0.2245	0.0975	0.0023
340	0.4638	0.1965	0.0744	0.0022
340	0.4815	0.3744	0.1329	0.0025

System: 2,2-dimethyl-1-propanol + 3,3-dimethyl-2-butanone + 2-methoxy-2-methylpropane; phases: Gas, Liquid
Property: Mole fraction of 2-methoxy-2-methylpropane (Gas); method: Chromatography
Temperature, K	Mole fraction of 2-methoxy-2-methylpropane	Mole fraction of 3,3-dimethyl-2-butanone	Mole fraction of 2-methoxy-2-methylpropane	uncertainty
320	0.003	0.6802	0.0216	0.0109
320	0.0073	0.4391	0.0639	0.0094
320	0.0135	0.6958	0.0969	0.0115
320	0.0437	0.6782	0.2452	0.0114
320	0.0554	0.4186	0.2866	0.0053
320	0.1286	0.6234	0.4647	0.0098
320	0.1532	0.2914	0.5564	0.0084
320	0.2073	0.5703	0.6271	0.0075
320	0.253	0.2644	0.7208	0.0067
320	0.2588	0.5343	0.6908	0.0067
320	0.3602	0.2306	0.8425	0.0045
320	0.3763	0.4531	0.8063	0.0057
320	0.4638	0.3901	0.8502	0.004
320	0.4661	0.1953	0.8884	0.0034
330	0.0024	0.7026	0.013	0.013
330	0.004	0.6801	0.0272	0.0117
330	0.0128	0.6985	0.0845	0.0137
330	0.0146	0.4468	0.1063	0.0126
330	0.0238	0.4433	0.1624	0.0132
330	0.0382	0.6859	0.2228	0.0112
330	0.0397	0.4313	0.2505	0.0093
330	0.0652	0.4206	0.3542	0.008
330	0.0836	0.3204	0.4133	0.0072
330	0.1022	0.31	0.4531	0.008
330	0.122	0.6294	0.4957	0.0107
330	0.1525	0.2953	0.5695	0.0087
330	0.21	0.5693	0.6295	0.0076
330	0.2563	0.2657	0.7405	0.0063
330	0.3106	0.5	0.7467	0.0065
330	0.3673	0.2286	0.8283	0.0043
330	0.3779	0.452	0.796	0.0049
330	0.4604	0.1972	0.8719	0.0036
330	0.4691	0.3865	0.849	0.004
340	0.0026	0.7082	0.0183	0.0118
340	0.0045	0.683	0.0279	0.0105
340	0.0147	0.7027	0.0881	0.0118
340	0.0162	0.4514	0.1104	0.0102
340	0.0268	0.4485	0.1618	0.0105
340	0.042	0.3359	0.2517	0.0078
340	0.045	0.6831	0.2368	0.0108
340	0.0726	0.4237	0.354	0.0096
340	0.0873	0.3213	0.4163	0.0079
340	0.1062	0.3135	0.4672	0.0089
340	0.1198	0.6315	0.4638	0.0102
340	0.1602	0.2968	0.5859	0.0086
340	0.21	0.5696	0.6284	0.0078
340	0.2586	0.2656	0.7211	0.0065
340	0.3171	0.4961	0.7345	0.0066
340	0.3837	0.4483	0.786	0.0051
340	0.3863	0.2245	0.8131	0.0046
340	0.4638	0.1965	0.858	0.0039
340	0.4815	0.3744	0.8375	0.0042
