Measured thermophysical data. Solid-liquid equilibria of the quaternary system Na+, NH4+//Cl-, H2PO4- --H2O at 298.15 K and 323.15 K
Source: Fluid Phase Equilib., 2015, 10.1016/j.fluid.2015.06.038
Compound 1: sodium chloride, ClNa, InChI=1S/ClH.Na/h1H;/q;+1/p-1, purity 99%
Compound 2: ammonium chloride (NH4Cl), ClH4N, InChI=1S/ClH.H3N/h1H;1H3, purity 99%
Compound 3: water, H2O, InChI=1S/H2O/h1H2, purity 99.9%
Compound 4: sodium dihydrogen phosphate, H2NaO4P, InChI=1S/Na.H3O4P/c;1-5(2,3)4/h;(H3,1,2,3,4)/q+1;/p-1, purity 99%
Compound 5: ammonium dihydrogen phosphate, H6NO4P, InChI=1S/H3N.H3O4P/c;1-5(2,3)4/h1H3;(H3,1,2,3,4), purity 99%

System: sodium chloride + water + ammonium chloride (NH4Cl); phases: Liquid, Crystal of intercomponent compound 1
Property: Mass fraction of sodium chloride (Liquid); method: Titration method
Mass fraction of ammonium chloride (NH4Cl)	Pressure, kPa	Temperature, K	Mass fraction of sodium chloride	uncertainty
0.1585	101	298.15	0.1732	0.0005

System: ammonium dihydrogen phosphate + water + ammonium chloride (NH4Cl); phases: Liquid, Crystal of intercomponent compound 1
Property: Mass fraction of ammonium dihydrogen phosphate (Liquid); method: Titration method
Mass fraction of ammonium chloride (NH4Cl)	Pressure, kPa	Temperature, K	Mass fraction of ammonium dihydrogen phosphate	uncertainty
0.2539	101	298	0.0606	0.0002

System: sodium dihydrogen phosphate + ammonium dihydrogen phosphate + water; phases: Liquid, Crystal of intercomponent compound 1
Property: Mass fraction of ammonium dihydrogen phosphate (Liquid); method: Titration method
Mass fraction of sodium dihydrogen phosphate	Pressure, kPa	Temperature, K	Mass fraction of ammonium dihydrogen phosphate	uncertainty
0.4316	101	298	0.1183	0.0004

System: sodium dihydrogen phosphate + sodium chloride + water; phases: Liquid, Crystal of intercomponent compound 1
Property: Mass fraction of sodium chloride (Liquid); method: Titration method
Mass fraction of sodium dihydrogen phosphate	Pressure, kPa	Temperature, K	Mass fraction of sodium chloride	uncertainty
0.248	101	298	0.1482	0.0004
