Measured thermophysical data. Liquid-liquid equilibrium determination and thermodynamics modeling for extraction of isopropanol from its aqueous solution
Source: Fluid Phase Equilib., 2018, 10.1016/j.fluid.2017.11.010
Compound 1: propan-2-ol, C3H8O, InChI=1S/C3H8O/c1-3(2)4/h3-4H,1-2H3, purity 99.7%
Compound 2: water, H2O, InChI=1S/H2O/h1H2, purity 99.8%
Compound 3: 2-methylpropyl ethanoate, C6H12O2, InChI=1S/C6H12O2/c1-5(2)4-8-6(3)7/h5H,4H2,1-3H3, purity 99%
Compound 4: butyl ethanoate, C6H12O2, InChI=1S/C6H12O2/c1-3-4-5-8-6(2)7/h3-5H2,1-2H3, purity 99%
Compound 5: butyl propanoate, C7H14O2, InChI=1S/C7H14O2/c1-3-5-6-9-7(8)4-2/h3-6H2,1-2H3, purity 99%

System: 2-methylpropyl ethanoate + propan-2-ol + water; phases: Liquid mixture 2, Liquid mixture 1
Fixed: Pressure, kPa = 101.3
Property: Mole fraction of 2-methylpropyl ethanoate (Liquid mixture 2); method: Chromatography
Property: Mole fraction of propan-2-ol (Liquid mixture 1); method: Chromatography
Property: Mole fraction of 2-methylpropyl ethanoate (Liquid mixture 1); method: Chromatography
Temperature, K	Mole fraction of propan-2-ol	Mole fraction of 2-methylpropyl ethanoate	uncertainty	Mole fraction of propan-2-ol	uncertainty	Mole fraction of 2-methylpropyl ethanoate	uncertainty
298.15	0.0502	0.0013	0.0002	0.126	0.0016	0.7477	
298.15	0.0612	0.0016	0.0002	0.1551	0.0018	0.6924	
298.15	0.0734	0.0022	0.0002	0.1959	0.0022	0.6049	
298.15	0.0817	0.0029	0.0002	0.2438	0.0026	0.5037	
298.15	0.0875	0.004	0.0002	0.2819	0.0029	0.4013	
298.15	0.0928	0.0052	0.0002	0.3162	0.0032	0.3028	
298.15	0.1129	0.0068	0.0002	0.3286	0.0033	0.2185	
298.15	0.1254	0.0097	0.0002	0.3204	0.0032	0.1183	
308.15	0.0536	0.001	0.0002	0.1347	0.0016	0.7319	
308.15	0.0642	0.0014	0.0002	0.164	0.0019	0.6695	
308.15	0.0759	0.0018	0.0002	0.1995	0.0022	0.5982	
308.15	0.0842	0.0025	0.0002	0.2496	0.0026	0.488	
308.15	0.0895	0.0032	0.0002	0.2828	0.0029	0.3967	
308.15	0.0959	0.004	0.0002	0.3187	0.0032	0.2904	
308.15	0.1159	0.0055	0.0002	0.3311	0.0033	0.2051	
308.15	0.131	0.0082	0.0002	0.3229	0.0032	0.0887	

System: butyl ethanoate + propan-2-ol + water; phases: Liquid mixture 2, Liquid mixture 1
Fixed: Pressure, kPa = 101.3
Property: Mole fraction of butyl ethanoate (Liquid mixture 2); method: Chromatography
Property: Mole fraction of propan-2-ol (Liquid mixture 1); method: Chromatography
Property: Mole fraction of butyl ethanoate (Liquid mixture 1); method: Chromatography
Temperature, K	Mole fraction of propan-2-ol	Mole fraction of butyl ethanoate	uncertainty	Mole fraction of propan-2-ol	uncertainty	Mole fraction of butyl ethanoate	uncertainty
298.15	0.0516	0.0017	0.0002	0.1192	0.0012	0.7308	
298.15	0.0621	0.002	0.0002	0.1482	0.0015	0.6728	
298.15	0.0734	0.0027	0.0002	0.2017	0.002	0.5684	
298.15	0.0792	0.0034	0.0002	0.2349	0.0024	0.4838	
298.15	0.0849	0.0041	0.0002	0.2779	0.0028	0.4012	
298.15	0.0903	0.0059	0.0002	0.301	0.003	0.2798	
298.15	0.1057	0.0072	0.0002	0.3113	0.0031	0.2139	
298.15	0.1352	0.0101	0.0002	0.3052	0.0031	0.1011	
308.15	0.0537	0.0015	0.0002	0.1238	0.0012	0.7174	
308.15	0.0657	0.0018	0.0002	0.1545	0.0015	0.6613	
308.15	0.0766	0.0025	0.0002	0.2086	0.0021	0.5465	
308.15	0.0833	0.0029	0.0002	0.237	0.0024	0.4836	
308.15	0.0894	0.0037	0.0002	0.2761	0.0028	0.3923	
308.15	0.0956	0.0049	0.0002	0.3047	0.003	0.2928	
308.15	0.1084	0.0067	0.0002	0.3156	0.0032	0.1746	
308.15	0.1454	0.0096	0.0002	0.3017	0.003	0.0816	

System: butyl propanoate + propan-2-ol + water; phases: Liquid mixture 2, Liquid mixture 1
Fixed: Pressure, kPa = 101.3
Property: Mole fraction of butyl propanoate (Liquid mixture 2); method: Chromatography
Property: Mole fraction of propan-2-ol (Liquid mixture 1); method: Chromatography
Property: Mole fraction of butyl propanoate (Liquid mixture 1); method: Chromatography
Temperature, K	Mole fraction of propan-2-ol	Mole fraction of butyl propanoate	uncertainty	Mole fraction of propan-2-ol	uncertainty	Mole fraction of butyl propanoate	uncertainty
298.15	0.0502	0.0002	0.0002	0.1276	0.0013	0.755	
298.15	0.0615	0.0003	0.0002	0.1622	0.0016	0.7068	
298.15	0.0712	0.0004	0.0002	0.2157	0.0022	0.6216	
298.15	0.0787	0.0006	0.0002	0.2592	0.0026	0.54	
298.15	0.0851	0.0008	0.0002	0.3057	0.0031	0.4484	
298.15	0.0925	0.0011	0.0002	0.3414	0.0034	0.3521	
298.15	0.1107	0.002	0.0002	0.3733	0.0037	0.242	
298.15	0.1301	0.003	0.0002	0.3682	0.0037	0.2003	
308.15	0.0549	0		0.1356	0.0014	0.7386	
308.15	0.0651	0.0001	0.0001	0.1716	0.0017	0.683	
308.15	0.0741	0.0002	0.0002	0.2203	0.0022	0.6007	
308.15	0.0815	0.0003	0.0002	0.2667	0.0027	0.5115	
308.15	0.0906	0.0005	0.0002	0.3114	0.0031	0.4431	
308.15	0.098	0.001	0.0002	0.3507	0.0035	0.34	
308.15	0.1301	0.0015	0.0002	0.3803	0.0038	0.2293	
308.15	0.1487	0.0021	0.0002	0.3723	0.0037	0.2086	
