Measured thermophysical data. Isothermal vapor-liquid equilibria for the binary system of dimethylether (DME) + methyl iodide (CH3I)
Source: Fluid Phase Equilib., 2014, 10.1016/j.fluid.2014.06.029
Compound 1: dimethyl ether, C2H6O, InChI=1S/C2H6O/c1-3-2/h1-2H3, purity 99.9%
Compound 2: iodomethane, CH3I, InChI=1S/CH3I/c1-2/h1H3, purity 99.5%

System: dimethyl ether; phases: Liquid, Gas
Property: Vapor or sublimation pressure, kPa (Liquid); method: Ebulliometric method (Recirculating still)
Temperature, K	Vapor or sublimation pressure, kPa	uncertainty
283.15	372	10
293.15	501	10
303.15	687	10
313.15	898	10
323.15	1116.2	10

System: iodomethane; phases: Liquid, Gas
Property: Vapor or sublimation pressure, kPa (Liquid); method: Ebulliometric method (Recirculating still)
Temperature, K	Vapor or sublimation pressure, kPa	uncertainty
283.15	30	10
293.15	47.5	10
303.15	69.9	10
313.15	95	10
323.15	129	10

System: iodomethane + dimethyl ether; phases: Gas, Liquid
Property: Mole fraction of dimethyl ether (Gas); method: Chromatography
Temperature, K	Pressure, kPa	Mole fraction of dimethyl ether	uncertainty
283.15	30	0	
283.15	56	0.559	0.101
283.15	102	0.777	0.037
283.15	137	0.851	0.014
283.15	197	0.911	0.01
283.15	233	0.938	0.007
283.15	280	0.963	0.006
283.15	314	0.976	0.006
283.15	372	1	
293.15	48	0	
293.15	110	0.622	0.069
293.15	158	0.765	0.022
293.15	212	0.848	0.013
293.15	291	0.917	0.009
293.15	355	0.949	0.006
293.15	409	0.969	0.006
293.15	442	0.98	0.005
293.15	501	1	
303.15	70	0	
303.15	160	0.63	0.043
303.15	259	0.779	0.014
303.15	329	0.844	0.009
303.15	413	0.903	0.007
303.15	501	0.941	0.006
303.15	576	0.967	0.005
303.15	629	0.985	0.005
303.15	687	1	
313.15	95	0	
313.15	203	0.574	0.038
313.15	289	0.722	0.012
313.15	411	0.82	0.008
313.15	540	0.9	0.006
313.15	659	0.942	0.005
313.15	749	0.967	0.005
313.15	817	0.984	0.005
313.15	898	1	
323.15	129	0	
323.15	220	0.472	0.035
323.15	309	0.617	0.014
323.15	433	0.754	0.01
323.15	543	0.835	0.007
323.15	702	0.895	0.005
323.15	853	0.939	0.005
323.15	954	0.967	0.005
323.15	1052	0.983	0.005
323.15	1116	1	

System: iodomethane + dimethyl ether; phases: Liquid, Gas
Property: Mole fraction of dimethyl ether (Liquid); method: Chromatography
Temperature, K	Pressure, kPa	Mole fraction of dimethyl ether	uncertainty
283.15	30	0	
283.15	56	0.098	0.031
283.15	102	0.225	0.031
283.15	137	0.345	0.033
283.15	197	0.536	0.031
283.15	233	0.638	0.029
283.15	280	0.77	0.028
283.15	314	0.859	0.025
283.15	372	1	
293.15	48	0	
293.15	110	0.136	0.023
293.15	158	0.261	0.025
293.15	212	0.387	0.022
293.15	291	0.558	0.022
293.15	355	0.707	0.023
293.15	409	0.821	0.02
293.15	442	0.886	0.02
293.15	501	1	
303.15	70	0	
303.15	160	0.158	0.019
303.15	259	0.342	0.02
303.15	329	0.471	0.018
303.15	413	0.616	0.017
303.15	501	0.759	0.016
303.15	576	0.865	0.015
303.15	629	0.941	0.013
303.15	687	1	
313.15	95	0	
313.15	203	0.148	0.015
313.15	289	0.278	0.015
313.15	411	0.446	0.014
313.15	540	0.613	0.014
313.15	659	0.76	0.013
313.15	749	0.865	0.012
313.15	817	0.939	0.01
313.15	898	1	
323.15	129	0	
323.15	220	0.098	0.011
323.15	309	0.191	0.012
323.15	433	0.33	0.012
323.15	543	0.451	0.012
323.15	702	0.608	0.011
323.15	853	0.759	0.011
323.15	954	0.864	0.01
323.15	1052	0.939	0.009
323.15	1116	1	
