Measured thermophysical data. Liquid-liquid equilibrium data for (n-hexane + ethyl acetate + acetonitrile) ternary system at (298.15, 308.15, and 318.15) K
Source: Fluid Phase Equilib., 2016, 10.1016/j.fluid.2016.03.008
Compound 1: hexane, C6H14, InChI=1S/C6H14/c1-3-5-6-4-2/h3-6H2,1-2H3, purity 99.74%
Compound 2: ethyl acetate, C4H8O2, InChI=1S/C4H8O2/c1-3-6-4(2)5/h3H2,1-2H3, purity 99.82%
Compound 3: acetonitrile, C2H3N, InChI=1S/C2H3N/c1-2-3/h1H3, purity 99.78%

System: acetonitrile + hexane + ethyl acetate; phases: Liquid mixture 2, Liquid mixture 1
Fixed: Pressure, kPa = 101
Property: Mole fraction of ethyl acetate (Liquid mixture 2); method: Chromatography
Property: Mole fraction of ethyl acetate (Liquid mixture 1); method: Chromatography
Property: Mole fraction of hexane (Liquid mixture 1); method: Chromatography
Temperature, K	Mole fraction of hexane	Mole fraction of ethyl acetate	uncertainty	Mole fraction of ethyl acetate	uncertainty	Mole fraction of hexane	uncertainty
298.15	0.0798	0.0703	0.0044	0.0298	0.0028	0.8601	
298.15	0.1103	0.1295	0.0051	0.0696	0.0027	0.8202	
298.15	0.1305	0.1894	0.005	0.1191	0.0027	0.7611	
298.15	0.1507	0.2189	0.0034	0.1488	0.0027	0.7213	
298.15	0.1908	0.2594	0.0032	0.1888	0.0028	0.6614	
298.15	0.231	0.2887	0.0032	0.2291	0.0028	0.6004	
298.15	0.2724	0.3187	0.0031	0.2584	0.0029	0.5313	
298.15	0.3316	0.3189	0.003	0.2877	0.003	0.4722	
308.15	0.0904	0.0395	0.0077	0.0295	0.003	0.8601	
308.15	0.0996	0.0901	0.0068	0.0488	0.0027	0.841	
308.15	0.1198	0.1396	0.0047	0.0898	0.0026	0.79	
308.15	0.1498	0.1899	0.0037	0.1293	0.0025	0.7305	
308.15	0.1818	0.2288	0.0032	0.1591	0.0026	0.6806	
308.15	0.2224	0.2589	0.0031	0.1999	0.0027	0.6215	
308.15	0.2703	0.2895	0.003	0.2389	0.0028	0.5404	
308.15	0.3207	0.2989	0.0029	0.2685	0.003	0.4914	
318.15	0.0999	0.0499	0.005	0.0301	0.0025	0.8498	
318.15	0.1212	0.0989	0.0053	0.0594	0.0026	0.8108	
318.15	0.1406	0.1493	0.0039	0.0991	0.0025	0.7607	
318.15	0.1701	0.1797	0.0036	0.1288	0.0025	0.7115	
318.15	0.1907	0.2194	0.0034	0.1598	0.0026	0.6607	
318.15	0.2307	0.2492	0.003	0.1989	0.0027	0.6012	
318.15	0.2601	0.2698	0.0028	0.2195	0.0027	0.5616	
318.15	0.321	0.2791	0.0028	0.2488	0.0028	0.4926	
