Measured thermophysical data. Molecular dynamic simulation, molecular interactions and structural properties of 1-butyl-3-methylimidazolium bis(trifluoromethylsulfonyl)imide + 1-butanol/1- propanol mixtures at (298.15-323.15) K and 0.1 M Pa
Source: Fluid Phase Equilib., 2018, 10.1016/j.fluid.2018.04.025
Compound 1: 1-butyl-3-methylimidazolium bis(trifluoromethylsulfonyl)imide, C10H15F6N3O4S2, InChI=1S/C8H15N2.C2F6NO4S2/c1-3-4-5-10-7-6-9(2)8-10;3-1(4,5)14(10,11)9-15(12,13)2(6,7)8/h6-8H,3-5H2,1-2H3;/q+1;-1, purity 98%
Compound 2: butan-1-ol, C4H10O, InChI=1S/C4H10O/c1-2-3-4-5/h5H,2-4H2,1H3, purity 99.4%
Compound 3: propan-1-ol, C3H8O, InChI=1S/C3H8O/c1-2-3-4/h4H,2-3H2,1H3, purity 99.8%

System: 1-butyl-3-methylimidazolium bis(trifluoromethylsulfonyl)imide; phases: Liquid
Fixed: Pressure, kPa = 101.3
Property: Mass density, kg/m3 (Liquid); method: Vibrating tube method
Temperature, K	Mass density, kg/m3	uncertainty
298.15	1436.022	1.867
303.15	1431.219	1.854
308.15	1426.432	1.841
313.15	1421.643	1.829
318.15	1416.835	1.816
323.15	1411.887	1.803

System: 1-butyl-3-methylimidazolium bis(trifluoromethylsulfonyl)imide; phases: Liquid
Fixed: Pressure, kPa = 101.3
Fixed: Frequency, MHz = 3
Property: Speed of sound, m/s (Liquid); method: Sing-around technique in a fixed-path interferometer
Temperature, K	Speed of sound, m/s	uncertainty
298.15	1227.3	2.15
303.15	1216.31	2.15
308.15	1205.46	2.15
313.15	1194.68	2.15
318.15	1184.04	2.15
323.15	1173.45	2.15

System: 1-butyl-3-methylimidazolium bis(trifluoromethylsulfonyl)imide; phases: Liquid
Fixed: Pressure, kPa = 101.3
Property: Viscosity, Pa*s (Liquid); method: Falling or rolling sphere viscometry
Temperature, K	Viscosity, Pa*s	uncertainty
298.15	0.05115	0.00074
303.15	0.04188	0.00074
308.15	0.03458	0.00067
313.15	0.02898	0.00062
318.15	0.0246	0.00059
323.15	0.0211	0.00057

System: 1-butyl-3-methylimidazolium bis(trifluoromethylsulfonyl)imide + butan-1-ol; phases: Liquid
Fixed: Pressure, kPa = 101
Property: Mass density, kg/m3 (Liquid); method: Vibrating tube method
Temperature, K	Mole fraction of 1-butyl-3-methylimidazolium bis(trifluoromethylsulfonyl)imide	Mass density, kg/m3	uncertainty
298.15	0	806.704	0.172
298.15	0.1041	977.145	0.406
298.15	0.203	1088.588	0.333
298.15	0.3026	1170.975	0.411
298.15	0.409	1238.03	0.554
298.15	0.4987	1282.267	0.699
298.15	0.603	1325.152	0.893
298.15	0.6973	1357.806	1.09
298.15	0.809	1390.355	1.35
298.15	0.9104	1415.604	1.612
298.15	1	1436.022	1.867
303.15	0	802.704	0.172
303.15	0.1041	972.795	0.324
303.15	0.203	1084.004	0.326
303.15	0.3026	1166.326	0.415
303.15	0.409	1233.476	0.557
303.15	0.4987	1277.717	0.698
303.15	0.603	1320.712	0.889
303.15	0.6973	1353.298	1.084
303.15	0.809	1385.776	1.342
303.15	0.9104	1411.015	1.602
303.15	1	1431.219	1.854
308.15	0	798.992	0.173
308.15	0.1041	968.785	0.324
308.15	0.203	1079.655	0.323
308.15	0.3026	1161.886	0.411
308.15	0.409	1228.962	0.552
308.15	0.4987	1273.425	0.693
308.15	0.603	1316.285	0.883
308.15	0.6973	1348.831	1.077
308.15	0.809	1381.239	1.333
308.15	0.9104	1406.455	1.591
308.15	1	1426.432	1.841
313.15	0	795.065	0.175
313.15	0.1041	964.582	0.325
313.15	0.203	1075.166	0.321
313.15	0.3026	1157.28	0.408
313.15	0.409	1224.358	0.548
313.15	0.4987	1268.954	0.687
313.15	0.603	1311.814	0.876
313.15	0.6973	1344.196	1.069
313.15	0.809	1376.727	1.324
313.15	0.9104	1401.974	1.581
313.15	1	1421.643	1.829
318.15	0	791.094	0.176
318.15	0.1041	960.208	0.325
318.15	0.203	1070.618	0.318
318.15	0.3026	1152.593	0.404
318.15	0.409	1219.702	0.543
318.15	0.4987	1264.593	0.682
318.15	0.603	1307.37	0.87
318.15	0.6973	1339.657	1.061
318.15	0.809	1372.241	1.315
318.15	0.9104	1397.354	1.57
318.15	1	1416.835	1.816
323.15	0	787.075	0.177
323.15	0.1041	955.94	0.531
323.15	0.203	1065.982	0.415
323.15	0.3026	1147.849	0.45
323.15	0.409	1214.914	0.559
323.15	0.4987	1259.973	0.687
323.15	0.603	1302.804	0.869
323.15	0.6973	1335.113	1.057
323.15	0.809	1367.534	1.308
323.15	0.9104	1392.503	1.56
323.15	1	1411.887	1.803

System: 1-butyl-3-methylimidazolium bis(trifluoromethylsulfonyl)imide + butan-1-ol; phases: Liquid
Fixed: Pressure, kPa = 101
Fixed: Frequency, MHz = 3
Property: Speed of sound, m/s (Liquid); method: Sing-around technique in a fixed-path interferometer
Temperature, K	Mole fraction of 1-butyl-3-methylimidazolium bis(trifluoromethylsulfonyl)imide	Speed of sound, m/s	uncertainty
298.15	0	1242.36	1.03
298.15	0.1041	1204.13	1.17
298.15	0.203	1195.07	1.21
298.15	0.3026	1196.06	1.3
298.15	0.409	1200.25	1.42
298.15	0.4987	1204.31	1.52
298.15	0.603	1209.34	1.65
298.15	0.6973	1214.06	1.77
298.15	0.809	1219.18	1.91
298.15	0.9104	1223.03	2.04
298.15	1	1227.3	2.15
303.15	0	1225.48	1.03
303.15	0.1041	1189.67	1.1
303.15	0.203	1181.7	1.19
303.15	0.3026	1183.37	1.3
303.15	0.409	1188.07	1.42
303.15	0.4987	1192.43	1.52
303.15	0.603	1197.66	1.65
303.15	0.6973	1202.48	1.77
303.15	0.809	1207.76	1.91
303.15	0.9104	1211.86	2.04
303.15	1	1216.31	2.15
308.15	0	1208.7	1.03
308.15	0.1041	1175.32	1.1
308.15	0.203	1168.54	1.19
308.15	0.3026	1170.85	1.3
308.15	0.409	1175.98	1.42
308.15	0.4987	1180.65	1.52
308.15	0.603	1186.2	1.65
308.15	0.6973	1191.25	1.76
308.15	0.809	1196.69	1.91
308.15	0.9104	1200.86	2.04
308.15	1	1205.46	2.15
313.15	0	1192	1.02
313.15	0.1041	1161.05	1.1
313.15	0.203	1155.35	1.19
313.15	0.3026	1158.26	1.29
313.15	0.409	1163.87	1.41
313.15	0.4987	1168.87	1.52
313.15	0.603	1174.74	1.65
313.15	0.6973	1180.01	1.76
313.15	0.809	1185.62	1.9
313.15	0.9104	1189.94	2.03
313.15	1	1194.68	2.15
318.15	0	1175.37	1.02
318.15	0.1041	1146.94	1.09
318.15	0.203	1142.33	1.19
318.15	0.3026	1145.83	1.29
318.15	0.409	1151.89	1.41
318.15	0.4987	1157.22	1.52
318.15	0.603	1163.39	1.64
318.15	0.6973	1168.85	1.76
318.15	0.809	1174.64	1.9
318.15	0.9104	1179.12	2.03
318.15	1	1184.04	2.15
323.15	0	1158.75	1.02
323.15	0.1041	1132.9	1.06
323.15	0.203	1129.38	1.17
323.15	0.3026	1133.48	1.29
323.15	0.409	1140.01	1.41
323.15	0.4987	1145.66	1.52
323.15	0.603	1152.14	1.64
323.15	0.6973	1157.79	1.76
323.15	0.809	1163.75	1.9
323.15	0.9104	1168.4	2.03
323.15	1	1173.45	2.15

System: 1-butyl-3-methylimidazolium bis(trifluoromethylsulfonyl)imide + butan-1-ol; phases: Liquid
Fixed: Pressure, kPa = 101
Property: Viscosity, Pa*s (Liquid); method: Falling or rolling sphere viscometry
Temperature, K	Mole fraction of 1-butyl-3-methylimidazolium bis(trifluoromethylsulfonyl)imide	Viscosity, Pa*s	uncertainty
298.15	0	0.00257	0.0006
298.15	0.1041	0.00437	0.0006
298.15	0.203	0.0068	0.0006
298.15	0.3026	0.00905	0.00061
298.15	0.409	0.01183	0.00081
298.15	0.4987	0.01491	0.00081
298.15	0.603	0.01973	0.00083
298.15	0.6973	0.02495	0.00085
298.15	0.809	0.03211	0.00089
298.15	0.9104	0.04026	0.00095
298.15	1	0.05122	0.00097
303.15	0	0.00226	0.0006
303.15	0.1041	0.00385	0.0006
303.15	0.203	0.00585	0.0006
303.15	0.3026	0.00768	0.0006
303.15	0.409	0.00993	0.00061
303.15	0.4987	0.01253	0.00081
303.15	0.603	0.01662	0.00082
303.15	0.6973	0.02095	0.00083
303.15	0.809	0.02673	0.00086
303.15	0.9104	0.03301	0.0009
303.15	1	0.04191	0.00096
308.15	0	0.00199	0.0006
308.15	0.1041	0.00327	0.0006
308.15	0.203	0.00503	0.0006
308.15	0.3026	0.00662	0.0006
308.15	0.409	0.00851	0.00061
308.15	0.4987	0.01071	0.00081
308.15	0.603	0.01413	0.00081
308.15	0.6973	0.01782	0.00082
308.15	0.809	0.02261	0.00084
308.15	0.9104	0.02762	0.00087
308.15	1	0.03463	0.00091
313.15	0	0.00177	0.0006
313.15	0.1041	0.00287	0.0006
313.15	0.203	0.00439	0.0006
313.15	0.3026	0.00575	0.0006
313.15	0.409	0.00736	0.0006
313.15	0.4987	0.00924	0.00061
313.15	0.603	0.01224	0.00081
313.15	0.6973	0.01531	0.00082
313.15	0.809	0.01932	0.00083
313.15	0.9104	0.02341	0.00085
313.15	1	0.02893	0.00088
318.15	0	0.00158	0.0006
318.15	0.1041	0.00253	0.0006
318.15	0.203	0.00386	0.0006
318.15	0.3026	0.00504	0.0006
318.15	0.409	0.00642	0.0006
318.15	0.4987	0.00804	0.00061
318.15	0.603	0.01061	0.00081
318.15	0.6973	0.01332	0.00081
318.15	0.809	0.01664	0.00082
318.15	0.9104	0.01993	0.00084
318.15	1	0.02463	0.00086
323.15	0	0.00141	0.0006
323.15	0.1041	0.00224	0.0006
323.15	0.203	0.00342	0.0006
323.15	0.3026	0.00445	0.0006
323.15	0.409	0.00565	0.0006
323.15	0.4987	0.00707	0.0006
323.15	0.603	0.00929	0.00061
323.15	0.6973	0.01174	0.00081
323.15	0.809	0.01453	0.00082
323.15	0.9104	0.01732	0.00083
323.15	1	0.02111	0.00084

System: 1-butyl-3-methylimidazolium bis(trifluoromethylsulfonyl)imide + propan-1-ol; phases: Liquid
Fixed: Pressure, kPa = 101
Property: Mass density, kg/m3 (Liquid); method: Vibrating tube method
Temperature, K	Mole fraction of 1-butyl-3-methylimidazolium bis(trifluoromethylsulfonyl)imide	Mass density, kg/m3	uncertainty
298.15	0	799.924	0.141
298.15	0.1034	997.935	0.51
298.15	0.203	1117.335	0.301
298.15	0.3043	1200.889	0.309
298.15	0.409	1263.745	0.424
298.15	0.5068	1308.358	0.578
298.15	0.603	1343.445	0.763
298.15	0.6981	1371.858	0.976
298.15	0.809	1399.104	1.265
298.15	0.8925	1416.556	1.512
298.15	1	1436.022	1.867
303.15	0	795.888	0.142
303.15	0.1034	993.513	0.334
303.15	0.203	1112.852	0.269
303.15	0.3043	1196.18	0.315
303.15	0.409	1258.998	0.431
303.15	0.5068	1303.619	0.58
303.15	0.603	1338.709	0.761
303.15	0.6981	1367.106	0.972
303.15	0.809	1394.383	1.258
303.15	0.8925	1411.813	1.502
303.15	1	1431.219	1.854
308.15	0	791.815	0.144
308.15	0.1034	989.047	0.334
308.15	0.203	1108.259	0.268
308.15	0.3043	1191.478	0.312
308.15	0.409	1254.222	0.427
308.15	0.5068	1298.844	0.575
308.15	0.603	1333.945	0.755
308.15	0.6981	1362.346	0.964
308.15	0.809	1389.628	1.248
308.15	0.8925	1407.055	1.491
308.15	1	1426.432	1.841
313.15	0	787.7	0.145
313.15	0.1034	984.572	0.334
313.15	0.203	1103.58	0.267
313.15	0.3043	1186.724	0.31
313.15	0.409	1249.434	0.423
313.15	0.5068	1294.028	0.57
313.15	0.603	1329.155	0.749
313.15	0.6981	1357.568	0.957
313.15	0.809	1384.85	1.239
313.15	0.8925	1402.293	1.481
313.15	1	1421.643	1.829
318.15	0	783.538	0.147
318.15	0.1034	979.997	0.334
318.15	0.203	1098.852	0.266
318.15	0.3043	1181.929	0.308
318.15	0.409	1244.669	0.42
318.15	0.5068	1289.192	0.566
318.15	0.603	1324.35	0.743
318.15	0.6981	1352.755	0.95
318.15	0.809	1380.048	1.23
318.15	0.8925	1397.502	1.47
318.15	1	1416.835	1.816
323.15	0	779.321	0.148
323.15	0.1034	975.381	0.653
323.15	0.203	1094.031	0.424
323.15	0.3043	1177.021	0.382
323.15	0.409	1239.674	0.45
323.15	0.5068	1284.237	0.574
323.15	0.603	1319.399	0.744
323.15	0.6981	1347.823	0.947
323.15	0.809	1375.129	1.223
323.15	0.8925	1392.579	1.461
323.15	1	1411.887	1.803

System: 1-butyl-3-methylimidazolium bis(trifluoromethylsulfonyl)imide + propan-1-ol; phases: Liquid
Fixed: Pressure, kPa = 101
Fixed: Frequency, MHz = 3
Property: Speed of sound, m/s (Liquid); method: Sing-around technique in a fixed-path interferometer
Temperature, K	Mole fraction of 1-butyl-3-methylimidazolium bis(trifluoromethylsulfonyl)imide	Speed of sound, m/s	uncertainty
298.15	0	1206.56	0.86
298.15	0.1034	1181.54	0.96
298.15	0.203	1181.16	1
298.15	0.3043	1188.28	1.1
298.15	0.409	1196.78	1.23
298.15	0.5068	1203.03	1.37
298.15	0.603	1209.37	1.51
298.15	0.6981	1214.55	1.66
298.15	0.809	1219.86	1.84
298.15	0.8925	1223.69	1.97
298.15	1	1227.3	2.15
303.15	0	1189.5	0.86
303.15	0.1034	1167.18	0.89
303.15	0.203	1167.95	0.98
303.15	0.3043	1175.69	1.09
303.15	0.409	1184.66	1.23
303.15	0.5068	1191.22	1.37
303.15	0.603	1197.82	1.51
303.15	0.6981	1203.15	1.66
303.15	0.809	1208.6	1.84
303.15	0.8925	1212.58	1.97
303.15	1	1216.31	2.15
308.15	0	1172.51	0.85
308.15	0.1034	1152.86	0.89
308.15	0.203	1154.77	0.98
308.15	0.3043	1163.14	1.09
308.15	0.409	1172.59	1.23
308.15	0.5068	1179.48	1.37
308.15	0.603	1186.35	1.51
308.15	0.6981	1191.85	1.66
308.15	0.809	1197.45	1.84
308.15	0.8925	1201.59	1.97
308.15	1	1205.46	2.15
313.15	0	1155.63	0.85
313.15	0.1034	1138.66	0.89
313.15	0.203	1141.69	0.97
313.15	0.3043	1150.69	1.09
313.15	0.409	1160.63	1.22
313.15	0.5068	1167.85	1.36
313.15	0.603	1174.99	1.51
313.15	0.6981	1180.65	1.66
313.15	0.809	1186.41	1.83
313.15	0.8925	1190.74	1.97
313.15	1	1194.68	2.15
318.15	0	1138.81	0.84
318.15	0.1034	1124.53	0.88
318.15	0.203	1128.69	0.97
318.15	0.3043	1138.32	1.08
318.15	0.409	1148.75	1.22
318.15	0.5068	1156.3	1.36
318.15	0.603	1163.73	1.51
318.15	0.6981	1169.55	1.65
318.15	0.809	1175.48	1.83
318.15	0.8925	1179.98	1.97
318.15	1	1184.04	2.15
323.15	0	1122.03	0.84
323.15	0.1034	1110.45	0.85
323.15	0.203	1115.76	0.96
323.15	0.3043	1126.03	1.08
323.15	0.409	1136.96	1.22
323.15	0.5068	1144.84	1.36
323.15	0.603	1152.56	1.51
323.15	0.6981	1158.56	1.65
323.15	0.809	1164.64	1.83
323.15	0.8925	1169.3	1.97
323.15	1	1173.45	2.15

System: 1-butyl-3-methylimidazolium bis(trifluoromethylsulfonyl)imide + propan-1-ol; phases: Liquid
Fixed: Pressure, kPa = 101
Property: Viscosity, Pa*s (Liquid); method: Falling or rolling sphere viscometry
Temperature, K	Mole fraction of 1-butyl-3-methylimidazolium bis(trifluoromethylsulfonyl)imide	Viscosity, Pa*s	uncertainty
298.15	0	0.00189	0.0006
298.15	0.1034	0.00373	0.0006
298.15	0.203	0.00598	0.0006
298.15	0.3043	0.00811	0.0006
298.15	0.409	0.01082	0.00081
298.15	0.5068	0.01412	0.00081
298.15	0.603	0.01903	0.00082
298.15	0.6981	0.02441	0.00084
298.15	0.809	0.03143	0.00088
298.15	0.8925	0.03952	0.00093
298.15	1	0.05122	0.00097
303.15	0	0.00169	0.0006
303.15	0.1034	0.00324	0.0006
303.15	0.203	0.00516	0.0006
303.15	0.3043	0.00694	0.0006
303.15	0.409	0.00922	0.00061
303.15	0.5068	0.01191	0.00081
303.15	0.603	0.01624	0.00082
303.15	0.6981	0.02052	0.00083
303.15	0.809	0.02611	0.00085
303.15	0.8925	0.03253	0.00089
303.15	1	0.04191	0.00096
308.15	0	0.00151	0.0006
308.15	0.1034	0.00285	0.0006
308.15	0.203	0.0045	0.0006
308.15	0.3043	0.00601	0.0006
308.15	0.409	0.00794	0.0006
308.15	0.5068	0.01021	0.00081
308.15	0.603	0.01372	0.00081
308.15	0.6981	0.01743	0.00082
308.15	0.809	0.02213	0.00084
308.15	0.8925	0.02721	0.00086
308.15	1	0.03463	0.00091
313.15	0	0.00135	0.0006
313.15	0.1034	0.00253	0.0006
313.15	0.203	0.00395	0.0006
313.15	0.3043	0.00525	0.0006
313.15	0.409	0.0069	0.0006
313.15	0.5068	0.00885	0.00061
313.15	0.603	0.01193	0.00081
313.15	0.6981	0.01494	0.00082
313.15	0.809	0.01872	0.00083
313.15	0.8925	0.02294	0.00085
313.15	1	0.02893	0.00088
318.15	0	0.00122	0.0006
318.15	0.1034	0.00227	0.0006
318.15	0.203	0.00369	0.0006
318.15	0.3043	0.00484	0.0006
318.15	0.409	0.00615	0.0006
318.15	0.5068	0.00774	0.0006
318.15	0.603	0.01034	0.00081
318.15	0.6981	0.01301	0.00081
318.15	0.809	0.01635	0.00082
318.15	0.8925	0.01974	0.00083
318.15	1	0.02463	0.00086
323.15	0	0.00109	0.0006
323.15	0.1034	0.00203	0.0006
323.15	0.203	0.00298	0.0006
323.15	0.3043	0.00393	0.0006
323.15	0.409	0.00525	0.0006
323.15	0.5068	0.00682	0.0006
323.15	0.603	0.00913	0.00061
323.15	0.6981	0.01142	0.00081
323.15	0.809	0.01423	0.00082
323.15	0.8925	0.01701	0.00083
323.15	1	0.02111	0.00084
