Measured thermophysical data. Vapor liquid equilibria for binary and ternary mixtures of diisopropyl ether, ethanol, and 2,2,4-trimethylpentane at 101.3 kPa
Source: Fluid Phase Equilib., 2006, 10.1016/j.fluid.2006.08.004
Compound 1: 2,2,4-trimethylpentane, C8H18, InChI=1S/C8H18/c1-7(2)6-8(3,4)5/h7H,6H2,1-5H3, purity 99.5%
Compound 2: ethanol, C2H6O, InChI=1S/C2H6O/c1-2-3/h3H,2H2,1H3, purity 99.9%
Compound 3: diisopropyl ether, C6H14O, InChI=1S/C6H14O/c1-5(2)7-6(3)4/h5-6H,1-4H3, purity 99%

System: 2,2,4-trimethylpentane; phases: Liquid, Gas
Property: Normal boiling temperature, K (Liquid); method: Ebulliometric method (Recirculating still)
Normal boiling temperature, K	uncertainty
372.33	0.01

System: 2,2,4-trimethylpentane; phases: Liquid
Property: Refractive index (Na D-line) (Liquid); method: Standard Abbe refractometry
Temperature, K	Pressure, kPa	Refractive index (Na D-line)	uncertainty
298.15	101.325	1.38887	0.00068

System: 2,2,4-trimethylpentane; phases: Liquid
Property: Mass density, kg/m3 (Liquid); method: VIBTUB:UFactor:4
Temperature, K	Pressure, kPa	Mass density, kg/m3	uncertainty
298.15	101.325	687.72	0.65

System: ethanol; phases: Liquid, Gas
Property: Normal boiling temperature, K (Liquid); method: Ebulliometric method (Recirculating still)
Normal boiling temperature, K	uncertainty
351.44	0.01

System: ethanol; phases: Liquid
Property: Refractive index (Na D-line) (Liquid); method: Standard Abbe refractometry
Temperature, K	Pressure, kPa	Refractive index (Na D-line)	uncertainty
298.15	101.325	1.35926	0.00068

System: ethanol; phases: Liquid
Property: Mass density, kg/m3 (Liquid); method: VIBTUB:UFactor:2
Temperature, K	Pressure, kPa	Mass density, kg/m3	uncertainty
298.15	101.325	785.09	0.25

System: diisopropyl ether; phases: Liquid, Gas
Property: Normal boiling temperature, K (Liquid); method: Ebulliometric method (Recirculating still)
Normal boiling temperature, K	uncertainty
341.53	0.1

System: diisopropyl ether; phases: Liquid
Property: Refractive index (Na D-line) (Liquid); method: Standard Abbe refractometry
Temperature, K	Pressure, kPa	Refractive index (Na D-line)	uncertainty
298.15	101.325	1.36512	0.0007

System: diisopropyl ether; phases: Liquid
Property: Mass density, kg/m3 (Liquid); method: VIBTUB:UFactor:8
Temperature, K	Pressure, kPa	Mass density, kg/m3	uncertainty
298.15	101.325	718.37	1.25

System: ethanol + diisopropyl ether; phases: Liquid, Gas
Fixed: Pressure, kPa = 101.3
Property: Boiling temperature at pressure P, K (Liquid); method: Ebulliometric method (Recirculating still)
Mole fraction of diisopropyl ether	Boiling temperature at pressure P, K	uncertainty
0.044	348.29	0.36
0.089	345.76	0.31
0.143	343.73	0.25
0.193	342.15	0.22
0.24	341	0.19
0.287	340.08	0.17
0.338	339.34	0.15
0.389	338.8	0.15
0.44	338.34	0.14
0.489	337.97	0.14
0.537	337.67	0.14
0.598	337.47	0.14
0.649	337.35	0.14
0.705	337.31	0.14
0.757	337.37	0.14
0.809	337.58	0.14
0.859	337.97	0.15
0.907	338.73	0.18
0.954	339.92	0.21

System: ethanol + diisopropyl ether; phases: Gas, Liquid
Fixed: Pressure, kPa = 101.3
Property: Mole fraction of diisopropyl ether (Gas); method: Chromatography
Mole fraction of diisopropyl ether	Mole fraction of diisopropyl ether	uncertainty
0.044	0.154	0.015
0.089	0.256	0.013
0.143	0.339	0.011
0.193	0.403	0.01
0.24	0.452	0.009
0.287	0.49	0.009
0.338	0.523	0.008
0.389	0.552	0.008
0.44	0.578	0.008
0.489	0.604	0.008
0.537	0.631	0.008
0.598	0.651	0.007
0.649	0.675	0.008
0.705	0.703	0.008
0.757	0.73	0.008
0.809	0.76	0.008
0.859	0.795	0.008
0.907	0.848	0.01
0.954	0.915	0.011

System: diisopropyl ether + 2,2,4-trimethylpentane; phases: Liquid, Gas
Fixed: Pressure, kPa = 101.3
Property: Boiling temperature at pressure P, K (Liquid); method: Ebulliometric method (Recirculating still)
Mole fraction of diisopropyl ether	Boiling temperature at pressure P, K	uncertainty
0.084	368.15	0.3
0.125	366.3	0.29
0.179	363.99	0.28
0.228	362.04	0.27
0.273	360.37	0.25
0.325	358.57	0.24
0.384	356.67	0.23
0.427	355.32	0.23
0.476	353.86	0.22
0.534	352.21	0.22
0.585	350.82	0.21
0.637	349.49	0.2
0.69	348.18	0.2
0.744	346.88	0.2
0.79	345.82	0.19
0.849	344.59	0.19
0.898	343.57	0.18
0.95	342.57	0.18

System: diisopropyl ether + 2,2,4-trimethylpentane; phases: Gas, Liquid
Fixed: Pressure, kPa = 101.3
Property: Mole fraction of diisopropyl ether (Gas); method: Chromatography
Mole fraction of diisopropyl ether	Mole fraction of diisopropyl ether	uncertainty
0.084	0.179	0.013
0.125	0.254	0.012
0.179	0.343	0.012
0.228	0.415	0.011
0.273	0.474	0.011
0.325	0.535	0.01
0.384	0.597	0.01
0.427	0.64	0.009
0.476	0.684	0.009
0.534	0.732	0.008
0.585	0.771	0.008
0.637	0.807	0.008
0.69	0.841	0.007
0.744	0.874	0.007
0.79	0.9	0.007
0.849	0.93	0.007
0.898	0.954	0.007
0.95	0.977	0.007

System: ethanol + diisopropyl ether + 2,2,4-trimethylpentane; phases: Liquid, Gas
Fixed: Pressure, kPa = 101.3
Property: Mole fraction of ethanol (Liquid); method: Chromatography
Property: Mole fraction of ethanol (Gas); method: Chromatography
Property: Mole fraction of diisopropyl ether (Gas); method: Chromatography
Temperature, K	Mole fraction of diisopropyl ether	Mole fraction of ethanol	uncertainty	Mole fraction of ethanol	uncertainty	Mole fraction of diisopropyl ether	uncertainty
337.98	0.6	0.35	0.007	0.341	0.007	0.627	
337.98	0.705	0.245	0.006	0.287	0.007	0.685	
338.38	0.489	0.464	0.007	0.396	0.007	0.567	
338.64	0.808	0.14	0.006	0.214	0.006	0.761	
339.04	0.385	0.567	0.007	0.446	0.007	0.509	
339.28	0.605	0.24	0.006	0.32	0.007	0.599	
339.34	0.498	0.353	0.007	0.382	0.007	0.527	
339.78	0.394	0.456	0.007	0.44	0.007	0.451	
340.11	0.284	0.67	0.006	0.5	0.008	0.445	
340.36	0.704	0.142	0.006	0.23	0.006	0.692	
340.54	0.286	0.567	0.007	0.487	0.007	0.386	
340.62	0.901	0.049	0.006	0.093	0.006	0.883	
340.64	0.396	0.353	0.007	0.424	0.007	0.424	
340.78	0.504	0.246	0.006	0.357	0.007	0.502	
341.18	0.296	0.457	0.007	0.479	0.007	0.344	
341.28	0.606	0.143	0.006	0.267	0.006	0.602	
341.63	0.192	0.76	0.006	0.568	0.007	0.356	
341.68	0.193	0.663	0.007	0.549	0.007	0.291	
341.74	0.404	0.237	0.006	0.406	0.007	0.407	
341.94	0.299	0.347	0.007	0.465	0.007	0.32	
342.03	0.193	0.561	0.007	0.539	0.007	0.251	
342.34	0.798	0.048	0.006	0.104	0.006	0.821	
342.41	0.194	0.46	0.007	0.53	0.007	0.227	
342.45	0.503	0.136	0.006	0.308	0.007	0.517	
342.93	0.302	0.24	0.006	0.441	0.007	0.315	
343.04	0.195	0.363	0.007	0.512	0.007	0.211	
343.15	0.096	0.655	0.007	0.603	0.007	0.141	
343.21	0.096	0.757	0.006	0.624	0.007	0.169	
343.41	0.097	0.555	0.007	0.587	0.007	0.115	
343.83	0.05	0.702	0.006	0.633	0.007	0.075	
343.88	0.05	0.596	0.007	0.612	0.007	0.064	
343.89	0.098	0.459	0.007	0.57	0.007	0.106	
344.07	0.051	0.494	0.007	0.599	0.007	0.059	
344.07	0.701	0.046	0.006	0.118	0.006	0.755	
344.16	0.095	0.86	0.006	0.678	0.007	0.221	
344.17	0.049	0.806	0.006	0.669	0.007	0.091	
344.32	0.098	0.351	0.007	0.555	0.007	0.106	
344.49	0.197	0.229	0.006	0.483	0.007	0.21	
344.5	0.051	0.394	0.007	0.582	0.007	0.056	
344.57	0.406	0.143	0.006	0.331	0.007	0.427	
345.29	0.051	0.288	0.006	0.563	0.007	0.055	
345.64	0.303	0.149	0.006	0.376	0.007	0.329	
345.86	0.047	0.911	0.006	0.775	0.006	0.132	
345.89	0.099	0.257	0.006	0.544	0.007	0.11	
346.17	0.597	0.048	0.006	0.13	0.006	0.682	
346.88	0.05	0.178	0.006	0.53	0.007	0.056	
347.04	0.196	0.144	0.006	0.423	0.007	0.224	
347.75	0.098	0.133	0.006	0.479	0.007	0.112	
348.41	0.501	0.047	0.006	0.14	0.006	0.604	
350.79	0.403	0.045	0.006	0.151	0.006	0.517	
352.28	0.049	0.07	0.006	0.412	0.007	0.066	
352.83	0.301	0.043	0.006	0.185	0.006	0.411	
355.27	0.194	0.046	0.006	0.216	0.006	0.294	
358.25	0.096	0.048	0.006	0.249	0.006	0.149	
360.38	0.047	0.028	0.006	0.253	0.006	0.08	
