Measured thermophysical data. Vapor-liquid equilibria measurements of 1,1,1,2-tetrafluoroethane (HFC-134a) + 2,3,3,3-tetrafluoroprop-1-ene (HFO-1234yf) + isobutane (HC-600a) ternary system
Source: Fluid Phase Equilib., 2016, 10.1016/j.fluid.2016.01.028
Compound 1: 1,1,1,2-tetrafluoroethane, C2H2F4, InChI=1S/C2H2F4/c3-1-2(4,5)6/h1H2, purity 99.9%
Compound 2: 2,3,3,3-tetrafluoro-1-propene, C3H2F4, InChI=1S/C3H2F4/c1-2(4)3(5,6)7/h1H2, purity 99.9%
Compound 3: 2-methylpropane, C4H10, InChI=1S/C4H10/c1-4(2)3/h4H,1-3H3, purity 99.9%

System: 1,1,1,2-tetrafluoroethane; phases: Liquid, Gas
Property: Vapor or sublimation pressure, kPa (Liquid); method: Closed cell (Static) method
Temperature, K	Vapor or sublimation pressure, kPa	uncertainty
283.15	415.5	1.2
293.15	572.4	1.3
303.15	768.9	1.5
313.15	1015.5	1.8
323.15	1317.2	2.1

System: 2,3,3,3-tetrafluoro-1-propene; phases: Liquid, Gas
Property: Vapor or sublimation pressure, kPa (Liquid); method: Closed cell (Static) method
Temperature, K	Vapor or sublimation pressure, kPa	uncertainty
283.15	437.9	1.2
293.15	591.5	1.3
303.15	782.9	1.5
313.15	1018.2	1.8
323.15	1302.4	2.1

System: 2-methylpropane; phases: Liquid, Gas
Property: Vapor or sublimation pressure, kPa (Liquid); method: Closed cell (Static) method
Temperature, K	Vapor or sublimation pressure, kPa	uncertainty
283.15	220.9	1.1
293.15	302.7	1.1
303.15	404.4	1.2
313.15	531.3	1.3
323.15	684.2	1.4

System: 2-methylpropane + 2,3,3,3-tetrafluoro-1-propene + 1,1,1,2-tetrafluoroethane; phases: Liquid, Gas
Property: Mole fraction of 2,3,3,3-tetrafluoro-1-propene (Liquid); method: Chromatography
Property: Mole fraction of 2,3,3,3-tetrafluoro-1-propene (Gas); method: Chromatography
Property: Mole fraction of 1,1,1,2-tetrafluoroethane (Gas); method: Chromatography
Temperature, K	Pressure, kPa	Mole fraction of 1,1,1,2-tetrafluoroethane	Mole fraction of 2,3,3,3-tetrafluoro-1-propene	uncertainty	Mole fraction of 2,3,3,3-tetrafluoro-1-propene	uncertainty	Mole fraction of 1,1,1,2-tetrafluoroethane	uncertainty
283.15	460.2	0.1723	0.354	0.0065	0.429	0.007	0.2675	
293.15	644.8	0.6752	0.2736	0.0063	0.2429	0.0063	0.6507	
283.15	462.3	0.2171	0.4215	0.0067	0.4396	0.0071	0.277	
283.15	463.8	0.2537	0.2663	0.0063	0.3156	0.0066	0.3611	
283.15	465.1	0.2783	0.2233	0.0062	0.2594	0.0064	0.397	
283.15	469.7	0.3516	0.1119	0.0061	0.138	0.0061	0.4994	
283.15	475.8	0.3989	0.3757	0.0066	0.3638	0.0068	0.441	
283.15	475.3	0.4076	0.2492	0.0063	0.2626	0.0064	0.4651	
283.15	477.1	0.6694	0.2033	0.0062	0.1836	0.0062	0.6336	
283.15	476.4	0.6752	0.2736	0.0063	0.2374	0.0063	0.6403	
303.15	807.5	0.1723	0.354	0.0065	0.4193	0.007	0.2474	
293.15	612.5	0.1723	0.354	0.0065	0.4282	0.007	0.2525	
303.15	820.2	0.2171	0.4215	0.0067	0.452	0.0071	0.2759	
303.15	818.6	0.2537	0.2663	0.0063	0.3083	0.0065	0.347	
303.15	822.2	0.2783	0.2233	0.0062	0.2637	0.0064	0.3857	
303.15	829.6	0.3516	0.1119	0.0061	0.1379	0.0061	0.489	
303.15	848.6	0.3989	0.3757	0.0066	0.3693	0.0068	0.4402	
303.15	848.4	0.4076	0.2492	0.0063	0.2815	0.0065	0.4731	
303.15	858.9	0.6694	0.2033	0.0062	0.1908	0.0062	0.6457	
303.15	857.5	0.6752	0.2736	0.0063	0.2517	0.0064	0.6531	
313.15	1041.7	0.1723	0.354	0.0065	0.4096	0.0069	0.2438	
313.15	1061.5	0.2171	0.4215	0.0067	0.4562	0.0071	0.2697	
293.15	622.8	0.2171	0.4215	0.0067	0.4456	0.0071	0.2748	
313.15	1057.3	0.2537	0.2663	0.0063	0.3182	0.0066	0.344	
313.15	1063.2	0.2783	0.2233	0.0062	0.2706	0.0064	0.3773	
313.15	1071	0.3516	0.1119	0.0061	0.1386	0.0061	0.4863	
313.15	1101.9	0.3989	0.3757	0.0066	0.3724	0.0068	0.4384	
313.15	1100.4	0.4076	0.2492	0.0063	0.2816	0.0065	0.4684	
313.15	1120.1	0.6694	0.2033	0.0062	0.1921	0.0062	0.6526	
313.15	1115.5	0.6752	0.2736	0.0063	0.2577	0.0064	0.659	
323.15	1320.9	0.1723	0.354	0.0065	0.4209	0.007	0.2408	
323.15	1350.5	0.2171	0.4215	0.0067	0.4581	0.0072	0.2707	
323.15	1340.5	0.2537	0.2663	0.0063	0.3159	0.0066	0.346	
293.15	621.5	0.2537	0.2663	0.0063	0.3022	0.0065	0.3507	
323.15	1350.1	0.2783	0.2233	0.0062	0.2779	0.0064	0.3723	
323.15	1359.2	0.3516	0.1119	0.0061	0.1378	0.0061	0.4794	
323.15	1407.2	0.3989	0.3757	0.0066	0.3751	0.0068	0.4402	
323.15	1403.9	0.4076	0.2492	0.0063	0.2903	0.0065	0.4629	
323.15	1435.7	0.6694	0.2033	0.0062	0.1939	0.0062	0.6612	
323.15	1429.1	0.6752	0.2736	0.0063	0.2608	0.0064	0.6666	
293.15	624.3	0.2783	0.2233	0.0062	0.2593	0.0064	0.3862	
293.15	630.4	0.3516	0.1119	0.0061	0.1334	0.0061	0.4883	
293.15	641	0.3989	0.3757	0.0066	0.3651	0.0068	0.4406	
293.15	641.8	0.4076	0.2492	0.0063	0.2749	0.0064	0.47	
293.15	647	0.6694	0.2033	0.0062	0.1909	0.0062	0.6407	
