Measured thermophysical data. Buffer interactions: Solubilities and transfer free energies of TRIS, TAPS, TAPSO, and TABS from water to aqueous ethanol solutions
Source: Fluid Phase Equilib., 2010, 10.1016/j.fluid.2009.11.019
Compound 1: 2-amino-2-(hydroxymethyl)-1,3-propanediol, C4H11NO3, InChI=1S/C4H11NO3/c5-4(1-6,2-7)3-8/h6-8H,1-3,5H2, purity 99.9%
Compound 2: 3-[tris(hydroxymethyl)methylamino]-1-propanesulfonic acid, C7H17NO6S, InChI=1S/C7H17NO6S/c9-4-7(5-10,6-11)8-2-1-3-15(12,13)14/h8-11H,1-6H2,(H,12,13,14), purity 99.5%
Compound 3: N-[tris(hydroxymethyl)methyl]-3-amino-2-hydroxypropane sulfonic acid, C7H17NO7S, InChI=1S/C7H17NO7S/c9-3-7(4-10,5-11)8-1-6(12)2-16(13,14)15/h6,8-12H,1-5H2,(H,13,14,15), purity 99%
Compound 4: N-tris(Hydroxymethyl)methyl-4-aminobutanesulfonic acid, C8H19NO6S, InChI=1S/C8H19NO6S/c10-5-8(6-11,7-12)9-3-1-2-4-16(13,14)15/h9-12H,1-7H2,(H,13,14,15), purity 99%
Compound 5: water, H2O, InChI=1S/H2O/h1H2
Compound 6: ethanol, C2H6O, InChI=1S/C2H6O/c1-2-3/h3H,2H2,1H3, purity 99.9%

System: ethanol + 2-amino-2-(hydroxymethyl)-1,3-propanediol + water; phases: Liquid, Crystal
Fixed: Temperature, K = 298.15
Fixed: Pressure, kPa = 101.3
Property: Molality, mol/kg of 2-amino-2-(hydroxymethyl)-1,3-propanediol (Liquid); method: Synthetic method
Mass fraction of ethanol	Molality, mol/kg of 2-amino-2-(hydroxymethyl)-1,3-propanediol	uncertainty
0	5.76	0.09
0.1	4.85	0.08
0.2	4.15	0.07
0.3	3.58	0.07
0.4	3.02	0.07
0.5	2.46	0.07
0.6	1.91	0.08
0.7	1.3	0.08
0.8	0.742	0.082
0.9	0.286	0.059
1	0.088	0.002

System: ethanol + 2-amino-2-(hydroxymethyl)-1,3-propanediol + water; phases: Liquid
Fixed: Pressure, kPa = 101.3
Property: Mass density, kg/m3 (Liquid); method: Vibrating tube method
Temperature, K	Mass fraction of ethanol	Molality, mol/kg of 2-amino-2-(hydroxymethyl)-1,3-propanediol	Mass density, kg/m3	uncertainty
298.15	0.1	0.3566	995.04	0.37
298.15	0.1	1.0211	1009.85	0.36
298.15	0.1	1.7129	1025.01	0.33
298.15	0.1	2.3898	1038.9	0.27
298.15	0.1	3.0832	1053.64	0.25
298.15	0.1	3.5141	1063.33	0.24
298.15	0.1	4.0135	1073.42	0.22
298.15	0.1	4.4527	1082.76	0.24
298.15	0.2	0.241	973.82	0.64
298.15	0.2	0.3863	978.22	0.71
298.15	0.2	0.6959	985.39	0.62
298.15	0.2	1.0682	993.73	0.65
298.15	0.2	1.5948	1006.4	0.57
298.15	0.2	2.1199	1019.43	0.56
298.15	0.2	2.6457	1032.46	0.51
298.15	0.2	3.1245	1043.47	0.31
298.15	0.2	3.7453	1058.95	0.47
298.15	0.3	0.057	952.52	0.11
298.15	0.3	0.1874	956.48	0.48
298.15	0.3	0.3162	959.05	0.54
298.15	0.3	0.7041	970.11	0.48
298.15	0.3	1.0789	979.23	0.46
298.15	0.3	1.5239	990.91	0.42
298.15	0.3	2.0101	1002.98	0.11
298.15	0.3	2.5186	1016.63	0.11
298.15	0.3	3.0386	1029.65	0.11
298.15	0.3	3.5191	1042.01	0.65
298.15	0.4	0.057	952.52	1.82
298.15	0.4	0.1874	956.48	1.59
298.15	0.4	0.3162	959.05	1.56
298.15	0.4	0.7041	970.11	1.51
298.15	0.4	1.0789	979.23	1.43
298.15	0.4	1.5239	990.91	1.41
298.15	0.4	2.0101	1002.98	0.11
298.15	0.4	2.5186	1016.63	0.11
298.15	0.4	3.0386	1029.65	0.11
298.15	0.5	0.118	913.52	3.2
298.15	0.5	0.364	921.92	3.06
298.15	0.5	0.7396	933.46	2.99
298.15	0.5	1.0996	944.04	2.88
298.15	0.5	1.4793	954.53	2.85
298.15	0.5	1.8631	964.56	1.94
298.15	0.5	2.1455	973.23	3.4
298.15	0.5	2.4212	981.03	3.29
298.15	0.6	0.0479	888.52	2.84
298.15	0.6	0.1956	893.48	2.76
298.15	0.6	0.3814	899.77	2.75
298.15	0.6	0.757	911.91	2.7
298.15	0.6	0.9749	918.3	2.64
298.15	0.6	1.1606	924.12	2.64
298.15	0.6	1.4017	930.7	2.57
298.15	0.6	1.6411	937.83	2.58
298.15	0.6	1.8103	944.23	2.2
298.15	0.7	0.1907	870.07	3.34
298.15	0.7	0.3847	876.75	3.29
298.15	0.7	0.5844	883.37	3.3
298.15	0.7	0.7776	889.73	3.22
298.15	0.7	0.9559	895.89	3.08
298.15	0.7	1.0542	898.81	3.06
298.15	0.7	1.1697	902.06	3.08
298.15	0.7	1.2556	905.39	3.14
298.15	0.8	0.0454	840.27	4.33
298.15	0.8	0.128	843.32	4.2
298.15	0.8	0.2064	846.17	4.17
298.15	0.8	0.3005	849.66	4.61
298.15	0.8	0.4227	854.2	3.85
298.15	0.8	0.5159	857.3	3.78
298.15	0.8	0.5836	859.75	3.79
298.15	0.8	0.6695	862.63	3.78
298.15	0.8	0.7174	864.55	3.64
298.15	0.9	0.0404	813.05	4.86
298.15	0.9	0.0933	814.59	4.87
298.15	0.9	0.1436	816.17	4.89
298.15	0.9	0.1725	817.19	4.98
298.15	0.9	0.194	818.07	5
298.15	0.9	0.2229	818.97	4.99
298.15	0.9	0.2427	819.65	4.99
298.15	0.9	0.2683	820.4	5.14
298.15	0.9	0.3162	821.47	5.14
298.15	1	0.0206	785.33	0.15
298.15	1	0.0289	785.69	0.15
298.15	1	0.0404	786.14	0.15
298.15	1	0.0504	786.54	0.15
298.15	1	0.0578	786.8	0.15
298.15	1	0.0677	787.21	0.15
298.15	1	0.0743	787.52	0.15
298.15	1	0.0817	787.79	0.15
303.15	0.1	0.3566	993.3	0.4
303.15	0.1	1.0211	1007.9	0.4
303.15	0.1	1.7129	1022.9	0.4
303.15	0.1	2.3898	1036.7	0.3
303.15	0.1	3.0832	1051.3	0.3
303.15	0.1	3.5141	1061	0.3
303.15	0.1	4.0135	1071	0.2
303.15	0.1	4.4527	1080.3	0.3
303.15	0.2	0.241	971.33	0.66
303.15	0.2	0.3863	975.7	0.74
303.15	0.2	0.6959	982.83	0.65
303.15	0.2	1.0682	991.14	0.67
303.15	0.2	1.5948	1003.76	0.59
303.15	0.2	2.1199	1016.72	0.58
303.15	0.2	2.6457	1029.72	0.54
303.15	0.2	3.1245	1040.69	0.32
303.15	0.2	3.7453	1056.09	0.48
303.15	0.3	0.057	949.24	0.11
303.15	0.3	0.1874	953.21	0.5
303.15	0.3	0.3162	955.75	0.56
303.15	0.3	0.7041	966.82	0.5
303.15	0.3	1.0789	975.96	0.48
303.15	0.3	1.5239	987.65	0.44
303.15	0.3	2.0101	999.72	0.11
303.15	0.3	2.5186	1013.36	0.11
303.15	0.3	3.0386	1026.41	0.11
303.15	0.3	3.5191	1038.76	0.68
303.15	0.4	0.057	949.24	1.68
303.15	0.4	0.1874	953.21	1.61
303.15	0.4	0.3162	955.75	1.58
303.15	0.4	0.7041	966.82	1.53
303.15	0.4	1.0789	975.96	1.46
303.15	0.4	1.5239	987.65	1.44
303.15	0.4	2.0101	999.72	0.11
303.15	0.4	2.5186	1013.36	0.11
303.15	0.4	3.0386	1026.41	0.11
303.15	0.5	0.118	909.44	3.25
303.15	0.5	0.364	917.86	3.11
303.15	0.5	0.7396	929.44	3.04
303.15	0.5	1.0996	940.08	2.92
303.15	0.5	1.4793	950.62	2.89
303.15	0.5	1.8631	960.69	1.94
303.15	0.5	2.1455	969.37	3.45
303.15	0.5	2.4212	977.19	3.35
303.15	0.6	0.0479	884.27	2.86
303.15	0.6	0.1956	889.24	2.77
303.15	0.6	0.3814	895.55	2.77
303.15	0.6	0.757	907.71	2.71
303.15	0.6	0.9749	914.16	2.64
303.15	0.6	1.1606	920.01	2.66
303.15	0.6	1.4017	926.6	2.6
303.15	0.6	1.6411	933.79	2.63
303.15	0.6	1.8103	940.15	2.23
303.15	0.7	0.1907	865.73	3.36
303.15	0.7	0.3847	872.45	3.3
303.15	0.7	0.5844	879.08	3.32
303.15	0.7	0.7776	885.46	3.24
303.15	0.7	0.9559	891.64	3.09
303.15	0.7	1.0542	894.58	3.07
303.15	0.7	1.1697	897.83	3.12
303.15	0.7	1.2556	901.18	3.16
303.15	0.8	0.0454	835.83	4.32
303.15	0.8	0.128	838.88	4.2
303.15	0.8	0.2064	841.71	4.18
303.15	0.8	0.3005	845.24	4.6
303.15	0.8	0.4227	849.77	3.86
303.15	0.8	0.5159	852.85	3.81
303.15	0.8	0.5836	855.32	3.81
303.15	0.8	0.6695	858.18	3.81
303.15	0.8	0.7174	860.11	3.67
303.15	0.9	0.0404	808.61	4.85
303.15	0.9	0.0933	810.15	4.86
303.15	0.9	0.1436	811.75	4.88
303.15	0.9	0.1725	812.76	4.98
303.15	0.9	0.194	813.65	4.99
303.15	0.9	0.2229	814.53	4.99
303.15	0.9	0.2427	815.22	4.99
303.15	0.9	0.2683	816	5.14
303.15	0.9	0.3162	817.05	5.14
303.15	1	0.0206	780.97	0.15
303.15	1	0.0289	781.33	0.15
303.15	1	0.0404	781.78	0.15
303.15	1	0.0504	782.17	0.15
303.15	1	0.0578	782.44	0.15
303.15	1	0.0677	782.85	0.15
303.15	1	0.0743	783.16	0.15
303.15	1	0.0817	783.42	0.15
310.15	0.1	0.3566	990.4	0.39
310.15	0.1	1.0211	1004.86	0.38
310.15	0.1	1.7129	1019.73	0.36
310.15	0.1	2.3898	1033.35	0.29
310.15	0.1	3.0832	1047.87	0.27
310.15	0.1	3.5141	1057.55	0.26
310.15	0.1	4.0135	1067.32	0.23
310.15	0.1	4.4527	1076.64	0.26
310.15	0.2	0.241	967.55	0.7
310.15	0.2	0.3863	971.91	0.78
310.15	0.2	0.6959	979.01	0.69
310.15	0.2	1.0682	987.26	0.71
310.15	0.2	1.5948	999.84	0.62
310.15	0.2	2.1199	1012.71	0.61
310.15	0.2	2.6457	1025.66	0.56
310.15	0.2	3.1245	1036.58	0.33
310.15	0.2	3.7453	1051.92	0.5
310.15	0.3	0.057	944.45	0.11
310.15	0.3	0.1874	948.41	0.53
310.15	0.3	0.3162	950.99	0.58
310.15	0.3	0.7041	962.07	0.53
310.15	0.3	1.0789	971.21	0.5
310.15	0.3	1.5239	982.92	0.46
310.15	0.3	2.0101	994.99	0.11
310.15	0.3	2.5186	1008.66	0.11
310.15	0.3	3.0386	1021.71	0.11
310.15	0.3	3.5191	1034.07	0.72
310.15	0.4	0.057	944.45	1.72
310.15	0.4	0.1874	948.41	1.64
310.15	0.4	0.3162	950.99	1.62
310.15	0.4	0.7041	962.07	1.57
310.15	0.4	1.0789	971.21	1.5
310.15	0.4	1.5239	982.92	1.47
310.15	0.4	2.0101	994.99	0.11
310.15	0.4	2.5186	1008.66	0.11
310.15	0.4	3.0386	1021.71	0.11
310.15	0.5	0.118	903.62	3.31
310.15	0.5	0.364	912.08	3.17
310.15	0.5	0.7396	923.74	3.1
310.15	0.5	1.0996	934.43	2.98
310.15	0.5	1.4793	945.01	2.95
310.15	0.5	1.8631	955.14	1.96
310.15	0.5	2.1455	963.85	3.53
310.15	0.5	2.4212	971.71	3.43
310.15	0.6	0.0479	878.2	2.88
310.15	0.6	0.1956	883.2	2.8
310.15	0.6	0.3814	889.56	2.79
310.15	0.6	0.757	901.79	2.74
310.15	0.6	0.9749	908.28	2.66
310.15	0.6	1.1606	914.15	2.68
310.15	0.6	1.4017	920.75	2.63
310.15	0.6	1.6411	927.99	2.65
310.15	0.6	1.8103	934.39	2.26
310.15	0.7	0.1907	859.53	3.37
310.15	0.7	0.3847	866.29	3.32
310.15	0.7	0.5844	872.95	3.34
310.15	0.7	0.7776	879.38	3.26
310.15	0.7	0.9559	885.56	3.11
310.15	0.7	1.0542	888.52	3.1
310.15	0.7	1.1697	891.82	3.15
310.15	0.7	1.2556	895.16	3.18
310.15	0.8	0.0454	829.54	4.32
310.15	0.8	0.128	832.6	4.21
310.15	0.8	0.2064	835.46	4.19
310.15	0.8	0.3005	838.99	4.6
310.15	0.8	0.4227	843.53	3.88
310.15	0.8	0.5159	846.6	3.84
310.15	0.8	0.5836	849.09	3.83
310.15	0.8	0.6695	851.95	3.83
310.15	0.8	0.7174	853.88	3.71
310.15	0.9	0.0404	802.29	4.84
310.15	0.9	0.0933	803.85	4.85
310.15	0.9	0.1436	805.44	4.88
310.15	0.9	0.1725	806.47	4.99
310.15	0.9	0.194	807.36	5
310.15	0.9	0.2229	808.2	5
310.15	0.9	0.2427	808.93	5
310.15	0.9	0.2683	809.72	5.14
310.15	0.9	0.3162	810.78	5.15
310.15	1	0.0206	774.78	0.15
310.15	1	0.0289	775.15	0.15
310.15	1	0.0404	775.6	0.15
310.15	1	0.0504	775.99	0.15
310.15	1	0.0578	776.26	0.15
310.15	1	0.0677	776.67	0.15
310.15	1	0.0743	776.98	0.15
310.15	1	0.0817	777.24	0.15
318.15	0.1	0.3566	986.7	0.4
318.15	0.1	1.0211	1001	0.4
318.15	0.1	1.7129	1015.7	0.4
318.15	0.1	2.3898	1029.2	0.3
318.15	0.1	3.0832	1043.6	0.3
318.15	0.1	3.5141	1053.2	0.3
318.15	0.1	4.0135	1063	0.3
318.15	0.1	4.4527	1072.2	0.3
318.15	0.2	0.241	962.86	0.75
318.15	0.2	0.3863	967.2	0.82
318.15	0.2	0.6959	974.28	0.73
318.15	0.2	1.0682	982.49	0.74
318.15	0.2	1.5948	995.03	0.65
318.15	0.2	2.1199	1007.86	0.64
318.15	0.2	2.6457	1020.75	0.59
318.15	0.2	3.1245	1031.64	0.35
318.15	0.2	3.7453	1046.91	0.53
318.15	0.3	0.057	938.71	0.11
318.15	0.3	0.1874	942.69	0.56
318.15	0.3	0.3162	945.27	0.62
318.15	0.3	0.7041	956.38	0.55
318.15	0.3	1.0789	965.54	0.53
318.15	0.3	1.5239	977.27	0.49
318.15	0.3	2.0101	989.33	0.11
318.15	0.3	2.5186	1003.05	0.11
318.15	0.3	3.0386	1016.12	0.11
318.15	0.3	3.5191	1028.5	0.75
318.15	0.4	0.057	938.71	1.95
318.15	0.4	0.1874	942.69	1.7
318.15	0.4	0.3162	945.27	1.67
318.15	0.4	0.7041	956.38	1.61
318.15	0.4	1.0789	965.54	1.53
318.15	0.4	1.5239	977.27	1.51
318.15	0.4	2.0101	989.33	0.11
318.15	0.4	2.5186	1003.05	0.11
318.15	0.4	3.0386	1016.12	0.11
318.15	0.5	0.118	896.8	3.38
318.15	0.5	0.364	905.32	3.23
318.15	0.5	0.7396	917.05	3.16
318.15	0.5	1.0996	927.82	3.03
318.15	0.5	1.4793	938.47	3
318.15	0.5	1.8631	948.62	2
318.15	0.5	2.1455	957.37	3.62
318.15	0.5	2.4212	965.29	3.5
318.15	0.6	0.0479	871.12	2.89
318.15	0.6	0.1956	876.16	2.82
318.15	0.6	0.3814	882.54	2.82
318.15	0.6	0.757	894.85	2.76
318.15	0.6	0.9749	901.38	2.7
318.15	0.6	1.1606	907.3	2.71
318.15	0.6	1.4017	913.97	2.65
318.15	0.6	1.6411	921.25	2.66
318.15	0.6	1.8103	927.64	2.28
318.15	0.7	0.1907	852.31	3.38
318.15	0.7	0.3847	859.12	3.34
318.15	0.7	0.5844	865.81	3.36
318.15	0.7	0.7776	872.29	3.28
318.15	0.7	0.9559	878.47	3.14
318.15	0.7	1.0542	881.47	3.13
318.15	0.7	1.1697	884.81	3.15
318.15	0.7	1.2556	888.15	3.2
318.15	0.8	0.0454	822.19	4.33
318.15	0.8	0.128	825.27	4.21
318.15	0.8	0.2064	828.24	4.19
318.15	0.8	0.3005	831.67	4.61
318.15	0.8	0.4227	836.22	3.91
318.15	0.8	0.5159	839.3	3.85
318.15	0.8	0.5836	841.8	3.85
318.15	0.8	0.6695	844.69	3.85
318.15	0.8	0.7174	846.61	3.73
318.15	0.9	0.0404	794.98	4.83
318.15	0.9	0.0933	796.55	4.83
318.15	0.9	0.1436	798.15	4.86
318.15	0.9	0.1725	799.19	4.99
318.15	0.9	0.194	800.08	5.01
318.15	0.9	0.2229	800.92	5
318.15	0.9	0.2427	801.66	5.01
318.15	0.9	0.2683	802.43	5.14
318.15	0.9	0.3162	803.5	5.14
318.15	1	0.0206	767.64	0.15
318.15	1	0.0289	768.01	0.15
318.15	1	0.0404	768.46	0.15
318.15	1	0.0504	768.85	0.15
318.15	1	0.0578	769.12	0.15
318.15	1	0.0677	769.53	0.15
318.15	1	0.0743	769.84	0.15
318.15	1	0.0817	770.1	0.15

System: ethanol + water + 3-[tris(hydroxymethyl)methylamino]-1-propanesulfonic acid; phases: Liquid, Crystal
Fixed: Pressure, kPa = 101.3
Fixed: Temperature, K = 298.15
Property: Molality, mol/kg of 3-[tris(hydroxymethyl)methylamino]-1-propanesulfonic acid (Liquid); method: Synthetic method
Mass fraction of ethanol	Molality, mol/kg of 3-[tris(hydroxymethyl)methylamino]-1-propanesulfonic acid	uncertainty
0	3.12	0.05
0.1	2.41	0.04
0.2	1.77	0.04
0.3	1.23	0.04
0.4	0.783	0.035
0.5	0.42	0.03
0.6	0.206	0.021
0.7	0.078	0.013
0.8	0.021	0.009

System: ethanol + water + 3-[tris(hydroxymethyl)methylamino]-1-propanesulfonic acid; phases: Liquid
Fixed: Pressure, kPa = 101.3
Property: Mass density, kg/m3 (Liquid); method: Vibrating tube method
Temperature, K	Mass fraction of ethanol	Molality, mol/kg of 3-[tris(hydroxymethyl)methylamino]-1-propanesulfonic acid	Mass density, kg/m3	uncertainty
298.15	0.1	0.1866	1001.99	0.4
298.15	0.1	0.5187	1024.14	0.3
298.15	0.1	0.8669	1046.61	0.24
298.15	0.1	1.2105	1069.47	0.17
298.15	0.1	1.518	1088.48	0.13
298.15	0.1	1.7215	1101.4	0.13
298.15	0.1	1.897	1113.63	0.14
298.15	0.1	2.2086	1133.57	0.26
298.15	0.2	0.0263	968.7	0.64
298.15	0.2	0.0555	971.48	0.64
298.15	0.2	0.0966	974.98	0.64
298.15	0.2	0.1295	977.95	0.64
298.15	0.2	0.185	982.79	0.7
298.15	0.2	0.5212	1010.36	0.64
298.15	0.2	0.8768	1036.69	0.57
298.15	0.2	1.0954	1055.43	0.81
298.15	0.2	1.3408	1074.74	0.23
298.15	0.2	1.6051	1096.25	0.13
298.15	0.3	0.0197	952.37	1.05
298.15	0.3	0.0526	955.43	1.06
298.15	0.3	0.09	958.63	1.05
298.15	0.3	0.1344	962.61	1.05
298.15	0.3	0.1796	966.58	1.05
298.15	0.3	0.358	979.5	1.09
298.15	0.3	0.5294	993.39	1.08
298.15	0.3	0.7469	1009.86	0.93
298.15	0.3	0.9183	1022.83	1.04
298.15	0.3	1.1456	1039.03	1.2
298.15	0.4	0.0238	933.68	1.64
298.15	0.4	0.0563	936.41	1.65
298.15	0.4	0.0904	939.54	1.63
298.15	0.4	0.1278	942.92	1.64
298.15	0.4	0.1636	946.19	1.64
298.15	0.4	0.2421	952.82	1.7
298.15	0.4	0.3568	961.85	1.52
298.15	0.4	0.4719	971.04	1.41
298.15	0.4	0.6088	982.33	1.41
298.15	0.4	0.7144	991.99	1.2
298.15	0.5	0.0189	911.27	2.24
298.15	0.5	0.0563	914.74	2.2
298.15	0.5	0.0941	918.27	2.23
298.15	0.5	0.1258	921	2.22
298.15	0.5	0.1702	924.96	2.23
298.15	0.5	0.2031	927.81	2.22
298.15	0.5	0.2676	933.53	2.15
298.15	0.5	0.3338	939.7	2.01
298.15	0.5	0.3823	944.13	2.01
298.15	0.6	0.0234	888.96	2.82
298.15	0.6	0.0382	890.55	2.79
298.15	0.6	0.0518	892.09	2.79
298.15	0.6	0.0732	893.7	2.78
298.15	0.6	0.0962	895.57	2.79
298.15	0.6	0.1192	897.72	2.76
298.15	0.6	0.1385	899.39	2.73
298.15	0.6	0.1706	902.24	2.74
298.15	0.6	0.1965	904.44	2.74
298.15	0.7	0.0177	864.58	3.37
298.15	0.7	0.0267	865.43	3.37
298.15	0.7	0.0345	866.2	3.37
298.15	0.7	0.0432	867.07	3.37
298.15	0.7	0.051	867.81	3.39
298.15	0.7	0.0575	868.44	3.4
298.15	0.7	0.0662	869.17	3.34
298.15	0.7	0.074	869.92	3.34
298.15	0.8	0.0029	838.73	3.89
298.15	0.8	0.0037	838.82	3.89
298.15	0.8	0.0053	838.98	3.89
298.15	0.8	0.0078	839.25	3.89
298.15	0.8	0.0103	839.51	3.89
298.15	0.8	0.0132	839.81	3.89
298.15	0.8	0.0164	840.14	3.89
298.15	0.8	0.0197	840.47	3.89
303.15	0.1	0.1866	1000.22	0.41
303.15	0.1	0.5187	1022.22	0.31
303.15	0.1	0.8669	1044.56	0.25
303.15	0.1	1.2105	1067.34	0.18
303.15	0.1	1.518	1086.26	0.13
303.15	0.1	1.7215	1099.12	0.13
303.15	0.1	1.897	1111.32	0.13
303.15	0.1	2.2086	1131.23	0.26
303.15	0.2	0.0263	966.25	0.67
303.15	0.2	0.0555	969.02	0.67
303.15	0.2	0.0966	972.52	0.67
303.15	0.2	0.1295	975.48	0.67
303.15	0.2	0.185	980.29	0.73
303.15	0.2	0.5212	1007.77	0.67
303.15	0.2	0.8768	1034.05	0.59
303.15	0.2	1.0954	1052.77	0.84
303.15	0.2	1.3408	1072.05	0.25
303.15	0.2	1.6051	1093.53	0.13
303.15	0.3	0.0197	949.08	1.09
303.15	0.3	0.0526	952.15	1.1
303.15	0.3	0.09	955.33	1.09
303.15	0.3	0.1344	959.33	1.09
303.15	0.3	0.1796	963.29	1.09
303.15	0.3	0.358	976.22	1.1
303.15	0.3	0.5294	990.11	1.12
303.15	0.3	0.7469	1006.59	0.95
303.15	0.3	0.9183	1019.57	1.07
303.15	0.3	1.1456	1035.77	1.24
303.15	0.4	0.0238	929.88	1.68
303.15	0.4	0.0563	932.56	1.68
303.15	0.4	0.0904	935.76	1.66
303.15	0.4	0.1278	939.15	1.67
303.15	0.4	0.1636	942.4	1.67
303.15	0.4	0.2421	949.07	1.73
303.15	0.4	0.3568	958.12	1.55
303.15	0.4	0.4719	967.32	1.45
303.15	0.4	0.6088	978.62	1.46
303.15	0.4	0.7144	988.3	1.23
303.15	0.5	0.0189	907.18	2.26
303.15	0.5	0.0563	910.66	2.22
303.15	0.5	0.0941	914.2	2.25
303.15	0.5	0.1258	916.92	2.25
303.15	0.5	0.1702	920.88	2.25
303.15	0.5	0.2031	923.75	2.25
303.15	0.5	0.2676	929.46	2.19
303.15	0.5	0.3338	935.65	2.04
303.15	0.5	0.3823	940.08	2.04
303.15	0.6	0.0234	884.7	2.83
303.15	0.6	0.0382	886.29	2.81
303.15	0.6	0.0518	887.83	2.81
303.15	0.6	0.0732	889.45	2.8
303.15	0.6	0.0962	891.31	2.81
303.15	0.6	0.1192	893.47	2.78
303.15	0.6	0.1385	895.14	2.75
303.15	0.6	0.1706	898	2.76
303.15	0.6	0.1965	900.2	2.77
303.15	0.7	0.0177	860.23	3.39
303.15	0.7	0.0267	861.07	3.38
303.15	0.7	0.0345	861.85	3.39
303.15	0.7	0.0432	862.72	3.39
303.15	0.7	0.051	863.47	3.41
303.15	0.7	0.0575	864.09	3.41
303.15	0.7	0.0662	864.82	3.36
303.15	0.7	0.074	865.58	3.36
303.15	0.8	0.0029	834.29	3.9
303.15	0.8	0.0037	834.38	3.9
303.15	0.8	0.0053	834.54	3.91
303.15	0.8	0.0078	834.8	3.91
303.15	0.8	0.0103	835.06	3.91
303.15	0.8	0.0132	835.36	3.91
303.15	0.8	0.0164	835.69	3.91
303.15	0.8	0.0197	836.02	3.91
310.15	0.1	0.1866	997.37	0.43
310.15	0.1	0.5187	1019.23	0.32
310.15	0.1	0.8669	1041.43	0.27
310.15	0.1	1.2105	1064.14	0.19
310.15	0.1	1.518	1082.95	0.13
310.15	0.1	1.7215	1095.73	0.13
310.15	0.1	1.897	1107.91	0.13
310.15	0.1	2.2086	1127.77	0.26
310.15	0.2	0.0263	962.49	0.71
310.15	0.2	0.0555	965.28	0.71
310.15	0.2	0.0966	968.76	0.71
310.15	0.2	0.1295	971.71	0.71
310.15	0.2	0.185	976.5	0.77
310.15	0.2	0.5212	1003.92	0.7
310.15	0.2	0.8768	1030.13	0.62
310.15	0.2	1.0954	1048.85	0.87
310.15	0.2	1.3408	1068.1	0.28
310.15	0.2	1.6051	1089.56	0.13
310.15	0.3	0.0197	944.28	1.14
310.15	0.3	0.0526	947.35	1.15
310.15	0.3	0.09	950.54	1.14
310.15	0.3	0.1344	954.54	1.14
310.15	0.3	0.1796	958.51	1.14
310.15	0.3	0.358	971.45	1.14
310.15	0.3	0.5294	985.35	1.17
310.15	0.3	0.7469	1001.84	0.99
310.15	0.3	0.9183	1014.84	1.12
310.15	0.3	1.1456	1031.06	1.29
310.15	0.4	0.0238	924.42	1.72
310.15	0.4	0.0563	927.11	1.72
310.15	0.4	0.0904	930.3	1.71
310.15	0.4	0.1278	933.71	1.71
310.15	0.4	0.1636	936.97	1.71
310.15	0.4	0.2421	943.65	1.76
310.15	0.4	0.3568	952.74	1.59
310.15	0.4	0.4719	961.97	1.5
310.15	0.4	0.6088	973.3	1.5
310.15	0.4	0.7144	983.01	1.28
310.15	0.5	0.0189	901.35	2.29
310.15	0.5	0.0563	904.83	2.25
310.15	0.5	0.0941	908.37	2.28
310.15	0.5	0.1258	911.1	2.28
310.15	0.5	0.1702	915.06	2.29
310.15	0.5	0.2031	917.95	2.28
310.15	0.5	0.2676	923.65	2.23
310.15	0.5	0.3338	929.86	2.08
310.15	0.5	0.3823	934.31	2.08
310.15	0.6	0.0234	878.63	2.85
310.15	0.6	0.0382	880.22	2.83
310.15	0.6	0.0518	881.75	2.83
310.15	0.6	0.0732	883.39	2.82
310.15	0.6	0.0962	885.25	2.83
310.15	0.6	0.1192	887.42	2.8
310.15	0.6	0.1385	889.09	2.78
310.15	0.6	0.1706	891.94	2.79
310.15	0.6	0.1965	894.16	2.8
310.15	0.7	0.0177	854.01	3.4
310.15	0.7	0.0267	854.85	3.4
310.15	0.7	0.0345	855.63	3.4
310.15	0.7	0.0432	856.5	3.4
310.15	0.7	0.051	857.25	3.42
310.15	0.7	0.0575	857.94	3.43
310.15	0.7	0.0662	858.61	3.38
310.15	0.7	0.074	859.37	3.38
310.15	0.8	0.0029	828	3.91
310.15	0.8	0.0037	828.09	3.91
310.15	0.8	0.0053	828.25	3.92
310.15	0.8	0.0078	828.5	3.92
310.15	0.8	0.0103	828.76	3.93
310.15	0.8	0.0132	829.06	3.93
310.15	0.8	0.0164	829.39	3.93
310.15	0.8	0.0197	829.72	3.93
318.15	0.1	0.1866	993.67	0.45
318.15	0.1	0.5187	1015.39	0.34
318.15	0.1	0.8669	1037.51	0.28
318.15	0.1	1.2105	1060.07	0.2
318.15	0.1	1.518	1078.86	0.12
318.15	0.1	1.7215	1092.41	0.12
318.15	0.1	1.897	1103.72	0.13
318.15	0.1	2.2086	1123.56	0.26
318.15	0.2	0.0263	957.83	0.76
318.15	0.2	0.0555	960.63	0.75
318.15	0.2	0.0966	964.07	0.76
318.15	0.2	0.1295	967.01	0.75
318.15	0.2	0.185	971.81	0.81
318.15	0.2	0.5212	999.16	0.74
318.15	0.2	0.8768	1025.36	0.65
318.15	0.2	1.0954	1044.06	0.89
318.15	0.2	1.3408	1063.29	0.3
318.15	0.2	1.6051	1084.75	0.13
318.15	0.3	0.0197	938.53	1.19
318.15	0.3	0.0526	941.61	1.21
318.15	0.3	0.09	944.8	1.19
318.15	0.3	0.1344	948.81	1.19
318.15	0.3	0.1796	952.79	1.19
318.15	0.3	0.358	965.77	1.19
318.15	0.3	0.5294	979.69	1.23
318.15	0.3	0.7469	996.22	1.02
318.15	0.3	0.9183	1009.25	1.17
318.15	0.3	1.1456	1025.51	1.33
318.15	0.4	0.0238	917.99	1.76
318.15	0.4	0.0563	920.69	1.76
318.15	0.4	0.0904	923.9	1.75
318.15	0.4	0.1278	927.31	1.75
318.15	0.4	0.1636	930.58	1.75
318.15	0.4	0.2421	937.27	1.79
318.15	0.4	0.3568	946.38	1.63
318.15	0.4	0.4719	955.67	1.54
318.15	0.4	0.6088	967.04	1.54
318.15	0.4	0.7144	976.77	1.32
318.15	0.5	0.0189	894.51	2.32
318.15	0.5	0.0563	897.98	2.28
318.15	0.5	0.0941	901.54	2.32
318.15	0.5	0.1258	904.28	2.31
318.15	0.5	0.1702	908.24	2.32
318.15	0.5	0.2031	911.13	2.31
318.15	0.5	0.2676	916.85	2.27
318.15	0.5	0.3338	923.08	2.12
318.15	0.5	0.3823	927.53	2.12
318.15	0.6	0.0234	871.54	2.88
318.15	0.6	0.0382	873.13	2.85
318.15	0.6	0.0518	874.66	2.85
318.15	0.6	0.0732	876.31	2.85
318.15	0.6	0.0962	878.18	2.86
318.15	0.6	0.1192	880.35	2.83
318.15	0.6	0.1385	882.02	2.81
318.15	0.6	0.1706	884.88	2.81
318.15	0.6	0.1965	887.11	2.82
318.15	0.7	0.0177	846.76	3.42
318.15	0.7	0.0267	847.61	3.42
318.15	0.7	0.0345	848.38	3.42
318.15	0.7	0.0432	849.26	3.42
318.15	0.7	0.051	850	3.44
318.15	0.7	0.0575	850.7	3.45
318.15	0.7	0.0662	851.37	3.4
318.15	0.7	0.074	852.12	3.4
318.15	0.8	0.0029	820.65	3.94
318.15	0.8	0.0037	820.74	3.94
318.15	0.8	0.0053	820.9	3.94
318.15	0.8	0.0078	821.15	3.94
318.15	0.8	0.0103	821.4	3.94
318.15	0.8	0.0132	821.7	3.94
318.15	0.8	0.0164	822.03	3.94
318.15	0.8	0.0197	822.36	3.94

System: ethanol + water + N-[tris(hydroxymethyl)methyl]-3-amino-2-hydroxypropane sulfonic acid; phases: Liquid, Crystal
Fixed: Pressure, kPa = 101.3
Fixed: Temperature, K = 298.15
Property: Molality, mol/kg of N-[tris(hydroxymethyl)methyl]-3-amino-2-hydroxypropane sulfonic acid (Liquid); method: Synthetic method
Mass fraction of ethanol	Molality, mol/kg of N-[tris(hydroxymethyl)methyl]-3-amino-2-hydroxypropane sulfonic acid	uncertainty
0	0.841	0.014
0.1	0.533	0.01
0.2	0.33	0.008
0.3	0.207	0.007
0.4	0.131	0.006
0.5	0.079	0.005
0.6	0.032	0.006

System: ethanol + water + N-[tris(hydroxymethyl)methyl]-3-amino-2-hydroxypropane sulfonic acid; phases: Liquid
Fixed: Pressure, kPa = 101.3
Property: Mass density, kg/m3 (Liquid); method: Vibrating tube method
Temperature, K	Mass fraction of ethanol	Molality, mol/kg of N-[tris(hydroxymethyl)methyl]-3-amino-2-hydroxypropane sulfonic acid	Mass density, kg/m3	uncertainty
298.15	0.1	0.0208	982.61	0.31
298.15	0.1	0.0478	986.5	0.31
298.15	0.1	0.0833	989.06	0.31
298.15	0.1	0.1107	992.1	0.31
298.15	0.1	0.1631	997.11	0.31
298.15	0.1	0.3255	1012.72	0.3
298.15	0.1	0.484	1027.52	0.24
298.15	0.2	0.022	968.56	0.61
298.15	0.2	0.049	971.43	0.63
298.15	0.2	0.0899	975.58	0.61
298.15	0.2	0.113	977.91	0.62
298.15	0.2	0.1219	978.84	0.63
298.15	0.2	0.2445	990.87	0.64
298.15	0.2	0.3251	998.59	0.58
298.15	0.3	0.0255	953.24	1.05
298.15	0.3	0.0548	956.15	1.05
298.15	0.3	0.0845	959.14	1.05
298.15	0.3	0.1018	960.81	1.05
298.15	0.3	0.1188	962.62	1.05
298.15	0.3	0.1477	965.33	1.13
298.15	0.3	0.1778	968.56	0.91
298.15	0.4	0.0228	934.08	1.64
298.15	0.4	0.0447	936.36	1.65
298.15	0.4	0.0606	937.93	1.63
298.15	0.4	0.0771	939.52	1.65
298.15	0.4	0.0883	940.83	1.64
298.15	0.4	0.108	942.69	1.5
298.15	0.4	0.1253	944.41	1.51
298.15	0.5	0.0108	910.61	2.26
298.15	0.5	0.0216	911.73	2.24
298.15	0.5	0.0378	913.51	2.23
298.15	0.5	0.0567	915.63	2.21
298.15	0.5	0.0744	917.26	2.2
298.15	0.5	0.091	918.92	2.22
298.15	0.6	0.012	887.99	2.74
298.15	0.6	0.0158	888.54	2.73
298.15	0.6	0.0212	889.16	2.71
298.15	0.6	0.0258	889.65	2.71
303.15	0.1	0.0208	980.9	0.32
303.15	0.1	0.0478	984.79	0.33
303.15	0.1	0.0833	987.32	0.32
303.15	0.1	0.1107	990.34	0.32
303.15	0.1	0.1631	995.31	0.32
303.15	0.1	0.3255	1010.81	0.32
303.15	0.1	0.484	1025.55	0.24
303.15	0.2	0.022	966.09	0.64
303.15	0.2	0.049	968.95	0.66
303.15	0.2	0.0899	973.04	0.64
303.15	0.2	0.113	975.42	0.65
303.15	0.2	0.1219	976.34	0.66
303.15	0.2	0.2445	988.36	0.67
303.15	0.2	0.3251	996.03	0.6
303.15	0.3	0.0255	949.97	1.09
303.15	0.3	0.0548	952.86	1.09
303.15	0.3	0.0845	955.86	1.08
303.15	0.3	0.1018	957.53	1.09
303.15	0.3	0.1188	959.33	1.09
303.15	0.3	0.1477	962.03	1.16
303.15	0.3	0.1778	965.25	0.96
303.15	0.4	0.0228	930.26	1.68
303.15	0.4	0.0447	932.57	1.68
303.15	0.4	0.0606	934.13	1.67
303.15	0.4	0.0771	935.73	1.68
303.15	0.4	0.0883	937.05	1.67
303.15	0.4	0.108	938.9	1.54
303.15	0.4	0.1253	940.63	1.56
303.15	0.5	0.0108	906.52	2.28
303.15	0.5	0.0216	907.65	2.26
303.15	0.5	0.0378	909.43	2.26
303.15	0.5	0.0567	911.54	2.23
303.15	0.5	0.0744	913.18	2.23
303.15	0.5	0.091	914.84	2.25
303.15	0.6	0.012	883.73	2.76
303.15	0.6	0.0158	884.28	2.75
303.15	0.6	0.0212	884.9	2.73
303.15	0.6	0.0258	885.39	2.73
310.15	0.1	0.0208	978.14	0.34
310.15	0.1	0.0478	981.98	0.35
310.15	0.1	0.0833	984.52	0.34
310.15	0.1	0.1107	987.5	0.34
310.15	0.1	0.1631	992.45	0.34
310.15	0.1	0.3255	1007.88	0.33
310.15	0.1	0.484	1022.49	0.24
310.15	0.2	0.022	962.35	0.68
310.15	0.2	0.049	965.19	0.7
310.15	0.2	0.0899	969.25	0.68
310.15	0.2	0.113	971.63	0.69
310.15	0.2	0.1219	972.56	0.69
310.15	0.2	0.2445	984.53	0.71
310.15	0.2	0.3251	992.18	0.64
310.15	0.3	0.0255	945.18	1.14
310.15	0.3	0.0548	948.06	1.14
310.15	0.3	0.0845	951.06	1.13
310.15	0.3	0.1018	952.73	1.14
310.15	0.3	0.1188	954.52	1.14
310.15	0.3	0.1477	957.23	1.2
310.15	0.3	0.1778	960.45	1.02
310.15	0.4	0.0228	924.8	1.72
310.15	0.4	0.0447	927.11	1.72
310.15	0.4	0.0606	928.68	1.71
310.15	0.4	0.0771	930.28	1.72
310.15	0.4	0.0883	931.6	1.72
310.15	0.4	0.108	933.45	1.6
310.15	0.4	0.1253	935.18	1.61
310.15	0.5	0.0108	900.69	2.31
310.15	0.5	0.0216	901.82	2.29
310.15	0.5	0.0378	903.6	2.29
310.15	0.5	0.0567	905.7	2.27
310.15	0.5	0.0744	907.35	2.27
310.15	0.5	0.091	909.01	2.29
310.15	0.6	0.012	877.66	2.8
310.15	0.6	0.0158	878.21	2.78
310.15	0.6	0.0212	878.83	2.76
310.15	0.6	0.0258	879.32	2.76
318.15	0.1	0.0208	974.51	0.36
318.15	0.1	0.0478	978.33	0.36
318.15	0.1	0.0833	980.83	0.36
318.15	0.1	0.1107	983.81	0.36
318.15	0.1	0.1631	988.72	0.36
318.15	0.1	0.3255	1004.06	0.35
318.15	0.1	0.484	1018.59	0.24
318.15	0.2	0.022	957.68	0.72
318.15	0.2	0.049	960.52	0.74
318.15	0.2	0.0899	964.57	0.72
318.15	0.2	0.113	966.93	0.73
318.15	0.2	0.1219	967.86	0.74
318.15	0.2	0.2445	979.79	0.75
318.15	0.2	0.3251	987.41	0.68
318.15	0.3	0.0255	939.44	1.19
318.15	0.3	0.0548	942.33	1.19
318.15	0.3	0.0845	945.33	1.18
318.15	0.3	0.1018	947.01	1.19
318.15	0.3	0.1188	948.8	1.19
318.15	0.3	0.1477	951.51	1.24
318.15	0.3	0.1778	954.74	1.07
318.15	0.4	0.0228	918.37	1.76
318.15	0.4	0.0447	920.68	1.76
318.15	0.4	0.0606	922.26	1.75
318.15	0.4	0.0771	923.86	1.76
318.15	0.4	0.0883	925.18	1.76
318.15	0.4	0.108	927.04	1.65
318.15	0.4	0.1253	928.77	1.66
318.15	0.5	0.0108	893.85	2.34
318.15	0.5	0.0216	894.98	2.33
318.15	0.5	0.0378	896.76	2.32
318.15	0.5	0.0567	898.86	2.31
318.15	0.5	0.0744	900.51	2.31
318.15	0.5	0.091	902.17	2.33
318.15	0.6	0.012	870.57	2.82
318.15	0.6	0.0158	871.12	2.81
318.15	0.6	0.0212	871.74	2.79
318.15	0.6	0.0258	872.23	2.79

System: ethanol + water + N-tris(Hydroxymethyl)methyl-4-aminobutanesulfonic acid; phases: Liquid, Crystal
Fixed: Pressure, kPa = 101.3
Fixed: Temperature, K = 298.15
Property: Molality, mol/kg of N-tris(Hydroxymethyl)methyl-4-aminobutanesulfonic acid (Liquid); method: Synthetic method
Mass fraction of ethanol	Molality, mol/kg of N-tris(Hydroxymethyl)methyl-4-aminobutanesulfonic acid	uncertainty
0	5.91	0.1
0.1	4.57	0.08
0.2	3.89	0.07
0.3	3.14	0.07
0.4	2.49	0.07
0.5	1.8	0.08
0.6	0.983	0.088
0.7	0.352	0.064
0.8	0.077	0.044

System: ethanol + water + N-tris(Hydroxymethyl)methyl-4-aminobutanesulfonic acid; phases: Liquid
Fixed: Pressure, kPa = 101.3
Property: Mass density, kg/m3 (Liquid); method: Vibrating tube method
Temperature, K	Mass fraction of ethanol	Molality, mol/kg of N-tris(Hydroxymethyl)methyl-4-aminobutanesulfonic acid	Mass density, kg/m3	uncertainty
298.15	0.1	0.1667	995.15	0.3
298.15	0.1	0.33	1008.85	0.3
298.15	0.1	0.4835	1020.93	0.27
298.15	0.1	0.8146	1039.56	0.3
298.15	0.1	1.2806	1067.67	0.19
298.15	0.1	1.6518	1093.33	0.2
298.15	0.1	2.4353	1133.01	0.24
298.15	0.1	3.1772	1162.99	0.17
298.15	0.1	3.8749	1200.67	0.18
298.15	0.2	0.1671	981.2	0.61
298.15	0.2	0.328	994.75	0.61
298.15	0.2	0.501	1008.49	0.59
298.15	0.2	0.8041	1025.68	0.59
298.15	0.2	1.15	1053.64	0.56
298.15	0.2	1.8259	1092.74	0.54
298.15	0.2	2.5468	1125.9	0.44
298.15	0.2	3.0816	1159.68	0.19
298.15	0.3	0.1695	965.74	1.05
298.15	0.3	0.3327	979.37	1.05
298.15	0.3	0.5052	993.17	1.04
298.15	0.3	0.6759	1006.07	1.11
298.15	0.3	0.9137	1022.8	1.1
298.15	0.3	1.3202	1048.86	0.85
298.15	0.3	1.6972	1070.32	1.15
298.15	0.3	2.0871	1098.9	0.48
298.15	0.3	2.4792	1115.49	0.16
298.15	0.3	2.7334	1141.41	0.26
298.15	0.4	0.1745	946.99	1.63
298.15	0.4	0.344	961.29	1.67
298.15	0.4	0.5134	974.95	1.67
298.15	0.4	0.6949	988.75	1.74
298.15	0.4	0.855	1000.14	1.65
298.15	0.4	1.0233	1011.6	1.92
298.15	0.4	1.2907	1032.08	1.41
298.15	0.4	1.6817	1052.44	0.95
298.15	0.4	1.9312	1078.15	0.4
298.15	0.5	0.0517	914.39	2.29
298.15	0.5	0.0941	918.26	2.24
298.15	0.5	0.1399	922.39	2.21
298.15	0.5	0.3443	938.81	2.09
298.15	0.5	0.7089	965.09	2.15
298.15	0.5	0.967	984.08	2.07
298.15	0.5	1.1904	1001.48	2.38
298.15	0.5	1.5682	1028.46	1.59
298.15	0.6	0.0237	888.98	2.79
298.15	0.6	0.0909	895.16	2.78
298.15	0.6	0.1862	903.87	2.79
298.15	0.6	0.3677	921.24	2.66
298.15	0.6	0.5429	934.35	2.19
298.15	0.6	0.7186	947.58	2.18
298.15	0.6	0.8076	954.52	2.17
298.15	0.6	0.9091	961.56	2.22
298.15	0.7	0.0665	869.34	3.35
298.15	0.7	0.101	872.63	3.38
298.15	0.7	0.1376	875.99	3.38
298.15	0.7	0.2017	881.87	3.29
298.15	0.7	0.2425	885.37	3.29
298.15	0.7	0.2771	888.66	3.43
298.15	0.7	0.3183	892.24	3.46
298.15	0.8	0.0086	839.38	3.91
298.15	0.8	0.0148	840.05	3.91
298.15	0.8	0.0214	840.6	3.9
298.15	0.8	0.0307	841.51	3.91
298.15	0.8	0.0486	843.22	3.91
298.15	0.8	0.0614	844.4	3.95
298.15	0.8	0.0742	845.23	3.94
303.15	0.1	0.1667	993.38	0.32
303.15	0.1	0.33	1007	0.31
303.15	0.1	0.4835	1019.01	0.29
303.15	0.1	0.8146	1037.52	0.31
303.15	0.1	1.2806	1065.54	0.19
303.15	0.1	1.6518	1091.08	0.22
303.15	0.1	2.4353	1130.59	0.27
303.15	0.1	3.1772	1160.49	0.16
303.15	0.1	3.8749	1198.15	0.17
303.15	0.2	0.1671	978.69	0.64
303.15	0.2	0.328	992.19	0.63
303.15	0.2	0.501	1005.89	0.62
303.15	0.2	0.8041	1023.04	0.61
303.15	0.2	1.15	1050.96	0.59
303.15	0.2	1.8259	1090.01	0.6
303.15	0.2	2.5468	1123.11	0.4
303.15	0.2	3.0816	1156.89	0.19
303.15	0.3	0.1695	962.45	1.09
303.15	0.3	0.3327	976.09	1.09
303.15	0.3	0.5052	989.9	1.07
303.15	0.3	0.6759	1002.8	1.14
303.15	0.3	0.9137	1019.57	1.13
303.15	0.3	1.3202	1045.65	0.89
303.15	0.3	1.6972	1067.1	1.11
303.15	0.3	2.0871	1095.71	0.59
303.15	0.3	2.4792	1112.33	0.23
303.15	0.3	2.7334	1138.29	0.28
303.15	0.4	0.1745	943.21	1.67
303.15	0.4	0.344	957.56	1.7
303.15	0.4	0.5134	971.25	1.69
303.15	0.4	0.6949	985.06	1.77
303.15	0.4	0.855	996.49	1.67
303.15	0.4	1.0233	1007.98	1.92
303.15	0.4	1.2907	1028.51	1.36
303.15	0.4	1.6817	1048.94	1.13
303.15	0.4	1.9312	1074.73	0.42
303.15	0.5	0.0517	910.31	2.3
303.15	0.5	0.0941	914.19	2.26
303.15	0.5	0.1399	918.32	2.23
303.15	0.5	0.3443	934.79	2.12
303.15	0.5	0.7089	961.15	2.17
303.15	0.5	0.967	980.21	2.1
303.15	0.5	1.1904	997.65	2.39
303.15	0.5	1.5682	1024.7	1.62
303.15	0.6	0.0237	884.72	2.8
303.15	0.6	0.0909	890.91	2.8
303.15	0.6	0.1862	899.64	2.8
303.15	0.6	0.3677	917.07	2.68
303.15	0.6	0.5429	930.15	2.23
303.15	0.6	0.7186	943.39	2.22
303.15	0.6	0.8076	950.32	2.19
303.15	0.6	0.9091	957.31	2.28
303.15	0.7	0.0665	865.01	3.37
303.15	0.7	0.101	868.29	3.4
303.15	0.7	0.1376	871.65	3.4
303.15	0.7	0.2017	877.52	3.31
303.15	0.7	0.2425	881.04	3.31
303.15	0.7	0.2771	884.32	3.43
303.15	0.7	0.3183	888	3.46
303.15	0.8	0.0086	834.93	3.92
303.15	0.8	0.0148	835.6	3.83
303.15	0.8	0.0214	836.15	3.86
303.15	0.8	0.0307	837.28	3.92
303.15	0.8	0.0486	838.78	3.95
303.15	0.8	0.0614	839.93	3.96
303.15	0.8	0.0742	840.79	3.96
310.15	0.1	0.1667	990.55	0.33
310.15	0.1	0.33	1004.08	0.33
310.15	0.1	0.4835	1016.02	0.31
310.15	0.1	0.8146	1034.4	0.32
310.15	0.1	1.2806	1062.27	0.2
310.15	0.1	1.6518	1087.71	0.23
310.15	0.1	2.4353	1127.08	0.27
310.15	0.1	3.1772	1156.87	0.16
310.15	0.1	3.8749	1194.5	0.17
310.15	0.2	0.1671	974.9	0.67
310.15	0.2	0.328	988.36	0.67
310.15	0.2	0.501	1002.03	0.66
310.15	0.2	0.8041	1019.13	0.64
310.15	0.2	1.15	1046.99	0.62
310.15	0.2	1.8259	1086	0.62
310.15	0.2	2.5468	1119.06	0.42
310.15	0.2	3.0816	1152.86	0.18
310.15	0.3	0.1695	957.65	1.14
310.15	0.3	0.3327	971.31	1.13
310.15	0.3	0.5052	985.13	1.12
310.15	0.3	0.6759	998.05	1.17
310.15	0.3	0.9137	1014.86	1.16
310.15	0.3	1.3202	1041	0.92
310.15	0.3	1.6972	1062.49	1.13
310.15	0.3	2.0871	1091.14	0.61
310.15	0.3	2.4792	1107.79	0.25
310.15	0.3	2.7334	1133.79	0.3
310.15	0.4	0.1745	937.8	1.71
310.15	0.4	0.344	952.19	1.73
310.15	0.4	0.5134	965.92	1.72
310.15	0.4	0.6949	979.8	1.8
310.15	0.4	0.855	991.27	1.71
310.15	0.4	1.0233	1002.79	1.94
310.15	0.4	1.2907	1023.4	1.39
310.15	0.4	1.6817	1043.93	1.17
310.15	0.4	1.9312	1069.76	0.45
310.15	0.5	0.0517	904.48	2.32
310.15	0.5	0.0941	908.35	2.29
310.15	0.5	0.1399	912.5	2.26
310.15	0.5	0.3443	929.02	2.14
310.15	0.5	0.7089	955.58	2.21
310.15	0.5	0.967	974.72	2.14
310.15	0.5	1.1904	992.2	2.42
310.15	0.5	1.5682	1019.33	1.66
310.15	0.6	0.0237	878.65	2.83
310.15	0.6	0.0909	884.85	2.82
310.15	0.6	0.1862	893.6	2.83
310.15	0.6	0.3677	911.25	2.69
310.15	0.6	0.5429	924.33	2.28
310.15	0.6	0.7186	937.38	2.27
310.15	0.6	0.8076	944.32	2.24
310.15	0.6	0.9091	951.27	2.35
310.15	0.7	0.0665	858.79	3.39
310.15	0.7	0.101	862.08	3.41
310.15	0.7	0.1376	865.44	3.41
310.15	0.7	0.2017	871.26	3.33
310.15	0.7	0.2425	874.77	3.34
310.15	0.7	0.2771	878.05	3.45
310.15	0.7	0.3183	881.95	3.46
310.15	0.8	0.0086	828.63	3.92
310.15	0.8	0.0148	829.3	3.84
310.15	0.8	0.0214	829.85	3.87
310.15	0.8	0.0307	830.98	3.93
310.15	0.8	0.0486	832.48	3.97
310.15	0.8	0.0614	833.64	3.98
310.15	0.8	0.0742	834.5	3.98
318.15	0.1	0.1667	986.86	0.35
318.15	0.1	0.33	1000.32	0.35
318.15	0.1	0.4835	1012.22	0.31
318.15	0.1	0.8146	1030.48	0.34
318.15	0.1	1.2806	1058.24	0.22
318.15	0.1	1.6518	1083.57	0.23
318.15	0.1	2.4353	1122.81	0.27
318.15	0.1	3.1772	1152.55	0.17
318.15	0.1	3.8749	1190.15	0.17
318.15	0.2	0.1671	970.21	0.71
318.15	0.2	0.328	983.65	0.71
318.15	0.2	0.501	997.29	0.69
318.15	0.2	0.8041	1014.36	0.67
318.15	0.2	1.15	1042.2	0.63
318.15	0.2	1.8259	1081.23	0.61
318.15	0.2	2.5468	1114.29	0.49
318.15	0.2	3.0816	1148.09	0.17
318.15	0.3	0.1695	951.94	1.19
318.15	0.3	0.3327	965.64	1.18
318.15	0.3	0.5052	979.5	1.16
318.15	0.3	0.6759	992.44	1.2
318.15	0.3	0.9137	1009.29	1.18
318.15	0.3	1.3202	1035.49	0.93
318.15	0.3	1.6972	1057.07	1.21
318.15	0.3	2.0871	1085.77	0.55
318.15	0.3	2.4792	1102.5	0.16
318.15	0.3	2.7334	1128.59	0.33
318.15	0.4	0.1745	931.42	1.75
318.15	0.4	0.344	945.88	1.78
318.15	0.4	0.5134	959.65	1.75
318.15	0.4	0.6949	973.62	1.84
318.15	0.4	0.855	985.15	1.74
318.15	0.4	1.0233	996.73	1.99
318.15	0.4	1.2907	1017.41	1.51
318.15	0.4	1.6817	1038.1	1.03
318.15	0.4	1.9312	1063.91	0.48
318.15	0.5	0.0517	897.63	2.35
318.15	0.5	0.0941	901.52	2.32
318.15	0.5	0.1399	905.67	2.3
318.15	0.5	0.3443	922.28	2.17
318.15	0.5	0.7089	949.01	2.25
318.15	0.5	0.967	968.23	2.19
318.15	0.5	1.1904	985.8	2.48
318.15	0.5	1.5682	1013.01	1.7
318.15	0.6	0.0237	871.56	2.85
318.15	0.6	0.0909	877.78	2.84
318.15	0.6	0.1862	886.55	2.86
318.15	0.6	0.3677	904.4	2.71
318.15	0.6	0.5429	917.35	2.32
318.15	0.6	0.7186	930.49	2.3
318.15	0.6	0.8076	937.34	2.29
318.15	0.6	0.9091	944.26	2.41
318.15	0.7	0.0665	851.55	3.4
318.15	0.7	0.101	854.82	3.43
318.15	0.7	0.1376	858.19	3.43
318.15	0.7	0.2017	864.01	3.36
318.15	0.7	0.2425	867.49	3.36
318.15	0.7	0.2771	870.83	3.46
318.15	0.7	0.3183	874.9	3.45
318.15	0.8	0.0086	821.27	3.96
318.15	0.8	0.0148	821.93	3.87
318.15	0.8	0.0214	822.49	3.88
318.15	0.8	0.0307	823.61	3.95
318.15	0.8	0.0486	825.11	3.98
318.15	0.8	0.0614	826.27	4
318.15	0.8	0.0742	827.15	3.99
