Measured thermophysical data. Isothermal P, x, y data for the argon + carbon dioxide system at six temperatures from 233.32 to 299.21 K and pressures up to 14 MPa
Source: Fluid Phase Equilib., 2008, 10.1016/j.fluid.2008.08.010
Compound 1: carbon dioxide, CO2, InChI=1S/CO2/c2-1-3
Compound 2: argon, Ar, InChI=1S/Ar

System: carbon dioxide + argon; phases: Liquid, Gas
Property: Vapor or sublimation pressure, kPa (Liquid); method: Closed cell (Static) method
Mole fraction of argon	Temperature, K	Vapor or sublimation pressure, kPa	uncertainty
0.0098	233.32	1520	6.8
0.019	233.32	2017.4	9
0.0389	233.32	3002.5	13.4
0.0595	233.32	4009.9	18
0.0813	233.32	5004.2	22.4
0.1294	233.32	7006.7	31.4
0.185	233.32	9012.6	40.3
0.2164	233.32	9993.3	44.7
0.2514	233.32	10998	49.2
0.2909	233.32	12004	53.7
0.3168	233.32	12510	56
0.3432	233.32	12996	58.1
0.3787	233.32	13571	60.7
0.4117	233.32	14034	62.8
0.0115	253.28	2550.2	11.4
0.035	253.28	3700.4	16.6
0.0612	253.28	4905	22
0.0901	253.28	6137.6	27.5
0.1195	253.28	7302.1	32.7
0.146	253.28	8305.6	37.2
0.1723	253.28	9191.8	41.1
0.1986	253.28	10002	44.7
0.2234	253.28	10707	47.9
0.2436	253.28	11201	50.1
0.2665	253.28	11717	52.4
0.2912	253.28	12212	54.6
0.3023	253.28	12403	55.5
0.3201	253.28	12688	56.8
0.3433	253.28	12987	58.1
0.0069	273.26	3822.9	17.1
0.0282	273.26	4798.3	21.5
0.0513	273.26	5804.1	26
0.0761	273.26	6809.8	30.5
0.103	273.26	7804.1	34.9
0.1324	273.26	8797.4	39.4
0.167	273.26	9787.7	43.8
0.1954	273.26	10488	46.9
0.2232	273.26	11048	49.4
0.2609	273.26	11492	51.4
0.2762	273.26	11587	51.8
0.0073	288.23	5413.7	24.2
0.0249	288.23	6152.2	27.5
0.0417	288.23	6814.5	30.5
0.0606	288.23	7506.4	33.6
0.0824	288.23	8223.7	36.8
0.1041	288.23	8845.6	39.6
0.124	288.23	9296.1	41.6
0.1348	288.23	9496.8	42.5
0.0088	295.01	6340.5	28.4
0.0191	295.01	6742.3	30.2
0.0293	295.01	7116.8	31.8
0.0405	295.01	7499.7	33.6
0.0561	295.01	7991.1	35.8
0.0735	295.01	8438.8	37.8
0.0819	295.01	8605.1	38.5
0.0056	299.21	6802.5	30.4
0.0112	299.21	7009.8	31.4
0.0171	299.21	7213.5	32.3
0.0234	299.21	7427.7	33.2
0.0289	299.21	7599.4	34
0.034	299.21	7746.9	34.7
0.0396	299.21	7896.7	35.3

System: carbon dioxide + argon; phases: Gas, Liquid
Property: Mole fraction of argon (Gas); method: Chromatography
Mole fraction of argon	Temperature, K	Mole fraction of argon	uncertainty
0.0098	233.32	0.2866	0.0095
0.019	233.32	0.4347	0.0144
0.0389	233.32	0.5839	0.019
0.0595	233.32	0.6661	0.0215
0.0813	233.32	0.7081	0.0228
0.1294	233.32	0.7413	0.0238
0.185	233.32	0.7458	0.024
0.2164	233.32	0.7452	0.0239
0.2514	233.32	0.7378	0.0237
0.2909	233.32	0.7324	0.0235
0.3168	233.32	0.7249	0.0233
0.3432	233.32	0.7126	0.0229
0.3787	233.32	0.6894	0.0222
0.4117	233.32	0.6618	0.0214
0.0115	253.28	0.1765	0.0058
0.035	253.28	0.373	0.0123
0.0612	253.28	0.4776	0.0158
0.0901	253.28	0.5416	0.0178
0.1195	253.28	0.5768	0.0188
0.146	253.28	0.5938	0.0193
0.1723	253.28	0.6015	0.0195
0.1986	253.28	0.6026	0.0196
0.2234	253.28	0.5983	0.0194
0.2436	253.28	0.5939	0.0193
0.2665	253.28	0.5879	0.0191
0.2912	253.28	0.5763	0.0188
0.3023	253.28	0.572	0.0187
0.3201	253.28	0.5602	0.0183
0.3433	253.28	0.5446	0.0179
0.0069	273.26	0.058	0.0019
0.0282	273.26	0.1856	0.0061
0.0513	273.26	0.2637	0.0087
0.0761	273.26	0.325	0.0108
0.103	273.26	0.3577	0.0118
0.1324	273.26	0.3778	0.0125
0.167	273.26	0.3934	0.013
0.1954	273.26	0.3922	0.013
0.2232	273.26	0.3807	0.0126
0.2609	273.26	0.3529	0.0117
0.2762	273.26	0.3342	0.0111
0.0073	288.23	0.0328	0.0011
0.0249	288.23	0.0931	0.0031
0.0417	288.23	0.1391	0.0046
0.0606	288.23	0.1715	0.0057
0.0824	288.23	0.1919	0.0064
0.1041	288.23	0.2104	0.007
0.124	288.23	0.2129	0.007
0.1348	288.23	0.2095	0.0069
0.0088	295.01	0.0276	0.0009
0.0191	295.01	0.0553	0.0018
0.0293	295.01	0.0767	0.0025
0.0405	295.01	0.0952	0.0032
0.0561	295.01	0.1132	0.0037
0.0735	295.01	0.1221	0.004
0.0819	295.01	0.1227	0.0041
0.0056	299.21	0.0136	0.0005
0.0112	299.21	0.0259	0.0009
0.0171	299.21	0.037	0.0012
0.0234	299.21	0.0477	0.0016
0.0289	299.21	0.0541	0.0018
0.034	299.21	0.0593	0.002
0.0396	299.21	0.0636	0.0021
