Measured thermophysical data. Vapour liquid equilibrium of cyclic ethers with 1-chlorohexane: Experimental results and UNIFAC predictions
Source: Fluid Phase Equilib., 2007, 10.1016/j.fluid.2007.05.013
Compound 1: tetrahydrofuran, C4H8O, InChI=1S/C4H8O/c1-2-4-5-3-1/h1-4H2, purity 99.5%
Compound 2: 1,3-dioxolane, C3H6O2, InChI=1S/C3H6O2/c1-2-5-3-4-1/h1-3H2, purity 99%
Compound 3: 1,4-dioxane, C4H8O2, InChI=1S/C4H8O2/c1-2-6-4-3-5-1/h1-4H2, purity 99%
Compound 4: 1-chlorohexane, C6H13Cl, InChI=1S/C6H13Cl/c1-2-3-4-5-6-7/h2-6H2,1H3, purity 99%
Compound 5: tetrahydropyran, C5H10O, InChI=1S/C5H10O/c1-2-4-6-5-3-1/h1-5H2, purity 99%

System: tetrahydrofuran; phases: Liquid
Property: Mass density, kg/m3 (Liquid); method: VIBTUB:UFactor:4
Temperature, K	Pressure, kPa	Mass density, kg/m3	uncertainty
298.15	101.325	882	0.5

System: tetrahydrofuran; phases: Liquid, Gas
Property: Vapor or sublimation pressure, kPa (Liquid); method: EBULLIO:UFactor:8
Temperature, K	Vapor or sublimation pressure, kPa	uncertainty
339.115	101.33	2.03

System: 1,3-dioxolane; phases: Liquid
Property: Mass density, kg/m3 (Liquid); method: VIBTUB:UFactor:8
Temperature, K	Pressure, kPa	Mass density, kg/m3	uncertainty
298.15	101.325	1059	0.9

System: 1,3-dioxolane; phases: Liquid, Gas
Property: Vapor or sublimation pressure, kPa (Liquid); method: EBULLIO:UFactor:8
Temperature, K	Vapor or sublimation pressure, kPa	uncertainty
348.8	101.33	2.03

System: 1,4-dioxane; phases: Liquid
Property: Mass density, kg/m3 (Liquid); method: VIBTUB:UFactor:8
Temperature, K	Pressure, kPa	Mass density, kg/m3	uncertainty
298.15	101.325	1027.9	0.7

System: 1,4-dioxane; phases: Liquid, Gas
Property: Vapor or sublimation pressure, kPa (Liquid); method: EBULLIO:UFactor:8
Temperature, K	Vapor or sublimation pressure, kPa	uncertainty
374.47	101.33	2.03

System: 1-chlorohexane; phases: Liquid
Property: Mass density, kg/m3 (Liquid); method: VIBTUB:UFactor:8
Temperature, K	Pressure, kPa	Mass density, kg/m3	uncertainty
298.15	101.325	873.5	1

System: 1-chlorohexane; phases: Liquid, Gas
Property: Vapor or sublimation pressure, kPa (Liquid); method: EBULLIO:UFactor:8
Temperature, K	Vapor or sublimation pressure, kPa	uncertainty
408.07	101.33	2.03

System: tetrahydropyran; phases: Liquid
Property: Mass density, kg/m3 (Liquid); method: VIBTUB:UFactor:8
Temperature, K	Pressure, kPa	Mass density, kg/m3	uncertainty
298.15	101.325	878.8	1

System: tetrahydropyran; phases: Liquid, Gas
Property: Vapor or sublimation pressure, kPa (Liquid); method: EBULLIO:UFactor:8
Temperature, K	Vapor or sublimation pressure, kPa	uncertainty
361.23	101.33	2.03

System: tetrahydrofuran + 1-chlorohexane; phases: Liquid, Gas
Property: Boiling temperature at pressure P, K (Liquid); method: EBULLIO:UFactor:8
Mole fraction of tetrahydrofuran	Pressure, kPa	Boiling temperature at pressure P, K	uncertainty
0	101.33	408.07	1.78
0.0251	101.33	405.51	1.74
0.0313	40	373.2	0.8
0.0637	101.33	399.04	1.75
0.0696	40	367.47	0.78
0.1025	40	363.25	0.76
0.1082	101.33	392.86	1.75
0.2045	101.33	383.04	1.7
0.2227	40	350.89	0.77
0.2486	40	348.07	0.78
0.2705	101.33	375.84	1.69
0.2812	101.33	375.11	1.69
0.2903	40	344.55	0.75
0.3197	40	342.72	0.74
0.3298	101.33	370.85	1.64
0.3549	101.33	369.17	1.65
0.3577	40	339.65	0.73
0.4039	101.33	365.97	0.97
0.4278	40	335.72	0.78
0.4649	40	333.03	0.72
0.4696	101.33	361.66	1.64
0.5599	101.33	356.41	1.62
0.5619	40	327.89	0.71
0.6694	40	323.86	0.69
0.6719	101.33	351.05	1.54
0.731	101.33	348.45	1.54
0.7318	40	321.26	0.68
0.8479	101.33	344.11	1.52
0.86	40	316.82	0.67
0.9163	40	315.73	0.66
0.9163	101.33	341.83	1.47
1	101.33	339.115	0.15

System: tetrahydrofuran + 1-chlorohexane; phases: Gas, Liquid
Property: Mole fraction of tetrahydrofuran (Gas); method: Density and Speed of Sound
Mole fraction of tetrahydrofuran	Pressure, kPa	Mole fraction of tetrahydrofuran	uncertainty
0.0251	101.33	0.1177	0.0203
0.0313	40	0.1657	0.0203
0.0637	101.33	0.2706	0.0202
0.0696	40	0.3282	0.0203
0.1025	40	0.4303	0.0202
0.1082	101.33	0.4001	0.0202
0.2045	101.33	0.6135	0.0202
0.2227	40	0.6866	0.0202
0.2486	40	0.7288	0.0202
0.2705	101.33	0.7143	0.0201
0.2812	101.33	0.7258	0.0201
0.2903	40	0.7847	0.0201
0.3197	40	0.8087	0.0201
0.3298	101.33	0.7736	0.0201
0.3549	101.33	0.7975	0.0201
0.3577	40	0.8443	0.02
0.4039	101.33	0.8343	0.02
0.4278	40	0.8748	0.0201
0.4649	40	0.9064	0.02
0.4696	101.33	0.873	0.02
0.5599	101.33	0.9157	0.02
0.5619	40	0.93	0.02
0.6694	40	0.959	0.02
0.6719	101.33	0.9488	0.02
0.731	101.33	0.9625	0.02
0.7318	40	0.9714	0.02
0.8479	101.33	0.9812	0.0188
0.86	40	0.9837	0.0163
0.9163	40	0.9967	0.0033
0.9163	101.33	0.9909	0.0091

System: tetrahydropyran + 1-chlorohexane; phases: Liquid, Gas
Property: Boiling temperature at pressure P, K (Liquid); method: EBULLIO:UFactor:8
Mole fraction of tetrahydropyran	Pressure, kPa	Boiling temperature at pressure P, K	uncertainty
0.0551	101.33	404.54	1.73
0.0598	40	373.55	0.78
0.097	40	370.81	0.81
0.1047	101.33	402.25	1.77
0.1378	40	368.34	0.79
0.1378	101.33	399.31	1.76
0.1819	101.33	395.97	1.75
0.1891	40	364.72	0.77
0.2384	40	362.31	0.77
0.2398	101.33	392.31	1.69
0.2618	101.33	390.57	1.72
0.2686	40	360.02	0.76
0.3375	40	356.52	0.78
0.34	101.33	387.04	1.72
0.3882	40	353.88	0.78
0.3919	101.33	384.62	1.74
0.467	40	350.61	0.76
0.4693	101.33	380.49	1.7
0.5449	101.33	377.19	1.68
0.5483	40	347.17	0.75
0.6301	101.33	373.55	1.65
0.6395	40	344.15	0.74
0.7155	101.33	370.57	1.63
0.7164	40	341.44	0.73
0.8004	101.33	367.26	1.62
0.8074	40	338.51	0.72
0.8748	101.33	364.96	1.59
0.8805	40	336.62	0.71
0.9505	40	334.72	0.71
0.9513	101.33	362.73	1.58
1	101.33	361.23	0.94

System: tetrahydropyran + 1-chlorohexane; phases: Gas, Liquid
Property: Mole fraction of tetrahydropyran (Gas); method: Density and Speed of Sound
Mole fraction of tetrahydropyran	Pressure, kPa	Mole fraction of tetrahydropyran	uncertainty
0.0551	101.33	0.1359	0.0201
0.0598	40	0.1653	0.0201
0.097	40	0.2695	0.0201
0.1047	101.33	0.2301	0.0201
0.1378	40	0.3503	0.0201
0.1378	101.33	0.3293	0.0201
0.1819	101.33	0.4117	0.0202
0.1891	40	0.4634	0.0203
0.2384	40	0.536	0.0203
0.2398	101.33	0.5053	0.0204
0.2618	101.33	0.5438	0.0203
0.2686	40	0.5851	0.0203
0.3375	40	0.6811	0.0203
0.34	101.33	0.6405	0.0203
0.3882	40	0.7355	0.0202
0.3919	101.33	0.6999	0.0202
0.467	40	0.8039	0.0201
0.4693	101.33	0.7717	0.0202
0.5449	101.33	0.8248	0.0201
0.5483	40	0.8576	0.0201
0.6301	101.33	0.8772	0.0201
0.6395	40	0.8973	0.02
0.7155	101.33	0.9147	0.02
0.7164	40	0.9342	0.02
0.8004	101.33	0.9528	0.02
0.8074	40	0.9668	0.02
0.8748	101.33	0.9785	0.02
0.8805	40	0.9805	0.0195
0.9505	40	0.99	0.01
0.9513	101.33	0.9909	0.0091

System: 1-chlorohexane + 1,3-dioxolane; phases: Liquid, Gas
Property: Boiling temperature at pressure P, K (Liquid); method: EBULLIO:UFactor:8
Mole fraction of 1,3-dioxolane	Pressure, kPa	Boiling temperature at pressure P, K	uncertainty
0.0305	40	370.2	0.82
0.035	101.33	401.15	1.79
0.073	40	362.5	0.8
0.0825	101.33	393.58	1.86
0.1474	101.33	384.66	1.77
0.1489	40	353.92	0.77
0.1868	40	350.16	0.78
0.2232	101.33	377.11	1.36
0.2654	101.33	374.94	1.67
0.2708	40	344.64	0.75
0.3529	40	340.21	0.72
0.3581	101.33	368.74	1.64
0.4342	101.33	364.46	1.61
0.4405	40	336.08	0.71
0.4846	40	334.55	0.7
0.4971	101.33	362.15	1.58
0.5894	101.33	358.95	1.54
0.5953	40	331.49	0.69
0.6298	40	330.71	0.68
0.6395	101.33	357.35	1.52
0.7027	40	329.04	0.67
0.704	101.33	355.76	1.51
0.7651	101.33	354.14	1.48
0.7701	40	327.83	0.66
0.8058	101.33	353.19	1.47
0.8078	40	327.14	0.66
0.8424	101.33	352.47	0.03
0.8683	101.33	351.84	1.46
0.8687	40	325.86	0.66
0.899	40	325.26	0.78
1	101.33	348.8	0.06

System: 1-chlorohexane + 1,3-dioxolane; phases: Gas, Liquid
Property: Mole fraction of 1,3-dioxolane (Gas); method: Density and Speed of Sound
Mole fraction of 1,3-dioxolane	Pressure, kPa	Mole fraction of 1,3-dioxolane	uncertainty
0.0305	40	0.22	0.0205
0.035	101.33	0.2003	0.0202
0.073	40	0.45	0.0204
0.0825	101.33	0.3848	0.0203
0.1474	101.33	0.5697	0.0204
0.1489	40	0.6224	0.0203
0.1868	40	0.6814	0.0203
0.2232	101.33	0.6743	0.0203
0.2654	101.33	0.7123	0.0202
0.2708	40	0.7711	0.0202
0.3529	40	0.8194	0.0201
0.3581	101.33	0.7954	0.0201
0.4342	101.33	0.8428	0.0201
0.4405	40	0.8672	0.0201
0.4846	40	0.8834	0.0201
0.4971	101.33	0.8639	0.0201
0.5894	101.33	0.8992	0.02
0.5953	40	0.9144	0.02
0.6298	40	0.9214	0.02
0.6395	101.33	0.9131	0.02
0.7027	40	0.939	0.02
0.704	101.33	0.9278	0.02
0.7651	101.33	0.9434	0.02
0.7701	40	0.9494	0.02
0.8058	101.33	0.9527	0.02
0.8078	40	0.9577	0.02
0.8424	101.33	0.9604	0.02
0.8683	101.33	0.9657	0.02
0.8687	40	0.969	0.02
0.899	40	0.9762	0.02

System: 1,4-dioxane + 1-chlorohexane; phases: Liquid, Gas
Property: Boiling temperature at pressure P, K (Liquid); method: EBULLIO:UFactor:8
Mole fraction of 1,4-dioxane	Pressure, kPa	Boiling temperature at pressure P, K	uncertainty
0.0704	40	372.2	0.79
0.0716	101.33	403.02	1
0.082	101.33	401.86	1
0.0844	40	370.85	0.78
0.1823	40	365.52	0.78
0.1828	101.33	396.53	1
0.2384	40	362.99	0.78
0.2697	101.33	392.25	1
0.3234	101.33	389.61	1
0.325	40	359.78	0.75
0.4258	40	356.23	0.74
0.4279	101.33	385.99	1
0.5185	101.33	383.41	1
0.5261	40	353.97	0.74
0.6554	101.33	380.08	1
0.6665	40	351.35	0.72
0.7055	40	350.84	0.72
0.7086	101.33	379.24	1
0.7386	40	350.32	0.72
0.7422	101.33	378.68	1
0.8027	40	349.44	0.71
0.804	101.33	377.58	1
0.8487	101.33	376.86	1
0.8492	40	348.73	0.71
0.8829	40	348.29	0.71
0.8841	101.33	376.25	1
0.9265	40	347.74	0.71
0.9268	101.33	375.64	1
1	101.33	374.47	1

System: 1,4-dioxane + 1-chlorohexane; phases: Gas, Liquid
Property: Mole fraction of 1,4-dioxane (Gas); method: Density and Speed of Sound
Mole fraction of 1,4-dioxane	Pressure, kPa	Mole fraction of 1,4-dioxane	uncertainty
0.0704	40	0.1937	0.0202
0.0716	101.33	0.1782	0.0206
0.082	101.33	0.2407	0.0206
0.0844	40	0.2429	0.0202
0.1823	40	0.4243	0.0202
0.1828	101.33	0.3851	0.0201
0.2384	40	0.507	0.0204
0.2697	101.33	0.5343	0.0203
0.3234	101.33	0.5814	0.0203
0.325	40	0.6087	0.0203
0.4258	40	0.6906	0.0202
0.4279	101.33	0.6841	0.0202
0.5185	101.33	0.7423	0.0202
0.5261	40	0.7611	0.0202
0.6554	101.33	0.8273	0.0201
0.6665	40	0.8368	0.0201
0.7055	40	0.8585	0.0201
0.7086	101.33	0.8509	0.0201
0.7386	40	0.8734	0.0201
0.7422	101.33	0.8678	0.0201
0.8027	40	0.902	0.02
0.804	101.33	0.8981	0.02
0.8487	101.33	0.9209	0.02
0.8492	40	0.9239	0.02
0.8829	40	0.9385	0.02
0.8841	101.33	0.938	0.02
0.9265	40	0.9596	0.02
0.9268	101.33	0.9587	0.02
