Measured thermophysical data. SLLE and SLLVE of the water + NH4Cl + 1-propanol system at 101.3 kPa
Source: Fluid Phase Equilib., 2018, 10.1016/j.fluid.2018.03.003
Compound 1: water, H2O, InChI=1S/H2O/h1H2, purity 99.9%
Compound 2: ammonium chloride (NH4Cl), ClH4N, InChI=1S/ClH.H3N/h1H;1H3, purity 99.6%
Compound 3: propan-1-ol, C3H8O, InChI=1S/C3H8O/c1-2-3-4/h4H,2-3H2,1H3, purity 99.5%

System: water + ammonium chloride (NH4Cl) + propan-1-ol; phases: Liquid, Crystal
Fixed: Temperature, K = 298.15
Fixed: Pressure, kPa = 101.3
Property: Mole fraction of propan-1-ol (Liquid); method: Ebulliometer
Mole fraction of water	Mole fraction of propan-1-ol	uncertainty
0.857	0.037	0.007
0.482	0.484	0.03
0.357	0.622	0.022
0.258	0.731	0.016
0.157	0.836	0.009
0.054	0.942	0.004

System: water + ammonium chloride (NH4Cl) + propan-1-ol; phases: Liquid mixture 2, Liquid mixture 1, Gas
Property: Mole fraction of propan-1-ol (Liquid mixture 2); method: Chromatography
Temperature, K	Mole fraction of water	Mole fraction of propan-1-ol	uncertainty
362.82	0.81	0.02	0.001
361.55	0.851	0.089	0.004
361.6	0.876	0.044	0.002
361.67	0.873	0.035	0.035
361.85	0.864	0.031	0.004
362.05	0.856	0.025	0.011
362.39	0.829	0.021	0.002

System: water + ammonium chloride (NH4Cl) + propan-1-ol; phases: Liquid mixture 1, Liquid mixture 2, Gas
Property: Mole fraction of propan-1-ol (Liquid mixture 1); method: Chromatography
Temperature, K	Mole fraction of water	Mole fraction of propan-1-ol	uncertainty
362.82	0.81	0.584	0.017
361.55	0.851	0.238	0.01
361.6	0.876	0.364	0.015
361.67	0.873	0.412	0.017
361.85	0.864	0.444	0.018
362.05	0.856	0.481	0.02
362.39	0.829	0.537	0.019

System: water + ammonium chloride (NH4Cl) + propan-1-ol; phases: Liquid mixture 1, Liquid mixture 2, Gas
Property: Mole fraction of water (Liquid mixture 1); method: Chromatography
Temperature, K	Mole fraction of water	Mole fraction of water	uncertainty
362.82	0.81	0.379	0.015
361.55	0.851	0.724	0.011
361.6	0.876	0.603	0.016
361.67	0.873	0.556	0.018
361.85	0.864	0.523	0.019
362.05	0.856	0.487	0.02
362.39	0.829	0.428	0.017

System: water + ammonium chloride (NH4Cl) + propan-1-ol; phases: Liquid, Crystal, Gas
Property: Mole fraction of propan-1-ol (Liquid); method: Chromatography
Temperature, K	Mole fraction of water	Mole fraction of propan-1-ol	uncertainty
362.82	0.379	0.584	0.017
362.95	0.322	0.656	0.014
363.29	0.259	0.723	0.011
363.95	0.192	0.797	0.008
366.25	0.09	0.904	0.004
368.44	0.033	0.963	0.002
369.89	0.008	0.988	0.001
369.43	0.015	0.981	0.001

System: water + ammonium chloride (NH4Cl) + propan-1-ol; phases: Liquid, Gas
Property: Mole fraction of propan-1-ol (Liquid); method: Chromatography
Temperature, K	Mole fraction of water	Mole fraction of water	Mole fraction of propan-1-ol	uncertainty
362.82	0.379	0.446	0.584	0.017
361.55	0.724	0.518	0.238	0.01
361.6	0.603	0.509	0.364	0.015
361.67	0.556	0.498	0.412	0.017
361.85	0.523	0.489	0.444	0.018
362.05	0.487	0.476	0.481	0.02
362.39	0.428	0.457	0.537	0.019
362.95	0.322	0.424	0.656	0.014
363.29	0.259	0.39	0.723	0.011
363.95	0.192	0.347	0.797	0.008
366.25	0.09	0.217	0.904	0.004
368.44	0.033	0.105	0.963	0.002
369.89	0.008	0.03	0.988	0.001
369.43	0.015	0.044	0.981	0.001
361.37	0.893	0.613	0.081	0.003
361.39	0.888	0.544	0.065	0.003
361.32	0.708	0.564	0.266	0.011
361.62	0.556	0.498	0.422	0.017
361.9	0.446	0.473	0.536	0.019

System: water + ammonium chloride (NH4Cl) + propan-1-ol; phases: Gas, Liquid
Property: Mole fraction of propan-1-ol (Gas); method: Chromatography
Temperature, K	Mole fraction of water	Mole fraction of water	Mole fraction of propan-1-ol	uncertainty
362.82	0.379	0.446	0.554	0.018
361.55	0.724	0.518	0.482	0.02
361.6	0.603	0.509	0.491	0.02
361.67	0.556	0.498	0.502	0.02
361.85	0.523	0.489	0.511	0.02
362.05	0.487	0.476	0.524	0.02
362.39	0.428	0.457	0.543	0.019
362.95	0.322	0.424	0.576	0.017
363.29	0.259	0.39	0.61	0.016
363.95	0.192	0.347	0.653	0.014
366.25	0.09	0.217	0.783	0.009
368.44	0.033	0.105	0.895	0.004
369.89	0.008	0.03	0.97	0.001
369.43	0.015	0.044	0.956	0.002
361.37	0.893	0.613	0.387	0.016
361.39	0.888	0.544	0.456	0.019
361.32	0.708	0.564	0.436	0.018
361.62	0.556	0.498	0.502	0.02
361.9	0.446	0.473	0.527	0.019

System: water + ammonium chloride (NH4Cl) + propan-1-ol; phases: Liquid mixture 1, Liquid mixture 2
Fixed: Temperature, K = 298.15
Fixed: Pressure, kPa = 101.3
Property: Mole fraction of water (Liquid mixture 1); method: Chromatography
Property: Mole fraction of ammonium chloride (NH4Cl) (Liquid mixture 1); method: Chromatography
Property: Mole fraction of water (Liquid mixture 2); method: Chromatography
Property: Mole fraction of propan-1-ol (Liquid mixture 2); method: Chromatography
Property: Mole fraction of ammonium chloride (NH4Cl) (Liquid mixture 2); method: Chromatography
Mole fraction of propan-1-ol	Mole fraction of water	uncertainty	Mole fraction of ammonium chloride (NH4Cl)	uncertainty	Mole fraction of water	uncertainty	Mole fraction of propan-1-ol	uncertainty	Mole fraction of ammonium chloride (NH4Cl)	uncertainty
0.315	0.649	0.019	0.036	0.004	0.866	0.005	0.07		0.064	0.004
0.403	0.564	0.024	0.034	0.003	0.869	0.005	0.05		0.081	0.004
0.448	0.518	0.027	0.034	0.003	0.863	0.006	0.043		0.094	0.005
0.484	0.482	0.028	0.034	0.003	0.857	0.006	0.037		0.106	0.005
