Measured thermophysical data. Solubility of a spiroindolinonaphthoxazine photochromic dye in supercritical carbon dioxide: Experimental determination and correlation
Source: Fluid Phase Equilib., 2005, 10.1016/j.fluid.2005.09.024
Compound 1: carbon dioxide, CO2, InChI=1S/CO2/c2-1-3
Compound 2: 1,3-dihydro-3,3-dimethyl-1-isopropyl-6'-(2,3)-(dihydroindole-1-yl)spiro[2H-indole-2,3'-3H-naphtho[2,1-b][1,4]oxazine], C32H31N3O, InChI=1S/C32H31N3O/c1-21(2)35-27-16-10-8-14-25(27)31(3,4)32(35)20-33-30-24-13-7-6-12-23(24)28(19-29(30)36-32)34-18-17-22-11-5-9-15-26(22)34/h5-16,19-21H,17-18H2,1-4H3

System: carbon dioxide + 1,3-dihydro-3,3-dimethyl-1-isopropyl-6'-(2,3)-(dihydroindole-1-yl)spiro[2H-indole-2,3'-3H-naphtho[2,1-b][1,4]oxazine]; phases: Fluid (supercritical or subcritical phases), Crystal
Property: Mole fraction of 1,3-dihydro-3,3-dimethyl-1-isopropyl-6'-(2,3)-(dihydroindole-1-yl)spiro[2H-indole-2,3'-3H-naphtho[2,1-b][1,4]oxazine] (Fluid (supercritical or subcritical phases)); method: UV spectroscopy
Temperature, K	Pressure, kPa	Mole fraction of 1,3-dihydro-3,3-dimethyl-1-isopropyl-6'-(2,3)-(dihydroindole-1-yl)spiro[2H-indole-2,3'-3H-naphtho[2,1-b][1,4]oxazine]	uncertainty
308	10500	4.2e-07	4e-08
308	13000	9.1e-07	9e-08
308	15600	1.19e-06	1.2e-07
308	17200	1.4e-06	1.4e-07
308	20400	2.12e-06	2.2e-07
308	22900	2.35e-06	2.4e-07
308	24900	2.39e-06	2.5e-07
318	13600	6.8e-07	7e-08
318	15200	9.2e-07	9e-08
318	17300	1.51e-06	1.5e-07
318	19300	2.19e-06	2.2e-07
318	22200	2.96e-06	3e-07
318	24800	3.29e-06	3.4e-07
328	12700	2.2e-07	2e-08
328	15500	8.4e-07	9e-08
328	17500	1.57e-06	1.6e-07
328	20200	2.86e-06	2.9e-07
328	22600	4.26e-06	4.4e-07
328	25600	5.05e-06	5.2e-07
