Measured thermophysical data. Vapor liquid equilibria and interfacial tensions for the ternary system acetone + 2,2 -oxybis[propane] + cyclohexane and its constituent binary systems
Source: Fluid Phase Equilib., 2008, 10.1016/j.fluid.2008.06.006
Compound 1: acetone, C3H6O, InChI=1S/C3H6O/c1-3(2)4/h1-2H3, purity 99.9%
Compound 2: diisopropyl ether, C6H14O, InChI=1S/C6H14O/c1-5(2)7-6(3)4/h5-6H,1-4H3, purity 99.6%
Compound 3: cyclohexane, C6H12, InChI=1S/C6H12/c1-2-4-6-5-3-1/h1-6H2, purity 99.9%

System: acetone; phases: Liquid
Property: Refractive index (Na D-line) (Liquid); method: Standard Abbe refractometry
Temperature, K	Pressure, kPa	Refractive index (Na D-line)	uncertainty
298.15	101.325	1.35732	0.00031

System: acetone; phases: Liquid
Property: Mass density, kg/m3 (Liquid); method: VIBTUB:UFactor:2
Temperature, K	Pressure, kPa	Mass density, kg/m3	uncertainty
298.15	101.325	784.23	0.24

System: acetone; phases: Liquid, Air at 1 atmosphere
Property: Surface tension liquid-gas, N/m (Liquid); method: Ring tensiometer
Temperature, K	Surface tension liquid-gas, N/m	uncertainty
303.15	0.02245	0.00037

System: acetone; phases: Liquid, Gas
Property: Vapor or sublimation pressure, kPa (Liquid); method: Ebulliometric method (Recirculating still)
Temperature, K	Vapor or sublimation pressure, kPa	uncertainty
297.65	30.06	0.21
303.23	38.04	0.21
307.39	45.04	0.21
310.58	51.08	0.22
314.35	59.07	0.22
317.33	66.06	0.22
320.08	73.08	0.23
322.61	80.07	0.23
324.96	87.09	0.24
327.17	94.07	0.24
329.33	101.35	0.24

System: diisopropyl ether; phases: Liquid
Property: Refractive index (Na D-line) (Liquid); method: Standard Abbe refractometry
Temperature, K	Pressure, kPa	Refractive index (Na D-line)	uncertainty
298.15	101.325	1.36644	0.00032

System: diisopropyl ether; phases: Liquid
Property: Mass density, kg/m3 (Liquid); method: VIBTUB:UFactor:3
Temperature, K	Pressure, kPa	Mass density, kg/m3	uncertainty
298.15	101.325	718.34	0.45

System: diisopropyl ether; phases: Liquid, Air at 1 atmosphere
Property: Surface tension liquid-gas, N/m (Liquid); method: Ring tensiometer
Temperature, K	Surface tension liquid-gas, N/m	uncertainty
303.15	0.0167	0.00032

System: diisopropyl ether; phases: Liquid, Gas
Property: Vapor or sublimation pressure, kPa (Liquid); method: Ebulliometric method (Recirculating still)
Temperature, K	Vapor or sublimation pressure, kPa	uncertainty
293.25	16.02	0.2
302.42	24.02	0.2
307.79	30.02	0.21
313.73	38.02	0.21
318.15	45.02	0.21
321.52	51.01	0.22
325.55	59.01	0.22
328.74	66.01	0.22
331.67	73.01	0.23
334.38	80.01	0.23
336.91	87.01	0.23

System: cyclohexane; phases: Liquid
Property: Refractive index (Na D-line) (Liquid); method: Standard Abbe refractometry
Temperature, K	Pressure, kPa	Refractive index (Na D-line)	uncertainty
298.15	101.325	1.42508	0.00031

System: cyclohexane; phases: Liquid
Property: Mass density, kg/m3 (Liquid); method: VIBTUB:UFactor:2
Temperature, K	Pressure, kPa	Mass density, kg/m3	uncertainty
298.15	101.325	773.84	0.25

System: cyclohexane; phases: Liquid, Air at 1 atmosphere
Property: Surface tension liquid-gas, N/m (Liquid); method: Ring tensiometer
Temperature, K	Surface tension liquid-gas, N/m	uncertainty
303.15	0.0241	0.00038

System: cyclohexane; phases: Liquid, Gas
Property: Vapor or sublimation pressure, kPa (Liquid); method: EBULLIO:UFactor:2
Temperature, K	Vapor or sublimation pressure, kPa	uncertainty
302.71	16.01	0.18
312.45	24.02	0.19
318.13	30.03	0.24
324.4	38.02	0.28
329.08	45.03	0.32
332.63	51.01	0.36
336.88	59.01	0.4
340.25	66.01	0.44
343.34	73.02	0.47
346.22	80.03	0.51
348.89	87.02	0.54
351.4	94.02	0.58
354.06	101.9	0.6

System: acetone + diisopropyl ether; phases: Liquid, Air at 1 atmosphere
Fixed: Temperature, K = 303.15
Property: Surface tension liquid-gas, N/m (Liquid); method: Maximal bubble pressure
Mole fraction of acetone	Surface tension liquid-gas, N/m	uncertainty
0.046	0.01675	0.00025
0.089	0.0168	0.00025
0.187	0.01695	0.00025
0.29	0.0173	0.00025
0.39	0.01765	0.00025
0.499	0.01805	0.00025
0.61	0.0186	0.00025
0.722	0.0192	0.00025
0.829	0.02015	0.00025
0.93	0.0213	0.00026
0.973	0.02194	0.00026

System: acetone + diisopropyl ether; phases: Liquid, Gas
Fixed: Pressure, kPa = 94
Property: Boiling temperature at pressure P, K (Liquid); method: EBULLIO:UFactor:2
Mole fraction of acetone	Boiling temperature at pressure P, K	uncertainty
0	339.31	0.17
0.099	336.9	0.18
0.209	334.32	0.18
0.287	332.51	0.18
0.347	331.09	0.18
0.395	329.99	0.18
0.443	328.92	0.18
0.486	328.04	0.18
0.515	327.44	0.18
0.549	326.82	0.18
0.582	326.3	0.18
0.61	325.91	0.17
0.638	325.63	0.17
0.669	325.42	0.17
0.699	325.27	0.17
0.73	325.21	0.17
0.762	325.22	0.17
0.803	325.32	0.17
0.849	325.6	0.17
0.905	326.09	0.17
1	327.16	0.17

System: acetone + diisopropyl ether; phases: Gas, Liquid
Fixed: Pressure, kPa = 94
Property: Mole fraction of acetone (Gas); method: Chromatography
Mole fraction of acetone	Mole fraction of acetone	uncertainty
0	0	0.001
0.032	0.099	0.007
0.08	0.209	0.006
0.126	0.287	0.005
0.169	0.347	0.005
0.211	0.395	0.005
0.262	0.443	0.005
0.312	0.486	0.005
0.356	0.515	0.005
0.409	0.549	0.005
0.463	0.582	0.005
0.512	0.61	0.004
0.562	0.638	0.004
0.617	0.669	0.004
0.67	0.699	0.004
0.721	0.73	0.004
0.771	0.762	0.004
0.826	0.803	0.004
0.88	0.849	0.004
0.933	0.905	0.004
1	1	0.001

System: acetone + cyclohexane; phases: Liquid, Air at 1 atmosphere
Fixed: Temperature, K = 303.15
Property: Surface tension liquid-gas, N/m (Liquid); method: Maximal bubble pressure
Mole fraction of acetone	Surface tension liquid-gas, N/m	uncertainty
0.047	0.02385	0.00026
0.091	0.0236	0.00026
0.185	0.0231	0.00026
0.298	0.0227	0.00026
0.403	0.0224	0.00026
0.513	0.0222	0.00026
0.621	0.0221	0.00026
0.736	0.02205	0.00026
0.842	0.02215	0.00026
0.943	0.0224	0.00026

System: acetone + cyclohexane; phases: Liquid, Gas
Fixed: Pressure, kPa = 94
Property: Boiling temperature at pressure P, K (Liquid); method: EBULLIO:UFactor:2
Mole fraction of acetone	Boiling temperature at pressure P, K	uncertainty
0	351.37	0.17
0.199	345.05	0.19
0.349	339.48	0.19
0.474	334.38	0.2
0.539	331.43	0.2
0.58	329.52	0.2
0.614	328.01	0.2
0.634	327.05	0.2
0.65	326.4	0.2
0.664	325.85	0.19
0.678	325.39	0.19
0.688	325.05	0.18
0.699	324.8	0.18
0.712	324.57	0.18
0.725	324.38	0.17
0.741	324.28	0.17
0.762	324.28	0.17
0.79	324.33	0.17
0.83	324.65	0.17
0.887	325.36	0.17
0.938	326.11	0.18
1	327.16	0.17

System: acetone + cyclohexane; phases: Gas, Liquid
Fixed: Pressure, kPa = 94
Property: Mole fraction of acetone (Gas); method: Chromatography
Mole fraction of acetone	Mole fraction of acetone	uncertainty
0	0	0.001
0.024	0.199	0.016
0.053	0.349	0.009
0.099	0.474	0.007
0.144	0.539	0.005
0.191	0.58	0.005
0.246	0.614	0.004
0.296	0.634	0.004
0.345	0.65	0.004
0.399	0.664	0.004
0.453	0.678	0.004
0.501	0.688	0.004
0.552	0.699	0.004
0.609	0.712	0.003
0.659	0.725	0.003
0.714	0.741	0.003
0.768	0.762	0.003
0.823	0.79	0.003
0.879	0.83	0.003
0.935	0.887	0.004
0.969	0.938	0.005
1	1	0.001

System: diisopropyl ether + cyclohexane; phases: Liquid, Air at 1 atmosphere
Fixed: Temperature, K = 303.15
Property: Surface tension liquid-gas, N/m (Liquid); method: Maximal bubble pressure
Mole fraction of diisopropyl ether	Surface tension liquid-gas, N/m	uncertainty
0.049	0.0233	0.00026
0.098	0.0227	0.00026
0.199	0.0214	0.00026
0.301	0.0207	0.00026
0.403	0.01975	0.00025
0.509	0.019	0.00025
0.622	0.0183	0.00025
0.727	0.0178	0.00025
0.837	0.0173	0.00025
0.936	0.0169	0.00025
0.967	0.0168	0.00025

System: diisopropyl ether + cyclohexane; phases: Liquid, Gas
Fixed: Pressure, kPa = 94
Property: Boiling temperature at pressure P, K (Liquid); method: EBULLIO:UFactor:2
Mole fraction of diisopropyl ether	Boiling temperature at pressure P, K	uncertainty
0	351.37	0.17
0.106	349.96	0.17
0.182	348.93	0.17
0.247	348.03	0.17
0.313	347.13	0.17
0.369	346.39	0.17
0.421	345.7	0.17
0.47	345.08	0.17
0.518	344.41	0.17
0.565	343.89	0.17
0.609	343.24	0.17
0.653	342.73	0.17
0.693	342.22	0.17
0.735	341.8	0.17
0.771	341.39	0.17
0.811	340.96	0.17
0.853	340.54	0.17
0.889	340.13	0.17
0.927	339.76	0.17
0.968	339.37	0.17
1	339.31	0.17

System: diisopropyl ether + cyclohexane; phases: Gas, Liquid
Fixed: Pressure, kPa = 94
Property: Mole fraction of diisopropyl ether (Gas); method: Chromatography
Mole fraction of diisopropyl ether	Mole fraction of diisopropyl ether	uncertainty
0	0	0.001
0.065	0.106	0.004
0.119	0.182	0.004
0.169	0.247	0.004
0.223	0.313	0.005
0.272	0.369	0.005
0.321	0.421	0.005
0.37	0.47	0.005
0.419	0.518	0.005
0.468	0.565	0.005
0.518	0.609	0.005
0.569	0.653	0.004
0.616	0.693	0.004
0.666	0.735	0.004
0.711	0.771	0.004
0.76	0.811	0.004
0.813	0.853	0.003
0.859	0.889	0.003
0.907	0.927	0.003
0.959	0.968	0.003
1	1	0.001

System: acetone + diisopropyl ether + cyclohexane; phases: Liquid, Air at 1 atmosphere
Fixed: Temperature, K = 303.15
Property: Surface tension liquid-gas, N/m (Liquid); method: Maximal bubble pressure
Mole fraction of acetone	Mole fraction of diisopropyl ether	Surface tension liquid-gas, N/m	uncertainty
0.083	0.3	0.0203	0.00025
0.084	0.399	0.01964	0.00025
0.085	0.193	0.0212	0.00026
0.086	0.503	0.01895	0.00025
0.088	0.605	0.01839	0.00025
0.09	0.081	0.02227	0.00026
0.091	0.706	0.01785	0.00025
0.096	0.803	0.01737	0.00025
0.163	0.454	0.01917	0.00025
0.173	0.569	0.0185	0.00025
0.178	0.677	0.01793	0.00025
0.181	0.325	0.01996	0.00025
0.189	0.204	0.02082	0.00026
0.189	0.763	0.01749	0.00025
0.195	0.083	0.02177	0.00026
0.292	0.124	0.02118	0.00026
0.293	0.034	0.022	0.00026
0.295	0.233	0.02041	0.00026
0.302	0.355	0.01953	0.00025
0.307	0.49	0.01867	0.00025
0.319	0.624	0.01791	0.00025
0.356	0.301	0.01969	0.00025
0.365	0.315	0.0196	0.00025
0.367	0.284	0.01981	0.00025
0.374	0.131	0.02088	0.00026
0.376	0.432	0.01887	0.00025
0.401	0.578	0.01785	0.00025
0.41	0.383	0.0191	0.00025
0.496	0.301	0.01936	0.00025
0.501	0.407	0.01855	0.00025
0.502	0.1	0.02092	0.00026
0.504	0.196	0.02016	0.00025
0.54	0.215	0.01991	0.00025
0.575	0.378	0.01868	0.00025
0.601	0.101	0.02078	0.00026
0.602	0.204	0.01993	0.00025
0.603	0.307	0.01919	0.00025
0.623	0.21	0.01995	0.00025
0.706	0.093	0.02082	0.00026
0.71	0.197	0.0199	0.00025
0.795	0.128	0.0205	0.00026
0.81	0.096	0.02077	0.00026
0.825	0.078	0.021	0.00026

System: acetone + diisopropyl ether + cyclohexane; phases: Liquid, Gas
Fixed: Pressure, kPa = 94
Property: Mole fraction of diisopropyl ether (Liquid); method: Chromatography
Property: Mole fraction of diisopropyl ether (Gas); method: Chromatography
Property: Mole fraction of acetone (Gas); method: Chromatography
Temperature, K	Mole fraction of acetone	Mole fraction of diisopropyl ether	uncertainty	Mole fraction of diisopropyl ether	uncertainty	Mole fraction of acetone	uncertainty
341.89	0.035	0.093	0.003	0.113	0.003	0.234	
339.68	0.042	0.284	0.003	0.303	0.004	0.209	
338.41	0.043	0.481	0.004	0.484	0.005	0.174	
336.33	0.043	0.892	0.003	0.826	0.003	0.127	
337.02	0.044	0.685	0.003	0.651	0.004	0.154	
335.32	0.076	0.428	0.004	0.389	0.004	0.282	
335.5	0.077	0.328	0.003	0.303	0.004	0.307	
334.93	0.077	0.614	0.004	0.548	0.005	0.241	
335.18	0.077	0.521	0.004	0.469	0.005	0.259	
335.46	0.08	0.224	0.003	0.21	0.003	0.345	
334.42	0.081	0.704	0.003	0.616	0.004	0.236	
334	0.084	0.802	0.003	0.695	0.004	0.227	
335.05	0.085	0.117	0.003	0.111	0.003	0.394	
329.86	0.179	0.117	0.003	0.089	0.003	0.526	
329.93	0.183	0.211	0.003	0.159	0.003	0.497	
330.11	0.185	0.303	0.003	0.229	0.003	0.471	
330.16	0.186	0.399	0.004	0.302	0.004	0.45	
330.27	0.19	0.497	0.004	0.377	0.004	0.428	
330.33	0.193	0.598	0.004	0.458	0.005	0.408	
330.34	0.196	0.696	0.003	0.536	0.005	0.393	
327.84	0.284	0.215	0.003	0.15	0.003	0.562	
328.43	0.285	0.608	0.004	0.452	0.005	0.478	
328.04	0.287	0.317	0.003	0.224	0.003	0.539	
328.21	0.287	0.415	0.004	0.299	0.004	0.515	
328.3	0.287	0.513	0.004	0.374	0.004	0.496	
327.46	0.291	0.111	0.003	0.077	0.003	0.597	
327.01	0.384	0.503	0.004	0.369	0.004	0.551	
326.61	0.39	0.3	0.003	0.211	0.003	0.59	
326.16	0.391	0.109	0.003	0.075	0.002	0.634	
326.34	0.393	0.202	0.003	0.139	0.003	0.612	
326.72	0.396	0.392	0.004	0.283	0.003	0.575	
326	0.483	0.407	0.004	0.308	0.004	0.609	
325.76	0.483	0.309	0.003	0.228	0.003	0.622	
325.36	0.487	0.108	0.003	0.077	0.003	0.66	
325.48	0.487	0.21	0.003	0.151	0.003	0.641	
324.8	0.591	0.106	0.003	0.081	0.003	0.689	
325.02	0.593	0.204	0.003	0.159	0.003	0.677	
325.27	0.595	0.302	0.003	0.245	0.003	0.666	
324.9	0.693	0.203	0.003	0.18	0.003	0.718	
324.6	0.695	0.107	0.003	0.092	0.003	0.725	
324.76	0.799	0.104	0.003	0.105	0.003	0.778	
324.99	0.8	0.15	0.003	0.157	0.003	0.781	
324.76	0.828	0.075	0.002	0.08	0.003	0.797	
