Measured thermophysical data. Measurement and modelling of high pressure bubble- and dew-point data for the CO2 + 1-decanol + 3,7-dimethyl-1-octanol system
Source: Fluid Phase Equilib., 2019, 10.1016/j.fluid.2019.01.026
Compound 1: decan-1-ol, C10H22O, InChI=1S/C10H22O/c1-2-3-4-5-6-7-8-9-10-11/h11H,2-10H2,1H3, purity 99%
Compound 2: 3,7-dimethyl-1-octanol, C10H22O, InChI=1S/C10H22O/c1-9(2)5-4-6-10(3)7-8-11/h9-11H,4-8H2,1-3H3, purity 98%
Compound 3: carbon dioxide, CO2, InChI=1S/CO2/c2-1-3, purity 99.995%

System: decan-1-ol + 3,7-dimethyl-1-octanol + carbon dioxide; phases: Liquid, Gas
Property: Vapor or sublimation pressure, kPa (Liquid); method: Closed cell (Static) method
Temperature, K	Mass fraction of decan-1-ol	Mass fraction of 3,7-dimethyl-1-octanol	Vapor or sublimation pressure, kPa	uncertainty
308.7	0.15125	0.45375	7610	420
308.7	0.12425	0.37275	11890	250
308.7	0.103	0.309	14060	170
308.7	0.08625	0.25875	15030	150
308.7	0.07325	0.21975	15110	160
308.6	0.05725	0.17175	15200	160
318.4	0.15125	0.45375	9440	330
318.3	0.12425	0.37275	12580	210
318.4	0.103	0.309	14250	160
318.4	0.08625	0.25875	15060	160
318.4	0.07325	0.21975	15100	160
318.4	0.05725	0.17175	15260	160
328.2	0.15125	0.45375	10950	260
328.1	0.12425	0.37275	13240	210
328.2	0.103	0.309	15150	160
328.1	0.08625	0.25875	15910	150
328.1	0.07325	0.21975	15940	150
328.1	0.05725	0.17175	16150	150
337.8	0.15125	0.45375	12390	260
337.8	0.12425	0.37275	14660	220
337.8	0.103	0.309	16310	170
337.7	0.08625	0.25875	17050	150
337.7	0.07325	0.21975	17100	150
337.7	0.05725	0.17175	17300	150
347.6	0.15125	0.45375	13620	270
347.5	0.12425	0.37275	16010	210
347.7	0.103	0.309	17530	170
347.6	0.08625	0.25875	18250	150
347.5	0.07325	0.21975	18450	150
347.4	0.05725	0.17175	18510	150
357.3	0.15125	0.45375	14720	280
357.3	0.12425	0.37275	17260	200
357.4	0.103	0.309	18690	170
357.4	0.08625	0.25875	19400	160
357.3	0.07325	0.21975	19640	160
357.2	0.05725	0.17175	19680	150
308.7	0.298	0.298	9340	540
308.7	0.2495	0.2495	13890	410
308.7	0.207	0.207	18020	300
308.7	0.175	0.175	19260	280
308.7	0.133	0.133	19790	210
318.4	0.298	0.298	10450	350
318.4	0.2495	0.2495	13650	260
318.4	0.207	0.207	16520	190
318.4	0.175	0.175	17390	180
318.4	0.133	0.133	17750	170
328.1	0.298	0.298	11830	290
328.1	0.2495	0.2495	14430	220
328.1	0.207	0.207	16680	170
328.2	0.175	0.175	17430	160
328.1	0.133	0.133	17720	160
337.9	0.298	0.298	13070	250
337.8	0.2495	0.2495	15550	200
337.8	0.207	0.207	17470	160
337.8	0.175	0.175	18140	160
337.8	0.133	0.133	18420	150
347.5	0.298	0.298	14360	240
347.6	0.2495	0.2495	16730	190
347.6	0.207	0.207	18490	160
347.7	0.175	0.175	19140	160
347.5	0.133	0.133	19380	150
357.3	0.298	0.298	15420	240
357.3	0.2495	0.2495	17860	190
357.4	0.207	0.207	19520	160
357.3	0.175	0.175	20150	160
357.3	0.133	0.133	20410	160
308.8	0.43875	0.14625	9650	900
308.7	0.35925	0.11975	19720	570
308.7	0.30075	0.10025	25440	250
308.7	0.25575	0.08525	26430	260
308.9	0.21975	0.07325	26410	230
318.5	0.43875	0.14625	10410	560
318.4	0.35925	0.11975	16740	270
318.5	0.30075	0.10025	20140	290
318.4	0.25575	0.08525	20780	330
318.6	0.21975	0.07325	20830	220
328.1	0.43875	0.14625	11640	450
328.1	0.35925	0.11975	16390	260
328.1	0.30075	0.10025	18940	180
328.1	0.25575	0.08525	19450	190
328.3	0.21975	0.07325	19530	160
337.8	0.43875	0.14625	12880	390
337.8	0.35925	0.11975	16920	220
337.9	0.30075	0.10025	18840	160
337.6	0.25575	0.08525	19350	160
337.7	0.21975	0.07325	19560	160
347.7	0.43875	0.14625	14060	370
347.5	0.35925	0.11975	17790	210
347.6	0.30075	0.10025	19460	160
347.2	0.25575	0.08525	19970	160
347.6	0.21975	0.07325	20270	160
357.4	0.43875	0.14625	15120	360
357.3	0.35925	0.11975	18760	210
357.3	0.30075	0.10025	20300	160
356.9	0.25575	0.08525	20780	160
357.3	0.21975	0.07325	21110	160

System: decan-1-ol + 3,7-dimethyl-1-octanol + carbon dioxide; phases: Gas, Liquid
Property: Vapor or sublimation pressure, kPa (Gas); method: Closed cell (Static) method
Temperature, K	Mass fraction of decan-1-ol	Mass fraction of 3,7-dimethyl-1-octanol	Vapor or sublimation pressure, kPa	uncertainty
308.7	0.046	0.138	14830	160
308.7	0.03275	0.09825	13610	180
308.7	0.02125	0.06375	11120	170
308.7	0.0135	0.0405	9060	150
308.5	0.008	0.024	7860	150
308.5	0.00425	0.01275	7750	150
318.4	0.046	0.138	15000	150
318.3	0.03275	0.09825	14310	170
318.4	0.02125	0.06375	12620	160
318.3	0.0135	0.0405	11030	150
318.2	0.008	0.024	10110	150
318.5	0.00425	0.01275	9710	150
328.1	0.046	0.138	15920	150
328.1	0.03275	0.09825	15460	160
328.2	0.02125	0.06375	14130	160
328.1	0.0135	0.0405	12750	150
328.1	0.008	0.024	11930	150
328.2	0.00425	0.01275	11290	150
337.9	0.046	0.138	17120	150
337.8	0.03275	0.09825	16740	160
337.8	0.02125	0.06375	15690	160
337.8	0.0135	0.0405	14280	150
337.6	0.008	0.024	13480	150
337.8	0.00425	0.01275	12530	150
347.6	0.046	0.138	18390	150
347.6	0.03275	0.09825	18040	160
347.6	0.02125	0.06375	17010	160
347.6	0.0135	0.0405	15710	150
347.5	0.008	0.024	14610	150
347.4	0.00425	0.01275	13470	150
357.4	0.046	0.138	19560	150
357.4	0.03275	0.09825	19230	160
357.5	0.02125	0.06375	18100	160
357.4	0.0135	0.0405	16970	160
357.3	0.008	0.024	15630	160
357.3	0.00425	0.01275	14160	150
308.7	0.1085	0.1085	19470	270
308.7	0.0925	0.0925	19010	230
308.7	0.0735	0.0735	17600	240
308.7	0.058	0.058	15720	210
308.7	0.038	0.038	12500	190
308.8	0.025	0.025	9770	170
308.6	0.0155	0.0155	8260	150
308.8	0.008	0.008	7880	150
318.4	0.1085	0.1085	17530	190
318.4	0.0925	0.0925	17310	190
318.4	0.0735	0.0735	16480	190
318.4	0.058	0.058	15520	180
318.4	0.038	0.038	13450	170
318.4	0.025	0.025	11570	160
318.4	0.0155	0.0155	10170	150
318.4	0.008	0.008	9770	150
328.1	0.1085	0.1085	17560	170
328.1	0.0925	0.0925	17470	160
328.2	0.0735	0.0735	16860	170
328.1	0.058	0.058	16230	170
328.2	0.038	0.038	14560	160
328.2	0.025	0.025	13270	150
328.1	0.0155	0.0155	12070	150
328.3	0.008	0.008	11140	150
337.8	0.1085	0.1085	18290	160
337.8	0.0925	0.0925	18240	160
337.9	0.0735	0.0735	17840	160
337.8	0.058	0.058	17240	160
337.8	0.038	0.038	15910	160
337.9	0.025	0.025	14600	150
337.8	0.0155	0.0155	13550	150
337.8	0.008	0.008	12460	150
347.7	0.1085	0.1085	19300	160
347.5	0.0925	0.0925	19250	160
347.5	0.0735	0.0735	18890	160
347.6	0.058	0.058	18400	160
347.6	0.038	0.038	17210	160
347.5	0.025	0.025	15730	150
347.6	0.0155	0.0155	14370	150
347.5	0.008	0.008	13380	150
357.4	0.1085	0.1085	20320	160
357.3	0.0925	0.0925	20290	160
357.3	0.0735	0.0735	20000	160
357.3	0.058	0.058	19490	160
357.3	0.038	0.038	18310	160
357.3	0.025	0.025	16900	160
357.4	0.0155	0.0155	15540	150
357.3	0.008	0.008	14060	150
308.7	0.1725	0.0575	26490	300
308.7	0.13275	0.04425	24700	260
308.8	0.09075	0.03025	20460	360
308.8	0.06075	0.02025	15160	240
308.8	0.0375	0.0125	10660	170
308.9	0.0225	0.0075	8270	150
308.8	0.01125	0.00375	7690	150
318.4	0.1725	0.0575	20770	270
318.4	0.13275	0.04425	19960	170
318.5	0.09075	0.03025	18050	270
318.5	0.06075	0.02025	14980	200
318.5	0.0375	0.0125	12190	170
318.7	0.0225	0.0075	10540	150
318.5	0.01125	0.00375	9710	150
328.1	0.1725	0.0575	19440	180
328.1	0.13275	0.04425	19000	150
328.3	0.09075	0.03025	17680	200
328.3	0.06075	0.02025	15730	170
328.2	0.0375	0.0125	13720	160
328.5	0.0225	0.0075	12390	150
328.2	0.01125	0.00375	11430	150
337.8	0.1725	0.0575	19510	160
337.8	0.13275	0.04425	19240	150
337.8	0.09075	0.03025	18350	170
337.9	0.06075	0.02025	16970	170
337.8	0.0375	0.0125	15010	160
337.9	0.0225	0.0075	13920	150
337.8	0.01125	0.00375	12800	150
347.6	0.1725	0.0575	20180	160
347.4	0.13275	0.04425	19970	150
347.6	0.09075	0.03025	19310	170
347.7	0.06075	0.02025	18180	170
347.5	0.0375	0.0125	16310	160
347.8	0.0225	0.0075	15190	160
347.4	0.01125	0.00375	13790	150
357.3	0.1725	0.0575	21000	150
357.1	0.13275	0.04425	20850	150
357.3	0.09075	0.03025	20230	160
357.4	0.06075	0.02025	19210	170
357.2	0.0375	0.0125	17410	170
357.7	0.0225	0.0075	16250	160
357.2	0.01125	0.00375	14760	150
