Measured thermophysical data. Influence of matrix composition on the ternary solubility of cholesteryl esters in supercritical carbon dioxide
Source: Fluid Phase Equilib., 2009, 10.1016/j.fluid.2009.07.016
Compound 1: 3.beta.-benzoyloxycholest-5-ene, C34H50O2, InChI=1S/C34H50O2/c1-23(2)10-9-11-24(3)29-16-17-30-28-15-14-26-22-27(36-32(35)25-12-7-6-8-13-25)18-20-33(26,4)31(28)19-21-34(29,30)5/h6-8,12-14,23-24,27-31H,9-11,15-22H2,1-5H3/t24-,27+,28+,29-,30+,31+,33+,34-/m1/s1
Compound 2: 3.beta.-butanoyloxycholest-5-ene, C31H52O2, InChI=1S/C31H52O2/c1-7-9-29(32)33-24-16-18-30(5)23(20-24)12-13-25-27-15-14-26(22(4)11-8-10-21(2)3)31(27,6)19-17-28(25)30/h12,21-22,24-28H,7-11,13-20H2,1-6H3/t22-,24+,25+,26-,27+,28+,30+,31-/m1/s1
Compound 3: carbon dioxide, CO2, InChI=1S/CO2/c2-1-3, purity 99.9%

System: carbon dioxide + 3.beta.-butanoyloxycholest-5-ene + 3.beta.-benzoyloxycholest-5-ene; phases: Fluid (supercritical or subcritical phases), Crystal, Crystal
Fixed: Temperature, K = 318.15
Property: Mole fraction of 3.beta.-butanoyloxycholest-5-ene (Fluid (supercritical or subcritical phases)); method: Chromatography
Pressure, kPa	Mole fraction of 3.beta.-butanoyloxycholest-5-ene	uncertainty
16000	0.000133	2e-06
18000	0.00018	3e-06
21000	0.000234	3e-06
24000	0.000312	4e-06

System: carbon dioxide + 3.beta.-butanoyloxycholest-5-ene + 3.beta.-benzoyloxycholest-5-ene; phases: Fluid (supercritical or subcritical phases), Crystal, Crystal
Fixed: Temperature, K = 318.15
Property: Mole fraction of 3.beta.-benzoyloxycholest-5-ene (Fluid (supercritical or subcritical phases)); method: Chromatography
Pressure, kPa	Mole fraction of 3.beta.-benzoyloxycholest-5-ene	uncertainty
16000	1.32e-05	2e-07
18000	1.72e-05	3e-07
21000	2.22e-05	3e-07
24000	3.02e-05	4e-07

System: carbon dioxide + 3.beta.-butanoyloxycholest-5-ene + 3.beta.-benzoyloxycholest-5-ene; phases: Fluid (supercritical or subcritical phases), Crystal
Fixed: Temperature, K = 318.15
Property: Mole fraction of 3.beta.-butanoyloxycholest-5-ene (Fluid (supercritical or subcritical phases)); method: Chromatography
Mass fraction of 3.beta.-butanoyloxycholest-5-ene	Pressure, kPa	Mole fraction of 3.beta.-butanoyloxycholest-5-ene	uncertainty
0.25	16000	0.000149	6e-06
0.25	18000	0.000193	1.4e-05
0.25	21000	0.000243	2.2e-05
0.25	24000	0.000313	2.8e-05
0.33	16000	0.000132	8e-06
0.33	18000	0.000172	1e-05
0.33	21000	0.000224	1.2e-05
0.33	24000	0.000282	2.8e-05
0.4	16000	0.000143	1e-05
0.4	18000	0.000189	6e-06
0.4	21000	0.000231	1.4e-05
0.4	24000	0.000319	2e-05
0.5	16000	0.000136	1e-05
0.5	18000	0.000178	1.4e-05
0.5	21000	0.000227	1.6e-05
0.5	24000	0.000322	2.2e-05
0.6	16000	0.000302	1.6e-05
0.6	18000	0.000387	1.3e-05
0.6	21000	0.000516	2.5e-05
0.6	24000	0.000732	3.5e-05
0.67	16000	0.000285	1e-05
0.67	18000	0.000379	2e-05
0.67	21000	0.000514	1.9e-05
0.67	24000	0.00071	4.3e-05
0.75	16000	0.000308	1.4e-05
0.75	18000	0.000397	1.3e-05
0.75	21000	0.000521	2.5e-05
0.75	24000	0.000696	3.1e-05

System: carbon dioxide + 3.beta.-butanoyloxycholest-5-ene + 3.beta.-benzoyloxycholest-5-ene; phases: Fluid (supercritical or subcritical phases), Crystal
Fixed: Temperature, K = 318.15
Property: Mole fraction of 3.beta.-benzoyloxycholest-5-ene (Fluid (supercritical or subcritical phases)); method: Chromatography
Mass fraction of 3.beta.-butanoyloxycholest-5-ene	Pressure, kPa	Mole fraction of 3.beta.-benzoyloxycholest-5-ene	uncertainty
0.25	16000	1.21e-05	6e-07
0.25	18000	1.59e-05	1.4e-06
0.25	21000	2e-05	2e-06
0.25	24000	2.85e-05	2.6e-06
0.33	16000	1.19e-05	6e-07
0.33	18000	1.57e-05	2e-06
0.33	21000	2.21e-05	1.4e-06
0.33	24000	2.98e-05	2.6e-06
0.4	16000	1.2e-05	8e-07
0.4	18000	1.55e-05	6e-07
0.4	21000	1.87e-05	1.4e-06
0.4	24000	2.41e-05	2.4e-06
0.5	16000	1.33e-05	1.4e-06
0.5	18000	1.68e-05	1.2e-06
0.5	21000	2.24e-05	6e-07
0.5	24000	2.93e-05	1.8e-06
0.6	16000	6.6e-06	4e-07
0.6	18000	8e-06	1e-06
0.6	21000	1.17e-05	8e-07
0.6	24000	2.08e-05	2.2e-06
0.67	16000	6.7e-06	6e-07
0.67	18000	8.7e-06	4e-07
0.67	21000	1.32e-05	1.6e-06
0.67	24000	2.12e-05	1.4e-06
0.75	16000	7.4e-06	6e-07
0.75	18000	9.1e-06	1e-06
0.75	21000	1.24e-05	8e-07
0.75	24000	2.02e-05	1.2e-06
