Measured thermophysical data. Liquid-liquid equilibrium in binary and ternary mixtures containing formaldehyde, water, methanol, methylal, and poly(oxymethylene) dimethyl ethers
Source: Fluid Phase Equilib., 2016, 10.1016/j.fluid.2016.05.017
Compound 1: methanol, CH4O, InChI=1S/CH4O/c1-2/h2H,1H3, purity 99.9%
Compound 2: dimethoxymethane, C3H8O2, InChI=1S/C3H8O2/c1-4-3-5-2/h3H2,1-2H3, purity 99%
Compound 3: 2,4,6-trioxaheptane, C4H10O3, InChI=1S/C4H10O3/c1-5-3-7-4-6-2/h3-4H2,1-2H3, purity 98.5%
Compound 4: 2,4,6,8-tetraoxanonane, C5H12O4, InChI=1S/C5H12O4/c1-6-3-8-5-9-4-7-2/h3-5H2,1-2H3, purity 98.5%
Compound 5: 2,4,6,8,10-pentaoxaundecane, C6H14O5, InChI=1S/C6H14O5/c1-7-3-9-5-11-6-10-4-8-2/h3-6H2,1-2H3, purity 98.5%
Compound 6: methanal, CH2O, InChI=1S/CH2O/c1-2/h1H2, purity 95%
Compound 7: water, H2O, InChI=1S/H2O/h1H2, purity 99.8%

System: dimethoxymethane + water; phases: Liquid mixture 1, Liquid mixture 2
Fixed: Pressure, kPa = 101
Property: Mass fraction of dimethoxymethane (Liquid mixture 1); method: Chromatography
Temperature, K	Mass fraction of dimethoxymethane	uncertainty
293.25	0.9517	0.0381
303.25	0.9507	0.038
301.35	0.9519	0.0381

System: dimethoxymethane + water; phases: Liquid mixture 2, Liquid mixture 1
Fixed: Pressure, kPa = 101
Property: Mass fraction of dimethoxymethane (Liquid mixture 2); method: Chromatography
Temperature, K	Mass fraction of dimethoxymethane	uncertainty
293.25	0.3046	0.0124
303.25	0.2952	0.0121
301.35	0.3205	0.0131

System: 2,4,6-trioxaheptane + water; phases: Liquid mixture 1, Liquid mixture 2
Fixed: Pressure, kPa = 101
Property: Mass fraction of 2,4,6-trioxaheptane (Liquid mixture 1); method: Chromatography
Temperature, K	Mass fraction of 2,4,6-trioxaheptane	uncertainty
280.25	0.9696	0.0304
293.75	0.9568	0.0383
302.65	0.9536	0.0381
310.55	0.9469	0.0379
320.95	0.9429	0.0377
329.85	0.9376	0.0375
340	0.9259	0.037
301.35	0.9565	0.0383

System: 2,4,6-trioxaheptane + water; phases: Liquid mixture 2, Liquid mixture 1
Fixed: Pressure, kPa = 101
Property: Mass fraction of 2,4,6-trioxaheptane (Liquid mixture 2); method: Chromatography
Temperature, K	Mass fraction of 2,4,6-trioxaheptane	uncertainty
280.25	0.3192	0.013
293.75	0.3193	0.013
302.65	0.3157	0.0128
310.55	0.3158	0.0128
320.95	0.3185	0.0129
329.85	0.3276	0.0133
340	0.3494	0.0142
301.35	0.3164	0.0129

System: water + 2,4,6,8-tetraoxanonane; phases: Liquid mixture 1, Liquid mixture 2
Fixed: Pressure, kPa = 101
Property: Mass fraction of 2,4,6,8-tetraoxanonane (Liquid mixture 1); method: Chromatography
Temperature, K	Mass fraction of 2,4,6,8-tetraoxanonane	uncertainty
280.25	0.2901	0.0118
293.5	0.2856	0.0116
302.75	0.2865	0.0116
310.55	0.9447	0.0379
320.95	0.9433	0.0377
329.85	0.9369	0.0375
301.35	0.2891	0.0117

System: water + 2,4,6,8-tetraoxanonane; phases: Liquid mixture 2, Liquid mixture 1
Fixed: Pressure, kPa = 101
Property: Mass fraction of 2,4,6,8-tetraoxanonane (Liquid mixture 2); method: Chromatography
Temperature, K	Mass fraction of 2,4,6,8-tetraoxanonane	uncertainty
280.25	0.9674	0.0326
293.5	0.9567	0.0383
302.75	0.9504	0.038
310.55	0.2874	0.0122
320.95	0.291	0.0118
329.85	0.3038	0.0123
301.35	0.9543	0.0382

System: water + 2,4,6,8,10-pentaoxaundecane; phases: Liquid mixture 1, Liquid mixture 2
Fixed: Pressure, kPa = 101
Property: Mass fraction of 2,4,6,8,10-pentaoxaundecane (Liquid mixture 1); method: Chromatography
Temperature, K	Mass fraction of 2,4,6,8,10-pentaoxaundecane	uncertainty
280.25	0.2555	0.0104
293.75	0.2543	0.0103
302.1	0.2552	0.0104
310.55	0.257	0.0104
320.95	0.2598	0.0106
329.85	0.2662	0.0108
301.35	0.2524	0.0103

System: water + 2,4,6,8,10-pentaoxaundecane; phases: Liquid mixture 2, Liquid mixture 1
Fixed: Pressure, kPa = 101
Property: Mass fraction of 2,4,6,8,10-pentaoxaundecane (Liquid mixture 2); method: Chromatography
Temperature, K	Mass fraction of 2,4,6,8,10-pentaoxaundecane	uncertainty
280.25	0.9573	0.0383
293.75	0.9449	0.0378
302.1	0.9389	0.0376
310.55	0.9281	0.0371
320.95	0.9166	0.0367
329.85	0.8997	0.036
301.35	0.941	0.0376

System: methanol + 2,4,6-trioxaheptane + water; phases: Liquid mixture 2, Liquid mixture 1
Fixed: Pressure, kPa = 101
Property: Mass fraction of methanol (Liquid mixture 2); method: Chromatography
Property: Mass fraction of methanol (Liquid mixture 1); method: Chromatography
Property: Mass fraction of 2,4,6-trioxaheptane (Liquid mixture 1); method: Chromatography
Temperature, K	Mass fraction of 2,4,6-trioxaheptane	Mass fraction of methanol	uncertainty	Mass fraction of methanol	uncertainty	Mass fraction of 2,4,6-trioxaheptane	uncertainty
293.95	0.3305	0.0241	0.001	0.006	0.0002	0.9466	
293.95	0.363	0.0577	0.0023	0.0171	0.0007	0.9208	
321.35	0.3517	0.0245	0.0054	0.0077	0.0075	0.9346	
321.35	0.4252	0.0523	0.0068	0.0262	0.0068	0.8419	

System: methanol + water + 2,4,6,8-tetraoxanonane; phases: Liquid mixture 2, Liquid mixture 1
Fixed: Pressure, kPa = 101
Property: Mass fraction of methanol (Liquid mixture 2); method: Chromatography
Property: Mass fraction of methanol (Liquid mixture 1); method: Chromatography
Property: Mass fraction of 2,4,6,8-tetraoxanonane (Liquid mixture 1); method: Chromatography
Temperature, K	Mass fraction of 2,4,6,8-tetraoxanonane	Mass fraction of methanol	uncertainty	Mass fraction of methanol	uncertainty	Mass fraction of 2,4,6,8-tetraoxanonane	uncertainty
293.75	0.951	0.0055	0.0002	0.0267	0.0011	0.295	
293.75	0.9352	0.0147	0.0006	0.0632	0.0199	0.3186	
320.05	0.3206	0.0256	0.001	0.0079	0.0031	0.9269	
320.05	0.869	0.0225	0.0009	0.053	0.0025	0.3786	

System: methanal + 2,4,6-trioxaheptane + water; phases: Liquid mixture 2, Liquid mixture 1
Fixed: Pressure, kPa = 101
Property: Mass fraction of 2,4,6-trioxaheptane (Liquid mixture 2); method: Chromatography
Property: Mass fraction of methanal (Liquid mixture 1); method: Chromatography
Property: Mass fraction of 2,4,6-trioxaheptane (Liquid mixture 1); method: Chromatography
Temperature, K	Mass fraction of methanal	Mass fraction of 2,4,6-trioxaheptane	uncertainty	Mass fraction of methanal	uncertainty	Mass fraction of 2,4,6-trioxaheptane	uncertainty
293.15	0.0847	0.3175	0.013	0.0087	0.0004	0.9437	
293.15	0.1972	0.3834	0.0156	0.0473	0.0019	0.879	
322.25	0.0835	0.3333	0.0136	0.0107	0.0107	0.9224	
322.25	0.1599	0.3596	0.0148	0.0289	0.0289	0.9158	

System: methanal + water + 2,4,6,8-tetraoxanonane; phases: Liquid mixture 2, Liquid mixture 1
Fixed: Temperature, K = 293.15
Fixed: Pressure, kPa = 101
Property: Mass fraction of 2,4,6,8-tetraoxanonane (Liquid mixture 2); method: Chromatography
Property: Mass fraction of methanal (Liquid mixture 1); method: Chromatography
Property: Mass fraction of 2,4,6,8-tetraoxanonane (Liquid mixture 1); method: Chromatography
Mass fraction of methanal	Mass fraction of 2,4,6,8-tetraoxanonane	uncertainty	Mass fraction of methanal	uncertainty	Mass fraction of 2,4,6,8-tetraoxanonane	uncertainty
0.09	0.2762	0.0112	0.0075	0.0003	0.9497	
0.2294	0.3558	0.0145	0.0462	0.0019	0.8909	

System: dimethoxymethane + 2,4,6-trioxaheptane + water; phases: Liquid mixture 2, Liquid mixture 1
Fixed: Pressure, kPa = 101
Property: Mass fraction of 2,4,6-trioxaheptane (Liquid mixture 2); method: Chromatography
Property: Mass fraction of 2,4,6-trioxaheptane (Liquid mixture 1); method: Chromatography
Property: Mass fraction of dimethoxymethane (Liquid mixture 1); method: Chromatography
Temperature, K	Mass fraction of dimethoxymethane	Mass fraction of 2,4,6-trioxaheptane	uncertainty	Mass fraction of 2,4,6-trioxaheptane	uncertainty	Mass fraction of dimethoxymethane	uncertainty
301.35	0.2422	0.0342	0.0014	0.1423	0.0058	0.8115	
301.35	0.164	0.1668	0.0103	0.5257	0.028	0.4445	
301.35	0.1018	0.1962	0.0087	0.6847	0.0296	0.279	
301.35	0.067	0.2556	0.0104	0.818	0.0327	0.1469	
301.6	0.2237	0.0817	0.0033	0.291	0.0118	0.6655	
301.6	0.2014	0.1004	0.0094	0.3557	0.0272	0.5855	
301.6	0.1886	0.1195	0.0049	0.4082	0.0166	0.5506	
