Measured thermophysical data. Experimental isobaric vapor-liquid equilibrium at sub-atmospheric and local atmospheric pressures, volumetric properties and molar refractivity from 293.15 to 313.15 K of water + triethylene glycol.
Source: Fluid Phase Equilib., 2015, 10.1016/j.fluid.2015.07.030
Compound 1: triethylene glycol, C6H14O4, InChI=1S/C6H14O4/c7-1-3-9-5-6-10-4-2-8/h7-8H,1-6H2, purity 99.5%
Compound 2: water, H2O, InChI=1S/H2O/h1H2, purity 99.8%

System: triethylene glycol; phases: Liquid
Fixed: Pressure, kPa = 95.99
Property: Mass density, kg/m3 (Liquid); method: Vibrating tube method
Temperature, K	Mass density, kg/m3	uncertainty
293.15	1123.12	0.25
298.15	1119.01	0.25
303.15	1114.79	0.25
308.15	1110.81	0.25
313.15	1106.7	0.25

System: triethylene glycol; phases: Liquid, Gas
Property: Vapor or sublimation pressure, kPa (Liquid); method: Ebulliometric method (Recirculating still)
Temperature, K	Vapor or sublimation pressure, kPa	uncertainty
535.65	53.33	0.47997
543.87	66.66	0.6666
551.33	79.99	0.7999
559.01	95.99	1.007895

System: triethylene glycol; phases: Liquid
Fixed: Pressure, kPa = 95.99
Fixed: Wavelength, nm = 404.7
Property: Refractive index (other wavelength) (Liquid); method: Standard Abbe refractometry
Temperature, K	Refractive index (other wavelength)	uncertainty
293.15	1.46928	0.00033
298.15	1.46749	0.00033
303.15	1.4657	0.00033
308.15	1.46397	0.00033
313.15	1.46216	0.00033
293.15	1.46569	0.00033
298.15	1.4639	0.00033
303.15	1.46213	0.00033
308.15	1.46043	0.00033
313.15	1.45863	0.00033
293.15	1.46151	0.00033
298.15	1.45975	0.00033
303.15	1.45796	0.00033
308.15	1.45629	0.00033
313.15	1.45448	0.00033
293.15	1.45803	0.00033
298.15	1.45629	0.00033
303.15	1.45455	0.00033
308.15	1.45285	0.00033
313.15	1.45106	0.00033
293.15	1.45619	0.00033
298.15	1.45447	0.00033
303.15	1.45273	0.00033
308.15	1.45106	0.00033
313.15	1.44927	0.00033
293.15	1.45612	0.00033
298.15	1.4544	0.00033
303.15	1.45267	0.00033
308.15	1.45099	0.00033
313.15	1.4492	0.00033
293.15	1.45455	0.00033
298.15	1.45284	0.00033
303.15	1.4511	0.00033
308.15	1.44945	0.00033
313.15	1.44766	0.00033
293.15	1.4542	0.00033
298.15	1.45249	0.00033
303.15	1.45075	0.00033
308.15	1.44909	0.00033
313.15	1.44731	0.00033
293.15	1.45248	0.00033
298.15	1.45075	0.00033
303.15	1.44903	0.00033
308.15	1.44737	0.00033
313.15	1.44561	0.00033

System: water; phases: Liquid
Fixed: Pressure, kPa = 95.99
Property: Mass density, kg/m3 (Liquid); method: Vibrating tube method
Temperature, K	Mass density, kg/m3	uncertainty
293.15	998.27	0.2
298.15	997.03	0.21
303.15	995.59	0.21
308.15	994.02	0.21
313.15	992.2	0.21

System: water; phases: Liquid, Gas
Property: Vapor or sublimation pressure, kPa (Liquid); method: Ebulliometric method (Recirculating still)
Temperature, K	Vapor or sublimation pressure, kPa	uncertainty
356.16	53.33	0.37331
361.89	66.66	0.49995
366.73	79.99	0.599925
371.71	95.99	0.76792

System: water; phases: Liquid
Fixed: Pressure, kPa = 95.99
Fixed: Wavelength, nm = 404.7
Property: Refractive index (other wavelength) (Liquid); method: Standard Abbe refractometry
Temperature, K	Refractive index (other wavelength)	uncertainty
293.15	1.34287	0.00031
298.15	1.34223	0.00031
303.15	1.3416	0.00031
308.15	1.34092	0.00031
313.15	1.3402	0.00031
293.15	1.34033	0.00031
298.15	1.33969	0.00031
303.15	1.33908	0.00031
308.15	1.33843	0.00031
313.15	1.3377	0.00031
293.15	1.33728	0.00031
298.15	1.33606	0.00031
303.15	1.33606	0.00031
308.15	1.33538	0.00031
313.15	1.33466	0.00031
293.15	1.3447	0.00038
298.15	1.33405	0.00033
303.15	1.33344	0.00031
308.15	1.33278	0.00031
313.15	1.33207	0.00031
293.15	1.33325	0.00031
298.15	1.33262	0.00031
303.15	1.33203	0.00031
308.15	1.33136	0.00031
313.15	1.33066	0.00031
293.15	1.332	0.00031
298.15	1.33257	0.00031
303.15	1.33198	0.00031
308.15	1.33131	0.00031
313.15	1.33061	0.00031
293.15	1.33194	0.00031
298.15	1.33132	0.00031
303.15	1.33074	0.00031
308.15	1.33007	0.00031
313.15	1.32937	0.00031
293.15	1.33164	0.00031
298.15	1.33103	0.00031
303.15	1.33045	0.00031
308.15	1.32979	0.00031
313.15	1.32908	0.00031
293.15	1.33018	0.00031
298.15	1.32956	0.00031
303.15	1.32898	0.00031
308.15	1.32834	0.00031
313.15	1.32764	0.00031

System: triethylene glycol + water; phases: Liquid, Gas
Property: Boiling temperature at pressure P, K (Liquid); method: Ebulliometric method (Recirculating still)
Mole fraction of water	Pressure, kPa	Boiling temperature at pressure P, K	uncertainty
0	53.33	535.65	0.18
0.05	53.33	511.31	0.18
0.099	53.33	483.53	0.18
0.151	53.33	458.13	0.19
0.2001	53.33	438.38	0.17
0.3003	53.33	411.96	0.14
0.4011	53.33	394.65	0.15
0.5002	53.33	382.73	0.15
0.5998	53.33	374.11	0.15
0.7529	53.33	365.05	0.15
0.8009	53.33	362.77	0.15
0.8594	53.33	360.39	0.15
0.8959	53.33	359.01	0.14
0.9541	53.33	357.46	0.15
1	53.33	356.16	0.14
0	66.66	543.87	0.2
0.05	66.66	518.45	0.23
0.099	66.66	492.68	0.18
0.151	66.66	468.13	0.15
0.2001	66.66	448.55	0.15
0.3003	66.66	420.75	0.14
0.4011	66.66	402.78	0.14
0.5002	66.66	390.23	0.14
0.5998	66.66	381.06	0.14
0.7529	66.66	371.35	0.15
0.8009	66.66	368.9	0.15
0.8594	66.66	366.36	0.15
0.8959	66.66	364.88	0.15
0.9541	66.66	363.25	0.15
1	66.66	361.89	0.15
0	79.99	551.33	0.2
0.05	79.99	529.77	0.3
0.099	79.99	497.35	0.24
0.151	79.99	468.35	0.17
0.2001	79.99	449	0.14
0.3003	79.99	421.06	0.12
0.4011	79.99	403.47	0.12
0.5002	79.99	391.45	0.13
0.5998	79.99	383.63	0.14
0.7529	79.99	375.38	0.15
0.8009	79.99	373.25	0.15
0.8594	79.99	370.99	0.15
0.8959	79.99	369.63	0.15
0.9541	79.99	368.09	0.15
1	79.99	366.73	0.15
0	95.99	559.01	0.21
0.05	95.99	542.62	0.21
0.099	95.99	511.26	0.39
0.151	95.99	479.86	0.36
0.2001	95.99	456.67	0.3
0.3003	95.99	426.62	0.26
0.4011	95.99	408.98	0.21
0.5002	95.99	397.4	0.2
0.5998	95.99	389.25	0.19
0.7529	95.99	380.7	0.17
0.8009	95.99	378.5	0.16
0.8594	95.99	376.16	0.16
0.8959	95.99	374.75	0.16
0.9541	95.99	373.16	0.16
1	95.99	371.71	0.16

System: triethylene glycol + water; phases: Gas, Liquid
Property: Mole fraction of water (Gas); method: Chromatography
Mole fraction of water	Pressure, kPa	Mole fraction of water	uncertainty
0	53.33	0	
0.05	53.33	0.50849	0.10009
0.099	53.33	0.82466	0.10001
0.151	53.33	0.93368	0.06632
0.2001	53.33	0.96648	0.03352
0.3003	53.33	0.99587	0.00413
0.4011	53.33	0.99766	0.00234
0.5002	53.33	0.9981	0.0019
0.5998	53.33	0.99894	0.00106
0.7529	53.33	0.99947	0.00053
0.8009	53.33	0.99972	0.00028
0.8594	53.33	0.99988	0.00012
0.8959	53.33	0.99996	4e-05
0.9541	53.33	0.99999	1e-05
1	53.33	1	
0	66.66	0	
0.05	66.66	0.49779	0.1001
0.099	66.66	0.82001	0.10001
0.151	66.66	0.94186	0.05814
0.2001	66.66	0.98361	0.01639
0.3003	66.66	0.99499	0.00501
0.4011	66.66	0.99719	0.00281
0.5002	66.66	0.99784	0.00216
0.5998	66.66	0.9986	0.0014
0.7529	66.66	0.99925	0.00075
0.8009	66.66	0.99952	0.00048
0.8594	66.66	0.99973	0.00027
0.8959	66.66	0.99986	0.00014
0.9541	66.66	0.99999	1e-05
1	66.66	1	
0	79.99	0	
0.05	79.99	0.4583	0.10008
0.099	79.99	0.81078	0.10001
0.151	79.99	0.93812	0.06188
0.2001	79.99	0.98114	0.01886
0.3003	79.99	0.99211	0.00789
0.4011	79.99	0.99585	0.00415
0.5002	79.99	0.99664	0.00336
0.5998	79.99	0.99786	0.00214
0.7529	79.99	0.99883	0.00117
0.8009	79.99	0.99923	0.00077
0.8594	79.99	0.99952	0.00048
0.8959	79.99	0.99959	0.00041
0.9541	79.99	0.99998	2e-05
1	79.99	1	
0	95.99	0	
0.05	95.99	0.39346	0.10006
0.099	95.99	0.7725	0.10002
0.151	95.99	0.91325	0.08675
0.2001	95.99	0.96185	0.03815
0.3003	95.99	0.97908	0.02092
0.4011	95.99	0.98601	0.01399
0.5002	95.99	0.99017	0.00983
0.5998	95.99	0.99395	0.00605
0.7529	95.99	0.99759	0.00241
0.8009	95.99	0.99835	0.00165
0.8594	95.99	0.9991	0.0009
0.8959	95.99	0.9991	0.0009
0.9541	95.99	0.99964	0.00036
1	95.99	1	

System: triethylene glycol + water; phases: Liquid
Fixed: Pressure, kPa = 95.99
Property: Mass density, kg/m3 (Liquid); method: Vibrating tube method
Temperature, K	Mole fraction of water	Mass density, kg/m3	uncertainty
293.15	0	1123.12	0.25
293.15	0.1056	1122.61	0.25
293.15	0.2069	1121.88	0.25
293.15	0.3103	1120.77	0.24
293.15	0.4843	1118.69	0.24
293.15	0.5016	1118.43	0.24
293.15	0.5952	1116.29	0.24
293.15	0.6015	1116.07	0.24
293.15	0.6787	1112.29	0.23
293.15	0.7835	1102.7	0.22
293.15	0.8183	1096.95	0.23
293.15	0.8472	1090.49	0.23
293.15	0.8719	1083.52	0.22
293.15	0.8925	1076.28	0.22
293.15	0.9106	1068.64	0.22
293.15	0.9254	1061.24	0.22
293.15	0.9303	1058.23	0.22
293.15	0.939	1053.42	0.22
293.15	0.951	1045.41	0.21
293.15	0.9599	1037.69	0.21
293.15	0.9707	1029.87	0.21
293.15	0.979	1021.78	0.21
293.15	0.9866	1013.57	0.21
293.15	0.9936	1005.7	0.21
293.15	1	998.27	0.2
303.15	0	1114.79	0.25
303.15	0.1056	1114.09	0.25
303.15	0.2069	1113.37	0.24
303.15	0.3103	1112.38	0.24
303.15	0.4843	1110.18	0.24
303.15	0.5016	1109.85	0.24
303.15	0.5952	1107.57	0.24
303.15	0.6015	1107.35	0.24
303.15	0.6787	1103.97	0.23
303.15	0.7835	1094.74	0.23
303.15	0.8183	1089.46	0.23
303.15	0.8472	1083.32	0.23
303.15	0.8719	1076.78	0.23
303.15	0.8925	1069.94	0.23
303.15	0.9106	1062.7	0.22
303.15	0.9254	1055.66	0.22
303.15	0.9303	1052.47	0.22
303.15	0.939	1048.08	0.22
303.15	0.951	1040.42	0.22
303.15	0.9599	1034.04	0.22
303.15	0.9707	1025.28	0.21
303.15	0.979	1017.72	0.21
303.15	0.9866	1009.56	0.21
303.15	0.9936	1001.99	0.21
303.15	1	995.59	0.21
298.15	0	1119.01	0.25
298.15	0.1056	1118.31	0.25
298.15	0.2069	1117.53	0.25
298.15	0.3103	1116.52	0.24
298.15	0.4843	1114.57	0.24
298.15	0.5016	1114.12	0.24
298.15	0.5952	1111.83	0.24
298.15	0.6015	1111.61	0.24
298.15	0.6787	1107.99	0.23
298.15	0.7835	1098.52	0.23
298.15	0.8183	1092.99	0.23
298.15	0.8472	1086.81	0.23
298.15	0.8719	1080.07	0.23
298.15	0.8925	1073.04	0.22
298.15	0.9106	1065.62	0.22
298.15	0.9254	1058.41	0.22
298.15	0.9303	1055.05	0.22
298.15	0.939	1050.36	0.22
298.15	0.951	1042.85	0.22
298.15	0.9599	1036.35	0.21
298.15	0.9707	1027.7	0.21
298.15	0.979	1019.75	0.21
298.15	0.9866	1011.61	0.21
298.15	0.9936	1003.82	0.21
298.15	1	997.03	0.21
308.15	0	1110.81	0.25
308.15	0.1056	1109.99	0.25
308.15	0.2069	1109.16	0.24
308.15	0.3103	1108.31	0.24
308.15	0.4843	1106.08	0.24
308.15	0.5016	1105.68	0.24
308.15	0.5952	1103.19	0.23
308.15	0.6015	1102.97	0.23
308.15	0.6787	1099.53	0.23
308.15	0.7835	1090.2	0.23
308.15	0.8183	1084.98	0.23
308.15	0.8472	1078.84	0.23
308.15	0.8719	1072.37	0.22
308.15	0.8925	1065.64	0.22
308.15	0.9106	1058.54	0.22
308.15	0.9254	1051.66	0.22
308.15	0.9303	1049.13	0.22
308.15	0.939	1044.27	0.22
308.15	0.951	1036.82	0.21
308.15	0.9599	1030.61	0.21
308.15	0.9707	1022.68	0.21
308.15	0.979	1014.8	0.21
308.15	0.9866	1007.37	0.21
308.15	0.9936	999.97	0.21
308.15	1	994.02	0.21
313.15	0	1106.7	0.3
313.15	0.1056	1105.84	0.24
313.15	0.2069	1105.25	0.24
313.15	0.3103	1104.34	0.24
313.15	0.4843	1101.98	0.24
313.15	0.5016	1101.69	0.23
313.15	0.5952	1099.18	0.23
313.15	0.6015	1098.96	0.23
313.15	0.6787	1095.62	0.24
313.15	0.7835	1086.93	0.23
313.15	0.8183	1081.89	0.23
313.15	0.8472	1076.08	0.22
313.15	0.8719	1069.93	0.22
313.15	0.8925	1063.47	0.22
313.15	0.9106	1056.6	0.22
313.15	0.9254	1049.89	0.21
313.15	0.9303	1047.41	0.21
313.15	0.939	1042.63	0.21
313.15	0.951	1035.27	0.21
313.15	0.9599	1029.11	0.21
313.15	0.9707	1019.99	0.21
313.15	0.979	1013.28	0.21
313.15	0.9866	1005.16	0.21
313.15	0.9936	997.49	0.21
313.15	1	992.2	0.21

System: triethylene glycol + water; phases: Liquid
Fixed: Pressure, kPa = 95.99
Fixed: Wavelength, nm = 404.7
Property: Refractive index (other wavelength) (Liquid); method: Standard Abbe refractometry
Temperature, K	Mole fraction of water	Refractive index (other wavelength)	uncertainty
293.15	0	1.46928	0.00033
293.15	0.1056	1.46776	0.00033
293.15	0.2069	1.46585	0.00032
293.15	0.3104	1.46244	0.00032
293.15	0.4844	1.45861	0.00032
293.15	0.5016	1.45756	0.00032
293.15	0.5952	1.45069	0.00032
293.15	0.6016	1.45072	0.00032
293.15	0.6788	1.44395	0.00032
293.15	0.7835	1.4342	0.00032
293.15	0.8184	1.42884	0.00032
293.15	0.8473	1.42267	0.00032
293.15	0.8719	1.41529	0.00032
293.15	0.8926	1.40703	0.00032
293.15	0.9106	1.40148	0.00032
293.15	0.9254	1.39081	0.00032
293.15	0.9303	1.39206	0.00031
293.15	0.9391	1.38808	0.00031
293.15	0.951	1.38101	0.00031
293.15	0.9599	1.37477	0.00031
293.15	0.9708	1.36673	0.00031
293.15	0.979	1.36151	0.00031
293.15	0.9867	1.35527	0.00031
293.15	0.9936	1.34883	0.00031
293.15	1	1.34287	0.00031
298.15	0	1.46749	0.00033
298.15	0.1056	1.46604	0.00033
298.15	0.2069	1.46428	0.00032
298.15	0.3104	1.46096	0.00032
298.15	0.4844	1.45699	0.00032
298.15	0.5016	1.45596	0.00032
298.15	0.5952	1.44911	0.00032
298.15	0.6016	1.44913	0.00032
298.15	0.6788	1.44244	0.00032
298.15	0.7835	1.43274	0.00032
298.15	0.8184	1.42742	0.00032
298.15	0.8473	1.42101	0.00032
298.15	0.8719	1.41326	0.00032
298.15	0.8926	1.40601	0.00032
298.15	0.9106	1.40032	0.00032
298.15	0.9254	1.38959	0.00032
298.15	0.9303	1.39111	0.00031
298.15	0.9391	1.38696	0.00032
298.15	0.951	1.38004	0.00031
298.15	0.9599	1.374	0.00031
298.15	0.9708	1.36592	0.00031
298.15	0.979	1.36072	0.00031
298.15	0.9867	1.35466	0.00031
298.15	0.9936	1.34824	0.00031
298.15	1	1.34223	0.00031
303.15	0	1.4657	0.00033
303.15	0.1056	1.4643	0.00033
303.15	0.2069	1.46262	0.00032
303.15	0.3104	1.45889	0.00032
303.15	0.4844	1.45533	0.00032
303.15	0.5016	1.45432	0.00032
303.15	0.5952	1.44749	0.00032
303.15	0.6016	1.44759	0.00032
303.15	0.6788	1.44091	0.00032
303.15	0.7835	1.4314	0.00032
303.15	0.8184	1.42604	0.00032
303.15	0.8473	1.41954	0.00032
303.15	0.8719	1.41258	0.00032
303.15	0.8926	1.4048	0.00032
303.15	0.9106	1.39915	0.00032
303.15	0.9254	1.38867	0.00032
303.15	0.9303	1.38901	0.00031
303.15	0.9391	1.38606	0.00031
303.15	0.951	1.37929	0.00031
303.15	0.9599	1.37327	0.00031
303.15	0.9708	1.3651	0.00031
303.15	0.979	1.36001	0.00031
303.15	0.9867	1.3539	0.00031
303.15	0.9936	1.3476	0.00031
303.15	1	1.3416	0.00031
308.15	0	1.46397	0.00033
308.15	0.1056	1.46262	0.00033
308.15	0.2069	1.46101	0.00032
308.15	0.3104	1.45847	0.00032
308.15	0.4844	1.45365	0.00032
308.15	0.5016	1.45268	0.00032
308.15	0.5952	1.44587	0.00032
308.15	0.6016	1.44608	0.00032
308.15	0.6788	1.43943	0.00032
308.15	0.7835	1.43059	0.00032
308.15	0.8184	1.4247	0.00032
308.15	0.8473	1.41822	0.00032
308.15	0.8719	1.41127	0.00032
308.15	0.8926	1.40352	0.00032
308.15	0.9106	1.39814	0.00032
308.15	0.9254	1.38807	0.00032
308.15	0.9303	1.38901	0.00031
308.15	0.9391	1.38539	0.00031
308.15	0.951	1.37872	0.00031
308.15	0.9599	1.37231	0.00031
308.15	0.9708	1.36448	0.00031
308.15	0.979	1.35959	0.00031
308.15	0.9867	1.35319	0.00031
308.15	0.9936	1.34702	0.00031
308.15	1	1.34092	0.00031
313.15	0	1.46216	0.00033
313.15	0.1056	1.46096	0.00033
313.15	0.2069	1.45931	0.00032
313.15	0.3104	1.45682	0.00032
313.15	0.4844	1.45391	0.00033
313.15	0.5016	1.45102	0.00033
313.15	0.5952	1.44431	0.00032
313.15	0.6016	1.44384	0.00032
313.15	0.6788	1.43802	0.00032
313.15	0.7835	1.42903	0.00032
313.15	0.8184	1.42287	0.00032
313.15	0.8473	1.4172	0.00032
313.15	0.8719	1.41026	0.00032
313.15	0.8926	1.40276	0.00032
313.15	0.9106	1.39726	0.00032
313.15	0.9254	1.38778	0.00032
313.15	0.9303	1.38834	0.00032
313.15	0.9391	1.38513	0.00031
313.15	0.951	1.37841	0.00032
313.15	0.9599	1.37093	0.00031
313.15	0.9708	1.36388	0.00031
313.15	0.979	1.35918	0.00031
313.15	0.9867	1.35221	0.00031
313.15	0.9936	1.34633	0.00031
313.15	1	1.3402	0.00031

System: triethylene glycol + water; phases: Liquid
Fixed: Pressure, kPa = 95.99
Fixed: Wavelength, nm = 435.8
Property: Refractive index (other wavelength) (Liquid); method: Standard Abbe refractometry
Temperature, K	Mole fraction of water	Refractive index (other wavelength)	uncertainty
293.15	0	1.46569	0.00033
293.15	0.1056	1.46418	0.00033
293.15	0.2069	1.46229	0.00032
293.15	0.3104	1.45892	0.00032
293.15	0.4844	1.45514	0.00032
293.15	0.5016	1.45412	0.00032
293.15	0.5952	1.44731	0.00032
293.15	0.6016	1.44734	0.00032
293.15	0.6788	1.4406	0.00032
293.15	0.7835	1.43091	0.00032
293.15	0.8184	1.42558	0.00032
293.15	0.8473	1.41949	0.00032
293.15	0.8719	1.41214	0.00032
293.15	0.8926	1.40391	0.00032
293.15	0.9106	1.39844	0.00032
293.15	0.9254	1.38783	0.00032
293.15	0.9303	1.38905	0.00031
293.15	0.9391	1.38514	0.00031
293.15	0.951	1.37811	0.00031
293.15	0.9599	1.37194	0.00031
293.15	0.9708	1.36396	0.00031
293.15	0.979	1.35879	0.00031
293.15	0.9867	1.35259	0.00031
293.15	0.9936	1.34624	0.00031
293.15	1	1.34033	0.00031
298.15	0	1.4639	0.00033
298.15	0.1056	1.46248	0.00033
298.15	0.2069	1.46074	0.00032
298.15	0.3104	1.45745	0.00032
298.15	0.4844	1.45354	0.00032
298.15	0.5016	1.45252	0.00032
298.15	0.5952	1.44572	0.00032
298.15	0.6016	1.44575	0.00032
298.15	0.6788	1.43909	0.00032
298.15	0.7835	1.42946	0.00032
298.15	0.8184	1.42417	0.00032
298.15	0.8473	1.41783	0.00032
298.15	0.8719	1.41082	0.00032
298.15	0.8926	1.40293	0.00032
298.15	0.9106	1.39727	0.00032
298.15	0.9254	1.38664	0.00032
298.15	0.9303	1.38813	0.00031
298.15	0.9391	1.38402	0.00032
298.15	0.951	1.37716	0.00031
298.15	0.9599	1.37117	0.00031
298.15	0.9708	1.36317	0.00031
298.15	0.979	1.35801	0.00031
298.15	0.9867	1.35198	0.00031
298.15	0.9936	1.34565	0.00031
298.15	1	1.33969	0.00031
303.15	0	1.46213	0.00033
303.15	0.1056	1.46075	0.00033
303.15	0.2069	1.4591	0.00032
303.15	0.3104	1.45541	0.00032
303.15	0.4844	1.4519	0.00032
303.15	0.5016	1.4509	0.00032
303.15	0.5952	1.44412	0.00032
303.15	0.6016	1.44421	0.00032
303.15	0.6788	1.43757	0.00032
303.15	0.7835	1.4281	0.00032
303.15	0.8184	1.4228	0.00032
303.15	0.8473	1.41636	0.00032
303.15	0.8719	1.40944	0.00032
303.15	0.8926	1.40173	0.00032
303.15	0.9106	1.39612	0.00032
303.15	0.9254	1.38572	0.00032
303.15	0.9303	1.38707	0.00031
303.15	0.9391	1.38312	0.00031
303.15	0.951	1.37641	0.00031
303.15	0.9599	1.37045	0.00031
303.15	0.9708	1.36235	0.00031
303.15	0.979	1.3573	0.00031
303.15	0.9867	1.35126	0.00031
303.15	0.9936	1.34502	0.00031
303.15	1	1.33908	0.00031
308.15	0	1.46043	0.00033
308.15	0.1056	1.4591	0.00033
308.15	0.2069	1.4575	0.00032
308.15	0.3104	1.45498	0.00032
308.15	0.4844	1.45024	0.00032
308.15	0.5016	1.44927	0.00032
308.15	0.5952	1.44251	0.00032
308.15	0.6016	1.44288	0.00032
308.15	0.6788	1.43608	0.00032
308.15	0.7835	1.42735	0.00032
308.15	0.8184	1.42147	0.00032
308.15	0.8473	1.41506	0.00032
308.15	0.8719	1.40816	0.00032
308.15	0.8926	1.40046	0.00032
308.15	0.9106	1.3951	0.00034
308.15	0.9254	1.38515	0.00032
308.15	0.9303	1.38605	0.00031
308.15	0.9391	1.38243	0.00031
308.15	0.951	1.37585	0.00031
308.15	0.9599	1.3695	0.00031
308.15	0.9708	1.36175	0.00031
308.15	0.979	1.3569	0.00031
308.15	0.9867	1.35054	0.00031
308.15	0.9936	1.34444	0.00031
308.15	1	1.33843	0.00031
313.15	0	1.45863	0.00033
313.15	0.1056	1.45744	0.00033
313.15	0.2069	1.45583	0.00032
313.15	0.3104	1.45335	0.00032
313.15	0.4844	1.45049	0.00033
313.15	0.5016	1.44762	0.00033
313.15	0.5952	1.44094	0.00037
313.15	0.6016	1.44387	0.00037
313.15	0.6788	1.43469	0.00032
313.15	0.7835	1.42572	0.00032
313.15	0.8184	1.41965	0.00032
313.15	0.8473	1.41405	0.00032
313.15	0.8719	1.40715	0.00032
313.15	0.8926	1.39972	0.00033
313.15	0.9106	1.38426	0.00034
313.15	0.9254	1.38484	0.00031
313.15	0.9303	1.38538	0.00032
313.15	0.9391	1.38218	0.00031
313.15	0.951	1.37555	0.00032
313.15	0.9599	1.36813	0.00031
313.15	0.9708	1.36116	0.00031
313.15	0.979	1.3565	0.00031
313.15	0.9867	1.34957	0.00031
313.15	0.9936	1.34376	0.00031
313.15	1	1.3377	0.00031

System: triethylene glycol + water; phases: Liquid
Fixed: Pressure, kPa = 95.99
Fixed: Wavelength, nm = 486.1
Property: Refractive index (other wavelength) (Liquid); method: Standard Abbe refractometry
Temperature, K	Mole fraction of water	Refractive index (other wavelength)	uncertainty
293.15	0	1.46151	0.00033
293.15	0.1056	1.46003	0.00033
293.15	0.2069	1.45817	0.00032
293.15	0.3104	1.45478	0.00032
293.15	0.4844	1.45102	0.00032
293.15	0.5016	1.45	0.00032
293.15	0.5952	1.44328	0.00032
293.15	0.6016	1.44332	0.00032
293.15	0.6788	1.4367	0.00032
293.15	0.7835	1.42716	0.00032
293.15	0.8184	1.42185	0.00032
293.15	0.8473	1.41582	0.00032
293.15	0.8719	1.40852	0.00032
293.15	0.8926	1.40033	0.00032
293.15	0.9106	1.39495	0.00032
293.15	0.9254	1.38446	0.00032
293.15	0.9303	1.38562	0.00031
293.15	0.9391	1.38176	0.00031
293.15	0.951	1.37479	0.00031
293.15	0.9599	1.36866	0.00031
293.15	0.9708	1.36077	0.00031
293.15	0.979	1.35566	0.00031
293.15	0.9867	1.34949	0.00031
293.15	0.9936	1.34314	0.00031
293.15	1	1.33728	0.00031
298.15	0	1.45975	0.00033
298.15	0.1056	1.45834	0.00033
298.15	0.2069	1.45661	0.00032
298.15	0.3104	1.45333	0.00032
298.15	0.4844	1.44943	0.00032
298.15	0.5016	1.44841	0.00032
298.15	0.5952	1.44171	0.00032
298.15	0.6016	1.44175	0.00032
298.15	0.6788	1.43522	0.00032
298.15	0.7835	1.42571	0.00032
298.15	0.8184	1.42045	0.00032
298.15	0.8473	1.41417	0.00032
298.15	0.8719	1.40723	0.00032
298.15	0.8926	1.3994	0.00032
298.15	0.9106	1.39379	0.00032
298.15	0.9254	1.3833	0.00032
298.15	0.9303	1.38472	0.00031
298.15	0.9391	1.38066	0.00032
298.15	0.951	1.37385	0.00031
298.15	0.9599	1.36797	0.00031
298.15	0.9708	1.35998	0.00031
298.15	0.979	1.35488	0.00031
298.15	0.9867	1.34888	0.00031
298.15	0.9936	1.34258	0.00031
298.15	1	1.33606	0.00031
303.15	0	1.45796	0.00033
303.15	0.1056	1.4566	0.00033
303.15	0.2069	1.45496	0.00032
303.15	0.3104	1.45129	0.00032
303.15	0.4844	1.4478	0.00032
303.15	0.5016	1.44681	0.00032
303.15	0.5952	1.44014	0.00032
303.15	0.6016	1.44025	0.00032
303.15	0.6788	1.4337	0.00032
303.15	0.7835	1.42435	0.00032
303.15	0.8184	1.4191	0.00032
303.15	0.8473	1.41271	0.00032
303.15	0.8719	1.40585	0.00032
303.15	0.8926	1.39821	0.00032
303.15	0.9106	1.39265	0.00032
303.15	0.9254	1.38237	0.00032
303.15	0.9303	1.38371	0.00031
303.15	0.9391	1.37974	0.00031
303.15	0.951	1.37311	0.00031
303.15	0.9599	1.36721	0.00031
303.15	0.9708	1.3592	0.00031
303.15	0.979	1.35419	0.00031
303.15	0.9867	1.34816	0.00031
303.15	0.9936	1.34197	0.00031
303.15	1	1.33606	0.00031
308.15	0	1.45629	0.00033
308.15	0.1056	1.45496	0.00033
308.15	0.2069	1.45334	0.00032
308.15	0.3104	1.45085	0.00032
308.15	0.4844	1.44616	0.00032
308.15	0.5016	1.4452	0.0003
308.15	0.5952	1.43858	0.00032
308.15	0.6016	1.43766	0.00032
308.15	0.6788	1.43224	0.00032
308.15	0.7835	1.42362	0.00032
308.15	0.8184	1.41778	0.00032
308.15	0.8473	1.41139	0.00032
308.15	0.8719	1.40459	0.00032
308.15	0.8926	1.39696	0.00032
308.15	0.9106	1.39162	0.00032
308.15	0.9254	1.38181	0.00032
308.15	0.9303	1.38268	0.00031
308.15	0.9391	1.37908	0.00031
308.15	0.951	1.37256	0.00031
308.15	0.9599	1.36628	0.00031
308.15	0.9708	1.35858	0.00031
308.15	0.979	1.35382	0.00031
308.15	0.9867	1.34746	0.00031
308.15	0.9936	1.34138	0.00031
308.15	1	1.33538	0.00031
313.15	0	1.45448	0.00033
313.15	0.1056	1.4533	0.00033
313.15	0.2069	1.45169	0.00032
313.15	0.3104	1.44921	0.00032
313.15	0.4844	1.44639	0.00033
313.15	0.5016	1.44358	0.00033
313.15	0.5952	1.43703	0.00032
313.15	0.6016	1.43615	0.00032
313.15	0.6788	1.43086	0.00032
313.15	0.7835	1.42205	0.00032
313.15	0.8184	1.41597	0.00032
313.15	0.8473	1.41039	0.00032
313.15	0.8719	1.40359	0.00032
313.15	0.8926	1.39624	0.00032
313.15	0.9106	1.39088	0.00032
313.15	0.9254	1.38148	0.00032
313.15	0.9303	1.38203	0.00032
313.15	0.9391	1.37884	0.00031
313.15	0.951	1.37228	0.00032
313.15	0.9599	1.36494	0.00031
313.15	0.9708	1.35801	0.00031
313.15	0.979	1.35339	0.00031
313.15	0.9867	1.34651	0.00031
313.15	0.9936	1.34073	0.00031
313.15	1	1.33466	0.00031

System: triethylene glycol + water; phases: Liquid
Fixed: Pressure, kPa = 95.99
Fixed: Wavelength, nm = 546.1
Property: Refractive index (other wavelength) (Liquid); method: Standard Abbe refractometry
Temperature, K	Mole fraction of water	Refractive index (other wavelength)	uncertainty
293.15	0	1.45803	0.00033
293.15	0.1056	1.45656	0.00033
293.15	0.2069	1.45473	0.00032
293.15	0.3104	1.45137	0.00032
293.15	0.4844	1.44764	0.00032
293.15	0.5016	1.44663	0.00032
293.15	0.5952	1.43997	0.00032
293.15	0.6016	1.44002	0.00032
293.15	0.6788	1.43344	0.00032
293.15	0.7835	1.42397	0.00032
293.15	0.8184	1.41872	0.00032
293.15	0.8473	1.41276	0.00032
293.15	0.8719	1.40547	0.00032
293.15	0.8926	1.39734	0.00032
293.15	0.9106	1.392	0.00032
293.15	0.9254	1.38156	0.00032
293.15	0.9303	1.38273	0.00031
293.15	0.9391	1.37891	0.00031
293.15	0.951	1.37198	0.00031
293.15	0.9599	1.36589	0.00031
293.15	0.9708	1.35803	0.00031
293.15	0.979	1.35294	0.00031
293.15	0.9867	1.34676	0.00031
293.15	0.9936	1.34052	0.00032
293.15	1	1.3447	0.00038
298.15	0	1.45629	0.00033
298.15	0.1056	1.45488	0.00033
298.15	0.2069	1.45318	0.00032
298.15	0.3104	1.44993	0.00032
298.15	0.4844	1.44606	0.00032
298.15	0.5016	1.44506	0.00032
298.15	0.5952	1.43842	0.00032
298.15	0.6016	1.43845	0.00032
298.15	0.6788	1.43197	0.00032
298.15	0.7835	1.42254	0.00032
298.15	0.8184	1.41732	0.00032
298.15	0.8473	1.41108	0.00032
298.15	0.8719	1.40421	0.00032
298.15	0.8926	1.39645	0.00032
298.15	0.9106	1.39086	0.00032
298.15	0.9254	1.38042	0.00032
298.15	0.9303	1.38187	0.00031
298.15	0.9391	1.37781	0.00032
298.15	0.951	1.37104	0.00031
298.15	0.9599	1.36514	0.00031
298.15	0.9708	1.35727	0.00031
298.15	0.979	1.35218	0.00031
298.15	0.9867	1.34617	0.00031
298.15	0.9936	1.33995	0.00031
298.15	1	1.33405	0.00033
303.15	0	1.45455	0.00033
303.15	0.1056	1.45317	0.00033
303.15	0.2069	1.45155	0.00032
303.15	0.3104	1.4479	0.00032
303.15	0.4844	1.44445	0.00032
303.15	0.5016	1.44347	0.00032
303.15	0.5952	1.43687	0.00032
303.15	0.6016	1.43697	0.00032
303.15	0.6788	1.43047	0.00032
303.15	0.7835	1.42118	0.00032
303.15	0.8184	1.41598	0.00032
303.15	0.8473	1.40964	0.00032
303.15	0.8719	1.40283	0.00032
303.15	0.8926	1.39527	0.00032
303.15	0.9106	1.38973	0.00032
303.15	0.9254	1.37951	0.00032
303.15	0.9303	1.38085	0.00031
303.15	0.9391	1.37691	0.00031
303.15	0.951	1.3703	0.00031
303.15	0.9599	1.36443	0.00031
303.15	0.9708	1.35648	0.00031
303.15	0.979	1.3515	0.00031
303.15	0.9867	1.3455	0.00031
303.15	0.9936	1.33934	0.00031
303.15	1	1.33344	0.00031
308.15	0	1.45285	0.00033
308.15	0.1056	1.45153	0.00033
308.15	0.2069	1.44996	0.00032
308.15	0.3104	1.44745	0.00032
308.15	0.4844	1.44282	0.00032
308.15	0.5016	1.44188	0.00032
308.15	0.5952	1.43529	0.00032
308.15	0.6016	1.43458	0.00032
308.15	0.6788	1.42901	0.00032
308.15	0.7835	1.42052	0.00032
308.15	0.8184	1.41468	0.00032
308.15	0.8473	1.40833	0.00032
308.15	0.8719	1.40157	0.00032
308.15	0.8926	1.39401	0.00032
308.15	0.9106	1.38868	0.00032
308.15	0.9254	1.37898	0.00032
308.15	0.9303	1.37985	0.00031
308.15	0.9391	1.37624	0.00031
308.15	0.951	1.36977	0.00031
308.15	0.9599	1.36351	0.00031
308.15	0.9708	1.35587	0.00031
308.15	0.979	1.35111	0.00031
308.15	0.9867	1.34481	0.00031
308.15	0.9936	1.33876	0.00031
308.15	1	1.33278	0.00031
313.15	0	1.45106	0.00033
313.15	0.1056	1.4499	0.00033
313.15	0.2069	1.44831	0.00032
313.15	0.3104	1.44581	0.00032
313.15	0.4844	1.44305	0.00033
313.15	0.5016	1.44028	0.00033
313.15	0.5952	1.43376	0.00032
313.15	0.6016	1.43304	0.00032
313.15	0.6788	1.42768	0.00032
313.15	0.7835	1.41893	0.00032
313.15	0.8184	1.41287	0.00032
313.15	0.8473	1.40736	0.00032
313.15	0.8719	1.40061	0.00032
313.15	0.8926	1.39332	0.00032
313.15	0.9106	1.38799	0.00032
313.15	0.9254	1.37865	0.00032
313.15	0.9303	1.3792	0.00032
313.15	0.9391	1.37598	0.00031
313.15	0.951	1.36949	0.00032
313.15	0.9599	1.36219	0.00031
313.15	0.9708	1.35533	0.00031
313.15	0.979	1.35071	0.00031
313.15	0.9867	1.34386	0.00031
313.15	0.9936	1.33811	0.00031
313.15	1	1.33207	0.00031

System: triethylene glycol + water; phases: Liquid
Fixed: Pressure, kPa = 95.99
Fixed: Wavelength, nm = 587.6
Property: Refractive index (other wavelength) (Liquid); method: Standard Abbe refractometry
Temperature, K	Mole fraction of water	Refractive index (other wavelength)	uncertainty
293.15	0	1.45619	0.00033
293.15	0.1056	1.45474	0.00033
293.15	0.2069	1.45293	0.00032
293.15	0.3104	1.44957	0.00032
293.15	0.4844	1.44586	0.00032
293.15	0.5016	1.44485	0.00032
293.15	0.5952	1.4382	0.00032
293.15	0.6016	1.43827	0.00032
293.15	0.6788	1.43171	0.00032
293.15	0.7835	1.4223	0.00032
293.15	0.8184	1.41706	0.00032
293.15	0.8473	1.41114	0.00032
293.15	0.8719	1.40386	0.00032
293.15	0.8926	1.39576	0.00032
293.15	0.9106	1.39044	0.00032
293.15	0.9254	1.38004	0.00032
293.15	0.9303	1.3812	0.00031
293.15	0.9391	1.37736	0.00031
293.15	0.951	1.37045	0.00031
293.15	0.9599	1.36436	0.00031
293.15	0.9708	1.35657	0.00031
293.15	0.979	1.35147	0.00031
293.15	0.9867	1.34532	0.00031
293.15	0.9936	1.33907	0.00031
293.15	1	1.33325	0.00031
298.15	0	1.45447	0.00033
298.15	0.1056	1.45307	0.00033
298.15	0.2069	1.45138	0.00032
298.15	0.3104	1.44814	0.00032
298.15	0.4844	1.44428	0.00032
298.15	0.5016	1.44328	0.00032
298.15	0.5952	1.43668	0.00032
298.15	0.6016	1.43673	0.00032
298.15	0.6788	1.43025	0.00032
298.15	0.7835	1.42088	0.00032
298.15	0.8184	1.41568	0.00032
298.15	0.8473	1.40947	0.00032
298.15	0.8719	1.40261	0.00032
298.15	0.8926	1.39488	0.00032
298.15	0.9106	1.3893	0.00032
298.15	0.9254	1.37889	0.00032
298.15	0.9303	1.38035	0.00031
298.15	0.9391	1.37628	0.00032
298.15	0.951	1.36953	0.00031
298.15	0.9599	1.36364	0.00031
298.15	0.9708	1.35581	0.00031
298.15	0.979	1.35072	0.00031
298.15	0.9867	1.34473	0.00031
298.15	0.9936	1.33852	0.00031
298.15	1	1.33262	0.00031
303.15	0	1.45273	0.00033
303.15	0.1056	1.45138	0.00033
303.15	0.2069	1.44975	0.00032
303.15	0.3104	1.44612	0.00032
303.15	0.4844	1.44268	0.00032
303.15	0.5016	1.4417	0.00032
303.15	0.5952	1.43513	0.00032
303.15	0.6016	1.43525	0.00032
303.15	0.6788	1.42877	0.00032
303.15	0.7835	1.41951	0.00032
303.15	0.8184	1.41434	0.00032
303.15	0.8473	1.40803	0.00032
303.15	0.8719	1.40124	0.00032
303.15	0.8926	1.39369	0.00032
303.15	0.9106	1.38817	0.00032
303.15	0.9254	1.37798	0.00032
303.15	0.9303	1.37934	0.00031
303.15	0.9391	1.37533	0.00031
303.15	0.951	1.36879	0.00031
303.15	0.9599	1.36294	0.00031
303.15	0.9708	1.35503	0.00031
303.15	0.979	1.35005	0.00031
303.15	0.9867	1.34407	0.00031
303.15	0.9936	1.33792	0.00031
303.15	1	1.33203	0.00031
308.15	0	1.45106	0.00033
308.15	0.1056	1.44974	0.00033
308.15	0.2069	1.44816	0.00032
308.15	0.3104	1.44566	0.00032
308.15	0.4844	1.44105	0.00032
308.15	0.5016	1.44011	0.00032
308.15	0.5952	1.43357	0.00032
308.15	0.6016	1.43283	0.00032
308.15	0.6788	1.42731	0.00032
308.15	0.7835	1.41887	0.00032
308.15	0.8184	1.41303	0.00032
308.15	0.8473	1.40675	0.00032
308.15	0.8719	1.39999	0.00032
308.15	0.8926	1.39245	0.00032
308.15	0.9106	1.38711	0.00032
308.15	0.9254	1.37744	0.00032
308.15	0.9303	1.37833	0.00031
308.15	0.9391	1.37471	0.00031
308.15	0.951	1.36826	0.00031
308.15	0.9599	1.36202	0.00031
308.15	0.9708	1.35442	0.00031
308.15	0.979	1.34968	0.00031
308.15	0.9867	1.34338	0.00031
308.15	0.9936	1.33735	0.00031
308.15	1	1.33136	0.00031
313.15	0	1.44927	0.00033
313.15	0.1056	1.44812	0.00033
313.15	0.2069	1.44653	0.00032
313.15	0.3104	1.44397	0.00032
313.15	0.4844	1.44124	0.00033
313.15	0.5016	1.43853	0.00033
313.15	0.5952	1.43204	0.00032
313.15	0.6016	1.43132	0.00032
313.15	0.6788	1.42601	0.00032
313.15	0.7835	1.41728	0.00032
313.15	0.8184	1.41125	0.00032
313.15	0.8473	1.40575	0.00032
313.15	0.8719	1.39902	0.00032
313.15	0.8926	1.39177	0.00032
313.15	0.9106	1.38648	0.00032
313.15	0.9254	1.37712	0.00032
313.15	0.9303	1.37769	0.00032
313.15	0.9391	1.37445	0.00031
313.15	0.951	1.36803	0.00032
313.15	0.9599	1.36072	0.00031
313.15	0.9708	1.35388	0.00031
313.15	0.979	1.34929	0.00031
313.15	0.9867	1.34243	0.00031
313.15	0.9936	1.3367	0.00031
313.15	1	1.33066	0.00031

System: triethylene glycol + water; phases: Liquid
Fixed: Pressure, kPa = 95.99
Fixed: Wavelength, nm = 589.3
Property: Refractive index (other wavelength) (Liquid); method: Standard Abbe refractometry
Temperature, K	Mole fraction of water	Refractive index (other wavelength)	uncertainty
293.15	0	1.45612	0.00033
293.15	0.1056	1.45467	0.00033
293.15	0.2069	1.45286	0.00032
293.15	0.3104	1.4495	0.00032
293.15	0.4844	1.4458	0.00032
293.15	0.5016	1.44479	0.00032
293.15	0.5952	1.43814	0.00032
293.15	0.6016	1.43821	0.00032
293.15	0.6788	1.43165	0.00032
293.15	0.7835	1.42224	0.00032
293.15	0.8184	1.417	0.00032
293.15	0.8473	1.41108	0.00032
293.15	0.8719	1.4038	0.00032
293.15	0.8926	1.3957	0.00032
293.15	0.9106	1.39038	0.00032
293.15	0.9254	1.37998	0.00032
293.15	0.9303	1.38114	0.00031
293.15	0.9391	1.37731	0.00031
293.15	0.951	1.37039	0.00031
293.15	0.9599	1.36431	0.00031
293.15	0.9708	1.35652	0.00031
293.15	0.979	1.35142	0.00031
293.15	0.9867	1.34526	0.00031
293.15	0.9936	1.33902	0.00031
293.15	1	1.332	0.00031
298.15	0	1.4544	0.00033
298.15	0.1056	1.453	0.00033
298.15	0.2069	1.45132	0.00032
298.15	0.3104	1.44807	0.00032
298.15	0.4844	1.44422	0.00032
298.15	0.5016	1.44322	0.00032
298.15	0.5952	1.43661	0.00032
298.15	0.6016	1.43666	0.00032
298.15	0.6788	1.43019	0.00032
298.15	0.7835	1.42082	0.00032
298.15	0.8184	1.41562	0.00032
298.15	0.8473	1.40941	0.00032
298.15	0.8719	1.40255	0.00032
298.15	0.8926	1.39482	0.00032
298.15	0.9106	1.38924	0.00032
298.15	0.9254	1.37884	0.00032
298.15	0.9303	1.38029	0.00031
298.15	0.9391	1.37622	0.00032
298.15	0.951	1.36947	0.00031
298.15	0.9599	1.36359	0.00031
298.15	0.9708	1.35576	0.00031
298.15	0.979	1.35066	0.00031
298.15	0.9867	1.34467	0.00031
298.15	0.9936	1.33847	0.00031
298.15	1	1.33257	0.00031
303.15	0	1.45267	0.00033
303.15	0.1056	1.45131	0.00033
303.15	0.2069	1.44969	0.00032
303.15	0.3104	1.44605	0.00032
303.15	0.4844	1.44261	0.00032
303.15	0.5016	1.44163	0.00032
303.15	0.5952	1.43507	0.00032
303.15	0.6016	1.43519	0.00032
303.15	0.6788	1.42871	0.00032
303.15	0.7835	1.41945	0.00032
303.15	0.8184	1.41428	0.00032
303.15	0.8473	1.40797	0.00032
303.15	0.8719	1.40118	0.00032
303.15	0.8926	1.39363	0.00032
303.15	0.9106	1.38811	0.00032
303.15	0.9254	1.37792	0.00032
303.15	0.9303	1.37928	0.00031
303.15	0.9391	1.37531	0.00031
303.15	0.951	1.36873	0.00031
303.15	0.9599	1.36288	0.00031
303.15	0.9708	1.35497	0.00031
303.15	0.979	1.34999	0.00031
303.15	0.9867	1.34402	0.00031
303.15	0.9936	1.33786	0.00031
303.15	1	1.33198	0.00031
308.15	0	1.45099	0.00033
308.15	0.1056	1.44967	0.00033
308.15	0.2069	1.44809	0.00032
308.15	0.3104	1.44561	0.00032
308.15	0.4844	1.44098	0.00032
308.15	0.5016	1.44065	0.00032
308.15	0.5952	1.4335	0.00032
308.15	0.6016	1.43274	0.00032
308.15	0.6788	1.42725	0.00032
308.15	0.7835	1.4188	0.00032
308.15	0.8184	1.41297	0.00032
308.15	0.8473	1.40666	0.00032
308.15	0.8719	1.39993	0.00032
308.15	0.8926	1.39239	0.00032
308.15	0.9106	1.38705	0.00032
308.15	0.9254	1.37739	0.00032
308.15	0.9303	1.37828	0.00031
308.15	0.9391	1.37465	0.00031
308.15	0.951	1.36821	0.00031
308.15	0.9599	1.36197	0.00031
308.15	0.9708	1.35436	0.00031
308.15	0.979	1.34963	0.00031
308.15	0.9867	1.34332	0.00031
308.15	0.9936	1.3373	0.00031
308.15	1	1.33131	0.00031
313.15	0	1.4492	0.00033
313.15	0.1056	1.44806	0.00033
313.15	0.2069	1.44647	0.00033
313.15	0.3104	1.44244	0.00032
313.15	0.4844	1.44046	0.00032
313.15	0.5016	1.43847	0.00033
313.15	0.5952	1.43197	0.00032
313.15	0.6016	1.43126	0.00032
313.15	0.6788	1.42559	0.00032
313.15	0.7835	1.41722	0.00032
313.15	0.8184	1.41119	0.00032
313.15	0.8473	1.40569	0.00032
313.15	0.8719	1.39896	0.00032
313.15	0.8926	1.39171	0.00032
313.15	0.9106	1.38642	0.00032
313.15	0.9254	1.37706	0.00032
313.15	0.9303	1.37763	0.00032
313.15	0.9391	1.3744	0.00031
313.15	0.951	1.36794	0.00032
313.15	0.9599	1.36066	0.00031
313.15	0.9708	1.35383	0.00031
313.15	0.979	1.34923	0.00031
313.15	0.9867	1.34238	0.00031
313.15	0.9936	1.33665	0.00031
313.15	1	1.33061	0.00031

System: triethylene glycol + water; phases: Liquid
Fixed: Pressure, kPa = 95.99
Fixed: Wavelength, nm = 632.8
Property: Refractive index (other wavelength) (Liquid); method: Standard Abbe refractometry
Temperature, K	Mole fraction of water	Refractive index (other wavelength)	uncertainty
293.15	0	1.45455	0.00033
293.15	0.1056	1.45311	0.00033
293.15	0.2069	1.45131	0.00032
293.15	0.3104	1.44796	0.00032
293.15	0.4844	1.44426	0.00032
293.15	0.5016	1.44326	0.00032
293.15	0.5952	1.43663	0.00032
293.15	0.6016	1.4367	0.00032
293.15	0.6788	1.4301	0.00032
293.15	0.7835	1.42078	0.00032
293.15	0.8184	1.41555	0.00032
293.15	0.8473	1.40964	0.00032
293.15	0.8719	1.40238	0.00032
293.15	0.8926	1.3943	0.00032
293.15	0.9106	1.38899	0.00032
293.15	0.9254	1.3786	0.00032
293.15	0.9303	1.37976	0.00031
293.15	0.9391	1.37592	0.00031
293.15	0.951	1.36903	0.00031
293.15	0.9599	1.36296	0.00031
293.15	0.9708	1.3552	0.00031
293.15	0.979	1.35011	0.00031
293.15	0.9867	1.34398	0.00031
293.15	0.9936	1.33774	0.00031
293.15	1	1.33194	0.00031
298.15	0	1.45284	0.00033
298.15	0.1056	1.45145	0.00033
298.15	0.2069	1.44978	0.00032
298.15	0.3104	1.44653	0.00032
298.15	0.4844	1.44269	0.00032
298.15	0.5016	1.44169	0.00032
298.15	0.5952	1.4351	0.00032
298.15	0.6016	1.43516	0.00032
298.15	0.6788	1.4287	0.00032
298.15	0.7835	1.41936	0.00032
298.15	0.8184	1.41417	0.00032
298.15	0.8473	1.40798	0.00032
298.15	0.8719	1.40113	0.00032
298.15	0.8926	1.39343	0.00032
298.15	0.9106	1.38785	0.00032
298.15	0.9254	1.37748	0.00032
298.15	0.9303	1.37892	0.00031
298.15	0.9391	1.37485	0.00032
298.15	0.951	1.36812	0.00031
298.15	0.9599	1.36225	0.00031
298.15	0.9708	1.35444	0.00031
298.15	0.979	1.34937	0.00031
298.15	0.9867	1.3434	0.00031
298.15	0.9936	1.3372	0.00031
298.15	1	1.33132	0.00031
303.15	0	1.4511	0.00033
303.15	0.1056	1.44977	0.00033
303.15	0.2069	1.44815	0.00032
303.15	0.3104	1.44452	0.00032
303.15	0.4844	1.44109	0.00032
303.15	0.5016	1.44012	0.00032
303.15	0.5952	1.43356	0.00032
303.15	0.6016	1.43369	0.00032
303.15	0.6788	1.42724	0.00032
303.15	0.7835	1.41799	0.00032
303.15	0.8184	1.41284	0.00032
303.15	0.8473	1.40655	0.00032
303.15	0.8719	1.39977	0.00032
303.15	0.8926	1.39224	0.00032
303.15	0.9106	1.38673	0.00032
303.15	0.9254	1.37655	0.00032
303.15	0.9303	1.37792	0.00031
303.15	0.9391	1.37393	0.00031
303.15	0.951	1.36739	0.00031
303.15	0.9599	1.36155	0.00031
303.15	0.9708	1.35367	0.00031
303.15	0.979	1.34869	0.00031
303.15	0.9867	1.34275	0.00031
303.15	0.9936	1.3366	0.00031
303.15	1	1.33074	0.00031
308.15	0	1.44945	0.00033
308.15	0.1056	1.44814	0.00033
308.15	0.2069	1.44655	0.00032
308.15	0.3104	1.44407	0.00032
308.15	0.4844	1.43947	0.00032
308.15	0.5016	1.43853	0.00032
308.15	0.5952	1.43202	0.00032
308.15	0.6016	1.43225	0.00032
308.15	0.6788	1.42577	0.00032
308.15	0.7835	1.41735	0.00032
308.15	0.8184	1.41153	0.00032
308.15	0.8473	1.40524	0.00032
308.15	0.8719	1.39853	0.00032
308.15	0.8926	1.39102	0.00032
308.15	0.9106	1.38567	0.00032
308.15	0.9254	1.37602	0.00032
308.15	0.9303	1.37692	0.00031
308.15	0.9391	1.37329	0.00031
308.15	0.951	1.36686	0.00031
308.15	0.9599	1.36065	0.00031
308.15	0.9708	1.35307	0.00031
308.15	0.979	1.34835	0.00031
308.15	0.9867	1.34205	0.00031
308.15	0.9936	1.33605	0.00031
308.15	1	1.33007	0.00031
313.15	0	1.44766	0.00033
313.15	0.1056	1.44652	0.00033
313.15	0.2069	1.44494	0.00032
313.15	0.3104	1.44209	0.00032
313.15	0.4844	1.43954	0.00033
313.15	0.5016	1.43695	0.00033
313.15	0.5952	1.43049	0.00032
313.15	0.6016	1.43021	0.00032
313.15	0.6788	1.42446	0.00032
313.15	0.7835	1.41578	0.00032
313.15	0.8184	1.40976	0.00032
313.15	0.8473	1.40427	0.00032
313.15	0.8719	1.39756	0.00032
313.15	0.8926	1.39035	0.00032
313.15	0.9106	1.38508	0.00032
313.15	0.9254	1.37569	0.00032
313.15	0.9303	1.37629	0.00032
313.15	0.9391	1.37305	0.00031
313.15	0.951	1.36662	0.00032
313.15	0.9599	1.35936	0.00031
313.15	0.9708	1.35253	0.00031
313.15	0.979	1.34796	0.00031
313.15	0.9867	1.34111	0.00031
313.15	0.9936	1.3354	0.00031
313.15	1	1.32937	0.00031

System: triethylene glycol + water; phases: Liquid
Fixed: Pressure, kPa = 95.99
Fixed: Wavelength, nm = 644
Property: Refractive index (other wavelength) (Liquid); method: Standard Abbe refractometry
Temperature, K	Mole fraction of water	Refractive index (other wavelength)	uncertainty
293.15	0	1.4542	0.00033
293.15	0.1056	1.45275	0.00033
293.15	0.2069	1.45095	0.00032
293.15	0.3104	1.4476	0.00032
293.15	0.4844	1.44391	0.00032
293.15	0.5016	1.44291	0.00032
293.15	0.5952	1.43669	0.00032
293.15	0.6016	1.43635	0.00032
293.15	0.6788	1.42981	0.00032
293.15	0.7835	1.42043	0.00032
293.15	0.8184	1.4152	0.00032
293.15	0.8473	1.4093	0.00032
293.15	0.8719	1.40204	0.00032
293.15	0.8926	1.39396	0.00032
293.15	0.9106	1.38865	0.00032
293.15	0.9254	1.37827	0.00032
293.15	0.9303	1.37942	0.00031
293.15	0.9391	1.37559	0.00031
293.15	0.951	1.36871	0.00031
293.15	0.9599	1.36264	0.00031
293.15	0.9708	1.35488	0.00031
293.15	0.979	1.3498	0.00031
293.15	0.9867	1.34367	0.00031
293.15	0.9936	1.33744	0.00031
293.15	1	1.33164	0.00031
298.15	0	1.45249	0.00033
298.15	0.1056	1.45109	0.00033
298.15	0.2069	1.44942	0.00032
298.15	0.3104	1.44617	0.00032
298.15	0.4844	1.44234	0.00032
298.15	0.5016	1.44134	0.00032
298.15	0.5952	1.43475	0.00032
298.15	0.6016	1.43481	0.00032
298.15	0.6788	1.42835	0.00032
298.15	0.7835	1.41901	0.00032
298.15	0.8184	1.41382	0.00032
298.15	0.8473	1.40763	0.00032
298.15	0.8719	1.40079	0.00032
298.15	0.8926	1.3931	0.00032
298.15	0.9106	1.38752	0.00032
298.15	0.9254	1.37714	0.00032
298.15	0.9303	1.37859	0.00031
298.15	0.9391	1.37452	0.00032
298.15	0.951	1.3678	0.00031
298.15	0.9599	1.36139	0.00031
298.15	0.9708	1.35412	0.00031
298.15	0.979	1.34905	0.00031
298.15	0.9867	1.34308	0.00031
298.15	0.9936	1.3369	0.00031
298.15	1	1.33103	0.00031
303.15	0	1.45075	0.00033
303.15	0.1056	1.44941	0.00033
303.15	0.2069	1.4478	0.00032
303.15	0.3104	1.44417	0.00032
303.15	0.4844	1.44075	0.00032
303.15	0.5016	1.43978	0.00032
303.15	0.5952	1.43321	0.00032
303.15	0.6016	1.43334	0.00032
303.15	0.6788	1.42689	0.00032
303.15	0.7835	1.41765	0.00032
303.15	0.8184	1.41249	0.00032
303.15	0.8473	1.4062	0.00032
303.15	0.8719	1.39943	0.00032
303.15	0.8926	1.39191	0.00032
303.15	0.9106	1.38639	0.00032
303.15	0.9254	1.37622	0.00032
303.15	0.9303	1.37759	0.00031
303.15	0.9391	1.37361	0.00031
303.15	0.951	1.36708	0.00031
303.15	0.9599	1.36123	0.00031
303.15	0.9708	1.35335	0.00031
303.15	0.979	1.34838	0.00031
303.15	0.9867	1.34244	0.00031
303.15	0.9936	1.3363	0.00031
303.15	1	1.33045	0.00031
308.15	0	1.44909	0.00033
308.15	0.1056	1.44778	0.00033
308.15	0.2069	1.44621	0.00032
308.15	0.3104	1.44392	0.00032
308.15	0.4844	1.43913	0.00032
308.15	0.5016	1.43819	0.00032
308.15	0.5952	1.43167	0.00032
308.15	0.6016	1.43191	0.00032
308.15	0.6788	1.42543	0.00032
308.15	0.7835	1.41701	0.00032
308.15	0.8184	1.41118	0.00032
308.15	0.8473	1.4049	0.00032
308.15	0.8719	1.39819	0.00032
308.15	0.8926	1.39069	0.00032
308.15	0.9106	1.38534	0.00032
308.15	0.9254	1.37569	0.00032
308.15	0.9303	1.37659	0.00031
308.15	0.9391	1.37297	0.00031
308.15	0.951	1.36654	0.00031
308.15	0.9599	1.36033	0.00031
308.15	0.9708	1.35275	0.00031
308.15	0.979	1.34803	0.00031
308.15	0.9867	1.34175	0.00031
308.15	0.9936	1.33576	0.00031
308.15	1	1.32979	0.00031
313.15	0	1.44731	0.00033
313.15	0.1056	1.44616	0.00033
313.15	0.2069	1.44459	0.00032
313.15	0.3104	1.44136	0.00032
313.15	0.4844	1.43899	0.00032
313.15	0.5016	1.43661	0.00033
313.15	0.5952	1.43015	0.00032
313.15	0.6016	1.42952	0.00032
313.15	0.6788	1.42411	0.00032
313.15	0.7835	1.41543	0.00032
313.15	0.8184	1.40942	0.00032
313.15	0.8473	1.40394	0.00032
313.15	0.8719	1.39723	0.00032
313.15	0.8926	1.39002	0.00032
313.15	0.9106	1.38475	0.00032
313.15	0.9254	1.37537	0.00032
313.15	0.9303	1.37596	0.00032
313.15	0.9391	1.37272	0.00031
313.15	0.951	1.3663	0.00032
313.15	0.9599	1.35904	0.00031
313.15	0.9708	1.35221	0.00031
313.15	0.979	1.34764	0.00031
313.15	0.9867	1.34081	0.00031
313.15	0.9936	1.3351	0.00031
313.15	1	1.32908	0.00031

System: triethylene glycol + water; phases: Liquid
Fixed: Pressure, kPa = 95.99
Fixed: Wavelength, nm = 706.5
Property: Refractive index (other wavelength) (Liquid); method: Standard Abbe refractometry
Temperature, K	Mole fraction of water	Refractive index (other wavelength)	uncertainty
293.15	0	1.45248	0.00033
293.15	0.1056	1.45102	0.00033
293.15	0.2069	1.44922	0.00032
293.15	0.3104	1.44588	0.00032
293.15	0.4844	1.44221	0.00032
293.15	0.5016	1.44121	0.00032
293.15	0.5952	1.4346	0.00032
293.15	0.6016	1.43464	0.00032
293.15	0.6788	1.42813	0.00032
293.15	0.7835	1.41874	0.00032
293.15	0.8184	1.41353	0.00032
293.15	0.8473	1.40762	0.00032
293.15	0.8719	1.40038	0.00032
293.15	0.8926	1.39232	0.00032
293.15	0.9106	1.387	0.00032
293.15	0.9254	1.37665	0.00032
293.15	0.9303	1.37778	0.00031
293.15	0.9391	1.37396	0.00031
293.15	0.951	1.36871	0.00032
293.15	0.9599	1.36106	0.00032
293.15	0.9708	1.35328	0.00031
293.15	0.979	1.34824	0.00031
293.15	0.9867	1.3421	0.00031
293.15	0.9936	1.33593	0.00031
293.15	1	1.33018	0.00031
298.15	0	1.45075	0.00033
298.15	0.1056	1.44937	0.00033
298.15	0.2069	1.44768	0.00032
298.15	0.3104	1.44445	0.00032
298.15	0.4844	1.44065	0.00032
298.15	0.5016	1.43966	0.00032
298.15	0.5952	1.43307	0.00032
298.15	0.6016	1.4331	0.00032
298.15	0.6788	1.42668	0.00032
298.15	0.7835	1.41733	0.00032
298.15	0.8184	1.41213	0.00032
298.15	0.8473	1.40596	0.00032
298.15	0.8719	1.39912	0.00032
298.15	0.8926	1.39147	0.00032
298.15	0.9106	1.38588	0.00032
298.15	0.9254	1.37553	0.00032
298.15	0.9303	1.37697	0.00031
298.15	0.9391	1.3729	0.00032
298.15	0.951	1.3662	0.00032
298.15	0.9599	1.36035	0.00031
298.15	0.9708	1.35254	0.00031
298.15	0.979	1.34751	0.00031
298.15	0.9867	1.34153	0.00031
298.15	0.9936	1.3354	0.00031
298.15	1	1.32956	0.00031
303.15	0	1.44903	0.00033
303.15	0.1056	1.44768	0.00033
303.15	0.2069	1.44609	0.00032
303.15	0.3104	1.44246	0.00032
303.15	0.4844	1.43906	0.00032
303.15	0.5016	1.4381	0.00032
303.15	0.5952	1.43153	0.00032
303.15	0.6016	1.43165	0.00032
303.15	0.6788	1.4252	0.00032
303.15	0.7835	1.41598	0.00032
303.15	0.8184	1.41081	0.00032
303.15	0.8473	1.40454	0.00032
303.15	0.8719	1.39777	0.00032
303.15	0.8926	1.39029	0.00032
303.15	0.9106	1.38476	0.00032
303.15	0.9254	1.37461	0.00032
303.15	0.9303	1.37597	0.00031
303.15	0.9391	1.37201	0.00031
303.15	0.951	1.36548	0.00031
303.15	0.9599	1.35966	0.00031
303.15	0.9708	1.35178	0.00031
303.15	0.979	1.34683	0.00031
303.15	0.9867	1.34092	0.00031
303.15	0.9936	1.33481	0.00031
303.15	1	1.32898	0.00031
308.15	0	1.44737	0.00033
308.15	0.1056	1.44608	0.00033
308.15	0.2069	1.4451	0.00032
308.15	0.3104	1.44202	0.00032
308.15	0.4844	1.43745	0.00032
308.15	0.5016	1.43653	0.00032
308.15	0.5952	1.42998	0.00032
308.15	0.6016	1.43023	0.00032
308.15	0.6788	1.42374	0.00032
308.15	0.7835	1.41536	0.00032
308.15	0.8184	1.40951	0.00032
308.15	0.8473	1.40326	0.00032
308.15	0.8719	1.39653	0.00032
308.15	0.8926	1.38904	0.00032
308.15	0.9106	1.38371	0.00032
308.15	0.9254	1.37409	0.00032
308.15	0.9303	1.37498	0.00031
308.15	0.9391	1.37137	0.00031
308.15	0.951	1.36496	0.00031
308.15	0.9599	1.35875	0.00031
308.15	0.9708	1.35119	0.00031
308.15	0.979	1.34647	0.00031
308.15	0.9867	1.34023	0.00031
308.15	0.9936	1.33425	0.00031
308.15	1	1.32834	0.00031
313.15	0	1.44561	0.00033
313.15	0.1056	1.44445	0.00033
313.15	0.2069	1.44288	0.00033
313.15	0.3104	1.4404	0.0003
313.15	0.4844	1.43766	0.00033
313.15	0.5016	1.43492	0.00033
313.15	0.5952	1.42848	0.00032
313.15	0.6016	1.42809	0.00032
313.15	0.6788	1.42243	0.00032
313.15	0.7835	1.41372	0.00032
313.15	0.8184	1.40776	0.00032
313.15	0.8473	1.40231	0.00032
313.15	0.8719	1.39559	0.00032
313.15	0.8926	1.3884	0.0003
313.15	0.9106	1.38313	0.00032
313.15	0.9254	1.37376	0.00032
313.15	0.9303	1.37435	0.00032
313.15	0.9391	1.37112	0.00031
313.15	0.951	1.36471	0.00032
313.15	0.9599	1.35747	0.00031
313.15	0.9708	1.35066	0.00031
313.15	0.979	1.3461	0.00031
313.15	0.9867	1.33932	0.00031
313.15	0.9936	1.33361	0.00031
313.15	1	1.32764	0.00031
