Measured thermophysical data. Solubility of glucose in tetrabutylammonium bromide based deep eutectic solvents: Experimental and molecular dynamic simulations
Source: Fluid Phase Equilib., 2017, 10.1016/j.fluid.2017.05.024
Compound 1: D-glucose, C6H12O6, InChI=1S/C6H12O6/c7-1-3(9)5(11)6(12)4(10)2-8/h1,3-6,8-12H,2H2/t3-,4+,5+,6+/m0/s1, purity 99.5%
Compound 2: tetrabutylammonium bromide, C16H36BrN, InChI=1S/C16H36N.BrH/c1-5-9-13-17(14-10-6-2,15-11-7-3)16-12-8-4;/h5-16H2,1-4H3;1H/q+1;/p-1, purity 99%
Compound 3: 1H-imidazole, C3H4N2, InChI=1S/C3H4N2/c1-2-5-3-4-1/h1-3H,(H,4,5), purity 99%
Compound 4: 1,2-ethanediol, C2H6O2, InChI=1S/C2H6O2/c3-1-2-4/h3-4H,1-2H2, purity 98%
Compound 5: glycerol, C3H8O3, InChI=1S/C3H8O3/c4-1-3(6)2-5/h3-6H,1-2H2, purity 98%

System: 1,2-ethanediol; phases: Liquid
Property: Mass density, kg/m3 (Liquid); method: Vibrating tube method
Pressure, kPa	Temperature, K	Mass density, kg/m3	uncertainty
100	298.15	1112.1	1.4

System: glycerol; phases: Liquid
Property: Mass density, kg/m3 (Liquid); method: Pycnometric method
Temperature, K	Pressure, kPa	Mass density, kg/m3	uncertainty
298.15	101.325	1262	2

System: 1H-imidazole + tetrabutylammonium bromide; phases: Liquid
Property: Mass density, kg/m3 (Liquid); method: Vibrating tube method
Mole fraction of tetrabutylammonium bromide	Pressure, kPa	Temperature, K	Mass density, kg/m3	uncertainty
0.333	100	298.15	1092.2	1

System: 1,2-ethanediol + tetrabutylammonium bromide; phases: Liquid
Fixed: Pressure, kPa = 100
Fixed: Temperature, K = 298.15
Property: Mass density, kg/m3 (Liquid); method: Vibrating tube method
Mole fraction of tetrabutylammonium bromide	Mass density, kg/m3	uncertainty
0.2	1069.1	1.2
0	1112.1	1.4

System: glycerol + tetrabutylammonium bromide; phases: Liquid
Property: Mass density, kg/m3 (Liquid); method: Vibrating tube method
Mole fraction of tetrabutylammonium bromide	Pressure, kPa	Temperature, K	Mass density, kg/m3	uncertainty
0.2	100	298.15	1137.1	1.3

System: D-glucose + 1H-imidazole + tetrabutylammonium bromide; phases: Liquid
Property: Mass density, kg/m3 (Liquid); method: Vibrating tube method
Solvent: Mole fraction of tetrabutylammonium bromide	Mole fraction of D-glucose	Pressure, kPa	Temperature, K	Mass density, kg/m3	uncertainty
0.2	0.115	100	298.15	1119.2	1

System: D-glucose + 1H-imidazole + tetrabutylammonium bromide; phases: Liquid, Crystal
Fixed: Pressure, kPa = 101
Fixed: Solvent: Mole fraction of tetrabutylammonium bromide = 0.333
Property: Mole fraction of D-glucose (Liquid); method: HPLC
Temperature, K	Mole fraction of D-glucose	uncertainty
299.15	0.127	0.006
313.15	0.182	0.006
323.15	0.2172	0.0128
333.15	0.2484	0.0159
343.15	0.2078	0.0159
353.15	0.1597	0.0255

System: D-glucose + 1,2-ethanediol + tetrabutylammonium bromide; phases: Liquid, Crystal
Fixed: Pressure, kPa = 101
Fixed: Solvent: Mole fraction of tetrabutylammonium bromide = 0.2
Property: Mole fraction of D-glucose (Liquid); method: HPLC
Temperature, K	Mole fraction of D-glucose	uncertainty
299.15	0.0202	0.0064
313.15	0.0573	0.0032
323.15	0.0925	0.0096
333.15	0.1208	0.0127
343.15	0.1522	0.0096
353.15	0.1867	0.0096

System: D-glucose + glycerol + tetrabutylammonium bromide; phases: Liquid, Crystal
Fixed: Pressure, kPa = 101
Fixed: Solvent: Mole fraction of tetrabutylammonium bromide = 0.2
Property: Mole fraction of D-glucose (Liquid); method: HPLC
Temperature, K	Mole fraction of D-glucose	uncertainty
299.15	0.0375	0.0033
313.15	0.0854	0.0064
323.15	0.1112	0.0064
333.15	0.1402	0.0064
343.15	0.1951	0.0064
353.15	0.2231	0.0096
