Measured thermophysical data. An Isothermal vapour-liquid equilibrium data for the binary systems of CHF3 with (n-nonane, n-decane, or n-undecane) and C2F6 with (n-nonane or n-decane)
Source: Fluid Phase Equilib., 2018, 10.1016/j.fluid.2018.02.015
Compound 1: trifluoromethane, CHF3, InChI=1S/CHF3/c2-1(3)4/h1H, purity 99.9%
Compound 2: hexafluoroethane, C2F6, InChI=1S/C2F6/c3-1(4,5)2(6,7)8, purity 99.9%
Compound 3: nonane, C9H20, InChI=1S/C9H20/c1-3-5-7-9-8-6-4-2/h3-9H2,1-2H3, purity 99%
Compound 4: decane, C10H22, InChI=1S/C10H22/c1-3-5-7-9-10-8-6-4-2/h3-10H2,1-2H3, purity 99%
Compound 5: undecane, C11H24, InChI=1S/C11H24/c1-3-5-7-9-11-10-8-6-4-2/h3-11H2,1-2H3, purity 99%

System: nonane; phases: Liquid
Fixed: Pressure, kPa = 99.9
Property: Mass density, kg/m3 (Liquid); method: Vibrating tube method
Temperature, K	Mass density, kg/m3	uncertainty
293.15	717.883	0.33
294.15	716.601	0.292
295.15	715.824	0.259
296.15	715.045	0.259
297.15	714.268	0.248
298.15	713.689	0.238

System: nonane; phases: Liquid
Fixed: Pressure, kPa = 99.9
Property: Refractive index (Na D-line) (Liquid); method: Standard Abbe refractometry
Temperature, K	Refractive index (Na D-line)	uncertainty
293.15	1.40595	0.00049
298.15	1.40329	0.00049

System: decane; phases: Liquid
Fixed: Pressure, kPa = 99.9
Property: Mass density, kg/m3 (Liquid); method: Vibrating tube method
Temperature, K	Mass density, kg/m3	uncertainty
293.15	729.762	0.329
294.15	728.496	0.292
295.15	727.738	0.26
296.15	726.983	0.26
297.15	726.227	0.26
298.15	725.467	0.26
299.62	724.355	0.26

System: decane; phases: Liquid
Fixed: Pressure, kPa = 99.9
Property: Refractive index (Na D-line) (Liquid); method: Standard Abbe refractometry
Temperature, K	Refractive index (Na D-line)	uncertainty
293.15	1.41196	0.0005
298.15	1.40964	0.0005

System: undecane; phases: Liquid
Fixed: Pressure, kPa = 99.9
Property: Mass density, kg/m3 (Liquid); method: Vibrating tube method
Temperature, K	Mass density, kg/m3	uncertainty
293.15	739.96	0.29
295.15	737.96	0.27
297.15	736.48	0.25
298.15	735.73	0.25
299.75	734.56	0.25

System: undecane; phases: Liquid
Fixed: Pressure, kPa = 99.9
Property: Refractive index (Na D-line) (Liquid); method: Standard Abbe refractometry
Temperature, K	Refractive index (Na D-line)	uncertainty
293.15	1.41726	0.00049
298.15	1.41502	0.00049

System: trifluoromethane + nonane; phases: Gas, Liquid mixture 1
Property: Vapor or sublimation pressure, kPa (Gas); method: Closed cell (Static) method
Mole fraction of trifluoromethane	Temperature, K	Vapor or sublimation pressure, kPa	uncertainty
0.076	272.91	1050	30
0.113	272.94	1310	26
0.134	272.91	1540	30
0.165	272.9	1809	35
0.186	272.92	1989	42
0.218	272.93	2235	40
0.248	272.9	2478	50
0.077	282.98	1117	43
0.128	282.99	1663	43
0.156	282.99	1967	52
0.195	282.97	2355	51
0.231	282.97	2716	49
0.27	282.96	3069	56
0.283	282.98	3188	56
0.078	293.06	1189	37
0.125	293.07	1778	52
0.15	293.06	2114	53
0.182	293.06	2517	49
0.217	293.05	2929	56
0.258	293.04	3351	66
0.285	293.05	3674	80
0.321	293.05	4015	39
0.318	293.07	4031	38
0.074	303.13	1257	43
0.118	303.15	1884	57
0.145	303.14	2245	56
0.176	303.14	2674	56
0.209	303.13	3125	71
0.243	303.11	3603	84
0.272	303.13	3989	93
0.316	303.14	4557	93
0.344	303.14	4938	112
0.352	303.14	5059	107
0.05	313.23	1029	47
0.121	313.23	2146	61
0.168	313.23	2815	59
0.202	313.21	3305	74
0.238	313.2	3831	94
0.262	313.22	4232	92
0.303	313.24	4821	92
0.34	313.24	5410	131
0.366	313.24	6000	520
0.373	313.23	6247	115
0.37	313.24	6297	263

System: trifluoromethane + nonane; phases: Gas, Liquid mixture 1
Property: Mole fraction of trifluoromethane (Gas); method: Closed cell (Static) method
Mole fraction of trifluoromethane	Temperature, K	Mole fraction of trifluoromethane	uncertainty
0.076	272.91	0.996	0.001
0.113	272.94	0.998	0.001
0.134	272.91	0.997	0.001
0.165	272.9	0.9992	0.0006
0.186	272.92	0.9993	0.0001
0.218	272.93	0.999	0.0004
0.248	272.9	0.999	0.001
0.077	282.98	0.9897	0.0005
0.128	282.99	0.9968	0.0011
0.156	282.99	0.998	0.0005
0.195	282.97	0.9981	0.0005
0.231	282.97	0.9967	0.0013
0.27	282.96	0.9993	0.0003
0.283	282.98	0.9986	0.0005
0.078	293.06	0.9939	0.0011
0.125	293.07	0.9975	0.001
0.15	293.06	0.9979	0.0002
0.182	293.06	0.9979	0.0003
0.217	293.05	0.9985	0.0008
0.258	293.04	0.9984	0.0016
0.285	293.05	0.9993	0.0005
0.321	293.05	0.9988	0.0009
0.318	293.07	0.999	0.001
0.074	303.13	0.9942	0.0005
0.118	303.15	0.9972	0.0012
0.145	303.14	0.9979	0.0009
0.176	303.14	0.9977	0.0006
0.209	303.13	0.9984	0.0006
0.243	303.11	0.998	0.0008
0.272	303.13	0.9988	0.0004
0.316	303.14	0.9976	0.0009
0.344	303.14	0.9987	0.0004
0.352	303.14	0.9982	0.0008
0.05	313.23	0.9957	0.0005
0.121	313.23	0.9946	0.0008
0.168	313.23	0.9963	0.001
0.202	313.21	0.9982	0.0011
0.238	313.2	0.9973	0.0006
0.262	313.22	0.9973	0.0007
0.303	313.24	0.9978	0.0005
0.34	313.24	0.9976	0.0005
0.366	313.24	0.9954	0.0046
0.373	313.23	0.9918	0.0039
0.37	313.24	0.9901	0.0039

System: trifluoromethane + nonane; phases: Gas, Liquid
Property: Vapor or sublimation pressure, kPa (Gas); method: Closed cell (Static) method
Temperature, K	Mole fraction of trifluoromethane	Vapor or sublimation pressure, kPa	uncertainty
293.16	0.125	1778	37
293.14	0.195	2623	15
293.14	0.286	3667	18
303.18	0.125	1908	42
303.16	0.195	2899	18
303.16	0.286	4092	19
313.21	0.125	2130	42
313.2	0.195	3097	19
313.19	0.286	4560	25

System: trifluoromethane + nonane; phases: Gas, Liquid mixture 2
Property: Vapor or sublimation pressure, kPa (Gas); method: Closed cell (Static) method
Mole fraction of trifluoromethane	Temperature, K	Vapor or sublimation pressure, kPa	uncertainty
0.989	272.9	2478	21
0.9942	272.91	2526	12
0.9944	272.91	2527	10
0.973	282.98	3188	13
0.9932	283	3241	16
0.9964	283	3270	13
0.98	293.07	4031	15
0.989	293.08	4092	20
0.9909	303.17	5097	19
0.988	303.14	5059	21

System: trifluoromethane + nonane; phases: Gas, Liquid mixture 2
Property: Mole fraction of trifluoromethane (Gas); method: Closed cell (Static) method
Mole fraction of trifluoromethane	Temperature, K	Mole fraction of trifluoromethane	uncertainty
0.989	272.9	0.999	0.001
0.9942	272.91	0.9999	0.0001
0.9944	272.91	0.9999	0.0001
0.973	282.98	0.9986	0.0004
0.9932	283	0.9997	0.0002
0.9964	283	0.9995	0.0001
0.98	293.07	0.999	0.0009
0.989	293.08	0.9994	0.0001
0.9909	303.17	0.9947	0.0004
0.988	303.14	0.9982	0.0014

System: trifluoromethane + decane; phases: Gas, Liquid
Property: Vapor or sublimation pressure, kPa (Gas); method: Closed cell (Static) method
Temperature, K	Mole fraction of trifluoromethane	Vapor or sublimation pressure, kPa	uncertainty
292.97	0.034	556	138
292.99	0.063	1000	112
292.98	0.08	1290	118
292.98	0.095	1535	192
292.98	0.118	1949	145
292.97	0.142	2214	79
292.96	0.18	2745	119
292.97	0.222	3399	102
292.96	0.263	3941	36
292.96	0.317	4182	36
303.1	0.034	594	146
303.08	0.063	1063	118
303.1	0.08	1375	126
303.1	0.095	1634	205
303.1	0.118	2074	150
303.09	0.142	2329	90
303.1	0.18	2973	131
303.09	0.222	3635	114
303.08	0.263	4313	53
303.09	0.317	4857	51
303.09	0.398	5254	32
313.06	0.034	630	155
313.07	0.063	1124	125
313.07	0.08	1453	125
313.06	0.095	1691	191
313.08	0.142	2512	105
313.07	0.18	3170	127
313.06	0.222	3776	128
313.05	0.263	4678	67
313.08	0.317	5348	115
313.07	0.398	6808	83
323.06	0.034	659	162
323.07	0.063	1179	132
323.09	0.08	1528	117
323.1	0.095	1709	208
323.08	0.142	2667	118
323.1	0.18	3359	139
323.08	0.222	4046	131
323.07	0.263	4898	65
323.1	0.317	5551	159
323.08	0.398	7877	146

System: trifluoromethane + undecane; phases: Gas, Liquid
Property: Vapor or sublimation pressure, kPa (Gas); method: Closed cell (Static) method
Temperature, K	Mole fraction of trifluoromethane	Vapor or sublimation pressure, kPa	uncertainty
292.97	0.04	724	137
292.97	0.05	895	154
292.97	0.091	1465	124
292.95	0.138	2246	116
292.97	0.19	2898	126
292.97	0.253	4039	44
292.97	0.267	4135	20
292.96	0.319	4188	18
303.1	0.04	789	140
303.09	0.05	954	148
303.08	0.091	1571	131
303.09	0.138	2380	126
303.09	0.19	3120	141
303.1	0.253	4379	99
303.08	0.267	4579	99
303.09	0.319	5406	47
303.09	0.418	5915	27
313.07	0.04	826	142
313.07	0.05	1008	162
313.07	0.091	1655	135
313.06	0.138	2486	135
313.07	0.19	3322	151
313.07	0.253	4634	95
313.07	0.267	4865	121
313.06	0.319	5937	108
313.07	0.418	8040	59
323.07	0.04	879	142
323.09	0.05	1056	160
323.08	0.091	1750	145
323.08	0.138	2642	143
323.09	0.19	3513	161
323.09	0.253	4929	118
323.08	0.267	5200	127
323.08	0.319	6307	133
323.09	0.418	9112	90

System: hexafluoroethane + nonane; phases: Gas, Liquid
Property: Vapor or sublimation pressure, kPa (Gas); method: Closed cell (Static) method
Temperature, K	Mole fraction of hexafluoroethane	Vapor or sublimation pressure, kPa	uncertainty
292.98	0.016	470	12
292.97	0.027	619	12
292.96	0.055	1204	13
292.96	0.067	1479	13
292.96	0.089	1992	14
292.98	0.111	2373	14
292.99	0.137	2842	15
292.97	0.166	2981	15
303.1	0.016	501	12
303.09	0.027	650	12
303.08	0.055	1294	13
303.08	0.067	1576	13
303.08	0.089	2140	14
303.09	0.111	2530	15
303.08	0.137	3033	15
303.1	0.166	3610	17
303.08	0.17	3844	17
313.07	0.016	531	12
313.05	0.027	646	12
313.06	0.055	1379	13
313.06	0.067	1658	13
313.04	0.089	2272	14
313.06	0.111	2678	15
313.07	0.137	3201	16
313.08	0.166	3797	17
313.06	0.17	4759	19
323.08	0.016	556	12
323.09	0.027	675	12
323.07	0.055	1445	13
323.1	0.067	1738	13
323.07	0.089	2393	14
323.09	0.111	2800	15
323.08	0.137	3362	16
323.09	0.166	3959	17
323.08	0.17	4756	19

System: hexafluoroethane + decane; phases: Gas, Liquid mixture 1
Property: Vapor or sublimation pressure, kPa (Gas); method: Closed cell (Static) method
Mole fraction of hexafluoroethane	Temperature, K	Vapor or sublimation pressure, kPa	uncertainty
0.038	293.13	979	7
0.049	293.13	1267	7
0.062	293.14	1584	10
0.075	293.14	1925	8
0.098	293.13	2365	10
0.108	293.13	2692	10
0.115	293.13	2959	11
0.116	293.13	2983	11
0.117	293.14	3367	15
0.032	303.15	896	5
0.049	303.14	1271	8
0.052	303.14	1428	6
0.072	303.14	1988	10
0.087	303.14	2356	12
0.101	303.14	2767	11
0.111	303.14	3201	13
0.123	303.15	3628	14
0.13	303.15	4412	16
0.035	313.17	993	5
0.053	313.17	1456	9
0.079	313.17	2133	14
0.096	313.17	2653	11
0.108	313.17	3089	13
0.125	313.17	3540	16
0.141	313.17	4164	16
0.146	313.16	4596	17
0.152	313.17	5441	20

System: hexafluoroethane + decane; phases: Gas, Liquid mixture 1
Property: Mole fraction of hexafluoroethane (Gas); method: Closed cell (Static) method
Mole fraction of hexafluoroethane	Temperature, K	Mole fraction of hexafluoroethane	uncertainty
0.038	293.13	0.993	0.003
0.049	293.13	0.994	0.004
0.062	293.14	0.992	0.005
0.075	293.14	0.994	0.001
0.098	293.13	0.991	0.002
0.108	293.13	0.99	0.004
0.115	293.13	0.989	0.005
0.116	293.13	0.989	0.002
0.032	303.15	0.994	0.001
0.049	303.14	0.996	0.004
0.052	303.14	0.996	0.001
0.072	303.14	0.994	0.001
0.087	303.14	0.993	0.001
0.101	303.14	0.994	0.001
0.111	303.14	0.994	0.001
0.123	303.15	0.996	0.001
0.13	303.15	0.989	0.004
0.035	313.17	0.996	0.001
0.053	313.17	0.995	0.001
0.079	313.17	0.997	0.001
0.096	313.17	0.995	0.001
0.108	313.17	0.995	0.001
0.125	313.17	0.994	0.001
0.141	313.17	0.993	0.001
0.146	313.16	0.993	0.002
0.152	313.17	0.988	0.004

System: hexafluoroethane + decane; phases: Gas, Liquid mixture 2
Property: Mole fraction of hexafluoroethane (Gas); method: Closed cell (Static) method
Mole fraction of hexafluoroethane	Temperature, K	Mole fraction of hexafluoroethane	uncertainty
0.983	293.13	0.989	0.002

System: hexafluoroethane + decane; phases: Gas, Liquid mixture 2
Property: Vapor or sublimation pressure, kPa (Gas); method: Closed cell (Static) method
Mole fraction of hexafluoroethane	Temperature, K	Vapor or sublimation pressure, kPa	uncertainty
0.983	293.13	2983	11
