Measured thermophysical data. Phase equilibrium for ternary liquid systems of water + di-(2- ethylhexyl)phosphoric acid + organic diluents: Thermodynamic study
Source: Fluid Phase Equilib., 2015, 10.1016/j.fluid.2015.05.017
Compound 1: heptane, C7H16, InChI=1S/C7H16/c1-3-5-7-6-4-2/h3-7H2,1-2H3, purity 99%
Compound 2: bis(2-ethylhexyl) hydrogen phosphate, C16H35O4P, InChI=1S/C16H35O4P/c1-5-9-11-15(7-3)13-19-21(17,18)20-14-16(8-4)12-10-6-2/h15-16H,5-14H2,1-4H3,(H,17,18), purity 98.5%
Compound 3: water, H2O, InChI=1S/H2O/h1H2, purity 99.8%
Compound 4: chlorobenzene, C6H5Cl, InChI=1S/C6H5Cl/c7-6-4-2-1-3-5-6/h1-5H, purity 99.5%
Compound 5: octan-1-ol, C8H18O, InChI=1S/C8H18O/c1-2-3-4-5-6-7-8-9/h9H,2-8H2,1H3, purity 99%

System: heptane + bis(2-ethylhexyl) hydrogen phosphate + water; phases: Liquid mixture 1, Liquid mixture 2
Fixed: Pressure, kPa = 100
Property: Mass fraction of bis(2-ethylhexyl) hydrogen phosphate (Liquid mixture 1); method: Titration method
Temperature, K	Mass fraction of water	Mass fraction of bis(2-ethylhexyl) hydrogen phosphate	uncertainty
303.2	0.00017	0	
303.2	0.00159	0.09843	0.06631
303.2	0.00248	0.19776	0.04717
303.2	0.00332	0.29712	0.04755
303.2	0.00424	0.39556	0.05625
303.2	0.00435	0.49767	0.05683
303.2	0.00703	0.59325	0.04425
303.2	0.00742	0.6921	0.04458
303.2	0.00925	0.79059	0.01502
303.2	0.01685	0.88338	0.00771
303.2	0.02399	0.97601	0.00706
303.2	0.99997	0	
303.2	0.9999	0.0001	0.0001
313.2	0.00031	0	
313.2	0.00239	0.09663	0.04013
313.2	0.00368	0.19701	0.04374
313.2	0.00469	0.29417	0.0451
313.2	0.00564	0.39355	0.04976
313.2	0.00641	0.49569	0.05231
313.2	0.00836	0.59094	0.04275
313.2	0.00898	0.69305	0.0424
313.2	0.01087	0.78816	0.01339
313.2	0.01873	0.88141	0.00806
313.2	0.02483	0.97517	0.00856
313.2	0.99995	0	
313.2	0.99984	0.00016	0.00016
323.2	0.00048	0	
323.2	0.00383	0.09699	0.02943
323.2	0.00523	0.19399	0.04417
323.2	0.00631	0.29456	0.04274
323.2	0.00771	0.39274	0.04827
323.2	0.00866	0.49323	0.04658
323.2	0.01021	0.59116	0.04451
323.2	0.01057	0.69339	0.04563
323.2	0.01252	0.78664	0.0165
323.2	0.02077	0.87937	0.00841
323.2	0.02521	0.97479	0.01148
323.2	0.99994	0	
323.2	0.99982	0.00018	0.00018
333.2	0.00069	0	
333.2	0.00519	0.09507	0.02071
333.2	0.00685	0.19364	0.0371
333.2	0.00821	0.29579	0.04058
333.2	0.00958	0.38994	0.03865
333.2	0.01061	0.49228	0.04319
333.2	0.01265	0.58675	0.04264
333.2	0.01256	0.68618	0.04288
333.2	0.01478	0.78424	0.01664
333.2	0.02334	0.87906	0.00927
333.2	0.02577	0.97423	0.02117
333.2	0.99991	0	
333.2	0.9998	0.0001	0.0001

System: heptane + bis(2-ethylhexyl) hydrogen phosphate + water; phases: Liquid mixture 1, Liquid mixture 2
Fixed: Pressure, kPa = 100
Property: Mass fraction of water (Liquid mixture 1); method: Titration method
Property: Mass fraction of bis(2-ethylhexyl) hydrogen phosphate (Liquid mixture 2); method: Titration method
Property: Mass fraction of water (Liquid mixture 2); method: Titration method
Temperature, K	Mass fraction of bis(2-ethylhexyl) hydrogen phosphate	Mass fraction of water	uncertainty	Mass fraction of bis(2-ethylhexyl) hydrogen phosphate	uncertainty	Mass fraction of water	uncertainty
303.2	0.10094	0.00182	0.00056	0.00051	0.00051	0.99947	
323.2	0.29676	0.00638	0.00067	0.00116	0.00054	0.99881	
323.2	0.59436	0.01029	0.00075	0.00213	0.00054	0.99786	
323.2	0.8802	0.02092	0.00091	0.00282	0.00055	0.99717	
333.2	0.09814	0.00533	0.00063	0.0005	0.0005	0.99947	
333.2	0.29362	0.00821	0.0007	0.00116	0.00054	0.99882	
333.2	0.59153	0.01272	0.00112	0.00213	0.00054	0.99786	
333.2	0.87514	0.02302	0.00096	0.00281	0.00055	0.99718	
303.2	0.2998	0.00342	0.00058	0.00117	0.00054	0.99882	
303.2	0.59842	0.00727	0.00061	0.00213	0.00054	0.99786	
303.2	0.88711	0.01744	0.0008	0.00284	0.00055	0.99715	
313.2	0.10015	0.00252	0.00058	0.00051	0.00051	0.99947	
313.2	0.29862	0.00476	0.00063	0.00116	0.00054	0.99882	
313.2	0.59671	0.00845	0.00067	0.00213	0.00054	0.99786	
313.2	0.88417	0.01895	0.00085	0.00282	0.00055	0.99715	
323.2	0.09919	0.00391	0.00062	0.00049	0.00049	0.99947	

System: chlorobenzene + bis(2-ethylhexyl) hydrogen phosphate + water; phases: Liquid mixture 1, Liquid mixture 2
Fixed: Pressure, kPa = 100
Property: Mass fraction of bis(2-ethylhexyl) hydrogen phosphate (Liquid mixture 1); method: Titration method
Temperature, K	Mass fraction of water	Mass fraction of bis(2-ethylhexyl) hydrogen phosphate	uncertainty
303.2	0.00041	0	
303.2	0.00318	0.09939	0.01432
303.2	0.00795	0.19971	0.01479
303.2	0.01108	0.29825	0.02331
303.2	0.01259	0.38952	0.02064
303.2	0.01735	0.49049	0.01902
303.2	0.02191	0.58654	0.01767
303.2	0.02567	0.67818	0.01769
303.2	0.02608	0.77644	0.02566
303.2	0.02582	0.87462	0.04029
303.2	0.02399	0.97601	0.02399
303.2	0.99951	0	
303.2	0.9999	0.0001	0.0001
313.2	0.00113	0	
313.2	0.00435	0.09827	0.01383
313.2	0.00865	0.19158	0.01374
313.2	0.01259	0.28774	0.01946
313.2	0.01459	0.38619	0.01984
313.2	0.01876	0.48196	0.01941
313.2	0.02299	0.57898	0.02228
313.2	0.02654	0.67515	0.02163
313.2	0.02739	0.77392	0.05243
313.2	0.02682	0.87383	0.02795
313.2	0.02483	0.97517	0.0209
313.2	0.99929	0	
313.2	0.99984	0.00016	0.00016
323.2	0.00192	0	
323.2	0.00521	0.0957	0.01331
323.2	0.00976	0.19051	0.01288
323.2	0.01419	0.28617	0.01791
323.2	0.01586	0.38469	0.02107
323.2	0.01996	0.48069	0.01952
323.2	0.02407	0.57669	0.02773
323.2	0.02755	0.67336	0.02119
323.2	0.02846	0.77222	0.04114
323.2	0.02786	0.87295	0.04066
323.2	0.02521	0.97479	0.02425
323.2	0.99903	0	
323.2	0.99982	0.00018	0.00018
333.2	0.00271	0	
333.2	0.00636	0.09416	0.01232
333.2	0.01121	0.18933	0.01227
333.2	0.01591	0.28449	0.01755
333.2	0.01766	0.38289	0.02087
333.2	0.02173	0.47874	0.04204
333.2	0.02586	0.57476	0.03209
333.2	0.02895	0.67197	0.01993
333.2	0.02971	0.77089	0.02844
333.2	0.02897	0.87169	0.05172
333.2	0.02577	0.97423	0.01765
333.2	0.99888	0	
333.2	0.9998	0.0001	0.0001

System: chlorobenzene + bis(2-ethylhexyl) hydrogen phosphate + water; phases: Liquid mixture 2, Liquid mixture 1
Fixed: Pressure, kPa = 100
Property: Mass fraction of bis(2-ethylhexyl) hydrogen phosphate (Liquid mixture 2); method: Titration method
Property: Mass fraction of water (Liquid mixture 1); method: Titration method
Property: Mass fraction of bis(2-ethylhexyl) hydrogen phosphate (Liquid mixture 1); method: Titration method
Temperature, K	Mass fraction of water	Mass fraction of bis(2-ethylhexyl) hydrogen phosphate	uncertainty	Mass fraction of water	uncertainty	Mass fraction of bis(2-ethylhexyl) hydrogen phosphate	uncertainty
303.2	0.99908	0.00053	0.00053	0.00341	0.0006	0.10286	
303.2	0.99872	0.00095	0.00054	0.01098	0.00074	0.29101	
303.2	0.99838	0.00136	0.00055	0.02183	0.00111	0.58199	
303.2	0.99768	0.00221	0.00055	0.02594	0.00093	0.8758	
313.2	0.99899	0.0006	0.00054	0.00457	0.0006	0.10183	
313.2	0.99856	0.00099	0.00054	0.01264	0.00073	0.28907	
313.2	0.99806	0.00143	0.00054	0.02325	0.00089	0.57997	
313.2	0.99749	0.00198	0.00056	0.02695	0.00095	0.87448	
323.2	0.99885	0.00068	0.00054	0.00556	0.00061	0.10063	
323.2	0.99842	0.00105	0.00054	0.01427	0.00076	0.2869	
323.2	0.99787	0.00154	0.00054	0.02434	0.00092	0.5782	
323.2	0.99736	0.00201	0.00054	0.02787	0.00098	0.87308	
333.2	0.99877	0.00072	0.00054	0.00675	0.00062	0.09983	
333.2	0.99834	0.00108	0.00054	0.01601	0.00072	0.2845	
333.2	0.99775	0.00163	0.00054	0.02611	0.00092	0.57547	
333.2	0.99719	0.00212	0.00054	0.02897	0.00101	0.87144	

System: octan-1-ol + bis(2-ethylhexyl) hydrogen phosphate + water; phases: Liquid mixture 1, Liquid mixture 2
Fixed: Pressure, kPa = 100
Property: Mass fraction of bis(2-ethylhexyl) hydrogen phosphate (Liquid mixture 1); method: Titration method
Temperature, K	Mass fraction of water	Mass fraction of bis(2-ethylhexyl) hydrogen phosphate	uncertainty
303.2	0.04932	0	
303.2	0.05198	0.04738	0.00978
303.2	0.05161	0.14999	0.03587
303.2	0.05134	0.24767	0.04132
303.2	0.05099	0.35079	0.05131
303.2	0.05047	0.45341	0.05338
303.2	0.04724	0.55347	0.01896
303.2	0.04207	0.65711	0.01501
303.2	0.03641	0.76467	0.01251
303.2	0.03082	0.86797	0.01008
303.2	0.02399	0.97601	0.00859
303.2	0.99948	0	
303.2	0.9999	0.0001	0.0001
313.2	0.05221	0	
313.2	0.05481	0.04524	0.01048
313.2	0.05446	0.14776	0.06055
313.2	0.05442	0.24521	0.04828
313.2	0.05398	0.34864	0.04793
313.2	0.05422	0.44977	0.02774
313.2	0.05073	0.55115	0.02329
313.2	0.04543	0.65399	0.01519
313.2	0.03993	0.76151	0.01217
313.2	0.03348	0.86411	0.0087
313.2	0.02483	0.97517	0.00688
313.2	0.99935	0	
313.2	0.99984	0.00016	0.00016
323.2	0.05337	0	
323.2	0.05579	0.04429	0.04429
323.2	0.05625	0.1463	0.0207
323.2	0.0568	0.24265	0.03393
323.2	0.05645	0.34623	0.04758
323.2	0.05606	0.44736	0.06122
323.2	0.05298	0.54874	0.02456
323.2	0.04815	0.65109	0.01505
323.2	0.04231	0.75885	0.0118
323.2	0.03564	0.86317	0.0079
323.2	0.02521	0.97479	0.00588
323.2	0.99911	0	
323.2	0.99982	0.00018	0.00018
333.2	0.05625	0	
333.2	0.05865	0.04078	0.04078
333.2	0.05889	0.14352	0.02999
333.2	0.05968	0.24014	0.03875
333.2	0.05946	0.34417	0.05899
333.2	0.05825	0.44781	0.03419
333.2	0.05486	0.54639	0.02254
333.2	0.05096	0.64866	0.01586
333.2	0.04513	0.75608	0.01163
333.2	0.03786	0.86342	0.00732
333.2	0.02577	0.97423	0.00503
333.2	0.99894	0	
333.2	0.9998	0.0001	0.0001

System: octan-1-ol + bis(2-ethylhexyl) hydrogen phosphate + water; phases: Liquid mixture 2, Liquid mixture 1
Fixed: Pressure, kPa = 100
Property: Mass fraction of water (Liquid mixture 2); method: Titration method
Property: Mass fraction of water (Liquid mixture 1); method: Titration method
Property: Mass fraction of bis(2-ethylhexyl) hydrogen phosphate (Liquid mixture 1); method: Titration method
Temperature, K	Mass fraction of bis(2-ethylhexyl) hydrogen phosphate	Mass fraction of water	uncertainty	Mass fraction of water	uncertainty	Mass fraction of bis(2-ethylhexyl) hydrogen phosphate	uncertainty
303.2	0.00059	0.999	0.00054	0.05203	0.00171	0.04679	
303.2	0.00097	0.99869	0.00054	0.05152	0.00178	0.24763	
303.2	0.00156	0.99819	0.00054	0.0475	0.00209	0.55179	
303.2	0.00234	0.99755	0.00054	0.03087	0.00114	0.86886	
313.2	0.00045	0.999	0.00054	0.05488	0.00174	0.04337	
313.2	0.00081	0.99871	0.00054	0.05467	0.00178	0.24319	
313.2	0.00137	0.99828	0.00054	0.05105	0.00167	0.5471	
313.2	0.00224	0.9976	0.00054	0.03359	0.00118	0.86483	
323.2	0.00027	0.99892	0.00054	0.05582	0.00177	0.04148	
323.2	0.00056	0.9987	0.00054	0.05698	0.00184	0.23999	
323.2	0.00111	0.99832	0.00054	0.05327	0.0017	0.54382	
323.2	0.00207	0.99764	0.00054	0.03576	0.00123	0.86163	
333.2	0.00015	0.99884	0.00054	0.05869	0.00191	0.03812	
333.2	0.00042	0.99867	0.00054	0.05974	0.00186	0.23703	
333.2	0.00097	0.9983	0.00054	0.05517	0.00176	0.54086	
333.2	0.00194	0.99767	0.00054	0.03835	0.00131	0.85858	

System: heptane + water; phases: Liquid mixture 1, Liquid mixture 2
Fixed: Pressure, kPa = 100
Property: Mass fraction of water (Liquid mixture 1); method: Titration method
Temperature, K	Mass fraction of water	uncertainty
303.2	0.00017	
303.2	0.99997	
313.2	0.00031	
313.2	0.99995	
323.2	0.00048	
323.2	0.99994	
333.2	0.00069	
333.2	0.99991	

System: bis(2-ethylhexyl) hydrogen phosphate + water; phases: Liquid mixture 1, Liquid mixture 2
Fixed: Pressure, kPa = 100
Property: Mass fraction of bis(2-ethylhexyl) hydrogen phosphate (Liquid mixture 1); method: Titration method
Temperature, K	Mass fraction of bis(2-ethylhexyl) hydrogen phosphate	uncertainty
303.2	0.97601	0.00706
303.2	0.0001	0.0001
313.2	0.97517	0.00856
313.2	0.00016	0.00016
323.2	0.97479	0.01148
323.2	0.00018	0.00018
333.2	0.97423	0.02117

System: chlorobenzene + water; phases: Liquid mixture 1, Liquid mixture 2
Fixed: Pressure, kPa = 100
Property: Mass fraction of water (Liquid mixture 1); method: Titration method
Temperature, K	Mass fraction of water	uncertainty
303.2	0.00041	
303.2	0.99951	
313.2	0.00113	
313.2	0.99929	
323.2	0.00192	
323.2	0.99903	
333.2	0.00271	
333.2	0.99888	

System: octan-1-ol + water; phases: Liquid mixture 1, Liquid mixture 2
Fixed: Pressure, kPa = 100
Property: Mass fraction of water (Liquid mixture 1); method: Titration method
Temperature, K	Mass fraction of water	uncertainty
303.2	0.04932	
303.2	0.99948	
313.2	0.05221	
313.2	0.99935	
323.2	0.05337	
323.2	0.99911	
333.2	0.05625	
333.2	0.99894	
