Measured thermophysical data. Phase equilibria of the binary systems of fenofibrate and dense gases (carbon dioxide, propane, trifluoromethane)
Source: Fluid Phase Equilib., 2018, 10.1016/j.fluid.2018.07.018
Compound 1: fenofibrate, C20H21ClO4, InChI=1S/C20H21ClO4/c1-13(2)24-19(23)20(3,4)25-17-11-7-15(8-12-17)18(22)14-5-9-16(21)10-6-14/h5-13H,1-4H3
Compound 2: carbon dioxide, CO2, InChI=1S/CO2/c2-1-3
Compound 3: propane, C3H8, InChI=1S/C3H8/c1-3-2/h3H2,1-2H3
Compound 4: trifluoromethane, CHF3, InChI=1S/CHF3/c2-1(3)4/h1H

System: fenofibrate; phases: Crystal, Liquid, Air at 1 atmosphere
Property: Normal melting temperature, K (Crystal); method: DTA
Normal melting temperature, K	uncertainty
355.15	1.06

System: fenofibrate + carbon dioxide; phases: Liquid, Crystal, Gas
Property: Triple point temperature, K (Liquid); method: VISOBS
Pressure, kPa	Triple point temperature, K	uncertainty
100	355.03	1.05
840	353.38	1.1
1090	351.83	1.21
1520	350.45	1.16
2010	348.75	1.16
2510	347.55	1.16
2990	346.22	1.31
3490	344.3	1.45
4030	342.38	1.9
4510	339.08	2.25
4920	337.27	1.97
6090	331.97	2.14
7010	328.57	2.62
7300	325.9	2.95
8040	322.98	2.47
10100	315.08	2.4
11030	314.5	1.12
15060	313	1.04
17910	312.68	1.01
19980	313.58	1.24
22660	315.1	1.36
25100	316.51	1.15
27960	316.83	1.06
30390	317.45	1.03
35030	317.73	1.01
37920	317.88	1
39940	317.85	1

System: fenofibrate + carbon dioxide; phases: Gas, Crystal
Property: Mole fraction of fenofibrate (Gas); method: Phase equilibration
Temperature, K	Pressure, kPa	Mole fraction of fenofibrate	uncertainty
303.15	870	2.3e-06	1e-06
303.15	1380	4.1e-06	1.1e-06
303.15	1680	5.9e-06	1.1e-06
303.15	2970	7.6e-06	1.1e-06
303.15	6240	8e-06	1.8e-06
303.15	7310	8.3e-06	1.7e-06
303.15	14770	9.8e-06	2.3e-06
303.15	18400	1.04e-05	2.3e-06
303.15	24940	1.09e-05	2e-06
303.15	34390	1.09e-05	2.3e-06
323.15	760	1.65e-05	1.1e-06
323.15	2230	2.39e-05	9e-07
323.15	8890	4.12e-05	1.2e-06
323.15	12750	5.13e-05	1.6e-06
323.15	15720	5.32e-05	1.6e-06
323.15	19760	5.48e-05	1.7e-06
323.15	24100	4.8e-05	1.6e-06
323.15	33800	5.43e-05	1.7e-06
338.15	130	5.4e-06	1.4e-06
338.15	1050	1.64e-05	1.1e-06
338.15	2620	2.48e-05	8e-07
338.15	5800	3.29e-05	8e-07
338.15	9540	4.09e-05	9e-07
338.15	14500	5.2e-05	1e-06
338.15	18820	5.5e-05	1e-06
338.15	25310	5.47e-05	1.1e-06
338.15	34760	5.52e-05	1e-06

System: fenofibrate + propane; phases: Liquid, Crystal, Gas
Property: Triple point temperature, K (Liquid); method: VISOBS
Pressure, kPa	Triple point temperature, K	uncertainty
100	354.73	1.07
560	353.45	1.12
850	352.08	1.34
1000	350.82	1.4
1320	349.1	1.69
1530	346.43	2.52
1820	342.62	3.13
2050	338.3	1.8
2510	337	1.21
3100	335.15	1
5140	335.55	1
7950	335.43	1
12140	335.13	1
16310	335.65	1
20100	335.63	1
25220	335.7	1
30090	335.7	1.04
35340	337.07	1.17
40640	338.25	1.19

System: fenofibrate + propane; phases: Gas, Crystal
Property: Mole fraction of fenofibrate (Gas); method: Phase equilibration
Temperature, K	Pressure, kPa	Mole fraction of fenofibrate	uncertainty
303.15	430	2.2e-06	1.3e-06
303.15	1660	1.54e-05	1.1e-06
303.15	6140	4.91e-05	1.4e-06
303.15	11030	6.31e-05	3.9e-06
303.15	19810	7.05e-05	5.7e-06
303.15	23830	7.1e-05	5.5e-06
303.15	30330	6.75e-05	5.5e-06
303.15	35550	7.11e-05	5.2e-06
323.15	950	3.6e-06	7e-07
323.15	4800	1.48e-05	1.8e-06
323.15	7040	6.32e-05	2.3e-06
323.15	11320	0.0001339	3.3e-06
323.15	18090	0.0001798	4.3e-06
323.15	20320	0.0001806	4.3e-06
323.15	24410	0.0001778	4.4e-06
323.15	29500	0.0001768	4.4e-06
323.15	34040	0.0001746	4.3e-06
323.15	37040	0.0001741	4.3e-06
338.15	540	8.7e-06	4.5e-06
338.15	2150	7.66e-05	2.8e-06
338.15	7700	0.0001228	4.1e-06
338.15	12940	0.0001628	2.7e-06
338.15	15730	0.0001714	2.7e-06
338.15	20150	0.0001769	2.8e-06
338.15	27670	0.0001781	2.8e-06
338.15	36450	0.0001789	2.8e-06

System: fenofibrate + trifluoromethane; phases: Liquid, Crystal, Gas
Property: Triple point temperature, K (Liquid); method: VISOBS
Pressure, kPa	Triple point temperature, K	uncertainty
100	354.73	1.02
1000	353.4	1.1
1970	349.28	1.1
4920	343.73	1.31
7030	337.78	1.28
10290	335.08	1.11
12290	334.53	1.02
15550	333.98	1
18350	334.1	1
20290	334.28	1
22010	334.3	1
23510	334.33	1
25220	334.43	1.05
27970	335.08	1.17
30310	336	1.03
35010	336.08	1
40270	336.23	1

System: fenofibrate + trifluoromethane; phases: Gas, Crystal
Property: Mole fraction of fenofibrate (Gas); method: Phase equilibration
Temperature, K	Pressure, kPa	Mole fraction of fenofibrate	uncertainty
303.15	370	6.4e-06	8e-07
303.15	1980	1.1e-05	8e-07
303.15	5280	1.81e-05	8e-07
303.15	9010	2.02e-05	7e-07
303.15	13230	2.35e-05	8e-07
303.15	22540	2.78e-05	1.2e-06
303.15	32540	2.72e-05	1.3e-06
323.15	770	5e-07	5e-07
323.15	4830	7.7e-06	8e-07
323.15	11140	1.72e-05	7e-07
323.15	17120	2.52e-05	8e-07
323.15	20400	4.38e-05	1.2e-06
323.15	27850	5.01e-05	1.6e-06
323.15	33470	4.92e-05	1.5e-06
338.15	770	1.4e-06	7e-07
338.15	2510	3.5e-06	7e-07
338.15	5630	6.9e-06	7e-07
338.15	10930	1.48e-05	7e-07
338.15	16110	2.56e-05	1.1e-06
338.15	18900	4.64e-05	1.3e-06
338.15	22170	6.39e-05	1.3e-06
338.15	28780	6.76e-05	1.6e-06
338.15	33030	6.71e-05	1.7e-06
