Measured thermophysical data. Solubility of carbon dioxide in 2-methylbutyric, 2-methylvaleric and 2-methylhexanoic ester oils
Source: Fluid Phase Equilib., 2007, 10.1016/j.fluid.2006.10.022
Compound 1: carbon dioxide, CO2, InChI=1S/CO2/c2-1-3
Compound 2: PEBM7, C33H60O8, InChI=1S/C33H60O8/c1-9-13-17-25(5)29(34)38-21-33(22-39-30(35)26(6)18-14-10-2,23-40-31(36)27(7)19-15-11-3)24-41-32(37)28(8)20-16-12-4/h25-28H,9-24H2,1-8H3
Compound 3: butanoic acid, 2-methyl-, 2,2-bis[(2-methyl-1-oxobutoxy)methyl]-1,3-propanediyl ester, C25H44O8, InChI=1S/C25H44O8/c1-9-17(5)21(26)30-13-25(14-31-22(27)18(6)10-2,15-32-23(28)19(7)11-3)16-33-24(29)20(8)12-4/h17-20H,9-16H2,1-8H3
Compound 4: pentanoic acid, 2-methyl-, 2,2-bis[[(2-methyl-1-oxopentyl)oxy]methyl]-1,3-propanediyl ester (9Cl), C29H52O8, InChI=1S/C29H52O8/c1-9-13-21(5)25(30)34-17-29(18-35-26(31)22(6)14-10-2,19-36-27(32)23(7)15-11-3)20-37-28(33)24(8)16-12-4/h21-24H,9-20H2,1-8H3

System: PEBM7; phases: Liquid
Property: Mass density, kg/m3 (Liquid); method: Pycnometric method
Temperature, K	Pressure, kPa	Mass density, kg/m3	uncertainty
283.15	100	984.6	1.6

System: butanoic acid, 2-methyl-, 2,2-bis[(2-methyl-1-oxobutoxy)methyl]-1,3-propanediyl ester; phases: Liquid
Property: Mass density, kg/m3 (Liquid); method: Pycnometric method
Temperature, K	Pressure, kPa	Mass density, kg/m3	uncertainty
283.15	100	1023.5	1.7

System: pentanoic acid, 2-methyl-, 2,2-bis[[(2-methyl-1-oxopentyl)oxy]methyl]-1,3-propanediyl ester (9Cl); phases: Liquid
Property: Mass density, kg/m3 (Liquid); method: Pycnometric method
Temperature, K	Pressure, kPa	Mass density, kg/m3	uncertainty
283.15	100	998.6	1.6

System: carbon dioxide + butanoic acid, 2-methyl-, 2,2-bis[(2-methyl-1-oxobutoxy)methyl]-1,3-propanediyl ester; phases: Liquid, Gas
Property: Mole fraction of carbon dioxide (Liquid); method: gas volume change
Temperature, K	Pressure, kPa	Mole fraction of carbon dioxide	uncertainty
283.13	2700	0.7489	0.01
283.14	1394	0.5308	0.0161
283.14	1605	0.5755	0.0161
283.14	3350	0.8259	0.008
283.15	897	0.3996	0.0201
283.15	3940	0.8934	0.006
283.15	4360	0.9658	0.0041
283.15	4502	1	0.0001
283.16	185	0.1137	0.0301
283.16	496	0.2587	0.0261
283.16	2040	0.6539	0.0121

System: carbon dioxide + pentanoic acid, 2-methyl-, 2,2-bis[[(2-methyl-1-oxopentyl)oxy]methyl]-1,3-propanediyl ester (9Cl); phases: Liquid, Gas
Property: Mole fraction of carbon dioxide (Liquid); method: gas volume change
Temperature, K	Pressure, kPa	Mole fraction of carbon dioxide	uncertainty
283.11	662	0.332	0.0241
283.11	2888	0.7762	0.01
283.12	1852	0.6283	0.0141
283.13	1252	0.5055	0.0181
283.13	1741	0.6091	0.0141
283.13	2421	0.7172	0.0101
283.14	185	0.1152	0.03
283.15	3379	0.8309	0.008
283.15	4188	0.9233	0.0041
283.15	4320	0.9476	0.0041
283.15	4502	1	0.0001
283.16	802	0.3779	0.0221
283.16	3737	0.8686	0.006
283.16	4016	0.9001	0.006
283.16	4364	0.9591	0.0042

System: carbon dioxide + PEBM7; phases: Liquid, Gas
Property: Mole fraction of carbon dioxide (Liquid); method: gas volume change
Temperature, K	Pressure, kPa	Mole fraction of carbon dioxide	uncertainty
283.13	2933	0.7806	0.008
283.14	1847	0.6315	0.0141
283.14	1850	0.632	0.0141
283.14	2282	0.699	0.0121
283.14	3921	0.8842	0.006
283.14	4368	0.9474	0.0041
283.15	181	0.1173	0.0301
283.15	435	0.2443	0.0261
283.15	701	0.3489	0.0221
283.15	1063	0.4601	0.0201
283.15	1438	0.5511	0.0161
283.15	3428	0.8326	0.008
283.15	3928	0.8837	0.006
283.15	4502	1	0.0001
