Measured thermophysical data. Solid liquid equilibrium of 1-hydroxyethane-1,1-diphosphonic acid in  different solvents
Source: Fluid Phase Equilib., 2013, 10.1016/j.fluid.2012.11.001
Compound 1: etidronic acid, C2H8O7P2, InChI=1S/C2H8O7P2/c1-2(3,10(4,5)6)11(7,8)9/h3H,1H3,(H2,4,5,6)(H2,7,8,9)
Compound 2: ethanol, C2H6O, InChI=1S/C2H6O/c1-2-3/h3H,2H2,1H3, purity 99%
Compound 3: propan-1-ol, C3H8O, InChI=1S/C3H8O/c1-2-3-4/h4H,2-3H2,1H3, purity 99%
Compound 4: propan-2-ol, C3H8O, InChI=1S/C3H8O/c1-3(2)4/h3-4H,1-2H3, purity 99%
Compound 5: acetone, C3H6O, InChI=1S/C3H6O/c1-3(2)4/h1-2H3, purity 99%
Compound 6: acetic acid, C2H4O2, InChI=1S/C2H4O2/c1-2(3)4/h1H3,(H,3,4), purity 99%

System: ethanol + etidronic acid; phases: Liquid, Crystal
Fixed: Pressure, kPa = 101
Property: Mole fraction of etidronic acid (Liquid); method: Gravimetric method
Temperature, K	Mole fraction of etidronic acid	uncertainty
288.45	0.221	0.003
290.65	0.223	0.003
293.15	0.23	0.003
297.65	0.24	0.003
304.25	0.256	0.004
307.7	0.269	0.004
313.45	0.303	0.005
318.25	0.34	0.005
322.95	0.37	0.006
327.95	0.414	0.007

System: propan-1-ol + etidronic acid; phases: Liquid, Crystal
Fixed: Pressure, kPa = 101
Property: Mole fraction of etidronic acid (Liquid); method: Gravimetric method
Temperature, K	Mole fraction of etidronic acid	uncertainty
288.45	0.115	0.001
290.65	0.121	0.001
293.15	0.129	0.001
297.65	0.135	0.001
304.25	0.173	0.002
307.7	0.19	0.002
313.45	0.205	0.002
318.25	0.231	0.002
322.95	0.258	0.003
327.95	0.27	0.003

System: propan-2-ol + etidronic acid; phases: Liquid, Crystal
Fixed: Pressure, kPa = 101
Property: Mole fraction of etidronic acid (Liquid); method: Gravimetric method
Temperature, K	Mole fraction of etidronic acid	uncertainty
288.45	0.151	0.002
290.65	0.159	0.002
293.15	0.158	0.002
297.65	0.177	0.002
307.7	0.216	0.002
313.45	0.247	0.003
318.25	0.28	0.003
322.95	0.294	0.003
327.95	0.324	0.004

System: acetone + etidronic acid; phases: Liquid, Crystal
Fixed: Pressure, kPa = 101
Property: Mole fraction of etidronic acid (Liquid); method: Gravimetric method
Temperature, K	Mole fraction of etidronic acid	uncertainty
288.45	0.007	0.001
290.65	0.00761	0.0004
293.15	0.00768	0.0004
297.65	0.00779	0.0004
304.25	0.00865	0.00041
308.35	0.00921	0.00041
313.45	0.01003	0.00041
322.95	0.01102	0.00041
327.95	0.013	0.001

System: acetic acid + etidronic acid; phases: Liquid, Crystal
Fixed: Pressure, kPa = 101
Property: Mole fraction of etidronic acid (Liquid); method: Gravimetric method
Temperature, K	Mole fraction of etidronic acid	uncertainty
288.45	0.00175	0.0004
290.65	0.00177	0.0004
293.15	0.0018	0.0004
297.65	0.00185	0.0004
304.25	0.00193	0.0004
308.35	0.00199	0.0004
313.45	0.00206	0.0004
318.15	0.00212	0.0004
322.95	0.00219	0.0004
327.95	0.00227	0.0004
