Measured thermophysical data. Solubility and dissolution mechanism of 4-chlorotoluene in subcritical water investigated in a fused silica capillary reactor by in situ Raman spectroscopy
Source: Fluid Phase Equilib., 2016, 10.1016/j.fluid.2016.05.018
Compound 1: 4-chlorotoluene, C7H7Cl, InChI=1S/C7H7Cl/c1-6-2-4-7(8)5-3-6/h2-5H,1H3, purity 98%
Compound 2: water, H2O, InChI=1S/H2O/h1H2, purity 99.8%

System: 4-chlorotoluene + water; phases: Liquid mixture 1, Liquid mixture 2
Fixed: Pressure, kPa = 5000
Property: Mass fraction of 4-chlorotoluene (Liquid mixture 1); method: volumetric determination
Temperature, K	Mass fraction of 4-chlorotoluene	uncertainty
535.45	0.0311	0.0014
537.65	0.0345	0.0016
542.75	0.0414	0.0019
544.85	0.0446	0.0021
548.45	0.0533	0.0024
550.35	0.0553	0.0025
552.35	0.0615	0.0028
554.95	0.0681	0.0031
557.85	0.073	0.0033
558.75	0.0773	0.0035
560.75	0.078	0.0035
563.85	0.0821	0.0037
566.65	0.0869	0.004
566.95	0.0876	0.004
