Measured thermophysical data. Excess molar enthalpies for mixtures of carbon dioxide + a modifier (5 mol% methanol or 1-octanol) and hexane at 308.15K and 12.40MPa
Source: Fluid Phase Equilib., 2006, 10.1016/j.fluid.2005.12.029
Compound 1: carbon dioxide, CO2, InChI=1S/CO2/c2-1-3, purity 99.98%
Compound 2: methanol, CH4O, InChI=1S/CH4O/c1-2/h2H,1H3, purity 99.97%
Compound 3: octan-1-ol, C8H18O, InChI=1S/C8H18O/c1-2-3-4-5-6-7-8-9/h9H,2-8H2,1H3, purity 99.5%
Compound 4: hexane, C6H14, InChI=1S/C6H14/c1-3-5-6-4-2/h3-6H2,1-2H3, purity 99.5%

System: methanol + hexane; phases: Fluid (supercritical or subcritical phases)
Fixed: Pressure, kPa = 12400
Fixed: Temperature, K = 308.15
Property: Excess molar enthalpy (molar enthalpy of mixing), kJ/mol (Fluid (supercritical or subcritical phases)); method: FLOW:UFactor:2
Mole fraction of methanol	Excess molar enthalpy (molar enthalpy of mixing), kJ/mol	uncertainty
0.032	0.255	0.009
0.062	0.339	0.01
0.118	0.404	0.011
0.145	0.474	0.013
0.17	0.489	0.013
0.218	0.523	0.014
0.249	0.541	0.014
0.803	0.473	0.013
0.828	0.448	0.012
0.851	0.409	0.012
0.872	0.367	0.011
0.903	0.304	0.009
0.928	0.248	0.009
0.959	0.145	0.008

System: methanol + hexane; phases: Liquid mixture 1, Liquid mixture 2
Property: Mole fraction of methanol (Liquid mixture 1); method: Derived from Hex data
Temperature, K	Pressure, kPa	Mole fraction of methanol	uncertainty
308.15	12400	0.249	0.02

System: methanol + hexane; phases: Liquid mixture 2, Liquid mixture 1
Property: Mole fraction of methanol (Liquid mixture 2); method: Derived from Hex data
Temperature, K	Pressure, kPa	Mole fraction of methanol	uncertainty
308.15	12400	0.803	0.02

System: hexane + octan-1-ol; phases: Fluid (supercritical or subcritical phases)
Fixed: Pressure, kPa = 12400
Fixed: Temperature, K = 308.15
Property: Excess molar enthalpy (molar enthalpy of mixing), kJ/mol (Fluid (supercritical or subcritical phases)); method: FLOW:UFactor:2
Mole fraction of octan-1-ol	Excess molar enthalpy (molar enthalpy of mixing), kJ/mol	uncertainty
0.033	0.31	0.01
0.05	0.36	0.01
0.101	0.426	0.012
0.153	0.466	0.012
0.206	0.489	0.013
0.3	0.509	0.013
0.397	0.5	0.013
0.447	0.482	0.013
0.503	0.454	0.012
0.602	0.397	0.011
0.653	0.344	0.01
0.696	0.299	0.008
0.749	0.247	0.007
0.789	0.202	0.006
0.858	0.131	0.005
0.904	0.068	0.004
0.928	0.062	0.03
0.952	0.022	0.004

System: methanol + hexane + carbon dioxide; phases: Liquid
Fixed: Pressure, kPa = 12400
Fixed: Temperature, K = 308.15
Property: Excess molar enthalpy (molar enthalpy of mixing), kJ/mol (Liquid); method: FLOW:UFactor:2
Mole fraction of carbon dioxide	Mole fraction of hexane	Excess molar enthalpy (molar enthalpy of mixing), kJ/mol	uncertainty
0.048	0.95	0.17	0.005
0.093	0.902	0.32	0.009
0.156	0.836	0.501	0.013
0.195	0.795	0.626	0.016
0.249	0.738	0.789	0.02
0.299	0.685	0.858	0.022
0.361	0.621	0.954	0.024
0.361	0.621	0.971	0.025
0.403	0.576	1	0.025
0.403	0.576	1.015	0.026
0.454	0.522	1.048	0.027
0.501	0.472	1.081	0.027
0.555	0.416	1.094	0.028
0.603	0.365	1.047	0.026
0.655	0.31	0.992	0.025
0.702	0.261	0.942	0.024
0.75	0.21	0.861	0.022
0.799	0.159	0.72	0.018
0.852	0.103	0.563	0.015
0.899	0.054	0.39	0.01
0.946	0.004	0.154	0.005
0.95	0	0.146	0.005

System: hexane + octan-1-ol + carbon dioxide; phases: Liquid
Fixed: Pressure, kPa = 12400
Fixed: Temperature, K = 308.15
Property: Excess molar enthalpy (molar enthalpy of mixing), kJ/mol (Liquid); method: FLOW:UFactor:2
Mole fraction of carbon dioxide	Mole fraction of hexane	Excess molar enthalpy (molar enthalpy of mixing), kJ/mol	uncertainty
0.048	0.95	0.193	0.009
0.093	0.902	0.336	0.011
0.195	0.795	0.605	0.016
0.249	0.738	0.733	0.019
0.299	0.685	0.854	0.022
0.346	0.636	0.906	0.023
0.403	0.576	0.989	0.025
0.454	0.522	1.024	0.026
0.501	0.472	1.054	0.027
0.555	0.416	1.054	0.027
0.603	0.365	1.032	0.026
0.647	0.319	1.006	0.026
0.702	0.261	0.937	0.024
0.75	0.21	0.822	0.024
0.799	0.159	0.702	0.019
0.852	0.103	0.517	0.015
0.899	0.054	0.351	0.014
0.923	0.028	0.231	0.011
0.95	0	0.097	0.011
