Measured thermophysical data. Measurement of the thermal conductivity of biofuel mixtures: Methyl caprate components of biodiesel and alcohols
Source: Fluid Phase Equilib., 2019, 10.1016/j.fluid.2019.112263
Compound 1: water, H2O, InChI=1S/H2O/h1H2, purity 99.8%
Compound 2: ethanol, C2H6O, InChI=1S/C2H6O/c1-2-3/h3H,2H2,1H3, purity 99.8%
Compound 3: methyl decanoate, C11H22O2, InChI=1S/C11H22O2/c1-3-4-5-6-7-8-9-10-11(12)13-2/h3-10H2,1-2H3, purity 99%
Compound 4: propan-1-ol, C3H8O, InChI=1S/C3H8O/c1-2-3-4/h4H,2-3H2,1H3, purity 99.5%
Compound 5: butan-1-ol, C4H10O, InChI=1S/C4H10O/c1-2-3-4-5/h5H,2-4H2,1H3, purity 99.5%
Compound 6: pentan-1-ol, C5H12O, InChI=1S/C5H12O/c1-2-3-4-5-6/h6H,2-5H2,1H3, purity 99%

System: water; phases: Liquid
Fixed: Pressure, kPa = 101.325
Property: Thermal conductivity, W/m/K (Liquid); method: THOTW
Temperature, K	Thermal conductivity, W/m/K	uncertainty
299.55	0.613	0.0246
309.44	0.6207	0.0249
319.56	0.6399	0.0257
339.38	0.653	0.0262
349.82	0.6704	0.0269

System: ethanol; phases: Liquid
Fixed: Pressure, kPa = 101.325
Property: Thermal conductivity, W/m/K (Liquid); method: THOTW
Temperature, K	Thermal conductivity, W/m/K	uncertainty
276.51	0.1719	0.0069
287.55	0.1677	0.0067
297.25	0.1645	0.0066
307.16	0.1617	0.0065

System: methyl decanoate + propan-1-ol; phases: Liquid
Fixed: Pressure, kPa = 100
Property: Thermal conductivity, W/m/K (Liquid); method: THOTW
Mass fraction of methyl decanoate	Temperature, K	Thermal conductivity, W/m/K	uncertainty
0.2022	287.88	0.1527	0.0061
0.2022	297.73	0.1501	0.006
0.2022	307.71	0.1479	0.0059
0.2022	317.64	0.1459	0.0059
0.2022	327.55	0.1433	0.0058
0.2022	337.58	0.1412	0.0057
0.2022	347.56	0.1382	0.0056
0.2022	357.48	0.1362	0.0055
0.4008	287.9	0.1495	0.006
0.4008	297.77	0.1473	0.0059
0.4008	307.75	0.1453	0.0058
0.4008	317.69	0.1426	0.0057
0.4008	327.59	0.1408	0.0057
0.4008	337.72	0.138	0.006
0.4008	347.64	0.136	0.005
0.4008	357.57	0.1341	0.0054
0.5998	287.9	0.1481	0.006
0.5998	297.95	0.1454	0.0058
0.5998	307.81	0.1435	0.0058
0.5998	317.81	0.1414	0.0057
0.5998	327.56	0.1394	0.0056
0.5998	337.62	0.1371	0.0055
0.5998	347.65	0.1348	0.0054
0.5998	357.51	0.1328	0.0053
0.7993	287.98	0.1462	0.0059
0.7993	297.73	0.1442	0.0058
0.7993	307.77	0.142	0.0057
0.7993	317.74	0.1397	0.0056
0.7993	327.67	0.1374	0.0055
0.7993	337.68	0.1351	0.0054
0.7993	347.65	0.1328	0.0053
0.7993	357.48	0.1299	0.0052

System: methyl decanoate + butan-1-ol; phases: Liquid
Fixed: Pressure, kPa = 100
Property: Thermal conductivity, W/m/K (Liquid); method: THOTW
Mass fraction of methyl decanoate	Temperature, K	Thermal conductivity, W/m/K	uncertainty
0.2001	287.9	0.1497	0.006
0.2001	297.69	0.1473	0.0059
0.2001	307.7	0.145	0.0058
0.2001	317.55	0.1431	0.0058
0.2001	327.62	0.1398	0.0056
0.2001	337.59	0.1379	0.0055
0.2001	347.49	0.1363	0.0055
0.2001	357.56	0.1337	0.0054
0.4002	288.35	0.1476	0.0059
0.4002	297.66	0.1458	0.0059
0.4002	307.74	0.1436	0.0058
0.4002	317.74	0.1418	0.0057
0.4002	327.73	0.1388	0.0056
0.4002	337.59	0.1372	0.0055
0.4002	347.73	0.135	0.0054
0.4002	357.68	0.1325	0.0053
0.599	287.98	0.1468	0.0059
0.599	298	0.1441	0.0058
0.599	307.81	0.1427	0.0057
0.599	317.81	0.1403	0.0056
0.599	327.78	0.1382	0.0056
0.599	337.66	0.136	0.0055
0.599	347.58	0.1339	0.0054
0.599	357.71	0.1317	0.0053
0.8003	287.95	0.146	0.0059
0.8003	297.81	0.1436	0.0058
0.8003	307.86	0.1412	0.0057
0.8003	317.7	0.1395	0.0056
0.8003	327.78	0.137	0.0055
0.8003	337.78	0.1346	0.0054
0.8003	347.8	0.1318	0.0053
0.8003	357.76	0.13	0.0052

System: methyl decanoate + pentan-1-ol; phases: Liquid
Fixed: Pressure, kPa = 100
Property: Thermal conductivity, W/m/K (Liquid); method: THOTW
Mass fraction of methyl decanoate	Temperature, K	Thermal conductivity, W/m/K	uncertainty
0.1941	287.96	0.1495	0.006
0.1941	297.72	0.1477	0.0059
0.1941	307.77	0.1451	0.0058
0.1941	317.86	0.1433	0.0058
0.1941	327.82	0.1408	0.0057
0.1941	337.6	0.1391	0.0056
0.1941	347.79	0.1367	0.0055
0.1941	357.76	0.1345	0.0054
0.4008	287.96	0.1482	0.006
0.4008	297.73	0.1463	0.0059
0.4008	307.74	0.144	0.0058
0.4008	317.73	0.142	0.0057
0.4008	327.58	0.1405	0.0057
0.4008	337.76	0.1373	0.0055
0.4008	347.58	0.1356	0.0055
0.4008	357.66	0.1333	0.0054
0.6035	287.97	0.1467	0.0059
0.6035	297.76	0.1453	0.0058
0.6035	307.72	0.1432	0.0058
0.6035	317.81	0.1406	0.0057
0.6035	327.66	0.1386	0.0056
0.6035	337.61	0.1361	0.0055
0.6035	347.85	0.1336	0.0054
0.6035	357.7	0.132	0.0053
0.8002	288	0.1456	0.0059
0.8002	297.85	0.1433	0.0058
0.8002	307.69	0.1414	0.0057
0.8002	317.74	0.1396	0.0056
0.8002	327.75	0.1366	0.0055
0.8002	337.54	0.1347	0.0054
0.8002	347.61	0.1315	0.0053
0.8002	357.75	0.1299	0.0052
