Measured thermophysical data. Liquid-liquid equilibria for aqueous sulfuric acid solutions with undecane, dodecane, or 1-dodecanol, trioctylamine or tributyl  phosphate and excess and deviation properties for sub-binary systems at 298.15 K
Source: Fluid Phase Equilib., 2013, 10.1016/j.fluid.2013.01.002
Compound 1: tributyl phosphate, C12H27O4P, InChI=1S/C12H27O4P/c1-4-7-10-14-17(13,15-11-8-5-2)16-12-9-6-3/h4-12H2,1-3H3
Compound 2: trioctylamine, C24H51N, InChI=1S/C24H51N/c1-4-7-10-13-16-19-22-25(23-20-17-14-11-8-5-2)24-21-18-15-12-9-6-3/h4-24H2,1-3H3
Compound 3: dodecane, C12H26, InChI=1S/C12H26/c1-3-5-7-9-11-12-10-8-6-4-2/h3-12H2,1-2H3
Compound 4: dodecan-1-ol, C12H26O, InChI=1S/C12H26O/c1-2-3-4-5-6-7-8-9-10-11-12-13/h13H,2-12H2,1H3
Compound 5: undecane, C11H24, InChI=1S/C11H24/c1-3-5-7-9-11-10-8-6-4-2/h3-11H2,1-2H3

System: tributyl phosphate; phases: Liquid
Property: Mass density, kg/m3 (Liquid); method: Vibrating tube method
Temperature, K	Pressure, kPa	Mass density, kg/m3	uncertainty
298.15	101.325	972.69	0.05

System: tributyl phosphate; phases: Liquid
Property: Refractive index (Na D-line) (Liquid); method: Standard Abbe refractometry
Temperature, K	Pressure, kPa	Refractive index (Na D-line)	uncertainty
298.15	101.325	1.4224	0.0004

System: trioctylamine; phases: Liquid
Property: Mass density, kg/m3 (Liquid); method: Vibrating tube method
Temperature, K	Pressure, kPa	Mass density, kg/m3	uncertainty
298.15	101.325	807.9	0.11

System: trioctylamine; phases: Liquid
Property: Refractive index (Na D-line) (Liquid); method: Standard Abbe refractometry
Temperature, K	Pressure, kPa	Refractive index (Na D-line)	uncertainty
298.15	101.325	1.4476	0.0004

System: dodecane; phases: Liquid
Property: Mass density, kg/m3 (Liquid); method: Vibrating tube method
Temperature, K	Pressure, kPa	Mass density, kg/m3	uncertainty
298.15	101.325	745.52	0.13

System: dodecane; phases: Liquid
Property: Refractive index (Na D-line) (Liquid); method: Standard Abbe refractometry
Temperature, K	Pressure, kPa	Refractive index (Na D-line)	uncertainty
298.15	101.325	1.4195	0.0004

System: dodecan-1-ol; phases: Liquid
Property: Mass density, kg/m3 (Liquid); method: Vibrating tube method
Temperature, K	Pressure, kPa	Mass density, kg/m3	uncertainty
298.15	101.325	830.37	0.1

System: dodecan-1-ol; phases: Liquid
Property: Refractive index (Na D-line) (Liquid); method: Standard Abbe refractometry
Temperature, K	Pressure, kPa	Refractive index (Na D-line)	uncertainty
298.15	101.325	1.4407	0.0004

System: undecane; phases: Liquid
Property: Mass density, kg/m3 (Liquid); method: Vibrating tube method
Temperature, K	Pressure, kPa	Mass density, kg/m3	uncertainty
298.15	101.325	736.73	0.14

System: undecane; phases: Liquid
Property: Refractive index (Na D-line) (Liquid); method: Standard Abbe refractometry
Temperature, K	Pressure, kPa	Refractive index (Na D-line)	uncertainty
298.15	101.325	1.415	0.0004

System: dodecane + tributyl phosphate; phases: Liquid
Fixed: Pressure, kPa = 101
Fixed: Temperature, K = 298.15
Property: Mass density, kg/m3 (Liquid); method: Vibrating tube method
Mole fraction of tributyl phosphate	Mass density, kg/m3	uncertainty
0.0497	758.4	0.14
0.0999	771.06	0.13
0.2003	796.01	0.12
0.3001	820.28	0.12
0.4001	843.97	0.11
0.5	867.06	0.1
0.6	889.46	0.09
0.7003	911.2	0.08
0.8001	932.09	0.08
0.9004	952.57	0.07
0.9503	962.59	0.07

System: dodecane + tributyl phosphate; phases: Liquid
Fixed: Pressure, kPa = 101
Fixed: Temperature, K = 298.15
Property: Refractive index (Na D-line) (Liquid); method: Standard Abbe refractometry
Mole fraction of tributyl phosphate	Refractive index (Na D-line)	uncertainty
0.0497	1.4193	0.0004
0.0999	1.4192	0.0004
0.2003	1.4192	0.0004
0.3001	1.4194	0.0004
0.4001	1.4196	0.0004
0.5	1.4199	0.0004
0.6	1.4204	0.0004
0.7003	1.4208	0.0004
0.8001	1.4212	0.0004
0.9004	1.4217	0.0004
0.9503	1.4221	0.0004

System: dodecan-1-ol + tributyl phosphate; phases: Liquid
Fixed: Pressure, kPa = 101
Fixed: Temperature, K = 298.15
Property: Mass density, kg/m3 (Liquid); method: Vibrating tube method
Mole fraction of tributyl phosphate	Mass density, kg/m3	uncertainty
0.05	838.29	0.1
0.1002	846.1	0.1
0.2	861.3	0.09
0.3	876.21	0.09
0.4	890.84	0.08
0.5002	905.19	0.08
0.6002	919.33	0.07
0.6997	933.02	0.07
0.8001	946.59	0.06
0.9004	959.86	0.06
0.9502	966.27	0.06

System: dodecan-1-ol + tributyl phosphate; phases: Liquid
Fixed: Pressure, kPa = 101
Fixed: Temperature, K = 298.15
Property: Refractive index (Na D-line) (Liquid); method: Standard Abbe refractometry
Mole fraction of tributyl phosphate	Refractive index (Na D-line)	uncertainty
0.05	1.4392	0.0004
0.1002	1.4377	0.0004
0.2	1.4352	0.0004
0.3	1.4329	0.0004
0.4	1.4308	0.0004
0.5002	1.429	0.0004
0.6002	1.4274	0.0004
0.6997	1.4259	0.0004
0.8001	1.4246	0.0004
0.9004	1.4234	0.0004
0.9502	1.4229	0.0004

System: tributyl phosphate + undecane; phases: Liquid
Fixed: Pressure, kPa = 101
Fixed: Temperature, K = 298.15
Property: Mass density, kg/m3 (Liquid); method: Vibrating tube method
Mole fraction of tributyl phosphate	Mass density, kg/m3	uncertainty
0.05	751.14	0.14
0.0999	765.09	0.14
0.2001	792.4	0.13
0.2999	818.47	0.12
0.3999	843.46	0.11
0.5001	867.4	0.1
0.5998	890.24	0.09
0.6997	912.19	0.08
0.7999	933.33	0.08
0.8998	953.53	0.07
0.9503	963.33	0.07

System: tributyl phosphate + undecane; phases: Liquid
Fixed: Pressure, kPa = 101
Fixed: Temperature, K = 298.15
Property: Refractive index (Na D-line) (Liquid); method: Standard Abbe refractometry
Mole fraction of tributyl phosphate	Refractive index (Na D-line)	uncertainty
0.05	1.415	0.0004
0.0999	1.4152	0.0004
0.2001	1.4158	0.0004
0.2999	1.4163	0.0004
0.3999	1.417	0.0004
0.5001	1.4178	0.0004
0.5998	1.4188	0.0004
0.6997	1.4197	0.0004
0.7999	1.4206	0.0004
0.8998	1.4216	0.0004
0.9503	1.4219	0.0004

System: dodecane + trioctylamine; phases: Liquid
Fixed: Pressure, kPa = 101
Fixed: Temperature, K = 298.15
Property: Mass density, kg/m3 (Liquid); method: Vibrating tube method
Mole fraction of trioctylamine	Mass density, kg/m3	uncertainty
0.0501	751.32	0.13
0.1	756.64	0.13
0.1998	765.98	0.13
0.3	773.95	0.12
0.4	780.79	0.12
0.5001	786.75	0.12
0.6023	792.12	0.12
0.7001	796.7	0.11
0.8025	801	0.11
0.9002	804.65	0.11
0.9499	806.35	0.11

System: dodecane + trioctylamine; phases: Liquid
Fixed: Pressure, kPa = 101
Fixed: Temperature, K = 298.15
Property: Refractive index (Na D-line) (Liquid); method: Standard Abbe refractometry
Mole fraction of trioctylamine	Refractive index (Na D-line)	uncertainty
0.0501	1.4222	0.0004
0.1	1.4249	0.0004
0.1998	1.4287	0.0004
0.3	1.4323	0.0004
0.4	1.4354	0.0004
0.5001	1.4381	0.0004
0.6023	1.4403	0.0004
0.7001	1.4426	0.0004
0.8025	1.4444	0.0004
0.9002	1.4461	0.0004
0.9499	1.4468	0.0004

System: dodecan-1-ol + trioctylamine; phases: Liquid
Fixed: Pressure, kPa = 101
Fixed: Temperature, K = 298.15
Property: Mass density, kg/m3 (Liquid); method: Vibrating tube method
Mole fraction of trioctylamine	Mass density, kg/m3	uncertainty
0.0498	828.8	0.1
0.1011	827.31	0.1
0.2014	824.49	0.1
0.3012	821.97	0.1
0.4001	819.63	0.1
0.5	817.37	0.11
0.6005	815.19	0.11
0.6995	813.14	0.11
0.799	811.21	0.11
0.8999	809.43	0.11
0.9504	808.63	0.11

System: dodecan-1-ol + trioctylamine; phases: Liquid
Fixed: Pressure, kPa = 101
Fixed: Temperature, K = 298.15
Property: Refractive index (Na D-line) (Liquid); method: Standard Abbe refractometry
Mole fraction of trioctylamine	Refractive index (Na D-line)	uncertainty
0.0498	1.4416	0.0004
0.1011	1.4424	0.0004
0.2014	1.4437	0.0004
0.3012	1.4447	0.0004
0.4001	1.4455	0.0004
0.5	1.4461	0.0004
0.6005	1.4465	0.0004
0.6995	1.4469	0.0004
0.799	1.4473	0.0004
0.8999	1.4475	0.0004
0.9504	1.4476	0.0004

System: trioctylamine + undecane; phases: Liquid
Fixed: Pressure, kPa = 101
Fixed: Temperature, K = 298.15
Property: Mass density, kg/m3 (Liquid); method: Vibrating tube method
Mole fraction of trioctylamine	Mass density, kg/m3	uncertainty
0.05	743.91	0.14
0.1	750.33	0.13
0.2017	761.55	0.13
0.3001	770.56	0.12
0.4002	778.34	0.12
0.4997	785.01	0.12
0.6003	790.89	0.12
0.6989	795.96	0.11
0.7996	800.52	0.11
0.9003	804.51	0.11
0.9497	806.25	0.11

System: trioctylamine + undecane; phases: Liquid
Fixed: Pressure, kPa = 101
Fixed: Temperature, K = 298.15
Property: Refractive index (Na D-line) (Liquid); method: Standard Abbe refractometry
Mole fraction of trioctylamine	Refractive index (Na D-line)	uncertainty
0.05	1.4176	0.0004
0.1	1.4199	0.0004
0.2017	1.4243	0.0004
0.3001	1.4285	0.0004
0.4002	1.4319	0.0004
0.4997	1.4351	0.0004
0.6003	1.438	0.0004
0.6989	1.4407	0.0004
0.7996	1.4434	0.0004
0.9003	1.4455	0.0004
0.9497	1.4466	0.0004
