Measured thermophysical data. Fluorinated surfactants in solution: Diffusion coefficients of fluorinated alcohols in water
Source: Fluid Phase Equilib., 2016, 10.1016/j.fluid.2015.06.006
Compound 1: 2,2,2-trifluoroethanol, C2H3F3O, InChI=1S/C2H3F3O/c3-2(4,5)1-6/h6H,1H2, purity 99%
Compound 2: 2,2,3,3,3-pentafluoropropanol, C3H3F5O, InChI=1S/C3H3F5O/c4-2(5,1-9)3(6,7)8/h9H,1H2, purity 98%
Compound 3: 2,2,3,3,4,4,4-heptafluorobutanol, C4H3F7O, InChI=1S/C4H3F7O/c5-2(6,1-12)3(7,8)4(9,10)11/h12H,1H2, purity 98%
Compound 4: 2,2,3,3,4,4,5,5,5-nonafluoropentan-1-ol, C5H3F9O, InChI=1S/C5H3F9O/c6-2(7,1-15)3(8,9)4(10,11)5(12,13)14/h15H,1H2
Compound 5: water, H2O, InChI=1S/H2O/h1H2, purity 99.9%
Compound 6: water-d2, D2O, InChI=1S/H2O/h1H2/i/hD2, purity 99.9%

System: 2,2,3,3,3-pentafluoropropanol + water; phases: Liquid
Fixed: Pressure, kPa = 100
Property: Binary diffusion coefficient, m2/s (Liquid); method: NMR spin-echo technique
Temperature, K	Mole fraction of 2,2,3,3,3-pentafluoropropanol	Binary diffusion coefficient, m2/s	uncertainty
283.2	0.0005	6.17e-10	0.023
288.2	0.0005	7.28e-10	0.025
293.2	0.0005	8.45e-10	0.028
298.2	0.0005	9.78e-10	0.031
303.2	0.0005	1.127e-09	0.034
308.2	0.0005	1.284e-09	0.038
313.2	0.0005	1.462e-09	0.042
283.2	0.001003	6.15e-10	0.022
288.2	0.001003	7.24e-10	0.025
293.2	0.001003	8.39e-10	0.028
298.2	0.001003	9.64e-10	0.031
303.2	0.001003	1.111e-09	0.034
308.2	0.001003	1.282e-09	0.038
313.2	0.001003	1.486e-09	0.043
283.2	0.004995	5.76e-10	0.022
288.2	0.004995	6.81e-10	0.024
293.2	0.004995	7.92e-10	0.027
298.2	0.004995	9.13e-10	0.029
303.2	0.004995	1.048e-09	0.033
308.2	0.004995	1.203e-09	0.036
313.2	0.004995	1.371e-09	0.04
283.2	0.009677	5.34e-10	0.021
288.2	0.009677	6.34e-10	0.023
293.2	0.009677	7.45e-10	0.025
298.2	0.009677	8.62e-10	0.028
303.2	0.009677	9.9e-10	0.031
308.2	0.009677	1.145e-09	0.035
313.2	0.009677	1.295e-09	0.038

System: 2,2,3,3,4,4,4-heptafluorobutanol + water; phases: Liquid
Fixed: Pressure, kPa = 100
Property: Binary diffusion coefficient, m2/s (Liquid); method: NMR spin-echo technique
Temperature, K	Mole fraction of 2,2,3,3,4,4,4-heptafluorobutanol	Binary diffusion coefficient, m2/s	uncertainty
283.2	0.000122	5.54e-10	0.021
288.2	0.000122	6.5e-10	0.024
293.2	0.000122	7.62e-10	0.027
298.2	0.000122	8.8e-10	0.03
303.2	0.000122	1e-09	0.04
308.2	0.000122	1.17e-09	0.04
313.2	0.000122	1.34e-09	0.07
283.2	0.000259	5.52e-10	0.021
288.2	0.000259	6.51e-10	0.023
293.2	0.000259	7.68e-10	0.026
298.2	0.000259	8.84e-10	0.029
303.2	0.000259	1.009e-09	0.032
308.2	0.000259	1.158e-09	0.035
313.2	0.000259	1.362e-09	0.04
283.2	0.000506	5.53e-10	0.021
288.2	0.000506	6.49e-10	0.023
293.2	0.000506	7.63e-10	0.026
298.2	0.000506	8.76e-10	0.029
303.2	0.000506	1.001e-09	0.032
308.2	0.000506	1.154e-09	0.035
313.2	0.000506	1.323e-09	0.039
283.2	0.000988	5.47e-10	0.021
288.2	0.000988	6.44e-10	0.023
293.2	0.000988	7.54e-10	0.026
298.2	0.000988	8.66e-10	0.028
303.2	0.000988	9.96e-10	0.031
308.2	0.000988	1.13e-09	0.035
313.2	0.000988	1.294e-09	0.038

System: 2,2,3,3,4,4,5,5,5-nonafluoropentan-1-ol + water; phases: Liquid
Fixed: Pressure, kPa = 100
Property: Binary diffusion coefficient, m2/s (Liquid); method: NMR spin-echo technique
Temperature, K	Mole fraction of 2,2,3,3,4,4,5,5,5-nonafluoropentan-1-ol	Binary diffusion coefficient, m2/s	uncertainty
283.2	5.4e-05	5.1e-10	0.04
288.2	5.4e-05	6.1e-10	0.06
293.2	5.4e-05	7e-10	0.05
298.2	5.4e-05	8.1e-10	0.07
303.2	5.4e-05	9.4e-10	0.07
308.2	5.4e-05	1.07e-09	0.07
313.2	5.4e-05	1.24e-09	0.07
283.2	0.000104	5.1e-10	0.03
288.2	0.000104	6e-10	0.03
293.2	0.000104	7e-10	0.03
298.2	0.000104	8.1e-10	0.03
303.2	0.000104	9.2e-10	0.03
308.2	0.000104	1.06e-09	0.04
313.2	0.000104	1.23e-09	0.04

System: 2,2,3,3,4,4,4-heptafluorobutanol + water-d2; phases: Liquid
Fixed: Pressure, kPa = 100
Property: Binary diffusion coefficient, m2/s (Liquid); method: NMR spin-echo technique
Temperature, K	Mole fraction of 2,2,3,3,4,4,4-heptafluorobutanol	Binary diffusion coefficient, m2/s	uncertainty
283.2	0.000124	4.3e-10	0.018
288.2	0.000124	5.09e-10	0.02
293.2	0.000124	5.94e-10	0.022
298.2	0.000124	6.87e-10	0.024
303.2	0.000124	7.86e-10	0.026
308.2	0.000124	8.92e-10	0.029
313.2	0.000124	1.004e-09	0.031
283.2	0.000257	4.29e-10	0.018
288.2	0.000257	5.01e-10	0.02
293.2	0.000257	5.99e-10	0.022
298.2	0.000257	6.91e-10	0.024
303.2	0.000257	7.8e-10	0.026
308.2	0.000257	8.89e-10	0.029
313.2	0.000257	1.03e-09	0.032
283.2	0.00098	4.25e-10	0.018
288.2	0.00098	5.01e-10	0.02
293.2	0.00098	5.88e-10	0.022
298.2	0.00098	6.88e-10	0.024
303.2	0.00098	8.1e-10	0.027
308.2	0.00098	9.92e-10	0.032
313.2	0.00098	1.202e-09	0.037

System: 2,2,2-trifluoroethanol + water-d2; phases: Liquid
Fixed: Pressure, kPa = 100
Property: Binary diffusion coefficient, m2/s (Liquid); method: NMR spin-echo technique
Temperature, K	Mole fraction of 2,2,2-trifluoroethanol	Binary diffusion coefficient, m2/s	uncertainty
283.2	0.001011	5.68e-10	0.021
288.2	0.001011	6.64e-10	0.024
293.2	0.001011	7.8e-10	0.026
298.2	0.001011	9.01e-10	0.029
303.2	0.001011	1.024e-09	0.032
308.2	0.001011	1.159e-09	0.035
313.2	0.001011	1.306e-09	0.039
283.2	0.005038	5.49e-10	0.021
288.2	0.005038	6.46e-10	0.023
293.2	0.005038	7.54e-10	0.026
298.2	0.005038	8.66e-10	0.028
303.2	0.005038	9.89e-10	0.031
308.2	0.005038	1.119e-09	0.034
313.2	0.005038	1.275e-09	0.038
283.2	0.009657	5.27e-10	0.021
288.2	0.009657	6.4e-10	0.023
293.2	0.009657	7.55e-10	0.026
298.2	0.009657	8.69e-10	0.028
303.2	0.009657	9.86e-10	0.031
308.2	0.009657	1.155e-09	0.035
