Measured thermophysical data. Experimentation and thermodynamic representations of binaries containing compounds of low boiling points: Pentane and alkylmethanoates
Source: Fluid Phase Equilib., 2014, 10.1016/j.fluid.2013.11.026
Compound 1: pentane, C5H12, InChI=1S/C5H12/c1-3-5-4-2/h3-5H2,1-2H3, purity 98%
Compound 2: methyl methanoate, C2H4O2, InChI=1S/C2H4O2/c1-4-2-3/h2H,1H3, purity 99%
Compound 3: ethyl methanoate, C3H6O2, InChI=1S/C3H6O2/c1-2-5-3-4/h3H,2H2,1H3, purity 96%
Compound 4: propyl methanoate, C4H8O2, InChI=1S/C4H8O2/c1-2-3-6-4-5/h4H,2-3H2,1H3, purity 96.8%
Compound 5: butyl methanoate, C5H10O2, InChI=1S/C5H10O2/c1-2-3-4-7-5-6/h5H,2-4H2,1H3, purity 96%

System: pentane; phases: Liquid
Fixed: Pressure, kPa = 101.325
Property: Mass density, kg/m3 (Liquid); method: Vibrating tube method
Temperature, K	Mass density, kg/m3	uncertainty
291.15	627.86	0.23
298.15	620.89	0.23

System: pentane; phases: Liquid
Fixed: Pressure, kPa = 101.325
Property: Refractive index (Na D-line) (Liquid); method: Standard Abbe refractometry
Temperature, K	Refractive index (Na D-line)	uncertainty
291.15	1.3589	0.0005
298.15	1.3545	0.0005

System: methyl methanoate; phases: Liquid
Fixed: Pressure, kPa = 101.325
Property: Mass density, kg/m3 (Liquid); method: Vibrating tube method
Temperature, K	Mass density, kg/m3	uncertainty
291.15	977.21	0.24
298.15	966.54	0.24

System: methyl methanoate; phases: Liquid
Fixed: Pressure, kPa = 101.325
Property: Refractive index (Na D-line) (Liquid); method: Standard Abbe refractometry
Temperature, K	Refractive index (Na D-line)	uncertainty
291.15	1.3452	0.0005
298.15	1.3415	0.0005

System: ethyl methanoate; phases: Liquid
Fixed: Pressure, kPa = 101.325
Property: Mass density, kg/m3 (Liquid); method: Vibrating tube method
Temperature, K	Mass density, kg/m3	uncertainty
291.15	923.4	1.24
298.15	914.35	1.22

System: ethyl methanoate; phases: Liquid
Fixed: Pressure, kPa = 101.325
Property: Refractive index (Na D-line) (Liquid); method: Standard Abbe refractometry
Temperature, K	Refractive index (Na D-line)	uncertainty
291.15	1.3614	0.0007
298.15	1.358	0.0007

System: propyl methanoate; phases: Liquid
Fixed: Pressure, kPa = 101.325
Property: Mass density, kg/m3 (Liquid); method: Vibrating tube method
Temperature, K	Mass density, kg/m3	uncertainty
291.15	907.97	1.6
298.15	899.86	1.57

System: propyl methanoate; phases: Liquid
Fixed: Pressure, kPa = 101.325
Property: Refractive index (Na D-line) (Liquid); method: Standard Abbe refractometry
Temperature, K	Refractive index (Na D-line)	uncertainty
291.15	1.3778	0.0008
298.15	1.3752	0.0008

System: butyl methanoate; phases: Liquid
Fixed: Pressure, kPa = 101.325
Property: Mass density, kg/m3 (Liquid); method: Vibrating tube method
Temperature, K	Mass density, kg/m3	uncertainty
291.15	895.86	1.18
298.15	888.47	1.17

System: butyl methanoate; phases: Liquid
Fixed: Pressure, kPa = 101.325
Property: Refractive index (Na D-line) (Liquid); method: Standard Abbe refractometry
Temperature, K	Refractive index (Na D-line)	uncertainty
291.15	1.3904	0.0007
298.15	1.3872	0.0007

System: methyl methanoate + pentane; phases: Liquid, Gas
Property: Azeotropic temperature, K (Liquid); method: By X=Y
Pressure, kPa	Azeotropic temperature, K	uncertainty
101.32	293.88	0.23

System: methyl methanoate + pentane; phases: Liquid, Gas
Property: Azeotropic composition: mole fraction of methyl methanoate (Liquid); method: By X=Y
Pressure, kPa	Azeotropic composition: mole fraction of methyl methanoate	uncertainty
101.32	0.558	0.006

System: methyl methanoate + pentane; phases: Liquid
Fixed: Temperature, K = 291.15
Fixed: Pressure, kPa = 101
Property: Mass density, kg/m3 (Liquid); method: Vibrating tube method
Mole fraction of methyl methanoate	Mass density, kg/m3	uncertainty
0	627.86	0.23
0.091	640.27	0.25
0.102	641.95	0.25
0.147	649.45	0.25
0.206	660.56	0.26
0.27	674.05	0.26
0.309	683.08	0.27
0.371	698.6	0.27
0.393	704.52	0.28
0.416	710.63	0.28
0.451	721.01	0.29
0.488	732.21	0.29
0.506	737.92	0.3
0.559	755.6	0.3
0.618	776.61	0.32
0.695	807.5	0.34
0.759	835.94	0.35
0.786	849.13	0.38
0.827	870.13	0.38
0.84	876.82	0.38
0.941	936.47	0.44
1	977.21	0.23

System: methyl methanoate + pentane; phases: Liquid
Fixed: Temperature, K = 291.15
Fixed: Pressure, kPa = 101
Property: Excess molar enthalpy (molar enthalpy of mixing), kJ/mol (Liquid); method: Calvet calorimetry
Mole fraction of methyl methanoate	Excess molar enthalpy (molar enthalpy of mixing), kJ/mol	uncertainty
0.1107	0.632	0.006
0.2113	1.154	0.01
0.3055	1.554	0.013
0.3765	1.749	0.014
0.438	1.846	0.015
0.4783	1.876	0.015
0.5268	1.899	0.015
0.5716	1.884	0.015
0.6028	1.84	0.015
0.6356	1.784	0.015
0.6702	1.711	0.014
0.7191	1.597	0.013
0.7683	1.433	0.012
0.8256	1.206	0.01
0.8773	0.948	0.009
0.9215	0.663	0.007
0.9587	0.346	0.006

System: methyl methanoate + pentane; phases: Liquid, Gas
Fixed: Pressure, kPa = 101.32
Property: Boiling temperature at pressure P, K (Liquid); method: Ebulliometric method (Recirculating still)
Mole fraction of methyl methanoate	Boiling temperature at pressure P, K	uncertainty
0	309.04	0.09
0.016	306.78	0.54
0.026	305.57	0.44
0.045	303.65	0.41
0.067	301.48	0.32
0.096	299.65	0.26
0.111	298.77	0.23
0.132	297.78	0.19
0.153	296.97	0.16
0.184	296.1	0.14
0.202	295.6	0.13
0.227	295.16	0.11
0.257	294.8	0.1
0.299	294.42	0.1
0.335	294.12	0.09
0.402	294.01	0.09
0.435	293.92	0.09
0.453	294.03	0.09
0.507	293.85	0.09
0.561	293.77	0.09
0.593	293.92	0.09
0.609	293.94	0.09
0.624	293.96	0.09
0.696	294.02	0.09
0.721	293.92	0.09
0.748	294.04	0.1
0.769	294.28	0.09
0.785	294.06	0.1
0.821	294.64	0.11
0.839	294.88	0.09
0.859	294.66	0.1
0.882	295.17	0.14
0.897	295.72	0.19
0.916	296.59	0.21
0.928	297.22	0.3
0.956	299.41	0.37
0.983	302.11	0.42
0.992	303.15	0.61
1	304.7	0.09

System: methyl methanoate + pentane; phases: Gas, Liquid
Fixed: Pressure, kPa = 101.32
Property: Mole fraction of methyl methanoate (Gas); method: Density calibration data
Mole fraction of methyl methanoate	Mole fraction of methyl methanoate	uncertainty
0	0	
0.016	0.089	0.02
0.026	0.123	0.016
0.045	0.198	0.014
0.067	0.259	0.011
0.096	0.326	0.01
0.111	0.353	0.008
0.132	0.385	0.007
0.153	0.407	0.006
0.184	0.441	0.006
0.202	0.459	0.005
0.227	0.469	0.005
0.257	0.489	0.005
0.299	0.506	0.005
0.335	0.518	0.005
0.402	0.533	0.005
0.435	0.542	0.005
0.453	0.543	0.005
0.507	0.55	0.005
0.561	0.557	0.005
0.593	0.561	0.005
0.609	0.558	0.005
0.624	0.561	0.005
0.696	0.574	0.005
0.721	0.586	0.005
0.748	0.592	0.005
0.769	0.593	0.005
0.785	0.598	0.005
0.821	0.607	0.005
0.839	0.617	0.005
0.859	0.626	0.006
0.882	0.648	0.007
0.897	0.669	0.008
0.916	0.7	0.009
0.928	0.724	0.011
0.956	0.795	0.014
0.983	0.9	0.017
0.992	0.944	0.024
1	1	

System: pentane + ethyl methanoate; phases: Liquid, Gas
Property: Azeotropic temperature, K (Liquid); method: By X=Y
Pressure, kPa	Azeotropic temperature, K	uncertainty
101.32	306.52	0.23

System: pentane + ethyl methanoate; phases: Liquid, Gas
Property: Azeotropic composition: mole fraction of ethyl methanoate (Liquid); method: By X=Y
Pressure, kPa	Azeotropic composition: mole fraction of ethyl methanoate	uncertainty
101.32	0.218	0.02

System: pentane + ethyl methanoate; phases: Liquid
Fixed: Pressure, kPa = 101
Property: Mass density, kg/m3 (Liquid); method: Vibrating tube method
Temperature, K	Mole fraction of ethyl methanoate	Mass density, kg/m3	uncertainty
291.15	0	627.86	0.23
291.15	0.054	637.14	0.25
291.15	0.063	638.38	0.26
291.15	0.118	649.24	0.28
291.15	0.161	658.03	0.3
291.15	0.208	668.06	0.32
291.15	0.305	689.98	0.36
291.15	0.35	701.21	0.38
291.15	0.405	715.14	0.42
291.15	0.499	741.07	0.48
291.15	0.595	769.91	0.57
291.15	0.656	789.59	0.64
291.15	0.751	822.65	0.77
291.15	0.794	838.31	0.83
291.15	0.85	859.54	0.93
291.15	0.895	877.8	1.02
291.15	0.941	896.94	1.12
291.15	1	923.4	1.24
298.15	0	620.89	0.23
298.15	0.058	631.15	0.27
298.15	0.101	639.36	0.26
298.15	0.104	639.54	0.26
298.15	0.196	658.7	0.31
298.15	0.252	670.7	0.33
298.15	0.304	682.9	0.36
298.15	0.405	708.3	0.41
298.15	0.496	733.3	0.48
298.15	0.609	766.9	0.58
298.15	0.702	797.1	0.69
298.15	0.801	832.2	0.83
298.15	0.858	854.37	0.93
298.15	0.909	875.28	1.04
298.15	0.953	893.59	1.13
298.15	1	914.35	1.22

System: pentane + ethyl methanoate; phases: Liquid
Fixed: Pressure, kPa = 101
Property: Excess molar enthalpy (molar enthalpy of mixing), kJ/mol (Liquid); method: Calvet calorimetry
Temperature, K	Mole fraction of ethyl methanoate	Excess molar enthalpy (molar enthalpy of mixing), kJ/mol	uncertainty
291.15	0.0907	0.455	0.005
291.15	0.1625	0.699	0.006
291.15	0.2451	0.933	0.008
291.15	0.3245	1.114	0.009
291.15	0.3983	1.229	0.01
291.15	0.4484	1.273	0.011
291.15	0.4961	1.294	0.011
291.15	0.536	1.279	0.011
291.15	0.5703	1.255	0.011
291.15	0.605	1.232	0.01
291.15	0.6447	1.179	0.01
291.15	0.6893	1.11	0.009
291.15	0.7332	1.023	0.009
291.15	0.7743	0.913	0.008
291.15	0.8244	0.776	0.007
291.15	0.874	0.613	0.006
291.15	0.9259	0.405	0.005
291.15	0.9621	0.19	0.005
298.15	0.0714	0.444	0.005
298.15	0.1517	0.804	0.007
298.15	0.2221	1.051	0.009
298.15	0.3085	1.251	0.011
298.15	0.3849	1.333	0.011
298.15	0.445	1.346	0.011
298.15	0.4999	1.354	0.011
298.15	0.5411	1.339	0.011
298.15	0.5726	1.315	0.011
298.15	0.6159	1.284	0.011
298.15	0.6668	1.228	0.01
298.15	0.7209	1.137	0.01
298.15	0.7702	1.016	0.009
298.15	0.8273	0.864	0.008
298.15	0.8813	0.67	0.007
298.15	0.9227	0.435	0.005
298.15	0.9662	0.205	0.004

System: pentane + ethyl methanoate; phases: Liquid, Gas
Fixed: Pressure, kPa = 101.32
Property: Boiling temperature at pressure P, K (Liquid); method: Ebulliometric method (Recirculating still)
Mole fraction of ethyl methanoate	Boiling temperature at pressure P, K	uncertainty
0	309.04	0.09
0.055	307.87	0.12
0.091	307.26	0.1
0.154	306.71	0.1
0.182	306.52	0.1
0.25	306.53	0.1
0.287	306.55	0.1
0.337	306.57	0.1
0.392	306.59	0.11
0.43	306.85	0.11
0.485	307.05	0.11
0.54	307.8	0.12
0.592	308.37	0.12
0.644	309	0.13
0.684	309.59	0.14
0.73	310.43	0.15
0.768	311.41	0.17
0.821	313.15	0.2
0.855	315.01	0.26
0.887	316.86	0.26
0.911	318.18	0.3
0.936	320.12	0.36
0.963	322.47	0.43
0.988	325.49	0.6
0.993	326.22	0.63
1	327.33	0.13

System: pentane + ethyl methanoate; phases: Gas, Liquid
Fixed: Pressure, kPa = 101.32
Property: Mole fraction of ethyl methanoate (Gas); method: Density calibration data
Mole fraction of ethyl methanoate	Mole fraction of ethyl methanoate	uncertainty
0	0	
0.055	0.089	0.007
0.091	0.134	0.006
0.154	0.188	0.005
0.182	0.201	0.004
0.25	0.232	0.004
0.287	0.243	0.004
0.337	0.267	0.005
0.392	0.29	0.005
0.43	0.308	0.005
0.485	0.331	0.005
0.54	0.353	0.005
0.592	0.374	0.005
0.644	0.394	0.005
0.684	0.413	0.006
0.73	0.441	0.006
0.768	0.461	0.007
0.821	0.515	0.009
0.855	0.567	0.01
0.887	0.623	0.011
0.911	0.675	0.012
0.936	0.743	0.014
0.963	0.829	0.016
0.988	0.933	0.024
0.993	0.962	0.023
1	1	

System: pentane + propyl methanoate; phases: Liquid
Fixed: Pressure, kPa = 101
Property: Mass density, kg/m3 (Liquid); method: Vibrating tube method
Temperature, K	Mole fraction of propyl methanoate	Mass density, kg/m3	uncertainty
291.15	0	627.86	0.23
291.15	0.057	639.86	0.28
291.15	0.117	653.61	0.3
291.15	0.166	665.38	0.32
291.15	0.26	688.38	0.36
291.15	0.308	700.63	0.4
291.15	0.448	737.83	0.51
291.15	0.537	763.24	0.61
291.15	0.651	796.41	0.77
291.15	0.703	812.04	0.86
291.15	0.819	848.4	1.1
291.15	0.847	857.3	1.17
291.15	0.938	886.86	1.41
291.15	1	907.97	1.59
298.15	0	620.89	0.23
298.15	0.0505	631.54	0.28
298.15	0.0794	638.09	0.29
298.15	0.1375	651.43	0.31
298.15	0.2012	666.5	0.33
298.15	0.2525	679.23	0.36
298.15	0.3178	695.79	0.4
298.15	0.3733	710.12	0.44
298.15	0.4303	725.46	0.49
298.15	0.4798	739.19	0.55
298.15	0.4882	741.75	0.55
298.15	0.5467	758.38	0.62
298.15	0.6019	774.28	0.69
298.15	0.6778	796.75	0.81
298.15	0.7597	822.01	0.96
298.15	0.8079	837.19	1.06
298.15	0.8503	850.78	1.16
298.15	0.9251	874.84	1.36
298.15	1	899.86	1.57

System: pentane + propyl methanoate; phases: Liquid
Fixed: Pressure, kPa = 101
Property: Excess molar enthalpy (molar enthalpy of mixing), kJ/mol (Liquid); method: Calvet calorimetry
Temperature, K	Mole fraction of propyl methanoate	Excess molar enthalpy (molar enthalpy of mixing), kJ/mol	uncertainty
291.15	0.0666	0.353	0.004
291.15	0.1411	0.59	0.006
291.15	0.2072	0.763	0.007
291.15	0.2696	0.881	0.008
291.15	0.3154	0.951	0.008
291.15	0.3689	1.002	0.009
291.15	0.4172	1.018	0.009
291.15	0.46	1.017	0.009
291.15	0.4953	1.005	0.009
291.15	0.5199	0.996	0.009
291.15	0.5543	0.971	0.008
291.15	0.5955	0.928	0.008
291.15	0.631	0.888	0.008
291.15	0.678	0.826	0.007
291.15	0.7184	0.756	0.007
291.15	0.7665	0.668	0.006
291.15	0.819	0.553	0.005
291.15	0.879	0.397	0.004
291.15	0.9403	0.221	0.004
298.15	0.042	0.196	0.004
298.15	0.1081	0.475	0.005
298.15	0.1456	0.661	0.006
298.15	0.2109	0.844	0.007
298.15	0.2706	0.96	0.008
298.15	0.3317	1.044	0.009
298.15	0.3889	1.086	0.009
298.15	0.4431	1.101	0.009
298.15	0.4905	1.099	0.009
298.15	0.5353	1.081	0.009
298.15	0.5637	1.066	0.009
298.15	0.6149	1.025	0.009
298.15	0.67	0.973	0.008
298.15	0.7271	0.889	0.008
298.15	0.7888	0.757	0.007
298.15	0.8511	0.589	0.006
298.15	0.9096	0.388	0.005
298.15	0.9655	0.185	0.004

System: pentane + propyl methanoate; phases: Liquid, Gas
Fixed: Pressure, kPa = 101.32
Property: Boiling temperature at pressure P, K (Liquid); method: Ebulliometric method (Recirculating still)
Mole fraction of propyl methanoate	Boiling temperature at pressure P, K	uncertainty
0	309.04	0.09
0.024	309.13	0.1
0.068	309.83	0.11
0.104	310.29	0.11
0.147	311.03	0.11
0.197	311.58	0.11
0.25	312.49	0.12
0.316	313.3	0.12
0.381	314.7	0.14
0.416	315.58	0.14
0.468	316.45	0.14
0.522	317.81	0.14
0.574	318.71	0.15
0.62	320.22	0.19
0.686	322.85	0.2
0.735	324.68	0.22
0.783	327.09	0.26
0.821	329.58	0.35
0.865	333.59	0.44
0.921	339.92	0.5
0.949	343.88	0.61
0.965	346.52	0.72
0.986	350.41	0.85
1	353.92	0.15

System: pentane + propyl methanoate; phases: Gas, Liquid
Fixed: Pressure, kPa = 101.32
Property: Mole fraction of propyl methanoate (Gas); method: Density calibration data
Mole fraction of propyl methanoate	Mole fraction of propyl methanoate	uncertainty
0	0	
0.024	0.012	0.004
0.068	0.031	0.004
0.104	0.044	0.004
0.147	0.061	0.004
0.197	0.076	0.004
0.25	0.091	0.004
0.316	0.107	0.004
0.381	0.127	0.004
0.416	0.139	0.004
0.468	0.154	0.004
0.522	0.171	0.004
0.574	0.183	0.004
0.62	0.201	0.005
0.686	0.241	0.005
0.735	0.273	0.005
0.783	0.315	0.006
0.821	0.367	0.008
0.865	0.439	0.011
0.921	0.59	0.014
0.949	0.689	0.018
0.965	0.766	0.023
0.986	0.892	0.027
1	1	

System: pentane + butyl methanoate; phases: Liquid
Fixed: Pressure, kPa = 101
Property: Mass density, kg/m3 (Liquid); method: Vibrating tube method
Temperature, K	Mole fraction of butyl methanoate	Mass density, kg/m3	uncertainty
291.15	0	627.86	0.23
291.15	0.0482	640.01	0.28
291.15	0.1029	654.1	0.3
291.15	0.1541	667.59	0.31
291.15	0.2028	680.41	0.33
291.15	0.2999	706.35	0.36
291.15	0.3486	719.53	0.39
291.15	0.453	747.88	0.45
291.15	0.5029	761.43	0.49
291.15	0.5974	786.96	0.58
291.15	0.7	814.79	0.69
291.15	0.8074	843.81	0.84
291.15	0.8966	868.4	0.99
291.15	0.9452	881.04	1.08
291.15	1	895.86	1.18
298.15	0	620.89	0.23
298.15	0.0584	635.57	0.29
298.15	0.1147	650.09	0.3
298.15	0.1936	670.91	0.32
298.15	0.301	699.46	0.36
298.15	0.343	710.8	0.38
298.15	0.3886	723.15	0.41
298.15	0.4521	740.45	0.45
298.15	0.4958	752.3	0.48
298.15	0.5442	765.49	0.52
298.15	0.6477	793.55	0.63
298.15	0.7529	822.18	0.75
298.15	0.8993	861.53	0.98
298.15	1	888.47	1.16

System: pentane + butyl methanoate; phases: Liquid
Fixed: Pressure, kPa = 101
Property: Excess molar enthalpy (molar enthalpy of mixing), kJ/mol (Liquid); method: Calvet calorimetry
Temperature, K	Mole fraction of butyl methanoate	Excess molar enthalpy (molar enthalpy of mixing), kJ/mol	uncertainty
291.15	0.0661	0.324	0.004
291.15	0.1254	0.515	0.005
291.15	0.1836	0.667	0.006
291.15	0.2321	0.779	0.007
291.15	0.2846	0.854	0.007
291.15	0.3351	0.896	0.008
291.15	0.3832	0.919	0.008
291.15	0.4276	0.924	0.008
291.15	0.4704	0.915	0.008
291.15	0.5095	0.902	0.008
291.15	0.5587	0.872	0.008
291.15	0.6121	0.822	0.007
291.15	0.6666	0.745	0.007
291.15	0.7272	0.637	0.006
291.15	0.799	0.493	0.005
291.15	0.8702	0.318	0.004
291.15	0.9372	0.165	0.003
298.15	0.0471	0.313	0.005
298.15	0.0941	0.544	0.005
298.15	0.1606	0.74	0.007
298.15	0.2273	0.87	0.008
298.15	0.2903	0.954	0.008
298.15	0.3523	0.996	0.009
298.15	0.4102	1.004	0.009
298.15	0.4611	0.988	0.008
298.15	0.5095	0.959	0.008
298.15	0.5166	0.943	0.008
298.15	0.5673	0.905	0.008
298.15	0.6237	0.845	0.007
298.15	0.6862	0.742	0.007
298.15	0.754	0.632	0.006
298.15	0.8174	0.503	0.005
298.15	0.8803	0.341	0.004
298.15	0.9477	0.168	0.003

System: pentane + butyl methanoate; phases: Liquid, Gas
Fixed: Pressure, kPa = 101.32
Property: Boiling temperature at pressure P, K (Liquid); method: Ebulliometric method (Recirculating still)
Mole fraction of butyl methanoate	Boiling temperature at pressure P, K	uncertainty
0	309.04	0.09
0.065	311.13	0.16
0.097	312.06	0.15
0.126	312.85	0.12
0.164	313.19	0.1
0.195	313.41	0.13
0.223	314.37	0.14
0.263	315.07	0.13
0.313	316.25	0.16
0.361	318.05	0.19
0.396	319.5	0.18
0.474	322.16	0.17
0.519	323.66	0.17
0.566	325.2	0.22
0.638	329.15	0.25
0.66	330.49	0.32
0.72	335.12	0.35
0.761	338.87	0.38
0.809	343.16	0.44
0.869	350.15	0.53
0.895	354.55	0.74
0.924	360.12	0.79
0.943	363.89	0.83
0.961	367.72	0.93
0.969	369.99	1.1
0.975	371.55	1.15
0.985	374.54	1.39
1	380.13	0.13

System: pentane + butyl methanoate; phases: Gas, Liquid
Fixed: Pressure, kPa = 101.32
Property: Mole fraction of butyl methanoate (Gas); method: Density calibration data
Mole fraction of butyl methanoate	Mole fraction of butyl methanoate	uncertainty
0	0	
0.065	0.01	0.004
0.097	0.014	0.004
0.126	0.019	0.004
0.164	0.023	0.004
0.195	0.026	0.004
0.223	0.03	0.004
0.263	0.034	0.004
0.313	0.04	0.004
0.361	0.05	0.004
0.396	0.056	0.004
0.474	0.073	0.004
0.519	0.083	0.004
0.566	0.093	0.004
0.638	0.12	0.004
0.66	0.13	0.005
0.72	0.167	0.005
0.761	0.201	0.005
0.809	0.245	0.006
0.869	0.334	0.008
0.895	0.404	0.014
0.924	0.506	0.017
0.943	0.583	0.019
0.961	0.672	0.023
0.969	0.729	0.029
0.975	0.769	0.032
0.985	0.852	0.038
1	1	
