Measured thermophysical data. Measurement and modelling of the ternary phase equilibria for high pressure carbon dioxide ethanol water mixtures
Source: Fluid Phase Equilib., 2007, 10.1016/j.fluid.2006.12.014
Compound 1: ethanol, C2H6O, InChI=1S/C2H6O/c1-2-3/h3H,2H2,1H3
Compound 2: carbon dioxide, CO2, InChI=1S/CO2/c2-1-3
Compound 3: water, H2O, InChI=1S/H2O/h1H2

System: ethanol + carbon dioxide + water; phases: Liquid, Gas
Fixed: Temperature, K = 313
Property: Mole fraction of ethanol (Liquid); method: Density calibration data
Property: Mole fraction of water (Gas); method: Density calibration data
Property: Mole fraction of ethanol (Gas); method: Density calibration data
Pressure, kPa	Mole fraction of water	Mole fraction of ethanol	uncertainty	Mole fraction of water	uncertainty	Mole fraction of ethanol	uncertainty
10000	0.1083	0.3282	0.0131	0.0641	0.01	0.2534	
10000	0.1835	0.389	0.0156	0.0212	0.01	0.1347	
10000	0.2985	0.3815	0.0153	0.0151	0.01	0.0911	
10000	0.4138	0.3632	0.0145	0.0151	0.01	0.0626	
10000	0.488	0.3364	0.0135	0.0147	0.01	0.0607	
10000	0.5479	0.3114	0.0125	0.0095	0.0095	0.0527	
10000	0.632	0.2728	0.0109	0.0097	0.0097	0.045	
10000	0.7037	0.2312	0.01	0.0104	0.01	0.0481	
10000	0.7514	0.1909	0.01	0.0081	0.0081	0.031	
10000	0.7937	0.1558	0.01	0.0069	0.0069	0.0243	
10000	0.8712	0.0945	0.01	0.0055	0.0055	0.0153	
10000	0.8888	0.0777	0.01	0.0042	0.0042	0.0138	
20000	0.1202	0.3161	0.0127	0.0747	0.01	0.2363	
20000	0.2085	0.3726	0.0149	0.0571	0.01	0.2014	
20000	0.2765	0.3778	0.0151	0.0454	0.01	0.1663	
20000	0.3041	0.3799	0.0152	0.0347	0.01	0.1225	
20000	0.3569	0.3655	0.0146	0.0298	0.01	0.1177	
20000	0.4636	0.3254	0.013	0.0367	0.01	0.0962	
20000	0.5034	0.3055	0.0122	0.0243	0.01	0.0795	
20000	0.533	0.2918	0.0117	0.0173	0.01	0.0689	
20000	0.5636	0.274	0.011	0.0151	0.01	0.06	
20000	0.6507	0.2285	0.01	0.0188	0.01	0.053	
20000	0.7408	0.1668	0.01	0.0084	0.0084	0.0374	
20000	0.7666	0.1463	0.01	0.0054	0.0054	0.0277	
20000	0.7863	0.131	0.01	0.0088	0.0088	0.0239	
20000	0.8699	0.08	0.01	0.008	0.008	0.02	
30000	0.1584	0.32	0.0128	0.1146	0.01	0.2607	
30000	0.2233	0.3517	0.0141	0.0964	0.01	0.2244	
30000	0.3163	0.3487	0.014	0.0957	0.01	0.2094	
30000	0.3821	0.3378	0.0135	0.0892	0.01	0.2056	
30000	0.4194	0.3228	0.0129	0.0483	0.01	0.1239	
30000	0.4923	0.2988	0.012	0.0406	0.01	0.111	
30000	0.5864	0.2546	0.0102	0.0302	0.01	0.0868	
30000	0.61	0.2441	0.01	0.0274	0.01	0.0849	
30000	0.6465	0.2217	0.01	0.0337	0.01	0.0786	
30000	0.6836	0.198	0.01	0.0292	0.01	0.0706	
30000	0.7941	0.1218	0.01	0.0153	0.01	0.0222	
30000	0.8584	0.0725	0.01	0.0115	0.01	0.0138	
