Measured thermophysical data. Measurement and modeling of volumetric properties and speeds of sound of several mixtures of alcohol liquids containing 1-propanol and 2-propanol at T= (298.15 - 323.15) K and ambient pressure
Source: Fluid Phase Equilib., 2014, 10.1016/j.fluid.2014.06.005
Compound 1: propan-1-ol, C3H8O, InChI=1S/C3H8O/c1-2-3-4/h4H,2-3H2,1H3, purity 99%
Compound 2: propan-2-ol, C3H8O, InChI=1S/C3H8O/c1-3(2)4/h3-4H,1-2H3, purity 99%
Compound 3: 2-phenylethanol, C8H10O, InChI=1S/C8H10O/c9-7-6-8-4-2-1-3-5-8/h1-5,9H,6-7H2, purity 99%
Compound 4: propan-1,3-diol, C3H8O2, InChI=1S/C3H8O2/c4-2-1-3-5/h4-5H,1-3H2, purity 99%
Compound 5: 2-methylpropan-2-ol, C4H10O, InChI=1S/C4H10O/c1-4(2,3)5/h5H,1-3H3, purity 99%

System: propan-1-ol; phases: Liquid
Fixed: Pressure, kPa = 101.325
Property: Mass density, kg/m3 (Liquid); method: Vibrating tube method
Temperature, K	Mass density, kg/m3	uncertainty
298.15	799.709	0.239
303.15	795.698	0.239
308.15	791.627	0.24
313.15	787.516	0.24
318.15	783.36	0.24
323.15	779.139	0.241

System: propan-1-ol; phases: Liquid
Fixed: Pressure, kPa = 101.325
Property: Speed of sound, m/s (Liquid); method: Sing-around technique in a fixed-path interferometer
Temperature, K	Speed of sound, m/s	uncertainty
298.15	1208.39	1.53
303.15	1189.03	1.52
308.15	1172.04	1.52
313.15	1155.15	1.52
318.15	1138.35	1.52
323.15	1121.18	1.51

System: propan-2-ol; phases: Liquid
Fixed: Pressure, kPa = 101.325
Property: Mass density, kg/m3 (Liquid); method: Vibrating tube method
Temperature, K	Mass density, kg/m3	uncertainty
298.15	781.077	0.24
303.15	776.803	0.241
308.15	772.454	0.241
313.15	768.016	0.242
318.15	763.486	0.242
323.15	758.84	0.243

System: propan-2-ol; phases: Liquid
Fixed: Pressure, kPa = 101.325
Property: Speed of sound, m/s (Liquid); method: Sing-around technique in a fixed-path interferometer
Temperature, K	Speed of sound, m/s	uncertainty
298.15	1138.89	1.52
303.15	1121.54	1.51
308.15	1103.96	1.51
313.15	1086.32	1.51
318.15	1068.6	1.51
323.15	1050.56	1.51

System: 2-phenylethanol; phases: Liquid
Fixed: Pressure, kPa = 101.325
Property: Mass density, kg/m3 (Liquid); method: Vibrating tube method
Temperature, K	Mass density, kg/m3	uncertainty
298.15	1016.158	0.243
303.15	1012.4	0.24
308.15	1008.623	0.238
313.15	1004.827	0.235
318.15	1001.001	0.233
323.15	997.16	0.232

System: 2-phenylethanol; phases: Liquid
Fixed: Pressure, kPa = 101.325
Property: Speed of sound, m/s (Liquid); method: Sing-around technique in a fixed-path interferometer
Temperature, K	Speed of sound, m/s	uncertainty
298.15	1526.1	1.57
303.15	1510.54	1.57
308.15	1494.8	1.57
313.15	1479.19	1.56
318.15	1463.26	1.56
323.15	1447.76	1.56

System: propan-1,3-diol; phases: Liquid
Fixed: Pressure, kPa = 101.325
Property: Mass density, kg/m3 (Liquid); method: Vibrating tube method
Temperature, K	Mass density, kg/m3	uncertainty
298.15	1049.612	0.269
303.15	1046.48	0.266
308.15	1043.34	0.264
313.15	1040.186	0.261
318.15	1037.022	0.259
323.15	1033.836	0.256

System: propan-1,3-diol; phases: Liquid
Fixed: Pressure, kPa = 101.325
Property: Speed of sound, m/s (Liquid); method: Sing-around technique in a fixed-path interferometer
Temperature, K	Speed of sound, m/s	uncertainty
298.15	1624.74	1.59
303.15	1613.43	1.58
308.15	1602.13	1.58
313.15	1590.91	1.58
318.15	1579.71	1.58
323.15	1568.44	1.58

System: 2-methylpropan-2-ol; phases: Liquid
Fixed: Pressure, kPa = 101.325
Property: Mass density, kg/m3 (Liquid); method: Vibrating tube method
Temperature, K	Mass density, kg/m3	uncertainty
298.15	780.566	0.241
303.15	775.46	0.241
308.15	770.252	0.242
313.15	764.953	0.242
318.15	759.564	0.243
323.15	754.095	0.243

System: 2-methylpropan-2-ol; phases: Liquid
Fixed: Pressure, kPa = 101.325
Property: Speed of sound, m/s (Liquid); method: Sing-around technique in a fixed-path interferometer
Temperature, K	Speed of sound, m/s	uncertainty
298.15	1120.82	1.52
303.15	1099.05	1.51
308.15	1077.13	1.51
313.15	1055.57	1.51
318.15	1034.09	1.5
323.15	1013.38	1.5

System: propan-1-ol + propan-1,3-diol; phases: Liquid
Fixed: Pressure, kPa = 101
Property: Mass density, kg/m3 (Liquid); method: Vibrating tube method
Temperature, K	Mole fraction of propan-1-ol	Mass density, kg/m3	uncertainty
298.15	0	1049.612	0.268
298.15	0.1	1026.096	0.251
298.15	0.2	1002.074	0.238
298.15	0.3	977.923	0.243
298.15	0.4	953.347	0.252
298.15	0.5	928.318	0.264
298.15	0.6	902.909	0.254
298.15	0.7	877.476	0.246
298.15	0.8	851.681	0.241
298.15	0.9	825.598	0.238
298.15	1	799.709	0.238
303.15	0	1046.48	0.266
303.15	0.1	1022.882	0.248
303.15	0.2	998.776	0.237
303.15	0.3	974.492	0.243
303.15	0.4	949.859	0.252
303.15	0.5	924.704	0.265
303.15	0.6	899.214	0.255
303.15	0.7	873.705	0.246
303.15	0.8	847.816	0.241
303.15	0.9	821.644	0.238
303.15	1	795.698	0.238
308.15	0	1043.34	0.263
308.15	0.1	1019.657	0.246
308.15	0.2	995.465	0.237
308.15	0.3	971.088	0.243
308.15	0.4	946.465	0.253
308.15	0.5	921.122	0.265
308.15	0.6	895.536	0.255
308.15	0.7	869.909	0.247
308.15	0.8	843.923	0.241
308.15	0.9	817.661	0.238
308.15	1	791.627	0.238
313.15	0	1040.186	0.261
313.15	0.1	1016.416	0.244
313.15	0.2	992.14	0.237
313.15	0.3	967.668	0.243
313.15	0.4	942.941	0.253
313.15	0.5	917.531	0.265
313.15	0.6	891.824	0.255
313.15	0.7	866.086	0.247
313.15	0.8	839.997	0.241
313.15	0.9	813.64	0.238
313.15	1	787.516	0.239
318.15	0	1037.022	0.258
318.15	0.1	1013.156	0.242
318.15	0.2	988.79	0.237
318.15	0.3	964.211	0.243
318.15	0.4	939.396	0.253
318.15	0.5	913.883	0.266
318.15	0.6	888.08	0.255
318.15	0.7	862.221	0.247
318.15	0.8	836.034	0.242
318.15	0.9	809.58	0.239
318.15	1	783.36	0.239
323.15	0	1033.836	0.256
323.15	0.1	1009.882	0.239
323.15	0.2	985.427	0.237
323.15	0.3	960.774	0.244
323.15	0.4	935.821	0.253
323.15	0.5	910.203	0.266
323.15	0.6	884.277	0.256
323.15	0.7	858.331	0.247
323.15	0.8	832.032	0.242
323.15	0.9	805.476	0.239
323.15	1	779.139	0.239

System: propan-1-ol + propan-1,3-diol; phases: Liquid
Fixed: Pressure, kPa = 101
Property: Speed of sound, m/s (Liquid); method: Sing-around technique in a fixed-path interferometer
Temperature, K	Mole fraction of propan-1-ol	Speed of sound, m/s	uncertainty
298.15	0	1624.74	1.59
298.15	0.1	1583.82	1.58
298.15	0.2	1538.93	1.57
298.15	0.3	1495.07	1.57
298.15	0.4	1450.76	1.57
298.15	0.5	1406.76	1.57
298.15	0.6	1363.3	1.56
298.15	0.7	1321.87	1.55
298.15	0.8	1281.6	1.54
298.15	0.9	1242.5	1.53
298.15	1	1208.39	1.53
303.15	0	1613.43	1.58
303.15	0.1	1571.91	1.58
303.15	0.2	1526.4	1.57
303.15	0.3	1482	1.57
303.15	0.4	1437.14	1.57
303.15	0.5	1392.36	1.57
303.15	0.6	1348.47	1.55
303.15	0.7	1306.37	1.54
303.15	0.8	1265.5	1.54
303.15	0.9	1225.88	1.53
303.15	1	1189.03	1.52
308.15	0	1602.13	1.58
308.15	0.1	1559.98	1.58
308.15	0.2	1513.96	1.57
308.15	0.3	1468.95	1.57
308.15	0.4	1423.46	1.57
308.15	0.5	1378.14	1.56
308.15	0.6	1333.7	1.55
308.15	0.7	1290.94	1.54
308.15	0.8	1249.54	1.53
308.15	0.9	1209.38	1.53
308.15	1	1172.04	1.52
313.15	0	1590.91	1.58
313.15	0.1	1548.12	1.57
313.15	0.2	1501.54	1.57
313.15	0.3	1455.9	1.57
313.15	0.4	1409.91	1.56
313.15	0.5	1363.94	1.56
313.15	0.6	1318.95	1.55
313.15	0.7	1275.67	1.54
313.15	0.8	1233.68	1.53
313.15	0.9	1192.98	1.52
313.15	1	1155.15	1.52
318.15	0	1579.71	1.58
318.15	0.1	1536.24	1.57
318.15	0.2	1489.14	1.57
318.15	0.3	1442.91	1.56
318.15	0.4	1396.33	1.56
318.15	0.5	1349.69	1.56
318.15	0.6	1304.29	1.55
318.15	0.7	1260.29	1.54
318.15	0.8	1217.88	1.53
318.15	0.9	1176.66	1.52
318.15	1	1138.35	1.52
323.15	0	1568.44	1.58
323.15	0.1	1524.6	1.57
323.15	0.2	1476.89	1.57
323.15	0.3	1429.98	1.56
323.15	0.4	1382.74	1.56
323.15	0.5	1336.3	1.56
323.15	0.6	1289.61	1.55
323.15	0.7	1245.29	1.54
323.15	0.8	1202.25	1.53
323.15	0.9	1160.58	1.52
323.15	1	1121.18	1.51

System: 2-phenylethanol + propan-1-ol; phases: Liquid
Fixed: Pressure, kPa = 101
Property: Mass density, kg/m3 (Liquid); method: Vibrating tube method
Temperature, K	Mole fraction of propan-1-ol	Mass density, kg/m3	uncertainty
298.15	0	1016.158	0.242
298.15	0.1	1002.95	0.234
298.15	0.2	988.483	0.234
298.15	0.3	972.914	0.237
298.15	0.4	955.499	0.243
298.15	0.5	936.585	0.254
298.15	0.6	914.704	0.25
298.15	0.7	891.19	0.245
298.15	0.8	864.498	0.241
298.15	0.9	834.163	0.238
298.15	1	799.709	0.238
303.15	0	1012.4	0.24
303.15	0.1	999.159	0.232
303.15	0.2	984.667	0.234
303.15	0.3	969.069	0.237
303.15	0.4	951.634	0.243
303.15	0.5	932.668	0.254
303.15	0.6	910.783	0.25
303.15	0.7	887.243	0.245
303.15	0.8	860.545	0.241
303.15	0.9	830.156	0.238
303.15	1	795.698	0.238
308.15	0	1008.623	0.237
308.15	0.1	995.352	0.232
308.15	0.2	980.831	0.234
308.15	0.3	965.202	0.237
308.15	0.4	947.745	0.243
308.15	0.5	928.763	0.254
308.15	0.6	906.833	0.25
308.15	0.7	883.265	0.246
308.15	0.8	856.544	0.242
308.15	0.9	826.115	0.239
308.15	1	791.627	0.238
313.15	0	1004.827	0.235
313.15	0.1	991.524	0.232
313.15	0.2	976.973	0.234
313.15	0.3	961.035	0.237
313.15	0.4	943.827	0.243
313.15	0.5	924.811	0.254
313.15	0.6	902.853	0.25
313.15	0.7	879.25	0.246
313.15	0.8	852.499	0.242
313.15	0.9	822.038	0.239
313.15	1	787.516	0.239
318.15	0	1001.001	0.233
318.15	0.1	987.678	0.232
318.15	0.2	973.096	0.234
318.15	0.3	957.401	0.237
318.15	0.4	939.884	0.244
318.15	0.5	920.828	0.254
318.15	0.6	898.842	0.25
318.15	0.7	875.2	0.246
318.15	0.8	848.414	0.242
318.15	0.9	817.915	0.239
318.15	1	783.36	0.239
323.15	0	997.16	0.232
323.15	0.1	983.812	0.232
323.15	0.2	969.203	0.234
323.15	0.3	953.46	0.238
323.15	0.4	935.897	0.244
323.15	0.5	916.812	0.255
323.15	0.6	894.794	0.251
323.15	0.7	871.112	0.246
323.15	0.8	844.293	0.243
323.15	0.9	813.747	0.24
323.15	1	779.139	0.239

System: 2-phenylethanol + propan-1-ol; phases: Liquid
Fixed: Pressure, kPa = 101
Property: Speed of sound, m/s (Liquid); method: Sing-around technique in a fixed-path interferometer
Temperature, K	Mole fraction of propan-1-ol	Speed of sound, m/s	uncertainty
298.15	0	1526.1	1.57
298.15	0.1	1505.22	1.57
298.15	0.2	1482.67	1.56
298.15	0.3	1458.75	1.56
298.15	0.4	1432.12	1.56
298.15	0.5	1403.87	1.56
298.15	0.6	1370.7	1.55
298.15	0.7	1336	1.55
298.15	0.8	1297.31	1.54
298.15	0.9	1254.01	1.53
298.15	1	1208.39	1.53
303.15	0	1510.54	1.57
303.15	0.1	1489.25	1.57
303.15	0.2	1466.63	1.56
303.15	0.3	1442.64	1.56
303.15	0.4	1416.21	1.56
303.15	0.5	1387.6	1.56
303.15	0.6	1354.21	1.55
303.15	0.7	1319.55	1.54
303.15	0.8	1280.54	1.54
303.15	0.9	1237.05	1.53
303.15	1	1189.03	1.52
308.15	0	1494.8	1.57
308.15	0.1	1473.45	1.56
308.15	0.2	1450.72	1.56
308.15	0.3	1426.61	1.56
308.15	0.4	1400.11	1.56
308.15	0.5	1371.33	1.56
308.15	0.6	1337.86	1.55
308.15	0.7	1303.12	1.54
308.15	0.8	1263.89	1.54
308.15	0.9	1220.24	1.53
308.15	1	1172.04	1.52
313.15	0	1479.19	1.56
313.15	0.1	1457.75	1.56
313.15	0.2	1434.91	1.56
313.15	0.3	1410.63	1.56
313.15	0.4	1384.14	1.55
313.15	0.5	1355.22	1.55
313.15	0.6	1321.62	1.55
313.15	0.7	1286.71	1.54
313.15	0.8	1247.39	1.53
313.15	0.9	1203.54	1.53
313.15	1	1155.15	1.52
318.15	0	1463.26	1.56
318.15	0.1	1442.12	1.56
318.15	0.2	1419.23	1.56
318.15	0.3	1394.88	1.55
318.15	0.4	1368.22	1.55
318.15	0.5	1339.16	1.55
318.15	0.6	1305.52	1.54
318.15	0.7	1270.41	1.54
318.15	0.8	1230.98	1.53
318.15	0.9	1186.97	1.52
318.15	1	1138.35	1.52
323.15	0	1447.76	1.56
323.15	0.1	1426.6	1.56
323.15	0.2	1403.73	1.55
323.15	0.3	1379.11	1.55
323.15	0.4	1351.99	1.55
323.15	0.5	1323.16	1.55
323.15	0.6	1289.6	1.54
323.15	0.7	1254.21	1.54
323.15	0.8	1214.89	1.53
323.15	0.9	1170.5	1.52
323.15	1	1121.18	1.51

System: propan-1-ol + 2-methylpropan-2-ol; phases: Liquid
Fixed: Pressure, kPa = 101
Property: Mass density, kg/m3 (Liquid); method: Vibrating tube method
Temperature, K	Mole fraction of propan-1-ol	Mass density, kg/m3	uncertainty
298.15	0	780.566	0.239
298.15	0.1	783.186	0.239
298.15	0.2	785.325	0.239
298.15	0.3	787.194	0.239
298.15	0.4	788.933	0.239
298.15	0.5	790.697	0.239
298.15	0.6	792.401	0.238
298.15	0.7	794.116	0.238
298.15	0.8	795.925	0.238
298.15	0.9	797.731	0.238
298.15	1	799.709	0.238
303.15	0	775.46	0.24
303.15	0.1	778.313	0.24
303.15	0.2	780.646	0.239
303.15	0.3	782.684	0.239
303.15	0.4	784.564	0.239
303.15	0.5	786.434	0.239
303.15	0.6	788.217	0.239
303.15	0.7	789.989	0.239
303.15	0.8	791.847	0.238
303.15	0.9	793.682	0.238
303.15	1	795.698	0.238
308.15	0	770.252	0.24
308.15	0.1	773.328	0.24
308.15	0.2	775.859	0.24
308.15	0.3	778.069	0.24
308.15	0.4	780.093	0.239
308.15	0.5	782.082	0.239
308.15	0.6	783.96	0.239
308.15	0.7	785.802	0.239
308.15	0.8	787.715	0.239
308.15	0.9	789.589	0.238
308.15	1	791.627	0.238
313.15	0	764.953	0.241
313.15	0.1	768.231	0.24
313.15	0.2	770.958	0.24
313.15	0.3	773.345	0.24
313.15	0.4	775.52	0.24
313.15	0.5	777.64	0.24
313.15	0.6	779.618	0.239
313.15	0.7	781.544	0.239
313.15	0.8	783.524	0.239
313.15	0.9	785.447	0.239
313.15	1	787.516	0.239
318.15	0	759.564	0.241
318.15	0.1	763.025	0.241
318.15	0.2	765.94	0.24
318.15	0.3	768.508	0.24
318.15	0.4	770.844	0.24
318.15	0.5	773.099	0.24
318.15	0.6	775.192	0.24
318.15	0.7	777.213	0.239
318.15	0.8	779.267	0.239
318.15	0.9	781.249	0.239
318.15	1	783.36	0.239
323.15	0	754.095	0.241
323.15	0.1	757.717	0.241
323.15	0.2	760.808	0.241
323.15	0.3	763.561	0.241
323.15	0.4	766.052	0.241
323.15	0.5	768.453	0.24
323.15	0.6	770.679	0.24
323.15	0.7	772.799	0.24
323.15	0.8	774.939	0.24
323.15	0.9	776.989	0.239
323.15	1	779.139	0.239

System: propan-1-ol + 2-methylpropan-2-ol; phases: Liquid
Fixed: Pressure, kPa = 101
Property: Speed of sound, m/s (Liquid); method: Sing-around technique in a fixed-path interferometer
Temperature, K	Mole fraction of propan-1-ol	Speed of sound, m/s	uncertainty
298.15	0	1120.82	1.52
298.15	0.1	1136.33	1.52
298.15	0.2	1147.46	1.52
298.15	0.3	1155.84	1.52
298.15	0.4	1163.21	1.52
298.15	0.5	1170.1	1.52
298.15	0.6	1176.64	1.52
298.15	0.7	1183.56	1.52
298.15	0.8	1190.52	1.52
298.15	0.9	1198.05	1.52
298.15	1	1208.39	1.53
303.15	0	1099.05	1.51
303.15	0.1	1115.24	1.51
303.15	0.2	1127.36	1.52
303.15	0.3	1136.52	1.52
303.15	0.4	1144.81	1.52
303.15	0.5	1152.23	1.52
303.15	0.6	1158.86	1.52
303.15	0.7	1165.98	1.52
303.15	0.8	1173.2	1.52
303.15	0.9	1180.85	1.52
303.15	1	1189.03	1.52
308.15	0	1077.13	1.51
308.15	0.1	1094.19	1.51
308.15	0.2	1107.16	1.51
308.15	0.3	1117.14	1.51
308.15	0.4	1126.17	1.52
308.15	0.5	1134.12	1.52
308.15	0.6	1141.09	1.52
308.15	0.7	1148.49	1.52
308.15	0.8	1155.94	1.52
308.15	0.9	1163.81	1.52
308.15	1	1172.04	1.52
313.15	0	1055.57	1.51
313.15	0.1	1073.21	1.51
313.15	0.2	1086.93	1.51
313.15	0.3	1097.71	1.51
313.15	0.4	1107.42	1.51
313.15	0.5	1115.94	1.51
313.15	0.6	1123.28	1.52
313.15	0.7	1131.01	1.52
313.15	0.8	1138.72	1.52
313.15	0.9	1146.83	1.52
313.15	1	1155.15	1.52
318.15	0	1034.09	1.5
318.15	0.1	1052.31	1.51
318.15	0.2	1066.63	1.51
318.15	0.3	1078.17	1.51
318.15	0.4	1088.58	1.51
318.15	0.5	1097.66	1.51
318.15	0.6	1105.42	1.51
318.15	0.7	1113.52	1.51
318.15	0.8	1121.53	1.51
318.15	0.9	1129.88	1.52
318.15	1	1138.35	1.52
323.15	0	1013.38	1.5
323.15	0.1	1031.76	1.5
323.15	0.2	1046.31	1.51
323.15	0.3	1058.79	1.51
323.15	0.4	1069.55	1.51
323.15	0.5	1079.22	1.51
323.15	0.6	1087.76	1.51
323.15	0.7	1095.95	1.51
323.15	0.8	1104.4	1.51
323.15	0.9	1112.95	1.51
323.15	1	1121.18	1.51

System: propan-2-ol + propan-1,3-diol; phases: Liquid
Fixed: Pressure, kPa = 101
Property: Mass density, kg/m3 (Liquid); method: Vibrating tube method
Temperature, K	Mole fraction of propan-2-ol	Mass density, kg/m3	uncertainty
298.15	0	1049.612	0.268
298.15	0.1	1024.357	0.249
298.15	0.2	999.454	0.237
298.15	0.3	973.688	0.245
298.15	0.4	947.105	0.255
298.15	0.5	920.365	0.269
298.15	0.6	892.898	0.258
298.15	0.7	865.138	0.249
298.15	0.8	837.214	0.242
298.15	0.9	809.061	0.239
298.15	1	781.077	0.239
303.15	0	1046.48	0.266
303.15	0.1	1021.14	0.247
303.15	0.2	996.15	0.237
303.15	0.3	970.283	0.245
303.15	0.4	943.646	0.256
303.15	0.5	916.751	0.27
303.15	0.6	889.173	0.259
303.15	0.7	861.283	0.249
303.15	0.8	833.232	0.243
303.15	0.9	804.933	0.239
303.15	1	776.803	0.239
308.15	0	1043.34	0.263
308.15	0.1	1017.91	0.245
308.15	0.2	992.822	0.237
308.15	0.3	966.835	0.245
308.15	0.4	940.12	0.256
308.15	0.5	913.106	0.27
308.15	0.6	885.399	0.259
308.15	0.7	857.385	0.249
308.15	0.8	829.193	0.243
308.15	0.9	800.747	0.239
308.15	1	772.454	0.24
313.15	0	1040.186	0.261
313.15	0.1	1014.664	0.243
313.15	0.2	989.456	0.237
313.15	0.3	963.219	0.245
313.15	0.4	936.559	0.256
313.15	0.5	909.428	0.27
313.15	0.6	881.6	0.259
313.15	0.7	853.437	0.25
313.15	0.8	825.098	0.243
313.15	0.9	796.491	0.24
313.15	1	768.016	0.24
318.15	0	1037.022	0.258
318.15	0.1	1011.399	0.241
318.15	0.2	986.012	0.237
318.15	0.3	959.887	0.245
318.15	0.4	932.968	0.256
318.15	0.5	905.712	0.271
318.15	0.6	877.748	0.26
318.15	0.7	849.438	0.25
318.15	0.8	820.94	0.243
318.15	0.9	792.159	0.24
318.15	1	763.486	0.24
323.15	0	1033.836	0.256
323.15	0.1	1008.114	0.238
323.15	0.2	982.733	0.238
323.15	0.3	956.392	0.245
323.15	0.4	929.341	0.257
323.15	0.5	901.978	0.271
323.15	0.6	873.849	0.26
323.15	0.7	845.381	0.25
323.15	0.8	816.719	0.244
323.15	0.9	787.745	0.24
323.15	1	758.84	0.241

System: propan-2-ol + propan-1,3-diol; phases: Liquid
Fixed: Pressure, kPa = 101
Property: Speed of sound, m/s (Liquid); method: Sing-around technique in a fixed-path interferometer
Temperature, K	Mole fraction of propan-2-ol	Speed of sound, m/s	uncertainty
298.15	0	1624.74	1.59
298.15	0.1	1579.38	1.58
298.15	0.2	1532.24	1.57
298.15	0.3	1482.95	1.57
298.15	0.4	1431.39	1.57
298.15	0.5	1380.09	1.57
298.15	0.6	1328.69	1.56
298.15	0.7	1278.55	1.54
298.15	0.8	1230.14	1.53
298.15	0.9	1183.34	1.52
298.15	1	1139.1	1.52
303.15	0	1613.43	1.58
303.15	0.1	1567.43	1.58
303.15	0.2	1519.8	1.57
303.15	0.3	1470.05	1.57
303.15	0.4	1417.56	1.57
303.15	0.5	1365.6	1.57
303.15	0.6	1313.8	1.55
303.15	0.7	1262.81	1.54
303.15	0.8	1213.79	1.53
303.15	0.9	1166.35	1.52
303.15	1	1121.54	1.51
308.15	0	1602.13	1.58
308.15	0.1	1555.5	1.58
308.15	0.2	1507.4	1.57
308.15	0.3	1456.91	1.57
308.15	0.4	1403.85	1.57
308.15	0.5	1351.17	1.57
308.15	0.6	1298.57	1.55
308.15	0.7	1247.12	1.54
308.15	0.8	1197.46	1.53
308.15	0.9	1149.4	1.52
308.15	1	1103.96	1.51
313.15	0	1590.91	1.58
313.15	0.1	1543.64	1.57
313.15	0.2	1494.96	1.57
313.15	0.3	1443.08	1.57
313.15	0.4	1390.09	1.56
313.15	0.5	1336.75	1.57
313.15	0.6	1283.84	1.55
313.15	0.7	1231.45	1.54
313.15	0.8	1181.15	1.53
313.15	0.9	1132.42	1.52
313.15	1	1086.32	1.51
318.15	0	1579.71	1.58
318.15	0.1	1531.75	1.57
318.15	0.2	1482.54	1.57
318.15	0.3	1430.4	1.56
318.15	0.4	1376.26	1.56
318.15	0.5	1322.32	1.56
318.15	0.6	1268.82	1.55
318.15	0.7	1215.75	1.53
318.15	0.8	1164.81	1.52
318.15	0.9	1115.39	1.51
318.15	1	1068.6	1.51
323.15	0	1568.44	1.58
323.15	0.1	1519.57	1.57
323.15	0.2	1469.9	1.57
323.15	0.3	1417.05	1.56
323.15	0.4	1362.46	1.56
323.15	0.5	1308.16	1.56
323.15	0.6	1253.78	1.55
323.15	0.7	1200.05	1.53
323.15	0.8	1148.64	1.52
323.15	0.9	1098.28	1.51
323.15	1	1050.56	1.51

System: 2-phenylethanol + propan-2-ol; phases: Liquid
Fixed: Pressure, kPa = 101
Property: Mass density, kg/m3 (Liquid); method: Vibrating tube method
Temperature, K	Mole fraction of propan-2-ol	Mass density, kg/m3	uncertainty
298.15	0	1016.158	0.242
298.15	0.1	1001.507	0.233
298.15	0.2	985.803	0.234
298.15	0.3	968.818	0.238
298.15	0.4	949.484	0.245
298.15	0.5	928.913	0.257
298.15	0.6	905.587	0.253
298.15	0.7	880.018	0.248
298.15	0.8	850.999	0.243
298.15	0.9	818.244	0.239
298.15	1	781.077	0.239
303.15	0	1012.4	0.24
303.15	0.1	997.698	0.232
303.15	0.2	981.956	0.234
303.15	0.3	964.924	0.238
303.15	0.4	945.52	0.246
303.15	0.5	924.922	0.257
303.15	0.6	901.54	0.253
303.15	0.7	875.923	0.248
303.15	0.8	846.842	0.243
303.15	0.9	814.03	0.24
303.15	1	776.803	0.239
308.15	0	1008.623	0.237
308.15	0.1	993.871	0.232
308.15	0.2	978.086	0.234
308.15	0.3	961.003	0.238
308.15	0.4	941.526	0.246
308.15	0.5	920.893	0.257
308.15	0.6	897.452	0.253
308.15	0.7	871.775	0.248
308.15	0.8	842.627	0.244
308.15	0.9	809.749	0.24
308.15	1	772.454	0.24
313.15	0	1004.827	0.235
313.15	0.1	990.025	0.232
313.15	0.2	974.191	0.234
313.15	0.3	957.056	0.239
313.15	0.4	937.5	0.246
313.15	0.5	916.826	0.258
313.15	0.6	893.319	0.253
313.15	0.7	867.575	0.248
313.15	0.8	838.351	0.244
313.15	0.9	805.393	0.24
313.15	1	768.016	0.24
318.15	0	1001.001	0.233
318.15	0.1	986.153	0.232
318.15	0.2	970.272	0.234
318.15	0.3	953.083	0.239
318.15	0.4	933.439	0.246
318.15	0.5	912.717	0.258
318.15	0.6	889.142	0.254
318.15	0.7	863.308	0.249
318.15	0.8	834.008	0.244
318.15	0.9	800.96	0.24
318.15	1	763.486	0.24
323.15	0	997.16	0.232
323.15	0.1	982.259	0.233
323.15	0.2	966.329	0.234
323.15	0.3	949.082	0.239
323.15	0.4	929.365	0.246
323.15	0.5	908.566	0.258
323.15	0.6	884.925	0.254
323.15	0.7	858.988	0.249
323.15	0.8	829.591	0.245
323.15	0.9	796.442	0.241
323.15	1	758.84	0.241

System: 2-phenylethanol + propan-2-ol; phases: Liquid
Fixed: Pressure, kPa = 101
Property: Speed of sound, m/s (Liquid); method: Sing-around technique in a fixed-path interferometer
Temperature, K	Mole fraction of propan-2-ol	Speed of sound, m/s	uncertainty
298.15	0	1526.1	1.57
298.15	0.1	1501.97	1.57
298.15	0.2	1475.85	1.56
298.15	0.3	1447.87	1.56
298.15	0.4	1414.75	1.56
298.15	0.5	1381.93	1.56
298.15	0.6	1343.56	1.55
298.15	0.7	1301.16	1.54
298.15	0.8	1253.32	1.53
298.15	0.9	1199.27	1.53
298.15	1	1139.1	1.52
303.15	0	1510.54	1.57
303.15	0.1	1485.9	1.57
303.15	0.2	1459.66	1.56
303.15	0.3	1431.54	1.56
303.15	0.4	1398.21	1.56
303.15	0.5	1365.39	1.56
303.15	0.6	1326.71	1.55
303.15	0.7	1284.61	1.54
303.15	0.8	1236.27	1.53
303.15	0.9	1182.34	1.52
303.15	1	1121.54	1.51
308.15	0	1494.8	1.57
308.15	0.1	1470	1.56
308.15	0.2	1443.61	1.56
308.15	0.3	1415.31	1.56
308.15	0.4	1381.77	1.56
308.15	0.5	1348.8	1.56
308.15	0.6	1309.93	1.55
308.15	0.7	1267.7	1.54
308.15	0.8	1219.11	1.53
308.15	0.9	1164.96	1.52
308.15	1	1103.96	1.51
313.15	0	1479.19	1.56
313.15	0.1	1454.21	1.56
313.15	0.2	1427.64	1.56
313.15	0.3	1399.15	1.55
313.15	0.4	1365.38	1.55
313.15	0.5	1332.28	1.55
313.15	0.6	1293.2	1.55
313.15	0.7	1250.79	1.54
313.15	0.8	1201.94	1.53
313.15	0.9	1147.55	1.52
313.15	1	1086.32	1.51
318.15	0	1463.26	1.56
318.15	0.1	1438.45	1.56
318.15	0.2	1411.78	1.55
318.15	0.3	1383.11	1.55
318.15	0.4	1349.08	1.55
318.15	0.5	1315.78	1.55
318.15	0.6	1276.52	1.54
318.15	0.7	1233.5	1.54
318.15	0.8	1184.75	1.53
318.15	0.9	1130.09	1.52
318.15	1	1068.6	1.51
323.15	0	1447.76	1.56
323.15	0.1	1426.6	1.56
323.15	0.2	1398.02	1.55
323.15	0.3	1367.28	1.55
323.15	0.4	1333.05	1.55
323.15	0.5	1298.28	1.55
323.15	0.6	1259.79	1.54
323.15	0.7	1216.52	1.53
323.15	0.8	1167.47	1.52
323.15	0.9	1112.55	1.52
323.15	1	1050.56	1.51

System: propan-2-ol + 2-methylpropan-2-ol; phases: Liquid
Fixed: Pressure, kPa = 101
Property: Mass density, kg/m3 (Liquid); method: Vibrating tube method
Temperature, K	Mole fraction of propan-2-ol	Mass density, kg/m3	uncertainty
298.15	0	780.566	0.239
298.15	0.1	781.334	0.239
298.15	0.2	781.675	0.239
298.15	0.3	781.898	0.239
298.15	0.4	781.963	0.239
298.15	0.5	781.934	0.239
298.15	0.6	781.839	0.239
298.15	0.7	781.65	0.239
298.15	0.8	781.423	0.239
298.15	0.9	781.286	0.239
298.15	1	781.077	0.239
303.15	0	775.46	0.24
303.15	0.1	776.356	0.24
303.15	0.2	776.818	0.24
303.15	0.3	777.156	0.24
303.15	0.4	777.27	0.239
303.15	0.5	777.378	0.239
303.15	0.6	777.366	0.239
303.15	0.7	777.246	0.239
303.15	0.8	777.074	0.239
303.15	0.9	776.978	0.239
303.15	1	776.803	0.239
308.15	0	770.252	0.24
308.15	0.1	771.265	0.24
308.15	0.2	771.843	0.24
308.15	0.3	772.295	0.24
308.15	0.4	772.513	0.24
308.15	0.5	772.717	0.24
308.15	0.6	772.785	0.24
308.15	0.7	772.739	0.24
308.15	0.8	772.63	0.24
308.15	0.9	772.585	0.24
308.15	1	772.454	0.24
313.15	0	764.953	0.241
313.15	0.1	766.065	0.24
313.15	0.2	766.746	0.24
313.15	0.3	767.309	0.24
313.15	0.4	767.633	0.24
313.15	0.5	767.936	0.24
313.15	0.6	768.091	0.24
313.15	0.7	768.122	0.24
313.15	0.8	768.089	0.24
313.15	0.9	768.098	0.24
313.15	1	768.016	0.24
318.15	0	759.564	0.241
318.15	0.1	760.758	0.241
318.15	0.2	761.533	0.241
318.15	0.3	762.199	0.241
318.15	0.4	762.628	0.241
318.15	0.5	763.028	0.241
318.15	0.6	763.277	0.241
318.15	0.7	763.391	0.241
318.15	0.8	763.435	0.24
318.15	0.9	763.507	0.24
318.15	1	763.486	0.24
323.15	0	754.095	0.241
323.15	0.1	755.349	0.241
323.15	0.2	756.204	0.241
323.15	0.3	756.967	0.241
323.15	0.4	757.491	0.241
323.15	0.5	757.992	0.241
323.15	0.6	758.339	0.241
323.15	0.7	758.54	0.241
323.15	0.8	758.652	0.241
323.15	0.9	758.814	0.241
323.15	1	758.84	0.241

System: propan-2-ol + 2-methylpropan-2-ol; phases: Liquid
Fixed: Pressure, kPa = 101
Property: Speed of sound, m/s (Liquid); method: Sing-around technique in a fixed-path interferometer
Temperature, K	Mole fraction of propan-2-ol	Speed of sound, m/s	uncertainty
298.15	0	1120.82	1.52
298.15	0.1	1128.42	1.52
298.15	0.2	1133.19	1.52
298.15	0.3	1136.27	1.52
298.15	0.4	1137.93	1.52
298.15	0.5	1139.19	1.52
298.15	0.6	1139.42	1.52
298.15	0.7	1139.14	1.52
298.15	0.8	1139.33	1.52
298.15	0.9	1139.01	1.52
298.15	1	1139.1	1.52
303.15	0	1099.05	1.51
303.15	0.1	1106.84	1.51
303.15	0.2	1112.24	1.51
303.15	0.3	1115.94	1.51
303.15	0.4	1118.55	1.51
303.15	0.5	1119.9	1.51
303.15	0.6	1120.65	1.51
303.15	0.7	1121.03	1.51
303.15	0.8	1121.34	1.51
303.15	0.9	1121.18	1.51
303.15	1	1121.54	1.51
308.15	0	1077.13	1.51
308.15	0.1	1085.37	1.51
308.15	0.2	1091.27	1.51
308.15	0.3	1095.52	1.51
308.15	0.4	1098.78	1.51
308.15	0.5	1100.56	1.51
308.15	0.6	1101.79	1.51
308.15	0.7	1102.53	1.51
308.15	0.8	1103.29	1.51
308.15	0.9	1103.33	1.51
308.15	1	1103.96	1.51
313.15	0	1055.57	1.51
313.15	0.1	1064.03	1.51
313.15	0.2	1070.29	1.51
313.15	0.3	1075.03	1.51
313.15	0.4	1078.84	1.51
313.15	0.5	1081.51	1.51
313.15	0.6	1082.78	1.51
313.15	0.7	1083.92	1.51
313.15	0.8	1085.1	1.51
313.15	0.9	1085.52	1.51
313.15	1	1086.32	1.51
318.15	0	1034.09	1.5
318.15	0.1	1042.84	1.51
318.15	0.2	1049.36	1.51
318.15	0.3	1054.48	1.51
318.15	0.4	1058.78	1.51
318.15	0.5	1061.51	1.51
318.15	0.6	1063.65	1.51
318.15	0.7	1065.14	1.51
318.15	0.8	1066.76	1.51
318.15	0.9	1067.48	1.51
318.15	1	1068.6	1.51
323.15	0	1013.38	1.5
323.15	0.1	1021.83	1.5
323.15	0.2	1028.49	1.5
323.15	0.3	1033.97	1.5
323.15	0.4	1038.53	1.51
323.15	0.5	1041.8	1.51
323.15	0.6	1044.37	1.51
323.15	0.7	1046.2	1.51
323.15	0.8	1047.8	1.51
323.15	0.9	1049.51	1.51
323.15	1	1050.56	1.51
