Measured thermophysical data. Solid liquid gas equilibrium of the naphthalene biphenyl CO2 system: Measurement and modeling
Source: Fluid Phase Equilib., 2010, 10.1016/j.fluid.2010.09.006
Compound 1: naphthalene, C10H8, InChI=1S/C10H8/c1-2-6-10-8-4-3-7-9(10)5-1/h1-8H, purity 97%
Compound 2: biphenyl, C12H10, InChI=1S/C12H10/c1-3-7-11(8-4-1)12-9-5-2-6-10-12/h1-10H, purity 97%
Compound 3: carbon dioxide, CO2, InChI=1S/CO2/c2-1-3

System: naphthalene; phases: Crystal, Gas
Property: Vapor or sublimation pressure, kPa (Crystal); method: VISOBS
Temperature, K	Vapor or sublimation pressure, kPa	uncertainty
351.4	100	
345.7	3000	
341.4	6000	
337.8	8000	

System: naphthalene + biphenyl + carbon dioxide; phases: Liquid, Crystal, Crystal, Crystal, Gas
Property: Eutectic composition: mass fraction of biphenyl (Liquid); method: Derived from phase diagram analysis
Eutectic composition: mass fraction of biphenyl	uncertainty
0.4	0.1

System: naphthalene + biphenyl + carbon dioxide; phases: Liquid, Crystal, Crystal, Crystal, Gas
Property: Eutectic temperature, K (Liquid); method: Derived from phase diagram analysis
Eutectic temperature, K	uncertainty
313.6	1.4

System: naphthalene + biphenyl + carbon dioxide; phases: Liquid, Gas, Crystal, Crystal
Property: Eutectic temperature, K (Liquid); method: Derived from phase diagram analysis
Pressure, kPa	Eutectic temperature, K	uncertainty
100	313.6	1.4
3000	307.2	1.4
6000	300.6	1.4
8000	299.3	1.4

System: naphthalene + biphenyl + carbon dioxide; phases: Crystal, Crystal, Gas
Property: Triple point temperature, K (Crystal); method: Visual observation
Pressure, kPa	Mass fraction of biphenyl	Triple point temperature, K	uncertainty
100	0	339.9	0.6
3000	0	335.4	0.6
6000	0	329	0.6
8000	0	324.8	0.6
100	0.2	313.6	0.7
3000	0.2	306.3	0.7
6000	0.2	298.7	0.7
8000	0.2	297	0.7

System: naphthalene + biphenyl + carbon dioxide; phases: Liquid, Crystal, Gas
Property: Triple point temperature, K (Liquid); method: Visual method
Pressure, kPa	Mass fraction of biphenyl	Triple point temperature, K	uncertainty
100	0	341.3	1.4
3000	0	336.9	1.4
6000	0	333.1	1.4
8000	0	328.6	1.4
100	0.2	335.4	1.4
3000	0.2	327.9	1.4
6000	0.2	320.1	1.4
8000	0.2	314.7	1.4

System: naphthalene + biphenyl + carbon dioxide; phases: Crystal, Crystal, Gas
Property: Triple point temperature, K (Crystal); method: Visual observation
Pressure, kPa	Mass fraction of biphenyl	Triple point temperature, K	uncertainty
100	0.5	313.6	0.6
3000	0.5	306.2	0.6
6000	0.5	297	0.6
8000	0.5	296.9	0.6
100	0.6	313.8	0.6
3000	0.6	306.4	0.6
6000	0.6	297.9	0.6
8000	0.6	296.9	0.6
100	0.8	313.1	0.6
3000	0.8	306.2	0.6
6000	0.8	296.9	0.6
8000	0.8	296.6	0.7
100	1	351.4	0.6
3000	1	345.7	0.6
6000	1	341.4	0.6
8000	1	337.8	0.6

System: naphthalene + biphenyl + carbon dioxide; phases: Liquid, Crystal, Gas
Property: Triple point temperature, K (Liquid); method: Visual  observation
Pressure, kPa	Mass fraction of biphenyl	Triple point temperature, K	uncertainty
100	0.5	325.5	1.4
3000	0.5	322	1.4
6000	0.5	314.3	1.4
8000	0.5	310.9	1.4
100	0.6	329	1.4
3000	0.6	329.9	1.4
6000	0.6	323.4	1.4
8000	0.6	320.4	1.4
100	0.8	340.6	1.4
3000	0.8	341.3	1.4
6000	0.8	332.8	1.4
8000	0.8	333.9	1.4
100	1	352	1.4
3000	1	347.5	1.4
6000	1	345.1	1.4
8000	1	340.9	1.4
