Measured thermophysical data. Solid-liquid equilibrium data for the binary system methacrylic acid + methanol in the high methacrylic acid concentration range
Source: Fluid Phase Equilib., 2011, 10.1016/j.fluid.2011.09.002
Compound 1: methanol, CH4O, InChI=1S/CH4O/c1-2/h2H,1H3, purity 99.9%
Compound 2: 2-methyl-2-propenoic acid, C4H6O2, InChI=1S/C4H6O2/c1-3(2)4(5)6/h1H2,2H3,(H,5,6), purity 99.9%

System: methanol + 2-methyl-2-propenoic acid; phases: Liquid, Crystal
Fixed: Pressure, kPa = 101
Property: Solid-liquid equilibrium temperature, K (Liquid); method: cooling curve method
Mole fraction of 2-methyl-2-propenoic acid	Solid-liquid equilibrium temperature, K	uncertainty
0.73	272.9	1.3
0.78	275.7	1.2
0.82	277.6	1.2
0.85	279.5	1.2
0.88	280.7	1.2
0.89	281.7	1.2
0.9	282	1.4
0.92	283.2	1.2
0.96	285.2	1.3
1	287.8	0.6
