Measured thermophysical data. Surface tension of dimethyl ether + propane from 243 to 333 K
Source: Fluid Phase Equilib., 2010, 10.1016/j.fluid.2010.07.026
Compound 1: propane, C3H8, InChI=1S/C3H8/c1-3-2/h3H2,1-2H3, purity 99.95%
Compound 2: dimethyl ether, C2H6O, InChI=1S/C2H6O/c1-3-2/h1-2H3, purity 99.95%

System: propane; phases: Liquid, Air at 1 atmosphere
Property: Surface tension liquid-gas, N/m (Liquid); method: Capillary rise
Temperature, K	Surface tension liquid-gas, N/m	uncertainty
278.18	0.0095	0.0004
283.18	0.0089	0.0004
288.19	0.0083	0.0004
293.18	0.0077	0.0004
298.1	0.0071	0.0004
303.18	0.0064	0.0004

System: dimethyl ether; phases: Liquid, Air at 1 atmosphere
Property: Surface tension liquid-gas, N/m (Liquid); method: Capillary rise
Temperature, K	Surface tension liquid-gas, N/m	uncertainty
278.16	0.0147	0.0004
283.21	0.0139	0.0004
288.17	0.0131	0.0004
293.15	0.0126	0.0004
298.1	0.0118	0.0004
303.13	0.011	0.0004

System: propane + dimethyl ether; phases: Liquid, Air at 1 atmosphere
Property: Surface tension liquid-gas, N/m (Liquid); method: Capillary rise
Mass fraction of dimethyl ether	Temperature, K	Surface tension liquid-gas, N/m	uncertainty
0.3007	243.56	0.0152	0.0004
0.3007	248.27	0.0145	0.0004
0.3007	253.08	0.0139	0.0004
0.3007	258.42	0.0131	0.0004
0.3007	263.33	0.0124	0.0004
0.3007	268.05	0.0118	0.0004
0.3007	273.14	0.0111	0.0004
0.3007	278.13	0.0105	0.0004
0.3007	283.13	0.0098	0.0004
0.3007	288.12	0.0091	0.0004
0.3007	293.11	0.0084	0.0004
0.3007	298.08	0.0078	0.0004
0.3007	303.15	0.007	0.0004
0.3007	308.11	0.0065	0.0004
0.3007	313.17	0.0059	0.0004
0.3007	318.13	0.0053	0.0004
0.3007	323.17	0.0048	0.0004
0.3007	328.12	0.0042	0.0004
0.3007	333.12	0.0037	0.0004
0.3007	243.56	0.0152	0.0004
0.3007	248.27	0.0145	0.0004
0.3007	253.08	0.0139	0.0004
0.3007	258.42	0.0131	0.0004
0.3007	263.33	0.0124	0.0004
0.3007	268.05	0.0118	0.0004
0.3007	273.14	0.0111	0.0004
0.3007	278.13	0.0105	0.0004
0.3007	283.13	0.0098	0.0004
0.3007	288.12	0.0091	0.0004
0.3007	293.11	0.0085	0.0004
0.3007	298.08	0.0079	0.0004
0.3007	303.15	0.0071	0.0004
0.3007	308.11	0.0065	0.0004
0.3007	313.17	0.0059	0.0004
0.3007	318.13	0.0053	0.0004
0.3007	323.17	0.0048	0.0004
0.3007	328.12	0.0042	0.0004
0.3007	333.12	0.0037	0.0004
0.4975	243.4	0.016	0.0004
0.4975	248.19	0.0154	0.0004
0.4975	253.09	0.0147	0.0004
0.4975	258.38	0.0139	0.0004
0.4975	263.11	0.0134	0.0004
0.4975	268.16	0.0127	0.0004
0.4975	273.16	0.0119	0.0004
0.4975	278.15	0.0113	0.0004
0.4975	283.16	0.0106	0.0004
0.4975	288.15	0.01	0.0004
0.4975	293.13	0.0093	0.0004
0.4975	298.09	0.0087	0.0004
0.4975	303.12	0.008	0.0004
0.4975	308.08	0.0074	0.0004
0.4975	313.17	0.0066	0.0004
0.4975	318.13	0.0061	0.0004
0.4975	323.17	0.0055	0.0004
0.4975	328.13	0.0049	0.0004
0.4975	333.14	0.0043	0.0004
0.4975	243.4	0.016	0.0004
0.4975	248.19	0.0154	0.0004
0.4975	253.09	0.0147	0.0004
0.4975	258.38	0.014	0.0004
0.4975	263.11	0.0134	0.0004
0.4975	268.16	0.0127	0.0004
0.4975	273.16	0.012	0.0004
0.4975	278.15	0.0113	0.0004
0.4975	283.16	0.0106	0.0004
0.4975	288.15	0.01	0.0004
0.4975	293.13	0.0093	0.0004
0.4975	298.09	0.0087	0.0004
0.4975	303.12	0.008	0.0004
0.4975	308.08	0.0074	0.0004
0.4975	313.17	0.0067	0.0004
0.4975	318.13	0.0061	0.0004
0.4975	323.17	0.0055	0.0004
0.4975	328.13	0.005	0.0004
0.4975	333.14	0.0043	0.0004
0.6949	243.46	0.0173	0.0004
0.6949	248.43	0.0167	0.0004
0.6949	253.23	0.0159	0.0004
0.6949	258.34	0.0152	0.0004
0.6949	263.16	0.0144	0.0004
0.6949	268.16	0.0137	0.0004
0.6949	273.15	0.0129	0.0004
0.6949	278.16	0.0123	0.0004
0.6949	283.16	0.0116	0.0004
0.6949	288.15	0.0111	0.0004
0.6949	293.17	0.0104	0.0004
0.6949	298.1	0.0096	0.0004
0.6949	303.17	0.0091	0.0004
0.6949	308.11	0.0084	0.0004
0.6949	313.18	0.0077	0.0004
0.6949	318.16	0.0071	0.0004
0.6949	323.17	0.0064	0.0004
0.6949	328.14	0.0058	0.0004
0.6949	333.13	0.0052	0.0004
0.6949	243.46	0.0172	0.0004
0.6949	248.43	0.0166	0.0004
0.6949	253.23	0.0158	0.0004
0.6949	258.34	0.0152	0.0004
0.6949	263.16	0.0144	0.0004
0.6949	268.16	0.0137	0.0004
0.6949	273.15	0.0129	0.0004
0.6949	278.16	0.0123	0.0004
0.6949	283.16	0.0116	0.0004
0.6949	288.15	0.011	0.0004
0.6949	293.17	0.0104	0.0004
0.6949	298.1	0.0096	0.0004
0.6949	303.17	0.0091	0.0004
0.6949	308.11	0.0085	0.0004
0.6949	313.18	0.0077	0.0004
0.6949	318.16	0.0071	0.0004
0.6949	323.17	0.0065	0.0004
0.6949	328.14	0.0059	0.0004
0.6949	333.13	0.0053	0.0004
