Measured thermophysical data. Prediction of phase equilibria and excess properties for systems with ionic liquids using modified UNIFAC: Typical results and present status of the modified UNIFAC matrix for ionic liquids
Source: Fluid Phase Equilib., 2011, 10.1016/j.fluid.2010.09.021
Compound 1: 1-butyl-1-methylpyrrolidinium bis[(trifluoromethyl)sulfonyl]imide, C11H20F6N2O4S2, InChI=1S/C9H20N.C2F6NO4S2/c1-3-4-7-10(2)8-5-6-9-10;3-1(4,5)14(10,11)9-15(12,13)2(6,7)8/h3-9H2,1-2H3;/q+1;-1, purity 98%
Compound 2: 1-hexyl-1-methylpyrrolidinium bis(trifluoromethanesulfonyl)imide, C13H24F6N2O4S2, InChI=1S/C11H24N.C2F6NO4S2/c1-3-4-5-6-9-12(2)10-7-8-11-12;3-1(4,5)14(10,11)9-15(12,13)2(6,7)8/h3-11H2,1-2H3;/q+1;-1, purity 98%
Compound 3: 1-methyl-1-octylpyrrolidinium bis(trifluoromethylsulfonyl)amide, C15H28F6N2O4S2, InChI=1S/C13H28N.C2F6NO4S2/c1-3-4-5-6-7-8-11-14(2)12-9-10-13-14;3-1(4,5)14(10,11)9-15(12,13)2(6,7)8/h3-13H2,1-2H3;/q+1;-1, purity 98%
Compound 4: benzene, C6H6, InChI=1S/C6H6/c1-2-4-6-5-3-1/h1-6H
Compound 5: toluene, C7H8, InChI=1S/C7H8/c1-7-5-3-2-4-6-7/h2-6H,1H3

System: benzene + 1-hexyl-1-methylpyrrolidinium bis(trifluoromethanesulfonyl)imide; phases: Liquid, Gas
Fixed: Temperature, K = 363.15
Property: Vapor or sublimation pressure, kPa (Liquid); method: Closed cell (Static) method
Mole fraction of benzene	Vapor or sublimation pressure, kPa	uncertainty
0.0167	1.762	0.028
0.0345	3.663	0.038
0.0487	5.155	0.045
0.0603	6.479	0.052
0.0729	7.848	0.06
0.0882	9.602	0.069
0.1043	11.53	0.08
0.1185	13.2	0.09
0.1418	15.98	0.1
0.1956	22.62	0.13
0.2791	33.97	0.19
0.3931	51.45	0.27
0.535	77.3	0.37
0.7056	113.35	0.51
0.8148	132.29	0.58

System: benzene + 1-hexyl-1-methylpyrrolidinium bis(trifluoromethanesulfonyl)imide; phases: Liquid
Fixed: Temperature, K = 393.15
Fixed: Pressure, kPa = 2342
Property: Excess molar enthalpy (molar enthalpy of mixing), kJ/mol (Liquid); method: Flow calorimetry
Mole fraction of benzene	Excess molar enthalpy (molar enthalpy of mixing), kJ/mol	uncertainty
0.0899	-0.17671	0.00734
0.1686	-0.36291	0.01488
0.238	-0.50488	0.02064
0.2998	-0.60707	0.02479
0.355	-0.74042	0.03021
0.4047	-0.8332	0.03398
0.4906	-0.95086	0.03875
0.5622	-1.0539	0.0429
0.6228	-1.1022	0.0449
0.7198	-0.98559	0.04016
0.7939	-0.79681	0.0325
0.8525	-0.58861	0.02404
0.9204	-0.30728	0.01262
0.972	-0.103	0.00436

System: toluene + 1-hexyl-1-methylpyrrolidinium bis(trifluoromethanesulfonyl)imide; phases: Liquid, Gas
Fixed: Temperature, K = 363.15
Property: Vapor or sublimation pressure, kPa (Liquid); method: Closed cell (Static) method
Mole fraction of toluene	Vapor or sublimation pressure, kPa	uncertainty
0.0112	0.685	0.0165
0.0223	1.332	0.026
0.0301	1.817	0.028
0.0455	2.727	0.033
0.0587	3.502	0.037
0.0677	4.02	0.039
0.0764	4.561	0.042
0.0852	5.087	0.045
0.1076	6.418	0.052
0.1477	8.881	0.064
0.2311	14.46	0.09
0.3455	22.67	0.13
0.4901	34.06	0.18
0.6664	47.74	0.23

System: toluene + 1-hexyl-1-methylpyrrolidinium bis(trifluoromethanesulfonyl)imide; phases: Liquid
Fixed: Temperature, K = 413.15
Fixed: Pressure, kPa = 2377
Property: Excess molar enthalpy (molar enthalpy of mixing), kJ/mol (Liquid); method: Flow calorimetry
Mole fraction of toluene	Excess molar enthalpy (molar enthalpy of mixing), kJ/mol	uncertainty
0.0759	-0.15323	0.00639
0.1443	-0.29452	0.01211
0.2063	-0.40469	0.01658
0.2626	-0.50724	0.02074
0.314	-0.60566	0.02474
0.3612	-0.68956	0.02814
0.4448	-0.78921	0.03219
0.5165	-0.83249	0.03395
0.5787	-0.84895	0.03461
0.6812	-0.78579	0.03205
0.7622	-0.63337	0.02586
0.8278	-0.46976	0.01922
0.9058	-0.26896	0.01107
0.9665	-0.10822	0.00457

System: benzene + 1-methyl-1-octylpyrrolidinium bis(trifluoromethylsulfonyl)amide; phases: Liquid, Gas
Fixed: Temperature, K = 363.15
Property: Vapor or sublimation pressure, kPa (Liquid); method: Closed cell (Static) method
Mole fraction of benzene	Vapor or sublimation pressure, kPa	uncertainty
0.0191	1.761	0.028
0.0366	3.375	0.036
0.0523	4.933	0.044
0.0707	6.665	0.053
0.0846	8.046	0.061
0.1023	9.863	0.07
0.1205	11.73	0.08
0.1367	13.42	0.09
0.1609	16.04	0.1
0.2172	22.58	0.13
0.3053	33.68	0.19
0.4226	50.88	0.26
0.5634	76.17	0.36
0.7272	111.1	0.5
0.8295	129.6	0.6
0.8842	134.7	0.6

System: toluene + 1-methyl-1-octylpyrrolidinium bis(trifluoromethylsulfonyl)amide; phases: Liquid, Gas
Fixed: Temperature, K = 363.15
Property: Vapor or sublimation pressure, kPa (Liquid); method: Closed cell (Static) method
Mole fraction of toluene	Vapor or sublimation pressure, kPa	uncertainty
0.0162	0.7956	0.0188
0.0288	1.435	0.026
0.0444	2.212	0.03
0.0559	2.813	0.033
0.0708	3.571	0.037
0.085	4.301	0.041
0.0987	5.008	0.044
0.1119	5.738	0.048
0.137	7.123	0.055
0.1887	10.05	0.07
0.2719	15.09	0.09
0.3853	22.7	0.13
0.5255	33.33	0.17
0.6944	46.52	0.22
0.8046	52.65	0.24

System: benzene + 1-butyl-1-methylpyrrolidinium bis[(trifluoromethyl)sulfonyl]imide; phases: Liquid
Fixed: Temperature, K = 363.15
Fixed: Pressure, kPa = 2239
Property: Excess molar enthalpy (molar enthalpy of mixing), kJ/mol (Liquid); method: Flow calorimetry
Mole fraction of benzene	Excess molar enthalpy (molar enthalpy of mixing), kJ/mol	uncertainty
0.0815	-0.12936	0.00543
0.1541	-0.26009	0.01071
0.2191	-0.35617	0.01461
0.2777	-0.46008	0.01883
0.3308	-0.56959	0.02327
0.3792	-0.64609	0.02638
0.4639	-0.75812	0.03093
0.5357	-0.84815	0.03458
0.7758	-0.73276	0.0299
0.8385	-0.52485	0.02145
0.9121	-0.29306	0.01205
0.9689	-0.097094	0.004126

System: toluene + 1-butyl-1-methylpyrrolidinium bis[(trifluoromethyl)sulfonyl]imide; phases: Liquid
Fixed: Temperature, K = 413.15
Fixed: Pressure, kPa = 2342
Property: Excess molar enthalpy (molar enthalpy of mixing), kJ/mol (Liquid); method: Flow calorimetry
Mole fraction of toluene	Excess molar enthalpy (molar enthalpy of mixing), kJ/mol	uncertainty
0.0687	-0.12115	0.0051
0.1315	-0.25329	0.01044
0.1892	-0.36472	0.01496
0.2423	-0.43173	0.01767
0.2914	-0.49862	0.02039
0.3368	-0.56801	0.02321
0.4184	-0.6709	0.02738
0.4896	-0.70213	0.02865
0.5523	-0.69468	0.02835
0.6574	-0.64124	0.02618
0.7421	-0.51654	0.02112
0.8119	-0.39332	0.01611
0.8962	-0.22717	0.00938
0.9628	-0.07587	0.00328
