Measured thermophysical data. High pressure vapor liquid equilibria for the systems thiophene + nonane +CO2, and thiophene + decane +CO2
Source: Fluid Phase Equilib., 2005, 10.1016/j.fluid.2005.06.029
Compound 1: carbon dioxide, CO2, InChI=1S/CO2/c2-1-3, purity 99.995%
Compound 2: thiophene, C4H4S, InChI=1S/C4H4S/c1-2-4-5-3-1/h1-4H
Compound 3: nonane, C9H20, InChI=1S/C9H20/c1-3-5-7-9-8-6-4-2/h3-9H2,1-2H3
Compound 4: decane, C10H22, InChI=1S/C10H22/c1-3-5-7-9-10-8-6-4-2/h3-10H2,1-2H3

System: thiophene + nonane + carbon dioxide; phases: Gas, Liquid
Property: Mole fraction of thiophene (Gas); method: CHROM:UFactor:2
Property: Mole fraction of thiophene (Liquid); method: CHROM:UFactor:2
Property: Mole fraction of nonane (Liquid); method: CHROM:UFactor:2
Temperature, K	Pressure, kPa	Mole fraction of nonane	Mole fraction of thiophene	uncertainty	Mole fraction of thiophene	uncertainty	Mole fraction of nonane	uncertainty
383.32	15184	0.0889	0.0362	0.001				
383.32	3145	0.0126	0.03	0.0008				
383.32	1980	0.0159	0.0419	0.0011				
334.31	4172	0.0028	0.0063	0.0002	0.1453	0.0036	0.5091	
334.31	5083	0.0028	0.006	0.0002	0.1299	0.0032	0.4588	
334.31	6102	0.0029	0.0057	0.0002	0.1143	0.0028	0.4063	
334.31	7045	0.0032	0.0057	0.0002	0.0959	0.0023	0.3502	
334.31	8084	0.0041	0.006	0.0002	0.0777	0.0019	0.2886	
334.31	9003	0.006	0.0064	0.0002	0.0586	0.0014	0.2239	
334.31	10066	0.0168	0.0086	0.0002	0.0345	0.0008	0.1196	
334.31	10464	0.023	0.0107	0.0003	0.0227	0.0006	0.0746	
363.72	4035	0.0067	0.0138	0.0004	0.1581	0.0039	0.5706	
363.72	5000	0.0065	0.0124	0.0003	0.1491	0.0037	0.5299	
363.72	6048	0.0065	0.0116	0.0003	0.1372	0.0034	0.482	
363.72	7023	0.0068	0.0115	0.0003	0.1284	0.0031	0.4433	
363.72	7992	0.0076	0.0112	0.0003	0.1168	0.0029	0.404	
363.72	8962	0.0084	0.0114	0.0003	0.1067	0.0026	0.3659	
363.72	10011	0.0108	0.0123	0.0003	0.095	0.0023	0.3219	
363.72	10987	0.0141	0.0135	0.0004	0.0815	0.002	0.2757	
363.72	12017	0.0195	0.0152	0.0004	0.0695	0.0017	0.2314	
363.72	13036	0.0306	0.0186	0.0005	0.0537	0.0013	0.1558	
363.72	13675	0.0637	0.0284	0.0007	0.037	0.0009	0.0962	
383.32	4176	0.0114	0.0247	0.0007	0.1991	0.0049	0.5584	
383.32	5220	0.011	0.022	0.0006	0.1851	0.0045	0.525	
383.32	6066	0.0109	0.0203	0.0005	0.1682	0.0041	0.4874	
383.32	7032	0.0116	0.0195	0.0005	0.1583	0.0039	0.4596	
383.32	8093	0.0124	0.0187	0.0005	0.1433	0.0035	0.4246	
383.32	9168	0.0137	0.0185	0.0005	0.1292	0.0032	0.3876	
383.32	10147	0.0152	0.018	0.0005	0.1157	0.0028	0.3554	
383.32	11197	0.0186	0.019	0.0005	0.1042	0.0026	0.321	
383.32	12115	0.0216	0.0193	0.0005	0.0939	0.0023	0.294	
383.32	13034	0.0278	0.021	0.0006	0.083	0.002	0.2617	
383.32	14062	0.0398	0.0243	0.0006	0.0688	0.0017	0.2194	
383.32	14753	0.0559	0.0282	0.0007	0.0568	0.0014	0.1802	
383.32	15114	0.0771	0.0332	0.0009	0.0448	0.0011	0.1221	

System: thiophene + decane + carbon dioxide; phases: Gas, Liquid
Property: Mole fraction of thiophene (Gas); method: CHROM:UFactor:2
Property: Mole fraction of decane (Liquid); method: CHROM:UFactor:2
Property: Mole fraction of thiophene (Liquid); method: CHROM:UFactor:2
Temperature, K	Pressure, kPa	Mole fraction of decane	Mole fraction of thiophene	uncertainty	Mole fraction of decane	uncertainty	Mole fraction of thiophene	uncertainty
334.4	2564	0.0012	0.0169	0.0004	0.3634	0.0089	0.4125	
334.4	4025	0.0011	0.014	0.0004	0.3178	0.0078	0.3673	
334.4	5088	0.0011	0.0129	0.0003	0.2861	0.007	0.3287	
334.4	6100	0.0011	0.0124	0.0003	0.2517	0.0062	0.2796	
334.4	7005	0.0012	0.0127	0.0003	0.2234	0.0055	0.2433	
334.4	8096	0.0018	0.0137	0.0004	0.1804	0.0044	0.1925	
334.4	9013	0.0028	0.0148	0.0004	0.1399	0.0034	0.1445	
334.4	10011	0.0078	0.0199	0.0005	0.0783	0.0019	0.0868	
334.4	10538	0.0158	0.0276	0.0007	0.0428	0.001	0.0509	
363.78	3050	0.0025	0.0352	0.0009	0.3792	0.0093	0.427	
363.78	3959	0.0024	0.0301	0.0008	0.352	0.0086	0.4058	
363.78	4989	0.0025	0.0275	0.0007	0.325	0.008	0.3745	
363.78	6181	0.0026	0.0252	0.0007	0.2946	0.0072	0.3441	
363.78	6964	0.0027	0.0246	0.0006	0.2757	0.0068	0.3239	
363.78	8113	0.0031	0.0252	0.0007	0.2462	0.006	0.2922	
363.78	9011	0.0036	0.0255	0.0007	0.2259	0.0055	0.2691	
363.78	9993	0.0047	0.0276	0.0007	0.1994	0.0049	0.2466	
363.78	11061	0.0069	0.0314	0.0008	0.1729	0.0042	0.2081	
363.78	12027	0.0098	0.0346	0.0009	0.1438	0.0035	0.1724	
363.78	13112	0.0193	0.0473	0.0012	0.0986	0.0024	0.1306	
363.78	13746	0.0351	0.0648	0.0017	0.0621	0.0015	0.0928	
383.27	2772	0.9301	0.0044	0.0001	0.3362	0.0083	0.5131	
383.27	4145	0.9448	0.004	0.0001	0.3203	0.0079	0.4571	
383.27	5075	0.95	0.004	0.0001	0.3044	0.0075	0.4325	
383.27	6170	0.9541	0.0041	0.0001	0.2864	0.007	0.406	
383.27	7213	0.9557	0.0043	0.0001	0.2698	0.0066	0.3776	
383.27	8090	0.9548	0.005	0.0001	0.2542	0.0062	0.3522	
383.27	9110	0.9539	0.0057	0.0002	0.2349	0.0058	0.3223	
383.27	10075	0.9525	0.0067	0.0002	0.2188	0.0054	0.2969	
383.27	11087	0.9497	0.0082	0.0002	0.1984	0.0049	0.2738	
383.27	12035	0.9465	0.01	0.0003	0.1798	0.0044	0.2367	
383.27	13070	0.9376	0.0137	0.0004	0.1609	0.0039	0.2069	
383.27	14058	0.927	0.0191	0.0005	0.1383	0.0034	0.1751	
383.27	15011	0.8985	0.0331	0.0009	0.1026	0.0025	0.1369	
383.27	15366	0.8715	0.047	0.0012	0.0778	0.0019	0.1118	
