Measured thermophysical data. Phase behavior for the 2-(trimethylsilyloxy)ethyl methacrylate and 3-(trimethoxysilyl)propyl methacrylate in supercritical carbon dioxide
Source: Fluid Phase Equilib., 2018, 10.1016/j.fluid.2018.01.013
Compound 1: carbon dioxide, CO2, InChI=1S/CO2/c2-1-3, purity 99.9%
Compound 2: 2-(trimethylsilyloxy)ethyl methacrylate, C9H18O3Si, InChI=1S/C9H18O3Si/c1-8(2)9(10)11-6-7-12-13(3,4)5/h1,6-7H2,2-5H3, purity 96%
Compound 3: 3-(trimethoxysilyl)propyl methacrylate, C10H20O5Si, InChI=1S/C10H20O5Si/c1-9(2)10(11)15-7-6-8-16(12-3,13-4)14-5/h1,6-8H2,2-5H3, purity 98%

System: 2-(trimethylsilyloxy)ethyl methacrylate + carbon dioxide; phases: Liquid, Gas
Property: Vapor or sublimation pressure, kPa (Liquid); method: Closed cell (Static) method
Temperature, K	Mole fraction of 2-(trimethylsilyloxy)ethyl methacrylate	Vapor or sublimation pressure, kPa	uncertainty
313.2	0.043	8510	120
313.2	0.068	8320	120
313.2	0.11	7930	120
313.2	0.153	7620	120
313.2	0.166	7500	110
313.2	0.179	7350	110
313.2	0.199	7080	110
313.2	0.222	6940	110
313.2	0.225	6910	110
313.2	0.277	6410	110
313.2	0.302	6120	110
313.2	0.385	5170	110
313.2	0.442	4560	100
313.2	0.485	4290	100
313.2	0.512	4080	100
333.2	0.043	11770	120
333.2	0.068	11530	120
333.2	0.11	10890	120
333.2	0.153	10210	120
333.2	0.166	9930	120
333.2	0.179	9740	120
333.2	0.199	9320	110
333.2	0.222	8950	110
333.2	0.225	8910	110
333.2	0.277	8180	110
333.2	0.302	7730	110
333.2	0.385	6340	110
333.2	0.442	5680	110
333.2	0.485	5170	100
333.2	0.512	4900	100
353.2	0.11	13850	120
353.2	0.153	12520	120
353.2	0.166	12250	120
353.2	0.179	12050	120
353.2	0.199	11700	120
353.2	0.222	11160	120
353.2	0.225	11120	120
353.2	0.277	10170	110
353.2	0.302	9590	110
353.2	0.385	7800	110
353.2	0.442	6840	110
353.2	0.485	6090	110
353.2	0.512	5710	110
373.2	0.11	16490	120
373.2	0.153	15360	120
373.2	0.166	15110	120
373.2	0.179	14630	120
373.2	0.199	14020	120
373.2	0.222	13340	120
373.2	0.225	13160	120
373.2	0.277	12000	110
373.2	0.302	11330	110
373.2	0.385	9050	110
373.2	0.442	8010	110
373.2	0.485	7200	110
373.2	0.512	6670	110
393.2	0.153	17400	120
393.2	0.166	17150	120
393.2	0.179	16820	120
393.2	0.199	16190	120
393.2	0.222	15380	120
393.2	0.225	15230	120
393.2	0.277	13640	120
393.2	0.302	12660	110
393.2	0.385	10250	110
393.2	0.442	8980	110
393.2	0.485	7890	110
393.2	0.512	7490	110

System: 2-(trimethylsilyloxy)ethyl methacrylate + carbon dioxide; phases: Gas, Liquid
Property: Vapor or sublimation pressure, kPa (Gas); method: Closed cell (Static) method
Temperature, K	Mole fraction of 2-(trimethylsilyloxy)ethyl methacrylate	Vapor or sublimation pressure, kPa	uncertainty
353.2	0.043	14520	120
373.2	0.043	16470	120
373.2	0.068	16670	110
393.2	0.043	17600	110
393.2	0.068	17910	120

System: 2-(trimethylsilyloxy)ethyl methacrylate + carbon dioxide; phases: Liquid, Gas
Property: Critical pressure, kPa (Liquid); method: Direct measurement
Mole fraction of 2-(trimethylsilyloxy)ethyl methacrylate	Critical pressure, kPa	uncertainty
0.068	14630	100
0.11	18000	100

System: 2-(trimethylsilyloxy)ethyl methacrylate + carbon dioxide; phases: Liquid, Gas
Property: Critical temperature, K (Liquid); method: Visual observation in an unstirred cell
Mole fraction of 2-(trimethylsilyloxy)ethyl methacrylate	Critical temperature, K	uncertainty
0.068	353.2	0.4
0.11	393.2	0.4

System: 3-(trimethoxysilyl)propyl methacrylate + carbon dioxide; phases: Liquid, Gas
Property: Vapor or sublimation pressure, kPa (Liquid); method: Closed cell (Static) method
Temperature, K	Mole fraction of 3-(trimethoxysilyl)propyl methacrylate	Vapor or sublimation pressure, kPa	uncertainty
313.2	0.039	9380	130
313.2	0.064	9430	130
313.2	0.099	9200	130
313.2	0.118	9000	120
313.2	0.15	8810	120
313.2	0.234	7800	110
313.2	0.329	6670	110
313.2	0.378	6060	110
313.2	0.463	5350	100
313.2	0.587	4600	100
313.2	0.6	4560	100
313.2	0.614	4490	100
333.2	0.039	13540	140
333.2	0.064	13440	130
333.2	0.099	12930	130
333.2	0.118	12280	130
333.2	0.15	11810	120
333.2	0.234	9870	110
333.2	0.329	8400	110
333.2	0.378	7490	110
333.2	0.463	6260	100
333.2	0.587	5200	100
333.2	0.6	5100	100
333.2	0.614	5040	100
353.2	0.099	16740	130
353.2	0.118	16130	130
353.2	0.15	15110	130
353.2	0.234	12180	120
353.2	0.329	10210	110
353.2	0.378	8910	110
353.2	0.463	7350	110
353.2	0.587	5920	100
353.2	0.6	5820	100
353.2	0.614	5650	100
373.2	0.099	19840	130
373.2	0.118	19500	130
373.2	0.15	18080	130
373.2	0.234	14560	120
373.2	0.329	11840	110
373.2	0.378	10340	110
373.2	0.463	8470	110
373.2	0.587	6480	100
373.2	0.6	6360	100
373.2	0.614	6190	100
393.2	0.118	21820	130
393.2	0.15	20550	130
393.2	0.234	16740	120
393.2	0.329	13550	110
393.2	0.378	11830	110
393.2	0.463	9870	110
393.2	0.587	7090	100
393.2	0.6	6870	100
393.2	0.614	6600	100

System: 3-(trimethoxysilyl)propyl methacrylate + carbon dioxide; phases: Gas, Liquid
Property: Vapor or sublimation pressure, kPa (Gas); method: Closed cell (Static) method
Temperature, K	Mole fraction of 3-(trimethoxysilyl)propyl methacrylate	Vapor or sublimation pressure, kPa	uncertainty
353.2	0.039	17040	130
373.2	0.039	20070	130
373.2	0.064	20140	120
393.2	0.039	21920	120
393.2	0.064	22250	130

System: 3-(trimethoxysilyl)propyl methacrylate + carbon dioxide; phases: Liquid, Gas
Property: Critical pressure, kPa (Liquid); method: Direct measurement
Mole fraction of 3-(trimethoxysilyl)propyl methacrylate	Critical pressure, kPa	uncertainty
0.064	17280	100
0.099	22490	100

System: 3-(trimethoxysilyl)propyl methacrylate + carbon dioxide; phases: Liquid, Gas
Property: Critical temperature, K (Liquid); method: Visual observation in an unstirred cell
Mole fraction of 3-(trimethoxysilyl)propyl methacrylate	Critical temperature, K	uncertainty
0.064	353.2	0.4
0.099	393.2	0.4
