Measured thermophysical data. Physico-chemical properties of ionic liquids: density, viscosity, density at high pressure, surface tension, octan-1-ol/water partition coefficients and thermodynamic models
Source: Fluid Phase Equilib., 2019, 10.1016/j.fluid.2019.112304
Compound 1: thiophene, C4H4S, InChI=1S/C4H4S/c1-2-4-5-3-1/h1-4H, purity 99%
Compound 2: butan-1-ol, C4H10O, InChI=1S/C4H10O/c1-2-3-4-5/h5H,2-4H2,1H3, purity 99.9%
Compound 3: octan-1-ol, C8H18O, InChI=1S/C8H18O/c1-2-3-4-5-6-7-8-9/h9H,2-8H2,1H3, purity 99%
Compound 4: water, H2O, InChI=1S/H2O/h1H2, purity 99.8%
Compound 5: 1-(2-hydroxyethyl)pyridinium tricyanomethanide, C11H10N4O, InChI=1S/C7H10NO.C4N3/c9-7-6-8-4-2-1-3-5-8;5-1-4(2-6)3-7/h1-5,9H,6-7H2;/q+1;-1
Compound 6: 1-(3-hydroxypropyl)pyridinium tricyanomethanide, C12H12N4O, InChI=1S/C8H12NO.C4N3/c10-8-4-7-9-5-2-1-3-6-9;5-1-4(2-6)3-7/h1-3,5-6,10H,4,7-8H2;/q+1;-1
Compound 7: benzyldimethyldodecylammonium bis(trifluoromethylsulfonyl)imide, C23H38F6N2O4S2, InChI=1S/C21H38N.C2F6NO4S2/c1-4-5-6-7-8-9-10-11-12-16-19-22(2,3)20-21-17-14-13-15-18-21;3-1(4,5)14(10,11)9-15(12,13)2(6,7)8/h13-15,17-18H,4-12,16,19-20H2,1-3H3;/q+1;-1

System: thiophene; phases: Liquid
Fixed: Pressure, kPa = 101
Property: Mass density, kg/m3 (Liquid); method: Vibrating tube method
Temperature, K	Mass density, kg/m3	uncertainty
293.15	1064.42	0.12
298.15	1058.53	0.12
303.15	1052.67	0.11
308.15	1046.69	0.11
313.15	1040.71	0.11
318.15	1034.78	0.11
323.15	1028.69	0.11
328.15	1022.51	0.11
333.15	1016.4	0.11
338.15	1010.15	0.11
343.15	1003.94	0.11
348.15	997.65	0.11

System: thiophene; phases: Liquid
Fixed: Pressure, kPa = 101
Property: Viscosity, Pa*s (Liquid); method: Falling or rolling sphere viscometry
Temperature, K	Viscosity, Pa*s	uncertainty
293.15	0.000653	6.5e-05
298.15	0.000615	6.2e-05
303.15	0.00058	5.8e-05
308.15	0.000545	5.5e-05
313.15	0.000518	5.2e-05
318.15	0.000491	4.9e-05
323.15	0.000464	4.7e-05
328.15	0.000441	4.4e-05
333.15	0.00042	4.2e-05
338.15	0.0004	4e-05
343.15	0.000382	3.8e-05
348.15	0.000364	3.7e-05

System: butan-1-ol; phases: Liquid
Fixed: Pressure, kPa = 101
Property: Mass density, kg/m3 (Liquid); method: Vibrating tube method
Temperature, K	Mass density, kg/m3	uncertainty
293.15	810.15	0.14
298.15	805.78	0.14
303.15	802.07	0.14
308.15	798.06	0.14
313.15	793.98	0.14
318.15	790.21	0.15
323.15	785.9	0.15
328.15	782.16	0.15
333.15	777.82	0.15
338.15	773.88	0.15
343.15	769.74	0.15
348.15	765.32	0.15

System: butan-1-ol; phases: Liquid
Fixed: Pressure, kPa = 101
Property: Viscosity, Pa*s (Liquid); method: Falling or rolling sphere viscometry
Temperature, K	Viscosity, Pa*s	uncertainty
298.15	0.00252	0.000253
303.15	0.00223	0.000224
308.15	0.00198	0.000199
313.15	0.00175	0.000175
318.15	0.00156	0.000156
323.15	0.00142	0.000142
328.15	0.00127	0.000127
333.15	0.00111	0.000111
338.15	0.00101	0.000101
343.15	0.00092	9.2e-05
348.15	0.000845	8.5e-05

System: 1-(2-hydroxyethyl)pyridinium tricyanomethanide; phases: Liquid
Property: Mass density, kg/m3 (Liquid); method: Vibrating tube method
Temperature, K	Pressure, kPa	Mass density, kg/m3	uncertainty
298.15	100	1170.4	3.4
298.15	1000	1171.1	3.4
298.15	5000	1173.1	3.4
298.15	10000	1175.3	3.4
298.15	15000	1177.6	3.5
298.15	20000	1179.5	3.5
298.15	25000	1181.7	3.5
298.15	30000	1184	3.6
298.15	35000	1185.9	3.6
298.15	40000	1187.8	3.6
308.15	100	1163.5	3.3
308.15	1000	1164.4	3.3
308.15	5000	1166.1	3.4
308.15	10000	1168.4	3.4
308.15	15000	1170.5	3.4
308.15	20000	1172.9	3.5
308.15	25000	1175	3.5
308.15	30000	1177.2	3.5
308.15	35000	1179.5	3.6
308.15	40000	1181.2	3.6
318.15	100	1156.8	3.3
318.15	1000	1157.4	3.3
318.15	5000	1159.3	3.3
318.15	10000	1161.7	3.4
318.15	15000	1164.1	3.4
318.15	20000	1166.2	3.4
318.15	25000	1168.3	3.5
318.15	30000	1170.6	3.5
318.15	35000	1172.7	3.5
318.15	40000	1174.6	3.6
328.15	100	1150.1	3.3
328.15	1000	1150.7	3.3
328.15	5000	1152.7	3.3
328.15	10000	1155.1	3.3
328.15	15000	1157.5	3.4
328.15	20000	1159.8	3.4
328.15	25000	1162.1	3.4
328.15	30000	1164.2	3.5
328.15	35000	1166.2	3.5
328.15	40000	1168.1	3.5
338.15	100	1143.4	3.2
338.15	1000	1144.1	3.2
338.15	5000	1146.2	3.3
338.15	10000	1148.7	3.3
338.15	15000	1151.1	3.3
338.15	20000	1153.3	3.4
338.15	25000	1155.6	3.4
338.15	30000	1157.8	3.4
338.15	35000	1160	3.5
338.15	40000	1162.2	3.5
348.15	100	1136.8	3.2
348.15	1000	1137.3	3.2
348.15	5000	1139.5	3.2
348.15	10000	1142.1	3.3
348.15	15000	1144.5	3.3
348.15	20000	1146.9	3.3
348.15	25000	1149.1	3.4
348.15	30000	1151.4	3.4
348.15	35000	1153.4	3.4
348.15	40000	1155.7	3.5
293.15	101	1173.87	2.65
298.15	101	1170.41	2.64
303.15	101	1166.96	2.62
308.15	101	1163.54	2.6
313.15	101	1160.14	2.59
318.15	101	1156.75	2.57
323.15	101	1153.39	2.56
328.15	101	1150.05	2.54
333.15	101	1146.72	2.52
338.15	101	1143.41	2.51
343.15	101	1140.12	2.49
348.15	101	1136.84	2.48

System: 1-(2-hydroxyethyl)pyridinium tricyanomethanide; phases: Liquid, Gas
Property: Surface tension liquid-gas, N/m (Liquid); method: Ring tensiometer
Temperature, K	Surface tension liquid-gas, N/m	uncertainty
298.15	0.05967	0.001182
303.15	0.05841	0.001158
308.15	0.05734	0.001138
313.15	0.056298	0.001118
318.15	0.055158	0.001097
323.15	0.05395	0.001074
328.15	0.05279	0.001052

System: 1-(2-hydroxyethyl)pyridinium tricyanomethanide; phases: Liquid
Fixed: Pressure, kPa = 101
Property: Viscosity, Pa*s (Liquid); method: Falling or rolling sphere viscometry
Temperature, K	Viscosity, Pa*s	uncertainty
293.15	0.13658	0.01444
298.15	0.097484	0.010059
303.15	0.071784	0.007303
308.15	0.054574	0.005521
313.15	0.042306	0.004289
318.15	0.033963	0.003443
323.15	0.027779	0.002816
328.15	0.022933	0.002325
333.15	0.019321	0.001959
338.15	0.0164	0.001662
343.15	0.01398	0.001417
348.15	0.0123	0.001247

System: 1-(3-hydroxypropyl)pyridinium tricyanomethanide; phases: Liquid
Property: Mass density, kg/m3 (Liquid); method: Vibrating tube method
Temperature, K	Pressure, kPa	Mass density, kg/m3	uncertainty
298.15	100	1149.6	3.3
298.15	1000	1150.3	3.3
298.15	5000	1152.3	3.3
298.15	10000	1154.3	3.3
298.15	15000	1156.7	3.4
298.15	20000	1158.7	3.4
298.15	25000	1160.9	3.4
298.15	30000	1162.9	3.4
298.15	35000	1164.9	3.5
298.15	40000	1167.1	3.5
308.15	100	1142.9	3.2
308.15	1000	1143.6	3.2
308.15	5000	1145.5	3.3
308.15	10000	1147.8	3.3
308.15	15000	1150	3.3
308.15	20000	1152.3	3.4
308.15	25000	1154.6	3.4
308.15	30000	1156.6	3.4
308.15	35000	1158.6	3.4
308.15	40000	1160.7	3.5
318.15	100	1136.3	3.2
318.15	1000	1136.4	3.2
318.15	5000	1138.2	3.2
318.15	10000	1140.5	3.3
318.15	15000	1143	3.3
318.15	20000	1145.2	3.3
318.15	25000	1147.6	3.3
318.15	30000	1149.7	3.4
318.15	35000	1151.8	3.4
318.15	40000	1154	3.4
328.15	100	1129.7	3.2
328.15	1000	1130.2	3.2
328.15	5000	1132.2	3.2
328.15	10000	1134.5	3.2
328.15	15000	1136.6	3.3
328.15	20000	1138.8	3.3
328.15	25000	1140.8	3.3
328.15	30000	1143	3.3
328.15	35000	1144.9	3.4
328.15	40000	1146.7	3.4
338.15	100	1123.3	3.1
338.15	1000	1123.8	3.2
338.15	5000	1125.8	3.2
338.15	10000	1128	3.2
338.15	15000	1130	3.2
338.15	20000	1132	3.3
338.15	25000	1134	3.3
338.15	30000	1136	3.3
338.15	35000	1137.9	3.3
338.15	40000	1140.1	3.4
348.15	100	1116.9	3.1
348.15	1000	1117.2	3.1
348.15	5000	1118.9	3.1
348.15	10000	1121.2	3.2
348.15	15000	1123.4	3.2
348.15	20000	1125.7	3.2
348.15	25000	1127.8	3.2
348.15	30000	1130	3.3
348.15	35000	1132	3.3
348.15	40000	1133.9	3.3
293.15	101	1152.99	2.55
298.15	101	1149.62	2.54
303.15	101	1146.25	2.52
308.15	101	1142.91	2.51
313.15	101	1139.58	2.49
318.15	101	1136.28	2.48
323.15	101	1133	2.46
328.15	101	1129.74	2.45
333.15	101	1126.49	2.43
338.15	101	1123.27	2.42
343.15	101	1120.06	2.4
348.15	101	1116.86	2.39

System: 1-(3-hydroxypropyl)pyridinium tricyanomethanide; phases: Liquid, Gas
Property: Surface tension liquid-gas, N/m (Liquid); method: Ring tensiometer
Temperature, K	Surface tension liquid-gas, N/m	uncertainty
298.15	0.05664	0.001125
303.15	0.055628	0.001106
308.15	0.054404	0.001082
313.15	0.05321	0.00106
318.15	0.052156	0.00104
323.15	0.05096	0.001017
328.15	0.04986	0.000996

System: 1-(3-hydroxypropyl)pyridinium tricyanomethanide; phases: Liquid
Fixed: Pressure, kPa = 101
Property: Viscosity, Pa*s (Liquid); method: Falling or rolling sphere viscometry
Temperature, K	Viscosity, Pa*s	uncertainty
293.15	0.126256	0.013263
298.15	0.092543	0.009521
303.15	0.069515	0.007065
308.15	0.053839	0.005446
313.15	0.042526	0.004311
318.15	0.034643	0.003512
323.15	0.028096	0.002848
328.15	0.023407	0.002373
333.15	0.01984	0.002011
338.15	0.016936	0.001717
343.15	0.014535	0.001473
348.15	0.01305	0.001323

System: benzyldimethyldodecylammonium bis(trifluoromethylsulfonyl)imide; phases: Liquid
Property: Mass density, kg/m3 (Liquid); method: Vibrating tube method
Temperature, K	Pressure, kPa	Mass density, kg/m3	uncertainty
298.15	100	1212.9	2.7
298.15	1000	1213.5	2.7
298.15	5000	1216.3	2.7
298.15	10000	1219.5	2.8
298.15	15000	1222.8	2.8
298.15	20000	1226	2.8
298.15	25000	1228.8	2.8
298.15	30000	1231.8	2.9
298.15	35000	1234.5	2.9
298.15	40000	1237.3	2.9
308.15	100	1204.9	2.7
308.15	1000	1205.7	2.7
308.15	5000	1208.6	2.7
308.15	10000	1211.9	2.7
308.15	15000	1215.2	2.8
308.15	20000	1218.4	2.8
308.15	25000	1221.6	2.8
308.15	30000	1224.4	2.8
308.15	35000	1227.5	2.9
308.15	40000	1230.5	2.9
318.15	100	1197.1	2.7
318.15	1000	1197.9	2.7
318.15	5000	1200.9	2.7
318.15	10000	1204.6	2.7
318.15	15000	1207.7	2.7
318.15	20000	1211.1	2.8
318.15	25000	1214.5	2.8
318.15	30000	1217.6	2.8
318.15	35000	1220.7	2.9
318.15	40000	1223.4	2.9
328.15	100	1189.3	2.6
328.15	1000	1190	2.6
328.15	5000	1193.1	2.7
328.15	10000	1196.9	2.7
328.15	15000	1200.3	2.7
328.15	20000	1203.7	2.7
328.15	25000	1207.3	2.8
328.15	30000	1210.4	2.8
328.15	35000	1213.6	2.8
328.15	40000	1216.2	2.9
338.15	100	1181.4	2.6
338.15	1000	1182.1	2.6
338.15	5000	1185.3	2.6
338.15	10000	1189.2	2.7
338.15	15000	1192.9	2.7
338.15	20000	1196.5	2.7
338.15	25000	1199.8	2.7
338.15	30000	1203.1	2.8
338.15	35000	1206.4	2.8
338.15	40000	1209.2	2.8
348.15	100	1173.4	2.6
348.15	1000	1174.3	2.6
348.15	5000	1177.2	2.6
348.15	10000	1181.5	2.6
348.15	15000	1185.4	2.7
348.15	20000	1189.2	2.7
348.15	25000	1192.7	2.7
348.15	30000	1195.9	2.8
348.15	35000	1199.3	2.8
348.15	40000	1202.4	2.8
293.15	101	1216.82	1.31
298.15	101	1212.86	1.3
303.15	101	1208.91	1.29
308.15	101	1204.88	1.28
313.15	101	1200.97	1.27
318.15	101	1197.07	1.26
323.15	101	1193.16	1.25
328.15	101	1189.25	1.25
333.15	101	1185.32	1.24
338.15	101	1181.37	1.23
343.15	101	1177.39	1.22
348.15	101	1173.37	1.21

System: benzyldimethyldodecylammonium bis(trifluoromethylsulfonyl)imide; phases: Liquid, Gas
Property: Surface tension liquid-gas, N/m (Liquid); method: Ring tensiometer
Temperature, K	Surface tension liquid-gas, N/m	uncertainty
298.15	0.032575	0.000561
303.15	0.032183	0.000555
308.15	0.03178	0.000548
313.15	0.031403	0.000543
318.15	0.031025	0.000537
323.15	0.030603	0.000531
328.15	0.030177	0.000524

System: benzyldimethyldodecylammonium bis(trifluoromethylsulfonyl)imide; phases: Liquid
Fixed: Pressure, kPa = 101
Property: Viscosity, Pa*s (Liquid); method: Falling or rolling sphere viscometry
Temperature, K	Viscosity, Pa*s	uncertainty
298.15	1.42465	0.20489
303.15	0.97432	0.13223
308.15	0.68267	0.08781
313.15	0.4848	0.05931
318.15	0.35107	0.04107
323.15	0.26057	0.02933
328.15	0.19722	0.02149
333.15	0.15175	0.01611
338.15	0.11819	0.01228
343.15	0.09183	0.009387
348.15	0.077509	0.007859

System: 1-(2-hydroxyethyl)pyridinium tricyanomethanide + thiophene; phases: Liquid
Fixed: Pressure, kPa = 101
Property: Mass density, kg/m3 (Liquid); method: Vibrating tube method
Mole fraction of 1-(2-hydroxyethyl)pyridinium tricyanomethanide	Temperature, K	Mass density, kg/m3	uncertainty
1	293.15	1173.87	2.65
1	298.15	1170.41	2.64
1	303.15	1166.96	2.62
1	308.15	1163.54	2.6
1	313.15	1160.14	2.59
1	318.15	1156.75	2.57
1	323.15	1153.39	2.56
1	328.15	1150.05	2.54
1	333.15	1146.72	2.52
1	338.15	1143.41	2.51
1	343.15	1140.12	2.49
1	348.15	1136.84	2.48
0.901	293.15	1170.05	2.16
0.901	298.15	1166.55	2.15
0.901	303.15	1163.05	2.13
0.901	308.15	1159.57	2.12
0.901	313.15	1156.11	2.11
0.901	318.15	1152.67	2.09
0.901	323.15	1149.25	2.08
0.901	328.15	1145.86	2.07
0.901	333.15	1142.48	2.06
0.901	338.15	1139.11	2.04
0.901	343.15	1135.76	2.03
0.901	348.15	1132.43	2.02
0.8044	293.15	1167.35	1.74
0.8044	298.15	1163.8	1.73
0.8044	303.15	1160.25	1.72
0.8044	308.15	1156.73	1.71
0.8044	313.15	1153.22	1.7
0.8044	318.15	1149.74	1.69
0.8044	323.15	1146.27	1.68
0.8044	328.15	1142.82	1.66
0.8044	333.15	1139.38	1.65
0.8044	338.15	1135.97	1.64
0.8044	343.15	1132.57	1.63
0.8044	348.15	1129.18	1.62
0.7041	293.15	1164.1	1.36
0.7041	298.15	1160.5	1.35
0.7041	303.15	1156.9	1.34
0.7041	308.15	1153.32	1.33
0.7041	313.15	1149.76	1.32
0.7041	318.15	1146.21	1.31
0.7041	323.15	1142.69	1.31
0.7041	328.15	1139.18	1.3
0.7041	333.15	1135.69	1.29
0.7041	338.15	1132.22	1.28
0.7041	343.15	1128.75	1.27
0.7041	348.15	1125.31	1.26
0.6	293.15	1160.03	1.02
0.6	298.15	1156.36	1.01
0.6	303.15	1152.69	1
0.6	308.15	1149.04	1
0.6	313.15	1145.4	0.99
0.6	318.15	1141.79	0.98
0.6	323.15	1138.19	0.97
0.6	328.15	1134.6	0.97
0.6	333.15	1131.02	0.96
0.6	338.15	1127.47	0.95
0.6	343.15	1123.92	0.95
0.6	348.15	1120.38	0.94
0.4996	293.15	1155.23	0.74
0.4996	298.15	1151.47	0.73
0.4996	303.15	1147.71	0.73
0.4996	308.15	1143.97	0.72
0.4996	313.15	1140.21	0.72
0.4996	318.15	1136.54	0.71
0.4996	323.15	1132.84	0.71
0.4996	328.15	1129.11	0.7
0.4996	333.15	1125.32	0.7
0.4996	338.15	1121.39	0.69
0.4996	343.15	1117.91	0.68
0.4996	348.15	1114.16	0.68
0.4042	293.15	1149.03	0.52
0.4042	298.15	1145	0.52
0.4042	303.15	1141.37	0.51
0.4042	308.15	1137.58	0.51
0.4042	313.15	1133.79	0.5
0.4042	318.15	1130	0.5
0.4042	323.15	1126.21	0.5
0.4042	328.15	1122.45	0.49
0.4042	333.15	1118.65	0.49
0.4042	338.15	1114.84	0.48
0.4042	343.15	1111.04	0.48
0.4042	348.15	1107.25	0.48
0	293.15	1064.42	0.12
0	298.15	1058.53	0.12
0	303.15	1052.67	0.11
0	308.15	1046.69	0.11
0	313.15	1040.71	0.11
0	318.15	1034.78	0.11
0	323.15	1028.69	0.11
0	328.15	1022.51	0.11
0	333.15	1016.4	0.11
0	338.15	1010.15	0.11
0	343.15	1003.94	0.11
0	348.15	997.65	0.11

System: 1-(2-hydroxyethyl)pyridinium tricyanomethanide + thiophene; phases: Liquid
Fixed: Pressure, kPa = 101
Property: Viscosity, Pa*s (Liquid); method: Falling or rolling sphere viscometry
Mole fraction of 1-(2-hydroxyethyl)pyridinium tricyanomethanide	Temperature, K	Viscosity, Pa*s	uncertainty
1	293.15	0.13658	0.01444
1	298.15	0.097484	0.010059
1	303.15	0.071784	0.007303
1	308.15	0.054574	0.005521
1	313.15	0.042306	0.004289
1	318.15	0.033963	0.003443
1	323.15	0.027779	0.002816
1	328.15	0.022933	0.002325
1	333.15	0.019321	0.001959
1	338.15	0.0164	0.001662
1	343.15	0.01398	0.001417
1	348.15	0.0123	0.001247
0.901	293.15	0.091196	0.009357
0.901	298.15	0.067117	0.006801
0.901	303.15	0.050912	0.005138
0.901	308.15	0.039605	0.004007
0.901	313.15	0.031582	0.003195
0.901	318.15	0.025727	0.002603
0.901	323.15	0.021302	0.002155
0.901	328.15	0.017915	0.001812
0.901	333.15	0.015203	0.001538
0.901	338.15	0.013071	0.001322
0.901	343.15	0.01151	0.001164
0.901	348.15	0.01034	0.001046
0.8044	293.15	0.067047	0.006782
0.8044	298.15	0.051636	0.005202
0.8044	303.15	0.040134	0.004053
0.8044	308.15	0.031552	0.003187
0.8044	313.15	0.025587	0.002584
0.8044	318.15	0.021136	0.002135
0.8044	323.15	0.017621	0.00178
0.8044	328.15	0.014845	0.001499
0.8044	333.15	0.012808	0.001293
0.8044	338.15	0.011135	0.001125
0.8044	343.15	0.009901	0.001
0.8044	348.15	0.00889	0.000898
0.7041	293.15	0.052214	0.005252
0.7041	298.15	0.041197	0.004154
0.7041	303.15	0.03268	0.003295
0.7041	308.15	0.026102	0.002632
0.7041	313.15	0.021168	0.002134
0.7041	318.15	0.017677	0.001782
0.7041	323.15	0.014783	0.001491
0.7041	328.15	0.01263	0.001273
0.7041	333.15	0.010949	0.001104
0.7041	338.15	0.009432	0.000951
0.7041	343.15	0.0084	0.000847
0.7041	348.15	0.0075	0.000756
0.6	293.15	0.040174	0.004045
0.6	298.15	0.031753	0.003197
0.6	303.15	0.025534	0.002571
0.6	308.15	0.020704	0.002084
0.6	313.15	0.017186	0.00173
0.6	318.15	0.014417	0.001451
0.6	323.15	0.012161	0.001224
0.6	328.15	0.010556	0.001063
0.6	333.15	0.009125	0.000919
0.6	338.15	0.007864	0.000792
0.6	343.15	0.006994	0.000704
0.6	348.15	0.0062	0.000624
0.4996	293.15	0.029539	0.00297
0.4996	298.15	0.023551	0.002368
0.4996	303.15	0.019106	0.001921
0.4996	308.15	0.015835	0.001592
0.4996	313.15	0.013358	0.001343
0.4996	318.15	0.011402	0.001147
0.4996	323.15	0.00987	0.000992
0.4996	328.15	0.008668	0.000872
0.4996	333.15	0.007573	0.000762
0.4996	338.15	0.00654	0.000658
0.4996	343.15	0.00574	0.000577
0.4996	348.15	0.00512	0.000515
0.4042	293.15	0.019881	0.001997
0.4042	298.15	0.016286	0.001636
0.4042	303.15	0.013581	0.001364
0.4042	308.15	0.011502	0.001155
0.4042	313.15	0.00996	0.001001
0.4042	318.15	0.008777	0.000882
0.4042	323.15	0.007813	0.000785
0.4042	328.15	0.007011	0.000704
0.4042	333.15	0.006149	0.000618
0.4042	338.15	0.0054	0.000542
0.4042	343.15	0.00468	0.00047
0.4042	348.15	0.00417	0.000419
0	293.15	0.000653	6.5e-05
0	298.15	0.000615	6.2e-05
0	303.15	0.00058	5.8e-05
0	308.15	0.000545	5.5e-05
0	313.15	0.000518	5.2e-05
0	318.15	0.000491	4.9e-05
0	323.15	0.000464	4.7e-05
0	328.15	0.000441	4.4e-05
0	333.15	0.00042	4.2e-05
0	338.15	0.0004	4e-05
0	343.15	0.000382	3.8e-05
0	348.15	0.000364	3.7e-05

System: 1-(3-hydroxypropyl)pyridinium tricyanomethanide + thiophene; phases: Liquid
Fixed: Pressure, kPa = 101
Property: Mass density, kg/m3 (Liquid); method: Vibrating tube method
Mole fraction of 1-(3-hydroxypropyl)pyridinium tricyanomethanide	Temperature, K	Mass density, kg/m3	uncertainty
1	293.15	1152.99	2.55
1	298.15	1149.62	2.54
1	303.15	1146.25	2.52
1	308.15	1142.91	2.51
1	313.15	1139.58	2.49
1	318.15	1136.28	2.48
1	323.15	1133	2.46
1	328.15	1129.74	2.45
1	333.15	1126.49	2.43
1	338.15	1123.27	2.42
1	343.15	1120.06	2.4
1	348.15	1116.86	2.39
0.9377	293.15	1152.07	2.26
0.9377	298.15	1148.67	2.24
0.9377	303.15	1145.29	2.23
0.9377	308.15	1141.92	2.21
0.9377	313.15	1138.58	2.2
0.9377	318.15	1135.25	2.19
0.9377	323.15	1131.95	2.17
0.9377	328.15	1128.66	2.16
0.9377	333.15	1125.39	2.15
0.9377	338.15	1122.14	2.13
0.9377	343.15	1119.05	2.12
0.9377	348.15	1115.67	2.11
0.8231	293.15	1150.15	1.76
0.8231	298.15	1146.71	1.75
0.8231	303.15	1143.28	1.74
0.8231	308.15	1139.86	1.73
0.8231	313.15	1136.46	1.72
0.8231	318.15	1133.08	1.71
0.8231	323.15	1129.72	1.69
0.8231	328.15	1126.38	1.68
0.8231	333.15	1123.06	1.67
0.8231	338.15	1119.76	1.66
0.8231	343.15	1116.47	1.65
0.8231	348.15	1113.19	1.64
0.7045	293.15	1147.36	1.32
0.7045	298.15	1144.04	1.31
0.7045	303.15	1140.55	1.3
0.7045	308.15	1137.07	1.29
0.7045	313.15	1133.61	1.28
0.7045	318.15	1130.07	1.27
0.7045	323.15	1126.85	1.27
0.7045	328.15	1123.35	1.26
0.7045	333.15	1119.77	1.25
0.7045	338.15	1116.29	1.24
0.7045	343.15	1112.94	1.23
0.7045	348.15	1109.46	1.22
0.5955	293.15	1144.39	0.97
0.5955	298.15	1140.98	0.97
0.5955	303.15	1137.35	0.96
0.5955	308.15	1133.77	0.95
0.5955	313.15	1130.19	0.95
0.5955	318.15	1126.69	0.94
0.5955	323.15	1123.23	0.93
0.5955	328.15	1119.67	0.93
0.5955	333.15	1115.78	0.92
0.5955	338.15	1112.46	0.91
0.5955	343.15	1108.99	0.91
0.5955	348.15	1105.72	0.9
0.505	293.15	1141.66	0.73
0.505	298.15	1137.83	0.73
0.505	303.15	1134.43	0.72
0.505	308.15	1130.79	0.72
0.505	313.15	1127.05	0.71
0.505	318.15	1123.63	0.71
0.505	323.15	1120.03	0.7
0.505	328.15	1116.34	0.69
0.505	333.15	1112.55	0.69
0.505	338.15	1109.07	0.68
0.505	343.15	1105.39	0.68
0.505	348.15	1101.97	0.67
0.4088	293.15	1137.42	0.52
0.4088	298.15	1133.63	0.51
0.4088	303.15	1129.84	0.51
0.4088	308.15	1126.06	0.5
0.4088	313.15	1122.3	0.5
0.4088	318.15	1118.55	0.5
0.4088	323.15	1114.81	0.49
0.4088	328.15	1111.08	0.49
0.4088	333.15	1107.37	0.48
0.4088	338.15	1103.66	0.48
0.4088	343.15	1099.97	0.48
0.4088	348.15	1096.28	0.47
0	293.15	1064.42	0.12
0	298.15	1058.53	0.12
0	303.15	1052.67	0.11
0	308.15	1046.69	0.11
0	313.15	1040.71	0.11
0	318.15	1034.78	0.11
0	323.15	1028.69	0.11
0	328.15	1022.51	0.11
0	333.15	1016.4	0.11
0	338.15	1010.15	0.11
0	343.15	1003.94	0.11
0	348.15	997.65	0.11

System: 1-(3-hydroxypropyl)pyridinium tricyanomethanide + thiophene; phases: Liquid
Fixed: Pressure, kPa = 101
Property: Viscosity, Pa*s (Liquid); method: Falling or rolling sphere viscometry
Mole fraction of 1-(3-hydroxypropyl)pyridinium tricyanomethanide	Temperature, K	Viscosity, Pa*s	uncertainty
1	293.15	0.126256	0.013263
1	298.15	0.092543	0.009521
1	303.15	0.069515	0.007065
1	308.15	0.053839	0.005446
1	313.15	0.042526	0.004311
1	318.15	0.034643	0.003512
1	323.15	0.028096	0.002848
1	328.15	0.023407	0.002373
1	333.15	0.01984	0.002011
1	338.15	0.016936	0.001717
1	343.15	0.014535	0.001473
1	348.15	0.01305	0.001323
0.9377	293.15	0.114978	0.011979
0.9377	298.15	0.085366	0.008735
0.9377	303.15	0.064369	0.00652
0.9377	308.15	0.049857	0.005048
0.9377	313.15	0.039547	0.004004
0.9377	318.15	0.032203	0.00326
0.9377	323.15	0.026199	0.002652
0.9377	328.15	0.021805	0.002208
0.9377	333.15	0.018527	0.001876
0.9377	338.15	0.015852	0.001605
0.9377	343.15	0.013608	0.001378
0.9377	348.15	0.012251	0.00124
0.8231	293.15	0.094111	0.009659
0.8231	298.15	0.068895	0.006976
0.8231	303.15	0.05269	0.005311
0.8231	308.15	0.042091	0.004252
0.8231	313.15	0.033474	0.003382
0.8231	318.15	0.027386	0.002767
0.8231	323.15	0.02242	0.002265
0.8231	328.15	0.018811	0.0019
0.8231	333.15	0.016105	0.001627
0.8231	338.15	0.013797	0.001394
0.8231	343.15	0.011927	0.001205
0.8231	348.15	0.010736	0.001085
0.7045	293.15	0.069311	0.007006
0.7045	298.15	0.052011	0.005232
0.7045	303.15	0.039989	0.004032
0.7045	308.15	0.032445	0.003271
0.7045	313.15	0.026372	0.002659
0.7045	318.15	0.022131	0.002231
0.7045	323.15	0.018271	0.001842
0.7045	328.15	0.015444	0.001557
0.7045	333.15	0.013335	0.001345
0.7045	338.15	0.011539	0.001163
0.7045	343.15	0.010015	0.00101
0.7045	348.15	0.009056	0.000913
0.5955	293.15	0.048646	0.004898
0.5955	298.15	0.036555	0.00368
0.5955	303.15	0.029271	0.002947
0.5955	308.15	0.024106	0.002427
0.5955	313.15	0.019816	0.001995
0.5955	318.15	0.016874	0.001699
0.5955	323.15	0.014219	0.001431
0.5955	328.15	0.012002	0.001208
0.5955	333.15	0.010501	0.001057
0.5955	338.15	0.009243	0.000931
0.5955	343.15	0.008114	0.000817
0.5955	348.15	0.0074	0.000745
0.505	293.15	0.03151	0.003169
0.505	298.15	0.02507	0.002521
0.505	303.15	0.020407	0.002052
0.505	308.15	0.01693	0.001703
0.505	313.15	0.014259	0.001434
0.505	318.15	0.012185	0.001225
0.505	323.15	0.010509	0.001057
0.505	328.15	0.009025	0.000908
0.505	333.15	0.007958	0.0008
0.505	338.15	0.007119	0.000716
0.505	343.15	0.006334	0.000637
0.505	348.15	0.005887	0.000592
0.4088	293.15	0.017491	0.001757
0.4088	298.15	0.014374	0.001444
0.4088	303.15	0.012013	0.001207
0.4088	308.15	0.010166	0.001021
0.4088	313.15	0.008691	0.000873
0.4088	318.15	0.007529	0.000756
0.4088	323.15	0.006577	0.000661
0.4088	328.15	0.005804	0.000583
0.4088	333.15	0.005145	0.000517
0.4088	338.15	0.004618	0.000464
0.4088	343.15	0.004158	0.000418
0.4088	348.15	0.003965	0.000398
0	293.15	0.000653	6.5e-05
0	298.15	0.000615	6.2e-05
0	303.15	0.00058	5.8e-05
0	308.15	0.000545	5.5e-05
0	313.15	0.000518	5.2e-05
0	318.15	0.000491	4.9e-05
0	323.15	0.000464	4.7e-05
0	328.15	0.000441	4.4e-05
0	333.15	0.00042	4.2e-05
0	338.15	0.0004	4e-05
0	343.15	0.000382	3.8e-05
0	348.15	0.000364	3.7e-05

System: benzyldimethyldodecylammonium bis(trifluoromethylsulfonyl)imide + butan-1-ol; phases: Liquid
Fixed: Pressure, kPa = 101
Property: Mass density, kg/m3 (Liquid); method: Vibrating tube method
Mole fraction of benzyldimethyldodecylammonium bis(trifluoromethylsulfonyl)imide	Temperature, K	Mass density, kg/m3	uncertainty
1	293.15	1216.82	1.31
1	298.15	1212.86	1.3
1	303.15	1208.91	1.29
1	308.15	1204.88	1.28
1	313.15	1200.97	1.27
1	318.15	1197.07	1.26
1	323.15	1193.16	1.25
1	328.15	1189.25	1.25
1	333.15	1185.32	1.24
1	338.15	1181.37	1.23
1	343.15	1177.39	1.22
1	348.15	1173.37	1.21
0.9164	293.15	1208.93	1.11
0.9164	298.15	1204.97	1.1
0.9164	303.15	1201.04	1.09
0.9164	308.15	1197.01	1.08
0.9164	313.15	1193.1	1.08
0.9164	318.15	1189.2	1.07
0.9164	323.15	1185.29	1.06
0.9164	328.15	1181.39	1.05
0.9164	333.15	1177.5	1.05
0.9164	338.15	1173.61	1.04
0.9164	343.15	1169.74	1.03
0.9164	348.15	1165.68	1.02
0.7485	293.15	1191.18	0.76
0.7485	298.15	1187.21	0.76
0.7485	303.15	1183.24	0.75
0.7485	308.15	1179.28	0.75
0.7485	313.15	1175.32	0.74
0.7485	318.15	1171.36	0.73
0.7485	323.15	1167.41	0.73
0.7485	328.15	1163.47	0.72
0.7485	333.15	1159.55	0.72
0.7485	338.15	1155.64	0.71
0.7485	343.15	1151.72	0.7
0.7485	348.15	1147.75	0.7
0.594	293.15	1169.15	0.51
0.594	298.15	1165.03	0.5
0.594	303.15	1161.15	0.5
0.594	308.15	1157.98	0.5
0.594	313.15	1153.12	0.49
0.594	318.15	1149.07	0.49
0.594	323.15	1145.19	0.48
0.594	328.15	1141.22	0.48
0.594	333.15	1137.25	0.47
0.594	338.15	1133.39	0.47
0.594	343.15	1129.38	0.47
0.594	348.15	1125.35	0.46
0.4494	293.15	1139.41	0.32
0.4494	298.15	1135.48	0.32
0.4494	303.15	1131.42	0.32
0.4494	308.15	1127.1	0.31
0.4494	313.15	1123.31	0.31
0.4494	318.15	1119.29	0.31
0.4494	323.15	1115.27	0.3
0.4494	328.15	1111.29	0.3
0.4494	333.15	1107.27	0.3
0.4494	338.15	1103.32	0.3
0.4494	343.15	1099.25	0.29
0.4494	348.15	1095.19	0.29
0.3015	293.15	1092.4	0.21
0.3015	298.15	1088.35	0.21
0.3015	303.15	1084.27	0.2
0.3015	308.15	1080.2	0.2
0.3015	313.15	1076.12	0.2
0.3015	318.15	1072.05	0.2
0.3015	323.15	1067.97	0.2
0.3015	328.15	1063.88	0.2
0.3015	333.15	1059.79	0.2
0.3015	338.15	1055.68	0.19
0.3015	343.15	1051.58	0.19
0.3015	348.15	1047.47	0.2
0.1507	293.15	1006.82	0.26
0.1507	298.15	1002.81	0.22
0.1507	303.15	998.76	0.22
0.1507	308.15	994.7	0.22
0.1507	313.15	990.63	0.22
0.1507	318.15	986.54	0.22
0.1507	323.15	982.44	0.22
0.1507	328.15	978.31	0.22
0.1507	333.15	974.17	0.22
0.1507	338.15	970.01	0.22
0.1507	343.15	965.82	0.22
0.1507	348.15	961.61	0.28
0	293.15	810.15	0.14
0	298.15	805.78	0.14
0	303.15	802.07	0.14
0	308.15	798.06	0.14
0	313.15	793.98	0.14
0	318.15	790.21	0.15
0	323.15	785.9	0.15
0	328.15	782.16	0.15
0	333.15	777.82	0.15
0	338.15	773.88	0.15
0	343.15	769.74	0.15
0	348.15	765.32	0.15

System: benzyldimethyldodecylammonium bis(trifluoromethylsulfonyl)imide + butan-1-ol; phases: Liquid
Fixed: Pressure, kPa = 101
Property: Viscosity, Pa*s (Liquid); method: Falling or rolling sphere viscometry
Mole fraction of benzyldimethyldodecylammonium bis(trifluoromethylsulfonyl)imide	Temperature, K	Viscosity, Pa*s	uncertainty
1	298.15	1.42465	0.20489
1	303.15	0.97432	0.13223
1	308.15	0.68267	0.08781
1	313.15	0.4848	0.05931
1	318.15	0.35107	0.04107
1	323.15	0.26057	0.02933
1	328.15	0.19722	0.02149
1	333.15	0.15175	0.01611
1	338.15	0.11819	0.01228
1	343.15	0.09183	0.009387
1	348.15	0.077509	0.007859
0.9164	298.15	1.066286	0.146656
0.9164	303.15	0.747853	0.097476
0.9164	308.15	0.531953	0.065928
0.9164	313.15	0.385642	0.045667
0.9164	318.15	0.28502	0.032427
0.9164	323.15	0.21017	0.023053
0.9164	328.15	0.159341	0.016978
0.9164	333.15	0.125	0.013037
0.9164	338.15	0.099341	0.010194
0.9164	343.15	0.079201	0.008032
0.9164	348.15	0.068	0.006859
0.7485	298.15	0.504708	0.062026
0.7485	303.15	0.361796	0.042431
0.7485	308.15	0.265552	0.029914
0.7485	313.15	0.197977	0.021548
0.7485	318.15	0.150427	0.015923
0.7485	323.15	0.116662	0.012088
0.7485	328.15	0.091629	0.009347
0.7485	333.15	0.076818	0.007771
0.7485	338.15	0.063	0.006334
0.7485	343.15	0.052414	0.005257
0.7485	348.15	0.046257	0.004651
0.594	298.15	0.208392	0.022796
0.594	303.15	0.153421	0.016256
0.594	308.15	0.11531	0.011927
0.594	313.15	0.086098	0.008746
0.594	318.15	0.069108	0.006958
0.594	323.15	0.057225	0.005739
0.594	328.15	0.046793	0.0047
0.594	333.15	0.040918	0.00411
0.594	338.15	0.033799	0.003395
0.594	343.15	0.029015	0.002914
0.594	348.15	0.025217	0.002533
0.4494	298.15	0.103077	0.010572
0.4494	303.15	0.078036	0.007886
0.4494	308.15	0.060141	0.006031
0.4494	313.15	0.047168	0.004734
0.4494	318.15	0.037624	0.003776
0.4494	323.15	0.030411	0.003052
0.4494	328.15	0.024876	0.002497
0.4494	333.15	0.0206	0.002068
0.4494	338.15	0.017243	0.001731
0.4494	343.15	0.014563	0.001462
0.4494	348.15	0.012161	0.001221
0.3015	298.15	0.043561	0.004371
0.3015	303.15	0.034116	0.003422
0.3015	308.15	0.027306	0.002739
0.3015	313.15	0.022036	0.002211
0.3015	318.15	0.01806	0.001812
0.3015	323.15	0.014933	0.001498
0.3015	328.15	0.012472	0.001251
0.3015	333.15	0.010476	0.001051
0.3015	338.15	0.008869	0.00089
0.3015	343.15	0.007583	0.000761
0.3015	348.15	0.006534	0.000655
0.1507	298.15	0.015273	0.001532
0.1507	303.15	0.012442	0.001248
0.1507	308.15	0.010371	0.00104
0.1507	313.15	0.008752	0.000878
0.1507	318.15	0.007451	0.000747
0.1507	323.15	0.006396	0.000641
0.1507	328.15	0.005537	0.000555
0.1507	333.15	0.004826	0.000484
0.1507	338.15	0.004237	0.000425
0.1507	343.15	0.003745	0.000376
0.1507	348.15	0.003429	0.000344
0	298.15	0.00252	0.000253
0	303.15	0.00223	0.000224
0	308.15	0.00198	0.000199
0	313.15	0.00175	0.000175
0	318.15	0.00156	0.000156
0	323.15	0.00142	0.000142
0	328.15	0.00127	0.000127
0	333.15	0.00111	0.000111
0	338.15	0.00101	0.000101
0	343.15	0.00092	9.2e-05
0	348.15	0.000845	8.5e-05

System: 1-(2-hydroxyethyl)pyridinium tricyanomethanide + octan-1-ol + water; phases: Liquid, Liquid
Fixed: Temperature, K = 298.15
Fixed: Pressure, kPa = 101
Property: Amount concentration (molarity), mol/dm3 of 1-(2-hydroxyethyl)pyridinium tricyanomethanide (Liquid); method: SPECTR
Amount concentration (molarity), mol/dm3 of 1-(2-hydroxyethyl)pyridinium tricyanomethanide	Amount concentration (molarity), mol/dm3 of 1-(2-hydroxyethyl)pyridinium tricyanomethanide	uncertainty
0.0127	0.24	0.02
0.0162	0.3	0.02
0.0224	0.36	0.02
0.0291	0.33	0.02
0.0321	0.36	0.02
0.0343	0.34	0.03

System: 1-(3-hydroxypropyl)pyridinium tricyanomethanide + octan-1-ol + water; phases: Liquid, Liquid
Fixed: Temperature, K = 298.15
Fixed: Pressure, kPa = 101
Property: Amount concentration (molarity), mol/dm3 of 1-(3-hydroxypropyl)pyridinium tricyanomethanide (Liquid); method: SPECTR
Amount concentration (molarity), mol/dm3 of 1-(3-hydroxypropyl)pyridinium tricyanomethanide	Amount concentration (molarity), mol/dm3 of 1-(3-hydroxypropyl)pyridinium tricyanomethanide	uncertainty
0.0087	0.04	0.02
0.0117	0.17	0.02
0.0202	0.31	0.02
0.0218	0.29	0.03
0.0245	0.38	0.05
