Measured thermophysical data. Densities and derived thermophysical properties of the 0.9505 CO2 + 0.0495 H2S mixture from 273 K to 353 K and pressures up to 41 MPa
Source: Fluid Phase Equilib., 2016, 10.1016/j.fluid.2016.04.024
Compound 1: hydrogen sulfide, H2S, InChI=1S/H2S/h1H2
Compound 2: carbon dioxide, CO2, InChI=1S/CO2/c2-1-3

System: carbon dioxide + hydrogen sulfide; phases: Gas
Fixed: Mole fraction of carbon dioxide = 0.9505
Property: Mass density, kg/m3 (Gas); method: Vibrating tube method
Temperature, K	Pressure, kPa	Mass density, kg/m3	uncertainty
272.55	301	5.9	0.2
272.55	402	8	0.2
272.55	501	9.9	0.2
272.54	603	12.1	0.2
272.54	892	18.5	0.2
272.54	1006	20.9	0.2
272.56	1104	23	0.2
272.56	1296	27.7	0.2
272.56	1499	32.4	0.2
272.55	1696	37.5	0.2
272.56	1905	42.8	0.2
272.56	2003	45.2	0.4
272.56	2205	51.1	0.4
272.56	2407	56.8	0.4
272.56	2502	59.8	0.4
272.55	2709	66.4	0.4
272.56	2906	73	0.4
272.55	2996	76.3	0.4
272.55	3196	83.9	0.4
282.69	600	11.8	0.2
282.7	820	16.6	0.2
282.7	1004	20.1	0.2
282.7	1194	25	0.2
282.69	1405	29	0.2
282.7	1631	35	0.2
282.69	1794	39	0.2
282.7	2040	45.1	0.2
282.71	2196	49.1	0.2
282.7	2423	55.3	0.4
282.71	2634	61.3	0.4
282.71	2835	67.2	0.4
282.71	3018	72.9	0.4
282.71	3243	80.2	0.4
282.7	3401	85.8	0.4
282.71	3592	92.8	0.4
282.71	3803	101.2	0.6
282.72	4012	110.3	0.6
282.72	4099	114.3	0.6
282.71	4201	119.4	0.6
282.7	4303	125.3	0.9
282.73	4361	133.9	1.2
297.51	320	5.7	0.2
297.51	652	11.8	0.2
297.5	710	13	0.2
297.5	878	16.3	0.2
297.5	1019	19.5	0.2
297.51	1232	23.7	0.2
297.51	1419	27.5	0.2
297.51	1601	31.3	0.2
297.51	1810	35.8	0.2
297.51	2003	40	0.2
297.51	2203	44.6	0.2
297.51	2413	49.5	0.2
297.5	2616	54.4	0.2
297.5	2810	59.4	0.2
297.5	2998	64.3	0.4
297.5	3212	70.1	0.4
297.51	3399	75.3	0.4
297.5	3611	81.5	0.4
297.5	3810	87.7	0.4
297.51	4001	93.7	0.4
297.5	4206	100.8	0.4
297.51	4402	107.8	0.4
297.5	4609	115.8	0.6
297.51	4802	123.7	0.6
297.5	4999	132.4	0.6
297.5	5204	142.4	0.6
297.5	5404	153.1	0.8
297.5	5604	165.3	1
322.46	7503	192.7	0.8
322.47	7001	170.9	0.6
322.47	6501	151.5	0.6
322.47	6004	133.9	0.4
322.47	5503	118.8	0.4
322.48	5004	103.9	0.4
322.48	4501	90.7	0.4
322.48	3994	77.8	0.2
322.48	3544	66.6	0.2
322.47	3003	55.8	0.2
322.48	2803	51.5	0.2
322.48	2504	45.3	0.2
322.48	2249	40.2	0.2
322.49	2003	35.3	0.2
322.49	1749	30.7	0.2
322.48	1500	25.9	0.2
322.49	1306	22.1	0.2
322.48	1002	16.8	0.2
322.49	801	13.5	0.2
322.49	602	10.1	0.2
322.49	498	8	0.2
322.48	395	6.4	0.2
352.98	6017	109.3	0.2
352.98	5511	98.1	0.2
352.99	5014	87.3	0.2
352.98	4496	77.2	0.2
352.98	4015	67.8	0.2
352.98	3498	57.6	0.2
352.97	3004	48.9	0.2
352.98	2801	44.8	0.2
352.97	2517	40	0.2
352.97	2253	35.5	0.2
352.97	2019	31.5	0.2
352.98	1745	27	0.2
352.99	1523	23.3	0.2
352.98	1267	19	0.2
352.99	998	15.1	0.2
352.99	754	11.4	0.2
353	502	7.6	0.2
352.99	399	5.9	0.2

System: carbon dioxide + hydrogen sulfide; phases: Liquid
Fixed: Mole fraction of carbon dioxide = 0.9505
Property: Mass density, kg/m3 (Liquid); method: Vibrating tube method
Temperature, K	Pressure, kPa	Mass density, kg/m3	uncertainty
272.57	41417	1058.1	0.4
272.58	41400	1058.2	0.3
272.57	40955	1057	0.4
272.57	40046	1054.9	0.4
272.58	39463	1053.2	0.4
272.57	39008	1052	0.4
272.56	38445	1050.7	0.4
272.56	38049	1049.5	0.4
272.56	37557	1048.1	0.4
272.56	36988	1046.6	0.4
272.56	36561	1045.5	0.4
272.57	36058	1044.1	0.4
272.57	35493	1042.3	0.6
272.56	35060	1041.1	0.6
272.57	34499	1039.5	0.4
272.57	33999	1038	0.4
272.57	33498	1036.6	0.6
272.58	33011	1034.9	0.4
272.57	32499	1033.1	0.4
272.58	31936	1031.5	0.4
272.58	31446	1030.1	0.6
272.57	31002	1028.8	0.4
272.57	30442	1027.2	0.4
272.57	30022	1025.6	0.4
272.58	29540	1023.9	0.4
272.58	29015	1022.3	0.4
272.58	28510	1020.5	0.4
272.58	28014	1018.9	0.4
272.58	27519	1017.1	0.4
272.59	26955	1015.2	0.4
272.59	26517	1013.8	0.6
272.58	26025	1012.1	0.6
272.58	25470	1010.3	0.6
272.58	24975	1008.5	0.6
272.58	24527	1006.9	0.4
272.58	23985	1004.9	0.4
272.58	23514	1003.2	0.4
272.58	23027	1001.3	0.6
272.58	22532	999.5	0.6
272.58	22003	997.4	0.4
272.58	21490	995.3	0.6
272.58	20990	993.2	0.6
272.58	20515	991.4	0.6
272.58	20011	989.1	0.6
272.58	19576	987.6	0.6
272.58	19012	985.2	0.6
272.58	18540	983.3	0.6
272.58	18046	981.3	0.6
272.57	17556	979.1	0.6
272.57	17016	976.8	0.6
272.58	16524	974.5	0.6
272.58	16022	972.1	0.6
272.58	15502	969.5	0.6
272.58	15013	967.1	0.6
272.59	14525	964.4	0.6
272.58	14024	962	0.6
272.59	13502	959.4	0.6
272.58	13010	956.8	0.6
272.58	12531	954.3	0.6
272.59	11999	951.2	0.6
272.59	11511	948.4	0.8
272.59	11005	945.1	0.8
272.59	10504	942.3	0.8
272.59	10064	939.4	0.8
272.6	9499	936.2	0.6
273.23	8730	929.2	0.6
273.29	8504	926.7	0.6
273.3	7996	922.9	0.6
273.31	7524	919.4	0.6
273.31	7043	915.9	0.6
273.31	6504	911.6	0.6
273.32	5999	907.1	0.6
273.31	5510	902.8	0.6
273.34	5004	897.4	0.8
273.33	4504	892.6	0.8
283.47	40443	1041.5	0.4
283.47	40004	1040.3	0.4
283.47	39503	1038.9	0.4
283.46	39000	1037.5	0.4
283.47	38528	1036.2	0.4
283.46	38004	1034.6	0.4
283.47	37525	1033.1	0.4
283.47	37000	1031.5	0.6
283.46	36513	1030	0.4
283.47	36014	1028.3	0.4
283.46	35507	1026.8	0.4
283.46	35004	1025.2	0.4
283.46	34516	1023.7	0.4
283.47	34012	1022	0.4
283.47	33525	1020.3	0.4
283.47	33004	1018.6	0.4
283.47	32470	1017	0.4
283.46	32001	1015.4	0.4
283.46	31532	1013.7	0.4
283.46	31005	1011.9	0.6
283.47	30502	1010.1	0.4
283.47	30014	1008.2	0.4
283.46	29517	1006.4	0.4
283.47	29025	1004.6	0.4
283.47	28508	1002.7	0.4
283.48	28010	1000.7	0.6
283.47	27510	998.9	0.6
283.47	27006	996.9	0.6
283.46	26500	994.9	0.6
283.47	26012	993	0.6
283.47	25518	991	0.6
283.47	25000	988.9	0.6
283.47	24503	986.9	0.6
283.47	24005	984.8	0.6
283.47	23501	982.6	0.6
283.47	23016	980.5	0.6
283.47	22501	978.3	0.6
283.47	22004	976.1	0.6
283.47	21510	973.8	0.6
283.47	21001	971.5	0.6
283.47	20508	969.2	0.6
283.47	20010	966.8	0.6
283.47	19503	964.5	0.6
283.47	19008	962	0.6
283.47	18516	959.4	0.6
283.47	18016	957	0.6
283.47	17517	954.5	0.6
283.47	17011	951.8	0.8
283.47	16506	949	0.8
283.48	16008	946.2	0.8
283.47	15509	943.3	0.8
283.47	15004	940.4	0.8
283.48	14511	937.3	0.8
283.47	14002	934.4	0.8
283.47	13504	931.2	0.8
283.47	13000	928	0.8
283.47	12500	924.7	0.8
283.48	12002	921.3	0.8
283.48	11502	917.6	0.8
283.49	11002	914.1	0.8
283.48	10503	910.4	1.1
283.48	10062	907	1.1
283.49	9506	903	1
283.49	9003	898.8	1
283.49	8504	894.3	1
283.49	8001	889.8	1
283.49	7466	884.7	1
283.49	7137	882	1.2
283.48	6383	875.9	1.2
283.47	5962	871.5	1.2
283.47	5586	867.8	1.4
283.52	5041	861.2	1.4
283.57	4945	859.9	4.2
283.92	4600	826.5	3.9
298.06	40253	992.4	0.4
298.07	39735	991	0.4
298.06	39498	990	0.6
298.06	39023	988.6	0.4
298.07	38510	986.9	0.6
298.05	37999	985.2	0.6
298.06	37004	982.1	0.6
298.06	36016	978.6	0.6
298.06	35006	974.9	0.6
298.07	34449	973	0.6
298.06	33955	971.2	0.6
298.07	33502	969.5	0.6
298.06	33000	967.6	0.6
298.07	32526	965.7	0.6
298.06	32025	963.8	0.6
298.07	31546	961.8	0.6
298.06	31090	960.2	0.6
298.06	30499	957.6	0.6
298.07	29996	955.4	0.6
298.08	29493	953.2	0.6
298.07	29029	951.1	0.6
298.06	28538	948.9	0.6
298.07	28032	946.6	0.6
298.06	27528	944.3	0.6
298.06	27004	941.7	0.6
298.08	26531	939.6	0.6
298.06	26004	937	0.6
298.06	25499	934.6	0.6
298.07	25023	932.1	0.6
298.07	24506	929.6	0.6
298.07	24008	926.9	0.6
298.07	23511	924.2	0.6
298.07	23013	921.5	0.6
298.07	22513	918.8	0.6
298.07	22015	915.8	0.6
298.07	21500	912.9	0.8
298.06	21003	910	0.8
298.08	20503	907	0.8
298.06	19999	903.9	0.8
298.07	19497	900.5	0.8
298.06	19001	897.3	0.8
298.08	18497	893.7	0.8
298.08	18006	890.4	0.8
298.07	17508	886.9	0.8
298.08	17005	883.1	0.8
298.08	16505	879.3	0.8
298.07	16004	875.3	1
298.07	15503	871.1	1
298.07	15005	867	1
298.07	14504	862.4	1
298.08	14002	857.8	1
298.07	13633	854	1
298.07	13024	848.3	1
298.07	12512	843.3	1.2
298.08	11996	837.8	1.2
298.07	11500	832	1.2
298.08	11013	825.9	1.2
298.08	10511	819.3	1.4
298.07	9998	812.8	1.4
298.07	9500	804.5	1.6
298.08	9001	795.9	1.6
298.08	8504	786.3	1.8
298.07	8003	775.2	2
298.07	7503	762.2	2.4
298.08	7001	746	3
298.07	6900	742.3	3.2
298.06	6801	738.3	3.2
298.06	6700	733.8	3.5
298.08	6600	729.1	3.8
298.06	6500	723.9	4
298.08	6450	720.9	4.3
298.08	6401	718.3	4.4
298.1	6354	716.1	4.6

System: carbon dioxide + hydrogen sulfide; phases: Fluid (supercritical or subcritical phases)
Fixed: Mole fraction of carbon dioxide = 0.9505
Property: Mass density, kg/m3 (Fluid (supercritical or subcritical phases)); method: Vibrating tube method
Temperature, K	Pressure, kPa	Mass density, kg/m3	uncertainty
322.4	40495	910.3	0.6
322.4	39992	908.1	0.6
322.42	39502	906	0.6
322.41	39014	903.8	0.6
322.41	38492	901.2	0.6
322.42	38008	899.1	0.6
322.42	37495	896.5	0.6
322.41	37001	894.2	0.7
322.42	36519	891.6	0.7
322.42	36000	889	0.7
322.41	35495	886.3	0.7
322.42	35002	883.6	0.7
322.42	34503	880.8	0.7
322.42	34004	878	0.7
322.42	33498	875.2	0.7
322.42	33004	872.4	0.7
322.43	32503	869.6	0.7
322.43	32002	866.5	0.7
322.42	31506	863.7	0.7
322.43	31004	860.5	0.7
322.43	30505	857.5	0.7
322.43	30006	854.1	0.7
322.43	29502	850.6	0.9
322.42	29009	847.7	0.9
322.42	27425	837.1	0.9
322.43	27003	833.6	0.9
322.44	26506	829.2	0.9
322.43	26031	824.9	0.9
322.42	25008	817.6	0.9
322.43	24503	813	0.9
322.44	24134	809.6	0.9
322.43	20544	780.3	1.1
322.4	20400	775.4	1.1
322.43	20014	767.7	1.1
322.43	19480	761	1.3
322.43	19007	754	1.3
322.44	18728	748.8	1.3
322.42	18005	740.8	1.3
322.43	17599	735.2	1.3
322.43	17106	726.5	1.5
322.43	16502	714.5	1.5
322.44	16031	705.9	1.7
322.43	15744	699.2	1.7
322.43	15001	682	1.9
322.42	14515	671.3	2.1
322.44	14019	655.5	2.3
322.42	13503	640.1	2.5
322.43	12996	620.9	2.6
322.44	12023	577	3.8
322.42	11519	546.6	4.6
322.39	9505	341.5	2.5
322.43	9001	280.6	1.7
322.45	8500	247.2	1.2
322.46	8000	217.9	1.1
352.98	40721	814.9	0.7
352.99	40702	814.4	0.7
352.97	40515	813.3	0.7
352.98	40059	810.8	0.7
352.98	39509	807.3	0.7
352.98	39054	803.9	0.7
352.95	38517	800.4	0.7
352.96	38004	797	0.7
352.96	37470	794.1	0.7
352.96	37004	790.2	0.7
352.96	36555	786.3	0.7
352.96	35917	782.8	0.7
352.93	35508	779.2	0.9
352.96	35000	774.5	0.9
352.96	34514	770.9	0.9
352.96	33999	767	0.9
352.94	33504	763.1	0.9
352.96	33000	758.5	0.9
352.96	32501	753.9	0.9
352.96	32001	749.7	0.9
352.96	31506	745	0.9
352.96	31043	741.1	0.9
352.97	30503	735.1	0.9
352.97	30006	730.2	0.9
352.97	29502	724.7	0.9
352.98	29007	719.7	0.9
352.98	28505	714.4	1.1
352.99	28006	708.6	1.1
352.97	27507	702.5	1.1
352.98	27002	696.2	1.1
352.98	26504	690.1	1.1
352.98	25999	683.7	1.1
352.97	25500	676.5	1.1
352.97	25005	669.8	1.1
352.96	24499	662.4	1.3
352.98	24005	654.6	1.3
352.98	23503	646.1	1.3
352.98	23002	637.9	1.3
352.99	22505	629.4	1.5
352.98	22006	619.7	1.5
352.98	21508	610.3	1.5
352.96	20999	599.7	1.5
352.96	20506	589.4	1.7
352.96	19998	577.5	1.7
352.97	19503	564.8	1.9
352.96	19005	551.2	1.9
352.98	18502	536.7	1.9
352.98	18005	522.1	2.1
352.96	17499	505.7	2.1
352.97	17001	488.9	2.3
352.97	16500	471	2.3
352.98	16003	452.2	2.5
353	15503	432.9	2.5
352.99	15001	412.5	2.5
352.98	14500	391.7	2.5
352.98	14003	371.6	2.5
352.98	13497	350.2	2.5
352.97	13007	329.4	2.4
353	12511	308.8	2.2
352.99	12007	288.6	2.2
352.98	11500	268.9	2
352.98	10998	250.1	1.8
352.99	10504	232.8	1.8
352.99	9987	217.7	0.7
352.99	9504	202.4	0.6

System: carbon dioxide + hydrogen sulfide; phases: Gas, Liquid
Property: Vapor or sublimation pressure, kPa (Gas); method: break point
Temperature, K	Mass density, kg/m3	Vapor or sublimation pressure, kPa	uncertainty
272.56	97.4	3435	283
282.7	127.4	4334	350
297.5	225	6166	483

System: carbon dioxide + hydrogen sulfide; phases: Liquid, Gas
Property: Vapor or sublimation pressure, kPa (Liquid); method: break point
Temperature, K	Mass density, kg/m3	Vapor or sublimation pressure, kPa	uncertainty
273.32	889.9	4193	329
283.9	861.4	4621	359
298.07	714.3	6320	492
