Measured thermophysical data. Experimental and predicted phase equilibria and excess properties  for systems with ionic liquids
Source: Fluid Phase Equilib., 2008, 10.1016/j.fluid.2008.03.011
Compound 1: methylcyclohexane, C7H14, InChI=1S/C7H14/c1-7-5-3-2-4-6-7/h7H,2-6H2,1H3
Compound 2: toluene, C7H8, InChI=1S/C7H8/c1-7-5-3-2-4-6-7/h2-6H,1H3
Compound 3: oct-1-ene, C8H16, InChI=1S/C8H16/c1-3-5-7-8-6-4-2/h3H,1,4-8H2,2H3
Compound 4: octane, C8H18, InChI=1S/C8H18/c1-3-5-7-8-6-4-2/h3-8H2,1-2H3
Compound 5: ethanol, C2H6O, InChI=1S/C2H6O/c1-2-3/h3H,2H2,1H3
Compound 6: water, H2O, InChI=1S/H2O/h1H2
Compound 7: 1-ethyl-3-methylimidazolium ethyl sulfate, C8H16N2O4S, InChI=1S/C6H11N2.C2H6O4S/c1-3-8-5-4-7(2)6-8;1-2-6-7(3,4)5/h4-6H,3H2,1-2H3;2H2,1H3,(H,3,4,5)/q+1;/p-1
Compound 8: 1-hexyl-3-methylimidazolium trifluoromethanesulfonate, C11H19F3N2O3S, InChI=1S/C10H19N2.CHF3O3S/c1-3-4-5-6-7-12-9-8-11(2)10-12;2-1(3,4)8(5,6)7/h8-10H,3-7H2,1-2H3;(H,5,6,7)/q+1;/p-1
Compound 9: 1-hexyl-3-methylimidazolium bis[(trifluoromethyl)sulfonyl]imide, C12H19F6N3O4S2, InChI=1S/C10H19N2.C2F6NO4S2/c1-3-4-5-6-7-12-9-8-11(2)10-12;3-1(4,5)14(10,11)9-15(12,13)2(6,7)8/h8-10H,3-7H2,1-2H3;/q+1;-1
Compound 10: 1-butyl-1-methylpyrrolidinium trifluoromethanesulfonate, C10H20F3NO3S, InChI=1S/C9H20N.CHF3O3S/c1-3-4-7-10(2)8-5-6-9-10;2-1(3,4)8(5,6)7/h3-9H2,1-2H3;(H,5,6,7)/q+1;/p-1
Compound 11: 1-methyl-1-octylpyrrolidinium bis(trifluoromethylsulfonyl)amide, C15H28F6N2O4S2, InChI=1S/C13H28N.C2F6NO4S2/c1-3-4-5-6-7-8-11-14(2)12-9-10-13-14;3-1(4,5)14(10,11)9-15(12,13)2(6,7)8/h3-13H2,1-2H3;/q+1;-1

System: methylcyclohexane + 1-hexyl-3-methylimidazolium bis[(trifluoromethyl)sulfonyl]imide; phases: Liquid
Fixed: Temperature, K = 363.15
Fixed: Pressure, kPa = 1617
Property: Excess molar enthalpy (molar enthalpy of mixing), kJ/mol (Liquid); method: Flow calorimetry
Mole fraction of methylcyclohexane	Excess molar enthalpy (molar enthalpy of mixing), kJ/mol	uncertainty
0.0612	0.192	0.008
0.118	0.385	0.0158
0.1708	0.5533	0.0226
0.2202	0.6954	0.0284
0.2663	0.7353	0.03
0.3096	0.7234	0.0295
0.3885	0.6437	0.0263
0.4586	0.5693	0.0233
0.5213	0.5025	0.0205
0.6288	0.3946	0.0162
0.7176	0.3021	0.0124
0.7922	0.2198	0.0091
0.884	0.1125	0.0047

System: methylcyclohexane + 1-hexyl-3-methylimidazolium bis[(trifluoromethyl)sulfonyl]imide; phases: Liquid
Fixed: Pressure, kPa = 101
Fixed: Mole fraction of methylcyclohexane = 0
Property: Activity coefficient of methylcyclohexane (Liquid); method: dilutor technique
Temperature, K	Activity coefficient of methylcyclohexane	uncertainty
303.15	6.83	0.61
313.15	6.59	0.59
323.15	6.3	0.56
333.15	6.06	0.54

System: toluene + 1-hexyl-3-methylimidazolium bis[(trifluoromethyl)sulfonyl]imide; phases: Liquid
Fixed: Pressure, kPa = 101
Fixed: Mole fraction of toluene = 0
Property: Activity coefficient of toluene (Liquid); method: dilutor technique
Temperature, K	Activity coefficient of toluene	uncertainty
303.15	0.85	0.06
313.15	0.95	0.06
323.15	1.05	0.07
333.15	1.14	0.07

System: toluene + 1-hexyl-3-methylimidazolium trifluoromethanesulfonate; phases: Liquid
Fixed: Pressure, kPa = 101
Fixed: Mole fraction of toluene = 0
Property: Activity coefficient of toluene (Liquid); method: Dilutor technique
Temperature, K	Activity coefficient of toluene	uncertainty
303.15	1.38	0.09
313.15	1.52	0.1
323.15	1.65	0.12
333.15	1.75	0.12

System: toluene + 1-methyl-1-octylpyrrolidinium bis(trifluoromethylsulfonyl)amide; phases: Liquid
Fixed: Pressure, kPa = 101
Fixed: Mole fraction of toluene = 0
Property: Activity coefficient of toluene (Liquid); method: dilutor technique
Temperature, K	Activity coefficient of toluene	uncertainty
303.15	0.67	0.05
313.15	0.73	0.05
323.15	0.8	0.05
333.15	0.86	0.06

System: methylcyclohexane + 1-hexyl-3-methylimidazolium trifluoromethanesulfonate; phases: Liquid
Fixed: Pressure, kPa = 101
Fixed: Mole fraction of methylcyclohexane = 0
Property: Activity coefficient of methylcyclohexane (Liquid); method: dilutor technique
Temperature, K	Activity coefficient of methylcyclohexane	uncertainty
303.15	10.53	0.95
313.15	10.2	0.9
323.15	9.77	0.88
333.15	9.49	0.85

System: methylcyclohexane + 1-methyl-1-octylpyrrolidinium bis(trifluoromethylsulfonyl)amide; phases: Liquid
Fixed: Pressure, kPa = 101
Fixed: Mole fraction of methylcyclohexane = 0
Property: Activity coefficient of methylcyclohexane (Liquid); method: dilutor technique
Temperature, K	Activity coefficient of methylcyclohexane	uncertainty
303.15	4.59	0.41
313.15	4.41	0.39
323.15	4.29	0.38
333.15	4.18	0.37

System: ethanol + 1-ethyl-3-methylimidazolium ethyl sulfate; phases: Liquid
Fixed: Pressure, kPa = 101
Fixed: Mole fraction of ethanol = 0
Property: Activity coefficient of ethanol (Liquid); method: dilutor technique
Temperature, K	Activity coefficient of ethanol	uncertainty
323.15	0.57	0.05
333.15	0.6	0.05
343.15	0.65	0.05
353.15	0.7	0.05

System: ethanol + 1-hexyl-3-methylimidazolium trifluoromethanesulfonate; phases: Liquid
Fixed: Pressure, kPa = 101
Fixed: Mole fraction of ethanol = 0
Property: Activity coefficient of ethanol (Liquid); method: dilutor technique
Temperature, K	Activity coefficient of ethanol	uncertainty
303.15	1.05	0.07
313.15	1	0.06
323.15	0.94	0.06
333.15	0.86	0.06

System: ethanol + 1-butyl-1-methylpyrrolidinium trifluoromethanesulfonate; phases: Liquid
Fixed: Pressure, kPa = 101
Fixed: Mole fraction of ethanol = 0
Property: Activity coefficient of ethanol (Liquid); method: dilutor technique
Temperature, K	Activity coefficient of ethanol	uncertainty
313.15	0.95	0.06
323.15	0.92	0.06
333.15	0.88	0.06
343.15	0.86	0.06

System: water + 1-hexyl-3-methylimidazolium trifluoromethanesulfonate; phases: Liquid
Fixed: Pressure, kPa = 101
Fixed: Mass fraction of water = 0
Property: Activity coefficient of water (Liquid); method: dilutor technique
Temperature, K	Activity coefficient of water	uncertainty
303.15	1.31	0.09
313.15	1.04	0.06
323.15	0.82	0.05
333.15	0.64	0.05

System: water + 1-butyl-1-methylpyrrolidinium trifluoromethanesulfonate; phases: Liquid
Fixed: Pressure, kPa = 101
Fixed: Mole fraction of water = 0
Property: Activity coefficient of water (Liquid); method: dilutor technique
Temperature, K	Activity coefficient of water	uncertainty
313.15	0.67	0.05
323.15	0.56	0.05
333.15	0.51	0.04
343.15	0.44	0.04

System: methylcyclohexane + toluene; phases: Gas, Liquid
Property: Mole fraction of methylcyclohexane (Gas); method: CHROM:UFactor:2
Temperature, K	Mole fraction of methylcyclohexane	Mole fraction of methylcyclohexane	uncertainty
324.95	0.1003	0.1844	0.0044
324.95	0.1996	0.326	0.0078
324.95	0.3007	0.4277	0.0103
324.95	0.4008	0.5144	0.0117
324.95	0.4969	0.5843	0.01
324.95	0.6008	0.6633	0.0081
324.95	0.6964	0.7374	0.0063
324.95	0.8008	0.8193	0.0044
324.95	0.9005	0.9039	0.0023
333.75	0.0535	0.1106	0.0027
333.75	0.1017	0.1907	0.0046
333.75	0.1485	0.2555	0.0061
333.75	0.199	0.3171	0.0076
333.75	0.2504	0.3743	0.009
333.75	0.3	0.421	0.0101
333.75	0.3502	0.467	0.0112
333.75	0.4023	0.5104	0.0118
333.75	0.4505	0.5487	0.0109
333.75	0.5002	0.5861	0.01
333.75	0.5502	0.6266	0.009
333.75	0.6007	0.664	0.0081
333.75	0.6513	0.7005	0.0072
333.75	0.6989	0.7367	0.0064
333.75	0.7504	0.7775	0.0054
333.75	0.7993	0.8177	0.0044
333.75	0.8489	0.8586	0.0034
333.75	0.9057	0.9084	0.0022
333.75	0.948	0.9483	0.0013

System: octane + oct-1-ene; phases: Gas, Liquid
Fixed: Temperature, K = 342.45
Property: Mole fraction of oct-1-ene (Gas); method: CHROM:UFactor:2
Mole fraction of oct-1-ene	Mole fraction of oct-1-ene	uncertainty
0.0503	0.0648	0.0016
0.1005	0.1234	0.003
0.2004	0.2346	0.0056
0.2999	0.34	0.0082
0.3999	0.4413	0.0106
0.5044	0.5417	0.0111
0.6001	0.6354	0.0088
0.6999	0.7286	0.0066
0.8001	0.8184	0.0044
0.8998	0.9104	0.0022
0.9504	0.9568	0.0011

System: octane + 1-hexyl-3-methylimidazolium bis[(trifluoromethyl)sulfonyl]imide; phases: Liquid
Fixed: Temperature, K = 363.15
Fixed: Pressure, kPa = 1548
Property: Excess molar enthalpy (molar enthalpy of mixing), kJ/mol (Liquid); method: Flow calorimetry
Mole fraction of octane	Excess molar enthalpy (molar enthalpy of mixing), kJ/mol	uncertainty
0.0486	0.2036	0.0084
0.095	0.3692	0.0151
0.1392	0.4498	0.0184
0.1814	0.4835	0.0198
0.2217	0.4629	0.0189
0.2603	0.4431	0.0181
0.3327	0.4011	0.0164
0.3993	0.367	0.015
0.4608	0.331	0.0136
0.5707	0.2663	0.011
0.666	0.2022	0.0084
0.7495	0.1608	0.0067
0.8568	0.0951	0.004
