Measured thermophysical data. Liquid-liquid equilibria for ternary systems of (water + carboxylic acid + 1-octanol) at 293.15 K: modeling phase equilibria using a solvatochromic approach
Source: Fluid Phase Equilib., 2005, 10.1016/j.fluid.2004.10.029
Compound 1: water, H2O, InChI=1S/H2O/h1H2
Compound 2: octan-1-ol, C8H18O, InChI=1S/C8H18O/c1-2-3-4-5-6-7-8-9/h9H,2-8H2,1H3
Compound 3: formic acid, CH2O2, InChI=1S/CH2O2/c2-1-3/h1H,(H,2,3), purity 99.85%
Compound 4: propanoic acid, C3H6O2, InChI=1S/C3H6O2/c1-2-3(4)5/h2H2,1H3,(H,4,5), purity 99.85%
Compound 5: 4-oxopentanoic acid, C5H8O3, InChI=1S/C5H8O3/c1-4(6)2-3-5(7)8/h2-3H2,1H3,(H,7,8), purity 99.85%
Compound 6: pentanoic acid, C5H10O2, InChI=1S/C5H10O2/c1-2-3-4-5(6)7/h2-4H2,1H3,(H,6,7), purity 99.85%
Compound 7: hexanoic acid, C6H12O2, InChI=1S/C6H12O2/c1-2-3-4-5-6(7)8/h2-5H2,1H3,(H,7,8), purity 99.85%

System: formic acid + octan-1-ol + water; phases: Liquid mixture 1, Liquid mixture 2
Fixed: Temperature, K = 293.15
Fixed: Pressure, kPa = 101.3
Property: Mole fraction of formic acid (Liquid mixture 1); method: Titration method
Mole fraction of water	Mole fraction of formic acid	uncertainty
0.1477	0	0.0001
0.1597	0.31	0.0124
0.1861	0.4593	0.0184
0.2288	0.5566	0.0177
0.2615	0.5855	0.0166
0.2914	0.604	0.0158
0.3417	0.6072	0.0157
0.3848	0.5868	0.0165
0.4308	0.5534	0.0179
0.4742	0.5184	0.0193
0.4884	0.5059	0.0198
0.5415	0.4543	0.0182
0.6651	0.3317	0.0133
0.7608	0.2366	0.0095
0.8885	0.1098	0.0044
0.914	0.0846	0.0034
0.9557	0.0431	0.0017
0.9791	0.0201	0.0008
0.9936	0.0059	0.0002
0.9996	0	0.0001

System: formic acid + octan-1-ol + water; phases: Liquid mixture 1, Liquid mixture 2
Fixed: Pressure, kPa = 101.3
Fixed: Temperature, K = 293.15
Property: Mole fraction of formic acid (Liquid mixture 1); method: CHROM:UFactor:2
Property: Mole fraction of water (Liquid mixture 2); method: CHROM:UFactor:2
Property: Mole fraction of formic acid (Liquid mixture 2); method: CHROM:UFactor:2
Mole fraction of water	Mole fraction of formic acid	uncertainty	Mole fraction of water	uncertainty	Mole fraction of formic acid	uncertainty
0.9759	0.0237	0.0005	0.2033	0.0081	0.0982	
0.9172	0.0822	0.0016	0.1868	0.0075	0.2814	
0.848	0.1511	0.003	0.1718	0.0069	0.4199	
0.7783	0.2204	0.0044	0.1626	0.0065	0.5178	
0.7143	0.2841	0.0057	0.1795	0.0072	0.5708	
0.6412	0.3566	0.0071	0.2368	0.0095	0.5878	

System: propanoic acid + octan-1-ol + water; phases: Liquid mixture 1, Liquid mixture 2
Fixed: Temperature, K = 293.15
Fixed: Pressure, kPa = 101.3
Property: Mole fraction of propanoic acid (Liquid mixture 1); method: Titration method
Mole fraction of water	Mole fraction of propanoic acid	uncertainty
0.1477	0	0.0001
0.3334	0.2123	0.0085
0.3984	0.2645	0.0106
0.4427	0.3007	0.012
0.5038	0.3056	0.0122
0.5607	0.2953	0.0118
0.6041	0.2808	0.0112
0.6482	0.2611	0.0104
0.6949	0.2373	0.0095
0.7448	0.2088	0.0084
0.7786	0.1872	0.0075
0.8114	0.1654	0.0066
0.8273	0.1549	0.0062
0.8534	0.1296	0.0052
0.8731	0.1213	0.0049
0.8845	0.1115	0.0045
0.909	0.0893	0.0036
0.9566	0.0426	0.0017
0.9996	0	0.0001

System: propanoic acid + octan-1-ol + water; phases: Liquid mixture 1, Liquid mixture 2
Fixed: Temperature, K = 293.15
Fixed: Pressure, kPa = 101.3
Property: Mole fraction of propanoic acid (Liquid mixture 1); method: CHROM:UFactor:2
Property: Mole fraction of octan-1-ol (Liquid mixture 2); method: CHROM:UFactor:2
Property: Mole fraction of propanoic acid (Liquid mixture 2); method: CHROM:UFactor:2
Mole fraction of water	Mole fraction of propanoic acid	uncertainty	Mole fraction of octan-1-ol	uncertainty	Mole fraction of propanoic acid	uncertainty
0.9894	0.0102	0.0002	0.2591	0.0207	0.0815	
0.979	0.0204	0.0004	0.3231	0.0258	0.1523	
0.9618	0.0374	0.0008	0.3637	0.0291	0.2414	
0.9536	0.0454	0.0009	0.4113	0.0329	0.2842	
0.9455	0.0531	0.0011	0.452	0.0362	0.3106	
0.9374	0.061	0.0012	0.5179	0.0386	0.3059	
0.9299	0.0683	0.0014	0.5227	0.0382	0.3209	

System: octan-1-ol + 4-oxopentanoic acid + water; phases: Liquid mixture 1, Liquid mixture 2
Fixed: Temperature, K = 293.15
Fixed: Pressure, kPa = 101.3
Property: Mole fraction of 4-oxopentanoic acid (Liquid mixture 1); method: Titration method
Mole fraction of water	Mole fraction of 4-oxopentanoic acid	uncertainty
0.1477	0	0.0001
0.228	0.2256	0.009
0.253	0.2471	0.0099
0.3307	0.3207	0.0128
0.3976	0.3417	0.0137
0.4967	0.3471	0.0139
0.5914	0.322	0.0129
0.6783	0.2811	0.0112
0.7546	0.2336	0.0093
0.7903	0.2051	0.0082
0.8277	0.1701	0.0068
0.891	0.1075	0.0043
0.9475	0.0517	0.0021
0.9996	0	0.0001

System: octan-1-ol + 4-oxopentanoic acid + water; phases: Liquid mixture 1, Liquid mixture 2
Fixed: Pressure, kPa = 101.3
Fixed: Temperature, K = 293.15
Property: Mole fraction of 4-oxopentanoic acid (Liquid mixture 1); method: CHROM:UFactor:2
Property: Mole fraction of water (Liquid mixture 2); method: CHROM:UFactor:2
Property: Mole fraction of 4-oxopentanoic acid (Liquid mixture 2); method: CHROM:UFactor:2
Mole fraction of water	Mole fraction of 4-oxopentanoic acid	uncertainty	Mole fraction of water	uncertainty	Mole fraction of 4-oxopentanoic acid	uncertainty
0.9819	0.0176	0.0004	0.2579	0.0103	0.0097	
0.9661	0.0334	0.0007	0.2786	0.0111	0.0176	
0.9307	0.0686	0.0014	0.2835	0.0113	0.0324	
0.905	0.0942	0.0019	0.2861	0.0114	0.043	
0.8728	0.1261	0.0025	0.2884	0.0115	0.0583	
0.8469	0.1511	0.003	0.2936	0.0117	0.0709	
0.827	0.1706	0.0034	0.3073	0.0123	0.0846	
0.7837	0.2134	0.0043	0.3111	0.0124	0.1086	

System: pentanoic acid + octan-1-ol + water; phases: Liquid mixture 1, Liquid mixture 2
Fixed: Temperature, K = 293.15
Fixed: Pressure, kPa = 101.3
Property: Mole fraction of pentanoic acid (Liquid mixture 1); method: Titration method
Mole fraction of water	Mole fraction of pentanoic acid	uncertainty
0.1477	0	0.0001
0.1664	0.0499	0.002
0.1986	0.1531	0.0061
0.2266	0.2145	0.0086
0.2598	0.2815	0.0113
0.2748	0.3314	0.0133
0.3061	0.4006	0.016
0.3367	0.4441	0.0178
0.3676	0.4717	0.0189
0.3979	0.5097	0.0196
0.4171	0.5282	0.0189
0.4338	0.5346	0.0186
0.4528	0.5386	0.0185
0.4566	0.5404	0.0184
0.4625	0.5375	0.0185
0.9996	0	0.0001

System: pentanoic acid + octan-1-ol + water; phases: Liquid mixture 1, Liquid mixture 2
Fixed: Temperature, K = 293.15
Fixed: Pressure, kPa = 101.3
Property: Mole fraction of pentanoic acid (Liquid mixture 1); method: CHROM:UFactor:2
Property: Mole fraction of water (Liquid mixture 2); method: CHROM:UFactor:2
Property: Mole fraction of pentanoic acid (Liquid mixture 2); method: CHROM:UFactor:2
Mole fraction of water	Mole fraction of pentanoic acid	uncertainty	Mole fraction of water	uncertainty	Mole fraction of pentanoic acid	uncertainty
0.9983	0.0013	0.0001	0.1563	0.0125	0.085	
0.9972	0.0025	0.0001	0.2243	0.0179	0.2162	
0.9961	0.0036	0.0001	0.2427	0.0194	0.3215	
0.9953	0.0045	0.0001	0.2803	0.0224	0.3822	
0.9947	0.0051	0.0001	0.2898	0.0232	0.4337	
0.9943	0.0055	0.0001	0.3385	0.0271	0.4477	
0.9935	0.0064	0.0001	0.3678	0.0294	0.4884	

System: octan-1-ol + hexanoic acid + water; phases: Liquid mixture 1, Liquid mixture 2
Fixed: Temperature, K = 293.15
Fixed: Pressure, kPa = 101.3
Property: Mole fraction of hexanoic acid (Liquid mixture 1); method: TITR:UFactor:2
Mole fraction of water	Mole fraction of hexanoic acid	uncertainty
0.1477	0	0.0001
0.1681	0.0955	0.0076
0.1741	0.1331	0.0106
0.1806	0.2151	0.0172
0.1874	0.2905	0.0232
0.1989	0.3582	0.0287
0.2044	0.4236	0.0339
0.2145	0.5073	0.0394
0.2209	0.6011	0.0319
0.2247	0.6825	0.0254
0.2283	0.7508	0.0199
0.2353	0.7647	0.0188
0.9996	0	0.0001

System: octan-1-ol + hexanoic acid + water; phases: Liquid mixture 1, Liquid mixture 2
Fixed: Pressure, kPa = 101.3
Fixed: Temperature, K = 293.15
Property: Mole fraction of water (Liquid mixture 1); method: CHROM:UFactor:2
Property: Mole fraction of water (Liquid mixture 2); method: CHROM:UFactor:2
Property: Mole fraction of hexanoic acid (Liquid mixture 2); method: CHROM:UFactor:2
Mole fraction of hexanoic acid	Mole fraction of water	uncertainty	Mole fraction of water	uncertainty	Mole fraction of hexanoic acid	uncertainty
0.0007	0.9985	0.0001	0.1795	0.0072	0.1206	
0.0012	0.9982	0.0001	0.1915	0.0077	0.2342	
0.0014	0.9981	0.0001	0.2022	0.0081	0.3368	
0.0015	0.998	0.0001	0.2087	0.0083	0.4159	
0.0017	0.998	0.0001	0.2173	0.0087	0.5182	
0.0018	0.9979	0.0001	0.2237	0.0089	0.5771	
0.0019	0.9978	0.0001	0.2279	0.0091	0.6586	
