Measured thermophysical data. Phase equilibrium measurements and thermodynamic modeling of {CO2 + diethyl succinate + cosolvent} systems
Source: Fluid Phase Equilib., 2019, 10.1016/j.fluid.2019.112285
Compound 1: carbon dioxide, CO2, InChI=1S/CO2/c2-1-3, purity 99.9%
Compound 2: ethanol, C2H6O, InChI=1S/C2H6O/c1-2-3/h3H,2H2,1H3, purity 99.8%
Compound 3: ethyl acetate, C4H8O2, InChI=1S/C4H8O2/c1-3-6-4(2)5/h3H2,1-2H3, purity 99.95%
Compound 4: diethyl butanedioate, C8H14O4, InChI=1S/C8H14O4/c1-3-11-7(9)5-6-8(10)12-4-2/h3-6H2,1-2H3, purity 99%

System: carbon dioxide + ethyl acetate; phases: Liquid, Gas
Property: Vapor or sublimation pressure, kPa (Liquid); method: Phase Equilibration
Temperature, K	Mole fraction of carbon dioxide	Vapor or sublimation pressure, kPa	uncertainty
303.55	0.4065	2360	440
303.55	0.4841	2870	460
303.55	0.6092	3530	480
313.18	0.4065	2650	450
313.18	0.4841	3350	470
313.18	0.6092	4160	510
323.21	0.4065	3030	470
323.21	0.4841	3840	500
323.21	0.6092	4940	540
333.23	0.4065	3540	490
333.23	0.4841	4410	520
333.23	0.6092	5750	590
353.43	0.4065	4550	540
353.43	0.4841	5690	590
353.43	0.6092	7470	680
303.55	0.7018	4380	520
303.55	0.8221	5020	550
313.18	0.7018	5080	550
313.18	0.8221	6080	600
323.21	0.7018	5720	580
323.21	0.8221	7160	670
333.23	0.7018	6680	640
333.23	0.8221	8290	730
353.43	0.7018	8590	750
353.43	0.8221	10530	870

System: carbon dioxide + diethyl butanedioate; phases: Liquid, Gas
Property: Vapor or sublimation pressure, kPa (Liquid); method: Phase Equilibration
Temperature, K	Mole fraction of carbon dioxide	Vapor or sublimation pressure, kPa	uncertainty
308.21	0.4246	2460	450
308.21	0.5484	3440	490
308.21	0.7024	4950	550
308.21	0.8052	6060	610
308.21	0.9008	6900	650
308.21	0.9483	7380	680
308.21	0.9925	7690	690
318.24	0.4246	2880	470
318.24	0.5484	4480	530
318.24	0.7024	6070	610
318.24	0.8052	7360	680
318.24	0.9008	8240	730
318.24	0.9483	8910	780
328.23	0.4246	3400	490
328.23	0.5484	5030	550
328.23	0.7024	7230	670
328.23	0.8052	8530	750
328.23	0.9008	9930	840
328.23	0.9483	10720	890
337.91	0.4246	3810	500
337.91	0.5484	5340	580
337.91	0.7024	8220	740
337.91	0.8052	10150	850
337.91	0.9008	11620	950
337.91	0.9483	12570	1010
348.13	0.4246	4530	540
348.13	0.5484	6250	630
348.13	0.7024	9520	820
348.13	0.8052	11610	950
348.13	0.9008	13570	1080
348.13	0.9483	14450	1140
358.09	0.4246	5140	570
358.09	0.5484	7060	680
358.09	0.7024	10750	900
358.09	0.8052	13200	1060
358.09	0.9008	15210	1210
358.09	0.9483	16020	1260

System: carbon dioxide + diethyl butanedioate; phases: Gas, Liquid
Fixed: Mole fraction of carbon dioxide = 0.9925
Property: Vapor or sublimation pressure, kPa (Gas); method: Phase Equilibration
Temperature, K	Vapor or sublimation pressure, kPa	uncertainty
318.24	8990	760
328.23	10390	850
337.91	11670	930
348.13	12820	1000
358.09	13740	1070

System: carbon dioxide + diethyl butanedioate + ethanol; phases: Liquid, Gas
Property: Vapor or sublimation pressure, kPa (Liquid); method: Phase Equilibration
Solvent: Mole fraction of diethyl butanedioate	Temperature, K	Mole fraction of carbon dioxide	Vapor or sublimation pressure, kPa	uncertainty
0.496	303.28	0.4475	3480	480
0.496	303.28	0.5547	4020	500
0.496	303.28	0.6529	4470	520
0.496	313.17	0.4475	4100	500
0.496	313.17	0.5547	4810	540
0.496	313.17	0.6529	5500	570
0.496	323.21	0.4475	4700	530
0.496	323.21	0.5547	5600	580
0.496	323.21	0.6529	6220	600
0.496	333.17	0.4475	5290	570
0.496	333.17	0.5547	6830	640
0.496	333.17	0.6529	7270	660
0.496	343.16	0.4475	5930	600
0.496	343.16	0.5547	7630	690
0.496	343.16	0.6529	8520	740
0.324	303.28	0.4506	3860	490
0.324	303.28	0.5505	4440	520
0.324	313.15	0.4506	4460	520
0.324	313.15	0.5505	5320	560
0.324	323.13	0.4506	5250	560
0.324	323.13	0.5505	6230	610
0.324	333.15	0.4506	6020	600
0.324	333.15	0.5505	7330	670
0.324	343.14	0.4506	6850	640
0.324	343.14	0.5505	8010	710
0.496	303.28	0.7594	5160	560
0.496	303.28	0.8501	6020	600
0.496	303.28	0.9509	6520	630
0.496	313.17	0.7594	6400	620
0.496	313.17	0.8501	7180	660
0.496	313.17	0.9509	7870	700
0.496	323.21	0.7594	7430	670
0.496	323.21	0.8501	8520	740
0.496	323.21	0.9509	9400	800
0.496	333.17	0.7594	8880	760
0.496	333.17	0.8501	10090	830
0.496	333.17	0.9509	11450	920
0.496	343.16	0.7594	10280	840
0.496	343.16	0.8501	11660	930
0.496	343.16	0.9509	12840	1010
0.324	303.28	0.7506	5590	580
0.324	303.28	0.9011	5960	600
0.324	313.15	0.7506	6690	630
0.324	313.15	0.9011	7370	680
0.324	323.13	0.7506	7890	700
0.324	323.13	0.9011	8950	770
0.324	333.15	0.7506	9330	780
0.324	333.15	0.9011	10570	860
0.324	343.14	0.7506	10820	870
0.324	343.14	0.9011	12240	960

System: carbon dioxide + diethyl butanedioate + ethyl acetate; phases: Liquid, Gas
Fixed: Solvent: Mole fraction of diethyl butanedioate = 0.497
Property: Vapor or sublimation pressure, kPa (Liquid); method: Phase Equilibration
Temperature, K	Mole fraction of carbon dioxide	Vapor or sublimation pressure, kPa	uncertainty
303.25	0.4655	2750	450
303.25	0.8047	5150	550
313.21	0.4655	3230	470
313.21	0.8047	6050	600
323.06	0.4655	3880	500
323.06	0.8047	7060	660
333.15	0.4655	4390	520
333.15	0.8047	8330	740
343.11	0.4655	4990	550
343.11	0.8047	9750	830
303.25	0.9006	5990	600
303.25	0.9466	6450	630
313.21	0.9006	7070	660
313.21	0.9466	7790	720
323.06	0.9006	8480	750
323.06	0.9466	9290	800
333.15	0.9006	10040	850
333.15	0.9466	10770	890
343.11	0.9006	11700	950
343.11	0.9466	12230	970
