Measured thermophysical data. Towards understanding the effect of electrostatic interactions on the density of  ionic liquids
Source: Fluid Phase Equilib., 2009, 10.1016/j.fluid.2009.02.011
Compound 1: 1-methylimidazole, C4H6N2, InChI=1S/C4H6N2/c1-6-3-2-5-4-6/h2-4H,1H3
Compound 2: 1-ethyl-1H-imidazole, C5H8N2, InChI=1S/C5H8N2/c1-2-7-4-3-6-5-7/h3-5H,2H2,1H3
Compound 3: trimethyl orthophosphate, C3H9O4P, InChI=1S/C3H9O4P/c1-5-8(4,6-2)7-3/h1-3H3
Compound 4: ethyl phosphate, C6H15O4P, InChI=1S/C6H15O4P/c1-4-8-11(7,9-5-2)10-6-3/h4-6H2,1-3H3
Compound 5: tributyl phosphate, C12H27O4P, InChI=1S/C12H27O4P/c1-4-7-10-14-17(13,15-11-8-5-2)16-12-9-6-3/h4-12H2,1-3H3
Compound 6: 1,3-dimethylimidazolium dimethylphosphate, C7H15N2O4P, InChI=1S/C5H9N2.C2H7O4P/c1-6-3-4-7(2)5-6;1-5-7(3,4)6-2/h3-5H,1-2H3;1-2H3,(H,3,4)/q+1;/p-1
Compound 7: 1-ethyl-3-methylimidazolium diethyl phosphate, C10H21N2O4P, InChI=1S/C6H11N2.C4H11O4P/c1-3-8-5-4-7(2)6-8;1-3-7-9(5,6)8-4-2/h4-6H,3H2,1-2H3;3-4H2,1-2H3,(H,5,6)/q+1;/p-1
Compound 8: 1-butyl-3-methylimidazolium dibutyl phosphate, C16H33N2O4P, InChI=1S/C8H15N2.C8H19O4P/c1-3-4-5-10-7-6-9(2)8-10;1-3-5-7-11-13(9,10)12-8-6-4-2/h6-8H,3-5H2,1-2H3;3-8H2,1-2H3,(H,9,10)/q+1;/p-1
Compound 9: 1,3-diethyl-1H-imidazol-3-ium diethyl phosphate, C11H23N2O4P, InChI=1S/C7H13N2.C4H11O4P/c1-3-8-5-6-9(4-2)7-8;1-3-7-9(5,6)8-4-2/h5-7H,3-4H2,1-2H3;3-4H2,1-2H3,(H,5,6)/q+1;/p-1

System: 1-methylimidazole; phases: Liquid
Fixed: Pressure, kPa = 101.325
Property: Mass density, kg/m3 (Liquid); method: Pycnometric method
Temperature, K	Mass density, kg/m3	uncertainty
293.15	1037	1.6
298.15	1033.2	1.6
303.15	1029.2	1.6
308.15	1025	1.6
313.15	1020.7	1.7
318.15	1015.5	1.6
323.15	1011.9	1.6

System: 1-ethyl-1H-imidazole; phases: Liquid
Fixed: Pressure, kPa = 101.325
Property: Mass density, kg/m3 (Liquid); method: Pycnometric method
Temperature, K	Mass density, kg/m3	uncertainty
293.15	998.6	1.6
298.15	995.2	1.6
303.15	991.3	1.6
308.15	987.4	1.6
313.15	983.5	1.6
318.15	978.7	1.6
323.15	974.8	1.6

System: trimethyl orthophosphate; phases: Liquid
Fixed: Pressure, kPa = 101.325
Property: Mass density, kg/m3 (Liquid); method: Pycnometric method
Temperature, K	Mass density, kg/m3	uncertainty
293.15	1217.1	2
298.15	1212.9	2
303.15	1207.8	2
308.15	1202.5	2
313.15	1198	2
318.15	1191.9	2
323.15	1186.8	2

System: ethyl phosphate; phases: Liquid
Fixed: Pressure, kPa = 101.325
Property: Mass density, kg/m3 (Liquid); method: Pycnometric method
Temperature, K	Mass density, kg/m3	uncertainty
293.15	1071.1	1.9
298.15	1067.9	1.9
303.15	1063.3	1.9
308.15	1058.9	1.9
313.15	1053.5	2
318.15	1048	1.9
323.15	1043.2	1.9

System: tributyl phosphate; phases: Liquid
Fixed: Pressure, kPa = 101.325
Property: Mass density, kg/m3 (Liquid); method: Pycnometric method
Temperature, K	Mass density, kg/m3	uncertainty
293.15	964.6	13
298.15	961.6	13
303.15	958.4	13
308.15	955.4	13
313.15	949.6	13
318.15	944.7	13
323.15	940.9	13

System: 1,3-dimethylimidazolium dimethylphosphate; phases: Liquid
Fixed: Pressure, kPa = 101.325
Property: Mass density, kg/m3 (Liquid); method: Pycnometric method
Temperature, K	Mass density, kg/m3	uncertainty
293.15	1261.7	2.1
298.15	1258.3	2.1
303.15	1255	2.1
308.15	1251.7	2.1
313.15	1248	2.1
318.15	1245.1	2.1
323.15	1241.8	2.1

System: 1-ethyl-3-methylimidazolium diethyl phosphate; phases: Liquid
Fixed: Pressure, kPa = 101.325
Property: Mass density, kg/m3 (Liquid); method: Pycnometric method
Temperature, K	Mass density, kg/m3	uncertainty
293.15	1146.8	1.7
298.15	1146.4	1.8
303.15	1140	1.8
308.15	1136.5	1.8
313.15	1133.5	1.8
318.15	1129.9	1.8
323.15	1126.4	1.8

System: 1-butyl-3-methylimidazolium dibutyl phosphate; phases: Liquid
Fixed: Pressure, kPa = 101.325
Property: Mass density, kg/m3 (Liquid); method: Pycnometric method
Temperature, K	Mass density, kg/m3	uncertainty
303.15	1041	1.5
308.15	1037.5	1.5
313.15	1033.9	1.5
318.15	1030.6	1.5
323.15	1027.2	1.5

System: 1,3-diethyl-1H-imidazol-3-ium diethyl phosphate; phases: Liquid
Fixed: Pressure, kPa = 101.325
Property: Mass density, kg/m3 (Liquid); method: Pycnometric method
Temperature, K	Mass density, kg/m3	uncertainty
293.15	1127.2	1.7
298.15	1125	1.7
303.15	1122.3	1.7
308.15	1119.6	1.7
313.15	1115.5	1.8
318.15	1111.9	1.7
323.15	1108.8	1.8

System: trimethyl orthophosphate + 1-methylimidazole; phases: Liquid
Fixed: Pressure, kPa = 101
Fixed: Mole fraction of trimethyl orthophosphate = 0.5
Property: Mass density, kg/m3 (Liquid); method: Vibrating tube method
Temperature, K	Mass density, kg/m3	uncertainty
293.15	1142.1	1
298.15	1137.2	0.9
303.15	1132.4	0.9
308.15	1127.9	0.9
313.15	1123.3	0.9
318.15	1119	0.9
323.15	1113.1	0.9

System: ethyl phosphate + 1-methylimidazole; phases: Liquid
Fixed: Pressure, kPa = 101
Fixed: Mole fraction of ethyl phosphate = 0.5
Property: Mass density, kg/m3 (Liquid); method: Vibrating tube method
Temperature, K	Mass density, kg/m3	uncertainty
293.15	1060.82	0.82
298.15	1056.09	0.81
303.15	1051.2	0.81
308.15	1046.38	0.8
313.15	1041.56	0.79
318.15	1036.73	0.8
323.15	1031.32	0.8
