Measured thermophysical data. Phase equilibria involved in extractive distillation of dipropyl ether + 1-propyl alcohol using 2-ethoxyethanol as entrainer
Source: Fluid Phase Equilib., 2007, 10.1016/j.fluid.2007.03.030
Compound 1: propan-1-ol, C3H8O, InChI=1S/C3H8O/c1-2-3-4/h4H,2-3H2,1H3, purity 99.5%
Compound 2: dipropyl ether, C6H14O, InChI=1S/C6H14O/c1-3-5-7-6-4-2/h3-6H2,1-2H3, purity 90%
Compound 3: 2-ethoxyethan-1-ol, C4H10O2, InChI=1S/C4H10O2/c1-2-6-4-3-5/h5H,2-4H2,1H3, purity 99%

System: propan-1-ol; phases: Liquid
Property: Refractive index (Na D-line) (Liquid); method: Standard Abbe refractometry
Temperature, K	Pressure, kPa	Refractive index (Na D-line)	uncertainty
298.15	101.325	1.3836	0.0005

System: propan-1-ol; phases: Liquid
Property: Mass density, kg/m3 (Liquid); method: VIBTUB:UFactor:4
Temperature, K	Pressure, kPa	Mass density, kg/m3	uncertainty
298.15	101.325	799.62	0.48

System: propan-1-ol; phases: Liquid, Gas
Property: Vapor or sublimation pressure, kPa (Liquid); method: Ebulliometric method (Recirculating still)
Temperature, K	Vapor or sublimation pressure, kPa	uncertainty
369.75	101.3	0.5

System: dipropyl ether; phases: Liquid
Property: Refractive index (Na D-line) (Liquid); method: Standard Abbe refractometry
Temperature, K	Pressure, kPa	Refractive index (Na D-line)	uncertainty
298.15	101.325	1.3784	0.0005

System: dipropyl ether; phases: Liquid
Property: Mass density, kg/m3 (Liquid); method: VIBTUB:UFactor:4
Temperature, K	Pressure, kPa	Mass density, kg/m3	uncertainty
298.15	101.325	741.81	0.56

System: dipropyl ether; phases: Liquid, Gas
Property: Vapor or sublimation pressure, kPa (Liquid); method: Ebulliometric method (Recirculating still)
Temperature, K	Vapor or sublimation pressure, kPa	uncertainty
363.16	101.3	0.5

System: 2-ethoxyethan-1-ol; phases: Liquid
Property: Refractive index (Na D-line) (Liquid); method: Standard Abbe refractometry
Temperature, K	Pressure, kPa	Refractive index (Na D-line)	uncertainty
298.15	101.325	1.4062	0.0005

System: 2-ethoxyethan-1-ol; phases: Liquid
Property: Mass density, kg/m3 (Liquid); method: VIBTUB:UFactor:4
Temperature, K	Pressure, kPa	Mass density, kg/m3	uncertainty
298.15	101.325	925.38	0.29

System: 2-ethoxyethan-1-ol; phases: Liquid, Gas
Property: Vapor or sublimation pressure, kPa (Liquid); method: Ebulliometric method (Recirculating still)
Temperature, K	Vapor or sublimation pressure, kPa	uncertainty
345.63	9.97	0.2
349.72	11.98	0.2
353.3	13.98	0.2
356.42	15.98	0.2
359.27	17.98	0.2
363.08	20.96	0.2
365.34	22.97	0.2
367.46	24.98	0.2
370.33	27.95	0.2
373	30.94	0.2
375.49	33.97	0.2
378.51	37.93	0.2
381.26	41.98	0.2
383.78	45.88	0.2
386.12	49.91	0.2
388.87	54.89	0.21
391.39	59.83	0.21
393.83	64.82	0.21
396.01	69.65	0.21
398.1	74.57	0.21
400.12	79.47	0.21
402.11	84.74	0.21
403.97	89.84	0.21
405.76	94.91	0.21
407.95	101.3	0.21

System: 2-ethoxyethan-1-ol + dipropyl ether; phases: Liquid, Gas
Fixed: Pressure, kPa = 101.3
Property: Boiling temperature at pressure P, K (Liquid); method: Ebulliometric method (Recirculating still)
Mole fraction of dipropyl ether	Boiling temperature at pressure P, K	uncertainty
0	407.95	0.09
0.029	400.36	0.43
0.066	393.98	0.32
0.1	389.46	0.25
0.14	385.26	0.21
0.18	382.04	0.16
0.228	379.28	0.15
0.268	377.06	0.14
0.311	375.07	0.12
0.361	373.34	0.11
0.413	371.78	0.1
0.463	370.77	0.1
0.52	369.67	0.1
0.576	368.51	0.1
0.635	367.5	0.1
0.69	366.68	0.1
0.765	365.76	0.1
0.823	365	0.1
0.877	364.36	0.09
0.937	363.63	0.09
1	363.16	0.09

System: 2-ethoxyethan-1-ol + dipropyl ether; phases: Gas, Liquid
Fixed: Pressure, kPa = 101.3
Property: Mole fraction of dipropyl ether (Gas); method: CHROM:UFactor:4
Mole fraction of dipropyl ether	Mole fraction of dipropyl ether	uncertainty
0	0	0.001
0.029	0.206	0.014
0.066	0.379	0.016
0.1	0.49	0.019
0.14	0.575	0.016
0.18	0.633	0.014
0.228	0.679	0.012
0.268	0.711	0.011
0.311	0.744	0.01
0.361	0.782	0.008
0.413	0.806	0.007
0.463	0.823	0.007
0.52	0.838	0.006
0.576	0.851	0.006
0.635	0.866	0.005
0.69	0.88	0.005
0.765	0.895	0.004
0.823	0.912	0.004
0.877	0.931	0.003
0.937	0.959	0.003
1	1	0.001

System: propan-1-ol + 2-ethoxyethan-1-ol; phases: Liquid, Gas
Fixed: Pressure, kPa = 101.3
Property: Boiling temperature at pressure P, K (Liquid); method: Ebulliometric method (Recirculating still)
Mole fraction of propan-1-ol	Boiling temperature at pressure P, K	uncertainty
0	407.95	0.09
0.043	404.5	0.17
0.095	400.89	0.16
0.152	397.27	0.15
0.211	393.97	0.14
0.264	391.23	0.13
0.321	388.57	0.13
0.378	386.18	0.12
0.439	383.92	0.12
0.5	381.9	0.11
0.557	380.03	0.11
0.611	378.49	0.11
0.662	377.06	0.11
0.713	375.74	0.1
0.76	374.62	0.1
0.806	373.57	0.1
0.852	372.57	0.1
0.897	371.74	0.1
0.937	371.05	0.1
0.974	370.42	0.1
1	369.75	0.09

System: propan-1-ol + 2-ethoxyethan-1-ol; phases: Gas, Liquid
Fixed: Pressure, kPa = 101.3
Property: Mole fraction of propan-1-ol (Gas); method: CHROM:UFactor:4
Mole fraction of propan-1-ol	Mole fraction of propan-1-ol	uncertainty
0	0	0.001
0.043	0.138	0.008
0.095	0.267	0.011
0.152	0.391	0.015
0.211	0.486	0.018
0.264	0.562	0.017
0.321	0.632	0.014
0.378	0.689	0.012
0.439	0.746	0.01
0.5	0.787	0.008
0.557	0.824	0.007
0.611	0.854	0.006
0.662	0.878	0.005
0.713	0.901	0.004
0.76	0.922	0.004
0.806	0.94	0.003
0.852	0.956	0.003
0.897	0.969	0.002
0.937	0.982	0.002
0.974	0.992	0.002
1	1	0.001

System: propan-1-ol + 2-ethoxyethan-1-ol + dipropyl ether; phases: Liquid, Gas
Fixed: Pressure, kPa = 101.3
Property: Mole fraction of propan-1-ol (Liquid); method: CHROM:UFactor:4
Property: Mole fraction of propan-1-ol (Gas); method: CHROM:UFactor:4
Property: Mole fraction of dipropyl ether (Gas); method: CHROM:UFactor:4
Temperature, K	Mole fraction of dipropyl ether	Mole fraction of propan-1-ol	uncertainty	Mole fraction of propan-1-ol	uncertainty	Mole fraction of dipropyl ether	uncertainty
359.12	0.45	0.496	0.015	0.603	0.015	0.378	
359.19	0.239	0.705	0.009	0.71	0.011	0.265	
359.55	0.301	0.609	0.012	0.676	0.012	0.293	
359.78	0.406	0.505	0.015	0.62	0.014	0.352	
360.07	0.196	0.71	0.009	0.738	0.01	0.225	
360.54	0.511	0.399	0.012	0.56	0.016	0.415	
360.98	0.665	0.287	0.009	0.479	0.018	0.506	
361.37	0.093	0.812	0.006	0.82	0.007	0.134	
361.68	0.613	0.293	0.009	0.494	0.018	0.482	
361.82	0.314	0.489	0.015	0.656	0.013	0.292	
362.01	0.047	0.901	0.003	0.882	0.005	0.083	
362.04	0.201	0.598	0.013	0.726	0.01	0.213	
363.08	0.097	0.712	0.009	0.804	0.007	0.123	
363.58	0.709	0.194	0.006	0.403	0.015	0.576	
364.12	0.204	0.503	0.015	0.71	0.011	0.209	
364.33	0.461	0.307	0.01	0.543	0.017	0.403	
364.57	0.309	0.395	0.012	0.635	0.014	0.291	
365.24	0.548	0.232	0.007	0.469	0.018	0.481	
365.28	0.056	0.652	0.011	0.825	0.007	0.074	
365.53	0.415	0.29	0.009	0.55	0.017	0.38	
366.4	0.197	0.412	0.013	0.693	0.012	0.204	
366.54	0.1	0.515	0.015	0.77	0.009	0.115	
366.73	0.808	0.092	0.003	0.257	0.01	0.723	
367.1	0.303	0.306	0.01	0.605	0.015	0.3	
367.65	0.516	0.186	0.006	0.44	0.016	0.492	
367.91	0.909	0.042	0.002	0.144	0.005	0.847	
368.15	0.677	0.116	0.004	0.316	0.012	0.64	
368.98	0.41	0.197	0.006	0.487	0.018	0.416	
369.19	0.059	0.45	0.014	0.785	0.008	0.072	
369.65	0.211	0.295	0.009	0.638	0.014	0.229	
370.92	0.613	0.09	0.003	0.282	0.011	0.645	
371.28	0.756	0.04	0.002	0.154	0.006	0.796	
371.67	0.312	0.193	0.006	0.515	0.018	0.352	
372.65	0.105	0.296	0.009	0.697	0.011	0.129	
374.29	0.204	0.199	0.006	0.562	0.016	0.252	
375.08	0.56	0.045	0.002	0.192	0.007	0.696	
375.21	0.407	0.097	0.003	0.337	0.013	0.512	
375.85	0.06	0.239	0.007	0.684	0.012	0.083	
379.69	0.362	0.058	0.003	0.258	0.01	0.537	
380.22	0.221	0.104	0.004	0.408	0.015	0.335	
387.74	0.085	0.082	0.003	0.41	0.015	0.167	
