Measured thermophysical data. Solubilities of cinnamic acid, phenoxyacetic acid and 4-methoxyphenylacetic acid in supercritical carbon dioxide
Source: Fluid Phase Equilib., 2009, 10.1016/j.fluid.2008.09.009
Compound 1: carbon dioxide, CO2, InChI=1S/CO2/c2-1-3, purity 99.8%
Compound 2: 3-phenyl-2-propenoic acid, C9H8O2, InChI=1S/C9H8O2/c10-9(11)7-6-8-4-2-1-3-5-8/h1-7H,(H,10,11), purity 99%
Compound 3: phenoxyacetic acid, C8H8O3, InChI=1S/C8H8O3/c9-8(10)6-11-7-4-2-1-3-5-7/h1-5H,6H2,(H,9,10), purity 99%
Compound 4: (4-methoxyphenyl)ethanoic acid, C9H10O3, InChI=1S/C9H10O3/c1-12-8-4-2-7(3-5-8)6-9(10)11/h2-5H,6H2,1H3,(H,10,11), purity 99%

System: carbon dioxide + 3-phenyl-2-propenoic acid; phases: Fluid (supercritical or subcritical phases), Crystal
Property: Mole fraction of 3-phenyl-2-propenoic acid (Fluid (supercritical or subcritical phases)); method: UV-vis Spectrometer
Temperature, K	Pressure, kPa	Mole fraction of 3-phenyl-2-propenoic acid	uncertainty
308.2	14910	0.000123	1.2e-05
308.2	16850	0.000178	1.8e-05
308.2	18990	0.0002	2e-05
308.2	20990	0.00024	2.4e-05
308.2	23120	0.000247	2.5e-05
318.2	12300	4.1e-05	4e-06
318.2	13750	7.9e-05	8e-06
318.2	15170	0.000119	1.2e-05
318.2	16780	0.000179	1.8e-05
318.2	18710	0.00022	2.2e-05
318.2	20850	0.000277	2.8e-05
318.2	23050	0.000358	3.6e-05
328.2	12580	3.5e-05	4e-06
328.2	14710	9.5e-05	1e-05
328.2	16850	0.000181	1.8e-05
328.2	18510	0.000238	2.4e-05
328.2	20090	0.000294	3e-05
328.2	21880	0.000356	3.6e-05
328.2	23610	0.000425	4.3e-05

System: phenoxyacetic acid + carbon dioxide; phases: Fluid (supercritical or subcritical phases), Crystal
Property: Mole fraction of carbon dioxide (Fluid (supercritical or subcritical phases)); method: UV-vis Spectrometer
Temperature, K	Pressure, kPa	Mole fraction of carbon dioxide	uncertainty
308.2	11610	5.1e-05	5e-06
308.2	14300	9.9e-05	1e-05
308.2	15680	0.000137	1.4e-05
308.2	17750	0.000159	1.6e-05
308.2	19260	0.000208	2.1e-05
308.2	21130	0.000225	2.3e-05
308.2	23610	0.000278	2.8e-05
318.2	12650	4.7e-05	5e-06
318.2	14030	8.8e-05	9e-06
318.2	15610	0.000133	1.3e-05
318.2	17330	0.000187	1.9e-05
318.2	18850	0.000251	2.5e-05
318.2	20300	0.000309	3.1e-05
318.2	21540	0.000383	3.8e-05
318.2	23060	0.000417	4.2e-05
328.2	14230	6.1e-05	6e-06
328.2	15470	9.8e-05	1e-05
328.2	17130	0.000161	1.6e-05
328.2	18990	0.000294	3e-05
328.2	20500	0.000417	4.2e-05
328.2	22090	0.000517	5.2e-05
328.2	23470	0.000634	6.4e-05

System: (4-methoxyphenyl)ethanoic acid + carbon dioxide; phases: Fluid (supercritical or subcritical phases), Crystal
Property: Mole fraction of carbon dioxide (Fluid (supercritical or subcritical phases)); method: UV-vis Spectrometer
Temperature, K	Pressure, kPa	Mole fraction of carbon dioxide	uncertainty
308.2	12370	0.000115	1.2e-05
308.2	14090	0.000155	1.6e-05
308.2	15680	0.000222	2.2e-05
308.2	17440	0.000254	2.5e-05
308.2	19260	0.000284	2.9e-05
308.2	20830	0.000325	3.3e-05
308.2	22430	0.000346	3.5e-05
318.2	12580	0.000106	1.1e-05
318.2	14160	0.000181	1.8e-05
318.2	15020	0.000215	2.2e-05
318.2	16610	0.000267	2.7e-05
318.2	18440	0.000351	3.5e-05
318.2	20020	0.000452	4.5e-05
318.2	22020	0.000503	5.1e-05
328.2	11750	5.7e-05	7e-06
328.2	13400	0.000168	1.7e-05
328.2	15020	0.000258	2.6e-05
328.2	16580	0.000356	3.6e-05
328.2	18020	0.000486	4.9e-05
328.2	19540	0.000583	5.9e-05
328.2	20920	0.000674	6.8e-05
328.2	22230	0.000792	8e-05
