Measured thermophysical data. Thermodynamic study of the solubility of ibuprofen and naproxen in some ethanol + propylene glycol mixtures
Source: Fluid Phase Equilib., 2007, 10.1016/j.fluid.2007.07.076
Compound 1: ibuprofen, C13H18O2, InChI=1S/C13H18O2/c1-9(2)8-11-4-6-12(7-5-11)10(3)13(14)15/h4-7,9-10H,8H2,1-3H3,(H,14,15)
Compound 2: (S)-(+)-naproxen, C14H14O3, InChI=1S/C14H14O3/c1-9(14(15)16)10-3-4-12-8-13(17-2)6-5-11(12)7-10/h3-9H,1-2H3,(H,15,16)/t9-/m0/s1
Compound 3: ethanol, C2H6O, InChI=1S/C2H6O/c1-2-3/h3H,2H2,1H3
Compound 4: 1,2-propanediol, C3H8O2, InChI=1S/C3H8O2/c1-3(5)2-4/h3-5H,2H2,1H3

System: 1,2-propanediol + ethanol + ibuprofen; phases: Liquid, Crystal
Fixed: Pressure, kPa = 101.3
Property: Mole fraction of ibuprofen (Liquid); method: Index of refraction calibration data
Temperature, K	Solvent: Mass fraction of ethanol	Mole fraction of ibuprofen	uncertainty
293.15	0.2	0.117	0.02
293.15	0.4	0.16	0.02
293.15	0.6	0.184	0.02
293.15	0.8	0.202	0.02
298.15	0.2	0.147	0.02
298.15	0.4	0.192	0.02
298.15	0.6	0.209	0.02
298.15	0.8	0.233	0.02
303.15	0.2	0.183	0.02
303.15	0.4	0.231	0.02
303.15	0.6	0.25	0.02
303.15	0.8	0.268	0.02
308.15	0.2	0.23	0.02
308.15	0.4	0.276	0.02
308.15	0.6	0.29	0.02
308.15	0.8	0.316	0.021
313.15	0.2	0.26	0.02
313.15	0.4	0.31	0.021
313.15	0.6	0.337	0.021
313.15	0.8	0.363	0.022

System: 1,2-propanediol + ethanol + (S)-(+)-naproxen; phases: Liquid, Crystal
Fixed: Pressure, kPa = 101.3
Property: Mole fraction of (S)-(+)-naproxen (Liquid); method: Index of refraction calibration data
Temperature, K	Solvent: Mass fraction of ethanol	Mole fraction of (S)-(+)-naproxen	uncertainty
293.15	0.2	0.00848	0.0014
293.15	0.4	0.0104	0.0014
293.15	0.6	0.0117	0.0014
293.15	0.8	0.0125	0.0014
298.15	0.2	0.00986	0.0014
298.15	0.4	0.0126	0.0014
298.15	0.6	0.0141	0.0014
298.15	0.8	0.0149	0.0014
303.15	0.2	0.0125	0.0014
303.15	0.4	0.0159	0.0014
303.15	0.6	0.0179	0.0014
303.15	0.8	0.0199	0.0014
308.15	0.2	0.0149	0.0014
308.15	0.4	0.0187	0.0014
308.15	0.6	0.0207	0.0014
308.15	0.8	0.0221	0.0014
313.15	0.2	0.0179	0.0014
313.15	0.4	0.0231	0.0014
313.15	0.6	0.0271	0.0014
313.15	0.8	0.0293	0.0014
