Measured thermophysical data. Densities, surface tensions, and isobaric vapor-liquid equilibria for the mixtures of 2-propanol, water, and 1,2-propanediol
Source: Fluid Phase Equilib., 2015, 10.1016/j.fluid.2014.12.040
Compound 1: propan-2-ol, C3H8O, InChI=1S/C3H8O/c1-3(2)4/h3-4H,1-2H3, purity 99.8%
Compound 2: 1,2-propanediol, C3H8O2, InChI=1S/C3H8O2/c1-3(5)2-4/h3-5H,2H2,1H3, purity 99.5%
Compound 3: water, H2O, InChI=1S/H2O/h1H2, purity 99.9%

System: propan-2-ol; phases: Liquid
Fixed: Pressure, kPa = 100
Property: Mass density, kg/m3 (Liquid); method: Vibrating tube method
Temperature, K	Mass density, kg/m3	uncertainty
298.15	781.18	0.12
308.15	772.32	0.12
318.15	763.61	0.13
328.15	754.84	0.13

System: propan-2-ol; phases: Liquid, Air at 1 atmosphere
Property: Surface tension liquid-gas, N/m (Liquid); method: Wilhelmy-plate method
Temperature, K	Surface tension liquid-gas, N/m	uncertainty
298.15	0.02085	5e-05
308.15	0.0201	5e-05
318.15	0.0194	5e-05
328.15	0.01875	5e-05

System: 1,2-propanediol; phases: Liquid
Fixed: Pressure, kPa = 100
Property: Mass density, kg/m3 (Liquid); method: Vibrating tube method
Temperature, K	Mass density, kg/m3	uncertainty
298.15	1032.69	0.05
308.15	1025.21	0.05
318.15	1017.51	0.04
328.15	1009.78	0.04

System: 1,2-propanediol; phases: Liquid, Air at 1 atmosphere
Property: Surface tension liquid-gas, N/m (Liquid); method: Wilhelmy-plate method
Temperature, K	Surface tension liquid-gas, N/m	uncertainty
298.15	0.03574	0.0002
308.15	0.03535	0.0002
318.15	0.03496	0.0002
328.15	0.0346	0.0002

System: water; phases: Liquid
Fixed: Pressure, kPa = 100
Property: Mass density, kg/m3 (Liquid); method: Vibrating tube method
Temperature, K	Mass density, kg/m3	uncertainty
298.15	997.05	0.04
308.15	994.03	0.04
318.15	990.16	0.04
328.15	985.66	0.04

System: water; phases: Liquid, Air at 1 atmosphere
Property: Surface tension liquid-gas, N/m (Liquid); method: Wilhelmy-plate method
Temperature, K	Surface tension liquid-gas, N/m	uncertainty
298.15	0.07203	0.0002
308.15	0.0703	0.0002
318.15	0.0687	0.0002
328.15	0.0669	0.0002

System: 1,2-propanediol + propan-2-ol; phases: Liquid
Fixed: Pressure, kPa = 100
Property: Mass density, kg/m3 (Liquid); method: Vibrating tube method
Temperature, K	Mole fraction of propan-2-ol	Mass density, kg/m3	uncertainty
298.15	0	1032.69	0.05
298.15	0.05	1020.3	0.07
298.15	0.1	1007.84	0.07
298.15	0.15	995.3	0.06
298.15	0.2	982.74	0.07
298.15	0.25	970.17	0.07
298.15	0.3	957.54	0.07
298.15	0.35	944.87	0.08
298.15	0.4	932.21	0.08
298.15	0.45	919.52	0.08
298.15	0.5	906.84	0.09
298.15	0.55	894.16	0.09
298.15	0.6	881.5	0.1
298.15	0.65	868.82	0.1
298.15	0.7	856.16	0.1
298.15	0.75	843.49	0.11
298.15	0.8	830.89	0.11
298.15	0.85	818.33	0.12
298.15	0.9	805.84	0.12
298.15	0.95	793.45	0.12
298.15	1	781.18	0.12
308.15	0	1025.21	0.05
308.15	0.05	1012.75	0.07
308.15	0.1	1000.22	0.06
308.15	0.15	987.63	0.07
308.15	0.2	974.98	0.07
308.15	0.25	962.34	0.07
308.15	0.3	949.69	0.07
308.15	0.35	936.95	0.08
308.15	0.4	924.2	0.08
308.15	0.45	911.47	0.09
308.15	0.5	898.7	0.09
308.15	0.55	885.97	0.09
308.15	0.6	873.25	0.1
308.15	0.65	860.56	0.1
308.15	0.7	847.8	0.11
308.15	0.75	835.09	0.11
308.15	0.8	822.4	0.12
308.15	0.85	809.75	0.12
308.15	0.9	797.18	0.12
308.15	0.95	784.7	0.13
308.15	1	772.32	0.12
318.15	0	1017.51	0.04
318.15	0.05	1005.08	0.06
318.15	0.1	992.51	0.07
318.15	0.15	979.84	0.07
318.15	0.2	967.11	0.07
318.15	0.25	954.39	0.07
318.15	0.3	941.69	0.08
318.15	0.35	928.9	0.08
318.15	0.4	916.09	0.08
318.15	0.45	903.3	0.09
318.15	0.5	890.5	0.09
318.15	0.55	877.7	0.1
318.15	0.6	865	0.1
318.15	0.65	852.29	0.1
318.15	0.7	839.59	0.11
318.15	0.75	826.8	0.11
318.15	0.8	813.99	0.12
318.15	0.85	801.22	0.12
318.15	0.9	788.63	0.13
318.15	0.95	776.1	0.13
318.15	1	763.61	0.13
328.15	0	1009.78	0.04
328.15	0.05	997.4	0.06
328.15	0.1	984.7	0.07
328.15	0.15	971.99	0.07
328.15	0.2	959.2	0.07
328.15	0.25	946.41	0.08
328.15	0.3	933.61	0.08
328.15	0.35	920.73	0.08
328.15	0.4	907.91	0.09
328.15	0.45	895.1	0.09
328.15	0.5	882.26	0.1
328.15	0.55	869.44	0.1
328.15	0.6	856.69	0.1
328.15	0.65	843.93	0.11
328.15	0.7	831.21	0.11
328.15	0.75	818.53	0.12
328.15	0.8	805.71	0.12
328.15	0.85	792.81	0.13
328.15	0.9	780.09	0.13
328.15	0.95	767.47	0.13
328.15	1	754.84	0.13

System: 1,2-propanediol + propan-2-ol; phases: Liquid, Air at 1 atmosphere
Property: Surface tension liquid-gas, N/m (Liquid); method: Wilhelmy-plate method
Temperature, K	Mole fraction of propan-2-ol	Surface tension liquid-gas, N/m	uncertainty
298.15	0	0.03574	0.0002
298.15	0.05	0.03286	0.0002
298.15	0.1	0.03127	0.0002
298.15	0.15	0.0301	0.0002
298.15	0.2	0.02909	0.0002
298.15	0.25	0.02821	0.0002
298.15	0.3	0.02743	0.0002
298.15	0.35	0.02672	0.0002
298.15	0.4	0.02606	0.0002
298.15	0.45	0.02543	0.0002
298.15	0.5	0.02489	0.0002
298.15	0.55	0.02439	0.0002
298.15	0.6	0.02389	0.0002
298.15	0.65	0.02343	0.0002
298.15	0.7	0.02299	0.0002
298.15	0.75	0.02258	0.0002
298.15	0.8	0.0222	0.0002
298.15	0.85	0.02182	0.0002
298.15	0.9	0.02147	0.0002
298.15	0.95	0.02112	0.0002
298.15	1	0.02085	0.0002
308.15	0	0.03535	0.0002
308.15	0.05	0.03256	0.0002
308.15	0.1	0.03098	0.0002
308.15	0.15	0.02977	0.0002
308.15	0.2	0.02874	0.0002
308.15	0.25	0.02785	0.0002
308.15	0.3	0.02704	0.0002
308.15	0.35	0.02631	0.0002
308.15	0.4	0.02564	0.0002
308.15	0.45	0.02501	0.0002
308.15	0.5	0.02447	0.0002
308.15	0.55	0.02394	0.0002
308.15	0.6	0.02344	0.0002
308.15	0.65	0.02295	0.0002
308.15	0.7	0.02249	0.0002
308.15	0.75	0.02204	0.0002
308.15	0.8	0.02163	0.0002
308.15	0.85	0.02121	0.0002
308.15	0.9	0.02082	0.0002
308.15	0.95	0.02043	0.0002
308.15	1	0.0201	0.0002
318.15	0	0.03496	0.0002
318.15	0.05	0.03235	0.0002
318.15	0.1	0.03074	0.0002
318.15	0.15	0.02948	0.0002
318.15	0.2	0.02842	0.0002
318.15	0.25	0.02751	0.0002
318.15	0.3	0.02668	0.0002
318.15	0.35	0.02594	0.0002
318.15	0.4	0.02525	0.0002
318.15	0.45	0.02464	0.0002
318.15	0.5	0.02405	0.0002
318.15	0.55	0.02352	0.0002
318.15	0.6	0.02301	0.0002
318.15	0.65	0.02251	0.0002
318.15	0.7	0.02203	0.0002
318.15	0.75	0.02156	0.0002
318.15	0.8	0.02111	0.0002
318.15	0.85	0.02066	0.0002
318.15	0.9	0.02023	0.0002
318.15	0.95	0.0198	0.0002
318.15	1	0.0194	0.0002
328.15	0	0.0346	0.0002
328.15	0.05	0.03215	0.0002
328.15	0.1	0.03054	0.0002
328.15	0.15	0.02926	0.0002
328.15	0.2	0.02818	0.0002
328.15	0.25	0.02725	0.0002
328.15	0.3	0.0264	0.0002
328.15	0.35	0.02564	0.0002
328.15	0.4	0.02493	0.0002
328.15	0.45	0.0243	0.0002
328.15	0.5	0.02371	0.0002
328.15	0.55	0.02316	0.0002
328.15	0.6	0.02264	0.0002
328.15	0.65	0.02212	0.0002
328.15	0.7	0.02162	0.0002
328.15	0.75	0.02113	0.0002
328.15	0.8	0.02065	0.0002
328.15	0.85	0.02016	0.0002
328.15	0.9	0.01968	0.0002
328.15	0.95	0.01921	0.0002
328.15	1	0.01875	0.0002

System: 1,2-propanediol + water; phases: Liquid
Fixed: Pressure, kPa = 100
Property: Mass density, kg/m3 (Liquid); method: Vibrating tube method
Temperature, K	Mole fraction of 1,2-propanediol	Mass density, kg/m3	uncertainty
298.15	0	997.05	0.04
298.15	0.05	1011.79	0.07
298.15	0.1	1022.73	0.06
298.15	0.15	1030.33	0.05
298.15	0.2	1035.27	0.05
298.15	0.25	1038.27	0.05
298.15	0.3	1039.85	0.05
298.15	0.35	1040.55	0.05
298.15	0.4	1040.6	0.05
298.15	0.45	1040.28	0.05
298.15	0.5	1039.83	0.05
298.15	0.55	1039.24	0.05
298.15	0.6	1038.53	0.05
298.15	0.65	1037.84	0.05
298.15	0.7	1037.09	0.05
298.15	0.75	1036.33	0.05
298.15	0.8	1035.57	0.05
298.15	0.85	1034.81	0.05
298.15	0.9	1034.08	0.05
298.15	0.95	1033.35	0.05
298.15	1	1032.69	0.05
308.15	0	994.03	0.04
308.15	0.05	1007.53	0.06
308.15	0.1	1017.48	0.05
308.15	0.15	1024.23	0.05
308.15	0.2	1028.47	0.05
308.15	0.25	1031.17	0.05
308.15	0.3	1032.55	0.05
308.15	0.35	1033.05	0.05
308.15	0.4	1033.02	0.05
308.15	0.45	1032.76	0.05
308.15	0.5	1032.3	0.05
308.15	0.55	1031.7	0.05
308.15	0.6	1031.03	0.05
308.15	0.65	1030.31	0.05
308.15	0.7	1029.56	0.05
308.15	0.75	1028.81	0.05
308.15	0.8	1028.06	0.05
308.15	0.85	1027.32	0.05
308.15	0.9	1026.59	0.05
308.15	0.95	1025.88	0.05
308.15	1	1025.21	0.05
318.15	0	990.16	0.04
318.15	0.05	1002.61	0.06
318.15	0.1	1011.69	0.05
318.15	0.15	1017.73	0.05
318.15	0.2	1021.65	0.05
318.15	0.25	1023.85	0.05
318.15	0.3	1025.01	0.05
318.15	0.35	1025.42	0.05
318.15	0.4	1025.34	0.05
318.15	0.45	1025.05	0.05
318.15	0.5	1024.54	0.05
318.15	0.55	1023.93	0.05
318.15	0.6	1023.29	0.05
318.15	0.65	1022.58	0.05
318.15	0.7	1021.87	0.05
318.15	0.75	1021.11	0.05
318.15	0.8	1020.37	0.05
318.15	0.85	1019.61	0.05
318.15	0.9	1018.9	0.05
318.15	0.95	1018.19	0.04
318.15	1	1017.51	0.04
328.15	0	985.66	0.04
328.15	0.05	997.16	0.06
328.15	0.1	1005.39	0.05
328.15	0.15	1010.88	0.05
328.15	0.2	1014.32	0.05
328.15	0.25	1016.27	0.04
328.15	0.3	1017.25	0.04
328.15	0.35	1017.54	0.04
328.15	0.4	1017.47	0.04
328.15	0.45	1017.1	0.04
328.15	0.5	1016.59	0.04
328.15	0.55	1016	0.04
328.15	0.6	1015.39	0.04
328.15	0.65	1014.69	0.04
328.15	0.7	1014	0.04
328.15	0.75	1013.3	0.04
328.15	0.8	1012.54	0.04
328.15	0.85	1011.8	0.04
328.15	0.9	1011.06	0.04
328.15	0.95	1010.37	0.04
328.15	1	1009.78	0.04

System: 1,2-propanediol + water; phases: Liquid, Air at 1 atmosphere
Property: Surface tension liquid-gas, N/m (Liquid); method: Wilhelmy-plate method
Temperature, K	Mole fraction of 1,2-propanediol	Surface tension liquid-gas, N/m	uncertainty
298.15	0	0.07203	0.0002
298.15	0.05	0.05618	0.00021
298.15	0.1	0.05094	0.0002
298.15	0.15	0.04741	0.0002
298.15	0.2	0.04519	0.0002
298.15	0.25	0.04364	0.0002
298.15	0.3	0.0426	0.0002
298.15	0.35	0.04143	0.0002
298.15	0.4	0.04047	0.0002
298.15	0.45	0.03944	0.0002
298.15	0.5	0.03876	0.0002
298.15	0.55	0.03795	0.0002
298.15	0.6	0.0374	0.0002
298.15	0.65	0.03698	0.0002
298.15	0.7	0.0368	0.0002
298.15	0.75	0.03662	0.0002
298.15	0.8	0.03644	0.0002
298.15	0.85	0.03626	0.0002
298.15	0.9	0.03608	0.0002
298.15	0.95	0.0359	0.0002
298.15	1	0.03574	0.0002
308.15	0	0.0703	0.0002
308.15	0.05	0.05493	0.00021
308.15	0.1	0.0499	0.0002
308.15	0.15	0.04653	0.0002
308.15	0.2	0.04436	0.0002
308.15	0.25	0.04289	0.0002
308.15	0.3	0.04192	0.0002
308.15	0.35	0.04086	0.0002
308.15	0.4	0.03978	0.0002
308.15	0.45	0.03889	0.0002
308.15	0.5	0.03827	0.0002
308.15	0.55	0.0375	0.0002
308.15	0.6	0.03694	0.0002
308.15	0.65	0.03657	0.0002
308.15	0.7	0.03635	0.0002
308.15	0.75	0.03624	0.0002
308.15	0.8	0.0361	0.0002
308.15	0.85	0.03594	0.0002
308.15	0.9	0.03576	0.0002
308.15	0.95	0.03552	0.0002
308.15	1	0.03535	0.0002
318.15	0	0.0687	0.0002
318.15	0.05	0.05389	0.00021
318.15	0.1	0.0489	0.0002
318.15	0.15	0.04571	0.0002
318.15	0.2	0.04345	0.0002
318.15	0.25	0.04215	0.0002
318.15	0.3	0.04119	0.0002
318.15	0.35	0.04019	0.0002
318.15	0.4	0.03924	0.0002
318.15	0.45	0.03836	0.0002
318.15	0.5	0.03773	0.0002
318.15	0.55	0.03707	0.0002
318.15	0.6	0.03663	0.0002
318.15	0.65	0.03615	0.0002
318.15	0.7	0.03589	0.0002
318.15	0.75	0.03579	0.0002
318.15	0.8	0.03566	0.0002
318.15	0.85	0.03552	0.0002
318.15	0.9	0.0354	0.0002
318.15	0.95	0.03514	0.0002
318.15	1	0.03496	0.0002
328.15	0	0.0669	0.0002
328.15	0.05	0.0526	0.00021
328.15	0.1	0.04783	0.0002
328.15	0.15	0.04466	0.0002
328.15	0.2	0.04252	0.0002
328.15	0.25	0.04117	0.0002
328.15	0.3	0.04038	0.0002
328.15	0.35	0.03949	0.0002
328.15	0.4	0.03857	0.0002
328.15	0.45	0.0378	0.0002
328.15	0.5	0.03719	0.0002
328.15	0.55	0.03655	0.0002
328.15	0.6	0.03615	0.0002
328.15	0.65	0.03575	0.0002
328.15	0.7	0.03553	0.0002
328.15	0.75	0.03532	0.0002
328.15	0.8	0.03517	0.0002
328.15	0.85	0.03504	0.0002
328.15	0.9	0.03488	0.0002
328.15	0.95	0.03475	0.0002
328.15	1	0.0346	0.0002

System: 1,2-propanediol + propan-2-ol + water; phases: Liquid
Fixed: Pressure, kPa = 100
Fixed: Temperature, K = 298.15
Property: Mass density, kg/m3 (Liquid); method: Vibrating tube method
Mole fraction of propan-2-ol	Mole fraction of 1,2-propanediol	Mass density, kg/m3	uncertainty
0.05	0.9001	1021.82	0.08
0.05	0.8	1024.43	0.08
0.05	0.7001	1025.33	0.08
0.0499	0.6	1024.51	0.08
0.0499	0.5	1022.04	0.08
0.05	0.4	1017.92	0.08
0.05	0.3	1012.34	0.08
0.0499	0.2	1004.22	0.09
0.05	0.1	992.01	0.09
0.0499	0.05	983.55	0.1
0.1	0.85	1008.79	0.08
0.0999	0.75	1009.91	0.07
0.1	0.6501	1009.41	0.07
0.0999	0.55	1007.11	0.07
0.0999	0.45	1002.91	0.08
0.1	0.3501	997.11	0.08
0.1	0.2501	989.31	0.08
0.1	0.15	978.32	0.09
0.1	0.05	961.91	0.1
0.2	0.75	982.61	0.07
0.2	0.65	981.01	0.07
0.1999	0.55	977.48	0.07
0.2	0.45	971.91	0.08
0.1999	0.35	964.55	0.08
0.2	0.25	954.55	0.09
0.2	0.15	941.82	0.09
0.2	0.05	924.33	0.1
0.3001	0.6501	956.1	0.07
0.3	0.55	951.8	0.08
0.3	0.45	945.29	0.08
0.3	0.35	936.67	0.08
0.2999	0.25	925.44	0.09
0.3001	0.15	911.39	0.1
0.3	0.05	893.51	0.1
0.4	0.55	929.49	0.08
0.4	0.45	922.44	0.08
0.4001	0.3501	913.11	0.09
0.4001	0.25	901.27	0.09
0.4	0.15	886.81	0.1
0.4001	0.05	868.51	0.1
0.5	0.45	902.99	0.09
0.5	0.35	893.35	0.09
0.5	0.25	881.37	0.09
0.5001	0.15	866.5	0.1
0.5	0.05	848.46	0.11
0.6	0.3501	876.39	0.09
0.6	0.25	864.53	0.1
0.6001	0.15	850.1	0.1
0.6	0.05	832.42	0.11
0.7	0.25	850.07	0.1
0.7001	0.15	836.18	0.11
0.7	0.05	819.46	0.11
0.8	0.15	824.04	0.11
0.8	0.05	808.39	0.12
0.9	0.05	798.38	0.12

System: 1,2-propanediol + propan-2-ol + water; phases: Liquid, Air at 1 atmosphere
Fixed: Temperature, K = 298.15
Property: Surface tension liquid-gas, N/m (Liquid); method: Wilhelmy plate method
Mole fraction of propan-2-ol	Mole fraction of 1,2-propanediol	Surface tension liquid-gas, N/m	uncertainty
0.05	0.9001	0.03341	0.0002
0.05	0.8	0.03387	0.0002
0.05	0.7001	0.03404	0.0002
0.0499	0.6	0.03422	0.0002
0.0499	0.5	0.03455	0.0002
0.05	0.4	0.0351	0.0002
0.05	0.3	0.03598	0.0002
0.0499	0.2	0.03714	0.0002
0.05	0.1	0.0381	0.0002
0.0499	0.05	0.03768	0.0002
0.1	0.85	0.03182	0.0002
0.0999	0.75	0.03221	0.0002
0.1	0.6501	0.03211	0.0002
0.0999	0.55	0.03191	0.0002
0.0999	0.45	0.03179	0.0002
0.1	0.3501	0.03191	0.0002
0.1	0.2501	0.03229	0.0002
0.1	0.15	0.03264	0.0002
0.1	0.05	0.03146	0.0002
0.2	0.75	0.02957	0.0002
0.2	0.65	0.02931	0.0002
0.1999	0.55	0.02913	0.0002
0.2	0.45	0.02833	0.0002
0.1999	0.35	0.02764	0.0002
0.2	0.25	0.02719	0.0002
0.2	0.15	0.02696	0.0002
0.2	0.05	0.02618	0.0002
0.3001	0.6501	0.0279	0.0002
0.3	0.55	0.02784	0.0002
0.3	0.45	0.027	0.0002
0.3	0.35	0.02626	0.0002
0.2999	0.25	0.02493	0.0002
0.3001	0.15	0.02435	0.0002
0.3	0.05	0.02402	0.0002
0.4	0.55	0.02656	0.0002
0.4	0.45	0.02642	0.0002
0.4001	0.3501	0.02544	0.0002
0.4001	0.25	0.02425	0.0002
0.4	0.15	0.02334	0.0002
0.4001	0.05	0.023	0.0002
0.5	0.45	0.02544	0.0002
0.5	0.35	0.02527	0.0002
0.5	0.25	0.02426	0.0002
0.5001	0.15	0.02315	0.0002
0.5	0.05	0.02255	0.0002
0.6	0.3501	0.02443	0.0002
0.6	0.25	0.02421	0.0002
0.6001	0.15	0.02325	0.0002
0.6	0.05	0.02237	0.0002
0.7	0.25	0.02348	0.0002
0.7001	0.15	0.02319	0.0002
0.7	0.05	0.02225	0.0002
0.8	0.15	0.02258	0.0002
0.8	0.05	0.02206	0.0002
0.9	0.05	0.02171	0.0002

System: 1,2-propanediol + propan-2-ol + water; phases: Liquid, Gas
Fixed: Pressure, kPa = 101.3
Property: Mole fraction of water (Liquid); method: Chromatography
Property: Mole fraction of water (Gas); method: Chromatography
Property: Mole fraction of propan-2-ol (Gas); method: Chromatography
Temperature, K	Mole fraction of propan-2-ol	Mole fraction of water	uncertainty	Mole fraction of water	uncertainty	Mole fraction of propan-2-ol	uncertainty
361.61	0.044	0.931	0.002	0.641	0.005	0.359	
358.16	0.093	0.88	0.002	0.537	0.006	0.463	
355.9	0.204	0.764	0.003	0.466	0.006	0.534	
355.46	0.307	0.653	0.003	0.451	0.006	0.549	
355.23	0.377	0.577	0.004	0.431	0.005	0.569	
354.88	0.494	0.459	0.004	0.383	0.005	0.617	
354.85	0.582	0.37	0.003	0.348	0.005	0.652	
354.91	0.613	0.337	0.003	0.331	0.005	0.669	
355	0.663	0.283	0.003	0.295	0.005	0.705	
355.13	0.7	0.242	0.003	0.266	0.005	0.734	
355.64	0.748	0.184	0.002	0.216	0.004	0.784	
356.14	0.79	0.137	0.002	0.169	0.004	0.831	
367.51	0.037	0.859	0.002	0.72	0.005	0.28	
362.9	0.079	0.814	0.002	0.606	0.005	0.394	
359.39	0.17	0.706	0.003	0.51	0.006	0.49	
358.72	0.252	0.616	0.003	0.471	0.006	0.529	
358.69	0.331	0.513	0.004	0.423	0.005	0.577	
358.87	0.409	0.415	0.004	0.375	0.005	0.625	
359.1	0.49	0.321	0.003	0.317	0.005	0.683	
359.72	0.556	0.245	0.003	0.259	0.005	0.741	
360.3	0.601	0.183	0.002	0.204	0.004	0.796	
360.75	0.636	0.136	0.002	0.162	0.004	0.838	
360.85	0.643	0.127	0.002	0.154	0.004	0.846	
361.15	0.666	0.1	0.002	0.125	0.004	0.875	
361.26	0.679	0.085	0.002	0.108	0.004	0.892	
361.64	0.7	0.052	0.002	0.07	0.004	0.93	
369.91	0.067	0.693	0.003	0.674	0.005	0.319	
366.86	0.131	0.593	0.004	0.552	0.006	0.441	
365.95	0.198	0.497	0.004	0.476	0.006	0.518	
365.56	0.269	0.411	0.004	0.409	0.005	0.585	
366.49	0.319	0.328	0.003	0.346	0.005	0.645	
367.41	0.365	0.247	0.003	0.278	0.005	0.711	
368.01	0.401	0.196	0.002	0.228	0.004	0.761	
368.83	0.45	0.128	0.002	0.155	0.004	0.83	
369.23	0.484	0.087	0.002	0.11	0.004	0.872	
369.84	0.516	0.041	0.002	0.054	0.004	0.926	
