Measured thermophysical data. Vapor pressure osmometry determination of vapor-liquid equilibria behavior of aqueous imidazolium-based ionic liquid + amino acid systems
Source: Fluid Phase Equilib., 2017, 10.1016/j.fluid.2017.05.019
Compound 1: 1-butyl-3-methylimidazolium chloride, C8H15ClN2, InChI=1S/C8H15N2.ClH/c1-3-4-5-10-7-6-9(2)8-10;/h6-8H,3-5H2,1-2H3;1H/q+1;/p-1, purity 98%
Compound 2: 1-hexyl-3-methylimidazolium chloride, C10H19ClN2, InChI=1S/C10H19N2.ClH/c1-3-4-5-6-7-12-9-8-11(2)10-12;/h8-10H,3-7H2,1-2H3;1H/q+1;/p-1
Compound 3: 1-butyl-3-methylimidazolium trifluoromethanesulfonate, C9H15F3N2O3S, InChI=1S/C8H15N2.CHF3O3S/c1-3-4-5-10-7-6-9(2)8-10;2-1(3,4)8(5,6)7/h6-8H,3-5H2,1-2H3;(H,5,6,7)/q+1;/p-1, purity 98%
Compound 4: 2-aminoacetic acid, C2H5NO2, InChI=1S/C2H5NO2/c3-1-2(4)5/h1,3H2,(H,4,5), purity 99.7%
Compound 5: L-serine, C3H7NO3, InChI=1S/C3H7NO3/c4-2(1-5)3(6)7/h2,5H,1,4H2,(H,6,7)/t2-/m0/s1, purity 99%
Compound 6: (S)-2-aminopropanoic acid, C3H7NO2, InChI=1S/C3H7NO2/c1-2(4)3(5)6/h2H,4H2,1H3,(H,5,6)/t2-/m0/s1, purity 99%
Compound 7: L-proline, C5H9NO2, InChI=1S/C5H9NO2/c7-5(8)4-2-1-3-6-4/h4,6H,1-3H2,(H,7,8)/t4-/m0/s1, purity 99%
Compound 8: water, H2O, InChI=1S/H2O/h1H2, purity 98%

System: 1-butyl-3-methylimidazolium chloride + water + 2-aminoacetic acid; phases: Liquid, Gas
Fixed: Temperature, K = 308.15
Fixed: Solvent: Molality, mol/kg of 1-butyl-3-methylimidazolium chloride = 1
Property: (Relative) activity of water (Liquid); method: commercial osmometer
Molality, mol/kg of 2-aminoacetic acid	(Relative) activity of water	uncertainty
0	0.9716	0.0387
0.1488	0.9676	0.0387
0.3156	0.9635	0.0387
0.4475	0.9602	0.0387
0.6048	0.9566	0.0387
0.7475	0.9535	0.0387
0.8752	0.9511	0.0387

System: 1-butyl-3-methylimidazolium chloride + water + L-serine; phases: Liquid, Gas
Fixed: Temperature, K = 308.15
Fixed: Solvent: Molality, mol/kg of 1-butyl-3-methylimidazolium chloride = 1
Property: (Relative) activity of water (Liquid); method: commercial osmometer
Molality, mol/kg of L-serine	(Relative) activity of water	uncertainty
0	0.9716	0.0387
0.1558	0.9676	0.0387
0.2997	0.964	0.0387
0.4603	0.9602	0.0387
0.6134	0.9568	0.0387
0.7482	0.9539	0.0387
0.8956	0.9512	0.0387

System: 1-butyl-3-methylimidazolium chloride + water + (S)-2-aminopropanoic acid; phases: Liquid, Gas
Fixed: Temperature, K = 308.15
Fixed: Solvent: Molality, mol/kg of 1-butyl-3-methylimidazolium chloride = 1
Property: (Relative) activity of water (Liquid); method: commercial osmometer
Molality, mol/kg of (S)-2-aminopropanoic acid	(Relative) activity of water	uncertainty
0	0.9716	0.0387
0.1524	0.9675	0.0387
0.3414	0.9629	0.0387
0.4664	0.9598	0.0387
0.6032	0.9566	0.0387
0.7464	0.9534	0.0387
0.88	0.9506	0.0387

System: 1-butyl-3-methylimidazolium chloride + water + L-proline; phases: Liquid, Gas
Fixed: Temperature, K = 308.15
Fixed: Solvent: Molality, mol/kg of 1-butyl-3-methylimidazolium chloride = 1
Property: (Relative) activity of water (Liquid); method: commercial osmometer
Molality, mol/kg of L-proline	(Relative) activity of water	uncertainty
0	0.9716	0.0387
0.1496	0.9683	0.0387
0.3111	0.9645	0.0387
0.4468	0.9614	0.0387
0.5921	0.958	0.0387
0.749	0.9546	0.0387
0.891	0.9512	0.0387

System: 1-hexyl-3-methylimidazolium chloride + water + 2-aminoacetic acid; phases: Liquid, Gas
Fixed: Temperature, K = 308.15
Fixed: Solvent: Molality, mol/kg of 1-hexyl-3-methylimidazolium chloride = 1
Property: (Relative) activity of water (Liquid); method: commercial osmometer
Molality, mol/kg of 2-aminoacetic acid	(Relative) activity of water	uncertainty
0	0.9739	0.0387
0.1495	0.9693	0.0387
0.2922	0.9654	0.0387
0.4514	0.9613	0.0387
0.5986	0.9574	0.0387
0.762	0.9539	0.0387
0.9003	0.9512	0.0387

System: 1-hexyl-3-methylimidazolium chloride + water + L-serine; phases: Liquid, Gas
Fixed: Temperature, K = 308.15
Fixed: Solvent: Molality, mol/kg of 1-hexyl-3-methylimidazolium chloride = 1
Property: (Relative) activity of water (Liquid); method: commercial osmometer
Molality, mol/kg of L-serine	(Relative) activity of water	uncertainty
0	0.9739	0.0387
0.1505	0.9693	0.0387
0.3054	0.9653	0.0387
0.4461	0.9618	0.0387
0.6031	0.9578	0.0387
0.7453	0.9548	0.0387
0.9017	0.9517	0.0387

System: 1-hexyl-3-methylimidazolium chloride + water + (S)-2-aminopropanoic acid; phases: Liquid, Gas
Fixed: Temperature, K = 308.15
Fixed: Solvent: Molality, mol/kg of 1-hexyl-3-methylimidazolium chloride = 1
Property: (Relative) activity of water (Liquid); method: commercial osmometer
Molality, mol/kg of (S)-2-aminopropanoic acid	(Relative) activity of water	uncertainty
0	0.9739	0.0387
0.1552	0.9693	0.0387
0.3127	0.9652	0.0387
0.4606	0.9612	0.0387
0.6062	0.9573	0.0387
0.7243	0.9545	0.0387
0.8974	0.9505	0.0387

System: 1-hexyl-3-methylimidazolium chloride + water + L-proline; phases: Liquid, Gas
Fixed: Temperature, K = 308.15
Fixed: Solvent: Molality, mol/kg of 1-hexyl-3-methylimidazolium chloride = 1
Property: (Relative) activity of water (Liquid); method: commercial osmometer
Molality, mol/kg of L-proline	(Relative) activity of water	uncertainty
0	0.9739	0.0387
0.149	0.9699	0.0387
0.3027	0.9659	0.0387
0.4716	0.9617	0.0387
0.6168	0.958	0.039
0.7093	0.9559	0.0387
0.8917	0.9518	0.0387

System: 1-butyl-3-methylimidazolium trifluoromethanesulfonate + water + 2-aminoacetic acid; phases: Liquid, Gas
Fixed: Temperature, K = 308.15
Fixed: Solvent: Molality, mol/kg of 1-butyl-3-methylimidazolium trifluoromethanesulfonate = 1
Property: (Relative) activity of water (Liquid); method: commercial osmometer
Molality, mol/kg of 2-aminoacetic acid	(Relative) activity of water	uncertainty
0	0.9834	0.0387
0.1721	0.9772	0.0387
0.2997	0.9733	0.0387
0.4401	0.9696	0.0387
0.6132	0.9653	0.0387
0.7504	0.9624	0.0387
0.9018	0.959	0.0387

System: 1-butyl-3-methylimidazolium trifluoromethanesulfonate + water + L-serine; phases: Liquid, Gas
Fixed: Temperature, K = 308.15
Fixed: Solvent: Molality, mol/kg of 1-butyl-3-methylimidazolium trifluoromethanesulfonate = 1
Property: (Relative) activity of water (Liquid); method: commercial osmometer
Molality, mol/kg of L-serine	(Relative) activity of water	uncertainty
0	0.9834	0.0387
0.149	0.9776	0.0387
0.2943	0.9736	0.0387
0.4512	0.9697	0.0387
0.6046	0.9659	0.0387
0.7363	0.9631	0.0387
0.9066	0.9596	0.0387

System: 1-butyl-3-methylimidazolium trifluoromethanesulfonate + water + (S)-2-aminopropanoic acid; phases: Liquid, Gas
Fixed: Temperature, K = 308.15
Fixed: Solvent: Molality, mol/kg of 1-butyl-3-methylimidazolium trifluoromethanesulfonate = 1
Property: (Relative) activity of water (Liquid); method: commercial osmometer
Molality, mol/kg of (S)-2-aminopropanoic acid	(Relative) activity of water	uncertainty
0	0.9834	0.0387
0.1404	0.9782	0.0387
0.3096	0.9734	0.0387
0.4362	0.97	0.0387
0.6045	0.9655	0.0387
0.7504	0.9622	0.0387
0.8892	0.9589	0.0387

System: 1-butyl-3-methylimidazolium trifluoromethanesulfonate + water + L-proline; phases: Liquid, Gas
Fixed: Temperature, K = 308.15
Fixed: Solvent: Molality, mol/kg of 1-butyl-3-methylimidazolium trifluoromethanesulfonate = 1
Property: (Relative) activity of water (Liquid); method: commercial osmometer
Molality, mol/kg of L-proline	(Relative) activity of water	uncertainty
0	0.9834	0.0387
0.15	0.9783	0.0387
0.2948	0.9744	0.0387
0.4473	0.9703	0.0387
0.6188	0.966	0.0387
0.7541	0.9628	0.0387
0.9109	0.9592	0.0387
