Measured thermophysical data. Experimental and theoretical surface tension deviations in the binary systems propyl propanoate + o-, m- and p-xylene at 298.15K
Source: Fluid Phase Equilib., 2005, 10.1016/j.fluid.2004.12.009
Compound 1: propyl propanoate, C6H12O2, InChI=1S/C6H12O2/c1-3-5-8-6(7)4-2/h3-5H2,1-2H3, purity 99%
Compound 2: 1,2-dimethylbenzene, C8H10, InChI=1S/C8H10/c1-7-5-3-4-6-8(7)2/h3-6H,1-2H3, purity 99%
Compound 3: 1,3-dimethylbenzene, C8H10, InChI=1S/C8H10/c1-7-4-3-5-8(2)6-7/h3-6H,1-2H3, purity 99%
Compound 4: 1,4-dimethylbenzene, C8H10, InChI=1S/C8H10/c1-7-3-5-8(2)6-4-7/h3-6H,1-2H3, purity 99%

System: propyl propanoate; phases: Liquid, Gas
Property: Surface tension liquid-gas, N/m (Liquid); method: Drop volume
Temperature, K	Surface tension liquid-gas, N/m	uncertainty
298.15	0.0241	0.00019

System: 1,2-dimethylbenzene; phases: Liquid, Gas
Property: Surface tension liquid-gas, N/m (Liquid); method: Drop volume
Temperature, K	Surface tension liquid-gas, N/m	uncertainty
298.15	0.02927	0.00021

System: 1,3-dimethylbenzene; phases: Liquid, Gas
Property: Surface tension liquid-gas, N/m (Liquid); method: Drop volume
Temperature, K	Surface tension liquid-gas, N/m	uncertainty
298.15	0.02803	0.00021

System: 1,4-dimethylbenzene; phases: Liquid, Gas
Property: Surface tension liquid-gas, N/m (Liquid); method: Drop volume
Temperature, K	Surface tension liquid-gas, N/m	uncertainty
298.15	0.0277	0.00021

System: 1,2-dimethylbenzene + propyl propanoate; phases: Liquid, Gas
Fixed: Temperature, K = 298.15
Property: Surface tension liquid-gas, N/m (Liquid); method: Drop volume
Mole fraction of propyl propanoate	Surface tension liquid-gas, N/m	uncertainty
0.0587	0.02888	0.00021
0.0915	0.02866	0.00021
0.1548	0.02827	0.00021
0.2236	0.02785	0.00021
0.2531	0.02768	0.00021
0.3216	0.0273	0.0002
0.3862	0.02695	0.0002
0.4212	0.02677	0.0002
0.4836	0.02645	0.0002
0.517	0.02629	0.0002
0.5814	0.02598	0.0002
0.6503	0.02564	0.0002
0.6829	0.02549	0.00019
0.7507	0.02517	0.00019
0.7823	0.02503	0.00019
0.8909	0.02454	0.00019
0.9636	0.02423	0.00019

System: propyl propanoate + 1,3-dimethylbenzene; phases: Liquid, Gas
Fixed: Temperature, K = 298.15
Property: Surface tension liquid-gas, N/m (Liquid); method: Drop volume
Mole fraction of propyl propanoate	Surface tension liquid-gas, N/m	uncertainty
0.0621	0.02769	0.00021
0.0989	0.0275	0.00021
0.1636	0.02719	0.0002
0.2293	0.02688	0.0002
0.2608	0.02674	0.0002
0.3264	0.02645	0.0002
0.4215	0.02607	0.0002
0.6132	0.02534	0.00019
0.7485	0.02486	0.00019
0.7827	0.02474	0.00019
0.8542	0.02452	0.00019
0.8896	0.02441	0.00019

System: propyl propanoate + 1,4-dimethylbenzene; phases: Liquid, Gas
Fixed: Temperature, K = 298.15
Property: Surface tension liquid-gas, N/m (Liquid); method: Drop volume
Mole fraction of propyl propanoate	Surface tension liquid-gas, N/m	uncertainty
0.061	0.02746	0.0002
0.0898	0.02735	0.0002
0.1545	0.02709	0.0002
0.2219	0.02682	0.0002
0.2558	0.02669	0.0002
0.3257	0.02642	0.0002
0.388	0.02618	0.0002
0.4204	0.02607	0.0002
0.4851	0.02583	0.0002
0.5211	0.02571	0.0002
0.5809	0.0255	0.00019
0.6209	0.02538	0.00019
0.6846	0.02517	0.00019
0.7187	0.02507	0.00019
0.7976	0.02482	0.00019
0.8562	0.02462	0.00019
0.8779	0.02456	0.00019
0.9544	0.02428	0.00019
