Measured thermophysical data. Liquid liquid equilibrium of ternary systems containing nicotine
Source: Fluid Phase Equilib., 2007, 10.1016/j.fluid.2007.02.016
Compound 1: (-)-3-(N-methylpyrrolidino)pyridine, C10H14N2, InChI=1S/C10H14N2/c1-12-7-3-5-10(12)9-4-2-6-11-8-9/h2,4,6,8,10H,3,5,7H2,1H3/t10-/m0/s1
Compound 2: cyclohexane, C6H12, InChI=1S/C6H12/c1-2-4-6-5-3-1/h1-6H2
Compound 3: butan-1-ol, C4H10O, InChI=1S/C4H10O/c1-2-3-4-5/h5H,2-4H2,1H3
Compound 4: water, H2O, InChI=1S/H2O/h1H2

System: (-)-3-(N-methylpyrrolidino)pyridine + cyclohexane + water; phases: Liquid mixture 1, Liquid mixture 2
Fixed: Pressure, kPa = 101
Property: Mole fraction of (-)-3-(N-methylpyrrolidino)pyridine (Liquid mixture 1); method: spectroscopy and titration
Property: Mole fraction of water (Liquid mixture 2); method: spectroscopy and titration
Property: Mole fraction of (-)-3-(N-methylpyrrolidino)pyridine (Liquid mixture 2); method: spectroscopy and titration
Temperature, K	Mole fraction of water	Mole fraction of (-)-3-(N-methylpyrrolidino)pyridine	uncertainty	Mole fraction of water	uncertainty	Mole fraction of (-)-3-(N-methylpyrrolidino)pyridine	uncertainty
298.15	0.9844	0.0096	0.0096	0.0307	0.01	0.0549	
298.15	0.9706	0.0263	0.01	0.0242	0.01	0.0855	
298.15	0.901	0.0963	0.01	0.0459	0.01	0.125	
298.15	0.8362	0.1476	0.01	0.0406	0.01	0.1292	
298.15	0.7693	0.2178	0.01	0.04	0.01	0.1382	
303.15	0.9854	0.0083	0.0083	0.0089	0.0089	0.0682	
303.15	0.9701	0.0232	0.01	0.0101	0.01	0.0949	
303.15	0.9557	0.0339	0.01	0.0107	0.01	0.1092	
303.15	0.9001	0.0903	0.01	0.0329	0.01	0.1378	
303.15	0.8179	0.1686	0.01	0.049	0.01	0.1812	
303.15	0.7813	0.2026	0.01	0.0596	0.01	0.2119	
313.15	0.9869	0.0055	0.0055	0.0313	0.01	0.0791	
313.15	0.9805	0.0138	0.01	0.041	0.01	0.1407	
313.15	0.972	0.0218	0.01	0.0576	0.01	0.1675	
313.15	0.9235	0.0725	0.01	0.0652	0.01	0.2101	
313.15	0.872	0.1249	0.01	0.091	0.01	0.2727	
313.15	0.8359	0.1594	0.01	0.1128	0.01	0.2889	

System: (-)-3-(N-methylpyrrolidino)pyridine + butan-1-ol + water; phases: Liquid mixture 1, Liquid mixture 2
Fixed: Pressure, kPa = 101
Property: Mole fraction of (-)-3-(N-methylpyrrolidino)pyridine (Liquid mixture 1); method: spectroscopy and titration
Property: Mole fraction of (-)-3-(N-methylpyrrolidino)pyridine (Liquid mixture 2); method: spectroscopy and titration
Property: Mole fraction of water (Liquid mixture 2); method: spectroscopy and titration
Temperature, K	Mole fraction of water	Mole fraction of (-)-3-(N-methylpyrrolidino)pyridine	uncertainty	Mole fraction of (-)-3-(N-methylpyrrolidino)pyridine	uncertainty	Mole fraction of water	uncertainty
298.15	0.9776	0.0014	0.0014	0.0473	0.01	0.5607	
298.15	0.992	0.0024	0.0024	0.062	0.01	0.616	
298.15	0.973	0.0039	0.0039	0.0746	0.01	0.6189	
298.15	0.9741	0.0056	0.0056	0.0862	0.01	0.6484	
298.15	0.9908	0.0082	0.0082	0.0923	0.01	0.7357	
298.15	0.9883	0.0107	0.01	0.0934	0.01	0.7622	
303.15	0.9725	0.0015	0.0015	0.0462	0.01	0.5821	
303.15	0.9919	0.0023	0.0023	0.0657	0.01	0.5918	
303.15	0.9671	0.0037	0.0037	0.0794	0.01	0.6252	
303.15	0.9525	0.0057	0.0057	0.0956	0.01	0.6678	
303.15	0.991	0.0074	0.0074	0.1077	0.01	0.7226	
303.15	0.9892	0.0086	0.0086	0.1113	0.01	0.7488	
313.15	0.9908	0.0011	0.0011	0.0448	0.01	0.5786	
313.15	0.9901	0.0018	0.0018	0.0688	0.01	0.6002	
313.15	0.9918	0.0025	0.0025	0.0789	0.01	0.6188	
313.15	0.9928	0.0036	0.0036	0.0936	0.01	0.6472	
313.15	0.9936	0.0055	0.0055	0.1133	0.01	0.6828	
313.15	0.9929	0.0067	0.0067	0.109	0.01	0.701	
