Measured thermophysical data. Vapor pressure of selected aliphatic alcohols by ebulliometry. Part 1
Source: Fluid Phase Equilib., 2010, 10.1016/j.fluid.2010.06.019
Compound 1: 2,2-dimethyl-1-propanol, C5H12O, InChI=1S/C5H12O/c1-5(2,3)4-6/h6H,4H2,1-3H3, purity 99%
Compound 2: hexan-1-ol, C6H14O, InChI=1S/C6H14O/c1-2-3-4-5-6-7/h7H,2-6H2,1H3, purity 98%
Compound 3: heptan-1-ol, C7H16O, InChI=1S/C7H16O/c1-2-3-4-5-6-7-8/h8H,2-7H2,1H3, purity 98%
Compound 4: octan-1-ol, C8H18O, InChI=1S/C8H18O/c1-2-3-4-5-6-7-8-9/h9H,2-8H2,1H3, purity 99%
Compound 5: 1-tetradecanol, C14H30O, InChI=1S/C14H30O/c1-2-3-4-5-6-7-8-9-10-11-12-13-14-15/h15H,2-14H2,1H3, purity 97%

System: 2,2-dimethyl-1-propanol; phases: Liquid, Gas
Property: Vapor or sublimation pressure, kPa (Liquid); method: Ebulliometric method (Recirculating still)
Temperature, K	Vapor or sublimation pressure, kPa	uncertainty
345.898	20.257	0.031
349.997	24.529	0.035
353.969	29.346	0.041
357.843	34.758	0.047
361.574	40.705	0.055
365.357	47.556	0.064
371.307	60.186	0.078
376.995	74.646	0.095
383.146	93.227	0.114
384.839	98.935	0.122

System: hexan-1-ol; phases: Liquid, Gas
Property: Vapor or sublimation pressure, kPa (Liquid); method: Ebulliometric method (Recirculating still)
Temperature, K	Vapor or sublimation pressure, kPa	uncertainty
366.67	8.323	0.015
372.64	11.058	0.017
377.563	13.869	0.02
381.801	16.772	0.024
381.806	16.773	0.024
386.174	20.257	0.028
390.774	24.536	0.033
390.783	24.536	0.033
395.227	29.354	0.039
395.234	29.354	0.039
399.57	34.769	0.045
403.729	40.703	0.052
407.976	47.573	0.061
414.612	60.205	0.074
420.993	74.692	0.091
427.853	93.194	0.111
427.902	93.258	0.112
429.521	98.118	0.117
429.538	98.164	0.117
431.85	105.464	0.124
432.25	106.75	0.125
432.323	106.981	0.126

System: heptan-1-ol; phases: Liquid, Gas
Property: Vapor or sublimation pressure, kPa (Liquid); method: Ebulliometric method (Recirculating still)
Temperature, K	Vapor or sublimation pressure, kPa	uncertainty
382.304	8.324	0.015
388.338	11.051	0.017
388.357	11.051	0.017
393.646	13.891	0.02
393.667	13.894	0.02
398.002	16.772	0.023
402.679	20.25	0.027
407.451	24.529	0.032
407.458	24.535	0.032
412.211	29.341	0.038
412.222	29.35	0.038
416.721	34.761	0.044
416.78	34.764	0.044
421.196	40.69	0.051
425.685	47.552	0.049
425.767	47.569	0.049
432.766	60.193	0.073
439.545	74.655	0.089
446.78	92.981	0.11
446.822	93.126	0.11
446.865	93.244	0.113
446.869	93.244	0.111
446.87	93.237	0.11
448.604	98.118	0.115
448.63	98.199	0.115
450.734	104.372	0.122
452.843	110.871	0.13
452.971	111.285	0.13

System: octan-1-ol; phases: Liquid, Gas
Property: Vapor or sublimation pressure, kPa (Liquid); method: Ebulliometric method (Recirculating still)
Temperature, K	Vapor or sublimation pressure, kPa	uncertainty
397.317	8.355	0.014
403.711	11.098	0.017
409.144	13.95	0.02
413.785	16.834	0.023
418.61	20.333	0.027
418.62	20.333	0.027
418.632	20.334	0.027
423.7	24.621	0.032
428.652	29.453	0.037
433.489	34.887	0.043
438.123	40.833	0.05
438.143	40.833	0.05
442.875	47.725	0.059
450.343	60.372	0.072
457.522	74.88	0.088
465.249	93.417	0.106
465.288	93.542	0.106

System: 1-tetradecanol; phases: Liquid, Gas
Property: Vapor or sublimation pressure, kPa (Liquid); method: Ebulliometric method (Recirculating still)
Temperature, K	Vapor or sublimation pressure, kPa	uncertainty
479.42	8.319	0.013
487.561	11.055	0.015
487.565	11.051	0.015
494.495	13.893	0.018
500.436	16.777	0.021
506.626	20.26	0.025
513.007	24.531	0.036
513.07	24.531	0.036
519.105	29.35	0.043
519.183	29.35	0.043
