Measured thermophysical data. Liquid-liquid equilibrium of 1-butanol + water +tri-n-butyl phosphate + ammonium chloride system
Source: Fluid Phase Equilib., 2014, 10.1016/j.fluid.2014.06.023
Compound 1: butan-1-ol, C4H10O, InChI=1S/C4H10O/c1-2-3-4-5/h5H,2-4H2,1H3, purity 99.5%
Compound 2: tributyl phosphate, C12H27O4P, InChI=1S/C12H27O4P/c1-4-7-10-14-17(13,15-11-8-5-2)16-12-9-6-3/h4-12H2,1-3H3, purity 99.5%
Compound 3: ammonium chloride (NH4Cl), ClH4N, InChI=1S/ClH.H3N/h1H;1H3, purity 98%
Compound 4: water, H2O, InChI=1S/H2O/h1H2, purity 99.9%

System: butan-1-ol; phases: Liquid
Property: Mass density, kg/m3 (Liquid); method: Pycnometric method
Temperature, K	Pressure, kPa	Mass density, kg/m3	uncertainty
293.15	101.325	810	12

System: butan-1-ol; phases: Liquid
Property: Refractive index (Na D-line) (Liquid); method: Standard Abbe refractometry
Temperature, K	Pressure, kPa	Refractive index (Na D-line)	uncertainty
293.15	101.325	1.3393	0.0007

System: tributyl phosphate; phases: Liquid
Property: Mass density, kg/m3 (Liquid); method: Pycnometric method
Temperature, K	Pressure, kPa	Mass density, kg/m3	uncertainty
293.15	101.325	976	12

System: tributyl phosphate; phases: Liquid
Property: Refractive index (Na D-line) (Liquid); method: Standard Abbe refractometry
Temperature, K	Pressure, kPa	Refractive index (Na D-line)	uncertainty
293.15	101.325	1.3989	0.0007

System: ammonium chloride (NH4Cl); phases: Crystal
Property: Mass density, kg/m3 (Crystal); method: Pycnometric method
Temperature, K	Pressure, kPa	Mass density, kg/m3	uncertainty
293.15	101.325	1527	12

System: ammonium chloride (NH4Cl); phases: Crystal
Property: Refractive index (Na D-line) (Crystal); method: Standard Abbe refractometry
Temperature, K	Pressure, kPa	Refractive index (Na D-line)	uncertainty
293.15	101.325	1.638	0.0008

System: water; phases: Liquid
Property: Mass density, kg/m3 (Liquid); method: Pycnometric method
Temperature, K	Pressure, kPa	Mass density, kg/m3	uncertainty
293.15	101.325	998	12

System: water; phases: Liquid
Property: Refractive index (Na D-line) (Liquid); method: Standard Abbe refractometry
Temperature, K	Pressure, kPa	Refractive index (Na D-line)	uncertainty
293.15	101.325	1.3328	0.0007

System: butan-1-ol + tributyl phosphate + water; phases: Liquid mixture 2, Liquid mixture 1
Fixed: Pressure, kPa = 101
Fixed: Temperature, K = 303.15
Property: Mass fraction of water (Liquid mixture 2); method: Karl Fischer Titration
Property: Mass fraction of water (Liquid mixture 1); method: Karl Fischer Titration
Property: Mass fraction of butan-1-ol (Liquid mixture 1); method: Karl Fischer Titration
Mass fraction of butan-1-ol	Mass fraction of water	uncertainty	Mass fraction of water	uncertainty	Mass fraction of butan-1-ol	uncertainty
0.086	0.914	0.006	0.16	0.007	0.753	
0.079	0.921	0.006	0.135	0.007	0.635	
0.07	0.929	0.006	0.12	0.007	0.522	
0.063	0.936	0.006	0.102	0.007	0.431	
0.047	0.952	0.006	0.084	0.007	0.279	
0.038	0.961	0.006	0.07	0.006	0.201	
0.03	0.969	0.006	0.07	0.006	0.156	
