Measured thermophysical data. Interface light-scattering on a methane-decane system in the near-critical region at 37.8 deg.C (100 deg.F)
Source: Fluid Phase Equilib., 2019, 10.1016/j.fluid.2018.12.016
Compound 1: methane, CH4, InChI=1S/CH4/h1H4, purity 99.995%
Compound 2: decane, C10H22, InChI=1S/C10H22/c1-3-5-7-9-10-8-6-4-2/h3-10H2,1-2H3, purity 99.8%

System: methane + decane; phases: Liquid, Gas
Property: Interfacial tension, N/m (Liquid); method: Surface laser light scattering (SLLS)
Temperature, K	Pressure, kPa	Interfacial tension, N/m	uncertainty
310.9743	34448.4	0.00015687	1.08e-06
310.9729	35149.95	8.112e-05	7.4e-07
310.9757	35498.3	4.752e-05	5e-07
310.9686	35795.3	2.47e-05	8.8e-07
310.9711	35856.55	1.978e-05	3.4e-07
311.121	35885.1	1.746e-05	3.2e-07
310.975	35946.1	1.4e-05	2e-07
310.9719	35989.1	1.122e-05	2.2e-07
310.9681	36092.11	5.19e-06	2.2e-07
310.9887	36150.84	2.584e-06	9.4e-08
310.9548	36187.2	9.02e-07	6e-08
310.959	36197.8	5.91e-07	3.6e-08
310.9781	36206.3	3.26e-07	5.6e-08
310.998	36212.84	1.5e-07	3.6e-08
310.974	36215.1	1.152e-07	1.02e-08
310.9653	36218.46	4.75e-08	7e-09
310.9405	36220.64	1.93e-08	3.8e-09
310.9298	36221.2	1.41e-08	5.6e-09

System: methane + decane; phases: Liquid, Gas
Property: Critical temperature, K (Liquid); method: Light Scattering
Mole fraction of methane	Critical temperature, K	uncertainty
0.8975	305.8	0.026

System: methane + decane; phases: Liquid, Gas
Property: Critical pressure, kPa (Liquid); method: Light Scattering
Mole fraction of methane	Critical pressure, kPa	uncertainty
0.8975	36294.32	6.2
