Measured thermophysical data. Measurement and thermodynamic model study on solid + liquid equilibria and  physicochemical properties of the ternary system MgBr2 + MgSO4 + H2O at  323.15 K
Source: Fluid Phase Equilib., 2013, 10.1016/j.fluid.2013.01.004
Compound 1: magnesium sulfate, MgO4S, InChI=1S/Mg.H2O4S/c;1-5(2,3)4/h;(H2,1,2,3,4)/q+2;/p-2, purity 99%
Compound 2: water, H2O, InChI=1S/H2O/h1H2, purity 99.9%
Compound 3: magnesium bromide (MgBr2), Br2Mg, InChI=1S/2BrH.Mg/h2*1H;/q;;+2/p-2

System: magnesium sulfate + water + magnesium bromide (MgBr2); phases: Liquid
Fixed: Pressure, kPa = 101
Fixed: Temperature, K = 323.15
Property: Mass density, kg/m3 (Liquid); method: Pycnometric method
Mass fraction of magnesium bromide (MgBr2)	Mass fraction of magnesium sulfate	Mass density, kg/m3	uncertainty
0	0.338	1387.2	2.1
0.0263	0.311	1386.4	2.7
0.0616	0.2765	1386.9	0.8
0.0865	0.2535	1390.4	0.8
0.1079	0.2368	1393.4	0.8
0.141	0.2056	1400.2	2
0.152	0.1947	1400.7	2.1
0.1988	0.1609	1413.9	1.4
0.2336	0.1352	1430.9	3.1
0.2503	0.1252	1435.2	5.4
0.2518	0.1238	1436.4	5.4
0.2578	0.119	1443.4	3.2
0.2593	0.1206	1446.3	5.6
0.264	0.113	1446.5	1.9
0.2722	0.1108	1450.2	1.9
0.2775	0.1082	1452.9	1.7
0.2925	0.0984	1460.5	1.8
0.3244	0.0806	1485.8	1.4
0.3633	0.0629	1512.8	9.9
0.3917	0.0534	1544.2	8.6
0.4104	0.0443	1558.9	6.3
0.4346	0.0374	1582.6	6
0.4398	0.0344	1586.9	6.1
0.4571	0.0235	1603.2	7.9
0.51	0.0101	1668.2	4.2
0.5179	0.0093	1672.3	4.2
0.5202	0	1662.2	9.3

System: magnesium sulfate + water + magnesium bromide (MgBr2); phases: Liquid
Fixed: Temperature, K = 323.15
Fixed: Pressure, kPa = 101
Property: Refractive index (Na D-line) (Liquid); method: Standard Abbe refractometry
Mass fraction of magnesium bromide (MgBr2)	Mass fraction of magnesium sulfate	Refractive index (Na D-line)	uncertainty
0	0.338	1.3982	0.0012
0.0263	0.311	1.4	0.0026
0.0616	0.2765	1.4005	0.0004
0.0865	0.2535	1.4011	0.0013
0.1079	0.2368	1.4029	0.0004
0.141	0.2056	1.4042	0.0009
0.152	0.1947	1.4042	0.0009
0.1988	0.1609	1.4081	0.0004
0.2336	0.1352	1.411	0.0004
0.2503	0.1252	1.413	0.0008
0.2518	0.1238	1.4135	0.0008
0.2578	0.119	1.4138	0.0005
0.2593	0.1206	1.4142	0.0004
0.264	0.113	1.415	0.0005
0.2722	0.1108	1.4162	0.0005
0.2775	0.1082	1.4167	0.0005
0.2925	0.0984	1.4184	0.0005
0.3244	0.0806	1.4233	0.0005
0.3633	0.0629	1.4289	0.0009
0.3917	0.0534	1.4344	0.0006
0.4104	0.0443	1.438	0.0005
0.4346	0.0374	1.4421	0.0005
0.4398	0.0344	1.4441	0.0005
0.4571	0.0235	1.4475	0.001
0.51	0.0101	1.4619	0.0013
0.5179	0.0093	1.4648	0.0013
0.5202	0	1.462	0.0013

System: magnesium sulfate + water + magnesium bromide (MgBr2); phases: Liquid, Crystal of intercomponent compound 1
Fixed: Pressure, kPa = 101
Fixed: Temperature, K = 323.15
Property: Mass fraction of magnesium bromide (MgBr2) (Liquid); method: Titration method
Mass fraction of magnesium sulfate	Mass fraction of magnesium bromide (MgBr2)	uncertainty
0.338	0	
0.311	0.0263	0.0037
0.2765	0.0616	0.0035
0.2535	0.0865	0.0036
0.2368	0.1079	0.0033
0.2056	0.141	0.003
0.1947	0.152	0.003
0.1609	0.1988	0.003
0.1352	0.2336	0.0028
0.1252	0.2503	0.0023
0.1238	0.2518	0.0034
0.119	0.2578	0.002
0.1206	0.2593	0.0027
0.113	0.264	0.003
0.1108	0.2722	0.0053

System: magnesium sulfate + water + magnesium bromide (MgBr2); phases: Liquid, Crystal of intercomponent compound 2, Crystal of intercomponent compound 1
Property: Eutectic composition: mass fraction of magnesium bromide (MgBr2) (Liquid); method: titration
Temperature, K	Pressure, kPa	Eutectic composition: mass fraction of magnesium bromide (MgBr2)	uncertainty
323.15	101	0.2775	0.0026

System: magnesium sulfate + water + magnesium bromide (MgBr2); phases: Liquid, Crystal of intercomponent compound 1
Fixed: Pressure, kPa = 101
Fixed: Temperature, K = 323.15
Property: Mass fraction of magnesium bromide (MgBr2) (Liquid); method: Titration method
Mass fraction of magnesium sulfate	Mass fraction of magnesium bromide (MgBr2)	uncertainty
0.0984	0.2925	0.0029
0.0806	0.3244	0.0029
0.0629	0.3633	0.0031
0.0534	0.3917	0.0032
0.0443	0.4104	0.0031

System: magnesium sulfate + water + magnesium bromide (MgBr2); phases: Liquid, Crystal of intercomponent compound 2, Crystal of intercomponent compound 1
Property: Eutectic composition: mass fraction of magnesium bromide (MgBr2) (Liquid); method: titration
Temperature, K	Pressure, kPa	Eutectic composition: mass fraction of magnesium bromide (MgBr2)	uncertainty
323.15	101	0.4346	0.004

System: magnesium sulfate + water + magnesium bromide (MgBr2); phases: Liquid, Crystal of intercomponent compound 1
Fixed: Pressure, kPa = 101
Fixed: Temperature, K = 323.15
Property: Mass fraction of magnesium bromide (MgBr2) (Liquid); method: Titration method
Mass fraction of magnesium sulfate	Mass fraction of magnesium bromide (MgBr2)	uncertainty
0.0344	0.4398	0.0032
0.0235	0.4571	0.0034
0.0101	0.51	0.0038

System: magnesium sulfate + water + magnesium bromide (MgBr2); phases: Liquid, Crystal of intercomponent compound 2, Crystal of intercomponent compound 1
Property: Eutectic composition: mass fraction of magnesium bromide (MgBr2) (Liquid); method: titration
Temperature, K	Pressure, kPa	Eutectic composition: mass fraction of magnesium bromide (MgBr2)	uncertainty
323.15	101	0.5179	0.0046

System: magnesium sulfate + water + magnesium bromide (MgBr2); phases: Liquid, Crystal of intercomponent compound 1
Property: Mass fraction of magnesium bromide (MgBr2) (Liquid); method: Titration method
Mass fraction of magnesium sulfate	Pressure, kPa	Temperature, K	Mass fraction of magnesium bromide (MgBr2)	uncertainty
0	101	323.15	0.5202	0.0039

System: magnesium sulfate + water; phases: Liquid
Property: Mass density, kg/m3 (Liquid); method: Pycnometric method
Mass fraction of magnesium sulfate	Pressure, kPa	Temperature, K	Mass density, kg/m3	uncertainty
0.338	101	323.15	1387.2	2.1

System: magnesium sulfate + water; phases: Liquid
Property: Refractive index (Na D-line) (Liquid); method: Standard Abbe refractometry
Mass fraction of magnesium sulfate	Temperature, K	Pressure, kPa	Refractive index (Na D-line)	uncertainty
0.338	323.15	101	1.3982	0.0012

System: magnesium sulfate + water; phases: Liquid, Crystal of intercomponent compound 1
Property: Mass fraction of magnesium sulfate (Liquid); method: Titration method
Pressure, kPa	Temperature, K	Mass fraction of magnesium sulfate	uncertainty
101	323.15	0.338	

System: water + magnesium bromide (MgBr2); phases: Liquid
Property: Mass density, kg/m3 (Liquid); method: Pycnometric method
Mass fraction of magnesium bromide (MgBr2)	Pressure, kPa	Temperature, K	Mass density, kg/m3	uncertainty
0.5202	101	323.15	1662.2	9.3

System: water + magnesium bromide (MgBr2); phases: Liquid
Property: Refractive index (Na D-line) (Liquid); method: Standard Abbe refractometry
Mass fraction of magnesium bromide (MgBr2)	Temperature, K	Pressure, kPa	Refractive index (Na D-line)	uncertainty
0.5202	323.15	101	1.462	0.0013

System: water + magnesium bromide (MgBr2); phases: Liquid, Crystal of intercomponent compound 1
Property: Mass fraction of magnesium bromide (MgBr2) (Liquid); method: Titration method
Pressure, kPa	Temperature, K	Mass fraction of magnesium bromide (MgBr2)	uncertainty
101	323.15	0.5202	0.0039
