Measured thermophysical data. Speed of sound measurement in ethyl tert-butyl ether and tert-amyl methyl ether by Brillouin light scattering
Source: Fluid Phase Equilib., 2016, 10.1016/j.fluid.2015.10.026
Compound 1: 2-ethoxy-2-methylpropane, C6H14O, InChI=1S/C6H14O/c1-5-7-6(2,3)4/h5H2,1-4H3, purity 99%
Compound 2: 2-methoxy-2-methylbutane, C6H14O, InChI=1S/C6H14O/c1-5-6(2,3)7-4/h5H2,1-4H3, purity 99%
Compound 3: toluene, C7H8, InChI=1S/C7H8/c1-7-5-3-2-4-6-7/h2-6H,1H3, purity 99.5%

System: 2-ethoxy-2-methylpropane; phases: Liquid
Property: Speed of sound, m/s (Liquid); method: Brillouin light scattering
Temperature, K	Pressure, kPa	Speed of sound, m/s	uncertainty
293.15	10	1059.15	5.39
303.15	10	1012.95	5.17
313.15	10	967.71	6.66
323.15	20	923.32	5.74
333.15	40	879.69	5.78
343.15	60	836.71	6.24
353.15	90	794.25	4.1
363.15	130	752.18	3.91
373.15	180	710.37	3.74
383.15	250	668.66	3.56
393.15	340	626.87	3.37
403.15	440	584.83	3.13
413.15	570	542.3	2.98
423.15	730	499.06	2.87
433.15	920	454.82	2.68
443.15	1150	409.25	2.37
453.15	1420	361.97	2.22
463.15	1750	312.51	2.22
473.15	2130	260.24	1.96
483.15	2570	204.36	1.85
488.15	2820	174.7	1.78
493.15	3090	143.64	1.77

System: 2-ethoxy-2-methylpropane; phases: Gas
Property: Speed of sound, m/s (Gas); method: Brillouin light scattering
Temperature, K	Pressure, kPa	Speed of sound, m/s	uncertainty
453.15	1420	157.35	1.45
463.15	1750	149.62	1.46
473.15	2130	140.63	1.42
478.15	2340	135.58	1.38
483.15	2570	130.09	1.54
488.15	2820	123.95	2.06
493.15	3090	116.68	1.41

System: 2-ethoxy-2-methylpropane; phases: Liquid
Property: Speed of sound, m/s (Liquid); method: Brillouin light scattering
Temperature, K	Pressure, kPa	Speed of sound, m/s	uncertainty
293.15	1000	1060.27	5.4
293.15	2500	1070.51	5.45
293.15	4000	1080.8	5.5
293.15	5500	1091.13	5.55
293.15	7000	1101.51	5.62
293.15	8500	1111.93	5.67
293.15	10000	1122.41	5.72
303.15	1000	1019.44	5.2
303.15	2500	1030.35	5.25
303.15	4000	1041.22	5.31
303.15	5500	1052.04	5.36
303.15	7000	1062.81	5.43
303.15	8500	1073.53	5.48
303.15	10000	1084.21	5.53
313.15	1000	978.21	5
313.15	2500	989.92	5.06
313.15	4000	1001.49	5.11
313.15	5500	1012.91	5.17
313.15	7000	1024.2	5.24
313.15	8500	1035.34	5.29
313.15	10000	1046.34	5.35
323.15	1000	936.6	4.8
323.15	2500	949.23	4.86
323.15	4000	961.61	4.92
323.15	5500	973.77	4.98
323.15	7000	985.68	5.05
323.15	8500	997.36	5.11
323.15	10000	1008.8	5.17
333.15	1000	894.61	4.59
333.15	2500	908.27	4.66
333.15	4000	921.59	4.73
333.15	5500	934.59	4.79
333.15	7000	947.25	4.87
333.15	8500	959.59	4.93
333.15	10000	971.59	4.99
343.15	1000	852.23	4.39
343.15	2500	867.04	4.46
343.15	4000	881.42	4.53
343.15	5500	895.38	4.6
343.15	7000	908.92	4.69
343.15	8500	922.03	4.75
343.15	10000	934.71	4.81
353.15	1000	809.46	4.19
353.15	2500	825.54	4.26
353.15	4000	841.11	4.34
353.15	5500	856.15	4.41
353.15	7000	870.68	4.51
353.15	8500	884.68	4.57
353.15	10000	898.16	4.64
363.15	1000	766.3	3.98
363.15	2500	783.78	4.06
363.15	4000	800.64	4.14
363.15	5500	816.89	4.22
363.15	7000	832.52	4.33
363.15	8500	847.54	4.4
363.15	10000	861.94	4.46
373.15	1000	722.76	3.77
373.15	2500	741.75	3.86
373.15	4000	760.03	3.95
373.15	5500	777.6	4.03
373.15	7000	794.46	4.15
373.15	8500	810.61	4.22
373.15	10000	826.04	4.3
383.15	1000	678.84	3.57
383.15	2500	699.46	3.66
383.15	4000	719.28	3.76
383.15	5500	738.29	3.85
383.15	7000	756.49	3.98
383.15	8500	773.88	4.06
383.15	10000	790.47	4.13
393.15	1000	634.52	3.36
393.15	2500	656.9	3.47
393.15	4000	678.37	3.56
393.15	5500	698.94	3.66
393.15	7000	718.61	3.81
393.15	8500	737.37	3.89
393.15	10000	755.23	3.97
403.15	1000	589.82	3.16
403.15	2500	614.07	3.27
403.15	4000	637.32	3.37
403.15	5500	659.57	3.48
403.15	7000	680.82	3.65
403.15	8500	701.07	3.73
403.15	10000	720.33	3.82
413.15	1000	544.74	2.95
413.15	2500	570.98	3.07
413.15	4000	596.12	3.19
413.15	5500	620.17	3.3
413.15	7000	643.12	3.49
413.15	8500	664.98	3.58
413.15	10000	685.74	3.67
423.15	2500	527.62	2.88
423.15	4000	554.78	3
423.15	5500	580.74	3.12
423.15	7000	605.52	3.34
423.15	8500	629.1	3.43
423.15	10000	651.49	3.53
433.15	2500	483.99	2.69
433.15	4000	513.28	2.82
433.15	5500	541.29	2.94
433.15	7000	568	3.19
433.15	8500	593.43	3.29
433.15	10000	617.57	3.39
443.15	2500	440.1	2.5
443.15	4000	471.64	2.64
443.15	5500	501.8	2.77
443.15	7000	530.58	3.05
443.15	8500	557.97	3.15
443.15	10000	583.97	3.26
453.15	2500	395.94	2.33
453.15	4000	429.85	2.47
453.15	5500	462.29	2.6
453.15	7000	493.25	2.93
453.15	8500	522.72	3.03
453.15	10000	550.71	3.14
463.15	2500	351.51	2.16
463.15	4000	387.92	2.3
463.15	5500	422.75	2.44
463.15	7000	456	2.83
463.15	10000	517.77	2.99
473.15	4000	345.84	2.14
473.15	5500	383.18	2.29
473.15	7000	418.85	2.71
473.15	8500	452.84	2.81
473.15	10000	485.16	2.93
483.15	4000	303.61	1.99
483.15	5500	343.59	2.12
493.15	4000	261.23	1.86
493.15	5500	303.97	2.02

System: 2-ethoxy-2-methylpropane; phases: Fluid (supercritical or subcritical phases)
Property: Speed of sound, m/s (Fluid (supercritical or subcritical phases)); method: Brillouin light scattering
Temperature, K	Pressure, kPa	Speed of sound, m/s	uncertainty
511.26	4000	109.41	3.05
511.02	5000	203.94	2.56
511.07	6000	251.63	3.11
511.12	7000	292.44	3.03
520.05	4000	104.01	1.74
521	5000	155.15	2.17
521.16	6000	217.02	3.63
521.29	7000	264.62	3.27
529.5	4000	118.19	1.23
530.2	5000	132.08	1.57
530.73	6000	183.76	3.43
530.99	7000	234.87	3.59
540.45	4000	134.27	1.22
541.14	5000	128.78	1.24
541.48	6000	158.8	2.74
541.85	7000	208.25	3.39
550.06	4000	147.6	1.3
550	5000	134.46	1.21
550.44	6000	144.68	2.05
550.58	7000	188.75	3.19
561.04	4000	161.59	1.37
561.29	5000	145.73	1.26
561.65	6000	145.52	1.53
561.96	7000	176.1	2.35
571.72	4000	172.96	1.39
571.33	5000	158.34	1.31
571.2	6000	152.92	1.31
571.28	7000	169.79	1.73
580.22	4000	182.55	1.4
579.91	5000	170.18	1.34
579.66	6000	163.68	1.29
579.57	7000	169.78	1.39
590.12	4000	194.12	1.42
590.38	5000	185.11	1.38
590.39	6000	178.89	1.37
590.27	7000	175.32	1.33
602.86	4000	207.43	1.46
602.16	5000	199.29	1.43
601.7	6000	193.21	1.43
601.53	7000	188.12	1.39
612.81	4000	217.85	1.49
611.87	5000	211.58	1.46
611.36	6000	206.2	1.46
611.06	7000	202.27	1.46
623.94	4000	226.9	1.52
623.38	5000	222.38	1.5
622.84	6000	217.4	1.5
622.53	7000	213.01	1.5
634.19	4000	232.56	1.54
633.27	5000	228.01	1.52
632.32	6000	223.19	1.52
631.83	7000	218.09	1.51
645.27	4000	236.85	1.55
644.48	5000	232.66	1.54
643.86	6000	228.16	1.54
643.79	7000	224.46	1.53
654.75	4000	239.86	1.57
654.31	5000	235.93	1.55
653.83	6000	231.78	1.55
653.89	7000	228.08	1.54
665.08	4000	242.03	1.58
665.1	5000	237.76	1.56
665	6000	234.24	1.56
665.1	7000	230.39	1.54

System: 2-methoxy-2-methylbutane; phases: Liquid
Property: Speed of sound, m/s (Liquid); method: Brillouin light scattering
Temperature, K	Pressure, kPa	Speed of sound, m/s	uncertainty
293.15	0	1133.33	5.76
303.15	10	1089.4	6.2
313.15	10	1046.4	5.33
323.15	20	1004.19	6.2
333.15	20	962.62	5.89
343.15	40	921.56	5.95
353.15	60	880.86	6.12
363.15	90	840.4	4.96
373.15	120	800.06	4.2
383.15	160	759.72	4.03
393.15	200	719.27	3.82
403.15	240	678.61	3.61
413.15	300	637.63	3.44
423.15	360	596.25	3.23
433.15	440	554.37	3.07
443.15	540	511.92	2.92
453.15	660	468.81	2.6
463.15	820	424.99	2.47
473.15	1010	380.39	2.26
483.15	1240	334.95	2.07
488.15	1370	311.9	1.96
493.15	1520	288.63	1.87
498.15	1680	265.12	1.75
503.15	1860	241.38	1.66
508.15	2060	217.4	1.57
513.15	2270	193.18	1.49
518.15	2500	168.7	1.41
523.15	2760	143.98	1.33

System: 2-methoxy-2-methylbutane; phases: Gas
Property: Speed of sound, m/s (Gas); method: Brillouin light scattering
Temperature, K	Pressure, kPa	Speed of sound, m/s	uncertainty
463.15	820	194.03	1.76
473.15	1010	187.27	1.43
483.15	1240	179.96	1.71
488.15	1370	175.42	1.98
493.15	1520	169.9	3.97
498.15	1680	163.13	2.67
503.15	1860	154.8	3.05
508.15	2060	144.62	6.6
513.15	2270	132.28	3.89
518.15	2500	117.47	3.04
523.15	2760	99.85	3.02

System: 2-methoxy-2-methylbutane; phases: Liquid
Property: Speed of sound, m/s (Liquid); method: Brillouin light scattering
Temperature, K	Pressure, kPa	Speed of sound, m/s	uncertainty
293.15	1000	1139.74	5.79
293.15	2500	1148.97	5.84
293.15	4000	1158.28	5.88
293.15	5500	1167.68	5.93
293.15	7000	1177.16	5.98
293.15	8500	1186.73	6.03
293.15	10000	1196.39	6.08
303.15	1000	1099.13	5.59
303.15	2500	1109.26	5.64
303.15	4000	1119.34	5.69
303.15	5500	1129.35	5.74
303.15	7000	1139.3	5.8
303.15	8500	1149.19	5.85
303.15	10000	1159.02	5.9
313.15	1000	1058.34	5.39
313.15	2500	1069.41	5.45
313.15	4000	1080.28	5.5
313.15	5500	1090.95	5.55
313.15	7000	1101.42	5.61
313.15	8500	1111.69	5.66
313.15	10000	1121.77	5.71
323.15	1000	1017.39	5.19
323.15	2500	1029.4	5.25
323.15	4000	1041.1	5.31
323.15	5500	1052.47	5.36
323.15	7000	1063.51	5.43
323.15	8500	1074.23	5.48
323.15	10000	1084.62	5.53
333.15	1000	976.26	4.99
333.15	2500	989.25	5.06
333.15	4000	1001.8	5.12
333.15	5500	1013.9	5.17
333.15	7000	1025.57	5.25
333.15	8500	1036.8	5.3
333.15	10000	1047.59	5.35
343.15	1000	934.97	4.79
343.15	2500	948.94	4.86
343.15	4000	962.37	4.92
343.15	5500	975.26	4.99
343.15	7000	987.61	5.06
343.15	8500	999.41	5.12
343.15	10000	1010.67	5.17
353.15	1000	893.5	4.59
353.15	2500	908.48	4.66
353.15	4000	922.83	4.73
353.15	5500	936.54	4.8
353.15	7000	949.61	4.88
353.15	8500	962.05	4.94
353.15	10000	973.86	5
363.15	1000	851.87	4.39
363.15	2500	867.87	4.47
363.15	4000	883.16	4.54
363.15	5500	897.74	4.61
363.15	7000	911.59	4.7
363.15	8500	924.74	4.76
363.15	10000	937.16	4.82
373.15	1000	810.06	4.19
373.15	2500	827.11	4.27
373.15	4000	843.38	4.35
373.15	5500	858.86	4.42
373.15	7000	873.55	4.52
373.15	8500	887.46	4.58
373.15	10000	900.58	4.64
383.15	1000	768.09	3.99
383.15	2500	786.2	4.07
383.15	4000	803.47	4.16
383.15	5500	819.89	4.23
383.15	7000	835.47	4.34
383.15	8500	850.21	4.41
383.15	10000	864.1	4.47
393.15	1000	725.95	3.79
393.15	2500	745.14	3.88
393.15	4000	763.44	3.97
393.15	5500	780.85	4.05
393.15	7000	797.37	4.16
393.15	8500	813	4.23
393.15	10000	827.74	4.3
403.15	1000	683.64	3.59
403.15	2500	703.93	3.68
403.15	4000	723.29	3.77
403.15	5500	741.73	3.86
403.15	7000	759.25	3.99
403.15	8500	775.83	4.06
403.15	10000	791.49	4.13
413.15	1000	641.15	3.39
413.15	2500	662.56	3.49
413.15	4000	683.02	3.58
413.15	5500	702.53	3.68
413.15	7000	721.09	3.81
413.15	8500	738.7	3.89
413.15	10000	755.35	3.97
423.15	1000	598.5	3.19
423.15	2500	621.05	3.3
423.15	4000	642.63	3.4
423.15	5500	663.25	3.49
423.15	7000	682.91	3.64
423.15	8500	701.6	3.72
423.15	10000	719.33	3.8
433.15	1000	555.68	3
433.15	2500	579.38	3.1
433.15	4000	602.12	3.21
433.15	5500	623.89	3.31
433.15	7000	644.7	3.47
433.15	8500	664.54	3.56
433.15	10000	683.41	3.64
443.15	2500	537.57	2.91
443.15	4000	561.49	3.02
443.15	5500	584.45	3.13
443.15	7000	606.46	3.31
443.15	8500	627.51	3.4
443.15	10000	647.61	3.49
453.15	2500	495.6	2.72
453.15	4000	520.74	2.84
453.15	5500	544.94	2.95
453.15	7000	568.2	3.15
453.15	8500	590.53	3.24
453.15	10000	611.92	3.33
463.15	2500	453.48	2.54
463.15	4000	479.86	2.66
463.15	5500	505.34	2.77
463.15	7000	529.91	3
463.15	8500	553.58	3.09
463.15	10000	576.34	3.19
473.15	4000	438.87	2.48
473.15	5500	465.66	2.59
473.15	7000	491.59	2.85
473.15	8500	516.66	2.94
473.15	10000	540.87	3.04
483.15	4000	397.75	2.3
483.15	5500	425.9	2.42
493.15	4000	356.51	2.13
493.15	5500	386.06	2.26
498.15	4000	335.85	2.05
498.15	5500	366.12	2.18
503.15	4000	315.16	1.97
503.15	5500	346.15	2.1
508.15	4000	294.43	1.9
508.15	5500	326.16	2.02
513.15	4000	273.68	1.82
513.15	5500	306.15	1.95
518.15	4000	252.89	1.75
518.15	5500	286.12	1.87
523.15	4000	232.08	1.68
523.15	5500	266.07	1.8

System: 2-methoxy-2-methylbutane; phases: Fluid (supercritical or subcritical phases)
Property: Speed of sound, m/s (Fluid (supercritical or subcritical phases)); method: Brillouin light scattering
Temperature, K	Pressure, kPa	Speed of sound, m/s	uncertainty
538.63	4000	166.74	2.03
537.15	5000	228.75	2.2
537.15	6000	279.45	3.27
540.07	7000	308.01	3.08
548.23	4000	93.78	1.75
547.15	5000	173.14	2.39
547.15	6000	231.15	3.5
548.05	7000	273.71	3.36
557.95	4000	114.59	1.35
557.15	5000	137.45	1.6
557.15	6000	185.53	3.43
558.89	7000	235.39	3.68
567.35	4000	139.87	1.29
567.15	5000	122.01	1.19
567.15	6000	152.32	2.73
568.4	7000	200.04	3.6
577.5	4000	156.64	1.37
577	5000	139.01	1.24
577	6000	140.84	1.66
577.42	7000	176.29	2.65
586.58	4000	172.49	1.4
586.8	5000	155.55	1.32
586.09	6000	146.23	1.24
586.07	7000	158.23	1.69
599.67	4000	188.97	1.46
599.01	5000	172.16	1.38
598.22	6000	159.43	1.34
597.62	7000	156.64	1.27
610.53	4000	204.31	1.49
609.14	5000	187.44	1.43
608.42	6000	174.49	1.46
607.67	7000	165.36	1.37
618.29	4000	213.66	1.51
618.08	5000	199.99	1.46
617.13	6000	187.48	1.52
616.46	7000	175.98	1.47
629.14	4000	222.93	1.53
628.15	5000	210.83	1.49
627.35	6000	199.55	1.54
626.75	7000	188.95	1.51
639.77	4000	229.85	1.55
638.41	5000	218.7	1.51
636.88	6000	207.42	1.53
636.88	7000	199.92	1.52
646.51	4000	233.5	1.57
645.57	5000	222.56	1.53
645.57	6000	213.28	1.56
645.57	7000	204.49	1.53
657.59	4000	237.14	1.58
656.29	5000	226.62	1.54
656.31	6000	217.14	1.57
656.29	7000	208.95	1.55
670.97	4000	240.91	1.59
669.94	5000	230.37	1.56
669.98	6000	220.01	1.59
669.94	7000	211.48	1.53
680.27	4000	242.88	1.6
680.25	5000	233.53	1.56
680.32	6000	223.86	1.6
680.27	7000	215.49	1.55

System: toluene; phases: Liquid, Gas
Property: Speed of sound, m/s (Liquid); method: Brillouin light scattering
Temperature, K	Speed of sound, m/s	uncertainty
323.15	1200.8	6
373.15	1000	5
423.15	806	5.2
473.15	616.2	3.3
523.15	425.5	2.4
