Measured thermophysical data. Study of liquid liquid equilibrium of the systems isobutyl acetate + acetic acid +water and isobutyl alcohol + acetic acid +water at different temperatures
Source: Fluid Phase Equilib., 2008, 10.1016/j.fluid.2008.07.001
Compound 1: 2-methylpropyl ethanoate, C6H12O2, InChI=1S/C6H12O2/c1-5(2)4-8-6(3)7/h5H,4H2,1-3H3
Compound 2: 2-methyl-1-propanol, C4H10O, InChI=1S/C4H10O/c1-4(2)3-5/h4-5H,3H2,1-2H3
Compound 3: acetic acid, C2H4O2, InChI=1S/C2H4O2/c1-2(3)4/h1H3,(H,3,4)
Compound 4: water, H2O, InChI=1S/H2O/h1H2, purity 99.99%

System: 2-methylpropyl ethanoate; phases: Liquid
Property: Refractive index (Na D-line) (Liquid); method: Standard Abbe refractometry
Temperature, K	Pressure, kPa	Refractive index (Na D-line)	uncertainty
298.15	101.325	1.3876	0.0006

System: 2-methylpropyl ethanoate; phases: Liquid
Property: Mass density, kg/m3 (Liquid); method: VIBTUB:UFactor:12
Temperature, K	Pressure, kPa	Mass density, kg/m3	uncertainty
298.15	101.325	866.12	1.35

System: 2-methyl-1-propanol; phases: Liquid
Property: Refractive index (Na D-line) (Liquid); method: Standard Abbe refractometry
Temperature, K	Pressure, kPa	Refractive index (Na D-line)	uncertainty
298.15	101.325	1.3938	0.0005

System: 2-methyl-1-propanol; phases: Liquid
Property: Mass density, kg/m3 (Liquid); method: VIBTUB:UFactor:4
Temperature, K	Pressure, kPa	Mass density, kg/m3	uncertainty
298.15	101.325	797.83	0.48

System: acetic acid; phases: Liquid
Property: Refractive index (Na D-line) (Liquid); method: Standard Abbe refractometry
Temperature, K	Pressure, kPa	Refractive index (Na D-line)	uncertainty
298.15	101.325	1.3696	0.0005

System: acetic acid; phases: Liquid
Property: Mass density, kg/m3 (Liquid); method: VIBTUB:UFactor:2
Temperature, K	Pressure, kPa	Mass density, kg/m3	uncertainty
298.15	101.325	1043.9	0.11

System: water; phases: Liquid
Property: Refractive index (Na D-line) (Liquid); method: Standard Abbe refractometry
Temperature, K	Pressure, kPa	Refractive index (Na D-line)	uncertainty
298.15	101.325	1.3325	0.0005

System: water; phases: Liquid
Property: Mass density, kg/m3 (Liquid); method: VIBTUB:UFactor:2
Temperature, K	Pressure, kPa	Mass density, kg/m3	uncertainty
298.15	101.325	997.06	0.07

System: acetic acid + 2-methylpropyl ethanoate + water; phases: Liquid mixture 1, Liquid mixture 2
Fixed: Pressure, kPa = 101
Property: Mole fraction of acetic acid (Liquid mixture 1); method: CHROM:UFactor:6
Property: Mole fraction of 2-methylpropyl ethanoate (Liquid mixture 2); method: CHROM:UFactor:6
Property: Mole fraction of acetic acid (Liquid mixture 2); method: CHROM:UFactor:6
Temperature, K	Mole fraction of 2-methylpropyl ethanoate	Mole fraction of acetic acid	uncertainty	Mole fraction of 2-methylpropyl ethanoate	uncertainty	Mole fraction of acetic acid	uncertainty
283.15	0.945	0	0.001	0.001	0.001	0	
283.15	0.892	0.02	0.005	0.002	0.002	0.011	
283.15	0.847	0.054	0.005	0.001	0.001	0.023	
283.15	0.792	0.092	0.006	0.002	0.002	0.038	
283.15	0.744	0.12	0.007	0.002	0.002	0.049	
283.15	0.704	0.14	0.007	0.002	0.002	0.057	
283.15	0.664	0.159	0.008	0.003	0.003	0.068	
283.15	0.615	0.187	0.009	0.003	0.003	0.079	
283.15	0.572	0.206	0.01	0.004	0.004	0.089	
283.15	0.522	0.227	0.011	0.005	0.004	0.1	
283.15	0.483	0.248	0.012	0.005	0.004	0.116	
283.15	0.447	0.264	0.012	0.006	0.004	0.128	
283.15	0.412	0.275	0.013	0.008	0.004	0.139	
283.15	0.363	0.289	0.013	0.011	0.004	0.158	
283.15	0.32	0.295	0.014	0.015	0.004	0.173	
283.15	0.265	0.309	0.014	0.024	0.005	0.199	
283.15	0.205	0.314	0.015	0.04	0.005	0.227	
323.15	0.917	0	0.001	0.001	0.001	0	
323.15	0.87	0.017	0.005	0.001	0.001	0.01	
323.15	0.816	0.054	0.005	0.001	0.001	0.012	
323.15	0.766	0.088	0.006	0.002	0.002	0.036	
323.15	0.711	0.118	0.007	0.002	0.002	0.048	
323.15	0.676	0.141	0.008	0.002	0.002	0.058	
323.15	0.632	0.161	0.008	0.003	0.003	0.066	
323.15	0.584	0.181	0.009	0.003	0.003	0.081	
323.15	0.541	0.202	0.01	0.004	0.004	0.092	
323.15	0.497	0.22	0.01	0.006	0.004	0.104	
323.15	0.442	0.237	0.011	0.007	0.004	0.112	
323.15	0.411	0.251	0.012	0.008	0.004	0.127	
323.15	0.364	0.26	0.012	0.012	0.004	0.14	
323.15	0.315	0.268	0.012	0.016	0.004	0.157	
323.15	0.264	0.278	0.013	0.021	0.005	0.18	
323.15	0.207	0.289	0.013	0.04	0.005	0.212	

System: acetic acid + 2-methyl-1-propanol + water; phases: Liquid mixture 1, Liquid mixture 2
Fixed: Pressure, kPa = 101
Property: Mole fraction of acetic acid (Liquid mixture 1); method: CHROM:UFactor:4
Property: Mole fraction of acetic acid (Liquid mixture 2); method: CHROM:UFactor:4
Property: Mole fraction of 2-methyl-1-propanol (Liquid mixture 2); method: CHROM:UFactor:4
Temperature, K	Mole fraction of 2-methyl-1-propanol	Mole fraction of acetic acid	uncertainty	Mole fraction of acetic acid	uncertainty	Mole fraction of 2-methyl-1-propanol	uncertainty
283.15	0.568	0	0.001	0	0.001	0.026	
283.15	0.545	0.009	0.004	0	0.001	0.025	
283.15	0.517	0.023	0.005	0.005	0.005	0.025	
283.15	0.486	0.041	0.005	0.01	0.01	0.026	
283.15	0.446	0.065	0.005	0.019	0.019	0.027	
283.15	0.41	0.08	0.005	0.026	0.017	0.028	
283.15	0.368	0.096	0.005	0.036	0.02	0.03	
283.15	0.343	0.101	0.005	0.0416	0.0102	0.032	
283.15	0.311	0.11	0.005	0.046	0.009	0.033	
283.15	0.291	0.114	0.005	0.049	0.008	0.035	
283.15	0.237	0.116	0.005	0.061	0.007	0.044	
323.15	0.516	0	0.001	0	0.001	0.019	
323.15	0.482	0.018	0.004	0.003	0.003	0.019	
323.15	0.453	0.028	0.005	0.008	0.008	0.02	
323.15	0.423	0.045	0.005	0.013	0.012	0.021	
323.15	0.378	0.062	0.005	0.017	0.011	0.022	
323.15	0.347	0.073	0.005	0.024	0.011	0.025	
323.15	0.31	0.084	0.005	0.032	0.009	0.028	
323.15	0.285	0.091	0.005	0.04	0.008	0.033	
323.15	0.231	0.094	0.005	0.048	0.005	0.04	
323.15	0.202	0.093	0.005	0.053	0.005	0.048	
323.15	0.253	0.093	0.005	0.042	0.008	0.033	
323.15	0.222	0.095	0.005	0.05	0.005	0.039	
323.15	0.144	0.087	0.005	0.064	0.005	0.062	
