Measured thermophysical data. Experimental vapour - liquid equilibrium data of the quaternary system Methanol (1) + Isopropyl Alcohol (2) + Water (3) + Glycerol (4) along with Isopropyl Alcohol (2) + Glycerol (4) and Isopropyl Alcohol (2) + Water (3) binary data at atmospheric and sub-atmospheric pressures.
Source: Fluid Phase Equilib., 2016, 10.1016/j.fluid.2015.09.052
Compound 1: methanol, CH4O, InChI=1S/CH4O/c1-2/h2H,1H3, purity 99.8%
Compound 2: propan-2-ol, C3H8O, InChI=1S/C3H8O/c1-3(2)4/h3-4H,1-2H3, purity 99.8%
Compound 3: water, H2O, InChI=1S/H2O/h1H2, purity 99.8%
Compound 4: glycerol, C3H8O3, InChI=1S/C3H8O3/c4-1-3(6)2-5/h3-6H,1-2H2

System: methanol; phases: Liquid
Fixed: Pressure, kPa = 101.325
Property: Mass density, kg/m3 (Liquid); method: mechanical oscillator
Temperature, K	Mass density, kg/m3	uncertainty
293.15	791.62	0.2
298.15	786.62	0.2

System: methanol; phases: Liquid
Fixed: Pressure, kPa = 101.325
Property: Refractive index (Na D-line) (Liquid); method: Standard Abbe refractometry
Temperature, K	Refractive index (Na D-line)	uncertainty
293.15	1.32864	0.0005
298.15	1.32666	0.0005

System: propan-2-ol; phases: Liquid
Fixed: Pressure, kPa = 101.325
Property: Mass density, kg/m3 (Liquid); method: mechanical oscillator
Temperature, K	Mass density, kg/m3	uncertainty
293.15	786.91	0.2
298.15	782.45	0.2

System: propan-2-ol; phases: Liquid
Fixed: Pressure, kPa = 101.325
Property: Refractive index (Na D-line) (Liquid); method: Standard Abbe refractometry
Temperature, K	Refractive index (Na D-line)	uncertainty
293.15	1.37736	0.00053
298.15	1.37522	0.00053

System: propan-2-ol; phases: Liquid, Gas
Property: Boiling temperature at pressure P, K (Liquid); method: Ebulliometric method (Recirculating still)
Pressure, kPa	Boiling temperature at pressure P, K	uncertainty
53.33	340.05	0.19
66.7	345.25	0.17
79.9	349.5	0.2
94.93	354.5	0.2

System: water; phases: Liquid, Gas
Property: Boiling temperature at pressure P, K (Liquid); method: Ebulliometric method (Recirculating still)
Pressure, kPa	Boiling temperature at pressure P, K	uncertainty
94.66	371.1	0.1

System: water; phases: Liquid
Fixed: Pressure, kPa = 101.325
Property: Mass density, kg/m3 (Liquid); method: mechanical oscillator
Temperature, K	Mass density, kg/m3	uncertainty
293.15	998.21	0.2
298.15	997.15	0.2

System: water; phases: Liquid
Fixed: Pressure, kPa = 101.325
Property: Refractive index (Na D-line) (Liquid); method: Standard Abbe refractometry
Temperature, K	Refractive index (Na D-line)	uncertainty
293.15	1.33305	0.00032
298.15	1.33275	0.00032

System: glycerol; phases: Liquid, Gas
Property: Boiling temperature at pressure P, K (Liquid); method: Ebulliometric method (Recirculating still)
Pressure, kPa	Boiling temperature at pressure P, K	uncertainty
94.93	560.68	0.08

System: glycerol; phases: Liquid
Fixed: Pressure, kPa = 101.325
Property: Mass density, kg/m3 (Liquid); method: mechanical oscillator
Temperature, K	Mass density, kg/m3	uncertainty
293.15	1261.35	0.22
298.15	1256.13	0.22

System: glycerol; phases: Liquid
Fixed: Pressure, kPa = 101.325
Property: Refractive index (Na D-line) (Liquid); method: Standard Abbe refractometry
Temperature, K	Refractive index (Na D-line)	uncertainty
293.15	1.4744	0.0003
298.15	1.47385	0.00034

System: glycerol + propan-2-ol; phases: Liquid, Gas
Property: Boiling temperature at pressure P, K (Liquid); method: Ebulliometric method (Recirculating still)
Pressure, kPa	Mole fraction of propan-2-ol	Boiling temperature at pressure P, K	uncertainty
53.33	0	539.13	0.32
53.33	0.0839	341	2.47
53.33	0.1685	340.5	0.19
53.33	0.1928	340.35	0.19
53.33	0.3028	340.1	0.19
53.33	0.3644	339.95	0.2
53.33	0.4015	339.9	0.2
53.33	0.4512	339.8	0.2
53.33	0.5011	339.68	0.2
53.33	0.5512	339.6	0.2
53.33	0.6522	339.55	0.2
53.33	0.7455	339.45	0.21
53.33	0.8441	339.25	0.21
53.33	0.8958	339.35	0.21
53.33	0.9218	339.46	0.21
53.33	0.9478	339.56	0.21
53.33	0.9638	339.52	0.2
53.33	0.9739	339.89	0.2
53.33	1	340.05	0.21
66.66	0	547.2	0.31
66.66	0.0239	346.65	32.5
66.66	0.0719	345.68	0.28
66.66	0.0839	345.36	0.21
66.66	0.1685	345.15	0.19
66.66	0.2538	345.05	0.19
66.66	0.3644	344.9	0.19
66.66	0.5011	344.7	0.19
66.66	0.5512	344.65	0.19
66.66	0.6522	344.6	0.19
66.66	0.7455	344.57	0.2
66.66	0.8441	344.5	0.2
66.66	0.8958	344.62	0.2
66.66	0.9218	344.65	0.2
66.66	0.9478	344.7	0.2
66.66	0.9638	344.75	0.2
66.66	0.9739	344.85	0.19
66.66	1	345.25	0.2
79.99	0	554.05	0.28
79.99	0.0839	351.02	0.2
79.99	0.0948	349.75	0.2
79.99	0.1685	349.45	0.18
79.99	0.2538	349.25	0.18
79.99	0.3644	349.09	0.18
79.99	0.4512	348.97	0.18
79.99	0.5011	348.91	0.18
79.99	0.5512	348.87	0.18
79.99	0.6522	348.83	0.18
79.99	0.7455	348.8	0.18
79.99	0.8441	348.83	0.18
79.99	0.8958	348.93	0.18
79.99	0.9218	349.01	0.18
79.99	0.9478	349.06	0.18
79.99	0.9739	349.15	0.18
79.99	1	349.5	0.19
94.93	0	560.68	0.27
94.93	0.0839	354.84	2.98
94.93	0.1685	354.09	0.2
94.93	0.2538	353.8	0.19
94.93	0.3644	353.65	0.19
94.93	0.4512	353.45	0.18
94.93	0.5011	353.3	0.18
94.93	0.5512	353.15	0.18
94.93	0.589	353.05	0.17
94.93	0.6522	353.19	0.18
94.93	0.7031	353.3	0.19
94.93	0.7455	353.35	0.19
94.93	0.8441	353.45	0.19
94.93	0.8958	353.52	0.19
94.93	0.9218	353.52	0.19
94.93	0.9478	353.61	0.19
94.93	0.9739	353.75	0.2
94.93	1	354.5	0.2

System: propan-2-ol + water; phases: Liquid, Gas
Fixed: Pressure, kPa = 94.66
Property: Boiling temperature at pressure P, K (Liquid); method: Ebulliometric method (Recirculating still)
Mole fraction of propan-2-ol	Boiling temperature at pressure P, K	uncertainty
0	371.1	0.11
0.01	367.6	0.11
0.06	359.4	0.11
0.101	357.6	0.11
0.155	356.2	0.11
0.234	355.1	0.11
0.35	354	0.11
0.4	353.7	0.11
0.45	353.3	0.11
0.507	353	0.11
0.594	352.65	0.11
0.677	352.4	0.11
0.77	352.4	0.11
0.83	352.4	0.11
0.9	352.8	0.11
0.95	353.1	0.11
1	354.05	0.11
