Measured thermophysical data. Surface tension and 0.1 MPa density for members of homologous series of ionic liquids composed of imidazolium-, pyridinium-, and pyrrolidinium-based cations and of cyano-groups containing anions
Source: Fluid Phase Equilib., 2015, 10.1016/j.fluid.2015.07.036
Compound 1: 1-ethyl-3-methyl-1H-imidazolium tricyanomethanide, C10H11N5, InChI=1S/C6H11N2.C4N3/c1-3-8-5-4-7(2)6-8;5-1-4(2-6)3-7/h4-6H,3H2,1-2H3;/q+1;-1, purity 99.5%
Compound 2: 1-butyl-3-methylimidazolium tricyanomethane, C12H15N5, InChI=1S/C8H15N2.C4N3/c1-3-4-5-10-7-6-9(2)8-10;5-1-4(2-6)3-7/h6-8H,3-5H2,1-2H3;/q+1;-1, purity 99.6%
Compound 3: 1-butyl-4-methylpyridinium tricyanomethanide, C14H16N4, InChI=1S/C10H16N.C4N3/c1-3-4-7-11-8-5-10(2)6-9-11;5-1-4(2-6)3-7/h5-6,8-9H,3-4,7H2,1-2H3;/q+1;-1, purity 99.1%
Compound 4: 1-butyl-1-methylpyrrolidinium tricyanomethanide, C13H20N4, InChI=1S/C9H20N.C4N3/c1-3-4-7-10(2)8-5-6-9-10;5-1-4(2-6)3-7/h3-9H2,1-2H3;/q+1;-1, purity 98.8%

System: 1-ethyl-3-methyl-1H-imidazolium tricyanomethanide; phases: Liquid
Fixed: Pressure, kPa = 100
Property: Mass density, kg/m3 (Liquid); method: single sinker densimeter
Temperature, K	Mass density, kg/m3	uncertainty
262.68	1106.12	0.68
268.65	1101.93	0.68
273.46	1098.21	0.68
278.14	1095.15	0.68
283.27	1091.23	0.68
288.08	1088.11	0.68
293.16	1084.64	0.68
298.19	1081	0.68
303.27	1077.46	0.68
308.21	1073.93	0.68
313.21	1070.64	0.68
318.2	1067.14	0.68
323.32	1063.82	0.68
327.9	1060.39	0.68
333.05	1057.29	0.68
338.17	1053.46	0.68
342.95	1050.5	0.68
348.05	1047.15	0.68
352.71	1043.86	0.68
358.12	1040.23	0.68
364.84	1035.96	0.68

System: 1-ethyl-3-methyl-1H-imidazolium tricyanomethanide; phases: Liquid, Air at 1 atmosphere
Property: Surface tension liquid-gas, N/m (Liquid); method: wilhelmy plate method
Temperature, K	Surface tension liquid-gas, N/m	uncertainty
283.22	0.05062	0.00023
288.01	0.05033	0.00023
293.19	0.04974	0.00023
298.15	0.0494	0.00023
303.07	0.04889	0.00022
308.19	0.04842	0.00022
313.19	0.04806	0.00022
318.16	0.04748	0.00022
323.3	0.04714	0.00022
327.9	0.0467	0.00022
333.4	0.04616	0.00022
338.24	0.04583	0.00022
343.21	0.04531	0.00022
347.98	0.04486	0.00022
352.89	0.04444	0.00022
358.44	0.04393	0.00022
365.23	0.04329	0.00022

System: 1-ethyl-3-methyl-1H-imidazolium tricyanomethanide; phases: Liquid, Air at 1 atmosphere
Property: Surface tension liquid-gas, N/m (Liquid); method: Ring tensiometer
Temperature, K	Surface tension liquid-gas, N/m	uncertainty
283.25	0.05071	0.00074
288.03	0.05029	0.00074
293.17	0.04961	0.00073
298.13	0.04945	0.00073
303.06	0.04887	0.00072
308.18	0.04837	0.00072
313.27	0.04799	0.00071
318.18	0.04744	0.00071
323.26	0.04686	0.0007
328.44	0.04665	0.0007
333.28	0.04624	0.0007
338.25	0.04572	0.00069
343.18	0.04539	0.00069
347.97	0.04469	0.00069
352.81	0.04455	0.00068
358.17	0.04406	0.00068
365.18	0.0433	0.00067

System: 1-butyl-3-methylimidazolium tricyanomethane; phases: Liquid
Fixed: Pressure, kPa = 100
Property: Mass density, kg/m3 (Liquid); method: single sinker densimeter
Temperature, K	Mass density, kg/m3	uncertainty
263.26	1070.82	0.76
269.08	1066.91	0.76
273.78	1063.83	0.76
278.56	1060.62	0.76
283.59	1057.2	0.76
289.01	1053.24	0.76
293.49	1050.25	0.76
298.32	1046.66	0.76
303.11	1043.29	0.76
308.19	1039.82	0.76
313.19	1036.12	0.76
317.92	1033.08	0.76
323.22	1029.57	0.76
327.93	1026.33	0.76
333.18	1023.17	0.76
337.71	1020.21	0.76
342.93	1017.05	0.76
347.75	1013.96	0.76
353.79	1010.61	0.76
357.16	1007.84	0.76
363.53	1003.69	0.76

System: 1-butyl-3-methylimidazolium tricyanomethane; phases: Liquid, Air at 1 atmosphere
Property: Surface tension liquid-gas, N/m (Liquid); method: wilhelmy plate method
Temperature, K	Surface tension liquid-gas, N/m	uncertainty
293.51	0.04985	0.00021
298.28	0.04963	0.00021
303.09	0.04927	0.00021
308.2	0.04894	0.00021
313.2	0.04861	0.00021
317.92	0.04828	0.00021
323.24	0.04784	0.00021
327.9	0.04761	0.00021
333.16	0.04718	0.00021
337.74	0.04686	0.00021
342.89	0.0465	0.00021
347.77	0.04624	0.00021
353.74	0.04578	0.00021
357.09	0.04552	0.00021
363.75	0.0452	0.00021

System: 1-butyl-3-methylimidazolium tricyanomethane; phases: Liquid, Air at 1 atmosphere
Property: Surface tension liquid-gas, N/m (Liquid); method: Ring tensiometer
Temperature, K	Surface tension liquid-gas, N/m	uncertainty
288.96	0.05037	0.00081
293.47	0.05015	0.00081
298.27	0.04994	0.0008
303.08	0.04958	0.0008
308.17	0.04921	0.0008
313.16	0.04884	0.00079
317.88	0.04853	0.00079
323.17	0.04819	0.00079
327.86	0.04784	0.00079
333.09	0.04747	0.00078
337.71	0.04698	0.00078
342.9	0.04668	0.00078
347.72	0.04635	0.00077
353.64	0.04619	0.00077
357.13	0.04531	0.00077
363.91	0.04514	0.00076

System: 1-butyl-4-methylpyridinium tricyanomethanide; phases: Liquid
Fixed: Pressure, kPa = 100
Property: Mass density, kg/m3 (Liquid); method: single sinker densimeter
Temperature, K	Mass density, kg/m3	uncertainty
263.45	1059.1	1.09
267.95	1056.28	1.09
273.54	1052.57	1.09
278.65	1048.92	1.09
283.37	1045.67	1.09
288.63	1042.4	1.09
293.52	1038.75	1.09
298.25	1035.8	1.09
303.03	1032.82	1.09
308.01	1029.21	1.09
313.21	1025.76	1.09
318.36	1022.75	1.09
323.38	1019.48	1.09
327.88	1016.44	1.09
332.98	1013.51	1.09
337.59	1010.37	1.09
342.27	1007.38	1.09
348.16	1003.72	1.09
353.42	1000.42	1.09
358.02	997.29	1.09
363.31	993.79	1.09

System: 1-butyl-4-methylpyridinium tricyanomethanide; phases: Liquid, Air at 1 atmosphere
Property: Surface tension liquid-gas, N/m (Liquid); method: wilhelmy plate method
Temperature, K	Surface tension liquid-gas, N/m	uncertainty
293.53	0.04949	0.00027
298.24	0.04918	0.00026
303.01	0.04876	0.00026
308.01	0.04835	0.00026
313.27	0.04789	0.00026
318.35	0.04744	0.00026
323.38	0.04712	0.00026
327.98	0.04665	0.00025
332.9	0.04621	0.00025
337.68	0.04588	0.00025
344.17	0.04537	0.00025
348.15	0.04503	0.00025
353.43	0.04452	0.00025
358.09	0.04417	0.00025
363.55	0.04366	0.00024

System: 1-butyl-4-methylpyridinium tricyanomethanide; phases: Liquid, Air at 1 atmosphere
Property: Surface tension liquid-gas, N/m (Liquid); method: Ring tensiometer
Temperature, K	Surface tension liquid-gas, N/m	uncertainty
288.6	0.0498	0.00082
293.53	0.04954	0.00082
298.25	0.04945	0.00082
303.02	0.0488	0.00082
307.98	0.04837	0.00081
313.22	0.04823	0.00081
318.3	0.04803	0.00081
323.41	0.04728	0.0008
327.86	0.0471	0.0008
332.94	0.04655	0.0008
337.57	0.04606	0.00079
344.19	0.04574	0.00079
348.14	0.04527	0.00078
353.35	0.04497	0.00078
358.06	0.04465	0.00078
363.37	0.04418	0.00078

System: 1-butyl-1-methylpyrrolidinium tricyanomethanide; phases: Liquid
Fixed: Pressure, kPa = 100
Property: Mass density, kg/m3 (Liquid); method: single sinker densimeter
Temperature, K	Mass density, kg/m3	uncertainty
263.25	1028.92	0.88
268.05	1026.15	0.88
274.1	1022.18	0.88
278.48	1019.29	0.88
283.44	1015.85	0.88
288.48	1012.68	0.88
292.96	1010.28	0.88
298.28	1006.87	0.88
303.21	1003.94	0.88
308.06	1000.78	0.88
313.19	997.8	0.88
317.91	995.05	0.88
323.17	991.69	0.88
328.28	988.81	0.88
333.1	985.27	0.88
337.77	982.59	0.88
343.16	979.77	0.88
347.27	977.15	0.88
353.46	973.98	0.88
358.07	970.73	0.88
364.38	967.59	0.88

System: 1-butyl-1-methylpyrrolidinium tricyanomethanide; phases: Liquid, Air at 1 atmosphere
Property: Surface tension liquid-gas, N/m (Liquid); method: wilhelmy plate method
Temperature, K	Surface tension liquid-gas, N/m	uncertainty
283.38	0.05136	0.00043
288.45	0.05096	0.00043
292.96	0.05068	0.00043
298.36	0.05023	0.00043
303.2	0.0501	0.00042
308.03	0.04959	0.00042
313.2	0.04894	0.00042
317.94	0.04874	0.00042
323.16	0.0483	0.00042
328.06	0.04788	0.00042
333.03	0.04755	0.00041
337.77	0.04721	0.00041
343.45	0.04674	0.00041
347.78	0.04641	0.00041
353.56	0.04601	0.00041
358.24	0.04564	0.00041
364.77	0.04517	0.0004

System: 1-butyl-1-methylpyrrolidinium tricyanomethanide; phases: Liquid, Air at 1 atmosphere
Property: Surface tension liquid-gas, N/m (Liquid); method: Ring tensiometer
Temperature, K	Surface tension liquid-gas, N/m	uncertainty
263.32	0.05296	0.00088
267.79	0.05264	0.00088
273.16	0.05222	0.00087
278.42	0.05203	0.00087
283.38	0.05173	0.00087
288.46	0.05149	0.00086
292.95	0.05108	0.00086
298.26	0.05033	0.00085
303.17	0.04982	0.00085
308.05	0.04988	0.00085
313.16	0.04927	0.00084
317.89	0.04885	0.00084
323.16	0.04836	0.00083
328.22	0.0482	0.00083
333.06	0.04781	0.00083
337.78	0.04744	0.00083
343.47	0.04714	0.00082
347.24	0.0468	0.00082
353.48	0.04651	0.00082
358.13	0.04625	0.00081
364.65	0.0458	0.00081
