Measured thermophysical data. Isobaric vapor liquid equilibria of 1,1-dimethylethoxy-butane + methanol or ethanol +water at 101.32 kPa
Source: Fluid Phase Equilib., 2007, 10.1016/j.fluid.2007.01.038
Compound 1: water, H2O, InChI=1S/H2O/h1H2
Compound 2: butane, 1-(1,1-dimethylethoxy)-, C8H18O, InChI=1S/C8H18O/c1-5-6-7-9-8(2,3)4/h5-7H2,1-4H3, purity 99.9%
Compound 3: methanol, CH4O, InChI=1S/CH4O/c1-2/h2H,1H3, purity 99.5%
Compound 4: ethanol, C2H6O, InChI=1S/C2H6O/c1-2-3/h3H,2H2,1H3, purity 99.5%

System: butane, 1-(1,1-dimethylethoxy)-; phases: Liquid, Gas
Property: Normal boiling temperature, K (Liquid); method: Ebulliometric method (Recirculating still)
Normal boiling temperature, K	uncertainty
395.65	0.1

System: butane, 1-(1,1-dimethylethoxy)-; phases: Liquid
Property: Refractive index (Na D-line) (Liquid); method: Standard Abbe refractometry
Temperature, K	Pressure, kPa	Refractive index (Na D-line)	uncertainty
298.15	101.325	1.3917	0.00072

System: butane, 1-(1,1-dimethylethoxy)-; phases: Liquid
Property: Mass density, kg/m3 (Liquid); method: VIBTUB:UFactor:2
Temperature, K	Pressure, kPa	Mass density, kg/m3	uncertainty
298.15	101.325	757.57	0.26

System: methanol; phases: Liquid, Gas
Property: Normal boiling temperature, K (Liquid); method: Ebulliometric method (Recirculating still)
Normal boiling temperature, K	uncertainty
337.5	0.1

System: methanol; phases: Liquid
Property: Refractive index (Na D-line) (Liquid); method: Standard Abbe refractometry
Temperature, K	Pressure, kPa	Refractive index (Na D-line)	uncertainty
298.15	101.325	1.3264	0.0007

System: methanol; phases: Liquid
Property: Mass density, kg/m3 (Liquid); method: VIBTUB:UFactor:4
Temperature, K	Pressure, kPa	Mass density, kg/m3	uncertainty
298.15	101.325	786.63	0.5

System: ethanol; phases: Liquid, Gas
Property: Normal boiling temperature, K (Liquid); method: Ebulliometric method (Recirculating still)
Normal boiling temperature, K	uncertainty
351.44	0.1

System: ethanol; phases: Liquid
Property: Refractive index (Na D-line) (Liquid); method: Standard Abbe refractometry
Temperature, K	Pressure, kPa	Refractive index (Na D-line)	uncertainty
298.15	101.325	1.3592	0.00073

System: ethanol; phases: Liquid
Property: Mass density, kg/m3 (Liquid); method: VIBTUB:UFactor:4
Temperature, K	Pressure, kPa	Mass density, kg/m3	uncertainty
298.15	101.325	785.22	0.5

System: ethanol + butane, 1-(1,1-dimethylethoxy)-; phases: Liquid, Gas
Fixed: Pressure, kPa = 101.3
Property: Boiling temperature at pressure P, K (Liquid); method: Ebulliometric method (Recirculating still)
Mole fraction of ethanol	Boiling temperature at pressure P, K	uncertainty
0.0444	387.26	0.97
0.0897	379.98	0.9
0.1557	370.67	0.72
0.2186	364.59	0.46
0.2887	360.54	0.29
0.3656	357.74	0.2
0.4229	356.57	0.15
0.4673	355.68	0.13
0.5804	354.19	0.12
0.6533	353.33	0.11
0.7074	352.83	0.1
0.7358	352.57	0.1
0.7736	352.28	0.1
0.8229	351.94	0.1
0.8459	351.78	0.1
0.8533	351.7	0.11
0.8833	351.55	0.09
0.8949	351.48	0.09
0.9092	351.43	0.09
0.9174	351.4	0.09
0.9268	351.37	0.09
0.9356	351.35	0.09
0.9442	351.32	0.09
0.9586	351.32	0.09
0.9653	351.34	0.09

System: ethanol + butane, 1-(1,1-dimethylethoxy)-; phases: Gas, Liquid
Fixed: Pressure, kPa = 101.3
Property: Mole fraction of ethanol (Gas); method: Density calibration data
Mole fraction of ethanol	Mole fraction of ethanol	uncertainty
0.0444	0.2866	0.0217
0.0897	0.4438	0.0183
0.1557	0.6109	0.0136
0.2186	0.7038	0.0089
0.2887	0.7545	0.0071
0.3656	0.7936	0.0065
0.4229	0.8051	0.0062
0.4673	0.8139	0.0062
0.5804	0.8411	0.0062
0.6533	0.8564	0.0062
0.7074	0.8646	0.0061
0.7358	0.8708	0.0062
0.7736	0.8792	0.0062
0.8229	0.8898	0.0063
0.8459	0.9025	0.0067
0.8533	0.9038	0.0061
0.8833	0.9148	0.0064
0.8949	0.9186	0.0064
0.9092	0.9246	0.0067
0.9174	0.9299	0.0071
0.9268	0.9354	0.0067
0.9356	0.9391	0.0069
0.9442	0.9451	0.0075
0.9586	0.9561	0.0078
0.9653	0.9629	0.0086

System: methanol + butane, 1-(1,1-dimethylethoxy)-; phases: Liquid, Gas
Fixed: Pressure, kPa = 101.3
Property: Boiling temperature at pressure P, K (Liquid); method: Ebulliometric method (Recirculating still)
Mole fraction of methanol	Boiling temperature at pressure P, K	uncertainty
0.0096	388.87	3.37
0.0291	377.92	2.75
0.0479	371.36	1.74
0.0832	362.06	1.04
0.1519	352.75	0.68
0.2116	347.64	0.36
0.2904	344.54	0.22
0.3449	343.17	0.16
0.3805	342.47	0.14
0.4168	341.88	0.12
0.4807	341.03	0.12
0.5198	340.6	0.11
0.5587	340.22	0.11
0.5834	340	0.1
0.6542	339.42	0.1
0.6982	339.09	0.1
0.7344	338.84	0.1
0.7693	338.61	0.1
0.8035	338.39	0.1
0.8284	338.23	0.1
0.8739	337.97	0.1
0.9101	337.78	0.09
0.9372	337.67	0.09
0.9485	337.63	0.09
0.9569	337.61	0.09
0.964	337.6	0.09
0.9704	337.6	0.09
0.9829	337.61	0.09
0.9909	337.64	0.09

System: methanol + butane, 1-(1,1-dimethylethoxy)-; phases: Gas, Liquid
Fixed: Pressure, kPa = 101.3
Property: Mole fraction of methanol (Gas); method: Density calibration data
Mole fraction of methanol	Mole fraction of methanol	uncertainty
0.0096	0.1751	0.0872
0.0291	0.4577	0.0652
0.0479	0.5887	0.0259
0.0832	0.694	0.0119
0.1519	0.7749	0.0083
0.2116	0.8141	0.0067
0.2904	0.8421	0.0063
0.3449	0.8545	0.0062
0.3805	0.8609	0.0061
0.4168	0.8666	0.0061
0.4807	0.8751	0.0061
0.5198	0.8798	0.0061
0.5587	0.8842	0.0061
0.5834	0.887	0.0061
0.6542	0.8949	0.0061
0.6982	0.9001	0.0061
0.7344	0.9047	0.0061
0.7693	0.9096	0.0061
0.8035	0.915	0.006
0.8284	0.9195	0.0061
0.8739	0.9295	0.0062
0.9101	0.9401	0.0063
0.9372	0.951	0.007
0.9485	0.9566	0.0068
0.9569	0.9614	0.007
0.964	0.966	0.007
0.9704	0.9705	0.0077
0.9829	0.981	0.008
0.9909	0.9891	0.0085

System: ethanol + butane, 1-(1,1-dimethylethoxy)- + water; phases: Liquid, Gas
Fixed: Pressure, kPa = 101.3
Property: Mole fraction of butane, 1-(1,1-dimethylethoxy)- (Liquid); method: Density calibration data
Property: Mole fraction of butane, 1-(1,1-dimethylethoxy)- (Gas); method: Density calibration data
Property: Mole fraction of ethanol (Gas); method: Density calibration data
Temperature, K	Mole fraction of ethanol	Mole fraction of butane, 1-(1,1-dimethylethoxy)-	uncertainty	Mole fraction of butane, 1-(1,1-dimethylethoxy)-	uncertainty	Mole fraction of ethanol	uncertainty
386.33	0.9354	0.0496	0.006	0.25	0.006	0.7051	
388.38	0.9403	0.0484	0.006	0.2042	0.006	0.7599	
374.54	0.8904	0.098	0.006	0.4098	0.0061	0.453	
377.84	0.9007	0.0826	0.006	0.3681	0.0061	0.5182	
380.92	0.9043	0.0791	0.006	0.3347	0.006	0.5741	
380.34	0.9043	0.0764	0.006	0.3351	0.006	0.5685	
371.07	0.8603	0.1179	0.006	0.5025	0.0061	0.3887	
367.34	0.855	0.117	0.006	0.5673	0.0061	0.3396	
363.35	0.7995	0.1682	0.006	0.6272	0.0061	0.3045	
361.13	0.7651	0.2033	0.006	0.7014	0.006	0.2574	
360.99	0.7679	0.1927	0.006	0.6909	0.006	0.2524	
359.7	0.7398	0.2237	0.006	0.7159	0.006	0.241	
360.25	0.7456	0.2116	0.006	0.7001	0.006	0.2469	
359.33	0.7236	0.2347	0.006	0.7242	0.006	0.2353	
356.8	0.6277	0.3403	0.006	0.775	0.006	0.2074	
354.82	0.6241	0.3115	0.006	0.6588	0.0061	0.1927	
353.92	0.6184	0.2965	0.006	0.589	0.0061	0.1909	
354.2	0.5586	0.3747	0.006	0.6953	0.0061	0.1836	
352.91	0.5424	0.3572	0.006	0.6082	0.0061	0.1759	
353.26	0.523	0.3934	0.006	0.6646	0.0061	0.1751	
354.18	0.5574	0.3705	0.006	0.6876	0.0061	0.1842	
354.77	0.5658	0.3678	0.006	0.7146	0.006	0.187	
354.51	0.5028	0.4462	0.006	0.7743	0.006	0.1791	
355.57	0.5596	0.3917	0.006	0.7773	0.006	0.1919	
354.57	0.4846	0.4733	0.006	0.8059	0.006	0.1778	
353.2	0.4597	0.4651	0.006	0.7222	0.006	0.1671	
352.59	0.4536	0.4455	0.006	0.6679	0.0061	0.1665	
351.45	0.4268	0.4033	0.006	0.5613	0.0062	0.1653	
351.44	0.3899	0.4585	0.006	0.6091	0.0061	0.1581	
351.66	0.3476	0.529	0.006	0.6733	0.0061	0.1507	
351.11	0.3335	0.4953	0.006	0.609	0.0061	0.1523	
350.77	0.32	0.4512	0.006	0.5454	0.0062	0.1557	
350.81	0.2978	0.4921	0.006	0.579	0.0062	0.1503	
350.96	0.268	0.5577	0.006	0.6336	0.0061	0.1431	
351.04	0.2462	0.6051	0.006	0.6784	0.0061	0.1356	
350.68	0.2283	0.5534	0.006	0.604	0.0061	0.1411	
350.57	0.2118	0.505	0.0061	0.5512	0.0062	0.1474	
350.54	0.2002	0.473	0.006	0.5209	0.0062	0.1528	
350.51	0.1717	0.5516	0.006	0.5785	0.0062	0.1385	
350.5	0.1519	0.6043	0.006	0.6202	0.0061	0.127	
350.54	0.1352	0.6485	0.006	0.6577	0.0061	0.1167	
350.45	0.1226	0.5956	0.006	0.6043	0.0061	0.1243	
350.47	0.1087	0.5311	0.0061	0.5536	0.0062	0.1362	
350.55	0.0993	0.4818	0.0061	0.5217	0.0062	0.1465	
350.53	0.087	0.5375	0.0061	0.5632	0.0062	0.1294	
350.56	0.0786	0.5776	0.006	0.5918	0.0062	0.1166	
350.59	0.0697	0.6212	0.006	0.6299	0.0061	0.1014	
350.67	0.0617	0.6601	0.006	0.6626	0.0061	0.0889	
350.71	0.0551	0.6936	0.006	0.6944	0.0061	0.0779	
350.82	0.0465	0.6104	0.006	0.6345	0.0061	0.0879	
350.97	0.0395	0.5409	0.0061	0.5953	0.0062	0.098	
351.09	0.034	0.4806	0.0061	0.5593	0.0062	0.1119	
351.03	0.036	0.4842	0.0061	0.5609	0.0062	0.1122	
351.63	0.2166	0.7318	0.006	0.8145	0.006	0.1244	
352.14	0.2957	0.6591	0.006	0.7977	0.006	0.1414	
353	0.3929	0.5678	0.006	0.7847	0.006	0.1594	
352.37	0.3842	0.5528	0.006	0.7363	0.006	0.1555	
351.56	0.3416	0.551	0.006	0.675	0.0061	0.1514	
351.59	0.3178	0.5858	0.006	0.7031	0.0061	0.147	
351.26	0.2745	0.6175	0.006	0.7007	0.0061	0.1402	
350.87	0.2239	0.6318	0.006	0.6767	0.0061	0.134	
350.92	0.1908	0.6868	0.006	0.7215	0.0061	0.1239	
350.98	0.1544	0.7479	0.006	0.7673	0.006	0.1112	
350.99	0.1226	0.7993	0.006	0.8097	0.006	0.0962	
351.01	0.1022	0.8345	0.006	0.8396	0.006	0.0861	
351.06	0.0877	0.8588	0.006	0.8628	0.006	0.0764	
350.72	0.0784	0.7828	0.006	0.7707	0.006	0.0808	
350.66	0.0746	0.7571	0.006	0.7446	0.0061	0.0822	
350.63	0.0703	0.7247	0.006	0.7154	0.0061	0.0844	
350.59	0.0941	0.7056	0.006	0.696	0.0061	0.0989	
350.57	0.1324	0.676	0.006	0.6738	0.0061	0.1157	
350.66	0.117	0.7175	0.006	0.7118	0.0061	0.1056	
350.53	0.1046	0.6551	0.006	0.6487	0.0061	0.1121	
351.38	0.144	0.8308	0.006	0.8725	0.006	0.101	
351.31	0.1185	0.8605	0.006	0.8864	0.006	0.0895	
351.18	0.0759	0.8995	0.006	0.9041	0.006	0.0676	
351.1	0.0565	0.9054	0.006	0.9022	0.006	0.0555	
351.01	0.0558	0.8861	0.006	0.8784	0.006	0.0568	
350.78	0.0491	0.7917	0.006	0.7788	0.006	0.0616	
350.75	0.0457	0.7501	0.006	0.7395	0.0061	0.0648	
351.4	0.001	0.9912	0.006	0.9895	0.006	0.0018	
351.32	0.0164	0.9761	0.006	0.9727	0.006	0.0191	
351.21	0.015	0.9391	0.006	0.9325	0.006	0.0183	
351.13	0.0162	0.9121	0.006	0.9032	0.006	0.0212	
350.86	0.0451	0.8308	0.006	0.8147	0.006	0.0553	

System: methanol + butane, 1-(1,1-dimethylethoxy)- + water; phases: Liquid, Gas
Fixed: Pressure, kPa = 101.3
Property: Mole fraction of butane, 1-(1,1-dimethylethoxy)- (Liquid); method: Density calibration data
Property: Mole fraction of butane, 1-(1,1-dimethylethoxy)- (Gas); method: Density calibration data
Property: Mole fraction of methanol (Gas); method: Density calibration data
Temperature, K	Mole fraction of methanol	Mole fraction of butane, 1-(1,1-dimethylethoxy)-	uncertainty	Mole fraction of butane, 1-(1,1-dimethylethoxy)-	uncertainty	Mole fraction of methanol	uncertainty
337.65	0.0045	0.9877	0.006	0.9925	0.006	0.0053	
337.74	0.0457	0.9428	0.006	0.9574	0.006	0.0393	
337.75	0.044	0.9262	0.006	0.9495	0.006	0.0397	
338.02	0.0094	0.9581	0.006	0.9761	0.006	0.0121	
338.12	0.0821	0.877	0.006	0.9196	0.006	0.0614	
338.38	0.0425	0.8975	0.006	0.9328	0.006	0.0434	
338.49	0.1096	0.8363	0.006	0.8995	0.006	0.0723	
338.76	0.1657	0.797	0.006	0.8953	0.006	0.0818	
338.85	0.0898	0.832	0.006	0.8912	0.006	0.0704	
339.01	0.0088	0.9035	0.006	0.9532	0.006	0.0142	
339.02	0.0401	0.8557	0.006	0.9072	0.006	0.049	
339.16	0.2227	0.7421	0.006	0.8855	0.006	0.0893	
339.21	0.1489	0.7776	0.006	0.8725	0.006	0.0842	
339.32	0.1112	0.7933	0.006	0.8678	0.006	0.0806	
339.41	0.3195	0.6458	0.006	0.8808	0.006	0.0954	
339.76	0.0428	0.8126	0.006	0.8792	0.006	0.0587	
339.79	0.0109	0.8401	0.006	0.9207	0.006	0.0219	
339.97	0.0867	0.7622	0.006	0.8409	0.006	0.0839	
340.07	0.2159	0.6859	0.006	0.8311	0.006	0.0988	
340.18	0.3136	0.625	0.006	0.8512	0.006	0.0997	
340.22	0.115	0.737	0.006	0.8273	0.006	0.0919	
340.23	0.3755	0.5836	0.006	0.8648	0.006	0.1009	
340.29	0.04	0.7717	0.006	0.8561	0.006	0.0636	
340.37	0.1482	0.7068	0.006	0.8139	0.006	0.0989	
340.42	0.2811	0.6268	0.006	0.8244	0.006	0.1032	
340.48	0.2013	0.6599	0.006	0.8024	0.006	0.1039	
340.69	0.3237	0.5876	0.006	0.8161	0.006	0.1068	
340.72	0.1501	0.6716	0.006	0.7876	0.006	0.1059	
340.92	0.0371	0.7299	0.006	0.8265	0.006	0.0732	
340.94	0.1149	0.6853	0.006	0.788	0.006	0.1037	
340.96	0.4851	0.4851	0.006	0.8676	0.006	0.1061	
340.97	0.2969	0.5745	0.006	0.7875	0.006	0.1101	
341.09	0.0743	0.6914	0.006	0.785	0.006	0.1006	
341.11	0.1994	0.629	0.006	0.7731	0.006	0.1114	
341.18	0.1042	0.6708	0.006	0.7748	0.006	0.108	
341.23	0.3429	0.54	0.006	0.7821	0.006	0.1129	
341.28	0.1292	0.6488	0.006	0.7648	0.006	0.1114	
341.39	0.1709	0.6267	0.006	0.7601	0.006	0.1145	
341.42	0.0572	0.6752	0.006	0.777	0.006	0.1012	
341.43	0.0343	0.6901	0.006	0.8016	0.006	0.0821	
341.46	0.0833	0.6551	0.006	0.7588	0.006	0.111	
341.52	0.4762	0.4585	0.006	0.8062	0.006	0.1148	
341.57	0.552	0.4137	0.006	0.8473	0.006	0.1122	
341.75	0.1691	0.6297	0.006	0.7422	0.006	0.119	
341.77	0.0478	0.6414	0.006	0.7642	0.006	0.1102	
341.83	0.036	0.6494	0.006	0.7694	0.006	0.0972	
341.87	0.0263	0.6346	0.006	0.776	0.006	0.0906	
342.1	0.0285	0.6231	0.006	0.756	0.006	0.1004	
342.27	0.5574	0.3797	0.006	0.7936	0.006	0.1184	
342.29	0.6338	0.3257	0.006	0.7966	0.006	0.1336	
343.37	0.6799	0.2987	0.006	0.8587	0.006	0.1353	
344.32	0.7182	0.2596	0.006	0.8499	0.006	0.143	
345.63	0.7617	0.2152	0.006	0.8376	0.006	0.1545	
347.33	0.7915	0.1816	0.006	0.8161	0.006	0.1701	
349.16	0.8439	0.1371	0.006	0.7444	0.006	0.227	
356.27	0.8855	0.0985	0.006	0.6272	0.0061	0.3233	
364.7	0.9193	0.0695	0.006	0.5475	0.0061	0.3465	
