Measured thermophysical data. Partitioning of Co2+ and Mn2+ into meridianiite (MgSO4.11H2O): Ternary solubility diagrams at 270 K; cation site distribution determined by single-crystal time-of-flight neutron diffraction and density functional theory
Source: Fluid Phase Equilib., 2017, 10.1016/j.fluid.2017.01.005
Compound 1: magnesium sulfate, MgO4S, InChI=1S/Mg.H2O4S/c;1-5(2,3)4/h;(H2,1,2,3,4)/q+2;/p-2
Compound 2: cobalt(II) sulfate, CoO4S, InChI=1S/Co.H2O4S/c;1-5(2,3)4/h;(H2,1,2,3,4)/q+2;/p-2
Compound 3: water, H2O, InChI=1S/H2O/h1H2, purity 99.8%
Compound 4: manganese(II) sulfate, MnO4S, InChI=1S/Mn.H2O4S/c;1-5(2,3)4/h;(H2,1,2,3,4)/q+2;/p-2

System: magnesium sulfate + cobalt(II) sulfate + water; phases: Liquid, Crystal of intercomponent compound 1
Fixed: Temperature, K = 270
Fixed: Pressure, kPa = 101
Property: Mass fraction of cobalt(II) sulfate (Liquid); method: Evaporation of water
Mass fraction of magnesium sulfate	Mass fraction of cobalt(II) sulfate	uncertainty
0.1714	0.012	0.0001
0.1607	0.0232	0.0001
0.1593	0.0251	0.0001
0.1523	0.0374	0.0001
0.144	0.0485	0.0002
0.1449	0.0475	0.0002
0.1459	0.0465	0.0001
0.1404	0.0513	0.0002
0.134	0.0629	0.0002
0.1271	0.0731	0.0002
0.1087	0.0991	0.0003
0.0906	0.1243	0.0004
0.0853	0.1214	0.0004

System: magnesium sulfate + cobalt(II) sulfate + water; phases: Liquid, Crystal of intercomponent compound 2
Fixed: Temperature, K = 270
Fixed: Pressure, kPa = 101
Property: Mass fraction of cobalt(II) sulfate (Liquid); method: Evaporation of water
Mass fraction of magnesium sulfate	Mass fraction of cobalt(II) sulfate	uncertainty
0.0804	0.1325	0.0004
0.1019	0.1277	0.0004
0.0662	0.1495	0.0005
0.0506	0.1619	0.0005
0.05	0.1625	0.0005
0.0493	0.1631	0.0005
0.0282	0.1848	0.0006
0.0003	0.187	0.0006

System: magnesium sulfate + manganese(II) sulfate + water; phases: Liquid, Crystal of intercomponent compound 1
Fixed: Temperature, K = 270
Fixed: Pressure, kPa = 101
Property: Mass fraction of manganese(II) sulfate (Liquid); method: Evaporation of water
Mass fraction of magnesium sulfate	Mass fraction of manganese(II) sulfate	uncertainty
0.1714	0.0301	0.0001
0.1563	0.0682	0.0002
0.1565	0.068	0.0002
0.1568	0.0678	0.0002
0.1443	0.0811	0.0002
0.1499	0.0994	0.0003
0.104	0.179	0.001
0.102	0.181	0.001
0.104	0.179	0.001
