Measured thermophysical data. A study on the liquid liquid equilibria of 1-alkyl-3-methylimidazolium hexafluorophosphate with ethanol and alkanes
Source: Fluid Phase Equilib., 2008, 10.1016/j.fluid.2008.06.003
Compound 1: hexane, C6H14, InChI=1S/C6H14/c1-3-5-6-4-2/h3-6H2,1-2H3, purity 99%
Compound 2: heptane, C7H16, InChI=1S/C7H16/c1-3-5-7-6-4-2/h3-7H2,1-2H3, purity 99%
Compound 3: ethanol, C2H6O, InChI=1S/C2H6O/c1-2-3/h3H,2H2,1H3, purity 99.8%
Compound 4: 1-hexyl-3-methylimidazolium hexafluorophosphate, C10H19F6N2P, InChI=1S/C10H19N2.F6P/c1-3-4-5-6-7-12-9-8-11(2)10-12;1-7(2,3,4,5)6/h8-10H,3-7H2,1-2H3;/q+1;-1
Compound 5: 1-octyl-3-methylimidazolium hexafluorophosphate, C12H23F6N2P, InChI=1S/C12H23N2.F6P/c1-3-4-5-6-7-8-9-14-11-10-13(2)12-14;1-7(2,3,4,5)6/h10-12H,3-9H2,1-2H3;/q+1;-1

System: hexane; phases: Liquid
Property: Refractive index (Na D-line) (Liquid); method: Standard Abbe refractometry
Temperature, K	Pressure, kPa	Refractive index (Na D-line)	uncertainty
298.15	101.325	1.37217	0.00037

System: hexane; phases: Liquid
Property: Mass density, kg/m3 (Liquid); method: VIBTUB:UFactor:6
Temperature, K	Pressure, kPa	Mass density, kg/m3	uncertainty
298.15	101.325	654.9	1.1

System: heptane; phases: Liquid
Property: Refractive index (Na D-line) (Liquid); method: Standard Abbe refractometry
Temperature, K	Pressure, kPa	Refractive index (Na D-line)	uncertainty
298.15	101.325	1.38517	0.00037

System: heptane; phases: Liquid
Property: Mass density, kg/m3 (Liquid); method: VIBTUB:UFactor:6
Temperature, K	Pressure, kPa	Mass density, kg/m3	uncertainty
298.15	101.325	679.5	1

System: ethanol; phases: Liquid
Property: Refractive index (Na D-line) (Liquid); method: Standard Abbe refractometry
Temperature, K	Pressure, kPa	Refractive index (Na D-line)	uncertainty
298.15	101.325	1.35929	0.00031

System: ethanol; phases: Liquid
Property: Mass density, kg/m3 (Liquid); method: VIBTUB:UFactor:2
Temperature, K	Pressure, kPa	Mass density, kg/m3	uncertainty
298.15	101.325	785.1	0.5

System: 1-hexyl-3-methylimidazolium hexafluorophosphate; phases: Liquid
Property: Refractive index (Na D-line) (Liquid); method: Standard Abbe refractometry
Temperature, K	Pressure, kPa	Refractive index (Na D-line)	uncertainty
298.15	101.325	1.41787	0.00105

System: 1-hexyl-3-methylimidazolium hexafluorophosphate; phases: Liquid
Property: Mass density, kg/m3 (Liquid); method: Vibrating tube method
Temperature, K	Pressure, kPa	Mass density, kg/m3	uncertainty
298.15	101.325	1293.7	9.1

System: 1-octyl-3-methylimidazolium hexafluorophosphate; phases: Liquid
Property: Refractive index (Na D-line) (Liquid); method: Standard Abbe refractometry
Temperature, K	Pressure, kPa	Refractive index (Na D-line)	uncertainty
298.15	101.325	1.42302	0.00105

System: 1-octyl-3-methylimidazolium hexafluorophosphate; phases: Liquid
Property: Mass density, kg/m3 (Liquid); method: Vibrating tube method
Temperature, K	Pressure, kPa	Mass density, kg/m3	uncertainty
298.15	101.325	1235.7	8.3

System: ethanol + hexane + 1-hexyl-3-methylimidazolium hexafluorophosphate; phases: Liquid mixture 1, Liquid mixture 2
Fixed: Pressure, kPa = 101
Fixed: Temperature, K = 298.15
Property: Mole fraction of ethanol (Liquid mixture 1); method: Density calibration data
Property: Mole fraction of hexane (Liquid mixture 2); method: Density calibration data
Property: Mole fraction of ethanol (Liquid mixture 2); method: Density calibration data
Mole fraction of hexane	Mole fraction of ethanol	uncertainty	Mole fraction of hexane	uncertainty	Mole fraction of ethanol	uncertainty
0.976	0.024	0.014	0.031	0.01	0.248	
0.95	0.049	0.014	0.042	0.01	0.318	
0.872	0.128	0.014	0.051	0.01	0.374	
0.713	0.287	0.014	0.051	0.01	0.435	
0.55	0.45	0.014	0.052	0.01	0.458	
0.417	0.583	0.014	0.052	0.01	0.484	
0.313	0.686	0.014	0.052	0.01	0.501	
0.231	0.766	0.014	0.052	0.01	0.527	
0.174	0.822	0.014	0.052	0.01	0.552	
0.135	0.859	0.014	0.052	0.01	0.633	
0.082	0.906	0.013	0.052	0.01	0.703	
0.063	0.92	0.012	0.052	0.01	0.725	
0.046	0.929	0.011	0.052	0.01	0.752	

System: ethanol + hexane + 1-octyl-3-methylimidazolium hexafluorophosphate; phases: Liquid mixture 1, Liquid mixture 2
Fixed: Pressure, kPa = 101
Fixed: Temperature, K = 298.15
Property: Mole fraction of ethanol (Liquid mixture 1); method: Density calibration data
Property: Mole fraction of hexane (Liquid mixture 2); method: Density calibration data
Property: Mole fraction of ethanol (Liquid mixture 2); method: Density calibration data
Mole fraction of hexane	Mole fraction of ethanol	uncertainty	Mole fraction of hexane	uncertainty	Mole fraction of ethanol	uncertainty
0.998	0.001	0.001	0.131	0.01	0.204	
0.983	0.017	0.014	0.132	0.01	0.257	
0.959	0.041	0.014	0.135	0.01	0.306	
0.921	0.078	0.014	0.135	0.01	0.362	
0.871	0.129	0.014	0.135	0.01	0.419	
0.833	0.166	0.014	0.136	0.01	0.442	
0.743	0.257	0.014	0.136	0.01	0.497	
0.678	0.322	0.014	0.138	0.01	0.516	
0.596	0.403	0.014	0.144	0.01	0.539	
0.542	0.457	0.014	0.147	0.01	0.546	
0.476	0.523	0.014	0.146	0.01	0.574	
0.371	0.625	0.014	0.145	0.01	0.589	
0.315	0.679	0.014	0.145	0.01	0.619	
0.274	0.719	0.014	0.145	0.01	0.643	
0.249	0.741	0.013	0.143	0.01	0.668	
0.208	0.776	0.013	0.143	0.01	0.704	

System: ethanol + heptane + 1-octyl-3-methylimidazolium hexafluorophosphate; phases: Liquid mixture 1, Liquid mixture 2
Fixed: Pressure, kPa = 101
Fixed: Temperature, K = 298.15
Property: Mole fraction of ethanol (Liquid mixture 1); method: Density calibration data
Property: Mole fraction of heptane (Liquid mixture 2); method: Density calibration data
Property: Mole fraction of ethanol (Liquid mixture 2); method: Density calibration data
Mole fraction of heptane	Mole fraction of ethanol	uncertainty	Mole fraction of heptane	uncertainty	Mole fraction of ethanol	uncertainty
0.989	0.011	0.011	0.099	0.01	0.252	
0.954	0.046	0.014	0.099	0.01	0.325	
0.915	0.084	0.014	0.099	0.01	0.385	
0.876	0.124	0.014	0.1	0.01	0.441	
0.806	0.193	0.014	0.1	0.01	0.493	
0.734	0.266	0.014	0.1	0.01	0.532	
0.663	0.336	0.014	0.102	0.01	0.564	
0.609	0.39	0.014	0.102	0.01	0.581	
0.512	0.487	0.014	0.103	0.01	0.603	
0.436	0.562	0.014	0.104	0.01	0.619	
0.368	0.63	0.014	0.103	0.01	0.642	
0.29	0.706	0.014	0.103	0.01	0.668	
0.23	0.763	0.014	0.106	0.01	0.697	
0.187	0.799	0.012	0.108	0.01	0.728	
0.15	0.816	0.011	0.112	0.01	0.767	
