Measured thermophysical data. Vapor liquid equilibria in the ternary system isobutyl alcohol + isobutyl acetate + butyl propionate and the binary systems isobutyl alcohol + butyl propionate, isobutyl acetate + butyl propionate at 101.3 kPa
Source: Fluid Phase Equilib., 2005, 10.1016/j.fluid.2005.09.015
Compound 1: 2-methyl-1-propanol, C4H10O, InChI=1S/C4H10O/c1-4(2)3-5/h4-5H,3H2,1-2H3, purity 99.5%
Compound 2: 2-methylpropyl ethanoate, C6H12O2, InChI=1S/C6H12O2/c1-5(2)4-8-6(3)7/h5H,4H2,1-3H3, purity 99%
Compound 3: butyl propanoate, C7H14O2, InChI=1S/C7H14O2/c1-3-5-6-9-7(8)4-2/h3-6H2,1-2H3, purity 99%

System: 2-methyl-1-propanol; phases: Liquid
Property: Refractive index (Na D-line) (Liquid); method: Standard Abbe refractometry
Temperature, K	Pressure, kPa	Refractive index (Na D-line)	uncertainty
298.15	101.325	1.3938	0.0007

System: 2-methyl-1-propanol; phases: Liquid
Property: Mass density, kg/m3 (Liquid); method: VIBTUB:UFactor:4
Temperature, K	Pressure, kPa	Mass density, kg/m3	uncertainty
298.15	101.325	797.83	0.61

System: 2-methyl-1-propanol; phases: Liquid, Gas
Property: Vapor or sublimation pressure, kPa (Liquid); method: EBULLIO:UFactor:4
Temperature, K	Vapor or sublimation pressure, kPa	uncertainty
381.09	101.3	0.2

System: 2-methylpropyl ethanoate; phases: Liquid
Property: Refractive index (Na D-line) (Liquid); method: Standard Abbe refractometry
Temperature, K	Pressure, kPa	Refractive index (Na D-line)	uncertainty
298.15	101.325	1.3876	0.0008

System: 2-methylpropyl ethanoate; phases: Liquid
Property: Mass density, kg/m3 (Liquid); method: VIBTUB:UFactor:4
Temperature, K	Pressure, kPa	Mass density, kg/m3	uncertainty
293.15	101.325	866.12	0.62

System: 2-methylpropyl ethanoate; phases: Liquid, Gas
Property: Vapor or sublimation pressure, kPa (Liquid); method: EBULLIO:UFactor:4
Temperature, K	Vapor or sublimation pressure, kPa	uncertainty
389.9	101.3	0.3

System: butyl propanoate; phases: Liquid
Property: Refractive index (Na D-line) (Liquid); method: Standard Abbe refractometry
Temperature, K	Pressure, kPa	Refractive index (Na D-line)	uncertainty
298.15	101.325	1.3992	0.0008

System: butyl propanoate; phases: Liquid
Property: Mass density, kg/m3 (Liquid); method: VIBTUB:UFactor:4
Temperature, K	Pressure, kPa	Mass density, kg/m3	uncertainty
298.15	101.325	870.88	0.61

System: butyl propanoate; phases: Liquid, Gas
Property: Vapor or sublimation pressure, kPa (Liquid); method: Ebulliometric method (Recirculating still)
Temperature, K	Vapor or sublimation pressure, kPa	uncertainty
351.45	10.05	0.2
354.71	11.53	0.2
358.01	13.2	0.2
361.34	15.08	0.2
364.68	17.19	0.2
368.74	20.08	0.2
372.54	23.14	0.2
375.16	25.46	0.2
378.74	28.93	0.2
382.73	33.27	0.2
386.68	38.05	0.21
390.43	43.11	0.21
393.84	48.17	0.21
396.25	52.03	0.21
398.92	56.6	0.21
401.62	61.52	0.21
404.33	66.82	0.22
406.88	72.14	0.22
408.98	76.78	0.22
411.18	81.88	0.22
413.11	86.55	0.22
414.45	89.91	0.23
416.72	95.9	0.23
418.62	101.12	0.23
418.66	101.24	0.23
418.69	101.3	0.2
418.74	101.38	0.23
420.18	105.6	0.23
421.95	110.85	0.24

System: 2-methyl-1-propanol + butyl propanoate; phases: Liquid, Gas
Fixed: Pressure, kPa = 101.3
Property: Boiling temperature at pressure P, K (Liquid); method: EBULLIO:UFactor:4
Mole fraction of 2-methyl-1-propanol	Boiling temperature at pressure P, K	uncertainty
0	418.69	0.13
0.033	415.26	0.22
0.082	411.13	0.21
0.125	407.58	0.19
0.191	403.29	0.18
0.225	401.48	0.16
0.283	398.52	0.16
0.339	396.18	0.15
0.399	393.85	0.15
0.445	392.19	0.14
0.505	390.37	0.14
0.579	388.41	0.14
0.634	387.09	0.13
0.686	385.96	0.13
0.74	384.9	0.13
0.79	383.98	0.13
0.842	383.1	0.13
0.888	382.34	0.13
0.932	381.69	0.13
0.97	381.15	0.13
1	381.09	0.12

System: 2-methyl-1-propanol + butyl propanoate; phases: Gas, Liquid
Fixed: Pressure, kPa = 101.3
Property: Mole fraction of 2-methyl-1-propanol (Gas); method: CHROM:UFactor:4
Mole fraction of 2-methyl-1-propanol	Mole fraction of 2-methyl-1-propanol	uncertainty
0	0	0.001
0.033	0.12	0.008
0.082	0.27	0.011
0.125	0.363	0.014
0.191	0.485	0.019
0.225	0.532	0.018
0.283	0.599	0.015
0.339	0.653	0.013
0.399	0.705	0.011
0.445	0.738	0.01
0.505	0.777	0.009
0.579	0.814	0.007
0.634	0.842	0.006
0.686	0.865	0.005
0.74	0.889	0.004
0.79	0.91	0.004
0.842	0.931	0.003
0.888	0.951	0.003
0.932	0.97	0.002
0.97	0.987	0.002
1	1	0.001

System: 2-methylpropyl ethanoate + butyl propanoate; phases: Liquid, Gas
Fixed: Pressure, kPa = 101.3
Property: Boiling temperature at pressure P, K (Liquid); method: EBULLIO:UFactor:4
Mole fraction of 2-methylpropyl ethanoate	Boiling temperature at pressure P, K	uncertainty
0	418.69	0.13
0.046	417.1	0.15
0.082	415.82	0.15
0.134	413.8	0.15
0.187	411.78	0.15
0.264	409.16	0.15
0.331	406.82	0.15
0.374	405.44	0.14
0.408	404.48	0.14
0.468	402.78	0.14
0.53	401.11	0.14
0.573	399.86	0.14
0.621	398.54	0.14
0.71	396.26	0.14
0.763	394.96	0.14
0.816	393.74	0.14
0.859	392.76	0.14
0.905	391.74	0.14
0.944	390.85	0.14
0.978	390.16	0.13
1	389.9	0.13

System: 2-methylpropyl ethanoate + butyl propanoate; phases: Gas, Liquid
Fixed: Pressure, kPa = 101.3
Property: Mole fraction of 2-methylpropyl ethanoate (Gas); method: CHROM:UFactor:4
Mole fraction of 2-methylpropyl ethanoate	Mole fraction of 2-methylpropyl ethanoate	uncertainty
0	0	0.001
0.046	0.095	0.006
0.082	0.163	0.007
0.134	0.256	0.01
0.187	0.346	0.013
0.264	0.445	0.017
0.331	0.531	0.018
0.374	0.576	0.016
0.408	0.616	0.015
0.468	0.67	0.013
0.53	0.719	0.011
0.573	0.756	0.01
0.621	0.795	0.008
0.71	0.853	0.006
0.763	0.884	0.005
0.816	0.914	0.004
0.859	0.936	0.003
0.905	0.958	0.003
0.944	0.976	0.002
0.978	0.991	0.002
1	1	0.001

System: 2-methyl-1-propanol + 2-methylpropyl ethanoate + butyl propanoate; phases: Gas, Liquid
Fixed: Pressure, kPa = 101.3
Property: Mole fraction of 2-methylpropyl ethanoate (Gas); method: CHROM:UFactor:4
Property: Mole fraction of 2-methylpropyl ethanoate (Liquid); method: CHROM:UFactor:4
Property: Mole fraction of 2-methyl-1-propanol (Liquid); method: CHROM:UFactor:4
Temperature, K	Mole fraction of 2-methyl-1-propanol	Mole fraction of 2-methylpropyl ethanoate	uncertainty	Mole fraction of 2-methylpropyl ethanoate	uncertainty	Mole fraction of 2-methyl-1-propanol	uncertainty
381.48	0.922	0.055	0.003	0.053	0.003	0.891	
381.94	0.669	0.314	0.012	0.353	0.011	0.601	
382.36	0.858	0.1	0.004	0.101	0.004	0.794	
382.37	0.772	0.19	0.007	0.201	0.006	0.699	
383.47	0.599	0.364	0.014	0.407	0.013	0.493	
383.51	0.489	0.495	0.019	0.562	0.014	0.393	
384.45	0.727	0.195	0.007	0.205	0.006	0.595	
384.9	0.842	0.056	0.003	0.056	0.003	0.697	
385.27	0.414	0.552	0.017	0.608	0.012	0.299	
385.35	0.636	0.283	0.011	0.301	0.009	0.486	
385.93	0.289	0.697	0.012	0.767	0.007	0.194	
386.01	0.538	0.382	0.014	0.406	0.013	0.388	
386.23	0.771	0.104	0.004	0.103	0.004	0.591	
387.2	0.669	0.201	0.008	0.201	0.006	0.479	
387.22	0.44	0.482	0.018	0.504	0.015	0.295	
387.64	0.304	0.646	0.014	0.675	0.01	0.195	
387.92	0.576	0.296	0.011	0.297	0.009	0.39	
389.02	0.171	0.793	0.008	0.808	0.006	0.103	
389.13	0.089	0.898	0.004	0.914	0.003	0.052	
389.38	0.467	0.403	0.015	0.395	0.012	0.291	
389.74	0.61	0.213	0.008	0.203	0.006	0.386	
389.99	0.74	0.055	0.003	0.051	0.003	0.48	
390.64	0.332	0.546	0.017	0.524	0.015	0.194	
391.27	0.179	0.734	0.01	0.701	0.009	0.099	
391.28	0.498	0.316	0.012	0.292	0.009	0.29	
391.9	0.654	0.111	0.004	0.1	0.004	0.387	
392.9	0.353	0.467	0.018	0.42	0.013	0.192	
393.54	0.19	0.669	0.013	0.597	0.013	0.098	
393.57	0.528	0.225	0.008	0.195	0.006	0.283	
393.71	0.107	0.772	0.009	0.688	0.01	0.055	
395.37	0.377	0.372	0.014	0.311	0.01	0.189	
396.02	0.202	0.587	0.016	0.487	0.015	0.097	
396.68	0.59	0.066	0.003	0.052	0.003	0.288	
398.06	0.404	0.265	0.01	0.205	0.006	0.185	
398.14	0.135	0.619	0.015	0.485	0.015	0.061	
398.54	0.214	0.501	0.019	0.387	0.012	0.097	
400.77	0.433	0.143	0.005	0.102	0.004	0.184	
401.35	0.228	0.401	0.015	0.285	0.009	0.094	
404	0.249	0.284	0.011	0.187	0.006	0.094	
405.6	0.112	0.413	0.016	0.266	0.008	0.042	
406.8	0.268	0.153	0.006	0.095	0.003	0.097	
412.86	0.136	0.09	0.004	0.048	0.002	0.043	
