Measured thermophysical data. Viscosities and densities for binary mixtures of N-methylpiperazine with methanol, ethanol, n-propanol, iso-propanol, n-butanol and iso-butanol at 293.15, 298.15 and 303.15K
Source: Fluid Phase Equilib., 2005, 10.1016/j.fluid.2005.05.012
Compound 1: methanol, CH4O, InChI=1S/CH4O/c1-2/h2H,1H3, purity 99.8%
Compound 2: ethanol, C2H6O, InChI=1S/C2H6O/c1-2-3/h3H,2H2,1H3, purity 99.8%
Compound 3: propan-1-ol, C3H8O, InChI=1S/C3H8O/c1-2-3-4/h4H,2-3H2,1H3, purity 99.5%
Compound 4: propan-2-ol, C3H8O, InChI=1S/C3H8O/c1-3(2)4/h3-4H,1-2H3, purity 99.5%
Compound 5: butan-1-ol, C4H10O, InChI=1S/C4H10O/c1-2-3-4-5/h5H,2-4H2,1H3, purity 99.8%
Compound 6: 2-methyl-1-propanol, C4H10O, InChI=1S/C4H10O/c1-4(2)3-5/h4-5H,3H2,1-2H3, purity 99.5%
Compound 7: N-methylpiperazine, C5H12N2, InChI=1S/C5H12N2/c1-7-4-2-6-3-5-7/h6H,2-5H2,1H3, purity 99.8%

System: methanol; phases: Liquid
Fixed: Pressure, kPa = 101.325
Property: Viscosity, Pa*s (Liquid); method: CAPTUB:UFactor:2
Temperature, K	Viscosity, Pa*s	uncertainty
293.15	0.000593	8e-06
298.15	0.000551	8e-06
303.15	0.000509	8e-06

System: methanol; phases: Liquid
Fixed: Pressure, kPa = 101.325
Property: Mass density, kg/m3 (Liquid); method: VIBTUB:UFactor:4
Temperature, K	Mass density, kg/m3	uncertainty
293.15	791.09	0.59
298.15	786.48	0.6
303.15	781.22	0.61

System: ethanol; phases: Liquid
Fixed: Pressure, kPa = 101.325
Property: Viscosity, Pa*s (Liquid); method: CAPTUB:UFactor:2
Temperature, K	Viscosity, Pa*s	uncertainty
293.15	0.00117	1.4e-05
298.15	0.001078	1.3e-05
303.15	0.000982	1.2e-05

System: ethanol; phases: Liquid
Fixed: Pressure, kPa = 101.325
Property: Mass density, kg/m3 (Liquid); method: VIBTUB:UFactor:4
Temperature, K	Mass density, kg/m3	uncertainty
293.15	789.32	0.59
298.15	785.06	0.6
303.15	780.68	0.61

System: propan-1-ol; phases: Liquid
Fixed: Pressure, kPa = 101.325
Property: Viscosity, Pa*s (Liquid); method: CAPTUB:UFactor:2
Temperature, K	Viscosity, Pa*s	uncertainty
293.15	0.002194	2.5e-05
298.15	0.001945	2.3e-05
303.15	0.00173	2e-05

System: propan-1-ol; phases: Liquid
Fixed: Pressure, kPa = 101.325
Property: Mass density, kg/m3 (Liquid); method: VIBTUB:UFactor:4
Temperature, K	Mass density, kg/m3	uncertainty
293.15	803.79	0.56
298.15	799.74	0.57
303.15	795.68	0.58

System: propan-2-ol; phases: Liquid
Fixed: Pressure, kPa = 101.325
Property: Viscosity, Pa*s (Liquid); method: CAPTUB:UFactor:2
Temperature, K	Viscosity, Pa*s	uncertainty
293.15	0.002405	2.8e-05
298.15	0.002062	2.4e-05
303.15	0.001782	2.1e-05

System: propan-2-ol; phases: Liquid
Fixed: Pressure, kPa = 101.325
Property: Mass density, kg/m3 (Liquid); method: VIBTUB:UFactor:4
Temperature, K	Mass density, kg/m3	uncertainty
293.15	785.84	0.6
298.15	781.3	0.61
303.15	777.41	0.61

System: butan-1-ol; phases: Liquid
Fixed: Pressure, kPa = 101.325
Property: Viscosity, Pa*s (Liquid); method: CAPTUB:UFactor:2
Temperature, K	Viscosity, Pa*s	uncertainty
293.15	0.002938	3.3e-05
298.15	0.002572	2.9e-05
303.15	0.002271	2.6e-05

System: butan-1-ol; phases: Liquid
Fixed: Pressure, kPa = 101.325
Property: Mass density, kg/m3 (Liquid); method: VIBTUB:UFactor:4
Temperature, K	Mass density, kg/m3	uncertainty
293.15	809.97	0.55
298.15	806.15	0.56
303.15	802.14	0.57

System: 2-methyl-1-propanol; phases: Liquid
Fixed: Pressure, kPa = 101.325
Property: Viscosity, Pa*s (Liquid); method: CAPTUB:UFactor:2
Temperature, K	Viscosity, Pa*s	uncertainty
293.15	0.003994	4.4e-05
298.15	0.003334	3.7e-05
303.15	0.002794	3.2e-05

System: 2-methyl-1-propanol; phases: Liquid
Fixed: Pressure, kPa = 101.325
Property: Mass density, kg/m3 (Liquid); method: VIBTUB:UFactor:4
Temperature, K	Mass density, kg/m3	uncertainty
293.15	801.58	0.57
298.15	798.09	0.57
303.15	794.09	0.58

System: N-methylpiperazine; phases: Liquid
Fixed: Pressure, kPa = 101.325
Property: Viscosity, Pa*s (Liquid); method: CAPTUB:UFactor:2
Temperature, K	Viscosity, Pa*s	uncertainty
293.15	0.0021	2.4e-05
298.15	0.001841	2.1e-05
303.15	0.001624	1.9e-05

System: N-methylpiperazine; phases: Liquid
Fixed: Pressure, kPa = 101.325
Property: Mass density, kg/m3 (Liquid); method: VIBTUB:UFactor:4
Temperature, K	Mass density, kg/m3	uncertainty
293.15	903.8	0.36
293.15	903.79	0.36
293.15	903.78	0.36
298.15	899.8	0.37
303.15	894.52	0.38
303.15	894.54	0.38
303.15	894.55	0.38

System: methanol + N-methylpiperazine; phases: Liquid
Fixed: Pressure, kPa = 101.325
Property: Viscosity, Pa*s (Liquid); method: CAPTUB:UFactor:2
Temperature, K	Mole fraction of methanol	Viscosity, Pa*s	uncertainty
293.15	0	0.0021	2.4e-05
293.15	0.1021	0.002103	2.4e-05
293.15	0.1999	0.002147	2.5e-05
293.15	0.3286	0.002167	2.5e-05
293.15	0.4143	0.002141	2.5e-05
293.15	0.4991	0.00204	2.4e-05
293.15	0.6016	0.001875	2.2e-05
293.15	0.6999	0.00162	1.9e-05
293.15	0.7998	0.001306	1.6e-05
293.15	0.8999	0.000935	1.2e-05
293.15	1	0.000593	8e-06
298.15	0	0.001841	2.1e-05
298.15	0.1021	0.001849	2.1e-05
298.15	0.1999	0.001897	2.2e-05
298.15	0.3286	0.001924	2.2e-05
298.15	0.4143	0.001897	2.2e-05
298.15	0.4991	0.0018	2.1e-05
298.15	0.6016	0.001654	1.9e-05
298.15	0.6999	0.001447	1.7e-05
298.15	0.7998	0.001169	1.4e-05
298.15	0.8999	0.000854	1.1e-05
298.15	1	0.000551	8e-06
303.15	0	0.001624	1.9e-05
303.15	0.1021	0.001643	1.9e-05
303.15	0.1999	0.001692	2e-05
303.15	0.3286	0.001722	2e-05
303.15	0.4143	0.001676	2e-05
303.15	0.4991	0.00161	1.9e-05
303.15	0.6016	0.001475	1.8e-05
303.15	0.6999	0.001299	1.6e-05
303.15	0.7998	0.00106	1.3e-05
303.15	0.8999	0.000788	1e-05
303.15	1	0.000509	8e-06

System: methanol + N-methylpiperazine; phases: Liquid
Fixed: Pressure, kPa = 101.325
Property: Mass density, kg/m3 (Liquid); method: VIBTUB:UFactor:4
Temperature, K	Mole fraction of methanol	Mass density, kg/m3	uncertainty
293.15	0	903.8	0.36
293.15	0.1021	902.85	0.36
293.15	0.1999	901.87	0.36
293.15	0.3286	899.35	0.37
293.15	0.4143	896.64	0.38
293.15	0.4991	892.94	0.38
293.15	0.6016	886.48	0.4
293.15	0.6999	876.84	0.42
293.15	0.7998	860.91	0.45
293.15	0.8999	834.46	0.5
293.15	1	791.09	0.59
298.15	0	899.8	0.37
298.15	0.1021	899.04	0.37
298.15	0.1999	898.08	0.37
298.15	0.3286	895.54	0.38
298.15	0.4143	892.82	0.38
298.15	0.4991	889.13	0.39
298.15	0.6016	882.68	0.41
298.15	0.6999	873	0.43
298.15	0.7998	856.96	0.46
298.15	0.8999	830.26	0.51
298.15	1	786.48	0.6
303.15	0	894.52	0.38
303.15	0.1021	893.84	0.38
303.15	0.1999	892.86	0.38
303.15	0.3286	890.39	0.39
303.15	0.4143	887.8	0.4
303.15	0.4991	884.25	0.4
303.15	0.6016	877.91	0.42
303.15	0.6999	868.21	0.44
303.15	0.7998	851.99	0.47
303.15	0.8999	825.04	0.53
303.15	1	781.22	0.61

System: ethanol + N-methylpiperazine; phases: Liquid
Fixed: Pressure, kPa = 101.325
Property: Viscosity, Pa*s (Liquid); method: CAPTUB:UFactor:2
Temperature, K	Mole fraction of ethanol	Viscosity, Pa*s	uncertainty
293.15	0	0.0021	2.4e-05
293.15	0.1002	0.002141	2.5e-05
293.15	0.1994	0.002206	2.5e-05
293.15	0.3003	0.00227	2.6e-05
293.15	0.3493	0.002285	2.6e-05
293.15	0.4021	0.002301	2.6e-05
293.15	0.451	0.002288	2.6e-05
293.15	0.5004	0.002267	2.6e-05
293.15	0.5994	0.002175	2.5e-05
293.15	0.7011	0.001996	2.3e-05
293.15	0.8003	0.001779	2.1e-05
293.15	0.8982	0.001526	1.8e-05
293.15	1	0.00117	1.4e-05
298.15	0	0.001841	2.1e-05
298.15	0.1002	0.00187	2.2e-05
298.15	0.1994	0.001924	2.2e-05
298.15	0.3003	0.001977	2.3e-05
298.15	0.3493	0.001992	2.3e-05
298.15	0.4021	0.002009	2.3e-05
298.15	0.451	0.002001	2.3e-05
298.15	0.5004	0.001977	2.3e-05
298.15	0.5994	0.001909	2.2e-05
298.15	0.7011	0.001772	2.1e-05
298.15	0.8003	0.001591	1.9e-05
298.15	0.8982	0.001366	1.6e-05
298.15	1	0.001078	1.3e-05
303.15	0	0.001624	1.9e-05
303.15	0.1002	0.00165	1.9e-05
303.15	0.1994	0.001694	2e-05
303.15	0.3003	0.001741	2e-05
303.15	0.3493	0.001753	2e-05
303.15	0.4021	0.001771	2.1e-05
303.15	0.451	0.001764	2.1e-05
303.15	0.5004	0.001746	2e-05
303.15	0.5994	0.001698	2e-05
303.15	0.7011	0.001595	1.9e-05
303.15	0.8003	0.001429	1.7e-05
303.15	0.8982	0.001239	1.5e-05
303.15	1	0.000982	1.2e-05

System: ethanol + N-methylpiperazine; phases: Liquid
Fixed: Pressure, kPa = 101.325
Property: Mass density, kg/m3 (Liquid); method: VIBTUB:UFactor:4
Temperature, K	Mole fraction of ethanol	Mass density, kg/m3	uncertainty
293.15	0	903.79	0.36
293.15	0.1002	900.18	0.37
293.15	0.1994	896.41	0.37
293.15	0.3003	891.73	0.38
293.15	0.3493	889.02	0.39
293.15	0.4021	885.73	0.4
293.15	0.451	882.31	0.41
293.15	0.5004	878.44	0.41
293.15	0.5994	869.22	0.43
293.15	0.7011	857.04	0.46
293.15	0.8003	841.28	0.49
293.15	0.8982	820.12	0.53
293.15	1	789.32	0.59
298.15	0	899.8	0.37
298.15	0.1002	896.19	0.38
298.15	0.1994	892.42	0.38
298.15	0.3003	887.75	0.39
298.15	0.3493	885.06	0.4
298.15	0.4021	881.8	0.41
298.15	0.451	878.41	0.41
298.15	0.5004	874.56	0.42
298.15	0.5994	865.36	0.44
298.15	0.7011	853.14	0.47
298.15	0.8003	837.28	0.5
298.15	0.8982	815.97	0.54
298.15	1	785.06	0.6
303.15	0	894.54	0.38
303.15	0.1002	891.01	0.39
303.15	0.1994	887.31	0.39
303.15	0.3003	882.73	0.4
303.15	0.3493	880.09	0.41
303.15	0.4021	876.89	0.42
303.15	0.451	873.55	0.42
303.15	0.5004	869.77	0.43
303.15	0.5994	860.68	0.45
303.15	0.7011	848.58	0.48
303.15	0.8003	832.81	0.51
303.15	0.8982	811.57	0.55
303.15	1	780.68	0.61

System: propan-1-ol + N-methylpiperazine; phases: Liquid
Fixed: Pressure, kPa = 101.325
Property: Viscosity, Pa*s (Liquid); method: CAPTUB:UFactor:2
Temperature, K	Mole fraction of propan-1-ol	Viscosity, Pa*s	uncertainty
293.15	0	0.0021	2.4e-05
293.15	0.1017	0.00224	2.6e-05
293.15	0.1987	0.002369	2.7e-05
293.15	0.3	0.002536	2.9e-05
293.15	0.4007	0.002689	3e-05
293.15	0.4998	0.002817	3.2e-05
293.15	0.5504	0.002863	3.2e-05
293.15	0.6011	0.002895	3.3e-05
293.15	0.6542	0.002885	3.3e-05
293.15	0.7001	0.002874	3.2e-05
293.15	0.7495	0.002833	3.2e-05
293.15	0.7991	0.002752	3.1e-05
293.15	0.902	0.00254	2.9e-05
293.15	1	0.002194	2.5e-05
298.15	0	0.001841	2.1e-05
298.15	0.1017	0.001962	2.3e-05
298.15	0.1987	0.002058	2.4e-05
298.15	0.3	0.0022	2.5e-05
298.15	0.4007	0.002326	2.7e-05
298.15	0.4998	0.002438	2.8e-05
298.15	0.5504	0.002478	2.8e-05
298.15	0.6011	0.002506	2.9e-05
298.15	0.6542	0.002504	2.9e-05
298.15	0.7001	0.002497	2.8e-05
298.15	0.7495	0.002473	2.8e-05
298.15	0.7991	0.002413	2.8e-05
298.15	0.902	0.00223	2.6e-05
298.15	1	0.001945	2.3e-05
303.15	0	0.001624	1.9e-05
303.15	0.1017	0.001716	2e-05
303.15	0.1987	0.001809	2.1e-05
303.15	0.3	0.001932	2.2e-05
303.15	0.4007	0.002035	2.4e-05
303.15	0.4998	0.002129	2.5e-05
303.15	0.5504	0.002167	2.5e-05
303.15	0.6011	0.002192	2.5e-05
303.15	0.6542	0.002193	2.5e-05
303.15	0.7001	0.002186	2.5e-05
303.15	0.7495	0.002175	2.5e-05
303.15	0.7991	0.002124	2.5e-05
303.15	0.902	0.00198	2.3e-05
303.15	1	0.00173	2e-05

System: propan-1-ol + N-methylpiperazine; phases: Liquid
Fixed: Pressure, kPa = 101.325
Property: Mass density, kg/m3 (Liquid); method: VIBTUB:UFactor:4
Temperature, K	Mole fraction of propan-1-ol	Mass density, kg/m3	uncertainty
293.15	0	903.79	0.36
293.15	0.1017	899.72	0.37
293.15	0.1987	895.17	0.38
293.15	0.3	889.62	0.39
293.15	0.4007	883.15	0.4
293.15	0.4998	875.68	0.42
293.15	0.5504	871.35	0.43
293.15	0.6011	866.59	0.44
293.15	0.6542	861.09	0.45
293.15	0.7001	855.83	0.46
293.15	0.7495	849.57	0.47
293.15	0.7991	842.55	0.49
293.15	0.902	825.1	0.52
293.15	1	803.79	0.56
298.15	0	899.8	0.37
298.15	0.1017	895.76	0.38
298.15	0.1987	891.23	0.39
298.15	0.3	885.71	0.4
298.15	0.4007	879.31	0.41
298.15	0.4998	871.91	0.43
298.15	0.5504	867.6	0.44
298.15	0.6011	862.85	0.45
298.15	0.6542	857.34	0.46
298.15	0.7001	852.05	0.47
298.15	0.7495	845.75	0.48
298.15	0.7991	838.67	0.49
298.15	0.902	821.08	0.53
298.15	1	799.74	0.57
303.15	0	894.54	0.38
303.15	0.1017	890.62	0.39
303.15	0.1987	886.21	0.4
303.15	0.3	880.86	0.41
303.15	0.4007	874.64	0.42
303.15	0.4998	867.4	0.44
303.15	0.5504	863.18	0.45
303.15	0.6011	858.5	0.45
303.15	0.6542	853.04	0.47
303.15	0.7001	847.8	0.48
303.15	0.7495	841.53	0.49
303.15	0.7991	834.47	0.5
303.15	0.902	816.93	0.54
303.15	1	795.68	0.58

System: propan-2-ol + N-methylpiperazine; phases: Liquid
Fixed: Pressure, kPa = 101.325
Property: Viscosity, Pa*s (Liquid); method: CAPTUB:UFactor:2
Temperature, K	Mole fraction of propan-2-ol	Viscosity, Pa*s	uncertainty
293.15	0	0.0021	2.4e-05
293.15	0.0998	0.002261	2.6e-05
293.15	0.1988	0.002393	2.7e-05
293.15	0.3003	0.002502	2.8e-05
293.15	0.3998	0.002581	2.9e-05
293.15	0.5	0.00265	3e-05
293.15	0.5996	0.00269	3e-05
293.15	0.7	0.002704	3.1e-05
293.15	0.7991	0.002678	3e-05
293.15	0.8503	0.002648	3e-05
293.15	0.9003	0.002615	3e-05
293.15	0.9489	0.002541	2.9e-05
293.15	1	0.002405	2.8e-05
298.15	0	0.001841	2.1e-05
298.15	0.0998	0.001967	2.3e-05
298.15	0.1988	0.002072	2.4e-05
298.15	0.3003	0.002162	2.5e-05
298.15	0.3998	0.002224	2.6e-05
298.15	0.5	0.002281	2.6e-05
298.15	0.5996	0.002312	2.7e-05
298.15	0.7	0.002329	2.7e-05
298.15	0.7991	0.002309	2.6e-05
298.15	0.8503	0.002284	2.6e-05
298.15	0.9003	0.00225	2.6e-05
298.15	0.9489	0.002183	2.5e-05
298.15	1	0.002062	2.4e-05
303.15	0	0.001624	1.9e-05
303.15	0.0998	0.001733	2e-05
303.15	0.1988	0.001816	2.1e-05
303.15	0.3003	0.001891	2.2e-05
303.15	0.3998	0.001938	2.2e-05
303.15	0.5	0.001984	2.3e-05
303.15	0.5996	0.002012	2.3e-05
303.15	0.7	0.002027	2.3e-05
303.15	0.7991	0.002008	2.3e-05
303.15	0.8503	0.001986	2.3e-05
303.15	0.9003	0.001954	2.3e-05
303.15	0.9489	0.001893	2.2e-05
303.15	1	0.001782	2.1e-05

System: propan-2-ol + N-methylpiperazine; phases: Liquid
Fixed: Pressure, kPa = 101.325
Property: Mass density, kg/m3 (Liquid); method: VIBTUB:UFactor:4
Temperature, K	Mole fraction of propan-2-ol	Mass density, kg/m3	uncertainty
293.15	0	903.78	0.36
293.15	0.0998	897.99	0.37
293.15	0.1988	891.42	0.38
293.15	0.3003	883.75	0.4
293.15	0.3998	875.22	0.42
293.15	0.5	865.48	0.44
293.15	0.5996	854.41	0.46
293.15	0.7	841.49	0.49
293.15	0.7991	826.48	0.52
293.15	0.8503	817.61	0.53
293.15	0.9003	808.06	0.55
293.15	0.9489	797.8	0.57
293.15	1	785.84	0.6
298.15	0	899.8	0.37
298.15	0.0998	893.98	0.38
298.15	0.1988	887.39	0.39
298.15	0.3003	879.73	0.41
298.15	0.3998	871.21	0.43
298.15	0.5	861.47	0.45
298.15	0.5996	850.38	0.47
298.15	0.7	837.39	0.5
298.15	0.7991	822.27	0.53
298.15	0.8503	813.32	0.54
298.15	0.9003	803.69	0.56
298.15	0.9489	793.36	0.58
298.15	1	781.3	0.61
303.15	0	894.54	0.38
303.15	0.0998	888.87	0.39
303.15	0.1988	882.45	0.4
303.15	0.3003	874.96	0.42
303.15	0.3998	866.62	0.44
303.15	0.5	857.07	0.46
303.15	0.5996	846.15	0.48
303.15	0.7	833.32	0.5
303.15	0.7991	818.3	0.53
303.15	0.8503	809.39	0.55
303.15	0.9003	799.79	0.57
303.15	0.9489	789.46	0.59
303.15	1	777.41	0.61

System: butan-1-ol + N-methylpiperazine; phases: Liquid
Fixed: Pressure, kPa = 101.325
Property: Viscosity, Pa*s (Liquid); method: CAPTUB:UFactor:2
Temperature, K	Mole fraction of butan-1-ol	Viscosity, Pa*s	uncertainty
293.15	0	0.0021	2.4e-05
293.15	0.0982	0.002247	2.6e-05
293.15	0.199	0.002431	2.8e-05
293.15	0.2966	0.002631	3e-05
293.15	0.3973	0.002841	3.2e-05
293.15	0.5001	0.003018	3.4e-05
293.15	0.6004	0.003181	3.6e-05
293.15	0.6995	0.003261	3.7e-05
293.15	0.7537	0.003272	3.7e-05
293.15	0.7936	0.003258	3.6e-05
293.15	0.8002	0.003247	3.6e-05
293.15	0.8419	0.003218	3.6e-05
293.15	0.8997	0.003145	3.5e-05
293.15	1	0.002938	3.3e-05
298.15	0	0.001841	2.1e-05
298.15	0.0982	0.001966	2.3e-05
298.15	0.199	0.002115	2.4e-05
298.15	0.2966	0.002283	2.6e-05
298.15	0.3973	0.002461	2.8e-05
298.15	0.5001	0.002615	3e-05
298.15	0.6004	0.002751	3.1e-05
298.15	0.6995	0.002832	3.2e-05
298.15	0.7537	0.002846	3.2e-05
298.15	0.7936	0.002841	3.2e-05
298.15	0.8002	0.002833	3.2e-05
298.15	0.8419	0.002812	3.2e-05
298.15	0.8997	0.002756	3.1e-05
298.15	1	0.002572	2.9e-05
303.15	0	0.001624	1.9e-05
303.15	0.0982	0.00173	2e-05
303.15	0.199	0.001859	2.2e-05
303.15	0.2966	0.002002	2.3e-05
303.15	0.3973	0.002153	2.5e-05
303.15	0.5001	0.002284	2.6e-05
303.15	0.6004	0.002392	2.7e-05
303.15	0.6995	0.002471	2.8e-05
303.15	0.7537	0.002495	2.8e-05
303.15	0.7936	0.002486	2.8e-05
303.15	0.8002	0.002489	2.8e-05
303.15	0.8419	0.002473	2.8e-05
303.15	0.8997	0.002427	2.8e-05
303.15	1	0.002271	2.6e-05

System: butan-1-ol + N-methylpiperazine; phases: Liquid
Fixed: Pressure, kPa = 101.325
Property: Mass density, kg/m3 (Liquid); method: VIBTUB:UFactor:4
Temperature, K	Mole fraction of butan-1-ol	Mass density, kg/m3	uncertainty
293.15	0	903.79	0.36
293.15	0.0982	898.89	0.37
293.15	0.199	893.13	0.38
293.15	0.2966	886.88	0.39
293.15	0.3973	879.73	0.41
293.15	0.5001	871.61	0.43
293.15	0.6004	862.72	0.45
293.15	0.6995	852.72	0.47
293.15	0.7537	846.6	0.48
293.15	0.7936	841.74	0.49
293.15	0.8002	840.9	0.49
293.15	0.8419	835.38	0.5
293.15	0.8997	827	0.52
293.15	1	809.97	0.55
298.15	0	899.8	0.37
298.15	0.0982	894.98	0.38
298.15	0.199	889.24	0.39
298.15	0.2966	883.01	0.4
298.15	0.3973	875.91	0.42
298.15	0.5001	867.85	0.44
298.15	0.6004	859.01	0.45
298.15	0.6995	849.01	0.47
298.15	0.7537	842.86	0.49
298.15	0.7936	837.97	0.49
298.15	0.8002	837.13	0.5
298.15	0.8419	831.58	0.51
298.15	0.8997	823.16	0.52
298.15	1	806.15	0.56
303.15	0	894.54	0.38
303.15	0.0982	889.88	0.39
303.15	0.199	884.23	0.4
303.15	0.2966	878.11	0.41
303.15	0.3973	871.16	0.43
303.15	0.5001	863.29	0.45
303.15	0.6004	854.62	0.46
303.15	0.6995	844.76	0.48
303.15	0.7537	838.67	0.49
303.15	0.7936	833.81	0.5
303.15	0.8002	832.97	0.51
303.15	0.8419	827.45	0.52
303.15	0.8997	819.05	0.53
303.15	1	802.14	0.57

System: 2-methyl-1-propanol + N-methylpiperazine; phases: Liquid
Fixed: Pressure, kPa = 101.325
Property: Viscosity, Pa*s (Liquid); method: CAPTUB:UFactor:2
Temperature, K	Mole fraction of 2-methyl-1-propanol	Viscosity, Pa*s	uncertainty
293.15	0	0.0021	2.4e-05
293.15	0.0515	0.002237	2.6e-05
293.15	0.0983	0.002361	2.7e-05
293.15	0.1506	0.002542	2.9e-05
293.15	0.2011	0.002728	3.1e-05
293.15	0.2971	0.003084	3.5e-05
293.15	0.402	0.003469	3.9e-05
293.15	0.4982	0.003838	4.3e-05
293.15	0.6001	0.004142	4.6e-05
293.15	0.6995	0.004382	4.8e-05
293.15	0.7978	0.004487	4.9e-05
293.15	0.8995	0.004423	4.9e-05
293.15	1	0.003994	4.4e-05
298.15	0	0.001841	2.1e-05
298.15	0.0515	0.001941	2.2e-05
298.15	0.0983	0.002046	2.4e-05
298.15	0.1506	0.002198	2.5e-05
298.15	0.2011	0.002354	2.7e-05
298.15	0.2971	0.002647	3e-05
298.15	0.402	0.002957	3.3e-05
298.15	0.4982	0.003249	3.6e-05
298.15	0.6001	0.003504	3.9e-05
298.15	0.6995	0.003693	4.1e-05
298.15	0.7978	0.003789	4.2e-05
298.15	0.8995	0.003708	4.1e-05
298.15	1	0.003334	3.7e-05
303.15	0	0.001624	1.9e-05
303.15	0.0515	0.001699	2e-05
303.15	0.0983	0.001781	2.1e-05
303.15	0.1506	0.001914	2.2e-05
303.15	0.2011	0.002039	2.4e-05
303.15	0.2971	0.002288	2.6e-05
303.15	0.402	0.002541	2.9e-05
303.15	0.4982	0.002785	3.2e-05
303.15	0.6001	0.002999	3.4e-05
303.15	0.6995	0.003151	3.6e-05
303.15	0.7978	0.003211	3.6e-05
303.15	0.8995	0.003116	3.5e-05
303.15	1	0.002794	3.2e-05

System: 2-methyl-1-propanol + N-methylpiperazine; phases: Liquid
Fixed: Pressure, kPa = 101.325
Property: Mass density, kg/m3 (Liquid); method: VIBTUB:UFactor:4
Temperature, K	Mole fraction of 2-methyl-1-propanol	Mass density, kg/m3	uncertainty
293.15	0	903.78	0.36
293.15	0.0515	901.11	0.36
293.15	0.0983	898.38	0.37
293.15	0.1506	895.07	0.38
293.15	0.2011	891.66	0.38
293.15	0.2971	884.72	0.4
293.15	0.402	876.51	0.42
293.15	0.4982	868.29	0.43
293.15	0.6001	858.58	0.45
293.15	0.6995	847.72	0.48
293.15	0.7978	835.15	0.5
293.15	0.8995	819.74	0.53
293.15	1	801.58	0.57
298.15	0	899.8	0.37
298.15	0.0515	897.16	0.37
298.15	0.0983	894.46	0.38
298.15	0.1506	891.19	0.39
298.15	0.2011	887.82	0.39
298.15	0.2971	880.97	0.41
298.15	0.402	872.85	0.42
298.15	0.4982	864.71	0.44
298.15	0.6001	855.07	0.46
298.15	0.6995	844.25	0.48
298.15	0.7978	831.71	0.51
298.15	0.8995	816.28	0.54
298.15	1	798.09	0.57
303.15	0	894.55	0.38
303.15	0.0515	891.98	0.38
303.15	0.0983	889.35	0.39
303.15	0.1506	886.16	0.4
303.15	0.2011	882.88	0.4
303.15	0.2971	876.18	0.42
303.15	0.402	868.24	0.43
303.15	0.4982	860.24	0.45
303.15	0.6001	850.74	0.47
303.15	0.6995	840.04	0.49
303.15	0.7978	827.6	0.52
303.15	0.8995	812.25	0.55
303.15	1	794.09	0.58
