Measured thermophysical data. Solubility of monosaccharides in ionic liquids - Experimental data and modeling
Source: Fluid Phase Equilib., 2012, 10.1016/j.fluid.2011.10.011
Compound 1: 1-ethyl-3-methylimidazolium ethyl sulfate, C8H16N2O4S, InChI=1S/C6H11N2.C2H6O4S/c1-3-8-5-4-7(2)6-8;1-2-6-7(3,4)5/h4-6H,3H2,1-2H3;2H2,1H3,(H,3,4,5)/q+1;/p-1, purity 98%
Compound 2: N-methyl-N,N-dioctyl-1-octanaminium chloride, C25H54ClN, InChI=1S/C25H54N.ClH/c1-5-8-11-14-17-20-23-26(4,24-21-18-15-12-9-6-2)25-22-19-16-13-10-7-3;/h5-25H2,1-4H3;1H/q+1;/p-1, purity 95.8%
Compound 3: D-glucose, C6H12O6, InChI=1S/C6H12O6/c7-1-3(9)5(11)6(12)4(10)2-8/h1,3-6,8-12H,2H2/t3-,4+,5+,6+/m0/s1, purity 99%
Compound 4: D-fructose, C6H12O6, InChI=1S/C6H12O6/c7-1-3(9)5(11)6(12)4(10)2-8/h3,5-9,11-12H,1-2H2/t3-,5-,6-/m1/s1, purity 99%
Compound 5: D-xylose, C5H10O5, InChI=1S/C5H10O5/c6-1-3(8)5(10)4(9)2-7/h1,3-5,7-10H,2H2/t3-,4+,5+/m0/s1, purity 99%
Compound 6: (+)-galactose, C6H12O6, InChI=1S/C6H12O6/c7-1-3(9)5(11)6(12)4(10)2-8/h1,3-6,8-12H,2H2/t3-,4+,5+,6-/m0/s1, purity 99%

System: D-glucose + 1-ethyl-3-methylimidazolium ethyl sulfate; phases: Liquid, Crystal
Fixed: Pressure, kPa = 101
Property: Mass fraction of D-glucose (Liquid); method: Chromatography
Temperature, K	Mass fraction of D-glucose	uncertainty
288.2	0.104	0.004
298.2	0.155	0.006
308.2	0.191	0.007
318.6	0.218	0.008
328.3	0.237	0.009

System: D-fructose + 1-ethyl-3-methylimidazolium ethyl sulfate; phases: Liquid, Crystal
Fixed: Pressure, kPa = 101
Property: Mass fraction of D-fructose (Liquid); method: Chromatography
Temperature, K	Mass fraction of D-fructose	uncertainty
288.2	0.257	0.009
298.2	0.29	0.01
308	0.338	0.012
318.4	0.374	0.014
329.3	0.435	0.016

System: D-xylose + 1-ethyl-3-methylimidazolium ethyl sulfate; phases: Liquid, Crystal
Fixed: Pressure, kPa = 101
Property: Mass fraction of D-xylose (Liquid); method: Chromatography
Temperature, K	Mass fraction of D-xylose	uncertainty
288.1	0.15	0.006
298.1	0.205	0.008
308.3	0.23	0.008
318	0.2451	0.0089
328.5	0.2741	0.01

System: (+)-galactose + 1-ethyl-3-methylimidazolium ethyl sulfate; phases: Liquid, Crystal
Fixed: Pressure, kPa = 101
Property: Mass fraction of (+)-galactose (Liquid); method: Chromatography
Temperature, K	Mass fraction of (+)-galactose	uncertainty
288.8	0.04	0.002
298.2	0.0688	0.0027
308.5	0.095	0.004
318.2	0.118	0.004
328.2	0.14	0.005

System: D-glucose + N-methyl-N,N-dioctyl-1-octanaminium chloride; phases: Liquid, Crystal
Fixed: Pressure, kPa = 101
Property: Mass fraction of D-glucose (Liquid); method: Chromatography
Temperature, K	Mass fraction of D-glucose	uncertainty
297.9	0.09	0.003
307.8	0.104	0.004
318.4	0.116	0.004
327.9	0.125	0.005

System: D-fructose + N-methyl-N,N-dioctyl-1-octanaminium chloride; phases: Liquid, Crystal
Fixed: Pressure, kPa = 101
Property: Mass fraction of D-fructose (Liquid); method: Chromatography
Temperature, K	Mass fraction of D-fructose	uncertainty
298.2	0.154	0.006
307.7	0.184	0.007
318.3	0.218	0.008
328.2	0.252	0.009

System: D-xylose + N-methyl-N,N-dioctyl-1-octanaminium chloride; phases: Liquid, Crystal
Fixed: Pressure, kPa = 101
Property: Mass fraction of D-xylose (Liquid); method: Chromatography
Temperature, K	Mass fraction of D-xylose	uncertainty
298.5	0.126	0.005
308.8	0.14	0.01
318.9	0.154	0.006
330	0.167	0.006

System: (+)-galactose + N-methyl-N,N-dioctyl-1-octanaminium chloride; phases: Liquid, Crystal
Fixed: Pressure, kPa = 101
Property: Mass fraction of (+)-galactose (Liquid); method: Chromatography
Temperature, K	Mass fraction of (+)-galactose	uncertainty
298.3	0.042	0.002
308.6	0.063	0.002
318.3	0.074	0.003
329.2	0.086	0.003
