Measured thermophysical data. High pressure and high temperature volumetric properties of (2-propanol + diisopropyl ether) system
Source: Fluid Phase Equilib., 2018, 10.1016/j.fluid.2018.04.012
Compound 1: propan-2-ol, C3H8O, InChI=1S/C3H8O/c1-3(2)4/h3-4H,1-2H3, purity 99.8%
Compound 2: diisopropyl ether, C6H14O, InChI=1S/C6H14O/c1-5(2)7-6(3)4/h5-6H,1-4H3, purity 99.5%

System: propan-2-ol + diisopropyl ether; phases: Liquid
Property: Mass density, kg/m3 (Liquid); method: Vibrating tube method
Mole fraction of propan-2-ol	Pressure, kPa	Temperature, K	Mass density, kg/m3	uncertainty
0.1503	100	298.15	725.5	0.7
0.1503	1000	298.15	726.6	0.7
0.1503	5000	298.15	731.3	0.7
0.1503	10000	298.15	736.8	0.7
0.1503	15000	298.15	742.1	0.8
0.1503	20000	298.15	746.8	0.8
0.1503	25000	298.15	751.4	0.8
0.1503	30000	298.15	755.7	0.8
0.1503	35000	298.15	759.7	0.8
0.1503	40000	298.15	763.6	0.8
0.1503	45000	298.15	767.4	0.9
0.1503	50000	298.15	770.9	0.9
0.1503	55000	298.15	774.4	0.9
0.1503	60000	298.15	777.7	0.9
0.1503	65000	298.15	780.9	0.9
0.1503	70000	298.15	784	1
0.1503	80000	298.15	789.9	1
0.1503	90000	298.15	795.6	1
0.1503	100000	298.15	800.8	1.1
0.1503	110000	298.15	805.8	1.1
0.1503	120000	298.15	810.5	1.2
0.1503	130000	298.15	815.1	1.2
0.1503	140000	298.15	819.5	1.2
0.1503	100	313.15	709.6	0.7
0.1503	1000	313.15	710.8	0.7
0.1503	5000	313.15	716.3	0.7
0.1503	10000	313.15	722.4	0.7
0.1503	15000	313.15	728.1	0.8
0.1503	20000	313.15	733.4	0.8
0.1503	25000	313.15	738.2	0.8
0.1503	30000	313.15	743.1	0.8
0.1503	35000	313.15	747.6	0.8
0.1503	40000	313.15	751.7	0.9
0.1503	45000	313.15	755.7	0.9
0.1503	50000	313.15	759.5	0.9
0.1503	55000	313.15	763.3	0.9
0.1503	60000	313.15	766.8	0.9
0.1503	65000	313.15	770.2	1
0.1503	70000	313.15	773.5	1
0.1503	80000	313.15	779.6	1
0.1503	90000	313.15	785.6	1.1
0.1503	100000	313.15	791.2	1.1
0.1503	110000	313.15	796.4	1.2
0.1503	120000	313.15	801.3	1.2
0.1503	130000	313.15	806.2	1.2
0.1503	140000	313.15	810.9	1.3
0.1503	100	333.15	687.4	0.7
0.1503	1000	333.15	689	0.7
0.1503	5000	333.15	695.4	0.7
0.1503	10000	333.15	702.7	0.8
0.1503	15000	333.15	709.3	0.8
0.1503	20000	333.15	715.3	0.8
0.1503	25000	333.15	720.9	0.8
0.1503	30000	333.15	726.2	0.8
0.1503	35000	333.15	731.1	0.8
0.1503	40000	333.15	735.8	0.9
0.1503	45000	333.15	740.2	0.9
0.1503	50000	333.15	744.4	0.9
0.1503	55000	333.15	748.4	0.9
0.1503	60000	333.15	752.2	1
0.1503	65000	333.15	756	1
0.1503	70000	333.15	759.5	1
0.1503	80000	333.15	766.3	1.1
0.1503	90000	333.15	772.6	1.1
0.1503	100000	333.15	778.5	1.2
0.1503	110000	333.15	784.1	1.2
0.1503	120000	333.15	789.4	1.2
0.1503	130000	333.15	794.5	1.3
0.1503	140000	333.15	799.3	1.3
0.1503	1000	353.19	665.8	0.7
0.1503	5000	353.19	673.7	0.7
0.1503	10000	353.19	682.3	0.8
0.1503	15000	353.19	690	0.8
0.1503	20000	353.19	696.9	0.8
0.1503	25000	353.19	703.3	0.8
0.1503	30000	353.19	709.2	0.8
0.1503	35000	353.19	714.7	0.9
0.1503	40000	353.19	719.8	0.9
0.1503	45000	353.19	724.6	0.9
0.1503	50000	353.19	729.4	0.9
0.1503	55000	353.19	733.7	1
0.1503	60000	353.19	737.8	1
0.1503	65000	353.19	741.9	1
0.1503	70000	353.19	745.7	1
0.1503	80000	353.19	752.9	1.1
0.1503	90000	353.19	759.7	1.1
0.1503	100000	353.19	766	1.2
0.1503	110000	353.19	772	1.2
0.1503	120000	353.19	777.6	1.3
0.1503	130000	353.19	782.9	1.3
0.1503	140000	353.19	788.1	1.4
0.1503	1000	373.24	641	0.7
0.1503	5000	373.24	650.7	0.7
0.1503	10000	373.24	661	0.8
0.1503	15000	373.24	670	0.8
0.1503	20000	373.24	678.1	0.8
0.1503	25000	373.24	685.3	0.8
0.1503	30000	373.24	692	0.9
0.1503	35000	373.24	698.1	0.9
0.1503	40000	373.24	703.9	0.9
0.1503	45000	373.24	709.2	0.9
0.1503	50000	373.24	714.2	1
0.1503	55000	373.24	719.1	1
0.1503	60000	373.24	723.5	1
0.1503	65000	373.24	727.8	1
0.1503	70000	373.24	732	1.1
0.1503	80000	373.24	739.7	1.1
0.1503	90000	373.24	747	1.2
0.1503	100000	373.24	753.7	1.2
0.1503	110000	373.24	760	1.3
0.1503	120000	373.24	765.9	1.3
0.1503	130000	373.24	771.6	1.4
0.1503	140000	373.24	776.9	1.4
0.1503	1000	393.28	614.1	0.7
0.1503	5000	393.28	626.4	0.8
0.1503	10000	393.28	639	0.8
0.1503	15000	393.28	649.7	0.8
0.1503	20000	393.28	658.9	0.8
0.1503	25000	393.28	667.1	0.8
0.1503	30000	393.28	674.7	0.9
0.1503	35000	393.28	681.5	0.9
0.1503	40000	393.28	687.8	0.9
0.1503	45000	393.28	693.6	1
0.1503	50000	393.28	699.1	1
0.1503	55000	393.28	704.5	1
0.1503	60000	393.28	709.2	1
0.1503	65000	393.28	713.9	1.1
0.1503	70000	393.28	718.4	1.1
0.1503	80000	393.28	726.7	1.2
0.1503	90000	393.28	734.4	1.2
0.1503	100000	393.28	741.5	1.3
0.1503	110000	393.28	748.3	1.3
0.1503	120000	393.28	754.5	1.4
0.1503	130000	393.28	760.4	1.4
0.1503	140000	393.28	766.1	1.5
0.2979	100	298.15	732.6	0.7
0.2979	1000	298.15	733.6	0.7
0.2979	5000	298.15	738.2	0.7
0.2979	10000	298.15	743.6	0.7
0.2979	15000	298.15	748.6	0.8
0.2979	20000	298.15	753.2	0.8
0.2979	25000	298.15	757.6	0.8
0.2979	30000	298.15	761.9	0.8
0.2979	35000	298.15	765.8	0.8
0.2979	40000	298.15	769.6	0.8
0.2979	45000	298.15	773.2	0.9
0.2979	50000	298.15	776.7	0.9
0.2979	55000	298.15	780.1	0.9
0.2979	60000	298.15	783.3	0.9
0.2979	65000	298.15	786.5	0.9
0.2979	70000	298.15	789.5	1
0.2979	80000	298.15	795.3	1
0.2979	90000	298.15	800.8	1
0.2979	100000	298.15	806	1.1
0.2979	110000	298.15	811	1.1
0.2979	120000	298.15	815.6	1.1
0.2979	130000	298.15	820.1	1.2
0.2979	140000	298.15	824.4	1.2
0.2979	100	313.15	716.9	0.7
0.2979	1000	313.15	718.1	0.7
0.2979	5000	313.15	723.3	0.7
0.2979	10000	313.15	729.3	0.7
0.2979	15000	313.15	734.8	0.8
0.2979	20000	313.15	739.9	0.8
0.2979	25000	313.15	744.6	0.8
0.2979	30000	313.15	749.4	0.8
0.2979	35000	313.15	753.6	0.8
0.2979	40000	313.15	757.7	0.8
0.2979	45000	313.15	761.6	0.9
0.2979	50000	313.15	765.4	0.9
0.2979	55000	313.15	769	0.9
0.2979	60000	313.15	772.5	0.9
0.2979	65000	313.15	775.8	1
0.2979	70000	313.15	779	1
0.2979	80000	313.15	785.1	1
0.2979	90000	313.15	790.9	1.1
0.2979	100000	313.15	796.3	1.1
0.2979	110000	313.15	801.5	1.1
0.2979	120000	313.15	806.4	1.2
0.2979	130000	313.15	811.2	1.2
0.2979	140000	313.15	815.8	1.2
0.2979	100	333.15	694.9	0.7
0.2979	1000	333.15	696.4	0.7
0.2979	5000	333.15	702.6	0.7
0.2979	10000	333.15	709.6	0.7
0.2979	15000	333.15	716	0.8
0.2979	20000	333.15	721.8	0.8
0.2979	25000	333.15	727.3	0.8
0.2979	30000	333.15	732.4	0.8
0.2979	35000	333.15	737.2	0.8
0.2979	40000	333.15	741.7	0.9
0.2979	45000	333.15	746	0.9
0.2979	50000	333.15	750.2	0.9
0.2979	55000	333.15	754.1	0.9
0.2979	60000	333.15	757.8	1
0.2979	65000	333.15	761.5	1
0.2979	70000	333.15	765	1
0.2979	80000	333.15	771.6	1
0.2979	90000	333.15	777.8	1.1
0.2979	100000	333.15	783.6	1.1
0.2979	110000	333.15	789.2	1.2
0.2979	120000	333.15	794.4	1.2
0.2979	130000	333.15	799.4	1.3
0.2979	140000	333.15	804.1	1.3
0.2979	1000	353.19	673.2	0.7
0.2979	5000	353.19	680.7	0.7
0.2979	10000	353.19	689.1	0.8
0.2979	15000	353.19	696.5	0.8
0.2979	20000	353.19	703.2	0.8
0.2979	25000	353.19	709.3	0.8
0.2979	30000	353.19	715.1	0.8
0.2979	35000	353.19	720.5	0.9
0.2979	40000	353.19	725.4	0.9
0.2979	45000	353.19	730.2	0.9
0.2979	50000	353.19	734.8	0.9
0.2979	55000	353.19	739	1
0.2979	60000	353.19	743.1	1
0.2979	65000	353.19	747.1	1
0.2979	70000	353.19	750.9	1
0.2979	80000	353.19	758	1.1
0.2979	90000	353.19	764.7	1.1
0.2979	100000	353.19	770.8	1.2
0.2979	110000	353.19	776.8	1.2
0.2979	120000	353.19	782.3	1.3
0.2979	130000	353.19	787.6	1.3
0.2979	140000	353.19	792.7	1.3
0.2979	1000	373.24	648.3	0.7
0.2979	5000	373.24	657.5	0.7
0.2979	10000	373.24	667.6	0.8
0.2979	15000	373.24	676.2	0.8
0.2979	20000	373.24	684.1	0.8
0.2979	25000	373.24	691.1	0.8
0.2979	30000	373.24	697.6	0.8
0.2979	35000	373.24	703.6	0.9
0.2979	40000	373.24	709.2	0.9
0.2979	45000	373.24	714.5	0.9
0.2979	50000	373.24	719.3	1
0.2979	55000	373.24	724.1	1
0.2979	60000	373.24	728.5	1
0.2979	65000	373.24	732.8	1
0.2979	70000	373.24	736.8	1.1
0.2979	80000	373.24	744.5	1.1
0.2979	90000	373.24	751.7	1.2
0.2979	100000	373.24	758.3	1.2
0.2979	110000	373.24	764.5	1.3
0.2979	120000	373.24	770.4	1.3
0.2979	130000	373.24	776	1.4
0.2979	140000	373.24	781.3	1.4
0.2979	1000	393.28	620.6	0.7
0.2979	5000	393.28	632.4	0.7
0.2979	10000	393.28	644.7	0.8
0.2979	15000	393.28	655.1	0.8
0.2979	20000	393.28	664.1	0.8
0.2979	25000	393.28	672.2	0.8
0.2979	30000	393.28	679.5	0.9
0.2979	35000	393.28	686.3	0.9
0.2979	40000	393.28	692.5	0.9
0.2979	45000	393.28	698.2	0.9
0.2979	50000	393.28	703.7	1
0.2979	55000	393.28	708.9	1
0.2979	60000	393.28	713.7	1
0.2979	65000	393.28	718.3	1.1
0.2979	70000	393.28	722.8	1.1
0.2979	80000	393.28	731	1.1
0.2979	90000	393.28	738.6	1.2
0.2979	100000	393.28	745.6	1.3
0.2979	110000	393.28	752.4	1.3
0.2979	120000	393.28	758.5	1.4
0.2979	130000	393.28	764.4	1.4
0.2979	140000	393.28	770	1.4
0.4228	100	298.15	739.4	0.7
0.4228	1000	298.15	740.5	0.7
0.4228	5000	298.15	744.8	0.7
0.4228	10000	298.15	749.9	0.7
0.4228	15000	298.15	754.6	0.7
0.4228	20000	298.15	759.2	0.8
0.4228	25000	298.15	763.5	0.8
0.4228	30000	298.15	767.6	0.8
0.4228	35000	298.15	771.5	0.8
0.4228	40000	298.15	775.2	0.8
0.4228	45000	298.15	778.8	0.8
0.4228	50000	298.15	782.2	0.9
0.4228	55000	298.15	785.5	0.9
0.4228	60000	298.15	788.7	0.9
0.4228	65000	298.15	791.8	0.9
0.4228	70000	298.15	794.8	0.9
0.4228	80000	298.15	800.5	1
0.4228	90000	298.15	805.9	1
0.4228	100000	298.15	810.9	1
0.4228	110000	298.15	815.8	1.1
0.4228	120000	298.15	820.4	1.1
0.4228	130000	298.15	824.8	1.2
0.4228	140000	298.15	829	1.2
0.4228	100	313.15	724	0.7
0.4228	1000	313.15	725.1	0.7
0.4228	5000	313.15	730	0.7
0.4228	10000	313.15	735.7	0.7
0.4228	15000	313.15	741	0.8
0.4228	20000	313.15	746	0.8
0.4228	25000	313.15	750.7	0.8
0.4228	30000	313.15	755.1	0.8
0.4228	35000	313.15	759.3	0.8
0.4228	40000	313.15	763.4	0.8
0.4228	45000	313.15	767.2	0.9
0.4228	50000	313.15	770.9	0.9
0.4228	55000	313.15	774.4	0.9
0.4228	60000	313.15	777.8	0.9
0.4228	65000	313.15	781.1	0.9
0.4228	70000	313.15	784.3	1
0.4228	80000	313.15	790.3	1
0.4228	90000	313.15	796	1
0.4228	100000	313.15	801.3	1.1
0.4228	110000	313.15	806.4	1.1
0.4228	120000	313.15	811.2	1.2
0.4228	130000	313.15	815.8	1.2
0.4228	140000	313.15	820.2	1.2
0.4228	100	333.15	702.4	0.7
0.4228	1000	333.15	703.7	0.7
0.4228	5000	333.15	709.5	0.7
0.4228	10000	333.15	716.1	0.7
0.4228	15000	333.15	722.3	0.8
0.4228	20000	333.15	728	0.8
0.4228	25000	333.15	733.3	0.8
0.4228	30000	333.15	738.3	0.8
0.4228	35000	333.15	743	0.8
0.4228	40000	333.15	747.4	0.9
0.4228	45000	333.15	751.7	0.9
0.4228	50000	333.15	755.7	0.9
0.4228	55000	333.15	759.6	0.9
0.4228	60000	333.15	763.3	0.9
0.4228	65000	333.15	766.9	1
0.4228	70000	333.15	770.3	1
0.4228	80000	333.15	776.8	1
0.4228	90000	333.15	782.9	1.1
0.4228	100000	333.15	788.6	1.1
0.4228	110000	333.15	794	1.2
0.4228	120000	333.15	799.1	1.2
0.4228	130000	333.15	804	1.2
0.4228	140000	333.15	808.6	1.3
0.4228	1000	353.19	680.7	0.7
0.4228	5000	353.19	687.7	0.7
0.4228	10000	353.19	695.5	0.8
0.4228	15000	353.19	702.7	0.8
0.4228	20000	353.19	709.2	0.8
0.4228	25000	353.19	715.3	0.8
0.4228	30000	353.19	720.9	0.8
0.4228	35000	353.19	726.2	0.9
0.4228	40000	353.19	731.2	0.9
0.4228	45000	353.19	735.9	0.9
0.4228	50000	353.19	740.3	0.9
0.4228	55000	353.19	744.5	0.9
0.4228	60000	353.19	748.6	1
0.4228	65000	353.19	752.5	1
0.4228	70000	353.19	756.2	1
0.4228	80000	353.19	763.2	1.1
0.4228	90000	353.19	769.7	1.1
0.4228	100000	353.19	775.8	1.2
0.4228	110000	353.19	781.5	1.2
0.4228	120000	353.19	786.9	1.2
0.4228	130000	353.19	792.1	1.3
0.4228	140000	353.19	797	1.3
0.4228	1000	373.24	655.6	0.7
0.4228	5000	373.24	664.2	0.7
0.4228	10000	373.24	673.7	0.8
0.4228	15000	373.24	682.1	0.8
0.4228	20000	373.24	689.7	0.8
0.4228	25000	373.24	696.6	0.8
0.4228	30000	373.24	703	0.8
0.4228	35000	373.24	708.9	0.9
0.4228	40000	373.24	714.5	0.9
0.4228	45000	373.24	719.6	0.9
0.4228	50000	373.24	724.5	0.9
0.4228	55000	373.24	729.2	1
0.4228	60000	373.24	733.6	1
0.4228	65000	373.24	737.8	1
0.4228	70000	373.24	741.8	1
0.4228	80000	373.24	749.3	1.1
0.4228	90000	373.24	756.3	1.1
0.4228	100000	373.24	762.8	1.2
0.4228	110000	373.24	768.9	1.2
0.4228	120000	373.24	774.7	1.3
0.4228	130000	373.24	780.2	1.3
0.4228	140000	373.24	785.3	1.4
0.4228	1000	393.28	627.9	0.7
0.4228	5000	393.28	638.9	0.7
0.4228	10000	393.28	650.5	0.8
0.4228	15000	393.28	660.6	0.8
0.4228	20000	393.28	669.5	0.8
0.4228	25000	393.28	677.4	0.8
0.4228	30000	393.28	684.6	0.9
0.4228	35000	393.28	691.3	0.9
0.4228	40000	393.28	697.4	0.9
0.4228	45000	393.28	703.2	0.9
0.4228	50000	393.28	708.6	1
0.4228	55000	393.28	713.6	1
0.4228	60000	393.28	718.4	1
0.4228	65000	393.28	723	1
0.4228	70000	393.28	727.3	1.1
0.4228	80000	393.28	735.5	1.1
0.4228	90000	393.28	742.9	1.2
0.4228	100000	393.28	749.9	1.2
0.4228	110000	393.28	756.4	1.3
0.4228	120000	393.28	762.5	1.3
0.4228	130000	393.28	768.3	1.4
0.4228	140000	393.28	773.8	1.4
0.5	100	298.15	743.7	0.7
0.5	1000	298.15	744.7	0.7
0.5	5000	298.15	749	0.7
0.5	10000	298.15	754	0.7
0.5	15000	298.15	758.8	0.7
0.5	20000	298.15	763.2	0.8
0.5	25000	298.15	767.5	0.8
0.5	30000	298.15	771.5	0.8
0.5	35000	298.15	775.2	0.8
0.5	40000	298.15	778.9	0.8
0.5	45000	298.15	782.4	0.8
0.5	50000	298.15	785.8	0.9
0.5	55000	298.15	789	0.9
0.5	60000	298.15	792.1	0.9
0.5	65000	298.15	795.2	0.9
0.5	70000	298.15	798.2	0.9
0.5	80000	298.15	803.8	1
0.5	90000	298.15	809.1	1
0.5	100000	298.15	814.2	1
0.5	110000	298.15	818.9	1.1
0.5	120000	298.15	823.5	1.1
0.5	130000	298.15	827.9	1.1
0.5	140000	298.15	832.1	1.2
0.5	100	313.15	728.5	0.7
0.5	1000	313.15	729.6	0.7
0.5	5000	313.15	734.4	0.7
0.5	10000	313.15	740.1	0.7
0.5	15000	313.15	745.3	0.8
0.5	20000	313.15	750.2	0.8
0.5	25000	313.15	754.6	0.8
0.5	30000	313.15	759.2	0.8
0.5	35000	313.15	763.3	0.8
0.5	40000	313.15	767.2	0.8
0.5	45000	313.15	770.9	0.9
0.5	50000	313.15	774.5	0.9
0.5	55000	313.15	778.1	0.9
0.5	60000	313.15	781.4	0.9
0.5	65000	313.15	784.7	0.9
0.5	70000	313.15	787.7	1
0.5	80000	313.15	793.6	1
0.5	90000	313.15	799.3	1
0.5	100000	313.15	804.5	1.1
0.5	110000	313.15	809.6	1.1
0.5	120000	313.15	814.4	1.1
0.5	130000	313.15	819	1.2
0.5	140000	313.15	823.5	1.2
0.5	100	333.15	707	0.7
0.5	1000	333.15	708.4	0.7
0.5	5000	333.15	714.2	0.7
0.5	10000	333.15	720.7	0.7
0.5	15000	333.15	726.8	0.8
0.5	20000	333.15	732.3	0.8
0.5	25000	333.15	737.5	0.8
0.5	30000	333.15	742.4	0.8
0.5	35000	333.15	747	0.8
0.5	40000	333.15	751.4	0.9
0.5	45000	333.15	755.4	0.9
0.5	50000	333.15	759.4	0.9
0.5	55000	333.15	763.2	0.9
0.5	60000	333.15	766.8	0.9
0.5	65000	333.15	770.4	1
0.5	70000	333.15	773.7	1
0.5	80000	333.15	780.1	1
0.5	90000	333.15	786.2	1.1
0.5	100000	333.15	791.8	1.1
0.5	110000	333.15	797.3	1.1
0.5	120000	333.15	802.3	1.2
0.5	130000	333.15	807.2	1.2
0.5	140000	333.15	811.9	1.3
0.5	1000	353.19	685.4	0.7
0.5	5000	353.19	692.4	0.7
0.5	10000	353.19	700.2	0.7
0.5	15000	353.19	707.2	0.8
0.5	20000	353.19	713.6	0.8
0.5	25000	353.19	719.5	0.8
0.5	30000	353.19	725	0.8
0.5	35000	353.19	730.1	0.8
0.5	40000	353.19	734.9	0.9
0.5	45000	353.19	739.5	0.9
0.5	50000	353.19	743.9	0.9
0.5	55000	353.19	748	0.9
0.5	60000	353.19	752	1
0.5	65000	353.19	755.8	1
0.5	70000	353.19	759.5	1
0.5	80000	353.19	766.3	1.1
0.5	90000	353.19	772.8	1.1
0.5	100000	353.19	778.9	1.1
0.5	110000	353.19	784.7	1.2
0.5	120000	353.19	790.1	1.2
0.5	130000	353.19	795.2	1.3
0.5	140000	353.19	800.2	1.3
0.5	1000	373.24	660.4	0.7
0.5	5000	373.24	669	0.7
0.5	10000	373.24	678.3	0.8
0.5	15000	373.24	686.6	0.8
0.5	20000	373.24	694	0.8
0.5	25000	373.24	700.8	0.8
0.5	30000	373.24	707	0.8
0.5	35000	373.24	712.8	0.9
0.5	40000	373.24	718.1	0.9
0.5	45000	373.24	723.3	0.9
0.5	50000	373.24	728	0.9
0.5	55000	373.24	732.6	1
0.5	60000	373.24	736.9	1
0.5	65000	373.24	741.1	1
0.5	70000	373.24	745	1
0.5	80000	373.24	752.6	1.1
0.5	90000	373.24	759.4	1.1
0.5	100000	373.24	765.9	1.2
0.5	110000	373.24	772	1.2
0.5	120000	373.24	777.8	1.3
0.5	130000	373.24	783.3	1.3
0.5	140000	373.24	788.5	1.4
0.5	1000	393.28	632.9	0.7
0.5	5000	393.28	643.7	0.7
0.5	10000	393.28	655.2	0.8
0.5	15000	393.28	665.1	0.8
0.5	20000	393.28	673.7	0.8
0.5	25000	393.28	681.4	0.8
0.5	30000	393.28	688.5	0.9
0.5	35000	393.28	695.1	0.9
0.5	40000	393.28	701	0.9
0.5	45000	393.28	706.6	0.9
0.5	50000	393.28	711.8	1
0.5	55000	393.28	716.9	1
0.5	60000	393.28	721.6	1
0.5	65000	393.28	726	1
0.5	70000	393.28	730.4	1.1
0.5	80000	393.28	738.5	1.1
0.5	90000	393.28	746.1	1.2
0.5	100000	393.28	752.9	1.2
0.5	110000	393.28	759.5	1.3
0.5	120000	393.28	765.5	1.3
0.5	130000	393.28	771.3	1.4
0.5	140000	393.28	776.8	1.4
0.6737	100	298.15	754.9	0.7
0.6737	1000	298.15	755.8	0.7
0.6737	5000	298.15	759.9	0.7
0.6737	10000	298.15	764.7	0.7
0.6737	15000	298.15	769.1	0.7
0.6737	20000	298.15	773.4	0.8
0.6737	25000	298.15	777.4	0.8
0.6737	30000	298.15	781.2	0.8
0.6737	35000	298.15	784.8	0.8
0.6737	40000	298.15	788.3	0.8
0.6737	45000	298.15	791.7	0.8
0.6737	50000	298.15	794.9	0.8
0.6737	55000	298.15	798.1	0.9
0.6737	60000	298.15	801.1	0.9
0.6737	65000	298.15	804	0.9
0.6737	70000	298.15	806.8	0.9
0.6737	80000	298.15	812.3	0.9
0.6737	90000	298.15	817.5	1
0.6737	100000	298.15	822.4	1
0.6737	110000	298.15	827.1	1
0.6737	120000	298.15	831.5	1.1
0.6737	130000	298.15	835.7	1.1
0.6737	140000	298.15	839.8	1.1
0.6737	100	313.15	740.2	0.7
0.6737	1000	313.15	741.3	0.7
0.6737	5000	313.15	745.9	0.7
0.6737	10000	313.15	751.1	0.7
0.6737	15000	313.15	756	0.7
0.6737	20000	313.15	760.7	0.8
0.6737	25000	313.15	764.8	0.8
0.6737	30000	313.15	769.2	0.8
0.6737	35000	313.15	773.1	0.8
0.6737	40000	313.15	776.8	0.8
0.6737	45000	313.15	780.4	0.8
0.6737	50000	313.15	783.9	0.9
0.6737	55000	313.15	787.3	0.9
0.6737	60000	313.15	790.5	0.9
0.6737	65000	313.15	793.7	0.9
0.6737	70000	313.15	796.6	0.9
0.6737	80000	313.15	802.3	1
0.6737	90000	313.15	807.8	1
0.6737	100000	313.15	812.9	1
0.6737	110000	313.15	817.9	1.1
0.6737	120000	313.15	822.4	1.1
0.6737	130000	313.15	826.9	1.1
0.6737	140000	313.15	831.3	1.2
0.6737	100	333.15	719.4	0.7
0.6737	1000	333.15	720.7	0.7
0.6737	5000	333.15	726.1	0.7
0.6737	10000	333.15	732.2	0.7
0.6737	15000	333.15	737.9	0.8
0.6737	20000	333.15	743.1	0.8
0.6737	25000	333.15	748	0.8
0.6737	30000	333.15	752.6	0.8
0.6737	35000	333.15	757	0.8
0.6737	40000	333.15	761.2	0.8
0.6737	45000	333.15	765.1	0.9
0.6737	50000	333.15	768.9	0.9
0.6737	55000	333.15	772.6	0.9
0.6737	60000	333.15	776.1	0.9
0.6737	65000	333.15	779.4	0.9
0.6737	70000	333.15	782.7	1
0.6737	80000	333.15	788.9	1
0.6737	90000	333.15	794.8	1
0.6737	100000	333.15	800.2	1.1
0.6737	110000	333.15	805.5	1.1
0.6737	120000	333.15	810.4	1.1
0.6737	130000	333.15	815.2	1.2
0.6737	140000	333.15	819.7	1.2
0.6737	1000	353.19	698.3	0.7
0.6737	5000	353.19	704.7	0.7
0.6737	10000	353.19	711.9	0.7
0.6737	15000	353.19	718.5	0.8
0.6737	20000	353.19	724.5	0.8
0.6737	25000	353.19	730.1	0.8
0.6737	30000	353.19	735.3	0.8
0.6737	35000	353.19	740.2	0.8
0.6737	40000	353.19	744.8	0.9
0.6737	45000	353.19	749.2	0.9
0.6737	50000	353.19	753.5	0.9
0.6737	55000	353.19	757.3	0.9
0.6737	60000	353.19	761.1	0.9
0.6737	65000	353.19	764.9	1
0.6737	70000	353.19	768.4	1
0.6737	80000	353.19	775	1
0.6737	90000	353.19	781.4	1.1
0.6737	100000	353.19	787.2	1.1
0.6737	110000	353.19	792.9	1.2
0.6737	120000	353.19	798.1	1.2
0.6737	130000	353.19	803.1	1.2
0.6737	140000	353.19	808	1.3
0.6737	1000	373.24	673.6	0.7
0.6737	5000	373.24	681.4	0.7
0.6737	10000	373.24	690.1	0.8
0.6737	15000	373.24	697.9	0.8
0.6737	20000	373.24	704.8	0.8
0.6737	25000	373.24	711.2	0.8
0.6737	30000	373.24	717.1	0.8
0.6737	35000	373.24	722.6	0.9
0.6737	40000	373.24	727.8	0.9
0.6737	45000	373.24	732.7	0.9
0.6737	50000	373.24	737.2	0.9
0.6737	55000	373.24	741.7	0.9
0.6737	60000	373.24	745.8	1
0.6737	65000	373.24	749.8	1
0.6737	70000	373.24	753.6	1
0.6737	80000	373.24	760.9	1.1
0.6737	90000	373.24	767.7	1.1
0.6737	100000	373.24	774	1.2
0.6737	110000	373.24	779.9	1.2
0.6737	120000	373.24	785.5	1.2
0.6737	130000	373.24	790.9	1.3
0.6737	140000	373.24	796	1.3
0.6737	1000	393.28	645.9	0.7
0.6737	5000	393.28	655.9	0.7
0.6737	10000	393.28	666.5	0.8
0.6737	15000	393.28	675.7	0.8
0.6737	20000	393.28	683.9	0.8
0.6737	25000	393.28	691.2	0.8
0.6737	30000	393.28	698	0.8
0.6737	35000	393.28	704.2	0.9
0.6737	40000	393.28	710.1	0.9
0.6737	45000	393.28	715.4	0.9
0.6737	50000	393.28	720.5	0.9
0.6737	55000	393.28	725.4	1
0.6737	60000	393.28	729.9	1
0.6737	65000	393.28	734.3	1
0.6737	70000	393.28	738.5	1
0.6737	80000	393.28	746.4	1.1
0.6737	90000	393.28	753.7	1.1
0.6737	100000	393.28	760.4	1.2
0.6737	110000	393.28	766.8	1.2
0.6737	120000	393.28	772.8	1.3
0.6737	130000	393.28	778.4	1.3
0.6737	140000	393.28	783.9	1.4
0.8483	100	298.15	768	0.7
0.8483	1000	298.15	768.9	0.7
0.8483	5000	298.15	772.6	0.7
0.8483	10000	298.15	777.1	0.7
0.8483	15000	298.15	781.3	0.7
0.8483	20000	298.15	785.2	0.8
0.8483	25000	298.15	789	0.8
0.8483	30000	298.15	792.6	0.8
0.8483	35000	298.15	796	0.8
0.8483	40000	298.15	799.3	0.8
0.8483	45000	298.15	802.6	0.8
0.8483	50000	298.15	805.6	0.8
0.8483	55000	298.15	808.6	0.8
0.8483	60000	298.15	811.5	0.9
0.8483	65000	298.15	814.3	0.9
0.8483	70000	298.15	817.1	0.9
0.8483	80000	298.15	822.3	0.9
0.8483	90000	298.15	827.3	1
0.8483	100000	298.15	832	1
0.8483	110000	298.15	836.6	1
0.8483	120000	298.15	840.8	1
0.8483	130000	298.15	844.9	1.1
0.8483	140000	298.15	848.9	1.1
0.8483	100	313.15	754	0.7
0.8483	1000	313.15	755	0.7
0.8483	5000	313.15	759.2	0.7
0.8483	10000	313.15	764.1	0.7
0.8483	15000	313.15	768.7	0.7
0.8483	20000	313.15	773	0.8
0.8483	25000	313.15	776.9	0.8
0.8483	30000	313.15	781	0.8
0.8483	35000	313.15	784.7	0.8
0.8483	40000	313.15	788.2	0.8
0.8483	45000	313.15	791.7	0.8
0.8483	50000	313.15	794.9	0.8
0.8483	55000	313.15	798.1	0.9
0.8483	60000	313.15	801.2	0.9
0.8483	65000	313.15	804.2	0.9
0.8483	70000	313.15	807	0.9
0.8483	80000	313.15	812.5	0.9
0.8483	90000	313.15	817.8	1
0.8483	100000	313.15	822.7	1
0.8483	110000	313.15	827.5	1
0.8483	120000	313.15	832	1.1
0.8483	130000	313.15	836.3	1.1
0.8483	140000	313.15	840.6	1.1
0.8483	100	333.15	734.1	0.7
0.8483	1000	333.15	735.3	0.7
0.8483	5000	333.15	740.2	0.7
0.8483	10000	333.15	745.8	0.7
0.8483	15000	333.15	751.1	0.7
0.8483	20000	333.15	755.9	0.8
0.8483	25000	333.15	760.5	0.8
0.8483	30000	333.15	764.9	0.8
0.8483	35000	333.15	769	0.8
0.8483	40000	333.15	772.9	0.8
0.8483	45000	333.15	776.6	0.8
0.8483	50000	333.15	780.3	0.9
0.8483	55000	333.15	783.8	0.9
0.8483	60000	333.15	787	0.9
0.8483	65000	333.15	790.3	0.9
0.8483	70000	333.15	793.5	0.9
0.8483	80000	333.15	799.3	1
0.8483	90000	333.15	805	1
0.8483	100000	333.15	810.2	1
0.8483	110000	333.15	815.3	1.1
0.8483	120000	333.15	820.1	1.1
0.8483	130000	333.15	824.7	1.1
0.8483	140000	333.15	829.1	1.2
0.8483	1000	353.19	713.7	0.7
0.8483	5000	353.19	719.5	0.7
0.8483	10000	353.19	726.1	0.7
0.8483	15000	353.19	732.2	0.8
0.8483	20000	353.19	737.7	0.8
0.8483	25000	353.19	742.9	0.8
0.8483	30000	353.19	747.8	0.8
0.8483	35000	353.19	752.4	0.8
0.8483	40000	353.19	756.7	0.8
0.8483	45000	353.19	760.8	0.9
0.8483	50000	353.19	764.9	0.9
0.8483	55000	353.19	768.6	0.9
0.8483	60000	353.19	772.2	0.9
0.8483	65000	353.19	775.8	0.9
0.8483	70000	353.19	779.2	1
0.8483	80000	353.19	785.5	1
0.8483	90000	353.19	791.6	1
0.8483	100000	353.19	797.2	1.1
0.8483	110000	353.19	802.7	1.1
0.8483	120000	353.19	807.7	1.2
0.8483	130000	353.19	812.6	1.2
0.8483	140000	353.19	817.4	1.2
0.8483	1000	373.24	689.6	0.7
0.8483	5000	373.24	696.7	0.7
0.8483	10000	373.24	704.5	0.7
0.8483	15000	373.24	711.6	0.8
0.8483	20000	373.24	718	0.8
0.8483	25000	373.24	724	0.8
0.8483	30000	373.24	729.5	0.8
0.8483	35000	373.24	734.7	0.8
0.8483	40000	373.24	739.6	0.9
0.8483	45000	373.24	744.3	0.9
0.8483	50000	373.24	748.6	0.9
0.8483	55000	373.24	752.7	0.9
0.8483	60000	373.24	756.7	0.9
0.8483	65000	373.24	760.5	1
0.8483	70000	373.24	764.2	1
0.8483	80000	373.24	771.2	1
0.8483	90000	373.24	777.7	1.1
0.8483	100000	373.24	783.8	1.1
0.8483	110000	373.24	789.5	1.2
0.8483	120000	373.24	795	1.2
0.8483	130000	373.24	800.2	1.2
0.8483	140000	373.24	805.1	1.3
0.8483	1000	393.28	662.5	0.7
0.8483	5000	393.28	671.3	0.7
0.8483	10000	393.28	680.9	0.8
0.8483	15000	393.28	689.4	0.8
0.8483	20000	393.28	696.9	0.8
0.8483	25000	393.28	703.8	0.8
0.8483	30000	393.28	710.1	0.8
0.8483	35000	393.28	716	0.9
0.8483	40000	393.28	721.5	0.9
0.8483	45000	393.28	726.6	0.9
0.8483	50000	393.28	731.5	0.9
0.8483	55000	393.28	736.2	1
0.8483	60000	393.28	740.5	1
0.8483	65000	393.28	744.7	1
0.8483	70000	393.28	748.8	1
0.8483	80000	393.28	756.3	1.1
0.8483	90000	393.28	763.4	1.1
0.8483	100000	393.28	769.9	1.2
0.8483	110000	393.28	776.1	1.2
0.8483	120000	393.28	781.8	1.3
0.8483	130000	393.28	787.4	1.3
0.8483	140000	393.28	792.7	1.3
