Measured thermophysical data. Vapour liquid equilibrium data for the 1,1,1,2 tetrafluoroethane (R134a) + dimethyl ether (DME) system at temperatures from 293.18 to 358.15K and pressures up to about 3 MPa up to about 3MPa
Source: Fluid Phase Equilib., 2005, 10.1016/j.fluid.2005.01.001
Compound 1: dimethyl ether, C2H6O, InChI=1S/C2H6O/c1-3-2/h1-2H3
Compound 2: 1,1,1,2-tetrafluoroethane, C2H2F4, InChI=1S/C2H2F4/c3-1-2(4,5)6/h1H2

System: dimethyl ether; phases: Liquid, Gas
Property: Vapor or sublimation pressure, kPa (Liquid); method: CCELL:UFactor:2
Temperature, K	Vapor or sublimation pressure, kPa	uncertainty
278.25	317.6	1
283.2	373.6	1.2
288.19	437.4	1.4
293.2	509.4	1.6
298.19	589.6	1.9
303.18	679.2	2.2
303.19	678.1	2.2
308.19	778.7	2.5
313.2	888.8	2.8
318.19	1009.5	3.2
323.28	1144.5	3.6
323.37	1146.2	3.6
328.25	1289.2	4.1
333.23	1447.2	4.6
338.23	1619.9	5.1
343.18	1805.3	5.7
343.41	1814.4	5.7
347.42	1976.8	6.2
348.17	2007.3	6.3
351.44	2149.6	6.7
353.1	2224.5	7
353.45	2240	7
355.08	2315.6	7.3
355.46	2333.3	7.3
357.49	2429.5	7.6
359.49	2528.5	7.9
360.52	2579.1	8.1

System: 1,1,1,2-tetrafluoroethane; phases: Liquid, Gas
Property: Vapor or sublimation pressure, kPa (Liquid); method: CCELL:UFactor:2
Temperature, K	Vapor or sublimation pressure, kPa	uncertainty
277.22	339.5	1.2
279.24	364	1.2
281.25	389.7	1.3
283.24	416.7	1.4
285.26	445.4	1.5
287.27	475.4	1.6
289.27	506.9	1.7
291.29	539.9	1.8
293.31	575.1	1.9
295.3	610.8	2
297.32	649.3	2.2
299.21	685.5	2.5
299.31	688.7	2.5
299.34	689.4	2.5
301.19	726.7	2.6
301.3	730	2.6
303.06	767	2.6
303.19	769.8	2.6
303.31	773.5	2.6
305.33	819.1	2.7
307.34	866.6	2.9
309.35	916	3
311.35	967.3	3.2
313.31	1019.3	3.4
315.36	1076.9	3.5
317.32	1133	3.7
319.38	1195.5	3.9
321.34	1256.1	4.1
329.37	1532.3	5
335.39	1767.4	5.7
337.41	1851.9	6
339.41	1939.2	6.3
341.43	2029.5	6.6
343.43	2123	6.9
347.44	2319.8	7.5
349.46	2419.4	7.8
351.46	2530.3	8.2
353.48	2641.1	8.5
355.48	2755.4	8.9
360.48	3054.3	9.8

System: dimethyl ether + 1,1,1,2-tetrafluoroethane; phases: Liquid, Gas
Property: Vapor or sublimation pressure, kPa (Liquid); method: CCELL:UFactor:2
Mole fraction of 1,1,1,2-tetrafluoroethane	Temperature, K	Vapor or sublimation pressure, kPa	uncertainty
0.0129	343.42	1815.1	11.9
0.0574	303.17	671.4	4.4
0.0677	293.18	502	3.3
0.0707	343.42	1812.8	11.8
0.0812	323.36	1138.5	7.4
0.0857	343.42	1812.5	11.8
0.1076	358.15	2473.4	16.1
0.1078	343.42	1812.5	11.8
0.1162	303.17	665.1	4.4
0.1176	293.18	496.5	3.3
0.1373	293.18	494.9	3.3
0.1738	323.36	1132.6	7.4
0.1844	293.18	491.2	3.2
0.1912	303.17	659.6	4.3
0.1914	343.42	1815	11.9
0.2312	323.36	1131.8	7.4
0.2324	293.18	489.3	3.2
0.2571	323.36	1132.3	7.4
0.2744	293.18	488.1	3.2
0.3115	358.15	2517.9	16.4
0.3246	293.18	487.6	3.2
0.3822	303.17	658.3	4.3
0.4088	323.36	1145.2	7.5
0.4349	293.18	495.2	3.3
0.4444	343.42	1862.3	12.2
0.4801	358.15	2585.2	16.9
0.5499	293.18	507.6	3.3
0.561	303.17	677.1	4.4
0.5629	323.36	1175.6	7.7
0.5838	343.42	1912.3	12.5
0.6018	358.15	2650.7	17.3
0.6868	303.17	699	4.6
0.6947	343.42	1961.7	12.8
0.7099	323.36	1217.9	8
0.7173	358.15	2720.8	17.7
0.7301	293.18	525.7	3.5
0.7845	303.17	719.9	4.7
0.8085	343.42	2019.4	13.2
0.8168	323.36	1255.6	8.2
0.8284	358.15	2795.9	18.2
0.8531	303.17	737.6	4.8
0.8683	293.18	548.4	3.6
0.8853	343.42	2060.1	13.4
0.8873	323.36	1281.6	8.4
0.895	303.17	746.2	4.9
0.9109	303.17	750.9	4.9
0.9125	343.42	2076.5	13.6
0.9137	358.15	2861.3	18.7

System: dimethyl ether + 1,1,1,2-tetrafluoroethane; phases: Gas, Liquid
Property: Mole fraction of 1,1,1,2-tetrafluoroethane (Gas); method: Chromatography
Mole fraction of 1,1,1,2-tetrafluoroethane	Temperature, K	Mole fraction of 1,1,1,2-tetrafluoroethane	uncertainty
0.0129	343.42	0.0125	0.0004
0.0574	303.17	0.0498	0.0016
0.0677	293.18	0.0559	0.0016
0.0707	343.42	0.0699	0.0021
0.0812	323.36	0.0761	0.0023
0.0857	343.42	0.0854	0.0026
0.1076	358.15	0.1105	0.0033
0.1078	343.42	0.1081	0.0032
0.1162	303.17	0.1088	0.0033
0.1176	293.18	0.0949	0.003
0.1373	293.18	0.1206	0.004
0.1738	323.36	0.169	0.0051
0.1844	293.18	0.1704	0.0054
0.1912	303.17	0.1796	0.0057
0.1914	343.42	0.1945	0.0059
0.2312	323.36	0.2307	0.0071
0.2324	293.18	0.2205	0.0069
0.2571	323.36	0.259	0.008
0.2744	293.18	0.2666	0.0086
0.3115	358.15	0.3267	0.0097
0.3246	293.18	0.3261	0.0103
0.3822	303.17	0.3954	0.0122
0.4088	323.36	0.4274	0.0129
0.4349	293.18	0.4531	0.0141
0.4444	343.42	0.4691	0.0139
0.4801	358.15	0.5035	0.0148
0.5499	293.18	0.5863	0.017
0.561	303.17	0.5989	0.0175
0.5629	323.36	0.5958	0.0172
0.5838	343.42	0.6144	0.0174
0.6018	358.15	0.6267	0.0176
0.6868	303.17	0.7292	0.0201
0.6947	343.42	0.7247	0.0199
0.7099	323.36	0.7437	0.0204
0.7173	358.15	0.7392	0.0203
0.7301	293.18	0.7712	0.0211
0.7845	303.17	0.8204	0.0219
0.8085	343.42	0.8318	0.0224
0.8168	323.36	0.8434	0.0223
0.8284	358.15	0.8439	0.0229
0.8531	303.17	0.8814	0.0229
0.8683	293.18	0.8951	0.0237
0.8853	343.42	0.8999	0.0238
0.8873	323.36	0.9009	0.0236
0.895	303.17	0.9161	0.0238
0.9109	303.17	0.9293	0.0247
0.9125	343.42	0.9246	0.0245
0.9137	358.15	0.9217	0.0249
