Measured thermophysical data. Heterogeneous interaction between zwitterions of some l- -amino acids and ethanol molecule in water at 298.15K
Source: Fluid Phase Equilib., 2006, 10.1016/j.fluid.2006.10.001
Compound 1: (S)-2-aminobutanoic acid, C4H9NO2, InChI=1S/C4H9NO2/c1-2-3(5)4(6)7/h3H,2,5H2,1H3,(H,6,7)/t3-/m0/s1
Compound 2: 2-amino-3-methylpentanoic acid, C6H13NO2, InChI=1S/C6H13NO2/c1-3-4(2)5(7)6(8)9/h4-5H,3,7H2,1-2H3,(H,8,9)/t4-,5-/m0/s1
Compound 3: L-serine, C3H7NO3, InChI=1S/C3H7NO3/c4-2(1-5)3(6)7/h2,5H,1,4H2,(H,6,7)/t2-/m0/s1
Compound 4: (R)-2-amino-3-mercaptopropanoic acid, C3H7NO2S, InChI=1S/C3H7NO2S/c4-2(1-7)3(5)6/h2,7H,1,4H2,(H,5,6)/t2-/m0/s1
Compound 5: L-threonine, C4H9NO3, InChI=1S/C4H9NO3/c1-2(6)3(5)4(7)8/h2-3,6H,5H2,1H3,(H,7,8)/t2-,3+/m1/s1
Compound 6: water, H2O, InChI=1S/H2O/h1H2
Compound 7: ethanol, C2H6O, InChI=1S/C2H6O/c1-2-3/h3H,2H2,1H3

System: ethanol + (S)-2-aminobutanoic acid + water; phases: Liquid
Fixed: Temperature, K = 298.15
Fixed: Pressure, kPa = 101
Fixed: Mole fraction of (S)-2-aminobutanoic acid = 0
Property: Molar enthalpy of solution, kJ/mol (Liquid); method: ISOPERIBOL
Solvent: Molality, mol/kg of ethanol	Molar enthalpy of solution, kJ/mol	uncertainty
1	2.31	0.04
2	3.78	0.07
3	4.96	0.09
4	5.98	0.09
5	6.9	0.09

System: ethanol + 2-amino-3-methylpentanoic acid + water; phases: Liquid
Fixed: Temperature, K = 298.15
Fixed: Pressure, kPa = 101
Fixed: Mole fraction of 2-amino-3-methylpentanoic acid = 0
Property: Molar enthalpy of solution, kJ/mol (Liquid); method: ISOPERIBOL
Solvent: Molality, mol/kg of ethanol	Molar enthalpy of solution, kJ/mol	uncertainty
1	4.89	0.07
2	6.93	0.09
3	8.37	0.12
4	10.21	0.14
5	11.07	0.14

System: L-serine + ethanol + water; phases: Liquid
Fixed: Temperature, K = 298.15
Fixed: Pressure, kPa = 101
Fixed: Mole fraction of L-serine = 0
Property: Molar enthalpy of solution, kJ/mol (Liquid); method: ISOPERIBOL
Solvent: Molality, mol/kg of ethanol	Molar enthalpy of solution, kJ/mol	uncertainty
0.5	12.12	0.15
1	12.61	0.15
1.5	13.24	0.15
2	13.83	0.15
2.5	14.42	0.17
3	15.14	0.18
3.5	15.76	0.2
4	16.26	0.2
4.5	16.78	0.2
5	17.36	0.22

System: ethanol + L-threonine + water; phases: Liquid
Fixed: Temperature, K = 298.15
Fixed: Pressure, kPa = 101
Fixed: Mole fraction of L-threonine = 0
Property: Molar enthalpy of solution, kJ/mol (Liquid); method: ISOPERIBOL
Solvent: Molality, mol/kg of ethanol	Molar enthalpy of solution, kJ/mol	uncertainty
0.5	11.03	0.14
1	11.72	0.15
1.5	12.48	0.15
2	13.11	0.17
2.5	13.62	0.17
3	14.25	0.17
3.5	14.7	0.17
4	15.07	0.19
4.5	15.67	0.19
5	16.01	0.21

System: (R)-2-amino-3-mercaptopropanoic acid + ethanol + water; phases: Liquid
Fixed: Temperature, K = 298.15
Fixed: Pressure, kPa = 101
Fixed: Mole fraction of (R)-2-amino-3-mercaptopropanoic acid = 0
Property: Molar enthalpy of solution, kJ/mol (Liquid); method: ISOPERIBOL
Solvent: Molality, mol/kg of ethanol	Molar enthalpy of solution, kJ/mol	uncertainty
0.5	11.76	0.15
1	12.42	0.15
1.5	13.02	0.15
2	13.58	0.15
2.5	14.05	0.17
3	14.53	0.17
3.5	15.33	0.18
4	15.72	0.19
4.5	16.06	0.2
5	16.75	0.2
