Measured thermophysical data. (Liquid + liquid) equilibria for the ternary system of (N-formylmorpholine + ethylbenzene + 2,2,4-trimethylpentane) at temperatures (303.15, 313.15, and 323.15) K
Source: Fluid Phase Equilib., 2012, 10.1016/j.fluid.2012.05.010
Compound 1: N-formylmorpholine, C5H9NO2, InChI=1S/C5H9NO2/c7-5-6-1-3-8-4-2-6/h5H,1-4H2, purity 99.5%
Compound 2: ethylbenzene, C8H10, InChI=1S/C8H10/c1-2-8-6-4-3-5-7-8/h3-7H,2H2,1H3, purity 99.5%
Compound 3: 2,2,4-trimethylpentane, C8H18, InChI=1S/C8H18/c1-7(2)6-8(3,4)5/h7H,6H2,1-5H3, purity 99.8%

System: ethylbenzene + 2,2,4-trimethylpentane + N-formylmorpholine; phases: Liquid mixture 1, Liquid mixture 2
Fixed: Pressure, kPa = 1
Property: Mole fraction of ethylbenzene (Liquid mixture 1); method: Chromatography
Property: Mole fraction of 2,2,4-trimethylpentane (Liquid mixture 2); method: Chromatography
Property: Mole fraction of ethylbenzene (Liquid mixture 2); method: Chromatography
Temperature, K	Mole fraction of 2,2,4-trimethylpentane	Mole fraction of ethylbenzene	uncertainty	Mole fraction of 2,2,4-trimethylpentane	uncertainty	Mole fraction of ethylbenzene	uncertainty
303.15	0.8543	0.0781	0.0021	0.0173	0.002	0.0249	
303.15	0.822	0.1328	0.0022	0.0212	0.002	0.0514	
303.15	0.7642	0.1849	0.0024	0.0206	0.002	0.0714	
303.15	0.6943	0.2415	0.0026	0.0246	0.002	0.0981	
303.15	0.6435	0.2817	0.0028	0.0264	0.002	0.1192	
303.15	0.6034	0.3119	0.003	0.0296	0.002	0.1431	
303.15	0.5575	0.3425	0.0031	0.0336	0.002	0.1667	
303.15	0.5363	0.3643	0.0033	0.0332	0.002	0.1794	
303.15	0.4982	0.3967	0.0034	0.0355	0.002	0.1955	
313.15	0.8662	0.0655	0.0021	0.0238	0.002	0.0256	
313.15	0.8187	0.1138	0.0022	0.0252	0.002	0.0438	
313.15	0.7403	0.171	0.0023	0.0274	0.002	0.0698	
313.15	0.6835	0.2257	0.0026	0.0299	0.002	0.0987	
313.15	0.6146	0.2671	0.0028	0.0308	0.002	0.1216	
313.15	0.5703	0.31	0.003	0.0334	0.002	0.1464	
313.15	0.5286	0.3445	0.0032	0.043	0.002	0.1714	
313.15	0.4963	0.3757	0.0033	0.039	0.002	0.1983	
313.15	0.458	0.4071	0.0035	0.0396	0.002	0.2122	
313.15	0.3321	0.4899	0.004	0.0503	0.002	0.273	
313.15	0.2863	0.4955	0.004	0.0597	0.002	0.3133	
313.15	0.2161	0.4852	0.004	0.0624	0.002	0.3314	
313.15	0.3277	0.4832	0.004	0.0547	0.002	0.298	
313.15	0.2862	0.4971	0.004	0.0732	0.0021	0.3387	
313.15	0.2075	0.48	0.0039	0.0959	0.0021	0.3832	
323.15	0.817	0.1004	0.0021	0.0315	0.002	0.0389	
323.15	0.7433	0.1698	0.0023	0.0275	0.002	0.0705	
323.15	0.6664	0.2371	0.0026	0.0338	0.002	0.0917	
323.15	0.6434	0.2601	0.0027	0.0329	0.002	0.1168	
323.15	0.5839	0.3112	0.003	0.0392	0.002	0.148	
323.15	0.5278	0.3559	0.0032	0.0403	0.002	0.1733	
323.15	0.4808	0.3984	0.0035	0.0399	0.002	0.1962	
323.15	0.4296	0.4378	0.0037	0.0417	0.002	0.2209	
323.15	0.3915	0.4649	0.0038	0.0472	0.002	0.2564	
323.15	0.3295	0.4881	0.004	0.0499	0.002	0.2716	
323.15	0.2863	0.4955	0.004	0.058	0.002	0.3121	
323.15	0.2166	0.4847	0.004	0.0625	0.002	0.3305	
