Measured thermophysical data. Hydrogen solubility of mixed naphthenes and aromatics for a new hydrogen storage medium in fuel cell system
Source: Fluid Phase Equilib., 2007, 10.1016/j.fluid.2007.07.062
Compound 1: benzene, C6H6, InChI=1S/C6H6/c1-2-4-6-5-3-1/h1-6H
Compound 2: toluene, C7H8, InChI=1S/C7H8/c1-7-5-3-2-4-6-7/h2-6H,1H3
Compound 3: cyclohexane, C6H12, InChI=1S/C6H12/c1-2-4-6-5-3-1/h1-6H2
Compound 4: methylcyclohexane, C7H14, InChI=1S/C7H14/c1-7-5-3-2-4-6-7/h7H,2-6H2,1H3
Compound 5: hydrogen, H2, InChI=1S/H2/h1H

System: benzene + toluene + hydrogen; phases: Liquid, Gas
Fixed: Solvent: Mole fraction of benzene = 0.5
Fixed: Temperature, K = 303.15
Property: Mole fraction of hydrogen (Liquid); method: mass measurements in a pressurized view cell
Pressure, kPa	Mole fraction of hydrogen	uncertainty
1509	0.004669	0.000187
2610	0.008081	0.000323
2864	0.008859	0.000354
3019	0.009222	0.000369
3466	0.010644	0.000426
3890	0.011895	0.000476
4212	0.012984	0.000519

System: methylcyclohexane + cyclohexane + hydrogen; phases: Liquid, Gas
Fixed: Solvent: Mole fraction of cyclohexane = 0.5
Fixed: Temperature, K = 303.15
Property: Mole fraction of hydrogen (Liquid); method: mass measurements in a pressurized view cell
Pressure, kPa	Mole fraction of hydrogen	uncertainty
1202	0.005436	0.000217
1465	0.006787	0.000271
1741	0.008105	0.000324
2371	0.011048	0.000442
2801	0.013264	0.000531
3291	0.015444	0.000618
3935	0.018508	0.00074
4291	0.020158	0.000806

System: benzene + methylcyclohexane + hydrogen; phases: Liquid, Gas
Fixed: Solvent: Mole fraction of methylcyclohexane = 0.5
Fixed: Temperature, K = 303.15
Property: Mole fraction of hydrogen (Liquid); method: mass measurements in a pressurized view cell
Pressure, kPa	Mole fraction of hydrogen	uncertainty
1319	0.005149	0.000206
1685	0.006846	0.000274
2142	0.00875	0.00035
2545	0.010492	0.00042
3122	0.012915	0.000517
3557	0.014787	0.000591
3914	0.01616	0.000646

System: toluene + cyclohexane + hydrogen; phases: Liquid, Gas
Fixed: Solvent: Mole fraction of cyclohexane = 0.5
Fixed: Temperature, K = 303.15
Property: Mole fraction of hydrogen (Liquid); method: mass measurements in a pressurized view cell
Pressure, kPa	Mole fraction of hydrogen	uncertainty
1200	0.004714	0.000189
1551	0.006134	0.000245
1905	0.007498	0.0003
2187	0.008554	0.000342
2713	0.010725	0.000429
3177	0.0126	0.000504
3614	0.014251	0.00057
3991	0.01581	0.000632
