Measured thermophysical data. Solubility of fluphenazine decanoate in aqueous mixtures of polyethylene glycols 400 and 600 at various temperatures
Source: Fluid Phase Equilib., 2014, 10.1016/j.fluid.2014.01.044
Compound 1: decanoic acid, 2-[4-[3-[2-(trifluoromethyl)-10H-phenothiazin-10-yl]propyl]-1-piperazinyl]ethyl ester, C32H44F3N3O2S, InChI=1S/C32H44F3N3O2S/c1-2-3-4-5-6-7-8-14-31(39)40-24-23-37-21-19-36(20-22-37)17-11-18-38-27-12-9-10-13-29(27)41-30-16-15-26(25-28(30)38)32(33,34)35/h9-10,12-13,15-16,25H,2-8,11,14,17-24H2,1H3, purity 99.4%
Compound 2: water, H2O, InChI=1S/H2O/h1H2, purity 99.8%

System: water; phases: Liquid
Fixed: Pressure, kPa = 100.2
Property: Mass density, kg/m3 (Liquid); method: Pycnometric method
Temperature, K	Mass density, kg/m3	uncertainty
298.2	1000	2
303.2	996	2
308.2	993	2
313.2	991	2
318.2	989	2

System: decanoic acid, 2-[4-[3-[2-(trifluoromethyl)-10H-phenothiazin-10-yl]propyl]-1-piperazinyl]ethyl ester + water; phases: Liquid, Crystal
Fixed: Pressure, kPa = 101
Property: Mole fraction of decanoic acid, 2-[4-[3-[2-(trifluoromethyl)-10H-phenothiazin-10-yl]propyl]-1-piperazinyl]ethyl ester (Liquid); method: UV-Vis spectrophotometer
Temperature, K	Mole fraction of decanoic acid, 2-[4-[3-[2-(trifluoromethyl)-10H-phenothiazin-10-yl]propyl]-1-piperazinyl]ethyl ester	uncertainty
298.2	2.41e-07	3.3e-08
303.2	3.11e-07	2.4e-08
308.2	4.62e-07	4.4e-08
313.2	5.86e-07	4.8e-08
318.2	6.93e-07	3.8e-08

System: decanoic acid, 2-[4-[3-[2-(trifluoromethyl)-10H-phenothiazin-10-yl]propyl]-1-piperazinyl]ethyl ester + water; phases: Liquid
Fixed: Pressure, kPa = 100.2
Property: Mass density, kg/m3 (Liquid); method: Pycnometric method
Temperature, K	Mole fraction of decanoic acid, 2-[4-[3-[2-(trifluoromethyl)-10H-phenothiazin-10-yl]propyl]-1-piperazinyl]ethyl ester	Mass density, kg/m3	uncertainty
298.2	2.41e-07	1000	5
303.2	3.11e-07	996	6
308.2	4.32e-07	993	13
313.2	5.86e-07	991	2
318.2	6.93e-07	989	2
