Measured thermophysical data. Effect of some imidazolium based ionic liquids on the electrical conductivity of L(+)-lactic acid in aqueous solutions of poly(ethylene glycol)
Source: Fluid Phase Equilib., 2017, 10.1016/j.fluid.2017.08.003
Compound 1: water, H2O, InChI=1S/H2O/h1H2, purity 99.9%
Compound 2: (S)-2-hydroxypropanoic acid, C3H6O3, InChI=1S/C3H6O3/c1-2(4)3(5)6/h2,4H,1H3,(H,5,6)/t2-/m0/s1, purity 98%

System: water + (S)-2-hydroxypropanoic acid; phases: Liquid
Fixed: Pressure, kPa = 101
Property: Molar conductivity, S*m2/mol (Liquid); method: Alternating current cell with electrodes
Temperature, K	Molality, mol/kg of (S)-2-hydroxypropanoic acid	Molar conductivity, S*m2/mol	uncertainty
288.15	7.62e-05	0.02472	0.00069
288.15	9.53e-05	0.023244	0.000656
288.15	0.0001093	0.022849	0.000647
288.15	0.0001222	0.022302	0.000635
288.15	0.0001416	0.021804	0.000624
288.15	0.0001684	0.020245	0.000593
288.15	0.0001938	0.019833	0.000585
288.15	0.0002184	0.019088	0.000572
288.15	0.0002564	0.018184	0.000557
288.15	0.0003098	0.017136	0.000541
288.15	0.0003596	0.016321	0.00053
288.15	0.0004098	0.015634	0.000522
288.15	0.0004795	0.01461	0.000511
288.15	0.0005582	0.013883	0.000505
288.15	0.0006484	0.013181	0.0005
298.15	5.97e-05	0.030402	0.000839
298.15	7.35e-05	0.027687	0.000763
298.15	0.0001005	0.025303	0.000699
298.15	0.0001102	0.025003	0.000691
298.15	0.0001295	0.024332	0.000673
298.15	0.000137	0.023582	0.000653
298.15	0.0001627	0.022681	0.000628
298.15	0.000203	0.021194	0.000588
298.15	0.0002775	0.019316	0.000536
298.15	0.0003156	0.018286	0.000508
298.15	0.0003881	0.017183	0.000478
298.15	0.0004766	0.016279	0.000454
298.15	0.000544	0.015625	0.000436
298.15	0.0006037	0.015211	0.000425
298.15	0.0006509	0.014803	0.000414
308.15	6.64e-05	0.032244	0.00089
308.15	7.24e-05	0.029298	0.000816
308.15	8.58e-05	0.028026	0.000774
308.15	0.0001179	0.025574	0.000705
308.15	0.0001505	0.024208	0.000668
308.15	0.0001754	0.022952	0.000633
308.15	0.0002013	0.022289	0.000615
308.15	0.0002294	0.02145	0.00059
308.15	0.0002554	0.02082	0.00057
308.15	0.0003345	0.018667	0.000515
308.15	0.0003742	0.017906	0.000494
308.15	0.0004323	0.017161	0.000474
308.15	0.0005301	0.01601	0.00044
308.15	0.0007059	0.014598	0.000403
308.15	0.0008419	0.013293	0.000367
318.15	7.68e-05	0.033102	0.000911
318.15	0.0001063	0.027967	0.000774
318.15	0.0001196	0.026812	0.000746
318.15	0.0001546	0.024937	0.000702
318.15	0.0001933	0.023622	0.000673
318.15	0.0002212	0.022461	0.000648
318.15	0.0002644	0.02123	0.00062
318.15	0.0003075	0.019936	0.000601
318.15	0.0003434	0.019043	0.000587
318.15	0.0004004	0.018459	0.000578
318.15	0.0004721	0.017568	0.000566
318.15	0.0005471	0.016753	0.000556
318.15	0.0005778	0.01603	0.00055
318.15	0.0008473	0.013971	0.000531
318.15	0.0010971	0.013014	0.000438
