Measured thermophysical data. Vapour liquid equilibrium for the ethyl ethanoate + 1-butene, +cis-2-butene, +trans-2-butene, +2-methylpropene, +n-butane and +2-methylpropane
Source: Fluid Phase Equilib., 2005, 10.1016/j.fluid.2004.10.023
Compound 1: 2-methylpropene, C4H8, InChI=1S/C4H8/c1-4(2)3/h1H2,2-3H3, purity 99.8%
Compound 2: butane, C4H10, InChI=1S/C4H10/c1-3-4-2/h3-4H2,1-2H3, purity 99.95%
Compound 3: 2-methylpropane, C4H10, InChI=1S/C4H10/c1-4(2)3/h4H,1-3H3, purity 99.95%
Compound 4: ethyl acetate, C4H8O2, InChI=1S/C4H8O2/c1-3-6-4(2)5/h3H2,1-2H3
Compound 5: 1-butene, C4H8, InChI=1S/C4H8/c1-3-4-2/h3H,1,4H2,2H3, purity 99.6%
Compound 6: (Z)-2-butene, C4H8, InChI=1S/C4H8/c1-3-4-2/h3-4H,1-2H3/b4-3-, purity 99.4%
Compound 7: (E)-2-butene, C4H8, InChI=1S/C4H8/c1-3-4-2/h3-4H,1-2H3/b4-3+, purity 99.4%

System: 2-methylpropene; phases: Liquid, Gas
Property: Vapor or sublimation pressure, kPa (Liquid); method: Closed cell (Static) method
Temperature, K	Vapor or sublimation pressure, kPa	uncertainty
318.4	538.15	2.34

System: butane; phases: Liquid, Gas
Property: Vapor or sublimation pressure, kPa (Liquid); method: Closed cell (Static) method
Temperature, K	Vapor or sublimation pressure, kPa	uncertainty
318.4	436.55	1.89

System: 2-methylpropane; phases: Liquid, Gas
Property: Vapor or sublimation pressure, kPa (Liquid); method: Closed cell (Static) method
Temperature, K	Vapor or sublimation pressure, kPa	uncertainty
318.39	607.54	2.63

System: ethyl acetate; phases: Liquid, Gas
Property: Vapor or sublimation pressure, kPa (Liquid); method: Closed cell (Static) method
Temperature, K	Vapor or sublimation pressure, kPa	uncertainty
318.4	31.37	0.42

System: 1-butene; phases: Liquid, Gas
Property: Vapor or sublimation pressure, kPa (Liquid); method: Closed cell (Static) method
Temperature, K	Vapor or sublimation pressure, kPa	uncertainty
318.42	525.55	2.32

System: (Z)-2-butene; phases: Liquid, Gas
Property: Vapor or sublimation pressure, kPa (Liquid); method: Closed cell (Static) method
Temperature, K	Vapor or sublimation pressure, kPa	uncertainty
318.4	391.45	1.76

System: 1-butene + ethyl acetate; phases: Liquid, Gas
Property: Vapor or sublimation pressure, kPa (Liquid); method: Closed cell (Static) method
Temperature, K	Mole fraction of 1-butene	Vapor or sublimation pressure, kPa	uncertainty
318.39	0.247	195.06	0.93
318.39	0.297	221.96	1.03
318.4	0.034	57.97	0.47
318.4	0.052	70.97	0.51
318.4	0.101	105.57	0.61
318.4	0.149	137.07	0.71
318.4	0.198	166.87	0.82
318.4	0.346	246.66	1.13
318.4	0.396	270.66	1.22
318.4	0.447	293.76	1.31
318.4	0.508	320.46	1.42
318.4	0.798	435.25	1.92
318.4	0.847	455.35	2.01
318.4	0.898	477.05	2.11
318.4	0.948	499.85	2.2
318.41	0	31.27	0.42
318.41	0.014	42.37	0.44
318.41	0.499	316.16	1.4
318.41	0.548	336.66	1.49
318.41	0.598	356.56	1.58
318.41	0.647	376.05	1.67
318.41	0.697	395.45	1.75
318.41	0.747	415.05	1.84
318.41	0.968	509.55	2.25
318.41	0.982	516.35	2.28
318.42	1	525.55	2.32

System: ethyl acetate + (Z)-2-butene; phases: Liquid, Gas
Property: Vapor or sublimation pressure, kPa (Liquid); method: Closed cell (Static) method
Temperature, K	Mole fraction of (Z)-2-butene	Vapor or sublimation pressure, kPa	uncertainty
318.4	0.014	39.07	0.44
318.4	0.032	49.47	0.46
318.4	0.598	270.46	1.23
318.4	0.648	285.06	1.29
318.4	0.697	299.16	1.35
318.4	0.968	380.25	1.71
318.4	0.988	387.35	1.74
318.4	1	391.45	1.76
318.41	0	31.27	0.42
318.41	0.052	60.07	0.48
318.41	0.1	84.37	0.54
318.41	0.149	108.07	0.62
318.41	0.199	130.57	0.69
318.41	0.249	151.27	0.77
318.41	0.298	171.07	0.84
318.41	0.349	189.96	0.91
318.41	0.399	207.96	0.98
318.41	0.449	224.76	1.05
318.41	0.499	240.36	1.11
318.41	0.5	241.06	1.11
318.41	0.548	255.66	1.17
318.41	0.748	313.56	1.41
318.41	0.798	327.96	1.48
318.41	0.847	342.66	1.54
318.41	0.897	357.66	1.61
318.41	0.948	373.75	1.68

System: ethyl acetate + (E)-2-butene; phases: Liquid, Gas
Property: Vapor or sublimation pressure, kPa (Liquid); method: Closed cell (Static) method
Temperature, K	Mole fraction of (E)-2-butene	Vapor or sublimation pressure, kPa	uncertainty
318.38	0.103	92.27	0.57
318.39	0	31.27	0.42
318.39	0.012	39.27	0.44
318.39	0.032	51.47	0.46
318.39	0.052	63.47	0.49
318.39	0.154	119.37	0.65
318.39	0.205	144.37	0.74
318.39	0.256	167.87	0.83
318.39	0.306	189.46	0.91
318.39	0.358	210.36	0.99
318.39	0.407	228.86	1.06
318.39	0.458	247.36	1.14
318.39	0.509	264.76	1.21
318.39	0.948	404.35	1.82
318.39	0.968	411.55	1.85
318.4	0.498	260.86	1.19
318.4	0.547	277.16	1.26
318.4	0.597	292.96	1.32
318.4	0.646	308.36	1.39
318.4	0.696	323.56	1.45
318.4	0.746	338.86	1.52
318.4	0.796	354.26	1.59
318.4	0.846	370.05	1.66
318.4	0.897	386.75	1.74
318.4	0.988	419.25	1.89

System: 2-methylpropene + ethyl acetate; phases: Liquid, Gas
Property: Vapor or sublimation pressure, kPa (Liquid); method: Closed cell (Static) method
Temperature, K	Mole fraction of 2-methylpropene	Vapor or sublimation pressure, kPa	uncertainty
318.4	0.013	41.57	0.44
318.4	0.033	56.67	0.47
318.4	0.056	73.57	0.51
318.4	0.102	104.87	0.6
318.4	0.151	136.57	0.71
318.4	0.202	167.67	0.82
318.4	0.302	224.56	1.03
318.4	0.353	250.66	1.13
318.4	0.404	275.46	1.23
318.4	0.455	299.06	1.32
318.4	0.506	321.96	1.42
318.4	0.597	360.35	1.58
318.4	0.647	381.05	1.67
318.4	0.697	401.65	1.76
318.4	0.746	421.95	1.85
318.4	0.796	442.95	1.94
318.4	0.969	521.85	2.27
318.4	0.988	532.05	2.32
318.4	1	538.15	2.34
318.41	0	31.37	0.42
318.41	0.252	196.76	0.93
318.41	0.498	318.06	1.4
318.41	0.548	339.46	1.49
318.41	0.846	464.65	2.03
318.41	0.897	487.55	2.13
318.41	0.948	511.65	2.23

System: butane + ethyl acetate; phases: Liquid, Gas
Property: Vapor or sublimation pressure, kPa (Liquid); method: Closed cell (Static) method
Temperature, K	Mole fraction of butane	Vapor or sublimation pressure, kPa	uncertainty
318.4	0	31.37	0.42
318.4	0.013	44.27	0.45
318.4	0.034	62.77	0.49
318.4	0.052	78.47	0.53
318.4	0.102	116.47	0.64
318.4	0.15	148.57	0.75
318.4	0.2	177.76	0.86
318.4	0.25	203.56	0.95
318.4	0.3	226.36	1.04
318.4	0.351	246.76	1.12
318.4	0.401	264.96	1.18
318.4	0.597	323.26	1.41
318.4	0.696	348.96	1.52
318.4	0.746	361.65	1.58
318.4	0.797	374.95	1.63
318.4	0.847	388.45	1.69
318.4	0.897	402.95	1.75
318.4	0.948	418.75	1.82
318.4	0.968	425.25	1.85
318.4	0.988	432.15	1.88
318.4	1	436.55	1.89
318.41	0.452	281.76	1.25
318.41	0.498	295.76	1.3
318.41	0.502	297.36	1.31
318.41	0.548	309.96	1.36
318.41	0.647	336.26	1.47

System: 2-methylpropane + ethyl acetate; phases: Liquid, Gas
Property: Vapor or sublimation pressure, kPa (Liquid); method: Closed cell (Static) method
Temperature, K	Mole fraction of 2-methylpropane	Vapor or sublimation pressure, kPa	uncertainty
318.38	0.746	494.25	2.15
318.38	0.846	533.25	2.31
318.39	0	31.37	0.42
318.39	0.029	68.87	0.5
318.39	0.077	124.17	0.67
318.39	0.102	149.37	0.75
318.39	0.15	194.76	0.92
318.39	0.198	234.16	1.07
318.39	0.247	269.46	1.21
318.39	0.298	301.56	1.33
318.39	0.347	329.76	1.45
318.39	0.398	355.56	1.56
318.39	0.448	378.85	1.66
318.39	0.501	401.75	1.76
318.39	0.55	421.35	1.84
318.39	0.599	440.05	1.92
318.39	0.648	457.95	2
318.39	0.698	476.35	2.07
318.39	0.799	514.45	2.23
318.39	0.896	554.84	2.41
318.39	0.946	578.74	2.51
318.39	0.966	588.84	2.55
318.39	0.987	600.04	2.6
318.39	1	607.54	2.63
318.4	0.053	97.47	0.58
318.4	0.5	401.45	1.76
