Measured thermophysical data. Studies on enthalpy of solution for ionic liquid: The system of 1-methyl-3-ethylimidazolium tetrafluoroborate (EMIBF4)
Source: Fluid Phase Equilib., 2006, 10.1016/j.fluid.2006.06.016
Compound 1: gallium chloride, Cl3Ga, InChI=1S/3ClH.Ga/h3*1H;/q;;;+3/p-3
Compound 2: 1-ethyl-3-methylimidazolium chloride, C6H11ClN2, InChI=1S/C6H11N2.ClH/c1-3-8-5-4-7(2)6-8;/h4-6H,3H2,1-2H3;1H/q+1;/p-1

System: gallium chloride + 1-ethyl-3-methylimidazolium chloride; phases: Liquid, Gas
Fixed: Mole fraction of gallium chloride = 0.5
Property: Surface tension liquid-gas, N/m (Liquid); method: Maximal bubble pressure
Temperature, K	Surface tension liquid-gas, N/m	uncertainty
288.15	52940	280
288.15	52170	276
298.15	51510	273
303.15	51040	270
308.15	50820	269
313.15	50400	267
318.15	49820	264
323.15	48920	259
328.15	48390	256
333.15	47720	253
338.15	47190	250
343.15	46790	248

System: gallium chloride + 1-ethyl-3-methylimidazolium chloride; phases: Liquid
Fixed: Pressure, kPa = 101
Fixed: Mole fraction of gallium chloride = 0.5
Property: Mass density, kg/m3 (Liquid); method: Buoyancy - hydrostatic balance
Temperature, K	Mass density, kg/m3	uncertainty
288.15	1483.1	0.2
288.15	1478.8	0.2
298.15	1474.5	0.2
303.15	1470.5	0.2
308.15	1467.1	0.2
313.15	1462.9	0.2
318.15	1458.2	0.2
323.15	1454.1	0.2
328.15	1449.2	0.2
333.15	1445.1	0.2
338.15	1441.3	0.2
343.15	1435.8	0.2
