Measured thermophysical data. Improved CO2 separation performance of aqueous choline-glycine solution by partially replacing water with polyethylene glycol
Source: Fluid Phase Equilib., 2019, 10.1016/j.fluid.2019.05.006
Compound 1: carbon dioxide, CO2, InChI=1S/CO2/c2-1-3
Compound 2: 2-hydroxy-N,N,N-trimethylethanaminium glycinate, C7H18N2O3, InChI=1S/C5H14NO.C2H5NO2/c1-6(2,3)4-5-7;3-1-2(4)5/h7H,4-5H2,1-3H3;1,3H2,(H,4,5)/q+1;/p-1, purity 99%
Compound 3: water, H2O, InChI=1S/H2O/h1H2, purity 99.8%

System: 2-hydroxy-N,N,N-trimethylethanaminium glycinate; phases: Liquid
Fixed: Pressure, kPa = 101.325
Property: Viscosity, Pa*s (Liquid); method: Falling or rolling sphere viscometry
Temperature, K	Viscosity, Pa*s	uncertainty
308.15	0.0843	0.0016
318.15	0.0294	0.0007
328.15	0.0143	0.0006
338.15	0.0072	0.0003

System: carbon dioxide + 2-hydroxy-N,N,N-trimethylethanaminium glycinate + water; phases: Liquid, Gas
Fixed: Solvent: Mass fraction of 2-hydroxy-N,N,N-trimethylethanaminium glycinate = 0.3
Property: Molality, mol/kg of carbon dioxide (Liquid); method: Phase equilibration
Temperature, K	Pressure, kPa	Molality, mol/kg of carbon dioxide	uncertainty
308.15	4.6	0.48	0.01
308.15	105	0.89	0.01
308.15	205	1	0.01
308.15	314	1.07	0.01
308.15	473	1.14	0.01
308.15	576	1.19	0.01
308.15	679	1.24	0.01
318.15	6.3	0.46	0.01
318.15	113	0.82	0.01
318.15	208	0.9	0.01
318.15	320	0.97	0.01
318.15	468	1.04	0.01
318.15	573	1.09	0.01
318.15	675	1.14	0.01
328.15	8.2	0.41	0.01
328.15	108	0.77	0.01
328.15	202	0.84	0.01
328.15	308	0.91	0.01
328.15	462	0.98	0.01
328.15	568	1.03	0.01
328.15	666	1.07	0.01
338.15	10	0.36	0.01
338.15	93	0.66	0.01
338.15	189	0.74	0.01
338.15	291	0.81	0.01
338.15	452	0.88	0.01
338.15	556	0.93	0.01
338.15	659	0.96	0.01
