Measured thermophysical data. Liquid-liquid equilibrium (LLE) data for ternary mixtures of [C4DMIM] [PF6]+[PCP]+[water] and [C4DMIM] [PF6]+[PA]+[water] at T = 298.15 K and p = 1 atm
Source: Fluid Phase Equilib., 2014, 10.1016/j.fluid.2014.08.004
Compound 1: 1-butyl-2,3-dimethylimidazolium hexafluorophosphate, C9H17F6N2P, InChI=1S/C9H17N2.F6P/c1-4-5-6-11-8-7-10(3)9(11)2;1-7(2,3,4,5)6/h7-8H,4-6H2,1-3H3;/q+1;-1, purity 98%
Compound 2: pentachlorophenol, C6HCl5O, InChI=1S/C6HCl5O/c7-1-2(8)4(10)6(12)5(11)3(1)9/h12H, purity 90%
Compound 3: 1,2-benzenedicarboxylic acid, C8H6O4, InChI=1S/C8H6O4/c9-7(10)5-3-1-2-4-6(5)8(11)12/h1-4H,(H,9,10)(H,11,12), purity 99.5%
Compound 4: water, H2O, InChI=1S/H2O/h1H2, purity 99.8%

System: pentachlorophenol + water + 1-butyl-2,3-dimethylimidazolium hexafluorophosphate; phases: Liquid mixture 1, Liquid mixture 2
Fixed: Temperature, K = 298.15
Fixed: Pressure, kPa = 100
Property: Mole fraction of water (Liquid mixture 1); method: NMR spectroscopy
Property: Mole fraction of water (Liquid mixture 2); method: NMR spectroscopy
Property: Mole fraction of pentachlorophenol (Liquid mixture 2); method: NMR spectroscopy
Mole fraction of pentachlorophenol	Mole fraction of water	uncertainty	Mole fraction of water	uncertainty	Mole fraction of pentachlorophenol	uncertainty
0.056	0.943	0.002	0.131	0.004	0.749	
0.047	0.952	0.002	0.133	0.004	0.717	
0.039	0.96	0.001	0.135	0.004	0.687	
0.029	0.97	0.001	0.136	0.004	0.659	
0.014	0.985	0.001	0.139	0.004	0.607	
0.012	0.987	0.001	0.155	0.005	0.523	
0.01	0.989	0.001	0.183	0.006	0.453	
0.007	0.993	0.001	0.196	0.006	0.372	

System: 1,2-benzenedicarboxylic acid + water + 1-butyl-2,3-dimethylimidazolium hexafluorophosphate; phases: Liquid mixture 1, Liquid mixture 2
Fixed: Temperature, K = 298.15
Fixed: Pressure, kPa = 100
Property: Mole fraction of water (Liquid mixture 1); method: NMR spectroscopy
Property: Mole fraction of water (Liquid mixture 2); method: NMR spectroscopy
Property: Mole fraction of 1,2-benzenedicarboxylic acid (Liquid mixture 2); method: NMR spectroscopy
Mole fraction of 1,2-benzenedicarboxylic acid	Mole fraction of water	uncertainty	Mole fraction of water	uncertainty	Mole fraction of 1,2-benzenedicarboxylic acid	uncertainty
0.12	0.88	0.004	0.183	0.006	0.624	
0.087	0.916	0.003	0.184	0.006	0.522	
0.082	0.918	0.003	0.196	0.006	0.463	
0.079	0.926	0.002	0.184	0.006	0.363	
0.062	0.937	0.002	0.184	0.006	0.309	
0.046	0.953	0.002	0.172	0.005	0.221	
0.041	0.959	0.001	0.179	0.005	0.187	
0.038	0.961	0.001	0.183	0.006	0.105	
