Measured thermophysical data. Measurement and correlation for the solubility of dimethyl succinylsuccinate in (methanol + water) and (methanol + dimethyl succinate) binary solvent mixtures
Source: Fluid Phase Equilib., 2014, 10.1016/j.fluid.2014.04.012
Compound 1: dimethyl 2,5-dioxocyclohexane-1,4-dicarboxylate, C10H12O6, InChI=1S/C10H12O6/c1-15-9(13)5-3-8(12)6(4-7(5)11)10(14)16-2/h5-6H,3-4H2,1-2H3, purity 99.7%
Compound 2: 2-thiapropane, C2H6S, InChI=1S/C2H6S/c1-3-2/h1-2H3, purity 99.5%
Compound 3: water, H2O, InChI=1S/H2O/h1H2, purity 99.9%
Compound 4: methanol, CH4O, InChI=1S/CH4O/c1-2/h2H,1H3, purity 99.5%

System: methanol + dimethyl 2,5-dioxocyclohexane-1,4-dicarboxylate + water; phases: Liquid, Crystal
Fixed: Pressure, kPa = 101.3
Property: Solid-liquid equilibrium temperature, K (Liquid); method: VISOBS
Solvent: Mole fraction of water	Mole fraction of dimethyl 2,5-dioxocyclohexane-1,4-dicarboxylate	Solid-liquid equilibrium temperature, K	uncertainty
0	0.0001293	284.25	0.62
0	0.0001621	288.85	0.62
0	0.0002247	294.05	0.62
0	0.000272	297.95	0.62
0	0.000354	301.85	0.62
0	0.0004541	305.65	0.62
0	0.0004965	307.15	0.62
0	0.0006209	311.35	0.62
0	0.0007612	315.05	0.62
0	0.0009526	319.25	0.62
0	0.00113	322.65	0.62
0	0.001419	326.95	0.62
0.165	4.376e-05	283.75	0.62
0.165	6.811e-05	288.25	0.62
0.165	0.0001302	294.65	0.62
0.165	0.0001977	300.35	0.62
0.165	0.0002366	303.15	0.62
0.165	0.000289	306.65	0.62
0.165	0.0003533	310.25	0.62
0.165	0.0004394	314.05	0.62
0.165	0.000514	316.85	0.62
0.165	0.0005712	318.75	0.62
0.165	0.0006256	320.45	0.62
0.165	0.000703	322.55	0.62
0.165	0.0008866	326.35	0.62
0.308	3.049e-05	288.25	0.62
0.308	5.758e-05	293.05	0.62
0.308	9.196e-05	298.15	0.62
0.308	0.0001407	303.45	0.62
0.308	0.000196	308.45	0.62
0.308	0.0002429	311.95	0.62
0.308	0.0003086	316.35	0.62
0.308	0.0003896	320.45	0.62
0.308	0.000466	323.65	0.62
0.308	0.0005781	327.25	0.62
0.433	9.652e-06	286.55	0.65
0.433	2.094e-05	291.25	0.64
0.433	3.46e-05	295.95	0.62
0.433	5.349e-05	300.05	0.62
0.433	7.125e-05	303.15	0.62
0.433	0.0001116	309.35	0.62
0.433	0.0001427	313.35	0.62
0.433	0.0001853	318.05	0.62
0.433	0.0002169	321.05	0.62
0.433	0.0002585	324.15	0.62
0.433	0.0002961	326.35	0.62
0.542	7.066e-06	296.75	0.63
0.542	1.724e-05	300.55	0.63
0.542	3.051e-05	304.65	0.63
0.542	3.212e-05	305.15	0.63
0.542	4.261e-05	307.75	0.62
0.542	5.353e-05	310.35	0.62
0.542	6.959e-05	313.95	0.62
0.542	9.003e-05	317.85	0.62
0.542	0.0001034	320.05	0.62
0.542	0.0001182	321.45	0.62
0.542	0.0001346	323.35	0.62
0.542	0.0001472	324.65	0.62

System: methanol + 2-thiapropane + dimethyl 2,5-dioxocyclohexane-1,4-dicarboxylate; phases: Liquid, Crystal
Fixed: Pressure, kPa = 101.3
Property: Solid-liquid equilibrium temperature, K (Liquid); method: VISOBS
Solvent: Mole fraction of 2-thiapropane	Mole fraction of dimethyl 2,5-dioxocyclohexane-1,4-dicarboxylate	Solid-liquid equilibrium temperature, K	uncertainty
0.052	0.000459	294.55	0.62
0.052	0.0005737	298.75	0.62
0.052	0.0006377	301.15	0.62
0.052	0.0006553	301.35	0.62
0.052	0.0008195	305.65	0.62
0.052	0.0009572	308.75	0.62
0.052	0.001024	310.15	0.62
0.052	0.001174	312.45	0.62
0.052	0.001302	314.25	0.62
0.052	0.001419	315.95	0.62
0.052	0.001631	318.45	0.62
0.052	0.001803	320.25	0.62
0.052	0.002007	321.95	0.62
0.052	0.002363	324.65	0.62
0.052	0.002738	327.05	0.62
0.128	0.0007818	293.45	0.62
0.128	0.0009689	297.05	0.62
0.128	0.001098	299.15	0.62
0.128	0.001231	301.35	0.62
0.128	0.001376	303.25	0.62
0.128	0.001586	305.75	0.62
0.128	0.001742	307.65	0.62
0.128	0.001946	309.65	0.62
0.128	0.00232	313.05	0.62
0.128	0.002485	314.35	0.62
0.128	0.002792	316.45	0.62
0.128	0.003121	318.35	0.62
0.128	0.003711	321.55	0.62
0.128	0.004503	325.25	0.62
0.128	0.005056	327.45	0.62
0.247	0.001736	294.85	0.62
0.247	0.002073	298.45	0.62
0.247	0.00238	301.05	0.62
0.247	0.002821	304.35	0.62
0.247	0.003429	307.95	0.62
0.247	0.003878	310.35	0.62
0.247	0.004001	310.85	0.62
0.247	0.004924	315.25	0.62
0.247	0.005568	317.85	0.62
0.247	0.006558	321.55	0.62
0.247	0.006981	322.85	0.62
0.247	0.007918	325.45	0.62
0.247	0.008724	327.35	0.62
0.467	0.003384	294.25	0.62
0.467	0.004017	298.15	0.62
0.467	0.004799	302.05	0.62
0.467	0.005316	304.25	0.62
0.467	0.006277	307.85	0.62
0.467	0.006898	309.95	0.62
0.467	0.007522	311.75	0.62
0.467	0.008486	314.55	0.62
0.467	0.009723	317.55	0.62
0.467	0.01114	320.65	0.62
0.467	0.01226	322.75	0.62
0.467	0.01329	324.55	0.62
0.467	0.01465	326.65	0.62
1	0.007344	295.55	0.62
1	0.008741	299.45	0.62
1	0.0103	303.45	0.62
1	0.01267	308.25	0.62
1	0.01454	311.75	0.62
1	0.01636	314.65	0.62
1	0.01892	318.05	0.62
1	0.02105	320.65	0.62
1	0.02343	323.25	0.62
1	0.02689	326.35	0.62
