Measured thermophysical data. [1-Ethyl-2,3-dimethyl-Imidazolium][EthylSulfate]-based aqueous two phase systems: new experimental data and modelling
Source: Fluid Phase Equilib., 2014, 10.1016/j.fluid.2014.09.001
Compound 1: 1-ethyl-2,3-dimethyl-1H-imidazol-3-ium ethyl sulfate, C9H18N2O4S, InChI=1S/C7H13N2.C2H6O4S/c1-4-9-6-5-8(3)7(9)2;1-2-6-7(3,4)5/h5-6H,4H2,1-3H3;2H2,1H3,(H,3,4,5)/q+1;/p-1, purity 95%
Compound 2: disodium hydrogen phosphate, HNa2O4P, InChI=1S/2Na.H3O4P/c;;1-5(2,3)4/h;;(H3,1,2,3,4)/q2*+1;/p-2, purity 99.99%
Compound 3: sodium carbonate, CNa2O3, InChI=1S/CH2O3.2Na/c2-1(3)4;;/h(H2,2,3,4);;/q;2*+1/p-2, purity 99.9%
Compound 4: sodium sulfate, Na2O4S, InChI=1S/2Na.H2O4S/c;;1-5(2,3)4/h;;(H2,1,2,3,4)/q2*+1;/p-2, purity 99%
Compound 5: water, H2O, InChI=1S/H2O/h1H2, purity 99.8%

System: sodium carbonate + water + 1-ethyl-2,3-dimethyl-1H-imidazol-3-ium ethyl sulfate; phases: Liquid mixture 2, Liquid mixture 1
Fixed: Pressure, kPa = 101
Property: Mass fraction of 1-ethyl-2,3-dimethyl-1H-imidazol-3-ium ethyl sulfate (Liquid mixture 2); method: OTHER
Property: Mass fraction of sodium carbonate (Liquid mixture 1); method: OTHER
Property: Mass fraction of 1-ethyl-2,3-dimethyl-1H-imidazol-3-ium ethyl sulfate (Liquid mixture 1); method: OTHER
Temperature, K	Mass fraction of sodium carbonate	Mass fraction of 1-ethyl-2,3-dimethyl-1H-imidazol-3-ium ethyl sulfate	uncertainty	Mass fraction of sodium carbonate	uncertainty	Mass fraction of 1-ethyl-2,3-dimethyl-1H-imidazol-3-ium ethyl sulfate	uncertainty
288.15	0.24	0.0349	0.007	0.0323	0.0066	0.3357	
288.15	0.2714	0.0371	0.0064	0.0285	0.0066	0.3448	
298.15	0.2291	0.046	0.0063	0.0403	0.0063	0.3221	
298.15	0.2791	0.0368	0.0063	0.0324	0.0067	0.3575	
298.15	0.2351	0.0565	0.0098	0.0479	0.007	0.2943	
298.15	0.2672	0.0411	0.0064	0.0375	0.0064	0.3337	
298.15	0.2442	0.0456	0.0077	0.0408	0.0065	0.312	
298.15	0.2625	0.0318	0.0063	0.0294	0.0063	0.3503	
298.15	0.2631	0.0422	0.0064	0.0371	0.0066	0.3158	
298.15	0.2727	0.0361	0.0066	0.0315	0.0063	0.3377	
298.15	0.2581	0.0394	0.007	0.0342	0.007	0.317	
288.15	0.2655	0.0339	0.0064	0.0269	0.0135	0.3026	
298.15	0.2502	0.0338	0.0081	0.0325	0.0064	0.3263	
313.15	0.2255	0.046	0.0064	0.0399	0.0063	0.3471	
313.15	0.2392	0.0461	0.0064	0.0393	0.0063	0.3539	
313.15	0.259	0.0495	0.0064	0.0378	0.0063	0.3328	
313.15	0.2437	0.0467	0.0063	0.0402	0.0063	0.3383	
313.15	0.204	0.0396	0.0065	0.0425	0.0065	0.3585	
313.15	0.2256	0.0447	0.0063	0.0412	0.0063	0.3339	
313.15	0.2084	0.0413	0.0065	0.044	0.0064	0.3522	
288.15	0.224	0.0534	0.0095	0.0415	0.0064	0.3105	
288.15	0.2625	0.039	0.0063	0.0266	0.0063	0.3692	
288.15	0.2294	0.0423	0.0076	0.0369	0.0065	0.3331	
288.15	0.2758	0.0329	0.0063	0.0305	0.0066	0.3443	
288.15	0.2478	0.041	0.0063	0.033	0.0067	0.3377	
288.15	0.2477	0.0341	0.0064	0.0257	0.0063	0.358	
288.15	0.2494	0.039	0.0064	0.0243	0.0067	0.3331	

System: water + sodium sulfate + 1-ethyl-2,3-dimethyl-1H-imidazol-3-ium ethyl sulfate; phases: Liquid mixture 1, Liquid mixture 2
Fixed: Temperature, K = 288.15
Fixed: Pressure, kPa = 101
Property: Mass fraction of sodium sulfate (Liquid mixture 1); method: OTHER
Property: Mass fraction of sodium sulfate (Liquid mixture 2); method: OTHER
Property: Mass fraction of 1-ethyl-2,3-dimethyl-1H-imidazol-3-ium ethyl sulfate (Liquid mixture 2); method: OTHER
Mass fraction of 1-ethyl-2,3-dimethyl-1H-imidazol-3-ium ethyl sulfate	Mass fraction of sodium sulfate	uncertainty	Mass fraction of sodium sulfate	uncertainty	Mass fraction of 1-ethyl-2,3-dimethyl-1H-imidazol-3-ium ethyl sulfate	uncertainty
0.3362	0.0372	0.009	0.2166	0.0101	0.0521	
0.3384	0.0311	0.009	0.2218	0.0102	0.0474	
0.3636	0.0316	0.009	0.2258	0.0102	0.0425	
0.3546	0.0349	0.009	0.2143	0.0101	0.0528	
0.3614	0.0328	0.009	0.2212	0.0101	0.0454	
0.3614	0.028	0.009	0.2291	0.0102	0.0394	

System: disodium hydrogen phosphate + water + 1-ethyl-2,3-dimethyl-1H-imidazol-3-ium ethyl sulfate; phases: Liquid mixture 1, Liquid mixture 2
Fixed: Pressure, kPa = 101
Property: Mass fraction of disodium hydrogen phosphate (Liquid mixture 1); method: OTHER
Property: Mass fraction of 1-ethyl-2,3-dimethyl-1H-imidazol-3-ium ethyl sulfate (Liquid mixture 2); method: OTHER
Property: Mass fraction of disodium hydrogen phosphate (Liquid mixture 2); method: OTHER
Temperature, K	Mass fraction of 1-ethyl-2,3-dimethyl-1H-imidazol-3-ium ethyl sulfate	Mass fraction of disodium hydrogen phosphate	uncertainty	Mass fraction of 1-ethyl-2,3-dimethyl-1H-imidazol-3-ium ethyl sulfate	uncertainty	Mass fraction of disodium hydrogen phosphate	uncertainty
288.15	0.4283	0.0702	0.0116	0.0454	0.0105	0.5093	
288.15	0.4254	0.0823	0.0116	0.0488	0.0104	0.5052	
288.15	0.4001	0.0937	0.0101	0.0576	0.0103	0.4927	
288.15	0.433	0.065	0.0107	0.0416	0.0102	0.5543	
288.15	0.4327	0.0762	0.0109	0.046	0.0102	0.524	
288.15	0.3963	0.0886	0.01	0.0583	0.0099	0.4732	
288.15	0.4506	0.0636	0.0099	0.0393	0.01	0.5385	
288.15	0.4189	0.0773	0.0114	0.047	0.0102	0.522	
288.15	0.4238	0.0668	0.0115	0.042	0.01	0.5298	
288.15	0.3811	0.0727	0.0145	0.0465	0.0113	0.4725	
298.15	0.4212	0.0732	0.0103	0.0473	0.0111	0.5022	
298.15	0.4094	0.0798	0.0104	0.0527	0.0112	0.4696	
298.15	0.3549	0.092	0.0134	0.0661	0.0136	0.4549	
298.15	0.4262	0.0781	0.0107	0.0446	0.0099	0.486	
298.15	0.4137	0.085	0.0101	0.05	0.01	0.4769	
298.15	0.3718	0.0905	0.0103	0.0381	0.0118	0.46	
298.15	0.4267	0.0674	0.0122	0.0602	0.0128	0.518	
298.15	0.4	0.0827	0.01	0.0513	0.0099	0.4839	
298.15	0.4088	0.07	0.0105	0.0434	0.0099	0.4856	
298.15	0.3692	0.079	0.0101	0.0505	0.0106	0.4541	
313.15	0.4629	0.0737	0.0188	0.0688	0.0102	0.5041	
313.15	0.4394	0.0918	0.0102	0.0911	0.0137	0.461	
313.15	0.4073	0.1037	0.0135	0.1036	0.0138	0.4575	
313.15	0.4645	0.0833	0.0122	0.0755	0.011	0.4866	
313.15	0.4505	0.0932	0.0129	0.0859	0.0133	0.4653	
313.15	0.4199	0.0923	0.0106	0.1013	0.0107	0.4428	
313.15	0.4668	0.0787	0.0133	0.0704	0.0101	0.4957	
313.15	0.4216	0.0995	0.0108	0.0693	0.0114	0.4785	
313.15	0.4429	0.084	0.0111	0.0709	0.0101	0.4928	
313.15	0.4263	0.091	0.0108	0.0892	0.0134	0.4584	
