Measured thermophysical data. Critical temperatures and pressures of some dicarboxylic acid diethyl esters
Source: Fluid Phase Equilib., 2016, 10.1016/j.fluid.2015.12.031
Compound 1: diethyl 1,3-propanedioate, C7H12O4, InChI=1S/C7H12O4/c1-3-10-6(8)5-7(9)11-4-2/h3-5H2,1-2H3, purity 99.8%
Compound 2: diethyl butanedioate, C8H14O4, InChI=1S/C8H14O4/c1-3-11-7(9)5-6-8(10)12-4-2/h3-6H2,1-2H3, purity 99.8%
Compound 3: diethyl hexanedioate, C10H18O4, InChI=1S/C10H18O4/c1-3-13-9(11)7-5-6-8-10(12)14-4-2/h3-8H2,1-2H3, purity 99.9%

System: diethyl 1,3-propanedioate; phases: Liquid, Gas
Property: Critical temperature, K (Liquid); method: Resistive pulse heating
Critical temperature, K	uncertainty
651	7

System: diethyl 1,3-propanedioate; phases: Liquid, Gas
Property: Critical pressure, kPa (Liquid); method: Resistive pulse heating
Critical pressure, kPa	uncertainty
2700	80

System: diethyl butanedioate; phases: Liquid, Gas
Property: Critical temperature, K (Liquid); method: Resistive pulse heating
Critical temperature, K	uncertainty
666	7

System: diethyl butanedioate; phases: Liquid, Gas
Property: Critical pressure, kPa (Liquid); method: Resistive pulse heating
Critical pressure, kPa	uncertainty
2290	70

System: diethyl hexanedioate; phases: Liquid, Gas
Property: Critical temperature, K (Liquid); method: Resistive pulse heating
Critical temperature, K	uncertainty
697	7

System: diethyl hexanedioate; phases: Liquid, Gas
Property: Critical pressure, kPa (Liquid); method: Resistive pulse heating
Critical pressure, kPa	uncertainty
1990	60
