Measured thermophysical data. Phase equilibria of 1-hexyl-3-methylimidazolium acetate with water and oil
Source: Fluid Phase Equilib., 2019, 10.1016/j.fluid.2018.11.010
Compound 1: water, H2O, InChI=1S/H2O/h1H2
Compound 2: octane, C8H18, InChI=1S/C8H18/c1-3-5-7-8-6-4-2/h3-8H2,1-2H3, purity 99.9%
Compound 3: cyclohexane, C6H12, InChI=1S/C6H12/c1-2-4-6-5-3-1/h1-6H2, purity 99.5%
Compound 4: toluene, C7H8, InChI=1S/C7H8/c1-7-5-3-2-4-6-7/h2-6H,1H3, purity 99.5%
Compound 5: 3-hexyl-1-methylimidazolium acetate, C12H22N2O2, InChI=1S/C10H19N2.C2H4O2/c1-3-4-5-6-7-12-9-8-11(2)10-12;1-2(3)4/h8-10H,3-7H2,1-2H3;1H3,(H,3,4)/q+1;/p-1

System: 3-hexyl-1-methylimidazolium acetate + water; phases: Liquid, Gas
Fixed: Temperature, K = 298.15
Property: Surface tension liquid-gas, N/m (Liquid); method: Wilhelmy plate method
Mass fraction of 3-hexyl-1-methylimidazolium acetate	Surface tension liquid-gas, N/m	uncertainty
7e-05	0.06655	
0.00069	0.06077	
0.01013	0.05197	
0.3005	0.041	
1	0.036	

System: water + 3-hexyl-1-methylimidazolium acetate + octane; phases: Liquid mixture 2, Liquid mixture 1
Fixed: Pressure, kPa = 101
Property: Mass fraction of octane (Liquid mixture 2); method: Chromatography
Property: Mass fraction of octane (Liquid mixture 1); method: Chromatography
Property: Mass fraction of water (Liquid mixture 1); method: Chromatography
Temperature, K	Mass fraction of water	Mass fraction of octane	uncertainty	Mass fraction of octane	uncertainty	Mass fraction of water	uncertainty
298.15	1	0		1		0	
298.15	0.902	0		1		0	
298.15	0.703	0		1		0	
298.15	0.509	0		1		0	
298.15	0.323	0		1		0	
298.15	0.214	0.011	0.002	1		0	
298.15	0.142	0.014	0.002	1		0	
298.15	0	0.025	0.002	1		0	
323.15	1	0		1		0	
323.15	0.878	0		1		0	
323.15	0.786	0		1		0	
323.15	0.648	0		1		0	
323.15	0.515	0		1		0	
323.15	0.388	0.01	0.002	1		0	
323.15	0.243	0.009	0.002	1		0	
323.15	0.134	0.02	0.002	1		0	
323.15	0.035	0.021	0.002	1		0	
323.15	0	0.03	0.002	1		0	

System: water + 3-hexyl-1-methylimidazolium acetate + toluene; phases: Liquid mixture 2, Liquid mixture 1
Fixed: Pressure, kPa = 101
Property: Mass fraction of toluene (Liquid mixture 2); method: Chromatography
Property: Mass fraction of toluene (Liquid mixture 1); method: Chromatography
Property: Mass fraction of water (Liquid mixture 1); method: Chromatography
Temperature, K	Mass fraction of water	Mass fraction of toluene	uncertainty	Mass fraction of toluene	uncertainty	Mass fraction of water	uncertainty
298.15	1	0		1		0	
298.15	0.95	0.004	0.004	1		0	
298.15	0.811	0.006	0.006	1		0	
298.15	0.585	0.01	0.006	1		0	
298.15	0.413	0.027	0.006	1		0	
298.15	0.256	0.073	0.006	1		0	
298.15	0.102	0.15	0.007	1		0	
298.15	0	0.349	0.007	1		0	
323.15	1	0		1		0	
323.15	0.849	0.003	0.003	1		0	
323.15	0.706	0.005	0.005	1		0	
323.15	0.577	0.01	0.006	1		0	
323.15	0.378	0.033	0.006	1		0	
323.15	0.247	0.069	0.006	1		0	
323.15	0.105	0.158	0.008	1		0	
323.15	0	0.357	0.007	1		0	

System: water + 3-hexyl-1-methylimidazolium acetate + cyclohexane; phases: Liquid mixture 2, Liquid mixture 1
Fixed: Pressure, kPa = 101
Property: Mass fraction of cyclohexane (Liquid mixture 2); method: Chromatography
Property: Mass fraction of cyclohexane (Liquid mixture 1); method: Chromatography
Property: Mass fraction of water (Liquid mixture 1); method: Chromatography
Temperature, K	Mass fraction of water	Mass fraction of cyclohexane	uncertainty	Mass fraction of cyclohexane	uncertainty	Mass fraction of water	uncertainty
298.15	1	0		1		0	
298.15	0.892	0		1		0	
298.15	0.815	0		1		0	
298.15	0.679	0.003	0.002	1		0	
298.15	0.556	0.004	0.002	1		0	
298.15	0.428	0.008	0.002	1		0	
298.15	0.365	0.011	0.002	1		0	
298.15	0.228	0.022	0.002	1		0	
298.15	0.108	0.042	0.002	1		0	
298.15	0	0.046	0.002	1		0	
323.15	1	0		1		0	
323.15	0.886	0		1		0	
323.15	0.805	0		1		0	
323.15	0.645	0.004	0.002	1		0	
323.15	0.514	0.006	0.002	1		0	
323.15	0.428	0.009	0.002	1		0	
323.15	0.354	0.013	0.002	1		0	
323.15	0.234	0.025	0.002	1		0	
323.15	0.114	0.045	0.002	1		0	
323.15	0	0.047	0.002	1		0	
