Measured thermophysical data. (Solid + liquid) phase equilibria and solid-compound formation in (N-methyl-2-pyrrolidinone + phenol, or 3,5-dimethylphenol)
Source: Fluid Phase Equilib., 2005, 10.1016/j.fluid.2005.03.027
Compound 1: N-methylpyrrolidone, C5H9NO, InChI=1S/C5H9NO/c1-6-4-2-3-5(6)7/h2-4H2,1H3, purity 99.5%
Compound 2: phenol, C6H6O, InChI=1S/C6H6O/c7-6-4-2-1-3-5-6/h1-5,7H, purity 99%
Compound 3: 3,5-dimethylphenol, C8H10O, InChI=1S/C8H10O/c1-6-3-7(2)5-8(9)4-6/h3-5,9H,1-2H3, purity 99%

System: N-methylpyrrolidone; phases: Crystal, Liquid, Air at 1 atmosphere
Property: Normal melting temperature, K (Crystal); method: VISOBS
Normal melting temperature, K	uncertainty
249.68	0.39

System: phenol; phases: Crystal, Liquid, Air at 1 atmosphere
Property: Normal melting temperature, K (Crystal); method: VISOBS
Normal melting temperature, K	uncertainty
314.85	0.39

System: 3,5-dimethylphenol; phases: Crystal, Liquid, Air at 1 atmosphere
Property: Normal melting temperature, K (Crystal); method: VISOBS
Normal melting temperature, K	uncertainty
336.92	0.39

System: phenol + N-methylpyrrolidone; phases: Liquid, Crystal
Fixed: Pressure, kPa = 101.325
Property: Solid-liquid equilibrium temperature, K (Liquid); method: VISOBS:UFactor:4
Mole fraction of N-methylpyrrolidone	Solid-liquid equilibrium temperature, K	uncertainty
0	314.85	0.62
0.0857	304.52	0.63
0.1102	299.07	0.66
0.1291	294.8	0.67
0.1423	290.82	0.69
0.1573	286.18	0.69

System: phenol + N-methylpyrrolidone; phases: Liquid, Crystal of intercomponent compound 1
Fixed: Pressure, kPa = 101.325
Property: Solid-liquid equilibrium temperature, K (Liquid); method: VISOBS:UFactor:4
Mole fraction of N-methylpyrrolidone	Solid-liquid equilibrium temperature, K	uncertainty
0.192	281.02	0.62
0.2203	282.05	0.62
0.2444	283.75	0.62
0.2708	285.57	0.62
0.3022	286.85	0.62
0.3274	286.94	0.62
0.354	286.84	0.62
0.3718	285.97	0.62

System: phenol + N-methylpyrrolidone; phases: Liquid, Crystal of intercomponent compound 2
Fixed: Pressure, kPa = 101.325
Property: Solid-liquid equilibrium temperature, K (Liquid); method: VISOBS:UFactor:8
Mole fraction of N-methylpyrrolidone	Solid-liquid equilibrium temperature, K	uncertainty
0.4286	293.41	1.24
0.4842	297.57	1.24
0.5271	298.25	1.24
0.5853	296.58	1.24
0.6175	294.13	1.24
0.6287	292.65	1.24
0.6544	290.75	1.24
0.6709	287.75	1.25
0.7053	284.1	1.27
0.7114	282.45	1.25
0.73	279.88	1.25
0.7519	276.26	1.26
0.757	275.15	1.25
0.7729	273.5	1.25
0.7992	269.18	1.25
0.826	264.49	1.25
0.8566	260.45	1.25
0.8709	258.16	1.25
0.8982	254.54	1.25
0.9235	251.85	1.25
0.9413	248.58	1.25
0.9515	246.57	1.25

System: phenol + N-methylpyrrolidone; phases: Liquid, Crystal
Fixed: Pressure, kPa = 101.325
Property: Solid-liquid equilibrium temperature, K (Liquid); method: VISOBS:UFactor:4
Mole fraction of N-methylpyrrolidone	Solid-liquid equilibrium temperature, K	uncertainty
0.9567	247.05	0.62
0.9669	247.68	0.62
1	249.68	0.62

System: 3,5-dimethylphenol + N-methylpyrrolidone; phases: Liquid, Crystal
Fixed: Pressure, kPa = 101.325
Property: Solid-liquid equilibrium temperature, K (Liquid); method: VISOBS:UFactor:4
Mole fraction of N-methylpyrrolidone	Solid-liquid equilibrium temperature, K	uncertainty
0	336.92	0.62
0.1171	327.16	0.63
0.1732	316.62	0.65
0.2134	306.61	0.67
0.246	297.23	0.7
0.2839	284.09	0.71
0.2973	279.27	0.72

System: 3,5-dimethylphenol + N-methylpyrrolidone; phases: Liquid, Crystal of intercomponent compound 1
Fixed: Pressure, kPa = 101.325
Property: Solid-liquid equilibrium temperature, K (Liquid); method: VISOBS:UFactor:4
Mole fraction of N-methylpyrrolidone	Solid-liquid equilibrium temperature, K	uncertainty
0.32	278.94	0.62
0.3363	279.64	0.62
0.354	279.54	0.62
0.3789	278.34	0.62
0.3837	278.05	0.63
0.4024	275.79	0.62

System: 3,5-dimethylphenol + N-methylpyrrolidone; phases: Liquid, Crystal of intercomponent compound 2
Fixed: Pressure, kPa = 101.325
Property: Solid-liquid equilibrium temperature, K (Liquid); method: VISOBS:UFactor:8
Mole fraction of N-methylpyrrolidone	Solid-liquid equilibrium temperature, K	uncertainty
0.4136	277.6	1.24
0.4299	279.13	1.24
0.4632	282.97	1.24
0.4653	282.75	1.24
0.4759	283.67	1.24
0.502	284.55	1.24
0.5061	284.41	1.24
0.5269	284.14	1.24
0.5711	282.09	1.24
0.6029	279.09	1.24
0.6269	276.48	1.24
0.6468	274.43	1.25
0.6669	271.72	1.25
0.6821	269.96	1.25
0.6949	268.06	1.25
0.7107	265.2	1.25
0.7287	262.81	1.25
0.7426	260.6	1.25
0.7621	257.82	1.25
0.7761	254.87	1.26
0.7887	251.43	1.26
0.8124	247.21	1.25
0.8389	242.12	1.25

System: 3,5-dimethylphenol + N-methylpyrrolidone; phases: Liquid, Crystal
Fixed: Pressure, kPa = 101.325
Property: Solid-liquid equilibrium temperature, K (Liquid); method: VISOBS:UFactor:4
Mole fraction of N-methylpyrrolidone	Solid-liquid equilibrium temperature, K	uncertainty
0.8617	241.47	0.62
0.8862	243.13	0.62
0.9148	245.11	0.62
0.9339	246.2	0.62
0.9563	247.44	0.62
