Measured thermophysical data. Liquid liquid equilibria for the binary system of di-isopropyl ether (DIPE) +water in between 288.15 and 323.15K and the ternary systems of DIPE +water + C1 C4 alcohols at 298.15K
Source: Fluid Phase Equilib., 2008, 10.1016/j.fluid.2008.04.010
Compound 1: diisopropyl ether, C6H14O, InChI=1S/C6H14O/c1-5(2)7-6(3)4/h5-6H,1-4H3
Compound 2: methanol, CH4O, InChI=1S/CH4O/c1-2/h2H,1H3
Compound 3: ethanol, C2H6O, InChI=1S/C2H6O/c1-2-3/h3H,2H2,1H3
Compound 4: propan-1-ol, C3H8O, InChI=1S/C3H8O/c1-2-3-4/h4H,2-3H2,1H3
Compound 5: propan-2-ol, C3H8O, InChI=1S/C3H8O/c1-3(2)4/h3-4H,1-2H3
Compound 6: butan-1-ol, C4H10O, InChI=1S/C4H10O/c1-2-3-4-5/h5H,2-4H2,1H3
Compound 7: butan-2-ol, C4H10O, InChI=1S/C4H10O/c1-3-4(2)5/h4-5H,3H2,1-2H3
Compound 8: water, H2O, InChI=1S/H2O/h1H2

System: diisopropyl ether; phases: Liquid
Property: Mass density, kg/m3 (Liquid); method: VIBTUB:UFactor:2
Temperature, K	Pressure, kPa	Mass density, kg/m3	uncertainty
298.15	101.325	718.62	0.38

System: methanol; phases: Liquid
Property: Mass density, kg/m3 (Liquid); method: VIBTUB:UFactor:2
Temperature, K	Pressure, kPa	Mass density, kg/m3	uncertainty
298.15	101.325	786.57	0.3

System: ethanol; phases: Liquid
Property: Mass density, kg/m3 (Liquid); method: VIBTUB:UFactor:2
Temperature, K	Pressure, kPa	Mass density, kg/m3	uncertainty
298.15	101.325	785.32	0.31

System: propan-1-ol; phases: Liquid
Property: Mass density, kg/m3 (Liquid); method: VIBTUB:UFactor:2
Temperature, K	Pressure, kPa	Mass density, kg/m3	uncertainty
298.15	101.325	799.96	0.29

System: propan-2-ol; phases: Liquid
Property: Mass density, kg/m3 (Liquid); method: VIBTUB:UFactor:2
Temperature, K	Pressure, kPa	Mass density, kg/m3	uncertainty
298.15	101.325	781.21	0.31

System: butan-1-ol; phases: Liquid
Property: Mass density, kg/m3 (Liquid); method: VIBTUB:UFactor:2
Temperature, K	Pressure, kPa	Mass density, kg/m3	uncertainty
298.15	101.325	805.78	0.28

System: butan-2-ol; phases: Liquid
Property: Mass density, kg/m3 (Liquid); method: VIBTUB:UFactor:2
Temperature, K	Pressure, kPa	Mass density, kg/m3	uncertainty
298.15	101.325	802.63	0.29

System: diisopropyl ether + water; phases: Liquid mixture 1, Liquid mixture 2
Fixed: Pressure, kPa = 101
Property: Mole fraction of diisopropyl ether (Liquid mixture 1); method: Chromatography
Temperature, K	Mole fraction of diisopropyl ether	uncertainty
288.15	0.9758	0.002
293.15	0.973	0.002
298.15	0.9709	0.002
303.15	0.9668	0.002
308.15	0.9634	0.002
313.15	0.9612	0.002
318.15	0.9545	0.002
323.15	0.949	0.002

System: diisopropyl ether + water; phases: Liquid mixture 2, Liquid mixture 1
Fixed: Pressure, kPa = 101
Property: Mole fraction of diisopropyl ether (Liquid mixture 2); method: Chromatography
Temperature, K	Mole fraction of diisopropyl ether	uncertainty
288.15	0.0012	0.0012
293.15	0.0016	0.0016
298.15	0.0018	0.0018
303.15	0.0023	0.002
308.15	0.0025	0.002
313.15	0.0028	0.002
318.15	0.0035	0.002
323.15	0.0049	0.002

System: methanol + diisopropyl ether + water; phases: Liquid mixture 1, Liquid mixture 2
Fixed: Pressure, kPa = 101
Fixed: Temperature, K = 298.15
Property: Mole fraction of methanol (Liquid mixture 1); method: CHROM:UFactor:2
Property: Mole fraction of diisopropyl ether (Liquid mixture 2); method: CHROM:UFactor:2
Property: Mole fraction of methanol (Liquid mixture 2); method: CHROM:UFactor:2
Mole fraction of diisopropyl ether	Mole fraction of methanol	uncertainty	Mole fraction of diisopropyl ether	uncertainty	Mole fraction of methanol	uncertainty
0.8926	0.0528	0.0025	0.0023	0.002	0.0589	
0.8458	0.0838	0.0027	0.0029	0.002	0.1051	
0.7958	0.1223	0.003	0.004	0.002	0.1541	
0.7616	0.1459	0.0032	0.0061	0.002	0.2077	
0.7246	0.1698	0.0034	0.0083	0.002	0.2402	
0.6875	0.1973	0.0037	0.0107	0.002	0.2672	
0.6283	0.2368	0.0042	0.0152	0.002	0.3036	
0.5696	0.2814	0.0046	0.0228	0.0021	0.3407	
0.4743	0.3395	0.0053	0.0352	0.0024	0.3781	
0.3146	0.4062	0.0063	0.0811	0.0028	0.4268	

System: ethanol + diisopropyl ether + water; phases: Liquid mixture 1, Liquid mixture 2
Fixed: Pressure, kPa = 101
Fixed: Temperature, K = 298.15
Property: Mole fraction of ethanol (Liquid mixture 1); method: Chromatography
Property: Mole fraction of diisopropyl ether (Liquid mixture 2); method: Chromatography
Property: Mole fraction of ethanol (Liquid mixture 2); method: Chromatography
Mole fraction of diisopropyl ether	Mole fraction of ethanol	uncertainty	Mole fraction of diisopropyl ether	uncertainty	Mole fraction of ethanol	uncertainty
0.8451	0.0867	0.0025	0.0029	0.002	0.0655	
0.7507	0.1472	0.0026	0.004	0.002	0.1009	
0.6453	0.2177	0.0028	0.0054	0.002	0.1233	
0.4801	0.297	0.003	0.0095	0.002	0.1571	
0.361	0.338	0.0031	0.0154	0.0021	0.1845	
0.2542	0.3464	0.0032	0.0263	0.0023	0.2142	
0.1486	0.3232	0.0031	0.0564	0.0024	0.2593	

System: propan-1-ol + diisopropyl ether + water; phases: Liquid mixture 1, Liquid mixture 2
Fixed: Pressure, kPa = 101
Fixed: Temperature, K = 298.15
Property: Mole fraction of propan-1-ol (Liquid mixture 1); method: Chromatography
Property: Mole fraction of diisopropyl ether (Liquid mixture 2); method: Chromatography
Property: Mole fraction of propan-1-ol (Liquid mixture 2); method: Chromatography
Mole fraction of diisopropyl ether	Mole fraction of propan-1-ol	uncertainty	Mole fraction of diisopropyl ether	uncertainty	Mole fraction of propan-1-ol	uncertainty
0.7998	0.1234	0.0025	0.0018	0.0018	0.018	
0.6029	0.2514	0.0029	0.0019	0.0019	0.0291	
0.4651	0.3182	0.0031	0.002	0.002	0.035	
0.3509	0.3617	0.0033	0.0021	0.002	0.04	
0.2598	0.3849	0.0034	0.0021	0.002	0.0442	
0.2069	0.3923	0.0034	0.0021	0.002	0.0478	
0.1396	0.3801	0.0034	0.0024	0.002	0.0554	
0.1004	0.3544	0.0035	0.0029	0.002	0.0638	

System: propan-2-ol + diisopropyl ether + water; phases: Liquid mixture 1, Liquid mixture 2
Fixed: Pressure, kPa = 101
Fixed: Temperature, K = 298.15
Property: Mole fraction of propan-2-ol (Liquid mixture 1); method: Chromatography
Property: Mole fraction of diisopropyl ether (Liquid mixture 2); method: Chromatography
Property: Mole fraction of propan-2-ol (Liquid mixture 2); method: Chromatography
Mole fraction of diisopropyl ether	Mole fraction of propan-2-ol	uncertainty	Mole fraction of diisopropyl ether	uncertainty	Mole fraction of propan-2-ol	uncertainty
0.9321	0.0348	0.0024	0.0019	0.0019	0.0052	
0.7948	0.1261	0.0026	0.002	0.002	0.0104	
0.677	0.2063	0.0028	0.0022	0.002	0.0195	
0.5924	0.2503	0.0028	0.0025	0.002	0.0237	
0.4156	0.3309	0.0032	0.0029	0.002	0.0693	
0.2447	0.3691	0.0033	0.0043	0.002	0.0877	
0.0966	0.304	0.0042	0.0125	0.0021	0.1332	
0.0635	0.254	0.004	0.0273	0.0021	0.1742	

System: butan-1-ol + diisopropyl ether + water; phases: Liquid mixture 2, Liquid mixture 1
Fixed: Temperature, K = 298.15
Fixed: Pressure, kPa = 101
Property: Mole fraction of butan-1-ol (Liquid mixture 2); method: Chromatography
Property: Mole fraction of butan-1-ol (Liquid mixture 1); method: Chromatography
Property: Mole fraction of diisopropyl ether (Liquid mixture 1); method: Chromatography
Mole fraction of diisopropyl ether	Mole fraction of butan-1-ol	uncertainty	Mole fraction of butan-1-ol	uncertainty	Mole fraction of diisopropyl ether	uncertainty
0.0019	0.0047	0.002	0.156	0.0032	0.7498	
0.0021	0.0068	0.002	0.2799	0.0046	0.5537	
0.0022	0.0079	0.002	0.3483	0.0055	0.4495	
0.0024	0.0082	0.002	0.3945	0.0062	0.3642	
0.0025	0.01	0.002	0.4271	0.0067	0.294	
0.0028	0.0118	0.002	0.4562	0.0071	0.2265	
0.0033	0.012	0.002	0.4766	0.0074	0.1741	
0.0055	0.0131	0.002	0.484	0.0075	0.1322	
0.0087	0.0135	0.002	0.5004	0.0078	0.0779	
0.0116	0.0157	0.002	0.5016	0.0077	0.0479	

System: butan-2-ol + diisopropyl ether + water; phases: Liquid mixture 1, Liquid mixture 2
Fixed: Pressure, kPa = 101
Fixed: Temperature, K = 298.15
Property: Mole fraction of butan-2-ol (Liquid mixture 1); method: Chromatography
Property: Mole fraction of diisopropyl ether (Liquid mixture 2); method: Chromatography
Property: Mole fraction of butan-2-ol (Liquid mixture 2); method: Chromatography
Mole fraction of diisopropyl ether	Mole fraction of butan-2-ol	uncertainty	Mole fraction of diisopropyl ether	uncertainty	Mole fraction of butan-2-ol	uncertainty
0.8299	0.0626	0.0023	0.0016	0.0016	0.0054	
0.6234	0.1806	0.0026	0.0018	0.0018	0.0133	
0.4862	0.2651	0.003	0.0013	0.0013	0.0159	
0.3612	0.3377	0.0033	0.0014	0.0014	0.0189	
0.2842	0.3733	0.0034	0.0014	0.0014	0.0218	
0.2151	0.402	0.0035	0.0013	0.0013	0.0239	
0.1478	0.4193	0.0036	0.0011	0.0011	0.0261	
0.0928	0.4171	0.0036	0.001	0.001	0.0297	
