Measured thermophysical data. Solubility of chlorobutane, ethyl methacrylate and trifluoroethyl acrylate in supercritical carbon dioxide
Source: Fluid Phase Equilib., 2006, 10.1016/j.fluid.2005.10.023
Compound 1: 1-chlorobutane, C4H9Cl, InChI=1S/C4H9Cl/c1-2-3-4-5/h2-4H2,1H3
Compound 2: hexane, C6H14, InChI=1S/C6H14/c1-3-5-6-4-2/h3-6H2,1-2H3
Compound 3: chlorobenzene, C6H5Cl, InChI=1S/C6H5Cl/c7-6-4-2-1-3-5-6/h1-5H
Compound 4: styrene, C8H8, InChI=1S/C8H8/c1-2-8-6-4-3-5-7-8/h2-7H,1H2
Compound 5: ethyl 2-methylpropenoate, C6H10O2, InChI=1S/C6H10O2/c1-4-8-6(7)5(2)3/h2,4H2,1,3H3
Compound 6: acrylic acid, trifluoro-, ethyl ester, C5H5F3O2, InChI=1S/C5H5F3O2/c1-2-10-5(9)3(6)4(7)8/h2H2,1H3
Compound 7: carbon dioxide, CO2, InChI=1S/CO2/c2-1-3

System: 1-chlorobutane + carbon dioxide; phases: Gas, Liquid
Property: Vapor or sublimation pressure, kPa (Gas); method: CCELL:UFactor:4
Temperature, K	Mole fraction of 1-chlorobutane	Vapor or sublimation pressure, kPa	uncertainty
323.15	0.0192	7900	120
323.15	0.0257	8760	120
323.15	0.03	8870	110
323.15	0.0363	8920	110
323.15	0.04	9020	120
328.15	0.0257	8760	120
328.15	0.03	8960	120
328.15	0.0363	9270	120
328.15	0.04	9390	120
328.15	0.0497	9420	120
333.15	0.0257	8320	120
333.15	0.03	8760	120
333.15	0.0363	9440	120
333.15	0.04	9620	120
333.15	0.0497	9760	120

System: 1-chlorobutane + carbon dioxide; phases: Gas, Liquid
Property: Mass density, kg/m3 (Gas); method: Other PVT measurement
Temperature, K	Mole fraction of 1-chlorobutane	Mass density, kg/m3	uncertainty
323.15	0.0257	347	20
323.15	0.03	386	20
323.15	0.0363	442	20
323.15	0.04	468	20
328.15	0.0257	300	20
328.15	0.03	343	20
328.15	0.0363	390	20
328.15	0.04	407	20
328.15	0.0497	467	20
333.15	0.03	286	20
333.15	0.0363	345	20
333.15	0.04	380	20
333.15	0.0497	419	20

System: hexane + carbon dioxide; phases: Gas, Liquid
Property: Vapor or sublimation pressure, kPa (Gas); method: CCELL:UFactor:4
Temperature, K	Mole fraction of hexane	Vapor or sublimation pressure, kPa	uncertainty
323.15	0.0258	7220	120
323.15	0.0304	7940	110
323.15	0.0373	8530	110
323.15	0.0471	8610	110
323.15	0.052	8630	110
328.15	0.0304	7220	120
328.15	0.0373	8480	110
328.15	0.0471	8860	110
328.15	0.052	8930	110
328.15	0.0618	8950	110
333.15	0.0373	8080	110
333.15	0.0471	8930	120
333.15	0.052	9120	120
333.15	0.0618	9250	120

System: hexane + carbon dioxide; phases: Gas, Liquid
Property: Mass density, kg/m3 (Gas); method: Other PVT measurement
Temperature, K	Mole fraction of hexane	Mass density, kg/m3	uncertainty
323.15	0.0373	355	21
323.15	0.0471	451	20
323.15	0.052	477	20
328.15	0.0373	294	21
328.15	0.0471	396	20
328.15	0.052	423	20
328.15	0.0618	436	20
333.15	0.0373	249	20
333.15	0.0471	343	20
333.15	0.052	378	20
333.15	0.0618	392	20

System: chlorobenzene + carbon dioxide; phases: Gas, Liquid
Property: Vapor or sublimation pressure, kPa (Gas); method: CCELL:UFactor:4
Temperature, K	Mole fraction of chlorobenzene	Vapor or sublimation pressure, kPa	uncertainty
323.15	0.0096	8550	110
323.15	0.0204	9300	120
323.15	0.024	9340	120
323.15	0.0293	9360	120
328.15	0.0096	8600	120
328.15	0.0204	9780	130
328.15	0.024	9880	120
328.15	0.0293	9960	130
328.15	0.0352	10000	130
328.15	0.04	10030	130
333.15	0.0096	8650	120
333.15	0.0204	10200	140
333.15	0.024	10370	130
333.15	0.0293	10520	130
333.15	0.0352	10580	130
333.15	0.04	10650	130
333.15	0.0482	10680	130

System: chlorobenzene + carbon dioxide; phases: Gas, Liquid
Property: Mass density, kg/m3 (Gas); method: Other PVT measurement
Temperature, K	Mole fraction of chlorobenzene	Mass density, kg/m3	uncertainty
323.15	0.024	471	20
323.15	0.0293	507	20
323.15	0.204	437	20
328.15	0.024	441	20
328.15	0.0293	481	20
328.15	0.0352	516	20
328.15	0.04	534	20
328.15	0.204	406	20
333.15	0.024	417	20
333.15	0.0293	458	20
333.15	0.0352	493	20
333.15	0.04	516	20
333.15	0.0482	556	20
333.15	0.204	386	20

System: styrene + carbon dioxide; phases: Gas, Liquid
Property: Vapor or sublimation pressure, kPa (Gas); method: CCELL:UFactor:4
Temperature, K	Mole fraction of styrene	Vapor or sublimation pressure, kPa	uncertainty
323.15	0.0093	8780	110
323.15	0.0182	9350	120
323.15	0.0256	9430	120
323.15	0.03	9460	120
328.15	0.0093	8940	120
328.15	0.0182	9880	130
328.15	0.0256	10050	130
328.15	0.03	10060	130
328.15	0.0343	10080	130
328.15	0.0393	10100	130
328.15	0.0476	10120	130
333.15	0.0093	9000	130
333.15	0.0182	10400	140
333.15	0.0256	10640	130
333.15	0.03	10680	130
333.15	0.0343	10710	140
333.15	0.0393	10770	140
333.15	0.0476	10840	140

System: styrene + carbon dioxide; phases: Gas, Liquid
Property: Mass density, kg/m3 (Gas); method: Other PVT measurement
Temperature, K	Mole fraction of styrene	Mass density, kg/m3	uncertainty
323.15	0.0182	479	20
323.15	0.0256	494	20
323.15	0.03	521	20
328.15	0.0182	450	20
328.15	0.0256	471	20
328.15	0.03	499	20
328.15	0.0343	529	20
328.15	0.0393	547	20
328.15	0.0476	580	20
333.15	0.0182	430	20
333.15	0.0256	453	20
333.15	0.03	479	20
333.15	0.0343	507	20
333.15	0.0393	527	20
333.15	0.0476	560	20

System: ethyl 2-methylpropenoate + carbon dioxide; phases: Gas, Liquid
Property: Vapor or sublimation pressure, kPa (Gas); method: CCELL:UFactor:4
Temperature, K	Mole fraction of ethyl 2-methylpropenoate	Vapor or sublimation pressure, kPa	uncertainty
323.15	0.0142	8970	120
323.15	0.0197	9240	120
323.15	0.031	9260	120
328.15	0.0142	9110	120
328.15	0.0197	9530	120
328.15	0.031	9710	120
328.15	0.042	9760	120
333.15	0.0142	9130	120
333.15	0.0197	9730	120
333.15	0.031	10120	130
333.15	0.042	10210	130
333.15	0.0486	10320	130

System: ethyl 2-methylpropenoate + carbon dioxide; phases: Gas, Liquid
Property: Mass density, kg/m3 (Gas); method: Other PVT measurement
Temperature, K	Mole fraction of ethyl 2-methylpropenoate	Mass density, kg/m3	uncertainty
323.15	0.0142	429	20
323.15	0.0244	471	20
323.15	0.031	510	20
323.15	0.042	550	20
328.15	0.0244	410	20
328.15	0.031	459	20
328.15	0.042	520	20
328.15	0.0486	542	20
333.15	0.0244	380	20
333.15	0.031	425	20
333.15	0.042	480	20
333.15	0.0486	508	20

System: carbon dioxide + acrylic acid, trifluoro-, ethyl ester; phases: Gas, Liquid
Property: Vapor or sublimation pressure, kPa (Gas); method: CCELL:UFactor:4
Temperature, K	Mole fraction of acrylic acid, trifluoro-, ethyl ester	Vapor or sublimation pressure, kPa	uncertainty
323.15	0.0096	8400	120
323.15	0.0143	8980	120
323.15	0.0192	9090	120
323.15	0.025	9130	120
323.15	0.0287	9140	120
323.15	0.0345	9160	120
328.15	0.0096	8040	140
328.15	0.0143	9160	130
328.15	0.0192	9370	120
328.15	0.025	9560	120
328.15	0.0287	9580	120
328.15	0.0345	9610	120
328.15	0.0405	9640	120
333.15	0.0143	9140	120
333.15	0.0192	9530	120
333.15	0.025	9860	120
333.15	0.0287	9950	120
333.15	0.0345	10030	130
333.15	0.0405	10060	130
333.15	0.0506	10080	130

System: carbon dioxide + acrylic acid, trifluoro-, ethyl ester; phases: Gas, Liquid
Property: Mass density, kg/m3 (Gas); method: Other PVT measurement
Temperature, K	Mole fraction of acrylic acid, trifluoro-, ethyl ester	Mass density, kg/m3	uncertainty
323.15	0.0096	298	22
323.15	0.0143	394	21
323.15	0.0192	429	20
323.15	0.025	490	21
323.15	0.0287	538	20
323.15	0.0345	567	20
328.15	0.0096	245	22
328.15	0.0143	344	21
328.15	0.0192	385	20
328.15	0.025	442	21
328.15	0.0287	480	20
328.15	0.0345	509	20
328.15	0.0405	557	20
333.15	0.0143	301	20
333.15	0.0192	344	20
333.15	0.025	383	20
333.15	0.0287	442	20
333.15	0.0345	469	20
333.15	0.0405	510	20
333.15	0.0506	567	20
