Measured thermophysical data. Development of a rolling ball viscometer for simultaneous measurement of viscosity, density, bubble-point pressure of CO2-expanded liquids
Source: Fluid Phase Equilib., 2019, 10.1016/j.fluid.2019.01.017
Compound 1: ethanol, C2H6O, InChI=1S/C2H6O/c1-2-3/h3H,2H2,1H3, purity 99.5%
Compound 2: carbon dioxide, CO2, InChI=1S/CO2/c2-1-3, purity 99.99%

System: carbon dioxide + ethanol; phases: Gas, Liquid
Fixed: Temperature, K = 313.15
Property: Vapor or sublimation pressure, kPa (Gas); method: Closed cell (Static) method
Mole fraction of carbon dioxide	Vapor or sublimation pressure, kPa	uncertainty
0.1044	1830	30
0.1746	3020	30
0.2221	3760	30
0.315	5200	40

System: carbon dioxide + ethanol; phases: Liquid
Fixed: Temperature, K = 313.15
Property: Mass density, kg/m3 (Liquid); method: ISOCHOR
Pressure, kPa	Mole fraction of carbon dioxide	Mass density, kg/m3	uncertainty
200	0	770.7	38.5
1830	0.1044	788.8	39.4
3020	0.1746	795.7	39.8
3760	0.2221	798.4	39.9
5200	0.315	806.9	40.3

System: carbon dioxide + ethanol; phases: Liquid
Fixed: Temperature, K = 313.15
Property: Viscosity, Pa*s (Liquid); method: Falling or rolling sphere viscometry
Pressure, kPa	Mole fraction of carbon dioxide	Viscosity, Pa*s	uncertainty
200	0	0.00082	2.9e-05
1830	0.1044	0.00065	2.3e-05
3020	0.1746	0.00057	2e-05
3760	0.2221	0.000497	1.7e-05
5200	0.315	0.000411	1.4e-05

System: carbon dioxide + ethanol; phases: Liquid
Fixed: Temperature, K = 313.15
Property: Mass density, kg/m3 (Liquid); method: ISOCHOR
Pressure, kPa	Mole fraction of carbon dioxide	Mass density, kg/m3	uncertainty
10000	0	785.3	39.3
10000	0.1044	798.2	39.9
10000	0.1746	805	40.3
10000	0.2221	807.8	40.4
10000	0.315	814	40.7
20000	0	794.4	39.7
20000	0.1044	808.6	40.4
20000	0.1746	818.1	40.9
20000	0.2221	820.2	41
20000	0.315	830.6	41.5

System: carbon dioxide + ethanol; phases: Liquid
Fixed: Temperature, K = 313.15
Property: Viscosity, Pa*s (Liquid); method: Falling or rolling sphere viscometry
Pressure, kPa	Mole fraction of carbon dioxide	Viscosity, Pa*s	uncertainty
10000	0	0.000895	3.1e-05
10000	0.1044	0.000685	2.4e-05
10000	0.1746	0.000607	2.1e-05
10000	0.2221	0.000523	1.8e-05
10000	0.315	0.00044	1.5e-05
20000	0	0.00094	3.3e-05
20000	0.1044	0.000732	2.6e-05
20000	0.1746	0.000659	2.3e-05
20000	0.2221	0.000568	2e-05
20000	0.315	0.000484	1.7e-05
