Measured thermophysical data. Ternary (liquid liquid) equilibria of nitrate based ionic liquid + alkane + benzene  at 298.15 K: Experiments and correlation
Source: Fluid Phase Equilib., 2013, 10.1016/j.fluid.2012.12.025
Compound 1: hexane, C6H14, InChI=1S/C6H14/c1-3-5-6-4-2/h3-6H2,1-2H3, purity 99%
Compound 2: heptane, C7H16, InChI=1S/C7H16/c1-3-5-7-6-4-2/h3-7H2,1-2H3, purity 99%
Compound 3: octane, C8H18, InChI=1S/C8H18/c1-3-5-7-8-6-4-2/h3-8H2,1-2H3, purity 99%
Compound 4: benzene, C6H6, InChI=1S/C6H6/c1-2-4-6-5-3-1/h1-6H, purity 99%
Compound 5: 1-butyl-3-methylimidazolium nitrate, C8H15N3O3, InChI=1S/C8H15N2.NO3/c1-3-4-5-10-7-6-9(2)8-10;2-1(3)4/h6-8H,3-5H2,1-2H3;/q+1;-1
Compound 6: 1-methyl-3-octylimidazolium nitrate, C12H23N3O3, InChI=1S/C12H23N2.NO3/c1-3-4-5-6-7-8-9-14-11-10-13(2)12-14;2-1(3)4/h10-12H,3-9H2,1-2H3;/q+1;-1

System: benzene + hexane + 1-butyl-3-methylimidazolium nitrate; phases: Liquid mixture 1, Liquid mixture 2
Fixed: Temperature, K = 298.15
Fixed: Pressure, kPa = 101
Property: Mole fraction of hexane (Liquid mixture 1); method: Chromatography
Property: Mole fraction of hexane (Liquid mixture 2); method: Chromatography
Property: Mole fraction of benzene (Liquid mixture 2); method: Chromatography
Mole fraction of benzene	Mole fraction of hexane	uncertainty	Mole fraction of hexane	uncertainty	Mole fraction of benzene	uncertainty
0.166	0.834	0.009	0.011	0.002	0.127	
0.365	0.635	0.009	0.013	0.002	0.185	
0.464	0.536	0.009	0.01	0.002	0.208	
0.567	0.433	0.009	0.01	0.002	0.252	
0.766	0.234	0.009	0.012	0.002	0.365	
0.151	0.849	0.009	0.013	0.002	0.118	
0.356	0.644	0.009	0.013	0.002	0.176	
0.488	0.512	0.009	0.014	0.002	0.219	
0.656	0.344	0.009	0.016	0.002	0.28	

System: benzene + heptane + 1-butyl-3-methylimidazolium nitrate; phases: Liquid mixture 1, Liquid mixture 2
Fixed: Temperature, K = 298.15
Fixed: Pressure, kPa = 1
Property: Mole fraction of heptane (Liquid mixture 1); method: Chromatography
Property: Mole fraction of heptane (Liquid mixture 2); method: Chromatography
Property: Mole fraction of benzene (Liquid mixture 2); method: Chromatography
Mole fraction of benzene	Mole fraction of heptane	uncertainty	Mole fraction of heptane	uncertainty	Mole fraction of benzene	uncertainty
0.201	0.799	0.009	0.006	0.002	0.1	
0.404	0.596	0.009	0.008	0.002	0.178	
0.504	0.496	0.009	0.008	0.002	0.216	
0.598	0.402	0.009	0.009	0.002	0.269	
0.792	0.208	0.009	0.007	0.002	0.366	
0.179	0.821	0.009	0.007	0.002	0.089	
0.359	0.641	0.009	0.008	0.002	0.15	
0.525	0.475	0.009	0.009	0.002	0.223	
0.68	0.32	0.009	0.011	0.002	0.301	

System: benzene + octane + 1-butyl-3-methylimidazolium nitrate; phases: Liquid mixture 1, Liquid mixture 2
Fixed: Temperature, K = 298.15
Fixed: Pressure, kPa = 1
Property: Mole fraction of octane (Liquid mixture 1); method: Chromatography
Property: Mole fraction of octane (Liquid mixture 2); method: Chromatography
Property: Mole fraction of benzene (Liquid mixture 2); method: Chromatography
Mole fraction of benzene	Mole fraction of octane	uncertainty	Mole fraction of octane	uncertainty	Mole fraction of benzene	uncertainty
0.198	0.802	0.009	0.008	0.002	0.15	
0.415	0.585	0.009	0.006	0.002	0.222	
0.51	0.49	0.009	0.005	0.002	0.263	
0.614	0.386	0.009	0.005	0.002	0.298	
0.806	0.194	0.009	0.005	0.002	0.388	
0.181	0.819	0.009	0.009	0.002	0.142	
0.373	0.627	0.009	0.006	0.002	0.208	
0.543	0.457	0.009	0.005	0.002	0.268	
0.707	0.293	0.009	0.005	0.002	0.318	
0.849	0.151	0.009	0.007	0.002	0.451	

System: benzene + hexane + 1-methyl-3-octylimidazolium nitrate; phases: Liquid mixture 2, Liquid mixture 1
Fixed: Pressure, kPa = 101
Fixed: Temperature, K = 298.15
Property: Mole fraction of hexane (Liquid mixture 2); method: Chromatography
Property: Mole fraction of benzene (Liquid mixture 1); method: Chromatography
Property: Mole fraction of hexane (Liquid mixture 1); method: Chromatography
Mole fraction of benzene	Mole fraction of hexane	uncertainty	Mole fraction of benzene	uncertainty	Mole fraction of hexane	uncertainty
0.175	0.109	0.003	0.151	0.009	0.849	
0.306	0.092	0.002	0.325	0.009	0.675	
0.361	0.09	0.002	0.429	0.009	0.571	
0.421	0.092	0.002	0.525	0.009	0.475	
0.559	0.081	0.002	0.712	0.009	0.288	
0.167	0.116	0.003	0.145	0.009	0.855	
0.281	0.106	0.002	0.299	0.009	0.701	
0.388	0.091	0.002	0.459	0.009	0.541	
0.489	0.081	0.002	0.619	0.009	0.381	
0.599	0.063	0.002	0.807	0.009	0.193	

System: benzene + heptane + 1-methyl-3-octylimidazolium nitrate; phases: Liquid mixture 2, Liquid mixture 1
Fixed: Temperature, K = 298.15
Fixed: Pressure, kPa = 101
Property: Mole fraction of heptane (Liquid mixture 2); method: Chromatography
Property: Mole fraction of benzene (Liquid mixture 1); method: Chromatography
Property: Mole fraction of heptane (Liquid mixture 1); method: Chromatography
Mole fraction of benzene	Mole fraction of heptane	uncertainty	Mole fraction of benzene	uncertainty	Mole fraction of heptane	uncertainty
0.18	0.072	0.003	0.185	0.009	0.815	
0.316	0.078	0.002	0.358	0.009	0.642	
0.389	0.082	0.002	0.448	0.009	0.553	
0.449	0.07	0.002	0.546	0.009	0.454	
0.585	0.061	0.002	0.743	0.009	0.257	
0.17	0.079	0.003	0.175	0.009	0.825	
0.293	0.085	0.002	0.324	0.009	0.676	
0.407	0.081	0.002	0.485	0.009	0.515	
0.52	0.067	0.002	0.646	0.009	0.354	
0.637	0.056	0.002	0.818	0.009	0.182	

System: benzene + octane + 1-methyl-3-octylimidazolium nitrate; phases: Liquid mixture 2, Liquid mixture 1
Fixed: Temperature, K = 298.15
Fixed: Pressure, kPa = 101
Property: Mole fraction of octane (Liquid mixture 2); method: Chromatography
Property: Mole fraction of benzene (Liquid mixture 1); method: Chromatography
Property: Mole fraction of octane (Liquid mixture 1); method: Chromatography
Mole fraction of benzene	Mole fraction of octane	uncertainty	Mole fraction of benzene	uncertainty	Mole fraction of octane	uncertainty
0.199	0.068	0.002	0.184	0.009	0.816	
0.346	0.063	0.002	0.37	0.009	0.63	
0.404	0.061	0.002	0.471	0.009	0.529	
0.458	0.056	0.003	0.569	0.009	0.431	
0.576	0.049	0.002	0.773	0.009	0.227	
0.19	0.072	0.002	0.175	0.009	0.825	
0.316	0.065	0.002	0.344	0.009	0.656	
0.44	0.078	0.002	0.511	0.009	0.489	
0.531	0.055	0.002	0.67	0.009	0.33	
0.643	0.049	0.002	0.834	0.009	0.166	
