Measured thermophysical data. Liquid liquid equilibria for the MTBE+water + salts systems at 298.15K
Source: Fluid Phase Equilib., 2007, 10.1016/j.fluid.2007.04.026
Compound 1: 2-methoxy-2-methylpropane, C5H12O, InChI=1S/C5H12O/c1-5(2,3)6-4/h1-4H3
Compound 2: calcium chloride, CaCl2, InChI=1S/Ca.2ClH/h;2*1H/q+2;;/p-2
Compound 3: magnesium chloride, Cl2Mg, InChI=1S/2ClH.Mg/h2*1H;/q;;+2/p-2
Compound 4: sodium chloride, ClNa, InChI=1S/ClH.Na/h1H;/q;+1/p-1
Compound 5: potassium chloride, ClK, InChI=1S/ClH.K/h1H;/q;+1/p-1
Compound 6: water, H2O, InChI=1S/H2O/h1H2

System: 2-methoxy-2-methylpropane + potassium chloride + water; phases: Liquid mixture 2, Liquid mixture 1
Fixed: Temperature, K = 298.15
Fixed: Pressure, kPa = 101.3
Property: Mass fraction of 2-methoxy-2-methylpropane (Liquid mixture 2); method: Chromatography
Property: Mass fraction of water (Liquid mixture 1); method: Chromatography
Property: Mass fraction of 2-methoxy-2-methylpropane (Liquid mixture 1); method: Chromatography
Mass fraction of water	Mass fraction of 2-methoxy-2-methylpropane	uncertainty	Mass fraction of water	uncertainty	Mass fraction of 2-methoxy-2-methylpropane	uncertainty
0.941	0.036	0.002	0.017	0.002	0.981	
0.922	0.031	0.002	0.013	0.002	0.985	
0.884	0.022	0.002	0.013	0.002	0.985	
0.858	0.015	0.002	0.013	0.002	0.986	
0.825	0.012	0.002	0.012	0.002	0.987	
0.791	0.01	0.002	0.011	0.002	0.989	

System: 2-methoxy-2-methylpropane + sodium chloride + water; phases: Liquid mixture 2, Liquid mixture 1
Fixed: Temperature, K = 298.15
Fixed: Pressure, kPa = 101.3
Property: Mass fraction of 2-methoxy-2-methylpropane (Liquid mixture 2); method: Chromatography
Property: Mass fraction of water (Liquid mixture 1); method: Chromatography
Property: Mass fraction of 2-methoxy-2-methylpropane (Liquid mixture 1); method: Chromatography
Mass fraction of water	Mass fraction of 2-methoxy-2-methylpropane	uncertainty	Mass fraction of water	uncertainty	Mass fraction of 2-methoxy-2-methylpropane	uncertainty
0.934	0.034	0.002	0.014	0.002	0.984	
0.92	0.032	0.002	0.014	0.002	0.984	
0.885	0.019	0.002	0.013	0.002	0.985	
0.82	0.009	0.002	0.011	0.002	0.988	
0.783	0.005	0.002	0.01	0.002	0.989	
0.772	0.004	0.002	0.009	0.002	0.991	

System: 2-methoxy-2-methylpropane + water + calcium chloride; phases: Liquid mixture 2, Liquid mixture 1
Fixed: Temperature, K = 298.15
Fixed: Pressure, kPa = 101.3
Property: Mass fraction of 2-methoxy-2-methylpropane (Liquid mixture 2); method: Chromatography
Property: Mass fraction of water (Liquid mixture 1); method: Chromatography
Property: Mass fraction of 2-methoxy-2-methylpropane (Liquid mixture 1); method: Chromatography
Mass fraction of water	Mass fraction of 2-methoxy-2-methylpropane	uncertainty	Mass fraction of water	uncertainty	Mass fraction of 2-methoxy-2-methylpropane	uncertainty
0.941	0.035	0.002	0.014	0.002	0.984	
0.919	0.035	0.002	0.014	0.002	0.984	
0.888	0.024	0.002	0.013	0.002	0.985	
0.718	0.005	0.002	0.011	0.002	0.988	
0.675	0.004	0.002	0.009	0.002	0.99	
0.611	0.002	0.002	0.008	0.002	0.992	

System: 2-methoxy-2-methylpropane + water + magnesium chloride; phases: Liquid mixture 2, Liquid mixture 1
Fixed: Temperature, K = 298.15
Fixed: Pressure, kPa = 101.3
Property: Mass fraction of 2-methoxy-2-methylpropane (Liquid mixture 2); method: Chromatography
Property: Mass fraction of water (Liquid mixture 1); method: Chromatography
Property: Mass fraction of 2-methoxy-2-methylpropane (Liquid mixture 1); method: Chromatography
Mass fraction of water	Mass fraction of 2-methoxy-2-methylpropane	uncertainty	Mass fraction of water	uncertainty	Mass fraction of 2-methoxy-2-methylpropane	uncertainty
0.953	0.033	0.005	0.014	0.002	0.983	
0.949	0.025	0.005	0.014	0.002	0.984	
0.924	0.017	0.002	0.013	0.002	0.985	
0.85	0.01	0.002	0.013	0.002	0.986	
0.779	0.004	0.002	0.012	0.002	0.988	
0.72	0.002	0.002	0.007	0.002	0.993	
