Measured thermophysical data. Solubility of N-Ethylcarbazole in different organic solvent at 279.15 - 319.15 K
Source: Fluid Phase Equilib., 2014, 10.1016/j.fluid.2014.06.030
Compound 1: 9-ethylcarbazole, C14H13N, InChI=1S/C14H13N/c1-2-15-13-9-5-3-7-11(13)12-8-4-6-10-14(12)15/h3-10H,2H2,1H3, purity 97%
Compound 2: methanol, CH4O, InChI=1S/CH4O/c1-2/h2H,1H3, purity 99.7%
Compound 3: ethanol, C2H6O, InChI=1S/C2H6O/c1-2-3/h3H,2H2,1H3, purity 99%
Compound 4: propan-1-ol, C3H8O, InChI=1S/C3H8O/c1-2-3-4/h4H,2-3H2,1H3, purity 99.5%
Compound 5: propan-2-ol, C3H8O, InChI=1S/C3H8O/c1-3(2)4/h3-4H,1-2H3, purity 99.7%
Compound 6: butan-1-ol, C4H10O, InChI=1S/C4H10O/c1-2-3-4-5/h5H,2-4H2,1H3, purity 99.5%
Compound 7: pentan-1-ol, C5H12O, InChI=1S/C5H12O/c1-2-3-4-5-6/h6H,2-5H2,1H3, purity 99.5%

System: methanol + 9-ethylcarbazole; phases: Liquid, Crystal
Fixed: Pressure, kPa = 101
Property: Mole fraction of 9-ethylcarbazole (Liquid); method: Mass of crystal residue after oven drying
Temperature, K	Mole fraction of 9-ethylcarbazole	uncertainty
279.15	0.0028	0.0006
283.15	0.0033	0.0004
287.15	0.004	0.0006
291.15	0.0047	0.0008
295.15	0.0057	0.0002
299.15	0.0068	0.0004
303.15	0.0082	0.0006
307.15	0.0098	0.0002
311.15	0.012	0.0004
315.15	0.0147	0.0004
319.15	0.0179	0.0006

System: ethanol + 9-ethylcarbazole; phases: Liquid, Crystal
Fixed: Pressure, kPa = 101
Property: Mole fraction of 9-ethylcarbazole (Liquid); method: Mass of crystal residue after oven drying
Temperature, K	Mole fraction of 9-ethylcarbazole	uncertainty
279.15	0.0069	0.0004
283.15	0.008	0.0002
287.15	0.0095	0.0006
291.15	0.0112	0.0008
295.15	0.013	0.001
299.15	0.0149	0.0004
303.15	0.0182	0.0002
307.15	0.0228	0.0004
311.15	0.0274	0.0006
315.15	0.0355	0.0004
319.15	0.0433	0.0002

System: propan-1-ol + 9-ethylcarbazole; phases: Liquid, Crystal
Fixed: Pressure, kPa = 101
Property: Mole fraction of 9-ethylcarbazole (Liquid); method: Mass of crystal residue after oven drying
Temperature, K	Mole fraction of 9-ethylcarbazole	uncertainty
279.15	0.0092	0.0004
283.15	0.0105	0.0006
287.15	0.0124	0.0002
291.15	0.0142	0.0002
295.15	0.0169	0.0004
299.15	0.0202	0.0008
303.15	0.024	0.0004
307.15	0.028	0.0006
311.15	0.033	0.0008
315.15	0.0401	0.0002
319.15	0.048	0.0004

System: propan-2-ol + 9-ethylcarbazole; phases: Liquid, Crystal
Fixed: Pressure, kPa = 101
Property: Mole fraction of 9-ethylcarbazole (Liquid); method: Mass of crystal residue after oven drying
Temperature, K	Mole fraction of 9-ethylcarbazole	uncertainty
279.15	0.0065	0.0004
283.15	0.0076	0.0006
287.15	0.009	0.0004
291.15	0.0107	0.0002
295.15	0.0127	0.0004
299.15	0.0152	0.0006
303.15	0.0183	0.0008
307.15	0.0223	0.0002
311.15	0.028	0.0004
315.15	0.0342	0.0004
319.15	0.0436	0.0002

System: butan-1-ol + 9-ethylcarbazole; phases: Liquid, Crystal
Fixed: Pressure, kPa = 101
Property: Mole fraction of 9-ethylcarbazole (Liquid); method: Mass of crystal residue after oven drying
Temperature, K	Mole fraction of 9-ethylcarbazole	uncertainty
279.15	0.0135	0.0002
283.15	0.0151	0.0004
287.15	0.0172	0.0006
291.15	0.0208	0.0004
295.15	0.0234	0.0006
299.15	0.0271	0.0006
303.15	0.0316	0.0002
307.15	0.0379	0.0002
311.15	0.0446	0.0004
315.15	0.0522	0.0006
319.15	0.0621	0.0003

System: pentan-1-ol + 9-ethylcarbazole; phases: Liquid, Crystal
Fixed: Pressure, kPa = 101
Property: Mole fraction of 9-ethylcarbazole (Liquid); method: Mass of crystal residue after oven drying
Temperature, K	Mole fraction of 9-ethylcarbazole	uncertainty
279.15	0.0141	0.0004
283.15	0.016	0.0002
287.15	0.0183	0.0002
291.15	0.021	0.0006
295.15	0.025	0.0004
299.15	0.0292	0.0004
303.15	0.035	0.0004
307.15	0.042	0.0006
311.15	0.05	0.0004
315.15	0.0609	0.0003
319.15	0.0743	0.0004
