Measured thermophysical data. Gaseous PVTx measurements for propane (R290) + trifluoroiodomethane (R13I1) system
Source: Fluid Phase Equilib., 2019, 10.1016/j.fluid.2019.04.033
Compound 1: trifluoroiodomethane, CF3I, InChI=1S/CF3I/c2-1(3,4)5, purity 99.5%
Compound 2: propane, C3H8, InChI=1S/C3H8/c1-3-2/h3H2,1-2H3, purity 99.99%

System: propane; phases: Gas
Property: Mass density, kg/m3 (Gas); method: ISOCHOR
Temperature, K	Pressure, kPa	Mass density, kg/m3	uncertainty
283.37	449.4	9.302	0.117
288.36	459.3	9.3	0.114
293.35	468.8	9.298	0.111
298.35	478.6	9.295	0.108
303.33	488.4	9.293	0.105
308.32	497.9	9.291	0.103
313.33	507.7	9.289	0.101
318.31	517	9.286	0.099
323.31	527	9.284	0.097
328.3	536.3	9.282	0.095
333.28	545.9	9.28	0.094
338.28	555	9.278	0.092
343.27	564.2	9.275	0.09
348.28	573.5	9.273	0.089
353.29	583.5	9.271	0.087
283.37	541.4	11.462	0.119
288.36	554	11.459	0.116
293.35	566.1	11.456	0.118
298.35	578.6	11.454	0.119
303.33	590.9	11.451	0.116
308.32	602.9	11.448	0.113
313.33	614.9	11.445	0.111
318.31	626.7	11.443	0.108
323.31	638.8	11.44	0.106
328.3	650.6	11.437	0.104
333.28	662.4	11.435	0.104
338.28	674.2	11.432	0.1
343.27	685.9	11.429	0.1
348.28	697.6	11.426	0.098
353.29	709.3	11.424	0.096
298.35	870.6	18.472	0.13
303.33	891.2	18.467	0.127
308.33	912.3	18.463	0.124
313.33	933.2	18.458	0.122
318.31	953.2	18.454	0.119
323.31	973.8	18.449	0.117
328.3	993.7	18.445	0.115
333.28	1013.9	18.441	0.113
338.28	1033.1	18.436	0.111
343.27	1052.8	18.432	0.109
348.28	1072.6	18.427	0.108
353.29	1092.1	18.423	0.106

System: propane + trifluoroiodomethane; phases: Gas
Property: Amount density, mol/m3 (Gas); method: ISOCHOR
Temperature, K	Pressure, kPa	Mole fraction of propane	Amount density, mol/m3	uncertainty
283.37	242.2	0.4502	109.5	2.5
288.36	247.2	0.4502	109.5	2.6
293.34	252.1	0.4502	109.4	2.6
298.35	257	0.4502	109.4	2.5
303.33	262	0.4502	109.4	2.5
308.32	266.8	0.4502	109.4	2.4
313.33	271.5	0.4502	109.3	2.4
318.31	276.2	0.4502	109.3	2.4
323.31	280.9	0.4502	109.3	2.3
328.3	285.5	0.4502	109.2	2.3
333.28	290.3	0.4502	109.2	2.2
338.28	295.1	0.4502	109.2	2.2
343.27	300.1	0.4502	109.2	2.2
348.28	305.1	0.4502	109.1	2.2
353.29	310	0.4502	109.1	2.1
293.34	429.9	0.5054	195.5	3.1
298.35	439.8	0.5054	195.4	3
303.33	448.6	0.5054	195.4	3
308.32	457.4	0.5054	195.3	2.9
313.33	466.4	0.5054	195.3	2.9
318.31	475.4	0.5054	195.2	2.9
323.31	484.5	0.5054	195.2	2.8
328.3	493.3	0.5054	195.2	2.8
333.28	502.3	0.5054	195.1	2.8
338.28	511	0.5054	195.1	2.7
343.27	519.9	0.5054	195	2.7
348.28	529	0.5054	195	2.7
353.29	537.7	0.5054	194.9	2.7
283.37	352.7	0.5603	164.1	3.1
288.36	360.5	0.5603	164.1	3.1
293.34	368	0.5603	164.1	3
298.35	375.3	0.5603	164	2.9
303.33	382.9	0.5603	164	2.8
308.32	390.3	0.5603	163.9	2.8
313.33	398	0.5603	163.9	2.8
318.31	405.5	0.5603	163.9	2.7
323.31	413	0.5603	163.8	2.7
328.3	420.3	0.5603	163.8	2.6
333.28	427.5	0.5603	163.7	2.6
338.28	435.1	0.5603	163.7	2.6
343.27	442.5	0.5603	163.7	2.6
348.28	450	0.5603	163.6	2.5
353.29	457.5	0.5603	163.6	2.5
298.35	727.6	0.7267	345.5	4.3
303.33	744.6	0.7267	345.4	4.3
308.32	761.7	0.7267	345.3	4.2
313.33	778.5	0.7267	345.2	4.2
318.31	795.2	0.7267	345.1	4.1
323.31	811.5	0.7267	345.1	4.1
328.3	827.9	0.7267	345	4.1
333.28	844.2	0.7267	344.9	4.1
338.28	860.8	0.7267	344.8	4
343.27	876.7	0.7267	344.7	4
348.28	892.9	0.7267	344.6	4
353.29	909	0.7267	344.6	4
298.35	802.3	0.7959	387.8	4.8
303.33	821.1	0.7959	387.8	4.7
308.32	840.5	0.7959	387.7	4.7
313.33	859.5	0.7959	387.6	4.6
318.31	877.9	0.7959	387.5	4.6
323.31	896.7	0.7959	387.4	4.6
328.3	915.7	0.7959	387.3	4.5
333.28	933.9	0.7959	387.2	4.5
338.28	952.1	0.7959	387.1	4.5
343.27	970	0.7959	387	4.4
348.28	988	0.7959	386.9	4.4
353.29	1006	0.7959	386.8	4.4
293.34	669.4	0.818	320.2	4.2
298.35	685.4	0.818	320.1	4.2
303.33	701.5	0.818	320	4.2
308.32	716.5	0.818	320	4.1
313.33	731.9	0.818	319.9	4.1
318.31	746.5	0.818	319.8	4
323.31	761.4	0.818	319.7	4
328.3	776.3	0.818	319.7	3.9
333.28	791.2	0.818	319.6	3.9
338.28	806.2	0.818	319.5	3.9
343.27	821.1	0.818	319.4	3.9
348.28	835.6	0.818	319.4	3.8
353.29	850.3	0.818	319.3	3.8
303.33	866.8	0.8376	413.3	5
308.32	887.6	0.8376	413.2	4.9
313.33	907.3	0.8376	413.1	4.9
318.31	927.2	0.8376	413	4.8
323.31	947	0.8376	412.9	4.8
328.3	966.8	0.8376	412.8	4.8
333.28	986.5	0.8376	412.7	4.7
338.28	1006.4	0.8376	412.6	4.7
343.27	1026	0.8376	412.5	4.7
348.28	1045.5	0.8376	412.4	4.7
353.29	1065	0.8376	412.3	4.6
293.34	687.3	0.8524	328.8	4.3
298.35	703.1	0.8524	328.7	4.3
303.33	719.4	0.8524	328.6	4.3
308.32	734.7	0.8524	328.5	4.2
313.33	750.5	0.8524	328.5	4.2
318.31	765.9	0.8524	328.4	4.1
323.31	781.3	0.8524	328.3	4.1
328.3	796.6	0.8524	328.2	4.1
333.28	811.6	0.8524	328.1	4
338.28	826.8	0.8524	328.1	4
343.27	842.3	0.8524	328	4
348.28	857.3	0.8524	327.9	3.9
353.29	872.5	0.8524	327.8	3.9
