Measured thermophysical data. Ionic solvation of tetrabutylammonium hexafluorophosphate in pure nitromethane, 1, 3-dioxolane and nitrobenzene: A comparative physicochemical study
Source: Fluid Phase Equilib., 2012, 10.1016/j.fluid.2011.11.002
Compound 1: tetrabutylammonium hexafluorophosphate, C16H36F6NP, InChI=1S/C16H36N.F6P/c1-5-9-13-17(14-10-6-2,15-11-7-3)16-12-8-4;1-7(2,3,4,5)6/h5-16H2,1-4H3;/q+1;-1, purity 98%
Compound 2: nitromethane, CH3NO2, InChI=1S/CH3NO2/c1-2(3)4/h1H3
Compound 3: 1,3-dioxolane, C3H6O2, InChI=1S/C3H6O2/c1-2-5-3-4-1/h1-3H2
Compound 4: nitrobenzene, C6H5NO2, InChI=1S/C6H5NO2/c8-7(9)6-4-2-1-3-5-6/h1-5H

System: nitromethane; phases: Liquid
Property: Mass density, kg/m3 (Liquid); method: Vibrating tube method
Pressure, kPa	Temperature, K	Mass density, kg/m3	uncertainty
101	298.15	1130.15	6.93

System: nitromethane; phases: Liquid
Property: Viscosity, Pa*s (Liquid); method: Capillary tube (Ostwald; Ubbelohde) method
Pressure, kPa	Temperature, K	Viscosity, Pa*s	uncertainty
101	298.15	0.000614	1.7e-05

System: nitromethane; phases: Liquid
Property: Refractive index (other wavelength) (Liquid); method: Standard Abbe refractometry
Pressure, kPa	Temperature, K	Wavelength, nm	Refractive index (other wavelength)	uncertainty
101	298.15	589.3	1.3926	0.0011

System: nitromethane; phases: Liquid
Property: Speed of sound, m/s (Liquid); method: Fixed Frequency Variable Path Interferometer
Pressure, kPa	Temperature, K	Speed of sound, m/s	uncertainty
101	298.15	1317.1	5.1

System: 1,3-dioxolane; phases: Liquid
Property: Mass density, kg/m3 (Liquid); method: Vibrating tube method
Pressure, kPa	Temperature, K	Mass density, kg/m3	uncertainty
101	298.15	1058.73	6.07

System: 1,3-dioxolane; phases: Liquid
Property: Viscosity, Pa*s (Liquid); method: Capillary tube (Ostwald; Ubbelohde) method
Pressure, kPa	Temperature, K	Viscosity, Pa*s	uncertainty
101	298.15	0.000589	1.6e-05

System: 1,3-dioxolane; phases: Liquid
Property: Refractive index (other wavelength) (Liquid); method: Standard Abbe refractometry
Pressure, kPa	Temperature, K	Wavelength, nm	Refractive index (other wavelength)	uncertainty
101	298.15	589.3	1.3982	0.0011

System: 1,3-dioxolane; phases: Liquid
Property: Speed of sound, m/s (Liquid); method: Fixed Frequency Variable Path Interferometer
Pressure, kPa	Temperature, K	Speed of sound, m/s	uncertainty
101	298.15	1338.9	5.1

System: nitrobenzene; phases: Liquid
Property: Mass density, kg/m3 (Liquid); method: Vibrating tube method
Pressure, kPa	Temperature, K	Mass density, kg/m3	uncertainty
101	298.15	1198.36	7.81

System: nitrobenzene; phases: Liquid
Property: Viscosity, Pa*s (Liquid); method: Capillary tube (Ostwald; Ubbelohde) method
Pressure, kPa	Temperature, K	Viscosity, Pa*s	uncertainty
101	298.15	0.001815	4.7e-05

System: nitrobenzene; phases: Liquid
Property: Refractive index (other wavelength) (Liquid); method: Standard Abbe refractometry
Pressure, kPa	Temperature, K	Wavelength, nm	Refractive index (other wavelength)	uncertainty
101	298.15	589.3	1.5474	0.0011

System: nitrobenzene; phases: Liquid
Property: Speed of sound, m/s (Liquid); method: Fixed Frequency Variable Path Interferometer
Pressure, kPa	Temperature, K	Speed of sound, m/s	uncertainty
101	298.15	1460.8	5.1

System: nitromethane + tetrabutylammonium hexafluorophosphate; phases: Liquid
Fixed: Pressure, kPa = 101
Fixed: Temperature, K = 298.15
Property: Mass density, kg/m3 (Liquid); method: Vibrating tube method
Amount concentration (molarity), mol/dm3 of tetrabutylammonium hexafluorophosphate	Mass density, kg/m3	uncertainty
0	1130.15	6.93
0.0089	1130.44	6.91
0.0223	1130.9	6.9
0.0358	1131.38	6.83
0.0495	1131.88	6.79
0.0634	1132.39	6.76
0.0773	1132.92	6.72

System: nitromethane + tetrabutylammonium hexafluorophosphate; phases: Liquid
Fixed: Pressure, kPa = 101
Fixed: Temperature, K = 298.15
Property: Viscosity, Pa*s (Liquid); method: Capillary tube (Ostwald; Ubbelohde) method
Amount concentration (molarity), mol/dm3 of tetrabutylammonium hexafluorophosphate	Viscosity, Pa*s	uncertainty
0	0.000614	1.7e-05
0.0089	0.000618	1.7e-05
0.0223	0.000645	1.8e-05
0.0358	0.000675	1.8e-05
0.0495	0.000707	1.9e-05
0.0634	0.000743	2e-05
0.0773	0.000777	2.1e-05

System: nitromethane + tetrabutylammonium hexafluorophosphate; phases: Liquid
Fixed: Pressure, kPa = 101
Fixed: Temperature, K = 298.15
Property: Molar conductivity, S*m2/mol (Liquid); method: Alternating current cell with electrodes
Amount concentration (molarity), mol/dm3 of tetrabutylammonium hexafluorophosphate	Molar conductivity, S*m2/mol	uncertainty
0.00097956	0.01194	7.164e-05
0.00179587	0.01142	6.852e-05
0.00248659	0.0111	6.66e-05
0.00307863	0.01086	6.516e-05
0.00359173	0.010636	6.382e-05
0.0040407	0.010468	6.281e-05
0.00443685	0.010345	6.207e-05
0.00478898	0.010232	6.139e-05
0.00510404	0.01016	6.096e-05
0.00564415	0.009939	5.963e-05
0.00609033	0.009819	5.891e-05
0.00678439	0.00964	5.784e-05
0.00729933	0.009494	5.696e-05
0.00769657	0.009394	5.636e-05
0.00814711	0.009304	5.582e-05

System: nitromethane + tetrabutylammonium hexafluorophosphate; phases: Liquid
Fixed: Pressure, kPa = 101
Fixed: Temperature, K = 298.15
Fixed: Wavelength, nm = 589.3
Property: Refractive index (other wavelength) (Liquid); method: Standard Abbe refractometry
Amount concentration (molarity), mol/dm3 of tetrabutylammonium hexafluorophosphate	Refractive index (other wavelength)	uncertainty
0	1.3926	0.0011
0.0089	1.393	0.0011
0.0223	1.3936	0.0011
0.0358	1.3941	0.0011
0.0495	1.3945	0.0011
0.0634	1.3949	0.0011
0.0773	1.3953	0.0011

System: nitromethane + tetrabutylammonium hexafluorophosphate; phases: Liquid
Fixed: Pressure, kPa = 101
Fixed: Temperature, K = 298.15
Property: Speed of sound, m/s (Liquid); method: Fixed Frequency Variable Path Interferometer
Amount concentration (molarity), mol/dm3 of tetrabutylammonium hexafluorophosphate	Speed of sound, m/s	uncertainty
0	1317.1	5.1
0.0084	1463.6	5.1
0.021	1474.9	5.1
0.0338	1491.8	5.1
0.0467	1514.3	5.1
0.0597	1543.4	5.1
0.0729	1577.2	5

System: 1,3-dioxolane + tetrabutylammonium hexafluorophosphate; phases: Liquid
Fixed: Pressure, kPa = 101
Fixed: Temperature, K = 298.15
Property: Mass density, kg/m3 (Liquid); method: Vibrating tube method
Amount concentration (molarity), mol/dm3 of tetrabutylammonium hexafluorophosphate	Mass density, kg/m3	uncertainty
0	1058.73	6.07
0.0095	1059.22	6.05
0.0238	1059.99	6.01
0.0383	1060.78	5.98
0.0529	1061.59	5.95
0.0676	1062.42	5.92
0.0825	1063.27	5.89

System: 1,3-dioxolane + tetrabutylammonium hexafluorophosphate; phases: Liquid
Fixed: Pressure, kPa = 101
Fixed: Temperature, K = 298.15
Property: Viscosity, Pa*s (Liquid); method: Capillary tube (Ostwald; Ubbelohde) method
Amount concentration (molarity), mol/dm3 of tetrabutylammonium hexafluorophosphate	Viscosity, Pa*s	uncertainty
0	0.000589	1.6e-05
0.0095	0.000594	1.6e-05
0.0238	0.000637	1.7e-05
0.0383	0.00069	1.9e-05
0.0529	0.000746	2e-05
0.0676	0.000803	2.1e-05
0.0825	0.000867	2.3e-05

System: 1,3-dioxolane + tetrabutylammonium hexafluorophosphate; phases: Liquid
Fixed: Pressure, kPa = 101
Fixed: Temperature, K = 298.15
Property: Molar conductivity, S*m2/mol (Liquid); method: Alternating current cell with electrodes
Amount concentration (molarity), mol/dm3 of tetrabutylammonium hexafluorophosphate	Molar conductivity, S*m2/mol	uncertainty
7.94e-06	0.01056	6.336e-05
1.455e-05	0.00964	5.784e-05
2.015e-05	0.00909	5.454e-05
2.495e-05	0.00878	5.268e-05
2.91e-05	0.008577	5.146e-05
3.274e-05	0.008423	5.054e-05
3.595e-05	0.008334	5e-05
3.994e-05	0.0083	4.98e-05
4.366e-05	0.00833	4.998e-05
4.763e-05	0.00841	5.046e-05
5.093e-05	0.00849	5.094e-05
5.506e-05	0.00858	5.148e-05
5.975e-05	0.0087	5.22e-05
6.336e-05	0.00881	5.286e-05
6.708e-05	0.00895	5.37e-05

System: 1,3-dioxolane + tetrabutylammonium hexafluorophosphate; phases: Liquid
Fixed: Pressure, kPa = 101
Fixed: Temperature, K = 298.15
Fixed: Wavelength, nm = 589.3
Property: Refractive index (other wavelength) (Liquid); method: Standard Abbe refractometry
Amount concentration (molarity), mol/dm3 of tetrabutylammonium hexafluorophosphate	Refractive index (other wavelength)	uncertainty
0	1.3982	0.0011
0.0095	1.3987	0.0011
0.0238	1.3991	0.0011
0.0383	1.3995	0.0011
0.0529	1.3999	0.0011
0.0676	1.4003	0.0011
0.0825	1.4007	0.0011

System: 1,3-dioxolane + tetrabutylammonium hexafluorophosphate; phases: Liquid
Fixed: Pressure, kPa = 101
Fixed: Temperature, K = 298.15
Property: Speed of sound, m/s (Liquid); method: Fixed Frequency Variable Path Interferometer
Amount concentration (molarity), mol/dm3 of tetrabutylammonium hexafluorophosphate	Speed of sound, m/s	uncertainty
0	1338.9	5.1
0.0095	1340.9	5.1
0.0238	1347.4	5.1
0.0383	1356.7	5.1
0.0529	1368.8	5.1
0.0676	1382.9	5
0.0825	1398.7	5

System: nitrobenzene + tetrabutylammonium hexafluorophosphate; phases: Liquid
Fixed: Pressure, kPa = 101
Fixed: Temperature, K = 298.15
Property: Mass density, kg/m3 (Liquid); method: Vibrating tube method
Amount concentration (molarity), mol/dm3 of tetrabutylammonium hexafluorophosphate	Mass density, kg/m3	uncertainty
0	1198.36	7.81
0.0084	1198.38	7.78
0.021	1198.45	7.74
0.0338	1198.55	7.69
0.0467	1198.68	7.64
0.0597	1198.83	7.6
0.0729	1198.99	7.56

System: nitrobenzene + tetrabutylammonium hexafluorophosphate; phases: Liquid
Fixed: Pressure, kPa = 101
Fixed: Temperature, K = 298.15
Property: Viscosity, Pa*s (Liquid); method: Capillary tube (Ostwald; Ubbelohde) method
Amount concentration (molarity), mol/dm3 of tetrabutylammonium hexafluorophosphate	Viscosity, Pa*s	uncertainty
0	0.001815	4.7e-05
0.0084	0.001828	4.7e-05
0.021	0.002005	5.2e-05
0.0338	0.002216	5.7e-05
0.0467	0.002444	6.2e-05
0.0597	0.002681	6.8e-05
0.0729	0.002939	7.4e-05

System: nitrobenzene + tetrabutylammonium hexafluorophosphate; phases: Liquid
Fixed: Pressure, kPa = 101
Fixed: Temperature, K = 298.15
Property: Molar conductivity, S*m2/mol (Liquid); method: Alternating current cell with electrodes
Amount concentration (molarity), mol/dm3 of tetrabutylammonium hexafluorophosphate	Molar conductivity, S*m2/mol	uncertainty
0.00091896	0.0038	2.28e-05
0.00168476	0.00364	2.184e-05
0.00233275	0.00352	2.112e-05
0.00288816	0.00343	2.058e-05
0.00336952	0.00338	2.028e-05
0.00379071	0.00332	1.992e-05
0.00416235	0.00328	1.968e-05
0.0044927	0.00324	1.944e-05
0.00478827	0.003216	1.93e-05
0.00505428	0.003185	1.911e-05
0.00589667	0.003086	1.852e-05
0.00662286	0.00302	1.812e-05
0.00730063	0.002959	1.775e-05
0.00786222	0.002913	1.748e-05
0.00787065	0.002878	1.727e-05

System: nitrobenzene + tetrabutylammonium hexafluorophosphate; phases: Liquid
Fixed: Pressure, kPa = 101
Fixed: Temperature, K = 298.15
Fixed: Wavelength, nm = 589.3
Property: Refractive index (other wavelength) (Liquid); method: Standard Abbe refractometry
Amount concentration (molarity), mol/dm3 of tetrabutylammonium hexafluorophosphate	Refractive index (other wavelength)	uncertainty
0	1.5474	0.0011
0.0084	1.5477	0.0011
0.021	1.5483	0.0011
0.0338	1.5487	0.0011
0.0467	1.5491	0.0011
0.0597	1.5495	0.0011
0.0729	1.5498	0.0011

System: nitrobenzene + tetrabutylammonium hexafluorophosphate; phases: Liquid
Fixed: Pressure, kPa = 101
Fixed: Temperature, K = 298.15
Property: Speed of sound, m/s (Liquid); method: Fixed Frequency Variable Path Interferometer
Amount concentration (molarity), mol/dm3 of tetrabutylammonium hexafluorophosphate	Speed of sound, m/s	uncertainty
0	1460.8	5.1
0.0084	1463.6	5.1
0.021	1474.9	5.1
0.0338	1491.8	5.1
0.0467	1514.3	5.1
0.0597	1543.4	5.1
0.0729	1577.2	5
