Measured thermophysical data. Vapour liquid equilibrium for the systems diethyl sulphide + 1-butene, +cis-2-butene, +2-methylpropane, +2-methylpropene, +n-butane, +trans-2-butene
Source: Fluid Phase Equilib., 2010, 10.1016/j.fluid.2010.01.006
Compound 1: 3-thiapentane, C4H10S, InChI=1S/C4H10S/c1-3-5-4-2/h3-4H2,1-2H3, purity 98%
Compound 2: 1-butene, C4H8, InChI=1S/C4H8/c1-3-4-2/h3H,1,4H2,2H3, purity 99.4%
Compound 3: (Z)-2-butene, C4H8, InChI=1S/C4H8/c1-3-4-2/h3-4H,1-2H3/b4-3-, purity 99.4%
Compound 4: 2-methylpropane, C4H10, InChI=1S/C4H10/c1-4(2)3/h4H,1-3H3, purity 99.95%
Compound 5: 2-methylpropene, C4H8, InChI=1S/C4H8/c1-4(2)3/h1H2,2-3H3, purity 99.91%
Compound 6: butane, C4H10, InChI=1S/C4H10/c1-3-4-2/h3-4H2,1-2H3, purity 99.95%
Compound 7: (E)-2-butene, C4H8, InChI=1S/C4H8/c1-3-4-2/h3-4H,1-2H3/b4-3+, purity 99.4%

System: 3-thiapentane; phases: Liquid, Gas
Property: Vapor or sublimation pressure, kPa (Liquid); method: Closed cell (Static) method
Temperature, K	Vapor or sublimation pressure, kPa	uncertainty
307.94	13.3	1.2
312.58	15	1.2
312.58	15.2	1.2
312.59	15.1	1.2
317.46	18.5	1.2
317.62	18.8	1.2

System: 1-butene; phases: Liquid, Gas
Property: Vapor or sublimation pressure, kPa (Liquid); method: Closed cell (Static) method
Temperature, K	Vapor or sublimation pressure, kPa	uncertainty
312.58	451.3	1.9

System: (Z)-2-butene; phases: Liquid, Gas
Property: Vapor or sublimation pressure, kPa (Liquid); method: Closed cell (Static) method
Temperature, K	Vapor or sublimation pressure, kPa	uncertainty
312.58	333	1.6

System: 2-methylpropane; phases: Liquid, Gas
Property: Vapor or sublimation pressure, kPa (Liquid); method: Closed cell (Static) method
Temperature, K	Vapor or sublimation pressure, kPa	uncertainty
307.94	459.9	1.9

System: 2-methylpropene; phases: Liquid, Gas
Property: Vapor or sublimation pressure, kPa (Liquid); method: Closed cell (Static) method
Temperature, K	Vapor or sublimation pressure, kPa	uncertainty
312.59	466.1	2

System: butane; phases: Liquid, Gas
Property: Vapor or sublimation pressure, kPa (Liquid); method: Closed cell (Static) method
Temperature, K	Vapor or sublimation pressure, kPa	uncertainty
317.6	426.8	1.9

System: (E)-2-butene; phases: Liquid, Gas
Property: Vapor or sublimation pressure, kPa (Liquid); method: Closed cell (Static) method
Temperature, K	Vapor or sublimation pressure, kPa	uncertainty
317.46	417.3	1.9

System: 1-butene + 3-thiapentane; phases: Gas, Liquid
Fixed: Temperature, K = 312.6
Property: Vapor or sublimation pressure, kPa (Gas); method: Closed cell (Static) method
Mole fraction of 1-butene	Vapor or sublimation pressure, kPa	uncertainty
0	15.1	1.2
0.0149	22.9	1.5
0.0324	31.8	1.6
0.0526	41.9	1.9
0.1017	66.3	2.6
0.1507	89.9	3.1
0.1999	112.9	3.7
0.2497	135.8	4.1
0.2995	158.1	4.3
0.3494	180	4.6
0.3999	201.8	4.7
0.4499	223	4.8
0.4998	244	4.7
0.5	244.1	4.7
0.5493	263.6	4.5
0.5983	282.9	4.5
0.6478	302.5	4.4
0.6978	322.4	4.2
0.7482	342.6	4
0.7986	363	3.7
0.8486	383.7	3.4
0.8993	405.3	3.1
0.9498	427.7	2.7
0.9705	437.2	2.6
0.9915	446.7	2.6
1	451.3	2.5

System: 1-butene + 3-thiapentane; phases: Gas, Liquid
Fixed: Temperature, K = 312.6
Property: Mole fraction of 1-butene (Gas); method: Phase equilibration
Mole fraction of 1-butene	Mole fraction of 1-butene	uncertainty
0	0	0.0001
0.0149	0.3467	0.0353
0.0324	0.5367	0.0272
0.0526	0.6546	0.0216
0.1017	0.7896	0.0172
0.1507	0.8512	0.0131
0.1999	0.8868	0.0104
0.2497	0.9103	0.0085
0.2995	0.9269	0.0072
0.3494	0.9393	0.006
0.3999	0.949	0.0051
0.4499	0.9567	0.0047
0.4998	0.9631	0.004
0.5	0.9631	0.004
0.5493	0.9684	0.0038
0.5983	0.9731	0.0033
0.6478	0.9772	0.0029
0.6978	0.981	0.0025
0.7482	0.9845	0.0021
0.7986	0.9878	0.0017
0.8486	0.9909	0.0015
0.8993	0.994	0.001
0.9498	0.997	0.0006
0.9705	0.9982	0.0004
0.9915	0.9995	0.0002
1	1	0.0001

System: 3-thiapentane + (Z)-2-butene; phases: Gas, Liquid
Fixed: Temperature, K = 312.6
Property: Vapor or sublimation pressure, kPa (Gas); method: Closed cell (Static) method
Mole fraction of (Z)-2-butene	Vapor or sublimation pressure, kPa	uncertainty
0	15	1.2
0.013	19.8	1.3
0.0322	26.7	1.4
0.0525	33.9	1.6
0.1018	51.3	2
0.1507	68.2	2.5
0.2002	85	2.8
0.25	101.5	3.1
0.2994	117.6	3.3
0.3499	133.9	3.5
0.3999	149.6	3.6
0.4496	165.2	3.6
0.4997	180.5	3.5
0.4999	180.8	3.5
0.5489	195	3.5
0.5987	209.8	3.5
0.6485	224.5	3.4
0.6977	238.9	3.2
0.7477	253.6	3
0.7985	268.9	2.9
0.8493	284.4	2.6
0.8994	299.9	2.4
0.9496	316	2.2
0.9703	322.8	2.1
0.9903	329.3	2.1
1	333	2

System: 3-thiapentane + (Z)-2-butene; phases: Gas, Liquid
Fixed: Temperature, K = 312.6
Property: Mole fraction of (Z)-2-butene (Gas); method: Phase equilibration
Mole fraction of (Z)-2-butene	Mole fraction of (Z)-2-butene	uncertainty
0	0	0.0001
0.013	0.2489	0.0308
0.0322	0.4529	0.0275
0.0525	0.5773	0.0236
0.1018	0.7321	0.0203
0.1507	0.8074	0.0164
0.2002	0.8528	0.0132
0.25	0.8832	0.0108
0.2994	0.9047	0.009
0.3499	0.9212	0.0078
0.3999	0.9339	0.0067
0.4496	0.9441	0.006
0.4997	0.9526	0.0053
0.4999	0.9527	0.0053
0.5489	0.9597	0.0046
0.5987	0.9659	0.0042
0.6485	0.9714	0.0036
0.6977	0.9762	0.0031
0.7477	0.9807	0.0025
0.7985	0.985	0.0021
0.8493	0.989	0.0017
0.8994	0.9928	0.0012
0.9496	0.9964	0.0008
0.9703	0.9979	0.0006
0.9903	0.9993	0.0002
1	1	0.0001

System: 2-methylpropane + 3-thiapentane; phases: Gas, Liquid
Fixed: Temperature, K = 308
Property: Vapor or sublimation pressure, kPa (Gas); method: Closed cell (Static) method
Mole fraction of 2-methylpropane	Vapor or sublimation pressure, kPa	uncertainty
0	13.3	1.2
0.0329	36.3	1.9
0.0516	48.9	2.3
0.1001	79.6	3.1
0.1484	108	3.7
0.1974	134.9	4.1
0.2465	160.1	4.4
0.2971	184.3	4.5
0.3464	206.5	4.6
0.3969	228.1	4.6
0.4472	248.5	4.5
0.4974	268.1	4.4
0.5	269.3	4.4
0.5491	287.1	4.2
0.5988	305	4.2
0.6479	322.5	4
0.6985	340.4	3.9
0.7482	358.2	3.7
0.7983	376.3	3.5
0.849	395.5	3.3
0.9399	432.7	2.7
0.9602	441.6	2.6
0.9704	446.2	2.6
0.9912	455.5	2.5
1	459.9	2.4

System: 2-methylpropane + 3-thiapentane; phases: Gas, Liquid
Fixed: Temperature, K = 308
Property: Mole fraction of 2-methylpropane (Gas); method: Phase equilibration
Mole fraction of 2-methylpropane	Mole fraction of 2-methylpropane	uncertainty
0	0	0.0001
0.0329	0.6415	0.0396
0.0516	0.7367	0.02
0.1001	0.8437	0.0145
0.1484	0.8888	0.0107
0.1974	0.9141	0.0086
0.2465	0.9304	0.0072
0.2971	0.9421	0.0061
0.3464	0.9505	0.0052
0.3969	0.9573	0.0048
0.4472	0.9628	0.0041
0.4974	0.9674	0.0037
0.5	0.9676	0.0037
0.5491	0.9715	0.0035
0.5988	0.975	0.0031
0.6479	0.9782	0.0029
0.6985	0.9813	0.0025
0.7482	0.9842	0.0023
0.7983	0.9871	0.0019
0.849	0.99	0.0016
0.9399	0.9957	0.0008
0.9602	0.9971	0.0006
0.9704	0.9978	0.0006
0.9912	0.9993	0.0002
1	1	0.0001

System: 2-methylpropene + 3-thiapentane; phases: Gas, Liquid
Fixed: Temperature, K = 312.6
Property: Vapor or sublimation pressure, kPa (Gas); method: Closed cell (Static) method
Mole fraction of 2-methylpropene	Vapor or sublimation pressure, kPa	uncertainty
0	15.2	1.2
0.0193	25.7	1.5
0.0382	35.6	1.7
0.0577	45.7	2
0.1057	70	2.7
0.1543	94.2	3.3
0.2032	118.1	3.8
0.2508	140.9	4.2
0.2998	163.9	4.5
0.3491	186.9	4.9
0.3994	210.2	5.1
0.4497	233.8	5.3
0.4994	257.4	4.8
0.4998	258.2	4.8
0.5488	275.7	4.3
0.5984	294.8	4.4
0.6478	314.2	4.4
0.6976	334.1	4.3
0.7469	354	4.1
0.7965	374.6	3.8
0.8476	396.2	3.5
0.9014	419.8	3.1
0.951	442.3	2.7
0.9714	451.9	2.6
0.9918	461.4	2.5
1	466.1	2.5

System: 2-methylpropene + 3-thiapentane; phases: Gas, Liquid
Fixed: Temperature, K = 312.6
Property: Mole fraction of 2-methylpropene (Gas); method: Phase equilibration
Mole fraction of 2-methylpropene	Mole fraction of 2-methylpropene	uncertainty
0	0	0.0001
0.0193	0.4159	0.0361
0.0382	0.5854	0.0257
0.0577	0.6819	0.0201
0.1057	0.8	0.0163
0.1543	0.8571	0.0126
0.2032	0.891	0.01
0.2508	0.9129	0.0081
0.2998	0.9291	0.0067
0.3491	0.9413	0.0058
0.3994	0.9509	0.0051
0.4497	0.9585	0.0044
0.4994	0.9646	0.004
0.4998	0.9646	0.004
0.5488	0.9696	0.0035
0.5984	0.974	0.0031
0.6478	0.9777	0.0027
0.6976	0.9812	0.0025
0.7469	0.9844	0.0021
0.7965	0.9875	0.0017
0.8476	0.9906	0.0015
0.9014	0.994	0.001
0.951	0.997	0.0006
0.9714	0.9983	0.0004
0.9918	0.9995	0.0002
1	1	0.0001

System: butane + 3-thiapentane; phases: Gas, Liquid
Fixed: Temperature, K = 317.6
Property: Vapor or sublimation pressure, kPa (Gas); method: Closed cell (Static) method
Mole fraction of butane	Vapor or sublimation pressure, kPa	uncertainty
0	18.8	1.2
0.0148	27.6	1.5
0.0342	38.7	1.8
0.0542	50.1	2.1
0.1009	75.5	2.7
0.1501	100.7	3.3
0.1993	124.5	3.7
0.2492	147.1	4
0.2988	168.7	4.2
0.349	189.4	4.3
0.3997	209.3	4.3
0.4496	228.2	4.3
0.5	246.7	4.1
0.5005	246.7	4.1
0.5499	264.1	4.1
0.5992	281	4
0.6493	298	3.9
0.6988	314.9	3.7
0.7484	331.8	3.5
0.7993	349.4	3.3
0.8496	367.5	3.1
0.8999	386.1	2.8
0.9503	405.8	2.5
0.9708	414.4	2.4
0.991	422.7	2.3
1	426.8	2.3

System: butane + 3-thiapentane; phases: Gas, Liquid
Fixed: Temperature, K = 317.6
Property: Mole fraction of butane (Gas); method: Phase equilibration
Mole fraction of butane	Mole fraction of butane	uncertainty
0	0	0.0001
0.0148	0.3243	0.0311
0.0342	0.5272	0.0253
0.0542	0.6394	0.0186
0.1009	0.7689	0.0157
0.1501	0.8335	0.0123
0.1993	0.8708	0.01
0.2492	0.8955	0.0082
0.2988	0.9129	0.007
0.349	0.9262	0.0061
0.3997	0.9367	0.0054
0.4496	0.9451	0.0049
0.5	0.9523	0.0044
0.5005	0.9524	0.0044
0.5499	0.9585	0.004
0.5992	0.9639	0.0038
0.6493	0.9689	0.0033
0.6988	0.9735	0.0029
0.7484	0.9779	0.0025
0.7993	0.9822	0.0021
0.8496	0.9865	0.0017
0.8999	0.9909	0.0015
0.9503	0.9953	0.001
0.9708	0.9972	0.0006
0.991	0.9991	0.0002
1	1	0.0001

System: 3-thiapentane + (E)-2-butene; phases: Gas, Liquid
Fixed: Temperature, K = 317.5
Property: Vapor or sublimation pressure, kPa (Gas); method: Closed cell (Static) method
Mole fraction of (E)-2-butene	Vapor or sublimation pressure, kPa	uncertainty
0	18.5	1.2
0.0341	34.8	1.7
0.0537	43.9	1.8
0.1026	66.1	2.4
0.1519	87.9	3
0.2017	109.3	3.4
0.25	129.8	3.8
0.3001	150.4	4
0.3503	170.6	4.3
0.4004	190.6	4.4
0.4508	210.5	4.5
0.501	230.4	4.3
0.5015	230.7	4.3
0.5509	248	4.1
0.6003	265.6	4.1
0.6496	283.1	4
0.6992	301	3.9
0.749	319	3.6
0.7993	337.5	3.4
0.8498	356.4	3.1
0.9	375.9	2.9
0.9499	396	2.5
0.9708	404.7	2.5
0.9904	412.8	2.4
1	417.3	2.4

System: 3-thiapentane + (E)-2-butene; phases: Gas, Liquid
Fixed: Temperature, K = 317.5
Property: Mole fraction of (E)-2-butene (Gas); method: Phase equilibration
Mole fraction of (E)-2-butene	Mole fraction of (E)-2-butene	uncertainty
0	0	
0.0341	0.4821	0.0331
0.0537	0.5962	0.0201
0.1026	0.7425	0.0172
0.1519	0.8144	0.0136
0.2017	0.8576	0.0109
0.25	0.8856	0.0091
0.3001	0.9065	0.0076
0.3503	0.9223	0.0067
0.4004	0.9346	0.0059
0.4508	0.9446	0.0052
0.501	0.9528	0.0045
0.5015	0.9529	0.0045
0.5509	0.9597	0.0041
0.6003	0.9656	0.0036
0.6496	0.9708	0.0032
0.6992	0.9755	0.0027
0.749	0.9799	0.0023
0.7993	0.9841	0.0021
0.8498	0.9882	0.0017
0.9	0.9922	0.0013
0.9499	0.9962	0.0008
0.9708	0.9978	0.0006
0.9904	0.9993	0.0002
1	1	
