Measured thermophysical data. Non-ideal behavior of ionic liquid mixtures to enhance CO2 capture
Source: Fluid Phase Equilib., 2017, 10.1016/j.fluid.2017.07.014
Compound 1: carbon dioxide, CO2, InChI=1S/CO2/c2-1-3, purity 99.999%
Compound 2: 1-ethyl-3-methylimidazolium bis((trifluoromethyl)sulfonyl)imide, C8H11F6N3O4S2, InChI=1S/C6H11N2.C2F6NO4S2/c1-3-8-5-4-7(2)6-8;3-1(4,5)14(10,11)9-15(12,13)2(6,7)8/h4-6H,3H2,1-2H3;/q+1;-1, purity 99%
Compound 3: 1-butyl-4-methylpyridinium bis((trifluoromethyl)sulfonyl)amide, C12H16F6N2O4S2, InChI=1S/C10H16N.C2F6NO4S2/c1-3-4-7-11-8-5-10(2)6-9-11;3-1(4,5)14(10,11)9-15(12,13)2(6,7)8/h5-6,8-9H,3-4,7H2,1-2H3;/q+1;-1, purity 99%
Compound 4: 1-ethyl-3-methylimidazolium dicyanamide, C8H11N5, InChI=1S/C6H11N2.C2N3/c1-3-8-5-4-7(2)6-8;3-1-5-2-4/h4-6H,3H2,1-2H3;/q+1;-1, purity 99%
Compound 5: 1-ethyl-3-methylimidazolium ethyl sulfate, C8H16N2O4S, InChI=1S/C6H11N2.C2H6O4S/c1-3-8-5-4-7(2)6-8;1-2-6-7(3,4)5/h4-6H,3H2,1-2H3;2H2,1H3,(H,3,4,5)/q+1;/p-1, purity 99%
Compound 6: 1-hexyl-3-methylimidazolium chloride, C10H19ClN2, InChI=1S/C10H19N2.ClH/c1-3-4-5-6-7-12-9-8-11(2)10-12;/h8-10H,3-7H2,1-2H3;1H/q+1;/p-1, purity 99%
Compound 7: 1,3-dimethylimidazolium methylsulfate, C6H12N2O4S, InChI=1S/C5H9N2.CH4O4S/c1-6-3-4-7(2)5-6;1-5-6(2,3)4/h3-5H,1-2H3;1H3,(H,2,3,4)/q+1;/p-1, purity 99%
Compound 8: 1-butyl-3-methylimidazolium trifluoroacetate, C10H15F3N2O2, InChI=1S/C8H15N2.C2HF3O2/c1-3-4-5-10-7-6-9(2)8-10;3-2(4,5)1(6)7/h6-8H,3-5H2,1-2H3;(H,6,7)/q+1;/p-1, purity 99%
Compound 9: 1-butyl-3-methylimidazolium hexafluorophosphate, C8H15F6N2P, InChI=1S/C8H15N2.F6P/c1-3-4-5-10-7-6-9(2)8-10;1-7(2,3,4,5)6/h6-8H,3-5H2,1-2H3;/q+1;-1, purity 99%
Compound 10: 1-octyl-3-methylimidazolium hexafluorophosphate, C12H23F6N2P, InChI=1S/C12H23N2.F6P/c1-3-4-5-6-7-8-9-14-11-10-13(2)12-14;1-7(2,3,4,5)6/h10-12H,3-9H2,1-2H3;/q+1;-1, purity 99%
Compound 11: 1,3-dihydroxyimidazolium bis(trifluoromethylsulfonyl)imide, C5H5F6N3O6S2, InChI=1S/C3H5N2O2.C2F6NO4S2/c6-4-1-2-5(7)3-4;3-1(4,5)14(10,11)9-15(12,13)2(6,7)8/h1-3,6-7H;/q+1;-1, purity 99%
Compound 12: 1-butyl-3-methyl-1H-imidazolium ethyl sulfate, C10H20N2O4S, InChI=1S/C8H15N2.C2H6O4S/c1-3-4-5-10-7-6-9(2)8-10;1-2-6-7(3,4)5/h6-8H,3-5H2,1-2H3;2H2,1H3,(H,3,4,5)/q+1;/p-1, purity 99%
Compound 13: 1-ethylpyridinium ethyl sulfate, C9H15NO4S, InChI=1S/C7H10N.C2H6O4S/c1-2-8-6-4-3-5-7-8;1-2-6-7(3,4)5/h3-7H,2H2,1H3;2H2,1H3,(H,3,4,5)/q+1;/p-1, purity 99%

System: 1-ethyl-3-methylimidazolium bis((trifluoromethyl)sulfonyl)imide + carbon dioxide; phases: Liquid, Gas
Property: Henry's Law constant (mole fraction scale), kPa of carbon dioxide (Liquid); method: gravimetric high pressure analysis
Temperature, K	Mole fraction of carbon dioxide	Henry's Law constant (mole fraction scale), kPa of carbon dioxide	uncertainty
298.15	0	4300	70

System: 1-ethyl-3-methylimidazolium bis((trifluoromethyl)sulfonyl)imide + carbon dioxide; phases: Liquid, Gas
Fixed: Temperature, K = 298.2
Property: Mole fraction of carbon dioxide (Liquid); method: gravimetric high pressure analyzer
Pressure, kPa	Mole fraction of carbon dioxide	uncertainty
50	0.016	0.012
100	0.031	0.011
200	0.052	0.011
300	0.078	0.011
500	0.129	0.011
700	0.165	0.011
1000	0.23	0.011
1500	0.311	0.011
2000	0.378	0.011

System: 1-ethyl-3-methylimidazolium bis((trifluoromethyl)sulfonyl)imide + 1-butyl-4-methylpyridinium bis((trifluoromethyl)sulfonyl)amide + carbon dioxide; phases: Liquid, Gas
Property: Henry's Law constant (mole fraction scale), kPa of carbon dioxide (Liquid); method: gravimetric high pressure analysis
Solvent: Mole fraction of 1-ethyl-3-methylimidazolium bis((trifluoromethyl)sulfonyl)imide	Mole fraction of carbon dioxide	Temperature, K	Henry's Law constant (mole fraction scale), kPa of carbon dioxide	uncertainty
0.5	0	298.15	4050	70

System: 1-ethyl-3-methylimidazolium bis((trifluoromethyl)sulfonyl)imide + 1-butyl-4-methylpyridinium bis((trifluoromethyl)sulfonyl)amide + carbon dioxide; phases: Liquid, Gas
Fixed: Temperature, K = 298.15
Fixed: Solvent: Mole fraction of 1-ethyl-3-methylimidazolium bis((trifluoromethyl)sulfonyl)imide = 0.5
Property: Mole fraction of carbon dioxide (Liquid); method: gravimetric high pressure analyzer
Pressure, kPa	Mole fraction of carbon dioxide	uncertainty
50	0.015	0.012
100	0.03	0.011
200	0.052	0.011
300	0.079	0.011
500	0.127	0.011
700	0.17	0.011
1000	0.226	0.011
1500	0.315	0.011
2000	0.383	0.011

System: 1-ethyl-3-methylimidazolium bis((trifluoromethyl)sulfonyl)imide + 1-ethyl-3-methylimidazolium dicyanamide + carbon dioxide; phases: Liquid, Gas
Property: Henry's Law constant (mole fraction scale), kPa of carbon dioxide (Liquid); method: gravimetric high pressure analysis
Solvent: Mole fraction of 1-ethyl-3-methylimidazolium bis((trifluoromethyl)sulfonyl)imide	Mole fraction of carbon dioxide	Temperature, K	Henry's Law constant (mole fraction scale), kPa of carbon dioxide	uncertainty
0.5	0	298.15	4690	80

System: 1-ethyl-3-methylimidazolium bis((trifluoromethyl)sulfonyl)imide + 1-ethyl-3-methylimidazolium dicyanamide + carbon dioxide; phases: Liquid, Gas
Fixed: Temperature, K = 298.15
Fixed: Solvent: Mole fraction of 1-ethyl-3-methylimidazolium bis((trifluoromethyl)sulfonyl)imide = 0.5
Property: Mole fraction of carbon dioxide (Liquid); method: gravimetric high pressure analyzer
Pressure, kPa	Mole fraction of carbon dioxide	uncertainty
50	0.006	0.006
100	0.029	0.012
200	0.055	0.011
300	0.073	0.011
500	0.106	0.011
700	0.139	0.01
1000	0.169	0.01
1500	0.234	0.01
2000	0.291	0.01

System: 1-ethyl-3-methylimidazolium bis((trifluoromethyl)sulfonyl)imide + 1-ethyl-3-methylimidazolium ethyl sulfate + carbon dioxide; phases: Liquid, Gas
Fixed: Mole fraction of carbon dioxide = 0
Fixed: Temperature, K = 298.15
Property: Henry's Law constant (mole fraction scale), kPa of carbon dioxide (Liquid); method: gravimetric high pressure analysis
Solvent: Mole fraction of 1-ethyl-3-methylimidazolium bis((trifluoromethyl)sulfonyl)imide	Henry's Law constant (mole fraction scale), kPa of carbon dioxide	uncertainty
0.5	5090	80
0	11760	180
0.25	7460	120
0.49	4980	80
0.75	4290	70
1	3660	70

System: 1-ethyl-3-methylimidazolium bis((trifluoromethyl)sulfonyl)imide + 1-ethyl-3-methylimidazolium ethyl sulfate + carbon dioxide; phases: Liquid, Gas
Fixed: Temperature, K = 298.15
Fixed: Solvent: Mole fraction of 1-ethyl-3-methylimidazolium bis((trifluoromethyl)sulfonyl)imide = 0.5
Property: Mole fraction of carbon dioxide (Liquid); method: gravimetric high pressure analyzer
Pressure, kPa	Mole fraction of carbon dioxide	uncertainty
50	0.011	0.011
100	0.023	0.011
200	0.042	0.011
300	0.063	0.011
500	0.1	0.011
700	0.136	0.011
1000	0.185	0.011
1500	0.256	0.01
2000	0.312	0.01

System: 1-ethyl-3-methylimidazolium bis((trifluoromethyl)sulfonyl)imide + 1-hexyl-3-methylimidazolium chloride + carbon dioxide; phases: Liquid, Gas
Property: Henry's Law constant (mole fraction scale), kPa of carbon dioxide (Liquid); method: gravimetric high pressure analysis
Solvent: Mole fraction of 1-ethyl-3-methylimidazolium bis((trifluoromethyl)sulfonyl)imide	Mole fraction of carbon dioxide	Temperature, K	Henry's Law constant (mole fraction scale), kPa of carbon dioxide	uncertainty
0.5	0	298.15	5910	90

System: 1-ethyl-3-methylimidazolium bis((trifluoromethyl)sulfonyl)imide + 1-hexyl-3-methylimidazolium chloride + carbon dioxide; phases: Liquid, Gas
Fixed: Temperature, K = 298.15
Fixed: Solvent: Mole fraction of 1-ethyl-3-methylimidazolium bis((trifluoromethyl)sulfonyl)imide = 0.5
Property: Mole fraction of carbon dioxide (Liquid); method: gravimetric high pressure analyzer
Pressure, kPa	Mole fraction of carbon dioxide	uncertainty
50	0.008	0.008
100	0.02	0.011
200	0.035	0.01
300	0.051	0.011
500	0.086	0.011
700	0.118	0.011
1000	0.164	0.01
1500	0.231	0.01
2000	0.289	0.01

System: 1-ethyl-3-methylimidazolium bis((trifluoromethyl)sulfonyl)imide + 1,3-dimethylimidazolium methylsulfate + carbon dioxide; phases: Liquid, Gas
Property: Henry's Law constant (mole fraction scale), kPa of carbon dioxide (Liquid); method: gravimetric high pressure analysis
Solvent: Mole fraction of 1-ethyl-3-methylimidazolium bis((trifluoromethyl)sulfonyl)imide	Mole fraction of carbon dioxide	Temperature, K	Henry's Law constant (mole fraction scale), kPa of carbon dioxide	uncertainty
0.5	0	298.15	5600	90

System: 1-ethyl-3-methylimidazolium bis((trifluoromethyl)sulfonyl)imide + 1,3-dimethylimidazolium methylsulfate + carbon dioxide; phases: Liquid, Gas
Fixed: Temperature, K = 298.15
Fixed: Solvent: Mole fraction of 1-ethyl-3-methylimidazolium bis((trifluoromethyl)sulfonyl)imide = 0.5
Property: Mole fraction of carbon dioxide (Liquid); method: gravimetric high pressure analyzer
Pressure, kPa	Mole fraction of carbon dioxide	uncertainty
50	0.007	0.007
100	0.019	0.011
200	0.036	0.011
300	0.054	0.011
500	0.088	0.011
700	0.119	0.01
1000	0.162	0.01
1500	0.227	0.01
2000	0.281	0.01

System: 1-ethyl-3-methylimidazolium ethyl sulfate + carbon dioxide; phases: Liquid, Gas
Property: Henry's Law constant (mole fraction scale), kPa of carbon dioxide (Liquid); method: gravimetric high pressure analysis
Temperature, K	Mole fraction of carbon dioxide	Henry's Law constant (mole fraction scale), kPa of carbon dioxide	uncertainty
298.15	0	10030	160

System: 1-ethyl-3-methylimidazolium ethyl sulfate + carbon dioxide; phases: Liquid, Gas
Fixed: Temperature, K = 298.2
Property: Mole fraction of carbon dioxide (Liquid); method: gravimetric high pressure analyzer
Pressure, kPa	Mole fraction of carbon dioxide	uncertainty
50	0.006	0.006
100	0.013	0.01
200	0.023	0.01
300	0.034	0.01
500	0.054	0.01
700	0.071	0.01
1000	0.099	0.01
1500	0.149	0.01
2000	0.192	0.01

System: 1-ethyl-3-methylimidazolium ethyl sulfate + 1-butyl-3-methylimidazolium trifluoroacetate + carbon dioxide; phases: Liquid, Gas
Property: Henry's Law constant (mole fraction scale), kPa of carbon dioxide (Liquid); method: gravimetric high pressure analysis
Solvent: Mole fraction of 1-ethyl-3-methylimidazolium ethyl sulfate	Mole fraction of carbon dioxide	Temperature, K	Henry's Law constant (mole fraction scale), kPa of carbon dioxide	uncertainty
0.5	0	298.15	7230	110

System: 1-ethyl-3-methylimidazolium ethyl sulfate + 1-butyl-3-methylimidazolium trifluoroacetate + carbon dioxide; phases: Liquid, Gas
Fixed: Temperature, K = 298.15
Fixed: Solvent: Mole fraction of 1-ethyl-3-methylimidazolium ethyl sulfate = 0.5
Property: Mole fraction of carbon dioxide (Liquid); method: gravimetric high pressure analyzer
Pressure, kPa	Mole fraction of carbon dioxide	uncertainty
50	0.007	0.007
100	0.016	0.01
200	0.029	0.01
300	0.043	0.01
500	0.07	0.01
700	0.097	0.01
1000	0.133	0.01
1500	0.189	0.01
2000	0.238	0.01

System: 1-ethyl-3-methylimidazolium ethyl sulfate + 1-butyl-3-methylimidazolium hexafluorophosphate + carbon dioxide; phases: Liquid, Gas
Property: Henry's Law constant (mole fraction scale), kPa of carbon dioxide (Liquid); method: gravimetric high pressure analysis
Solvent: Mole fraction of 1-ethyl-3-methylimidazolium ethyl sulfate	Mole fraction of carbon dioxide	Temperature, K	Henry's Law constant (mole fraction scale), kPa of carbon dioxide	uncertainty
0.5	0	298.15	7470	120

System: 1-ethyl-3-methylimidazolium ethyl sulfate + 1-butyl-3-methylimidazolium hexafluorophosphate + carbon dioxide; phases: Liquid, Gas
Fixed: Temperature, K = 298.15
Fixed: Solvent: Mole fraction of 1-ethyl-3-methylimidazolium ethyl sulfate = 0.5
Property: Mole fraction of carbon dioxide (Liquid); method: gravimetric high pressure analyzer
Pressure, kPa	Mole fraction of carbon dioxide	uncertainty
50	0.006	0.006
100	0.015	0.01
200	0.027	0.01
300	0.041	0.01
500	0.067	0.01
700	0.092	0.01
1000	0.127	0.01
1500	0.182	0.01
2000	0.229	0.01

System: 1-ethyl-3-methylimidazolium ethyl sulfate + 1-octyl-3-methylimidazolium hexafluorophosphate + carbon dioxide; phases: Liquid, Gas
Property: Henry's Law constant (mole fraction scale), kPa of carbon dioxide (Liquid); method: gravimetric high pressure analysis
Solvent: Mole fraction of 1-ethyl-3-methylimidazolium ethyl sulfate	Mole fraction of carbon dioxide	Temperature, K	Henry's Law constant (mole fraction scale), kPa of carbon dioxide	uncertainty
0.5	0	298.15	6430	100

System: 1-ethyl-3-methylimidazolium ethyl sulfate + 1-octyl-3-methylimidazolium hexafluorophosphate + carbon dioxide; phases: Liquid, Gas
Fixed: Temperature, K = 298.15
Fixed: Solvent: Mole fraction of 1-ethyl-3-methylimidazolium ethyl sulfate = 0.5
Property: Mole fraction of carbon dioxide (Liquid); method: gravimetric high pressure analyzer
Pressure, kPa	Mole fraction of carbon dioxide	uncertainty
50	0.007	0.007
100	0.017	0.01
200	0.031	0.01
300	0.048	0.01
500	0.078	0.01
700	0.107	0.01
1000	0.148	0.01
1500	0.209	0.01
2000	0.263	0.01

System: 1-ethyl-3-methylimidazolium ethyl sulfate + 1,3-dihydroxyimidazolium bis(trifluoromethylsulfonyl)imide + carbon dioxide; phases: Liquid, Gas
Property: Henry's Law constant (mole fraction scale), kPa of carbon dioxide (Liquid); method: gravimetric high pressure analysis
Solvent: Mole fraction of 1-ethyl-3-methylimidazolium ethyl sulfate	Mole fraction of carbon dioxide	Temperature, K	Henry's Law constant (mole fraction scale), kPa of carbon dioxide	uncertainty
0.5	0	298.15	5810	90

System: 1-ethyl-3-methylimidazolium ethyl sulfate + 1,3-dihydroxyimidazolium bis(trifluoromethylsulfonyl)imide + carbon dioxide; phases: Liquid, Gas
Fixed: Temperature, K = 298.15
Fixed: Solvent: Mole fraction of 1-ethyl-3-methylimidazolium ethyl sulfate = 0.5
Property: Mole fraction of carbon dioxide (Liquid); method: gravimetric high pressure analyzer
Pressure, kPa	Mole fraction of carbon dioxide	uncertainty
50	0.009	0.009
100	0.019	0.011
200	0.035	0.011
300	0.053	0.011
500	0.087	0.011
700	0.119	0.01
1000	0.164	0.01
1500	0.228	0.01
2000	0.284	0.01

System: 1-butyl-4-methylpyridinium bis((trifluoromethyl)sulfonyl)amide + carbon dioxide; phases: Liquid, Gas
Property: Henry's Law constant (mole fraction scale), kPa of carbon dioxide (Liquid); method: gravimetric high pressure analyzer
Temperature, K	Mole fraction of carbon dioxide	Henry's Law constant (mole fraction scale), kPa of carbon dioxide	uncertainty
298.15	0	3830	70

System: 1-butyl-4-methylpyridinium bis((trifluoromethyl)sulfonyl)amide + carbon dioxide; phases: Liquid, Gas
Fixed: Temperature, K = 298.2
Property: Mole fraction of carbon dioxide (Liquid); method: gravimetric high pressure analyzer
Pressure, kPa	Mole fraction of carbon dioxide	uncertainty
50	0.018	0.012
100	0.035	0.012
200	0.063	0.012
300	0.092	0.011
500	0.143	0.011
700	0.188	0.011
1000	0.251	0.011
1500	0.337	0.011
2000	0.41	0.011

System: 1-ethyl-3-methylimidazolium dicyanamide + carbon dioxide; phases: Liquid, Gas
Property: Henry's Law constant (mole fraction scale), kPa of carbon dioxide (Liquid); method: gravimetric high pressure analyzer
Temperature, K	Mole fraction of carbon dioxide	Henry's Law constant (mole fraction scale), kPa of carbon dioxide	uncertainty
298.15	0	8210	130

System: 1-ethyl-3-methylimidazolium dicyanamide + carbon dioxide; phases: Liquid, Gas
Fixed: Temperature, K = 298.2
Property: Mole fraction of carbon dioxide (Liquid); method: gravimetric high pressure analyzer
Pressure, kPa	Mole fraction of carbon dioxide	uncertainty
50	0.007	0.007
100	0.014	0.01
200	0.026	0.01
300	0.038	0.01
500	0.063	0.01
700	0.086	0.01
1000	0.12	0.01
1500	0.171	0.01
2000	0.216	0.01

System: 1-hexyl-3-methylimidazolium chloride + carbon dioxide; phases: Liquid, Gas
Property: Henry's Law constant (mole fraction scale), kPa of carbon dioxide (Liquid); method: gravimetric high pressure analyzer
Temperature, K	Mole fraction of carbon dioxide	Henry's Law constant (mole fraction scale), kPa of carbon dioxide	uncertainty
298.15	0	11800	180

System: 1-hexyl-3-methylimidazolium chloride + carbon dioxide; phases: Liquid, Gas
Fixed: Temperature, K = 298.2
Property: Mole fraction of carbon dioxide (Liquid); method: gravimetric high pressure analyzer
Pressure, kPa	Mole fraction of carbon dioxide	uncertainty
50	0.001	0.001
100	0.005	0.005
200	0.013	0.01
300	0.021	0.01
500	0.038	0.01
700	0.056	0.01
1000	0.083	0.01
1500	0.126	0.01
2000	0.17	0.01

System: 1,3-dimethylimidazolium methylsulfate + carbon dioxide; phases: Liquid, Gas
Property: Henry's Law constant (mole fraction scale), kPa of carbon dioxide (Liquid); method: gravimetric high pressure analyzer
Temperature, K	Mole fraction of carbon dioxide	Henry's Law constant (mole fraction scale), kPa of carbon dioxide	uncertainty
298.15	0	13640	210

System: 1,3-dimethylimidazolium methylsulfate + carbon dioxide; phases: Liquid, Gas
Fixed: Temperature, K = 298.2
Property: Mole fraction of carbon dioxide (Liquid); method: gravimetric high pressure analyzer
Pressure, kPa	Mole fraction of carbon dioxide	uncertainty
50	0.003	0.003
100	0.008	0.008
200	0.014	0.01
300	0.022	0.01
500	0.037	0.01
700	0.051	0.01
1000	0.071	0.01
1500	0.103	0.01
2000	0.133	0.01

System: 1-butyl-3-methylimidazolium trifluoroacetate + carbon dioxide; phases: Liquid, Gas
Property: Henry's Law constant (mole fraction scale), kPa of carbon dioxide (Liquid); method: gravimetric high pressure analyzer
Temperature, K	Mole fraction of carbon dioxide	Henry's Law constant (mole fraction scale), kPa of carbon dioxide	uncertainty
298.15	0	6160	100

System: 1-butyl-3-methylimidazolium trifluoroacetate + carbon dioxide; phases: Liquid, Gas
Fixed: Temperature, K = 298.2
Property: Mole fraction of carbon dioxide (Liquid); method: gravimetric high pressure analyzer
Pressure, kPa	Mole fraction of carbon dioxide	uncertainty
50	0.008	0.008
100	0.018	0.011
200	0.034	0.011
300	0.051	0.011
500	0.084	0.011
700	0.114	0.01
1000	0.157	0.01
1500	0.221	0.01
2000	0.276	0.01

System: 1-butyl-3-methylimidazolium hexafluorophosphate + carbon dioxide; phases: Liquid, Gas
Property: Henry's Law constant (mole fraction scale), kPa of carbon dioxide (Liquid); method: gravimetric high pressure analyzer
Temperature, K	Mole fraction of carbon dioxide	Henry's Law constant (mole fraction scale), kPa of carbon dioxide	uncertainty
298.15	0	6470	100

System: 1-butyl-3-methylimidazolium hexafluorophosphate + carbon dioxide; phases: Liquid, Gas
Fixed: Temperature, K = 298.2
Property: Mole fraction of carbon dioxide (Liquid); method: gravimetric high pressure analyzer
Pressure, kPa	Mole fraction of carbon dioxide	uncertainty
50	0.007	0.007
100	0.015	0.011
200	0.031	0.01
300	0.046	0.01
500	0.078	0.01
700	0.107	0.01
1000	0.153	0.01
1500	0.218	0.01
2000	0.274	0.01

System: 1-octyl-3-methylimidazolium hexafluorophosphate + carbon dioxide; phases: Liquid, Gas
Property: Henry's Law constant (mole fraction scale), kPa of carbon dioxide (Liquid); method: gravimetric high pressure analyzer
Temperature, K	Mole fraction of carbon dioxide	Henry's Law constant (mole fraction scale), kPa of carbon dioxide	uncertainty
298.15	0	5140	80

System: 1-octyl-3-methylimidazolium hexafluorophosphate + carbon dioxide; phases: Liquid, Gas
Fixed: Temperature, K = 298.2
Property: Mole fraction of carbon dioxide (Liquid); method: gravimetric high pressure analyzer
Pressure, kPa	Mole fraction of carbon dioxide	uncertainty
50	0.013	0.011
100	0.026	0.011
200	0.045	0.011
300	0.065	0.011
500	0.103	0.011
700	0.141	0.011
1000	0.192	0.011
1500	0.265	0.01
2000	0.32	0.01

System: 1,3-dihydroxyimidazolium bis(trifluoromethylsulfonyl)imide + carbon dioxide; phases: Liquid, Gas
Property: Henry's Law constant (mole fraction scale), kPa of carbon dioxide (Liquid); method: gravimetric high pressure analyzer
Temperature, K	Mole fraction of carbon dioxide	Henry's Law constant (mole fraction scale), kPa of carbon dioxide	uncertainty
298.15	0	5490	90

System: 1,3-dihydroxyimidazolium bis(trifluoromethylsulfonyl)imide + carbon dioxide; phases: Liquid, Gas
Fixed: Temperature, K = 298.2
Property: Mole fraction of carbon dioxide (Liquid); method: gravimetric high pressure analyzer
Pressure, kPa	Mole fraction of carbon dioxide	uncertainty
50	0.01	0.01
100	0.022	0.011
200	0.039	0.011
300	0.058	0.011
500	0.094	0.011
700	0.13	0.011
1000	0.178	0.011
1500	0.25	0.01
2000	0.313	0.01

System: 1-butyl-3-methyl-1H-imidazolium ethyl sulfate + 1-ethyl-3-methylimidazolium bis((trifluoromethyl)sulfonyl)imide + carbon dioxide; phases: Liquid, Gas
Fixed: Mole fraction of carbon dioxide = 0
Fixed: Temperature, K = 298.15
Property: Henry's Law constant (mole fraction scale), kPa of carbon dioxide (Liquid); method: gravimetric high pressure analyzer
Solvent: Mole fraction of 1-ethyl-3-methylimidazolium bis((trifluoromethyl)sulfonyl)imide	Henry's Law constant (mole fraction scale), kPa of carbon dioxide	uncertainty
0	8550	170
0.24	6450	130
0.49	5050	100
0.74	4420	90
1	3660	70

System: 1-ethylpyridinium ethyl sulfate + 1-ethyl-3-methylimidazolium bis((trifluoromethyl)sulfonyl)imide + carbon dioxide; phases: Liquid, Gas
Fixed: Mole fraction of carbon dioxide = 0
Fixed: Temperature, K = 298.15
Property: Henry's Law constant (mole fraction scale), kPa of carbon dioxide (Liquid); method: gravimetric high pressure analyzer
Solvent: Mole fraction of 1-ethyl-3-methylimidazolium bis((trifluoromethyl)sulfonyl)imide	Henry's Law constant (mole fraction scale), kPa of carbon dioxide	uncertainty
0	14500	300
0.25	8100	200
0.49	6300	100
0.74	4700	100
1	3700	100
