Measured thermophysical data. Determination, correlation and prediction of the solubilities of niflumic acid, clofenamic acid and tolfenamic acid in supercritical CO2
Source: Fluid Phase Equilib., 2015, 10.1016/j.fluid.2015.02.007
Compound 1: 2-[[3-(trifluoromethyl)phenyl]amino]-3-pyridinecarboxylic acid, C13H9F3N2O2, InChI=1S/C13H9F3N2O2/c14-13(15,16)8-3-1-4-9(7-8)18-11-10(12(19)20)5-2-6-17-11/h1-7H,(H,17,18)(H,19,20), purity 98%
Compound 2: clofenamic acid, C13H9Cl2NO2, InChI=1S/C13H9Cl2NO2/c14-9-5-3-7-11(12(9)15)16-10-6-2-1-4-8(10)13(17)18/h1-7,16H,(H,17,18), purity 98%
Compound 3: 2-[(3-chloro-2-methylphenyl)amino]benzoic acid, C14H12ClNO2, InChI=1S/C14H12ClNO2/c1-9-11(15)6-4-8-12(9)16-13-7-3-2-5-10(13)14(17)18/h2-8,16H,1H3,(H,17,18), purity 98%
Compound 4: carbon dioxide, CO2, InChI=1S/CO2/c2-1-3

System: 2-[[3-(trifluoromethyl)phenyl]amino]-3-pyridinecarboxylic acid; phases: Crystal, Liquid, Air at 1 atmosphere
Property: Normal melting temperature, K (Crystal); method: DTA
Normal melting temperature, K	uncertainty
477.15	1.48

System: 2-[[3-(trifluoromethyl)phenyl]amino]-3-pyridinecarboxylic acid; phases: Crystal, Liquid, Air at 1 atmosphere
Property: Molar enthalpy of transition or fusion, kJ/mol (Crystal); method: DSC
Molar enthalpy of transition or fusion, kJ/mol	uncertainty
35.05	0.76

System: clofenamic acid; phases: Crystal, Liquid, Air at 1 atmosphere
Property: Normal melting temperature, K (Crystal); method: DTA
Normal melting temperature, K	uncertainty
444.15	0.88

System: clofenamic acid; phases: Crystal, Liquid, Air at 1 atmosphere
Property: Molar enthalpy of transition or fusion, kJ/mol (Crystal); method: DSC
Molar enthalpy of transition or fusion, kJ/mol	uncertainty
30.39	0.67

System: 2-[(3-chloro-2-methylphenyl)amino]benzoic acid; phases: Crystal, Liquid, Air at 1 atmosphere
Property: Normal melting temperature, K (Crystal); method: DTA
Normal melting temperature, K	uncertainty
487.15	1.12

System: 2-[(3-chloro-2-methylphenyl)amino]benzoic acid; phases: Crystal, Liquid, Air at 1 atmosphere
Property: Molar enthalpy of transition or fusion, kJ/mol (Crystal); method: DSC
Molar enthalpy of transition or fusion, kJ/mol	uncertainty
31.48	0.69

System: carbon dioxide + 2-[[3-(trifluoromethyl)phenyl]amino]-3-pyridinecarboxylic acid; phases: Fluid (supercritical or subcritical phases), Crystal
Property: Mole fraction of 2-[[3-(trifluoromethyl)phenyl]amino]-3-pyridinecarboxylic acid (Fluid (supercritical or subcritical phases)); method: UV-vis spectrophotometry
Temperature, K	Pressure, kPa	Mole fraction of 2-[[3-(trifluoromethyl)phenyl]amino]-3-pyridinecarboxylic acid	uncertainty
313	12000	3.69e-06	5e-07
313	14000	4.78e-06	3.2e-07
313	17000	6.31e-06	4.7e-07
313	20000	7.45e-06	6.2e-07
313	24000	8.15e-06	6.3e-07
313	28000	8.9e-06	6.8e-07
313	32000	9.53e-06	1.09e-06
313	36000	1.053e-05	1e-06
323	12000	2.85e-06	4.1e-07
323	14000	5.05e-06	2.8e-07
323	17000	7.25e-06	5.5e-07
323	20000	1.001e-05	4.7e-07
323	24000	1.07e-05	6.1e-07
323	28000	1.189e-05	8.1e-07
323	32000	1.469e-05	1.11e-06
323	36000	1.514e-05	1.06e-06
333	12000	1.63e-06	5.4e-07
333	14000	3.92e-06	5e-07
333	17000	8.31e-06	3.8e-07
333	20000	1.121e-05	5.2e-07
333	24000	1.385e-05	6.9e-07
333	28000	1.652e-05	1.15e-06
333	32000	1.951e-05	1.27e-06
333	36000	2.096e-05	1.39e-06

System: carbon dioxide + clofenamic acid; phases: Fluid (supercritical or subcritical phases), Crystal
Property: Mole fraction of clofenamic acid (Fluid (supercritical or subcritical phases)); method: UV-vis spectrophotometry
Temperature, K	Pressure, kPa	Mole fraction of clofenamic acid	uncertainty
313	12000	3.62e-06	8.2e-07
313	14000	6.66e-06	9.5e-07
313	17000	8.79e-06	1.04e-06
313	20000	9.97e-06	5.9e-07
313	24000	1.168e-05	1.23e-06
313	28000	1.3e-05	1.36e-06
313	32000	1.602e-05	1.42e-06
313	36000	1.431e-05	2.69e-06
323	12000	3.2e-06	5.3e-07
323	14000	6.02e-06	4.1e-07
323	17000	1.018e-05	1.01e-06
323	20000	1.278e-05	6.6e-07
323	24000	1.556e-05	1e-06
323	28000	1.846e-05	1.78e-06
323	32000	2.152e-05	1.78e-06
323	36000	2.693e-05	2.13e-06
333	12000	1.54e-06	7.3e-07
333	14000	4.51e-06	4.4e-07
333	17000	1.063e-05	4.2e-07
333	20000	1.618e-05	6.4e-07
333	24000	2.104e-05	1.21e-06
333	28000	2.666e-05	1.83e-06
333	32000	3e-05	2.22e-06
333	36000	3.544e-05	2.09e-06

System: carbon dioxide + 2-[(3-chloro-2-methylphenyl)amino]benzoic acid; phases: Fluid (supercritical or subcritical phases), Crystal
Property: Mole fraction of 2-[(3-chloro-2-methylphenyl)amino]benzoic acid (Fluid (supercritical or subcritical phases)); method: UV-vis spectrophotometry
Temperature, K	Pressure, kPa	Mole fraction of 2-[(3-chloro-2-methylphenyl)amino]benzoic acid	uncertainty
313	12000	1.97e-06	6.4e-07
313	14000	2.68e-06	2.9e-07
313	17000	2.85e-06	5.3e-07
313	20000	3.03e-06	6.1e-07
313	24000	3.57e-06	6.9e-07
313	28000	4.3e-06	9.2e-07
313	32000	4.88e-06	8e-07
313	36000	5.27e-06	1e-06
323	12000	1.91e-06	3.1e-07
323	14000	3.32e-06	4.2e-07
323	17000	4.87e-06	6e-07
323	20000	5.47e-06	5e-07
323	24000	6.96e-06	8.4e-07
323	28000	8.33e-06	1.14e-06
323	32000	8.78e-06	1.3e-06
323	36000	9.95e-06	1.4e-06
333	12000	1.61e-06	3.4e-07
333	14000	3.26e-06	6e-07
333	17000	5.95e-06	6.5e-07
333	20000	7.69e-06	5.9e-07
333	24000	1.164e-05	1.27e-06
333	28000	1.38e-05	1.27e-06
333	32000	1.6e-05	1.65e-06
333	36000	1.812e-05	1.85e-06
