Measured thermophysical data. Ternary liquid liquid equilibria for mixtures of toluene + n-heptane + an ionic liquid
Source: Fluid Phase Equilib., 2006, 10.1016/j.fluid.2006.07.002
Compound 1: 1,3-dimethylimidazolium methylsulfate, C6H12N2O4S, InChI=1S/C5H9N2.CH4O4S/c1-6-3-4-7(2)5-6;1-5-6(2,3)4/h3-5H,1-2H3;1H3,(H,2,3,4)/q+1;/p-1
Compound 2: 1-butyl-3-methylimidazolium methyl sulfate, C9H18N2O4S, InChI=1S/C8H15N2.CH4O4S/c1-3-4-5-10-7-6-9(2)8-10;1-5-6(2,3)4/h6-8H,3-5H2,1-2H3;1H3,(H,2,3,4)/q+1;/p-1
Compound 3: sulfolane, C4H8O2S, InChI=1S/C4H8O2S/c5-7(6)3-1-2-4-7/h1-4H2
Compound 4: 1-butyl-4-methylpyridinium tetrafluoroborate, C10H16BF4N, InChI=1S/C10H16N.BF4/c1-3-4-7-11-8-5-10(2)6-9-11;2-1(3,4)5/h5-6,8-9H,3-4,7H2,1-2H3;/q+1;-1
Compound 5: toluene, C7H8, InChI=1S/C7H8/c1-7-5-3-2-4-6-7/h2-6H,1H3
Compound 6: heptane, C7H16, InChI=1S/C7H16/c1-3-5-7-6-4-2/h3-7H2,1-2H3
Compound 7: 1-ethyl-3-methylimidazolium ethyl sulfate, C8H16N2O4S, InChI=1S/C6H11N2.C2H6O4S/c1-3-8-5-4-7(2)6-8;1-2-6-7(3,4)5/h4-6H,3H2,1-2H3;2H2,1H3,(H,3,4,5)/q+1;/p-1

System: heptane + 1-butyl-4-methylpyridinium tetrafluoroborate; phases: Liquid mixture 1, Liquid mixture 2
Property: Mole fraction of heptane (Liquid mixture 1); method: Chromatography
Temperature, K	Pressure, kPa	Mole fraction of heptane	uncertainty
348.2	100	0.9951	0.0049

System: heptane + 1-butyl-4-methylpyridinium tetrafluoroborate; phases: Liquid mixture 2, Liquid mixture 1
Fixed: Pressure, kPa = 100
Property: Mole fraction of heptane (Liquid mixture 2); method: Chromatography
Temperature, K	Mole fraction of heptane	uncertainty
313.2	0.0095	0.0014
348.2	0.0118	0.0017

System: toluene + 1-butyl-4-methylpyridinium tetrafluoroborate; phases: Liquid mixture 2, Liquid mixture 1
Fixed: Pressure, kPa = 100
Property: Mole fraction of toluene (Liquid mixture 2); method: Chromatography
Temperature, K	Mole fraction of toluene	uncertainty
313.2	0.5158	0.0378
348.2	0.4911	0.036

System: heptane + 1-ethyl-3-methylimidazolium ethyl sulfate; phases: Liquid mixture 1, Liquid mixture 2
Fixed: Pressure, kPa = 100
Property: Mole fraction of heptane (Liquid mixture 1); method: Chromatography
Temperature, K	Mole fraction of heptane	uncertainty
313.2	0.9934	0.0066
348.2	0.9913	0.0087

System: toluene + 1-ethyl-3-methylimidazolium ethyl sulfate; phases: Liquid mixture 1, Liquid mixture 2
Fixed: Pressure, kPa = 100
Property: Mole fraction of toluene (Liquid mixture 1); method: Chromatography
Temperature, K	Mole fraction of toluene	uncertainty
313.2	0.9675	0.0325
348.2	0.9627	0.0373

System: toluene + 1-ethyl-3-methylimidazolium ethyl sulfate; phases: Liquid mixture 2, Liquid mixture 1
Fixed: Pressure, kPa = 100
Property: Mole fraction of toluene (Liquid mixture 2); method: Chromatography
Temperature, K	Mole fraction of toluene	uncertainty
313.2	0.0066	0.0019
348.2	0.0087	0.0025

System: heptane + 1,3-dimethylimidazolium methylsulfate; phases: Liquid mixture 1, Liquid mixture 2
Property: Mole fraction of heptane (Liquid mixture 1); method: Chromatography
Temperature, K	Pressure, kPa	Mole fraction of heptane	uncertainty
348.2	100	0.9947	0.0053

System: heptane + 1,3-dimethylimidazolium methylsulfate; phases: Liquid mixture 2, Liquid mixture 1
Property: Mole fraction of heptane (Liquid mixture 2); method: Chromatography
Temperature, K	Pressure, kPa	Mole fraction of heptane	uncertainty
348.2	100	0.0012	0.0002

System: toluene + 1,3-dimethylimidazolium methylsulfate; phases: Liquid mixture 2, Liquid mixture 1
Fixed: Pressure, kPa = 100
Property: Mole fraction of toluene (Liquid mixture 2); method: Chromatography
Temperature, K	Mole fraction of toluene	uncertainty
313.2	0.0028	0.0002
313.2	0.0971	0.0071
348.2	0.1047	0.0077

System: heptane + 1-butyl-3-methylimidazolium methyl sulfate; phases: Liquid mixture 2, Liquid mixture 1
Fixed: Pressure, kPa = 100
Property: Mole fraction of heptane (Liquid mixture 2); method: Chromatography
Temperature, K	Mole fraction of heptane	uncertainty
313.2	0.0128	0.0019
348.2	0.0117	0.0017

System: toluene + 1-butyl-3-methylimidazolium methyl sulfate; phases: Liquid mixture 2, Liquid mixture 1
Fixed: Pressure, kPa = 100
Property: Mole fraction of toluene (Liquid mixture 2); method: Chromatography
Temperature, K	Mole fraction of toluene	uncertainty
313.2	0.3222	
348.2	0.3166	

System: toluene + sulfolane + heptane; phases: Liquid mixture 1, Liquid mixture 2
Fixed: Pressure, kPa = 100
Property: Mole fraction of heptane (Liquid mixture 1); method: Chromatography
Property: Mole fraction of heptane (Liquid mixture 2); method: Chromatography
Property: Mole fraction of toluene (Liquid mixture 2); method: Chromatography
Temperature, K	Mole fraction of toluene	Mole fraction of heptane	uncertainty	Mole fraction of heptane	uncertainty	Mole fraction of toluene	uncertainty
313.2	0.0335	0.9628	0.0372	0.0088	0.0013	0.0095	
313.2	0.0591	0.9318	0.0682	0.0095	0.0014	0.0186	
313.2	0.0845	0.9114	0.0668	0.0102	0.0015	0.0279	
313.2	0.1149	0.8798	0.0648	0.0099	0.0015	0.0342	
313.2	0.1503	0.8439	0.0626	0.0118	0.0017	0.0516	
313.2	0.1772	0.8159	0.0611	0.0102	0.0015	0.0522	
313.2	0.2521	0.7334	0.0569	0.0139	0.0021	0.0915	
313.2	0.3064	0.6812	0.0549	0.0156	0.0023	0.1145	
313.2	0.4142	0.5665	0.0522	0.0173	0.0026	0.1612	
313.2	0.5149	0.4585	0.0521	0.0213	0.0033	0.2254	
313.2	0.6001	0.3594	0.0539	0.0261	0.0041	0.2924	
313.2	0.6437	0.3006	0.0552	0.0333	0.0052	0.3301	
348.2	0.033	0.9603	0.0397	0.0121	0.0018	0.0104	
348.2	0.0967	0.8942	0.0657	0.0155	0.0023	0.0317	
348.2	0.1178	0.8731	0.0644	0.0153	0.0022	0.0376	
348.2	0.1878	0.7967	0.0583	0.016	0.0024	0.0614	
348.2	0.1922	0.7953	0.0582	0.0172	0.0025	0.0675	
348.2	0.2506	0.7335	0.057	0.018	0.0027	0.0855	
348.2	0.3005	0.6805	0.055	0.0207	0.003	0.1081	
348.2	0.4073	0.5661	0.0532	0.0214	0.0032	0.159	
348.2	0.5032	0.4524	0.0547	0.0272	0.0044	0.2305	
348.2	0.5933	0.3456	0.0605	0.0375	0.0063	0.3119	
348.2	0.6274	0.2924	0.0746	0.0443	0.0078	0.3529	

System: toluene + heptane + 1-butyl-4-methylpyridinium tetrafluoroborate; phases: Liquid mixture 1, Liquid mixture 2
Fixed: Pressure, kPa = 100
Property: Mole fraction of heptane (Liquid mixture 1); method: Chromatography
Property: Mole fraction of heptane (Liquid mixture 2); method: Chromatography
Property: Mole fraction of toluene (Liquid mixture 2); method: Chromatography
Temperature, K	Mole fraction of toluene	Mole fraction of heptane	uncertainty	Mole fraction of heptane	uncertainty	Mole fraction of toluene	uncertainty
313.2	0	1	0.0001	0.0095	0.0014	0	
313.2	0.0367	0.9633	0.0367	0.008	0.0012	0.0162	
313.2	0.0645	0.9306	0.0681	0.0079	0.0012	0.029	
313.2	0.1021	0.8979	0.066	0.0079	0.0012	0.0448	
313.2	0.1388	0.859	0.0635	0.0077	0.0011	0.0594	
313.2	0.1558	0.8442	0.0627	0.0088	0.0013	0.073	
313.2	0.2319	0.7681	0.0586	0.0091	0.0013	0.1112	
313.2	0.3183	0.6817	0.055	0.0085	0.0012	0.1481	
313.2	0.4162	0.5838	0.0524	0.0084	0.0012	0.1916	
313.2	0.5653	0.4347	0.0521	0.0082	0.0012	0.263	
313.2	0.6638	0.3362	0.0544	0.007	0.001	0.2982	
313.2	0.7759	0.2241	0.059	0.0062	0.001	0.3538	
313.2	0.9011	0.0989	0.0662	0.0041	0.0008	0.4496	
313.2	1	0	0.0001	0	0.0001	0.5158	
348.2	0	0.9951	0.0049	0.0118	0.0017	0	
348.2	0.0402	0.9598	0.0402	0.0156	0.0032	0.0166	
348.2	0.0404	0.9531	0.0469	0.0126	0.0031	0.0182	
348.2	0.0701	0.9299	0.068	0.0113	0.0017	0.0334	
348.2	0.1077	0.8923	0.0656	0.0107	0.0016	0.0483	
348.2	0.1478	0.8522	0.0634	0.0112	0.0016	0.0669	
348.2	0.2069	0.7804	0.0589	0.0121	0.0018	0.0929	
348.2	0.2771	0.7229	0.0563	0.011	0.0019	0.1008	
348.2	0.3303	0.66	0.0544	0.0114	0.0017	0.1455	
348.2	0.4211	0.5719	0.0513	0.0113	0.0017	0.1836	
348.2	0.5302	0.4668	0.0505	0.0106	0.0019	0.2307	
348.2	0.592	0.408	0.0509	0.0099	0.0018	0.242	
348.2	1	0	0.0001	0	0.0001	0.4911	

System: toluene + heptane + 1-ethyl-3-methylimidazolium ethyl sulfate; phases: Liquid mixture 2, Liquid mixture 1
Fixed: Pressure, kPa = 100
Property: Mole fraction of toluene (Liquid mixture 2); method: Chromatography
Property: Mole fraction of heptane (Liquid mixture 1); method: Chromatography
Property: Mole fraction of toluene (Liquid mixture 1); method: Chromatography
Temperature, K	Mole fraction of heptane	Mole fraction of toluene	uncertainty	Mole fraction of heptane	uncertainty	Mole fraction of toluene	uncertainty
313.2	0	0.0066	0.0019	0.9934	0.0066	0	
313.2	0.014	0.009	0.0027	0.932	0.068	0.059	
313.2	0.024	0.016	0.0047	0.877	0.0646	0.107	
313.2	0.036	0.022	0.0064	0.819	0.061	0.159	
313.2	0.047	0.011	0.0032	0.777	0.0589	0.212	
313.2	0.055	0.013	0.0039	0.727	0.0567	0.26	
313.2	0.0695	0.0218	0.0064	0.6651	0.0543	0.3131	
313.2	0.0853	0.0144	0.0043	0.6046	0.0522	0.3634	
313.2	0.1029	0.0139	0.0041	0.5643	0.0518	0.4139	
313.2	0.0964	0.0185	0.0054	0.511	0.0513	0.4705	
313.2	0.1079	0.0137	0.004	0.4688	0.0516	0.5174	
313.2	0.1165	0.0168	0.0049	0.429	0.0515	0.5542	
313.2	0.1238	0.0065	0.0019	0.3489	0.0542	0.6446	
313.2	0.1429	0.0114	0.0033	0.3065	0.0538	0.6664	
313.2	0.1492	0.0011	0.0003	0.2593	0.0453	0.7396	
313.2	0.1645	0.007	0.002	0.2284	0.0581	0.7646	
313.2	0.1692	0.0099	0.0029	0.1769	0.061	0.8179	
313.2	0.1849	0.0034	0.0011	0.132	0.0631	0.8646	
313.2	0.1724	0.0089	0.0027	0.0954	0.0676	0.9189	
313.2	0.2034	0.0084	0.0025	0.0518	0.0308	0.9694	
313.2	0.179	0.0325	0.0095	0	0.0001	0.9675	
348.2	0	0.0087	0.0025	0.9913	0.0087	0	
348.2	0.0124	0.0035	0.0012	0.9364	0.0636	0.0601	
348.2	0.0229	0.0266	0.0082	0.8675	0.0643	0.1059	
348.2	0.0333	0.0375	0.011	0.8231	0.0611	0.1395	
348.2	0.0465	0.0357	0.0104	0.7547	0.0573	0.2096	
348.2	0.0536	0.0415	0.0125	0.7129	0.0542	0.2456	
348.2	0.0682	0.0204	0.0074	0.6694	0.0527	0.3102	
348.2	0.0721	0.0292	0.0094	0.6204	0.0544	0.3504	
348.2	0.0826	0.0328	0.0096	0.5842	0.0509	0.3829	
348.2	0.0943	0.0289	0.0085	0.5229	0.0494	0.4482	
348.2	0.1101	0.0274	0.008	0.4693	0.0499	0.5033	
348.2	0.122	0.0274	0.009	0.4335	0.0506	0.5391	
348.2	0.119	0.0274	0.008	0.385	0.0492	0.5876	
348.2	0.1335	0.0213	0.0063	0.3386	0.0517	0.6401	
348.2	0.1421	0.0254	0.0076	0.298	0.0523	0.6766	
348.2	0.1543	0.0185	0.0064	0.2416	0.0545	0.7399	
348.2	0.1612	0.0203	0.0093	0.1874	0.0681	0.7922	
348.2	0.1775	0.032	0.0228	0.1531	0.0621	0.815	
348.2	0.1826	0.0262	0.0262	0.085	0.0565	0.8888	
348.2	0.1844	0.0143	0.0143	0.044	0.044	0.9417	
348.2	0.1808	0.0373	0.0152	0	0.0001	0.9627	

System: toluene + heptane + 1,3-dimethylimidazolium methylsulfate; phases: Liquid mixture 1, Liquid mixture 2
Fixed: Pressure, kPa = 100
Property: Mole fraction of heptane (Liquid mixture 1); method: Chromatography
Property: Mole fraction of heptane (Liquid mixture 2); method: Chromatography
Property: Mole fraction of toluene (Liquid mixture 2); method: Chromatography
Temperature, K	Mole fraction of toluene	Mole fraction of heptane	uncertainty	Mole fraction of heptane	uncertainty	Mole fraction of toluene	uncertainty
313.2	0	1	0.0001	0	0.0001	0.0028	
313.2	0.0608	0.9325	0.0675	0.0013	0.0002	0.0052	
313.2	0.1075	0.8902	0.0655	0.0011	0.0002	0.0083	
313.2	0.1788	0.8183	0.0612	0.0011	0.0002	0.0158	
313.2	0.227	0.7725	0.0588	0.0011	0.0002	0.0194	
313.2	0.3193	0.6768	0.0547	0.001	0.0002	0.0268	
313.2	0.3432	0.6568	0.0542	0.001	0.0002	0.0285	
313.2	0.396	0.6007	0.0527	0.0009	0.0002	0.0316	
313.2	0.4694	0.5278	0.0517	0.001	0.0002	0.0365	
313.2	0.5157	0.4843	0.0518	0.0008	0.0001	0.0427	
313.2	0.5574	0.4426	0.0521	0.001	0.0002	0.0478	
313.2	0.6101	0.3899	0.0529	0.0009	0.0002	0.0501	
313.2	0.6558	0.3442	0.0541	0.0007	0.0001	0.056	
313.2	0.7254	0.2746	0.0567	0.001	0.0002	0.0591	
313.2	0.7253	0.2747	0.0567	0.0007	0.0001	0.0628	
313.2	0.8049	0.1951	0.0605	0.0007	0.0001	0.0629	
313.2	0.8386	0.1614	0.0624	0.0008	0.0001	0.0721	
313.2	0.8943	0.1057	0.0657	0.0007	0.0001	0.074	
313.2	0.9431	0.0569	0.0569	0.0006	0.0001	0.083	
313.2	0.9614	0.0386	0.0386	0.0005	0.0001	0.079	
313.2	1	0	0.0001	0	0.0001	0.0971	
348.2	0	0.9947	0.0053	0.0012	0.0002	0	
348.2	0.0595	0.9036	0.0661	0.0013	0.0002	0.0039	
348.2	0.1242	0.8571	0.063	0.0012	0.0002	0.0101	
348.2	0.1725	0.8072	0.0603	0.0014	0.0002	0.0126	
348.2	0.2326	0.7476	0.0569	0.0011	0.0002	0.0184	
348.2	0.2727	0.7133	0.0555	0.0013	0.0002	0.0219	
348.2	0.3349	0.6496	0.0534	0.0012	0.0002	0.0266	
348.2	0.3885	0.5972	0.0522	0.0009	0.0005	0.0278	
348.2	0.4367	0.5473	0.0555	0.0011	0.0002	0.0346	
348.2	0.4806	0.4862	0.0488	0.001	0.0002	0.0404	
348.2	0.5356	0.4519	0.048	0.0008	0.0003	0.0434	
348.2	0.5901	0.3889	0.0479	0.0009	0.0002	0.0423	
348.2	0.6651	0.3349	0.0474	0.0006	0.0001	0.0499	
348.2	0.6977	0.2965	0.0555	0.0007	0.0007	0.0616	
348.2	0.7452	0.254	0.0543	0.0006	0.0006	0.0622	
348.2	0.7853	0.2143	0.0589	0.0005	0.0001	0.0659	
348.2	0.8285	0.1715	0.0615	0.0007	0.0001	0.0716	
348.2	0.876	0.124	0.0646	0.0005	0.0002	0.0768	
348.2	0.9242	0.0758	0.0677	0.0004	0.0002	0.0787	
348.2	0.9611	0.0389	0.0389	0.0003	0.0002	0.0826	
348.2	1	0	0.0001	0	0.0001	0.1047	

System: toluene + heptane + 1-butyl-3-methylimidazolium methyl sulfate; phases: Liquid mixture 1, Liquid mixture 2
Fixed: Pressure, kPa = 100
Property: Mole fraction of heptane (Liquid mixture 1); method: Chromatography
Property: Mole fraction of heptane (Liquid mixture 2); method: Chromatography
Property: Mole fraction of toluene (Liquid mixture 2); method: Chromatography
Temperature, K	Mole fraction of toluene	Mole fraction of heptane	uncertainty	Mole fraction of heptane	uncertainty	Mole fraction of toluene	uncertainty
313.2	0	1	0.0001	0.0128	0.0019	0	
313.2	0.0152	0.9848	0.0152	0.0106	0.0016	0.0041	
313.2	0.0553	0.9447	0.0553	0.0093	0.0014	0.0191	
313.2	0.0863	0.9137	0.067	0.0098	0.0014	0.0289	
313.2	0.1288	0.8649	0.0639	0.0092	0.0014	0.044	
313.2	0.1451	0.8549	0.0633	0.009	0.0013	0.0482	
313.2	0.2969	0.703	0.0557	0.0087	0.0013	0.096	
313.2	0.4327	0.5672	0.0522	0.0076	0.0012	0.135	
313.2	0.5458	0.4531	0.0519	0.0072	0.0011	0.1673	
313.2	0.6927	0.3059	0.0554	0.0057	0.001	0.2185	
313.2	0.8207	0.1792	0.0613	0.0044	0.0009	0.2518	
313.2	0.9976	0.0024	0.0024	0.0001	0.0001	0.3474	
313.2	1	0	0.0001	0	0.0001	0.3222	
348.2	0	1	0.0001	0.0117	0.0017	0	
348.2	0.0178	0.9822	0.0178	0.0116	0.0017	0.0041	
348.2	0.0562	0.9437	0.0563	0.0107	0.0016	0.0189	
348.2	0.0918	0.9082	0.0667	0.0103	0.0015	0.029	
348.2	0.1359	0.8615	0.0637	0.011	0.0016	0.0426	
348.2	0.1528	0.8472	0.0626	0.0101	0.0016	0.0476	
348.2	0.3008	0.6992	0.0556	0.0099	0.0014	0.0926	
348.2	0.4366	0.5634	0.0526	0.0092	0.0013	0.1313	
348.2	0.5494	0.4441	0.0521	0.0096	0.0014	0.1684	
348.2	0.7075	0.2886	0.0548	0.0071	0.0015	0.2245	
348.2	0.8243	0.1754	0.0608	0.0044	0.0034	0.2387	
348.2	0.9967	0.0033	0.0033	0.0001	0.0001	0.3431	
348.2	1	0	0.0001	0	0.0001	0.3166	
