Measured thermophysical data. Isothermal vapour liquid equilibria and excess molar enthalpies of hex-2-yne + methyl butyl ether and hex-3-yne + dibutyl ether mixtures
Source: Fluid Phase Equilib., 2007, 10.1016/j.fluid.2007.09.002
Compound 1: butyl methyl ether, C5H12O, InChI=1S/C5H12O/c1-3-4-5-6-2/h3-5H2,1-2H3
Compound 2: dibutyl ether, C8H18O, InChI=1S/C8H18O/c1-3-5-7-9-8-6-4-2/h3-8H2,1-2H3
Compound 3: 3-hexyne, C6H10, InChI=1S/C6H10/c1-3-5-6-4-2/h3-4H2,1-2H3
Compound 4: 2-hexyne, C6H10, InChI=1S/C6H10/c1-3-5-6-4-2/h3,5H2,1-2H3

System: butyl methyl ether; phases: Liquid, Gas
Property: Vapor or sublimation pressure, kPa (Liquid); method: Closed cell (Static) method
Temperature, K	Vapor or sublimation pressure, kPa	uncertainty
263.15	3.054	0.062
273.15	5.436	0.11
283.15	9.207	0.186
293.15	14.93	0.301
298.15	18.735	0.377
303.15	23.301	0.469
313.15	35.152	0.707
323.15	51.455	1.034
333.15	73.313	1.473
343.15	101.959	2.048

System: dibutyl ether; phases: Liquid, Gas
Property: Vapor or sublimation pressure, kPa (Liquid); method: Closed cell (Static) method
Temperature, K	Vapor or sublimation pressure, kPa	uncertainty
263.15	0.077	0.002
273.15	0.166	0.004
283.15	0.337	0.008
293.15	0.649	0.014
298.15	0.885	0.019
303.15	1.193	0.026
313.15	2.103	0.043
323.15	3.571	0.073
333.15	5.862	0.119
343.15	9.329	0.188

System: 3-hexyne; phases: Liquid, Gas
Property: Vapor or sublimation pressure, kPa (Liquid); method: Closed cell (Static) method
Temperature, K	Vapor or sublimation pressure, kPa	uncertainty
263.15	1.613	0.065
273.15	3.001	0.121
283.15	5.293	0.212
293.15	8.909	0.357
298.15	11.377	0.456
303.15	14.388	0.577
313.15	22.403	0.897
323.15	33.766	1.352
333.15	49.436	1.98
343.15	70.515	2.824

System: 2-hexyne; phases: Liquid, Gas
Property: Vapor or sublimation pressure, kPa (Liquid); method: Closed cell (Static) method
Temperature, K	Vapor or sublimation pressure, kPa	uncertainty
263.15	1.372	0.056
273.15	2.56	0.103
283.15	4.532	0.182
293.15	7.66	0.307
298.15	9.804	0.393
303.15	12.428	0.498
313.15	19.445	0.779
323.15	29.456	1.18
333.15	43.347	1.736
343.15	62.15	2.489

System: dibutyl ether + 3-hexyne; phases: Liquid
Fixed: Temperature, K = 298.15
Fixed: Pressure, kPa = 101.3
Property: Excess molar enthalpy (molar enthalpy of mixing), kJ/mol (Liquid); method: Flow calorimetry
Mole fraction of 3-hexyne	Excess molar enthalpy (molar enthalpy of mixing), kJ/mol	uncertainty
0.1599	0.04	0.01
0.2756	0.06	0.01
0.3989	0.073	0.01
0.496	0.077	0.01
0.5781	0.076	0.01
0.6579	0.068	0.01
0.7475	0.057	0.01
0.8783	0.035	0.01

System: dibutyl ether + 3-hexyne; phases: Liquid, Gas
Property: Vapor or sublimation pressure, kPa (Liquid); method: Closed cell (Static) method
Temperature, K	Mole fraction of 3-hexyne	Vapor or sublimation pressure, kPa	uncertainty
263.45	0.7549	1.252	0.042
263.51	0.4123	0.729	0.025
263.51	0.5479	0.937	0.032
263.53	0.2337	0.452	0.016
263.53	0.6649	1.119	0.038
273.32	0.4123	1.35	0.044
273.32	0.6649	2.055	0.065
273.34	0.5479	1.73	0.055
273.34	0.7549	2.31	0.073
273.37	0.2337	0.849	0.029
283.19	0.5479	3.044	0.094
283.24	0.4123	2.384	0.075
283.24	0.6649	3.615	0.111
283.27	0.2337	1.512	0.049
283.27	0.7549	4.056	0.125
293.17	0.7549	6.838	0.208
293.2	0.5479	5.144	0.157
293.22	0.2337	2.593	0.081
293.22	0.4123	4.052	0.125
293.22	0.6649	6.103	0.186
298.18	0.2337	3.348	0.103
298.18	0.5479	6.587	0.201
298.2	0.4123	5.2	0.159
298.2	0.7549	8.734	0.266
298.22	0.6649	7.805	0.238
303.2	0.2337	4.293	0.132
303.2	0.4123	6.615	0.202
303.2	0.5479	8.358	0.254
303.22	0.6649	9.886	0.3
303.22	0.7549	11.055	0.336
313.17	0.2337	6.836	0.208
313.17	0.4123	10.397	0.316
313.17	0.7549	17.318	0.525
313.2	0.4123	10.4	0.316
313.2	0.5479	13.149	0.399
313.2	0.6649	15.503	0.47
323.19	0.2337	10.571	0.321
323.21	0.4123	15.923	0.483
323.21	0.5479	19.938	0.604
323.21	0.6649	23.445	0.71
323.21	0.7549	26.161	0.792
323.21	0.5479	19.939	0.604
323.21	0.6649	23.449	0.71
333.19	0.6649	34.404	1.041
333.21	0.2337	15.928	0.483
333.21	0.4123	23.544	0.713
333.21	0.5479	29.33	0.887
333.21	0.6649	34.404	1.041
333.21	0.7549	38.324	1.159
333.21	0.6649	34.405	1.041
343.18	0.4123	33.882	1.025
343.18	0.5479	42.004	1.27
343.18	0.6649	49.131	1.486
343.18	0.7549	54.652	1.652
343.18	0.5479	42.012	1.27
343.18	0.6649	49.135	1.486
343.18	0.7549	54.652	1.652
343.18	0.6649	49.136	1.486
343.18	0.6649	49.137	1.486
343.2	0.4123	33.886	1.025
343.29	0.2337	23.335	0.706
353.14	0.2337	33.121	1.002
353.14	0.4123	47.749	1.444
353.14	0.5479	58.739	1.776
353.14	0.6649	68.522	2.071
353.14	0.7549	76.094	2.3
353.14	0.4123	47.756	1.444
353.14	0.5479	58.77	1.777
353.14	0.7549	76.114	2.3
353.14	0.5479	58.783	1.777
353.17	0.2337	33.128	1.002
353.17	0.4123	47.753	1.444

System: butyl methyl ether + 2-hexyne; phases: Liquid
Fixed: Temperature, K = 298.15
Fixed: Pressure, kPa = 101.3
Property: Excess molar enthalpy (molar enthalpy of mixing), kJ/mol (Liquid); method: Flow calorimetry
Mole fraction of 2-hexyne	Excess molar enthalpy (molar enthalpy of mixing), kJ/mol	uncertainty
0.1468	-0.06	0.01
0.3058	-0.12	0.01
0.4949	-0.163	0.01
0.637	-0.16	0.01
0.7489	-0.14	0.01
0.8444	-0.08	0.01

System: butyl methyl ether + 2-hexyne; phases: Liquid, Gas
Property: Vapor or sublimation pressure, kPa (Liquid); method: Closed cell (Static) method
Temperature, K	Mole fraction of 2-hexyne	Vapor or sublimation pressure, kPa	uncertainty
263.51	0.7088	1.867	0.059
263.59	0.373	2.477	0.078
263.62	0.3519	2.526	0.079
263.62	0.5262	2.223	0.07
263.62	0.597	2.106	0.067
263.63	0.18	2.805	0.087
263.63	0.3519	2.527	0.079
263.63	0.18	2.802	0.087
273.58	0.373	4.463	0.137
273.58	0.373	4.46	0.137
273.59	0.3519	4.538	0.139
273.6	0.3519	4.541	0.139
273.6	0.5262	3.999	0.123
273.6	0.597	3.799	0.117
273.61	0.18	5.015	0.154
273.61	0.597	3.801	0.117
273.61	0.7088	3.427	0.106
273.61	0.18	5.017	0.154
283.57	0.373	7.637	0.233
283.59	0.18	8.548	0.26
283.59	0.5262	6.873	0.209
283.59	0.597	6.52	0.199
283.59	0.7088	5.952	0.182
283.59	0.5262	6.872	0.209
283.6	0.18	8.555	0.26
283.6	0.3519	7.749	0.236
293.55	0.373	12.456	0.378
293.55	0.7088	9.86	0.3
293.58	0.18	13.889	0.421
293.58	0.3519	12.63	0.383
293.58	0.5262	11.289	0.343
293.58	0.597	10.721	0.326
293.58	0.597	10.728	0.326
298.5	0.7088	12.483	0.379
298.52	0.5262	14.219	0.431
298.53	0.18	17.42	0.528
298.53	0.3519	15.854	0.481
298.53	0.373	15.648	0.474
298.53	0.3519	15.856	0.481
298.55	0.597	13.534	0.41
298.56	0.597	13.534	0.41
303.44	0.7088	15.625	0.474
303.45	0.18	21.651	0.656
303.45	0.3519	19.727	0.598
303.45	0.18	21.652	0.656
303.46	0.3519	19.724	0.597
303.46	0.373	19.642	0.595
303.46	0.5262	17.746	0.538
303.47	0.5262	17.746	0.538
303.49	0.597	16.911	0.512
303.49	0.597	16.91	0.512
313.34	0.7088	23.948	0.725
313.34	0.7088	23.947	0.725
313.39	0.18	32.725	0.99
313.39	0.373	29.558	0.894
313.39	0.5262	27.042	0.818
313.39	0.18	32.728	0.99
313.4	0.3519	29.93	0.906
313.4	0.373	29.562	0.895
313.4	0.5262	27.041	0.818
313.41	0.3519	29.933	0.906
313.41	0.597	25.807	0.781
313.41	0.597	25.811	0.781
323.22	0.7088	35.647	1.078
323.22	0.7088	35.646	1.078
323.26	0.18	47.855	1.447
323.27	0.373	43.392	1.312
323.27	0.373	43.389	1.312
323.28	0.18	47.86	1.447
323.28	0.5262	39.897	1.207
323.28	0.5262	39.896	1.207
323.29	0.3519	43.911	1.328
323.31	0.597	38.194	1.155
323.31	0.597	38.193	1.155
333.16	0.7088	51.946	1.57
333.16	0.7088	51.972	1.571
333.16	0.7088	51.981	1.572
333.22	0.18	68.244	2.063
333.22	0.18	68.235	2.063
333.24	0.373	62.226	1.881
333.25	0.3519	62.854	1.9
333.25	0.373	62.223	1.881
333.25	0.5262	57.454	1.737
333.25	0.597	55.204	1.669
333.25	0.5262	57.466	1.737
333.25	0.597	55.21	1.669
333.26	0.3519	62.869	1.9
343.11	0.18	94.864	2.867
343.11	0.18	94.859	2.867
343.12	0.373	86.998	2.629
343.13	0.18	94.893	2.868
343.15	0.3519	88.045	2.661
343.15	0.5262	81.108	2.451
343.16	0.597	78.137	2.362
