Measured thermophysical data. Viscosity measurements and correlations of binary mixtures: 1,1,1,2-tetrafluoroethane (HFC-134a) + tetraethylene glycol dimethylether (TEGDME)
Source: Fluid Phase Equilib., 2005, 10.1016/j.fluid.2005.03.030
Compound 1: 1,1,1,2-tetrafluoroethane, C2H2F4, InChI=1S/C2H2F4/c3-1-2(4,5)6/h1H2
Compound 2: 2,5,8,11,14-pentaoxapentadecane, C10H22O5, InChI=1S/C10H22O5/c1-11-3-5-13-7-9-15-10-8-14-6-4-12-2/h3-10H2,1-2H3

System: 2,5,8,11,14-pentaoxapentadecane + 1,1,1,2-tetrafluoroethane; phases: Liquid
Property: Viscosity, Pa*s (Liquid); method: Falling body viscometer
Pressure, kPa	Temperature, K	Mole fraction of 1,1,1,2-tetrafluoroethane	Viscosity, Pa*s	uncertainty
10000	293.15	0.2769	0.003132	4.4e-05
10000	293.15	0.4433	0.002335	3.2e-05
10000	293.15	0.6333	0.001514	2e-05
10000	293.15	0.8797	0.000557	7e-06
10000	313.15	0.2769	0.002001	3e-05
10000	313.15	0.4433	0.001527	2.2e-05
10000	313.15	0.6333	0.001046	1.4e-05
10000	313.15	0.8797	0.000412	5e-06
10000	333.15	0.2769	0.001406	1.9e-05
10000	333.15	0.4433	0.001097	1.4e-05
10000	333.15	0.6333	0.000774	1e-05
10000	333.15	0.8797	0.000321	4e-06
10000	353.15	0.2769	0.001038	1.3e-05
10000	353.15	0.4433	0.000834	1e-05
10000	353.15	0.6333	0.000609	7e-06
10000	353.15	0.8797	0.000256	3e-06
10000	373.15	0.2769	0.000832	1e-05
10000	373.15	0.4433	0.000662	8e-06
10000	373.15	0.6333	0.000471	6e-06
10000	373.15	0.8797	0.000195	3e-06
20000	293.15	0.2769	0.003378	4.7e-05
20000	293.15	0.4433	0.002537	3.5e-05
20000	293.15	0.6333	0.001679	2.2e-05
20000	293.15	0.8797	0.000613	7e-06
20000	313.15	0.2769	0.002197	3.3e-05
20000	313.15	0.4433	0.001674	2.4e-05
20000	313.15	0.6333	0.001151	1.6e-05
20000	313.15	0.8797	0.00046	6e-06
20000	333.15	0.2769	0.001533	2.1e-05
20000	333.15	0.4433	0.001195	1.6e-05
20000	333.15	0.6333	0.000845	1.1e-05
20000	333.15	0.8797	0.000364	4e-06
20000	353.15	0.2769	0.001133	1.5e-05
20000	353.15	0.4433	0.000908	1.1e-05
20000	353.15	0.6333	0.000665	8e-06
20000	353.15	0.8797	0.000299	4e-06
20000	373.15	0.2769	0.000907	1.1e-05
20000	373.15	0.4433	0.00072	9e-06
20000	373.15	0.6333	0.000524	7e-06
20000	373.15	0.8797	0.000234	3e-06
30000	293.15	0.2769	0.003669	5.1e-05
30000	293.15	0.4433	0.002765	3.8e-05
30000	293.15	0.6333	0.001851	2.4e-05
30000	293.15	0.8797	0.000671	8e-06
30000	313.15	0.2769	0.002395	3.6e-05
30000	313.15	0.4433	0.001824	2.7e-05
30000	313.15	0.6333	0.00126	1.7e-05
30000	313.15	0.8797	0.000506	6e-06
30000	333.15	0.2769	0.001664	2.3e-05
30000	333.15	0.4433	0.001297	1.7e-05
30000	333.15	0.6333	0.000922	1.2e-05
30000	333.15	0.8797	0.000405	5e-06
30000	353.15	0.2769	0.001229	1.6e-05
30000	353.15	0.4433	0.000984	1.2e-05
30000	353.15	0.6333	0.000725	9e-06
30000	353.15	0.8797	0.000336	4e-06
30000	373.15	0.2769	0.000986	1.2e-05
30000	373.15	0.4433	0.000783	1e-05
30000	373.15	0.6333	0.000577	7e-06
30000	373.15	0.8797	0.000268	3e-06
40000	293.15	0.2769	0.003992	5.5e-05
40000	293.15	0.4433	0.003014	4.1e-05
40000	293.15	0.6333	0.002031	2.7e-05
40000	293.15	0.8797	0.000733	9e-06
40000	313.15	0.2769	0.002601	3.9e-05
40000	313.15	0.4433	0.001978	2.9e-05
40000	313.15	0.6333	0.001374	1.9e-05
40000	313.15	0.8797	0.000553	7e-06
40000	333.15	0.2769	0.0018	2.5e-05
40000	333.15	0.4433	0.001402	1.9e-05
40000	333.15	0.6333	0.001003	1.3e-05
40000	333.15	0.8797	0.000444	5e-06
40000	353.15	0.2769	0.001328	1.7e-05
40000	353.15	0.4433	0.001064	1.3e-05
40000	353.15	0.6333	0.000788	9e-06
40000	353.15	0.8797	0.00037	4e-06
40000	373.15	0.2769	0.001069	1.3e-05
40000	373.15	0.4433	0.00085	1e-05
40000	373.15	0.6333	0.000631	8e-06
40000	373.15	0.8797	0.0003	4e-06
50000	293.15	0.2769	0.004341	6e-05
50000	293.15	0.4433	0.003282	4.5e-05
50000	293.15	0.6333	0.002219	2.9e-05
50000	293.15	0.8797	0.000796	1e-05
50000	313.15	0.2769	0.002816	4.3e-05
50000	313.15	0.4433	0.00214	3.2e-05
50000	313.15	0.6333	0.001493	2.1e-05
50000	313.15	0.8797	0.0006	7e-06
50000	333.15	0.2769	0.001941	2.7e-05
50000	333.15	0.4433	0.001512	2e-05
50000	333.15	0.6333	0.001087	1.4e-05
50000	333.15	0.8797	0.000483	6e-06
50000	353.15	0.2769	0.001431	1.8e-05
50000	353.15	0.4433	0.001147	1.4e-05
50000	353.15	0.6333	0.000854	1e-05
50000	353.15	0.8797	0.000404	5e-06
50000	373.15	0.2769	0.001156	1.4e-05
50000	373.15	0.4433	0.000921	1.1e-05
50000	373.15	0.6333	0.000685	8e-06
50000	373.15	0.8797	0.00033	4e-06
60000	293.15	0.2769	0.00471	6.6e-05
60000	293.15	0.4433	0.003568	4.9e-05
60000	293.15	0.6333	0.002414	3.2e-05
60000	293.15	0.8797	0.000863	1e-05
60000	313.15	0.2769	0.003043	4.6e-05
60000	313.15	0.4433	0.00231	3.4e-05
60000	313.15	0.6333	0.001616	2.3e-05
60000	313.15	0.8797	0.000647	8e-06
60000	333.15	0.2769	0.002086	2.9e-05
60000	333.15	0.4433	0.001624	2.2e-05
60000	333.15	0.6333	0.001173	1.5e-05
60000	333.15	0.8797	0.000522	6e-06
60000	353.15	0.2769	0.001539	2e-05
60000	353.15	0.4433	0.001233	1.5e-05
60000	353.15	0.6333	0.000921	1.1e-05
60000	353.15	0.8797	0.000436	5e-06
60000	373.15	0.2769	0.001247	1.5e-05
60000	373.15	0.4433	0.000994	1.2e-05
60000	373.15	0.6333	0.000739	9e-06
60000	373.15	0.8797	0.00036	4e-06
70000	293.15	0.2769	0.005095	7.1e-05
70000	293.15	0.4433	0.003871	5.4e-05
70000	293.15	0.6333	0.002617	3.5e-05
70000	293.15	0.8797	0.000932	1.1e-05
70000	313.15	0.2769	0.003282	5e-05
70000	313.15	0.4433	0.00249	3.7e-05
70000	313.15	0.6333	0.001745	2.5e-05
70000	313.15	0.8797	0.000695	9e-06
70000	333.15	0.2769	0.002236	3.1e-05
70000	333.15	0.4433	0.001741	2.3e-05
70000	333.15	0.6333	0.00126	1.6e-05
70000	333.15	0.8797	0.000561	6e-06
70000	353.15	0.2769	0.001653	2.1e-05
70000	353.15	0.4433	0.001323	1.6e-05
70000	353.15	0.6333	0.00099	1.2e-05
70000	353.15	0.8797	0.000469	5e-06
70000	373.15	0.2769	0.001342	1.6e-05
70000	373.15	0.4433	0.001069	1.3e-05
70000	373.15	0.6333	0.000794	1e-05
70000	373.15	0.8797	0.00039	5e-06
80000	293.15	0.2769	0.005495	7.7e-05
80000	293.15	0.4433	0.004191	5.8e-05
80000	293.15	0.6333	0.002827	3.7e-05
80000	293.15	0.8797	0.001003	1.2e-05
80000	313.15	0.2769	0.003535	5.4e-05
80000	313.15	0.4433	0.00268	4.1e-05
80000	313.15	0.6333	0.001878	2.7e-05
80000	313.15	0.8797	0.000744	9e-06
80000	333.15	0.2769	0.002391	3.4e-05
80000	333.15	0.4433	0.001861	2.5e-05
80000	333.15	0.6333	0.001349	1.7e-05
80000	333.15	0.8797	0.0006	7e-06
80000	353.15	0.2769	0.001773	2.2e-05
80000	353.15	0.4433	0.001415	1.7e-05
80000	353.15	0.6333	0.001061	1.3e-05
80000	353.15	0.8797	0.000501	6e-06
80000	373.15	0.2769	0.001441	1.8e-05
80000	373.15	0.4433	0.001147	1.4e-05
80000	373.15	0.6333	0.000849	1e-05
80000	373.15	0.8797	0.000419	5e-06
90000	293.15	0.2769	0.005907	8.2e-05
90000	293.15	0.4433	0.004527	6.3e-05
90000	293.15	0.6333	0.003045	4e-05
90000	293.15	0.8797	0.001077	1.3e-05
90000	313.15	0.2769	0.003803	5.9e-05
90000	313.15	0.4433	0.002881	4.4e-05
90000	313.15	0.6333	0.002016	2.9e-05
90000	313.15	0.8797	0.000794	1e-05
90000	333.15	0.2769	0.002549	3.6e-05
90000	333.15	0.4433	0.001984	2.7e-05
90000	333.15	0.6333	0.001438	1.9e-05
90000	333.15	0.8797	0.00064	7e-06
90000	353.15	0.2769	0.0019	2.4e-05
90000	353.15	0.4433	0.00151	1.9e-05
90000	353.15	0.6333	0.001132	1.3e-05
90000	353.15	0.8797	0.000533	6e-06
90000	373.15	0.2769	0.001545	1.9e-05
90000	373.15	0.4433	0.001226	1.5e-05
90000	373.15	0.6333	0.000904	1.1e-05
90000	373.15	0.8797	0.000448	5e-06
100000	293.15	0.2769	0.006329	8.8e-05
100000	293.15	0.4433	0.004877	6.8e-05
100000	293.15	0.6333	0.003269	4.3e-05
100000	293.15	0.8797	0.001154	1.4e-05
100000	313.15	0.2769	0.004088	6.3e-05
100000	313.15	0.4433	0.003094	4.8e-05
100000	313.15	0.6333	0.002159	3.1e-05
100000	313.15	0.8797	0.000845	1.1e-05
100000	333.15	0.2769	0.002712	3.9e-05
100000	333.15	0.4433	0.002111	2.9e-05
100000	333.15	0.6333	0.001529	2e-05
100000	333.15	0.8797	0.000681	8e-06
100000	353.15	0.2769	0.002035	2.6e-05
100000	353.15	0.4433	0.001609	2e-05
100000	353.15	0.6333	0.001205	1.4e-05
100000	353.15	0.8797	0.000565	6e-06
100000	373.15	0.2769	0.001654	2e-05
100000	373.15	0.4433	0.001307	1.6e-05
100000	373.15	0.6333	0.00096	1.2e-05
100000	373.15	0.8797	0.000478	5e-06
