Measured thermophysical data. The role of water soluble polymers in the phase separation of aqueous cholinium phenylalaninate solution as a green and biocompatible ionic liquid
Source: Fluid Phase Equilib., 2019, 10.1016/j.fluid.2018.12.017
Compound 1: cholinium L-phenylalaninate, C14H24N2O3, InChI=1S/C9H11NO2.C5H14NO/c10-8(9(11)12)6-7-4-2-1-3-5-7;1-6(2,3)4-5-7/h1-5,8H,6,10H2,(H,11,12);7H,4-5H2,1-3H3/q;+1/p-1/t8-;/m0./s1, purity 98%
Compound 2: water, H2O, InChI=1S/H2O/h1H2, purity 99.9%

System: cholinium L-phenylalaninate + water; phases: Liquid
Fixed: Pressure, kPa = 85
Property: Mass density, kg/m3 (Liquid); method: Vibrating tube method
Temperature, K	Molality, mol/kg of cholinium L-phenylalaninate	Mass density, kg/m3	uncertainty
288.15	0.0122	999.635	0.303
288.15	0.0204	999.99	0.303
288.15	0.0305	1000.426	0.303
288.15	0.0427	1000.938	0.303
288.15	0.0527	1001.345	0.303
288.15	0.0623	1001.733	0.303
288.15	0.0754	1002.25	0.303
298.15	0.0122	997.57	0.304
298.15	0.0204	997.915	0.303
298.15	0.0305	998.332	0.303
298.15	0.0427	998.827	0.303
298.15	0.0527	999.213	0.303
298.15	0.0623	999.575	0.303
298.15	0.0754	1000.06	0.303
308.15	0.0122	994.548	0.305
308.15	0.0204	994.891	0.304
308.15	0.0305	995.306	0.304
308.15	0.0427	995.795	0.304
308.15	0.0527	996.18	0.304
308.15	0.0623	996.537	0.304
308.15	0.0754	997.016	0.304
318.15	0.0122	990.729	0.305
318.15	0.0204	991.071	0.305
318.15	0.0305	991.482	0.305
318.15	0.0427	991.967	0.305
318.15	0.0527	992.349	0.305
318.15	0.0623	992.707	0.305
318.15	0.0754	993.18	0.305

System: cholinium L-phenylalaninate + water; phases: Liquid
Fixed: Pressure, kPa = 85
Fixed: Frequency, MHz = 3
Property: Speed of sound, m/s (Liquid); method: Single path-length method
Temperature, K	Molality, mol/kg of cholinium L-phenylalaninate	Speed of sound, m/s	uncertainty
288.15	0.0122	1469.15	1.05
288.15	0.0204	1470.91	1.05
288.15	0.0305	1473.07	1.05
288.15	0.0427	1475.68	1.06
288.15	0.0527	1477.73	1.06
288.15	0.0623	1479.76	1.06
288.15	0.0754	1482.41	1.06
298.15	0.0122	1499.5	1.06
298.15	0.0204	1501.21	1.04
298.15	0.0305	1503.35	1.05
298.15	0.0427	1505.87	1.04
298.15	0.0527	1507.91	1.05
298.15	0.0623	1509.82	1.05
298.15	0.0754	1512.37	1.04
308.15	0.0122	1522.61	1.04
308.15	0.0204	1524.27	1.03
308.15	0.0305	1526.31	1.03
308.15	0.0427	1528.76	1.03
308.15	0.0527	1530.73	1.03
308.15	0.0623	1532.55	1.03
308.15	0.0754	1535.12	1.03
318.15	0.0122	1538.28	1.02
318.15	0.0204	1539.84	1.02
318.15	0.0305	1541.74	1.02
318.15	0.0427	1543.98	1.02
318.15	0.0527	1545.8	1.02
318.15	0.0623	1547.58	1.02
318.15	0.0754	1549.89	1.02

System: cholinium L-phenylalaninate + water; phases: Liquid
Fixed: Pressure, kPa = 85
Property: Viscosity, Pa*s (Liquid); method: Capillary tube (Ostwald; Ubbelohde) method
Temperature, K	Molality, mol/kg of cholinium L-phenylalaninate	Viscosity, Pa*s	uncertainty
288.15	0.0122	0.001109	2.4e-05
288.15	0.0204	0.001117	2.4e-05
288.15	0.0305	0.001128	2.4e-05
288.15	0.0427	0.001139	2.4e-05
288.15	0.0527	0.001148	2.4e-05
288.15	0.0623	0.001157	2.5e-05
288.15	0.0754	0.001169	2.5e-05
298.15	0.0122	0.000843	1.8e-05
298.15	0.0204	0.000851	1.8e-05
298.15	0.0305	0.00086	1.8e-05
298.15	0.0427	0.000869	1.9e-05
298.15	0.0527	0.000877	1.9e-05
298.15	0.0623	0.000884	1.9e-05
298.15	0.0754	0.000892	1.9e-05
308.15	0.0122	0.000656	1.4e-05
308.15	0.0204	0.000662	1.4e-05
308.15	0.0305	0.000669	1.4e-05
308.15	0.0427	0.000678	1.5e-05
308.15	0.0527	0.000683	1.5e-05
308.15	0.0623	0.000689	1.5e-05
308.15	0.0754	0.000697	1.5e-05
318.15	0.0122	0.000531	1.1e-05
318.15	0.0204	0.000536	1.2e-05
318.15	0.0305	0.000542	1.2e-05
318.15	0.0427	0.000549	1.2e-05
318.15	0.0527	0.000553	1.2e-05
318.15	0.0623	0.000558	1.2e-05
318.15	0.0754	0.000566	1.2e-05
