Measured thermophysical data. Representation of solubilities of phenylthioanthraquinone in supercritical carbon dioxide using Hansen solubility parameter
Source: Fluid Phase Equilib., 2019, 10.1016/j.fluid.2019.02.003
Compound 1: 1,8-diphenylthioanthraquinone, C26H16O2S2, InChI=1S/C26H16O2S2/c27-25-19-13-7-15-21(29-17-9-3-1-4-10-17)23(19)26(28)24-20(25)14-8-16-22(24)30-18-11-5-2-6-12-18/h1-16H, purity 99.5%
Compound 2: 1-phenylthioanthraquinone, C20H12O2S, InChI=1S/C20H12O2S/c21-19-14-9-4-5-10-15(14)20(22)18-16(19)11-6-12-17(18)23-13-7-2-1-3-8-13/h1-12H, purity 99.7%
Compound 3: carbon dioxide, CO2, InChI=1S/CO2/c2-1-3, purity 99.9%

System: 1,8-diphenylthioanthraquinone + carbon dioxide; phases: Fluid (supercritical or subcritical phases), Crystal
Property: Mole fraction of 1,8-diphenylthioanthraquinone (Fluid (supercritical or subcritical phases)); method: Phase equilibration
Temperature, K	Pressure, kPa	Mole fraction of 1,8-diphenylthioanthraquinone	uncertainty
323.15	12500	2.584e-07	2.584e-07
323.15	15000	4.34e-07	4.34e-07
323.15	17500	6.584e-07	6.584e-07
323.15	20000	8.965e-07	8.965e-07
323.15	22500	1.096e-06	1.096e-06
323.15	25000	1.3562e-06	1.3562e-06
353.15	12500	3.8e-08	3.8e-08
353.15	15000	1.547e-07	1.547e-07
353.15	17500	3.917e-07	3.917e-07
353.15	20000	7.511e-07	7.511e-07
353.15	22500	1.1702e-06	1.1702e-06
353.15	25000	1.5945e-06	1.5945e-06
383.15	12500	1.03e-08	1.03e-08
383.15	15000	4.11e-08	4.11e-08
383.15	17500	1.895e-07	1.895e-07
383.15	20000	5.189e-07	5.189e-07
383.15	22500	1.1471e-06	1.1471e-06
383.15	25000	1.9253e-06	1.9253e-06

System: 1-phenylthioanthraquinone + carbon dioxide; phases: Fluid (supercritical or subcritical phases), Crystal
Property: Mole fraction of 1-phenylthioanthraquinone (Fluid (supercritical or subcritical phases)); method: Phase equilibration
Temperature, K	Pressure, kPa	Mole fraction of 1-phenylthioanthraquinone	uncertainty
323.15	12500	2.335e-07	2.335e-07
323.15	15000	3.686e-07	3.686e-07
323.15	17500	4.715e-07	4.715e-07
323.15	20000	6.932e-07	6.932e-07
323.15	22500	8.129e-07	8.129e-07
323.15	25000	9.942e-07	9.942e-07
353.15	12500	6.4e-08	6.4e-08
353.15	15000	2.205e-07	2.205e-07
353.15	17500	4.836e-07	4.836e-07
353.15	20000	7.342e-07	7.342e-07
353.15	22500	1.1416e-06	1.1416e-06
353.15	25000	1.4246e-06	1.4246e-06
383.15	12500	3.88e-08	3.88e-08
383.15	15000	1.184e-07	1.184e-07
383.15	17500	2.868e-07	2.868e-07
383.15	20000	6.786e-07	6.786e-07
383.15	22500	1.0522e-06	1.0522e-06
383.15	25000	1.5924e-06	1.5924e-06
