Measured thermophysical data. Temperature-dependent phase behavior of ionic liquid solutions containing N-butylpyridinium nitrate, water, and either sodium or ammonium citrate
Source: Fluid Phase Equilib., 2015, 10.1016/j.fluid.2015.06.024
Compound 1: ammonium 2-hydroxypropane-1,2,3-tricarboxylate, C6H17N3O7, InChI=1S/C6H8O7.3H3N/c7-3(8)1-6(13,5(11)12)2-4(9)10;;;/h13H,1-2H2,(H,7,8)(H,9,10)(H,11,12);3*1H3, purity 99%
Compound 2: water, H2O, InChI=1S/H2O/h1H2, purity 99.8%
Compound 3: 1-butylpyridinium nitrate, C9H14N2O3, InChI=1S/C9H14N.NO3/c1-2-3-7-10-8-5-4-6-9-10;2-1(3)4/h4-6,8-9H,2-3,7H2,1H3;/q+1;-1, purity 99%
Compound 4: trisodium citrate, C6H5Na3O7, InChI=1S/C6H8O7.3Na/c7-3(8)1-6(13,5(11)12)2-4(9)10;;;/h13H,1-2H2,(H,7,8)(H,9,10)(H,11,12);;;/q;3*+1/p-3, purity 99%

System: ammonium 2-hydroxypropane-1,2,3-tricarboxylate + water + 1-butylpyridinium nitrate; phases: Liquid mixture 1, Liquid mixture 2
Fixed: Pressure, kPa = 100
Property: Mole fraction of ammonium 2-hydroxypropane-1,2,3-tricarboxylate (Liquid mixture 1); method: Titration method
Temperature, K	Mole fraction of 1-butylpyridinium nitrate	Mole fraction of ammonium 2-hydroxypropane-1,2,3-tricarboxylate	uncertainty
298.15	0.7852	0.0101	0.0004
298.15	0.7514	0.0222	0.0007
298.15	0.6844	0.0302	0.0009
298.15	0.6714	0.0352	0.0011
298.15	0.6601	0.0394	0.0012
298.15	0.6562	0.0405	0.0013
298.15	0.6446	0.0466	0.0015
298.15	0.6308	0.0497	0.0015
298.15	0.6136	0.0588	0.0018
298.15	0.5828	0.0793	0.0025
298.15	0.5152	0.1058	0.0033
298.15	0.4802	0.1273	0.0039
298.15	0.4646	0.1367	0.0042
298.15	0.4467	0.1481	0.0046
298.15	0.4345	0.1521	0.0047
298.15	0.4268	0.1565	0.0049
298.15	0.4235	0.1631	0.0051
298.15	0.4208	0.1646	0.0051
298.15	0.4143	0.1653	0.0051
298.15	0.4072	0.1702	0.0053
298.15	0.398	0.1763	0.0055
298.15	0.3963	0.1811	0.0056
298.15	0.3907	0.1834	0.0057
298.15	0.3829	0.1867	0.0058
298.15	0.3803	0.1894	0.0059
298.15	0.3763	0.1918	0.0059
298.15	0.367	0.1984	0.0062
298.15	0.3571	0.2052	0.0064
298.15	0.3551	0.2071	0.0064
298.15	0.3534	0.2076	0.0064
298.15	0.3505	0.2089	0.0065
298.15	0.3464	0.2133	0.0066
298.15	0.3372	0.2196	0.0068
298.15	0.3249	0.2281	0.0071
298.15	0.3167	0.2348	0.0073
298.15	0.3051	0.2433	0.0075
298.15	0.2926	0.2524	0.0078
298.15	0.2792	0.2623	0.0081
298.15	0.2676	0.2721	0.0084
298.15	0.2552	0.2819	0.0087
298.15	0.2462	0.2903	0.009
298.15	0.2408	0.2936	0.0091
298.15	0.2314	0.3016	0.0094
298.15	0.2306	0.3027	0.0094
298.15	0.2246	0.3091	0.0096
298.15	0.2123	0.32	0.0099
298.15	0.2048	0.328	0.0102
298.15	0.194	0.3389	0.0105
298.15	0.1843	0.3496	0.0108
298.15	0.1714	0.3666	0.0114
298.15	0.1653	0.3778	0.0117
298.15	0.1613	0.3888	0.0121
298.15	0.1448	0.4021	0.0125
308.15	0.7216	0.031	0.001
308.15	0.6714	0.0396	0.0012
308.15	0.6311	0.0582	0.0018
308.15	0.6037	0.0685	0.0021
308.15	0.5666	0.0873	0.0027
308.15	0.5485	0.094	0.0029
308.15	0.5337	0.1012	0.0031
308.15	0.5237	0.1067	0.0033
308.15	0.5149	0.1118	0.0035
308.15	0.5049	0.1176	0.0036
308.15	0.499	0.1214	0.0038
308.15	0.5012	0.1215	0.0038
308.15	0.4908	0.1265	0.0039
308.15	0.4823	0.1317	0.0041
308.15	0.4758	0.1363	0.0042
308.15	0.4631	0.1441	0.0045
308.15	0.4568	0.1487	0.0046
308.15	0.4442	0.1563	0.0048
308.15	0.4362	0.1618	0.005
308.15	0.4274	0.1681	0.0052
308.15	0.415	0.1761	0.0055
308.15	0.4074	0.182	0.0056
308.15	0.3957	0.1903	0.0059
308.15	0.3837	0.1987	0.0062
308.15	0.3719	0.2075	0.0064
308.15	0.3603	0.2164	0.0067
308.15	0.3469	0.2262	0.007
308.15	0.3314	0.2377	0.0074
308.15	0.3146	0.2503	0.0078
308.15	0.2945	0.2657	0.0082
308.15	0.28	0.278	0.0086
308.15	0.2622	0.292	0.0091
308.15	0.2447	0.3064	0.0095
308.15	0.2277	0.322	0.01
308.15	0.2186	0.3307	0.0103
308.15	0.2064	0.3431	0.0106
308.15	0.1949	0.3558	0.011
318.15	0.7152	0.0349	0.0011
318.15	0.6662	0.0509	0.0016
318.15	0.6209	0.066	0.002
318.15	0.5905	0.0798	0.0025
318.15	0.5586	0.0924	0.0029
318.15	0.5484	0.0962	0.003
318.15	0.5391	0.1011	0.0031
318.15	0.5293	0.1065	0.0033
318.15	0.5274	0.11	0.0034
318.15	0.5211	0.1113	0.0035
318.15	0.5115	0.1169	0.0036
318.15	0.5012	0.123	0.0038
318.15	0.4926	0.1285	0.004
318.15	0.4851	0.1333	0.0041
318.15	0.4765	0.1387	0.0043
318.15	0.4773	0.1402	0.0044
318.15	0.469	0.1438	0.0045
318.15	0.4598	0.1501	0.0047
318.15	0.4477	0.158	0.0049
318.15	0.4383	0.1646	0.0051
318.15	0.4291	0.1714	0.0053
318.15	0.4164	0.1802	0.0056
318.15	0.4041	0.189	0.0059
318.15	0.3919	0.1979	0.0061
318.15	0.3798	0.207	0.0064
318.15	0.3669	0.2168	0.0067
318.15	0.3547	0.2262	0.007
318.15	0.3397	0.2374	0.0074
318.15	0.3293	0.2464	0.0076
318.15	0.308	0.2621	0.0081
318.15	0.2897	0.2763	0.0086
318.15	0.2836	0.2836	0.0088
318.15	0.2569	0.3038	0.0094
318.15	0.2388	0.3193	0.0099
318.15	0.2227	0.3339	0.0103
318.15	0.216	0.3428	0.0106
328.15	0.768	0.021	0.0007
328.15	0.7371	0.0292	0.0009
328.15	0.7205	0.0333	0.001
328.15	0.6939	0.0404	0.0013
328.15	0.6559	0.0468	0.0015
328.15	0.6478	0.0491	0.0015
328.15	0.6282	0.0607	0.0019
328.15	0.5955	0.0745	0.0023
328.15	0.5896	0.077	0.0024
328.15	0.572	0.0852	0.0026
328.15	0.5646	0.0896	0.0028
328.15	0.5409	0.1015	0.0031
328.15	0.5095	0.1174	0.0036
328.15	0.4736	0.1377	0.0043
328.15	0.4689	0.1392	0.0043
328.15	0.4406	0.1597	0.005
328.15	0.4051	0.1871	0.0058
328.15	0.3935	0.194	0.006
328.15	0.3835	0.2001	0.0062
328.15	0.3757	0.2051	0.0064
328.15	0.3648	0.2118	0.0066
328.15	0.3552	0.2178	0.0068
328.15	0.3468	0.2233	0.0069
328.15	0.3381	0.229	0.0071
328.15	0.3271	0.236	0.0073
328.15	0.319	0.2415	0.0075
328.15	0.31	0.2475	0.0077
328.15	0.3016	0.253	0.0078
328.15	0.2959	0.2574	0.008
328.15	0.2807	0.267	0.0083
328.15	0.2723	0.273	0.0085
328.15	0.2629	0.2797	0.0087
328.15	0.2562	0.2849	0.0088
328.15	0.2473	0.2915	0.009
328.15	0.2323	0.3009	0.0093
328.15	0.2193	0.3106	0.0096
328.15	0.2091	0.318	0.0099
328.15	0.2032	0.3187	0.0099
328.15	0.1995	0.3251	0.0101
328.15	0.1873	0.3338	0.0104
328.15	0.1756	0.3424	0.0106
328.15	0.1656	0.35	0.0109
328.15	0.161	0.3502	0.0109
328.15	0.1568	0.3566	0.0111
328.15	0.1454	0.3651	0.0113
328.15	0.1357	0.3731	0.0116
328.15	0.1259	0.3809	0.0118
328.15	0.1195	0.3878	0.012
328.15	0.1178	0.3878	0.012
328.15	0.1093	0.395	0.0123
328.15	0.1007	0.4023	0.0125
328.15	0.0961	0.4073	0.0127
328.15	0.0891	0.4139	0.0129
328.15	0.0818	0.4206	0.0131
328.15	0.0746	0.4299	0.0135
328.15	0.0742	0.4302	0.0135

System: ammonium 2-hydroxypropane-1,2,3-tricarboxylate + water + 1-butylpyridinium nitrate; phases: Liquid mixture 1, Liquid mixture 2
Fixed: Pressure, kPa = 100
Property: Mole fraction of ammonium 2-hydroxypropane-1,2,3-tricarboxylate (Liquid mixture 1); method: atomic absorption spectroscopy
Property: Mole fraction of 1-butylpyridinium nitrate (Liquid mixture 2); method: atomic absorption spectroscopy
Property: Mole fraction of ammonium 2-hydroxypropane-1,2,3-tricarboxylate (Liquid mixture 2); method: atomic absorption spectroscopy
Temperature, K	Mole fraction of 1-butylpyridinium nitrate	Mole fraction of ammonium 2-hydroxypropane-1,2,3-tricarboxylate	uncertainty	Mole fraction of 1-butylpyridinium nitrate	uncertainty	Mole fraction of ammonium 2-hydroxypropane-1,2,3-tricarboxylate	uncertainty
298.15	0.5422	0.0872	0.0202	0.1824	0.0215	0.3498	
328.15	0.5832	0.0811	0.0201	0.1344	0.0218	0.3747	
328.15	0.7582	0.0221	0.02	0.0479	0.0126	0.4739	
308.15	0.6679	0.0445	0.0201	0.0541	0.0122	0.5157	
328.15	0.6667	0.047	0.0201	0.0944	0.0192	0.4133	
328.15	0.727	0.0293	0.02	0.0447	0.0126	0.4796	
328.15	0.799	0.0146	0.0146	0.0336	0.0113	0.5008	
308.15	0.6726	0.0431	0.02	0.0543	0.0122	0.5154	
328.15	0.6805	0.0425	0.0201	0.0998	0.0192	0.4076	
328.15	0.7256	0.0296	0.02	0.0628	0.0161	0.4513	
328.15	0.8036	0.0138	0.0138	0.0358	0.0114	0.4966	
318.15	0.7365	0.0304	0.02	0.0825	0.0118	0.4867	
328.15	0.7667	0.0204	0.02	0.0432	0.0134	0.4821	
298.15	0.6888	0.0321	0.02	0.0872	0.0162	0.4509	
328.15	0.6728	0.045	0.0201	0.1023	0.0191	0.405	
308.15	0.659	0.0474	0.0201	0.0796	0.0143	0.4751	
298.15	0.5563	0.0803	0.0202	0.1388	0.0207	0.3917	
298.15	0.6377	0.0472	0.0201	0.069	0.0147	0.4767	
298.15	0.6593	0.0403	0.0201	0.0975	0.0161	0.4379	
298.15	0.7271	0.0232	0.02	0.0683	0.0147	0.4777	
308.15	0.7151	0.0314	0.02	0.0355	0.0085	0.5543	
298.15	0.6344	0.0483	0.0201	0.1379	0.0207	0.3926	
318.15	0.6754	0.0466	0.0201	0.1254	0.0107	0.4317	
308.15	0.6453	0.052	0.0201	0.0589	0.0121	0.5069	
308.15	0.7184	0.0305	0.02	0.0341	0.0084	0.552	
308.15	0.7141	0.0316	0.02	0.0384	0.0085	0.5474	
308.15	0.7618	0.0211	0.02	0.017	0.0064	0.6134	
298.15	0.6222	0.0526	0.0201	0.0962	0.0161	0.4394	
308.15	0.7715	0.0193	0.0193	0.008	0.0053	0.6651	
308.15	0.7018	0.0347	0.02	0.0374	0.0085	0.5501	
318.15	0.5935	0.0767	0.0201	0.1461	0.0238	0.4089	
318.15	0.7003	0.0394	0.02	0.099	0.0215	0.464	
318.15	0.5567	0.0937	0.0202	0.1635	0.0237	0.3909	
298.15	0.6499	0.0432	0.0201	0.1162	0.0185	0.416	
318.15	0.6442	0.0568	0.0201	0.1233	0.0234	0.4342	
318.15	0.5036	0.1225	0.0203	0.2329	0.0249	0.3259	
318.15	0.7199	0.0343	0.02	0.0792	0.0159	0.4917	
318.15	0.6476	0.0557	0.0201	0.1068	0.0187	0.454	
298.15	0.6274	0.0508	0.0201	0.098	0.0161	0.4372	
318.15	0.7575	0.0258	0.0201	0.0575	0.0129	0.5274	

System: trisodium citrate + water + 1-butylpyridinium nitrate; phases: Liquid mixture 1, Liquid mixture 2
Fixed: Pressure, kPa = 100
Property: Mole fraction of trisodium citrate (Liquid mixture 1); method: Titration method
Temperature, K	Mole fraction of 1-butylpyridinium nitrate	Mole fraction of trisodium citrate	uncertainty
298.15	0.7896	0.0051	0.0003
298.15	0.6851	0.0208	0.0007
298.15	0.6017	0.0307	0.001
298.15	0.5939	0.0332	0.001
298.15	0.5804	0.0376	0.0012
298.15	0.572	0.04	0.0012
298.15	0.5646	0.0428	0.0013
298.15	0.5572	0.0456	0.0014
298.15	0.4803	0.0641	0.002
298.15	0.4704	0.0679	0.0021
298.15	0.4595	0.0723	0.0022
298.15	0.4581	0.073	0.0023
298.15	0.4562	0.0739	0.0023
298.15	0.4551	0.0746	0.0023
298.15	0.4538	0.0754	0.0023
298.15	0.4514	0.0764	0.0024
298.15	0.4496	0.0772	0.0024
298.15	0.4463	0.0787	0.0024
298.15	0.4422	0.0802	0.0025
298.15	0.4396	0.0812	0.0025
298.15	0.4383	0.0822	0.0026
298.15	0.4352	0.0836	0.0026
298.15	0.4288	0.0864	0.0027
298.15	0.4249	0.0878	0.0027
298.15	0.4201	0.0902	0.0028
298.15	0.415	0.0926	0.0029
298.15	0.4128	0.0939	0.0029
298.15	0.4114	0.095	0.0029
298.15	0.4099	0.096	0.003
298.15	0.4031	0.099	0.0031
298.15	0.4017	0.1	0.0031
298.15	0.3994	0.1012	0.0031
298.15	0.398	0.1023	0.0032
298.15	0.3944	0.1041	0.0032
298.15	0.3909	0.1058	0.0033
298.15	0.3876	0.1075	0.0033
298.15	0.3861	0.1088	0.0034
298.15	0.3837	0.1102	0.0034
298.15	0.3814	0.1118	0.0035
298.15	0.3781	0.1132	0.0035
298.15	0.375	0.1149	0.0036
298.15	0.3704	0.1175	0.0036
298.15	0.3637	0.1213	0.0038
298.15	0.3613	0.1229	0.0038
298.15	0.3577	0.1253	0.0039
298.15	0.3559	0.1267	0.0039
298.15	0.352	0.1289	0.004
298.15	0.3485	0.1309	0.0041
298.15	0.3464	0.1325	0.0041
298.15	0.3437	0.1344	0.0042
298.15	0.338	0.1371	0.0043
298.15	0.3349	0.1392	0.0043
298.15	0.3304	0.1424	0.0044
298.15	0.3277	0.1439	0.0045
298.15	0.3277	0.1441	0.0045
298.15	0.3229	0.1469	0.0046
298.15	0.3194	0.1494	0.0046
298.15	0.319	0.1496	0.0046
298.15	0.3158	0.1515	0.0047
298.15	0.3147	0.1516	0.0047
298.15	0.3135	0.154	0.0048
298.15	0.3073	0.1574	0.0049
298.15	0.3035	0.1601	0.005
298.15	0.2996	0.1628	0.005
298.15	0.2971	0.1652	0.0051
298.15	0.2928	0.1663	0.0052
298.15	0.2927	0.1682	0.0052
298.15	0.2873	0.1717	0.0053
298.15	0.282	0.1752	0.0054
298.15	0.2561	0.1899	0.0059
298.15	0.2477	0.1949	0.006
298.15	0.2419	0.199	0.0062
298.15	0.237	0.2029	0.0063
298.15	0.2289	0.2083	0.0065
298.15	0.2213	0.2131	0.0066
298.15	0.2175	0.2169	0.0067
298.15	0.21	0.222	0.0069
298.15	0.2024	0.2277	0.0071
298.15	0.1969	0.233	0.0072
298.15	0.1844	0.2426	0.0075
298.15	0.1787	0.2476	0.0077
298.15	0.1755	0.2491	0.0077
298.15	0.1681	0.255	0.0079
298.15	0.1663	0.2569	0.008
298.15	0.1627	0.2625	0.0081
298.15	0.1607	0.2627	0.0081
298.15	0.1536	0.2685	0.0083
298.15	0.1473	0.2745	0.0085
298.15	0.1469	0.2746	0.0085
298.15	0.144	0.2793	0.0087
298.15	0.1413	0.2804	0.0087
298.15	0.1374	0.2853	0.0088
298.15	0.1364	0.2861	0.0089
298.15	0.1341	0.2929	0.0091
298.15	0.1302	0.2964	0.0092
298.15	0.123	0.2989	0.0093
298.15	0.1184	0.3048	0.0095
298.15	0.1153	0.3094	0.0096
298.15	0.1132	0.311	0.0096
298.15	0.1105	0.3177	0.0099
298.15	0.1084	0.3179	0.0099
298.15	0.1077	0.3225	0.01
298.15	0.1025	0.3309	0.0103
298.15	0.0993	0.3324	0.0103
308.15	0.7879	0.0064	0.0003
308.15	0.715	0.0105	0.0004
308.15	0.5608	0.04	0.0012
308.15	0.5419	0.0456	0.0014
308.15	0.5215	0.0536	0.0017
308.15	0.5136	0.0562	0.0017
308.15	0.5056	0.0591	0.0018
308.15	0.496	0.0631	0.002
308.15	0.4864	0.0669	0.0021
308.15	0.4769	0.071	0.0022
308.15	0.4688	0.0741	0.0023
308.15	0.4634	0.0757	0.0023
308.15	0.4498	0.0816	0.0025
308.15	0.4478	0.0827	0.0026
308.15	0.4452	0.0839	0.0026
308.15	0.4427	0.085	0.0026
308.15	0.4403	0.0862	0.0027
308.15	0.4382	0.0873	0.0027
308.15	0.4349	0.0888	0.0028
308.15	0.4324	0.0901	0.0028
308.15	0.4297	0.0914	0.0028
308.15	0.4273	0.0926	0.0029
308.15	0.4239	0.0942	0.0029
308.15	0.4204	0.0957	0.003
308.15	0.4172	0.0972	0.003
308.15	0.4146	0.0986	0.0031
308.15	0.4114	0.1003	0.0031
308.15	0.4092	0.1016	0.0032
308.15	0.4066	0.1031	0.0032
308.15	0.4044	0.1044	0.0032
308.15	0.4023	0.1058	0.0033
308.15	0.3995	0.1074	0.0033
308.15	0.3966	0.109	0.0034
308.15	0.3933	0.1108	0.0034
308.15	0.3896	0.1127	0.0035
308.15	0.3865	0.1145	0.0036
308.15	0.3806	0.1172	0.0036
308.15	0.3777	0.1193	0.0037
308.15	0.3748	0.1211	0.0038
308.15	0.3722	0.1228	0.0038
308.15	0.3685	0.1249	0.0039
308.15	0.3649	0.1271	0.0039
308.15	0.3616	0.129	0.004
308.15	0.3578	0.1313	0.0041
308.15	0.35	0.136	0.0042
308.15	0.3467	0.1383	0.0043
308.15	0.343	0.1408	0.0044
308.15	0.3386	0.1435	0.0045
308.15	0.3374	0.146	0.0045
308.15	0.3342	0.1481	0.0046
308.15	0.3287	0.1492	0.0046
308.15	0.3247	0.152	0.0047
308.15	0.3213	0.1544	0.0048
308.15	0.3178	0.1569	0.0049
308.15	0.3121	0.1604	0.005
308.15	0.3083	0.1633	0.0051
308.15	0.3061	0.1647	0.0051
308.15	0.3033	0.1666	0.0052
308.15	0.2982	0.1701	0.0053
308.15	0.2949	0.1728	0.0054
308.15	0.2847	0.1778	0.0055
308.15	0.2814	0.1809	0.0056
308.15	0.2764	0.1845	0.0057
308.15	0.2684	0.1889	0.0059
308.15	0.264	0.1924	0.006
308.15	0.2565	0.1973	0.0061
308.15	0.2521	0.2011	0.0062
308.15	0.2416	0.2076	0.0064
308.15	0.235	0.2126	0.0066
308.15	0.2303	0.2166	0.0067
308.15	0.2232	0.2219	0.0069
308.15	0.2128	0.2286	0.0071
308.15	0.2068	0.2337	0.0072
308.15	0.1988	0.2397	0.0074
308.15	0.1926	0.2452	0.0076
308.15	0.1816	0.2527	0.0078
308.15	0.1771	0.2578	0.008
308.15	0.1687	0.2645	0.0082
308.15	0.1637	0.2702	0.0084
308.15	0.1561	0.2771	0.0086
308.15	0.1467	0.2841	0.0088
308.15	0.1409	0.2904	0.009
308.15	0.1372	0.296	0.0092
308.15	0.1291	0.3079	0.0095
308.15	0.1215	0.3157	0.0098
318.15	0.5306	0.0535	0.0017
318.15	0.5139	0.0595	0.0018
318.15	0.4944	0.0675	0.0021
318.15	0.4787	0.0731	0.0023
318.15	0.4596	0.0814	0.0025
318.15	0.4335	0.0945	0.0029
318.15	0.4271	0.0994	0.0031
318.15	0.4241	0.101	0.0031
318.15	0.4206	0.1029	0.0032
318.15	0.4174	0.1045	0.0032
318.15	0.4142	0.1062	0.0033
318.15	0.4111	0.1082	0.0034
318.15	0.4078	0.1101	0.0034
318.15	0.4039	0.1105	0.0034
318.15	0.4042	0.1121	0.0035
318.15	0.4008	0.1141	0.0035
318.15	0.3977	0.1162	0.0036
318.15	0.3938	0.1183	0.0037
318.15	0.3885	0.1211	0.0038
318.15	0.3842	0.1235	0.0038
318.15	0.3813	0.1255	0.0039
318.15	0.3774	0.1281	0.004
318.15	0.3726	0.1308	0.0041
318.15	0.3679	0.1336	0.0041
318.15	0.3637	0.1365	0.0042
318.15	0.3609	0.1389	0.0043
318.15	0.3539	0.1424	0.0044
318.15	0.3509	0.1448	0.0045
318.15	0.3468	0.1477	0.0046
318.15	0.342	0.1498	0.0046
318.15	0.3388	0.1533	0.0048
318.15	0.3341	0.1564	0.0048
318.15	0.3293	0.1596	0.0049
318.15	0.3244	0.1628	0.005
318.15	0.3179	0.1666	0.0052
318.15	0.3124	0.1703	0.0053
318.15	0.3068	0.1741	0.0054
318.15	0.3011	0.1785	0.0055
318.15	0.2938	0.1833	0.0057
318.15	0.2874	0.1878	0.0058
318.15	0.2796	0.1929	0.006
318.15	0.2733	0.1979	0.0061
318.15	0.2628	0.2042	0.0063
318.15	0.2553	0.2098	0.0065
318.15	0.247	0.2158	0.0067
318.15	0.2359	0.2231	0.0069
318.15	0.2303	0.2282	0.0071
318.15	0.2204	0.2349	0.0073
318.15	0.2129	0.2409	0.0075
318.15	0.2048	0.2473	0.0077
318.15	0.1981	0.2534	0.0079
318.15	0.1895	0.2609	0.0081
318.15	0.1712	0.2759	0.0086
318.15	0.1625	0.2837	0.0088
318.15	0.1533	0.2917	0.009
318.15	0.1499	0.2974	0.0092
318.15	0.1401	0.3071	0.0095
328.15	0.7922	0.0044	0.0002
328.15	0.7582	0.0119	0.0004
328.15	0.6502	0.0256	0.0009
328.15	0.6451	0.026	0.0009
328.15	0.6035	0.035	0.0011
328.15	0.5928	0.0389	0.0012
328.15	0.5759	0.0402	0.0012
328.15	0.5542	0.0502	0.0016
328.15	0.5474	0.0515	0.0016
328.15	0.5401	0.0544	0.0017
328.15	0.5259	0.0604	0.0019
328.15	0.5186	0.0616	0.0019
328.15	0.5104	0.0653	0.002
328.15	0.4983	0.0705	0.0022
328.15	0.4897	0.0736	0.0023
328.15	0.4792	0.0781	0.0024
328.15	0.4675	0.0835	0.0026
328.15	0.4606	0.0862	0.0027
328.15	0.4491	0.0916	0.0028
328.15	0.4381	0.0968	0.003
328.15	0.4189	0.1072	0.0033
328.15	0.4035	0.1145	0.0036
328.15	0.3994	0.1179	0.0037
328.15	0.3956	0.1187	0.0037
328.15	0.3917	0.121	0.0038
328.15	0.39	0.123	0.0038
328.15	0.3851	0.1254	0.0039
328.15	0.381	0.1278	0.004
328.15	0.3776	0.1301	0.004
328.15	0.3756	0.1307	0.0041
328.15	0.3711	0.1334	0.0041
328.15	0.3681	0.1357	0.0042
328.15	0.3646	0.1381	0.0043
328.15	0.3595	0.1411	0.0044
328.15	0.356	0.1436	0.0045
328.15	0.3504	0.1468	0.0046
328.15	0.3468	0.1496	0.0046
328.15	0.3409	0.1531	0.0047
328.15	0.3367	0.1562	0.0048
328.15	0.3315	0.1596	0.0049
328.15	0.3272	0.1629	0.005
328.15	0.3216	0.1665	0.0052
328.15	0.3161	0.1702	0.0053
328.15	0.2799	0.1929	0.006
328.15	0.2762	0.1963	0.0061
328.15	0.2686	0.2011	0.0062
328.15	0.2598	0.2067	0.0064
328.15	0.2544	0.211	0.0065
328.15	0.2458	0.2167	0.0067
328.15	0.2428	0.2205	0.0068
328.15	0.2334	0.2268	0.007
328.15	0.2233	0.2335	0.0072
328.15	0.2144	0.2394	0.0074
328.15	0.2075	0.2453	0.0076
328.15	0.2011	0.2511	0.0078
328.15	0.1992	0.2539	0.0079
328.15	0.1926	0.2603	0.0081
328.15	0.185	0.2666	0.0083
328.15	0.1805	0.2696	0.0084
328.15	0.1766	0.274	0.0085
328.15	0.1691	0.2782	0.0086
328.15	0.1677	0.282	0.0087
328.15	0.1643	0.2839	0.0088
328.15	0.1587	0.2866	0.0089
328.15	0.15	0.2944	0.0091
328.15	0.149	0.2997	0.0093
328.15	0.1455	0.3003	0.0093
328.15	0.1347	0.3096	0.0096

System: trisodium citrate + water + 1-butylpyridinium nitrate; phases: Liquid mixture 2, Liquid mixture 1
Fixed: Pressure, kPa = 100
Property: Mole fraction of trisodium citrate (Liquid mixture 2); method: atomic absorption spectroscopy
Property: Mole fraction of trisodium citrate (Liquid mixture 1); method: atomic absorption spectroscopy
Property: Mole fraction of 1-butylpyridinium nitrate (Liquid mixture 1); method: atomic absorption spectroscopy
Temperature, K	Mole fraction of 1-butylpyridinium nitrate	Mole fraction of trisodium citrate	uncertainty	Mole fraction of trisodium citrate	uncertainty	Mole fraction of 1-butylpyridinium nitrate	uncertainty
298.15	0.1222	0.3012	0.008	0.0762	0.0024	0.4552	
298.15	0.1351	0.2887	0.0077	0.0795	0.0025	0.4474	
308.15	0.1163	0.3143	0.0079	0.0745	0.0024	0.4668	
308.15	0.0803	0.3538	0.0096	0.0484	0.0017	0.5382	
308.15	0.0703	0.3665	0.0101	0.0467	0.0016	0.5437	
308.15	0.0599	0.3812	0.0105	0.0387	0.0014	0.5719	
308.15	0.0118	0.4951	0.015	0.0062	0.0007	0.7741	
308.15	0.1116	0.3189	0.0085	0.0808	0.0026	0.4525	
308.15	0.0609	0.3797	0.0105	0.0367	0.0013	0.5796	
308.15	0.0861	0.3469	0.0088	0.04	0.0014	0.567	
308.15	0.0583	0.3834	0.0127	0.0409	0.0015	0.5637	
298.15	0.1023	0.3219	0.0087	0.0625	0.002	0.4911	
308.15	0.1163	0.3143	0.0079	0.0745	0.0024	0.4668	
318.15	0.0772	0.3691	0.0096	0.0461	0.0017	0.5519	
318.15	0.1823	0.267	0.007	0.165	0.0046	0.3198	
318.15	0.1478	0.2963	0.0078	0.1046	0.0032	0.4172	
318.15	0.1274	0.315	0.0076	0.0717	0.0024	0.4839	
318.15	0.1345	0.3084	0.0081	0.0712	0.0024	0.4848	
318.15	0.0804	0.3651	0.0094	0.0618	0.0021	0.5076	
318.15	0.1417	0.3018	0.0079	0.1031	0.0032	0.4198	
318.15	0.1359	0.3071	0.008	0.0802	0.0027	0.465	
318.15	0.178	0.2705	0.0071	0.1205	0.0038	0.3895	
298.15	0.1106	0.3131	0.0084	0.0726	0.0023	0.4641	
328.15	0.094	0.3494	0.0091	0.0488	0.0017	0.5559	
328.15	0.2086	0.2466	0.0065	0.159	0.0045	0.3318	
328.15	0.1606	0.2855	0.0075	0.1188	0.0035	0.3975	
328.15	0.1339	0.3092	0.0081	0.1011	0.0031	0.43	
328.15	0.1543	0.291	0.0076	0.1265	0.0038	0.3842	
328.15	0.1668	0.2803	0.0073	0.1521	0.0044	0.3425	
328.15	0.0909	0.3529	0.0092	0.0466	0.0016	0.5632	
328.15	0.1248	0.3178	0.0084	0.0751	0.0025	0.4849	
328.15	0.1935	0.2585	0.0068	0.1574	0.0045	0.3343	
328.15	0.1395	0.3041	0.0079	0.0801	0.0027	0.4736	
298.15	0.1381	0.2859	0.0077	0.085	0.0026	0.4348	
298.15	0.1169	0.3065	0.0082	0.0668	0.0021	0.4793	
298.15	0.0968	0.3279	0.0088	0.0596	0.002	0.4995	
298.15	0.1277	0.2958	0.0079	0.0696	0.0022	0.4719	
298.15	0.108	0.3157	0.0085	0.069	0.0022	0.4735	
298.15	0.135	0.2889	0.0077	0.0743	0.0023	0.4601	
