Measured thermophysical data. Excess molar enthalpies of ethyl acetoacetate + (methanol, +ethanol, +1-propanol, and +2-propanol) at T = (298.15, 313.15 and 328.15)K and p = (0.1 and 10.0)MPa
Source: Fluid Phase Equilib., 2008, 10.1016/j.fluid.2008.03.012
Compound 1: ethyl 3-oxobutanoate, C6H10O3, InChI=1S/C6H10O3/c1-3-9-6(8)4-5(2)7/h3-4H2,1-2H3, purity 99.5%
Compound 2: methanol, CH4O, InChI=1S/CH4O/c1-2/h2H,1H3, purity 99.7%
Compound 3: ethanol, C2H6O, InChI=1S/C2H6O/c1-2-3/h3H,2H2,1H3, purity 99.7%
Compound 4: propan-1-ol, C3H8O, InChI=1S/C3H8O/c1-2-3-4/h4H,2-3H2,1H3, purity 99.7%
Compound 5: propan-2-ol, C3H8O, InChI=1S/C3H8O/c1-3(2)4/h3-4H,1-2H3, purity 99.7%

System: ethyl 3-oxobutanoate; phases: Liquid
Fixed: Pressure, kPa = 101.325
Property: Mass density, kg/m3 (Liquid); method: PYCNOM:UFactor:4
Temperature, K	Mass density, kg/m3	uncertainty
278.15	1043.1	5
288.15	1034.5	1.1
298.15	1023.5	1.1
313.15	1008	1.2
328.15	992.1	1.3
338.15	981.9	1.4
348.15	971.4	1.5

System: methanol + ethyl 3-oxobutanoate; phases: Liquid
Property: Excess molar enthalpy (molar enthalpy of mixing), kJ/mol (Liquid); method: Flow calorimetry
Temperature, K	Pressure, kPa	Mole fraction of ethyl 3-oxobutanoate	Excess molar enthalpy (molar enthalpy of mixing), kJ/mol	uncertainty
298.15	100	0.0998	0.5032	0.0115
298.15	100	0.2002	0.8451	0.0185
298.15	100	0.2994	1.0708	0.0231
298.15	100	0.3505	1.1472	0.0247
298.15	100	0.3995	1.2001	0.0258
298.15	100	0.4495	1.2328	0.0265
298.15	100	0.4998	1.2452	0.0267
298.15	100	0.5495	1.2366	0.0265
298.15	100	0.5997	1.2068	0.0259
298.15	100	0.65	1.1513	0.0248
298.15	100	0.6995	1.0741	0.0232
298.15	100	0.7994	0.8324	0.0182
298.15	100	0.8982	0.4647	0.0108
298.15	10000	0.0996	0.4843	0.0111
298.15	10000	0.1999	0.8222	0.018
298.15	10000	0.299	1.0357	0.0224
298.15	10000	0.35	1.1086	0.0239
298.15	10000	0.399	1.1567	0.0249
298.15	10000	0.449	1.1844	0.0255
298.15	10000	0.4993	1.1955	0.0257
298.15	10000	0.5489	1.1837	0.0255
298.15	10000	0.5992	1.1485	0.0247
298.15	10000	0.6495	1.094	0.0236
298.15	10000	0.699	1.0123	0.0219
298.15	10000	0.799	0.76	0.0168
298.15	10000	0.898	0.4125	0.0097
313.15	100	0.0998	0.563	0.0128
313.15	100	0.2002	0.9487	0.0206
313.15	100	0.2994	1.1909	0.0256
313.15	100	0.3505	1.2762	0.0274
313.15	100	0.3995	1.3298	0.0285
313.15	100	0.4495	1.3639	0.0292
313.15	100	0.4998	1.3798	0.0296
313.15	100	0.5495	1.3625	0.0292
313.15	100	0.5997	1.3307	0.0285
313.15	100	0.65	1.27	0.0273
313.15	100	0.6995	1.1667	0.0252
313.15	100	0.7994	0.8837	0.0193
313.15	100	0.8982	0.4793	0.0112
313.15	10000	0.0996	0.5554	0.0127
313.15	10000	0.1999	0.9408	0.0205
313.15	10000	0.299	1.1838	0.0255
313.15	10000	0.35	1.2696	0.0273
313.15	10000	0.399	1.3272	0.0285
313.15	10000	0.449	1.3606	0.0292
313.15	10000	0.4993	1.3749	0.0295
313.15	10000	0.5489	1.3577	0.0291
313.15	10000	0.5992	1.3248	0.0284
313.15	10000	0.6495	1.2586	0.0271
313.15	10000	0.699	1.1412	0.0246
313.15	10000	0.799	0.8755	0.0192
313.15	10000	0.898	0.4717	0.0111
328.15	100	0.0998	0.6122	0.0139
328.15	100	0.2002	1.0216	0.0222
328.15	100	0.2994	1.2948	0.0278
328.15	100	0.3505	1.3872	0.0297
328.15	100	0.3995	1.4483	0.031
328.15	100	0.4495	1.4822	0.0317
328.15	100	0.4998	1.4922	0.0319
328.15	100	0.5495	1.474	0.0315
328.15	100	0.5997	1.4285	0.0306
328.15	100	0.65	1.3527	0.029
328.15	100	0.6995	1.2493	0.0269
328.15	100	0.7994	0.9365	0.0205
328.15	100	0.8982	0.502	0.0118
328.15	10000	0.0996	0.6055	0.0138
328.15	10000	0.1999	1.02	0.0222
328.15	10000	0.299	1.2911	0.0278
328.15	10000	0.35	1.383	0.0297
328.15	10000	0.399	1.4457	0.031
328.15	10000	0.449	1.4814	0.0317
328.15	10000	0.4993	1.4908	0.0319
328.15	10000	0.5489	1.4725	0.0315
328.15	10000	0.5992	1.4248	0.0305
328.15	10000	0.6495	1.3468	0.0289
328.15	10000	0.699	1.2409	0.0267
328.15	10000	0.799	0.9306	0.0203
328.15	10000	0.898	0.4953	0.0116

System: ethanol + ethyl 3-oxobutanoate; phases: Liquid
Property: Excess molar enthalpy (molar enthalpy of mixing), kJ/mol (Liquid); method: Flow calorimetry
Temperature, K	Pressure, kPa	Mole fraction of ethyl 3-oxobutanoate	Excess molar enthalpy (molar enthalpy of mixing), kJ/mol	uncertainty
298.15	100	0.0999	0.7444	0.0167
298.15	100	0.1997	1.1952	0.026
298.15	100	0.2994	1.4925	0.0321
298.15	100	0.3495	1.5898	0.0341
298.15	100	0.3999	1.6583	0.0356
298.15	100	0.4501	1.6976	0.0364
298.15	100	0.4995	1.7079	0.0366
298.15	100	0.5492	1.6945	0.0363
298.15	100	0.6008	1.6517	0.0354
298.15	100	0.6501	1.576	0.0338
298.15	100	0.7008	1.478	0.0318
298.15	100	0.8006	1.1496	0.025
298.15	100	0.9002	0.6571	0.015
298.15	10000	0.0998	0.7248	0.0163
298.15	10000	0.1995	1.1746	0.0256
298.15	10000	0.2992	1.4593	0.0315
298.15	10000	0.3493	1.5532	0.0334
298.15	10000	0.3996	1.6192	0.0348
298.15	10000	0.4498	1.6588	0.0356
298.15	10000	0.4992	1.6707	0.0358
298.15	10000	0.5489	1.6555	0.0355
298.15	10000	0.6005	1.6119	0.0346
298.15	10000	0.6499	1.5405	0.0331
298.15	10000	0.7005	1.437	0.031
298.15	10000	0.8004	1.1214	0.0245
298.15	10000	0.9001	0.6293	0.0145
313.15	100	0.0999	0.8469	0.019
313.15	100	0.1997	1.3649	0.0296
313.15	100	0.2994	1.6845	0.0362
313.15	100	0.3495	1.7986	0.0385
313.15	100	0.3999	1.8751	0.0401
313.15	100	0.4501	1.9126	0.0409
313.15	100	0.4995	1.9205	0.0411
313.15	100	0.5492	1.9048	0.0407
313.15	100	0.6008	1.8352	0.0393
313.15	100	0.6501	1.7475	0.0374
313.15	100	0.7008	1.6225	0.0349
313.15	100	0.8006	1.2398	0.027
313.15	100	0.9002	0.703	0.0161
313.15	10000	0.0998	0.8446	0.019
313.15	10000	0.1995	1.3601	0.0295
313.15	10000	0.2992	1.6825	0.0361
313.15	10000	0.3493	1.7958	0.0385
313.15	10000	0.3996	1.8695	0.04
313.15	10000	0.4498	1.904	0.0407
313.15	10000	0.4992	1.9165	0.041
313.15	10000	0.5489	1.8937	0.0405
313.15	10000	0.6005	1.8312	0.0392
313.15	10000	0.6499	1.7453	0.0374
313.15	10000	0.7005	1.6193	0.0348
313.15	10000	0.8004	1.2362	0.0269
313.15	10000	0.9001	0.6992	0.0161
328.15	100	0.0999	0.9074	0.0204
328.15	100	0.1997	1.5001	0.0324
328.15	100	0.2994	1.8606	0.0399
328.15	100	0.3495	1.978	0.0423
328.15	100	0.3999	2.0623	0.0441
328.15	100	0.4501	2.1016	0.0449
328.15	100	0.4995	2.0999	0.0448
328.15	100	0.5492	2.0659	0.0441
328.15	100	0.6008	1.9917	0.0426
328.15	100	0.6501	1.8808	0.0403
328.15	100	0.7008	1.7364	0.0373
328.15	100	0.8006	1.3077	0.0285
328.15	100	0.9002	0.7123	0.0165
328.15	10000	0.0998	0.898	0.0201
328.15	10000	0.1995	1.4697	0.0318
328.15	10000	0.2992	1.8243	0.0391
328.15	10000	0.3493	1.9385	0.0414
328.15	10000	0.3996	2.0132	0.043
328.15	10000	0.4498	2.0476	0.0437
328.15	10000	0.4992	2.0476	0.0437
328.15	10000	0.5489	2.0122	0.043
328.15	10000	0.6005	1.9402	0.0415
328.15	10000	0.6499	1.8277	0.0391
328.15	10000	0.7005	1.6857	0.0362
328.15	10000	0.8004	1.2638	0.0275
328.15	10000	0.9001	0.7014	0.0161

System: propan-1-ol + ethyl 3-oxobutanoate; phases: Liquid
Property: Excess molar enthalpy (molar enthalpy of mixing), kJ/mol (Liquid); method: Flow calorimetry
Temperature, K	Pressure, kPa	Mole fraction of ethyl 3-oxobutanoate	Excess molar enthalpy (molar enthalpy of mixing), kJ/mol	uncertainty
298.15	100	0.1001	0.8692	0.0194
298.15	100	0.1998	1.3555	0.0295
298.15	100	0.3003	1.6572	0.0357
298.15	100	0.3502	1.7573	0.0378
298.15	100	0.3994	1.8248	0.0392
298.15	100	0.4501	1.8678	0.0401
298.15	100	0.4997	1.881	0.0404
298.15	100	0.5505	1.8641	0.04
298.15	100	0.5997	1.8208	0.0391
298.15	100	0.6497	1.7447	0.0375
298.15	100	0.7007	1.6319	0.0351
298.15	100	0.7996	1.2862	0.028
298.15	100	0.9004	0.7322	0.0167
298.15	10000	0.1003	0.8543	0.019
298.15	10000	0.2001	1.3318	0.029
298.15	10000	0.3007	1.627	0.0351
298.15	10000	0.3506	1.7233	0.037
298.15	10000	0.3998	1.7867	0.0383
298.15	10000	0.4505	1.8261	0.0392
298.15	10000	0.5001	1.8367	0.0394
298.15	10000	0.5509	1.82	0.039
298.15	10000	0.6	1.7776	0.0381
298.15	10000	0.6501	1.7022	0.0365
298.15	10000	0.701	1.591	0.0342
298.15	10000	0.7999	1.2565	0.0273
298.15	10000	0.9005	0.7102	0.0163
313.15	100	0.1001	0.9905	0.0221
313.15	100	0.1998	1.5802	0.0342
313.15	100	0.3003	1.9423	0.0417
313.15	100	0.3502	2.0623	0.0442
313.15	100	0.3994	2.1404	0.0458
313.15	100	0.4501	2.1839	0.0467
313.15	100	0.4997	2.1907	0.0468
313.15	100	0.5505	2.1615	0.0462
313.15	100	0.5997	2.0975	0.0449
313.15	100	0.6497	1.9885	0.0426
313.15	100	0.7007	1.8434	0.0396
313.15	100	0.7996	1.4248	0.031
313.15	100	0.9004	0.7822	0.018
313.15	10000	0.1003	0.9565	0.0214
313.15	10000	0.2001	1.5247	0.033
313.15	10000	0.3007	1.8824	0.0404
313.15	10000	0.3506	1.9815	0.0424
313.15	10000	0.3998	2.0572	0.044
313.15	10000	0.4505	2.0988	0.0449
313.15	10000	0.5001	2.1052	0.045
313.15	10000	0.5509	2.0852	0.0446
313.15	10000	0.6	2.0188	0.0432
313.15	10000	0.6501	1.9136	0.041
313.15	10000	0.701	1.7617	0.0379
313.15	10000	0.7999	1.3463	0.0293
313.15	10000	0.9005	0.7472	0.0172
328.15	100	0.1001	1.0716	0.0239
328.15	100	0.1998	1.7301	0.0373
328.15	100	0.3003	2.1283	0.0456
328.15	100	0.3502	2.2538	0.0482
328.15	100	0.3994	2.3326	0.0498
328.15	100	0.4501	2.3644	0.0504
328.15	100	0.4997	2.3617	0.0504
328.15	100	0.5505	2.3134	0.0494
328.15	100	0.5997	2.2261	0.0475
328.15	100	0.6497	2.107	0.0451
328.15	100	0.7007	1.9334	0.0415
328.15	100	0.7996	1.4685	0.0319
328.15	100	0.9004	0.8057	0.0185
328.15	10000	0.1003	1.0624	0.0237
328.15	10000	0.2001	1.7028	0.0368
328.15	10000	0.3007	2.1047	0.0451
328.15	10000	0.3506	2.2314	0.0477
328.15	10000	0.3998	2.3111	0.0494
328.15	10000	0.4505	2.3541	0.0503
328.15	10000	0.5001	2.3539	0.0503
328.15	10000	0.5509	2.3082	0.0493
328.15	10000	0.6	2.2162	0.0474
328.15	10000	0.6501	2.1012	0.045
328.15	10000	0.701	1.9279	0.0414
328.15	10000	0.7999	1.4638	0.0318
328.15	10000	0.9005	0.7968	0.0184

System: propan-2-ol + ethyl 3-oxobutanoate; phases: Liquid
Property: Excess molar enthalpy (molar enthalpy of mixing), kJ/mol (Liquid); method: Flow calorimetry
Temperature, K	Pressure, kPa	Mole fraction of ethyl 3-oxobutanoate	Excess molar enthalpy (molar enthalpy of mixing), kJ/mol	uncertainty
298.15	100	0.0997	0.9882	0.022
298.15	100	0.1998	1.5428	0.0335
298.15	100	0.2999	1.8673	0.0402
298.15	100	0.3499	1.9731	0.0424
298.15	100	0.4003	2.0429	0.0438
298.15	100	0.4496	2.0769	0.0445
298.15	100	0.5003	2.0818	0.0446
298.15	100	0.5494	2.0544	0.044
298.15	100	0.5995	1.9895	0.0427
298.15	100	0.6505	1.8927	0.0406
298.15	100	0.7008	1.7583	0.0379
298.15	100	0.7999	1.3704	0.0298
298.15	100	0.9006	0.7738	0.0177
298.15	10000	0.0994	0.9681	0.0215
298.15	10000	0.1993	1.4978	0.0325
298.15	10000	0.2992	1.8215	0.0392
298.15	10000	0.3491	1.9207	0.0412
298.15	10000	0.3995	1.9947	0.0427
298.15	10000	0.4488	2.0311	0.0435
298.15	10000	0.4995	2.0384	0.0436
298.15	10000	0.5486	2.0156	0.0431
298.15	10000	0.5987	1.959	0.0419
298.15	10000	0.6497	1.8691	0.04
298.15	10000	0.7001	1.7428	0.0374
298.15	10000	0.7994	1.3621	0.0296
298.15	10000	0.9003	0.7705	0.0176
313.15	100	0.0997	1.112	0.0248
313.15	100	0.1998	1.764	0.0381
313.15	100	0.2999	2.1674	0.0465
313.15	100	0.3499	2.2871	0.0489
313.15	100	0.4003	2.3626	0.0505
313.15	100	0.4496	2.4014	0.0513
313.15	100	0.5003	2.3981	0.0512
313.15	100	0.5494	2.3521	0.0502
313.15	100	0.5995	2.2707	0.0485
313.15	100	0.6505	2.1468	0.0459
313.15	100	0.7008	1.9792	0.0425
313.15	100	0.7999	1.5013	0.0326
313.15	100	0.9006	0.8299	0.0191
313.15	10000	0.0994	1.0874	0.0242
313.15	10000	0.1993	1.7121	0.037
313.15	10000	0.2992	2.0857	0.0447
313.15	10000	0.3491	2.2069	0.0472
313.15	10000	0.3995	2.276	0.0486
313.15	10000	0.4488	2.3126	0.0494
313.15	10000	0.4995	2.3074	0.0493
313.15	10000	0.5486	2.2649	0.0484
313.15	10000	0.5987	2.1829	0.0467
313.15	10000	0.6497	2.0555	0.044
313.15	10000	0.7001	1.8915	0.0406
313.15	10000	0.7994	1.4297	0.0311
313.15	10000	0.9003	0.7809	0.018
328.15	100	0.0997	1.1844	0.0264
328.15	100	0.1998	1.8996	0.0409
328.15	100	0.2999	2.3276	0.0498
328.15	100	0.3499	2.452	0.0523
328.15	100	0.4003	2.5315	0.054
328.15	100	0.4496	2.5601	0.0546
328.15	100	0.5003	2.5503	0.0544
328.15	100	0.5494	2.4984	0.0533
328.15	100	0.5995	2.3991	0.0512
328.15	100	0.6505	2.2529	0.0482
328.15	100	0.7008	2.0649	0.0443
328.15	100	0.7999	1.5586	0.0339
328.15	100	0.9006	0.8497	0.0196
328.15	10000	0.0994	1.1549	0.0258
328.15	10000	0.1993	1.87	0.0403
328.15	10000	0.2992	2.2919	0.0491
328.15	10000	0.3491	2.4182	0.0516
328.15	10000	0.3995	2.4989	0.0533
328.15	10000	0.4488	2.5266	0.0539
328.15	10000	0.4995	2.5189	0.0537
328.15	10000	0.5486	2.4669	0.0527
328.15	10000	0.5987	2.369	0.0506
328.15	10000	0.6497	2.225	0.0476
328.15	10000	0.7001	2.0379	0.0437
328.15	10000	0.7994	1.5351	0.0334
328.15	10000	0.9003	0.8344	0.0193
