Measured thermophysical data. Measurements of the isochoric heat capacity, the critical point (TC, nC) and vapor liquid coexistence curve (TS, nS) of high-purity toluene near the critical point*
Source: Fluid Phase Equilib., 2008, 10.1016/j.fluid.2007.09.023
Compound 1: toluene, C7H8, InChI=1S/C7H8/c1-7-5-3-2-4-6-7/h2-6H,1H3

System: toluene; phases: Liquid, Gas
Property: Critical temperature, K (Liquid); method: derived from Cv measurments
Critical temperature, K	uncertainty
591.89	0.02

System: toluene; phases: Liquid, Gas
Property: Molar heat capacity at constant volume, J/K/mol (Liquid); method: Vacuum adiabatic calorimetry
Temperature, K	Molar heat capacity at constant volume, J/K/mol	uncertainty
386.9	147.79002568	2.94842944
545.3	189.98942204	3.77767522
591.85	331.51403516	6.63396624
591.87	422.17824044	8.47673464
591.88	442.264416	8.84528832

System: toluene; phases: Gas, Liquid
Property: Molar heat capacity at constant volume, J/K/mol (Gas); method: Vacuum adiabatic calorimetry
Temperature, K	Molar heat capacity at constant volume, J/K/mol	uncertainty
589.54	349.57316548	7.0034413042
591.72	385.5992877	9.213842
591.84	425.40308514	9.85881094

System: toluene; phases: Liquid, Gas
Property: Mass density, kg/m3 (Liquid); method: derived from Cv measurments
Temperature, K	Mass density, kg/m3	uncertainty
386.9	777.8	0.47
545.3	555.25	0.33
591.85	318.28	0.21
591.87	301.52	0.2
591.88	296.62	0.2

System: toluene; phases: Gas, Liquid
Property: Mass density, kg/m3 (Gas); method: derived from Cv measurments
Temperature, K	Mass density, kg/m3	uncertainty
589.54	214.64	0.39
591.72	268.68	1.63
591.84	281.68	1.63

System: toluene; phases: Fluid (supercritical or subcritical phases)
Property: Molar heat capacity at constant volume, J/K/mol (Fluid (supercritical or subcritical phases)); method: Vacuum adiabatic calorimetry
Temperature, K	Mass density, kg/m3	Molar heat capacity at constant volume, J/K/mol	uncertainty
386.9	777.8	147.79002568	2.94842944
387.48	777.8	147.69788726	2.94842944
387.84	777.8	146.40794938	2.94842944
388.65	777.8	146.9607799	2.94842944
392.83	777.8	145.67084202	2.94842944
393.6	777.8	144.01235046	2.85629102
399.34	777.8	146.68436464	2.94842944
411.33	777.8	148.89568672	2.94842944
413.55	777.8	149.07996356	2.94842944
545.3	555.25	189.98942204	3.77767522
545.51	555.25	189.06803784	3.77767522
545.84	555.25	188.79162258	3.77767522
545.93	555.25	189.43659152	3.77767522
548.72	555.25	187.40954628	3.77767522
549.32	555.25	189.25231468	3.77767522
550.41	555.25	188.51520732	3.77767522
589.54	214.64	349.57316548	7.73962728
589.66	214.64	307.46590754	6.35755098
589.72	214.64	299.449865	6.17327414
589.84	214.64	280.46935048	5.9889973
590.03	214.64	271.90047742	5.80472046
590.09	214.64	264.8979575	5.71258204
590.51	214.64	250.80077924	5.15975152
590.58	214.64	252.9199629	5.15975152
