Measured thermophysical data. Critical temperatures and pressures of C40, C44, and C60 normal alkanes measured by the pulse-heating technique
Source: Fluid Phase Equilib., 2014, 10.1016/j.fluid.2014.07.017
Compound 1: tetracontane, C40H82, InChI=1S/C40H82/c1-3-5-7-9-11-13-15-17-19-21-23-25-27-29-31-33-35-37-39-40-38-36-34-32-30-28-26-24-22-20-18-16-14-12-10-8-6-4-2/h3-40H2,1-2H3, purity 98.7%
Compound 2: tetratetracontane, C44H90, InChI=1S/C44H90/c1-3-5-7-9-11-13-15-17-19-21-23-25-27-29-31-33-35-37-39-41-43-44-42-40-38-36-34-32-30-28-26-24-22-20-18-16-14-12-10-8-6-4-2/h3-44H2,1-2H3, purity 98.9%
Compound 3: hexacontane, C60H122, InChI=1S/C60H122/c1-3-5-7-9-11-13-15-17-19-21-23-25-27-29-31-33-35-37-39-41-43-45-47-49-51-53-55-57-59-60-58-56-54-52-50-48-46-44-42-40-38-36-34-32-30-28-26-24-22-20-18-16-14-12-10-8-6-4-2/h3-60H2,1-2H3, purity 98.4%
Compound 4: nonadecane, C19H40, InChI=1S/C19H40/c1-3-5-7-9-11-13-15-17-19-18-16-14-12-10-8-6-4-2/h3-19H2,1-2H3
Compound 5: eicosane, C20H42, InChI=1S/C20H42/c1-3-5-7-9-11-13-15-17-19-20-18-16-14-12-10-8-6-4-2/h3-20H2,1-2H3
Compound 6: heneicosane, C21H44, InChI=1S/C21H44/c1-3-5-7-9-11-13-15-17-19-21-20-18-16-14-12-10-8-6-4-2/h3-21H2,1-2H3
Compound 7: docosane, C22H46, InChI=1S/C22H46/c1-3-5-7-9-11-13-15-17-19-21-22-20-18-16-14-12-10-8-6-4-2/h3-22H2,1-2H3
Compound 8: tricosane, C23H48, InChI=1S/C23H48/c1-3-5-7-9-11-13-15-17-19-21-23-22-20-18-16-14-12-10-8-6-4-2/h3-23H2,1-2H3
Compound 9: tetracosane, C24H50, InChI=1S/C24H50/c1-3-5-7-9-11-13-15-17-19-21-23-24-22-20-18-16-14-12-10-8-6-4-2/h3-24H2,1-2H3
Compound 10: hexacosane, C26H54, InChI=1S/C26H54/c1-3-5-7-9-11-13-15-17-19-21-23-25-26-24-22-20-18-16-14-12-10-8-6-4-2/h3-26H2,1-2H3
Compound 11: octacosane, C28H58, InChI=1S/C28H58/c1-3-5-7-9-11-13-15-17-19-21-23-25-27-28-26-24-22-20-18-16-14-12-10-8-6-4-2/h3-28H2,1-2H3
Compound 12: triacontane, C30H62, InChI=1S/C30H62/c1-3-5-7-9-11-13-15-17-19-21-23-25-27-29-30-28-26-24-22-20-18-16-14-12-10-8-6-4-2/h3-30H2,1-2H3
Compound 13: hexatriacontane, C36H74, InChI=1S/C36H74/c1-3-5-7-9-11-13-15-17-19-21-23-25-27-29-31-33-35-36-34-32-30-28-26-24-22-20-18-16-14-12-10-8-6-4-2/h3-36H2,1-2H3

System: tetracontane; phases: Liquid, Gas
Property: Critical temperature, K (Liquid); method: Pulse heating method
Critical temperature, K	uncertainty
904	30

System: tetracontane; phases: Liquid, Gas
Property: Critical pressure, kPa (Liquid); method: Pulse heating method
Critical pressure, kPa	uncertainty
523	100

System: tetratetracontane; phases: Liquid, Gas
Property: Critical temperature, K (Liquid); method: Pulse heating method
Critical temperature, K	uncertainty
919	30

System: tetratetracontane; phases: Liquid, Gas
Property: Critical pressure, kPa (Liquid); method: Pulse heating method
Critical pressure, kPa	uncertainty
482	100

System: hexacontane; phases: Liquid, Gas
Property: Critical temperature, K (Liquid); method: Pulse heating method
Critical temperature, K	uncertainty
974	30

System: hexacontane; phases: Liquid, Gas
Property: Critical pressure, kPa (Liquid); method: Pulse heating method
Critical pressure, kPa	uncertainty
360	100

System: nonadecane; phases: Liquid, Gas
Property: Critical temperature, K (Liquid); method: Pulse heating method
Critical temperature, K	uncertainty
757	20

System: nonadecane; phases: Liquid, Gas
Property: Critical pressure, kPa (Liquid); method: Pulse heating method
Critical pressure, kPa	uncertainty
1170	100

System: eicosane; phases: Liquid, Gas
Property: Critical temperature, K (Liquid); method: Pulse heating method
Critical temperature, K	uncertainty
769	20

System: eicosane; phases: Liquid, Gas
Property: Critical pressure, kPa (Liquid); method: Pulse heating method
Critical pressure, kPa	uncertainty
1080	100

System: heneicosane; phases: Liquid, Gas
Property: Critical temperature, K (Liquid); method: Pulse heating method
Critical temperature, K	uncertainty
779	20

System: heneicosane; phases: Liquid, Gas
Property: Critical pressure, kPa (Liquid); method: Pulse heating method
Critical pressure, kPa	uncertainty
1040	100

System: docosane; phases: Liquid, Gas
Property: Critical temperature, K (Liquid); method: Pulse heating method
Critical temperature, K	uncertainty
787	20

System: docosane; phases: Liquid, Gas
Property: Critical pressure, kPa (Liquid); method: Pulse heating method
Critical pressure, kPa	uncertainty
986	100

System: tricosane; phases: Liquid, Gas
Property: Critical temperature, K (Liquid); method: Pulse heating method
Critical temperature, K	uncertainty
791	20

System: tricosane; phases: Liquid, Gas
Property: Critical pressure, kPa (Liquid); method: Pulse heating method
Critical pressure, kPa	uncertainty
921	100

System: tetracosane; phases: Liquid, Gas
Property: Critical temperature, K (Liquid); method: Pulse heating method
Critical temperature, K	uncertainty
801	20

System: tetracosane; phases: Liquid, Gas
Property: Critical pressure, kPa (Liquid); method: Pulse heating method
Critical pressure, kPa	uncertainty
871	100

System: hexacosane; phases: Liquid, Gas
Property: Critical temperature, K (Liquid); method: Pulse heating method
Critical temperature, K	uncertainty
819	20

System: hexacosane; phases: Liquid, Gas
Property: Critical pressure, kPa (Liquid); method: Pulse heating method
Critical pressure, kPa	uncertainty
814	100

System: octacosane; phases: Liquid, Gas
Property: Critical temperature, K (Liquid); method: Pulse heating method
Critical temperature, K	uncertainty
836	20

System: octacosane; phases: Liquid, Gas
Property: Critical pressure, kPa (Liquid); method: Pulse heating method
Critical pressure, kPa	uncertainty
750	100

System: triacontane; phases: Liquid, Gas
Property: Critical temperature, K (Liquid); method: Pulse heating method
Critical temperature, K	uncertainty
850	20

System: triacontane; phases: Liquid, Gas
Property: Critical pressure, kPa (Liquid); method: Pulse heating method
Critical pressure, kPa	uncertainty
690	100

System: hexatriacontane; phases: Liquid, Gas
Property: Critical temperature, K (Liquid); method: Pulse heating method
Critical temperature, K	uncertainty
888	30

System: hexatriacontane; phases: Liquid, Gas
Property: Critical pressure, kPa (Liquid); method: Pulse heating method
Critical pressure, kPa	uncertainty
580	100
