Measured thermophysical data. Vapor liquid equilibria for the carbon dioxide + propane system over a temperature range from 253.15 to 323.15K
Source: Fluid Phase Equilib., 2005, 10.1016/j.fluid.2005.09.006
Compound 1: carbon dioxide, CO2, InChI=1S/CO2/c2-1-3
Compound 2: propane, C3H8, InChI=1S/C3H8/c1-3-2/h3H2,1-2H3

System: carbon dioxide; phases: Liquid, Gas
Property: Vapor or sublimation pressure, kPa (Liquid); method: CCELL:UFactor:8
Temperature, K	Vapor or sublimation pressure, kPa	uncertainty
253.15	1964.8	48.9
263.15	2641.8	65.7
273.15	3478.5	86.4
283.15	4497.8	111.7
293.15	5723.7	142.1
303.15	7206.2	178.8

System: propane; phases: Liquid, Gas
Property: Vapor or sublimation pressure, kPa (Liquid); method: CCELL:UFactor:8
Temperature, K	Vapor or sublimation pressure, kPa	uncertainty
253.15	244.2	6.2
263.15	344.7	8.7
273.15	473.9	11.9
283.15	636.3	15.9
293.15	836.3	20.9
303.15	1079.6	26.9
313.15	1369.8	34.1
323.15	1714.5	42.6

System: propane + carbon dioxide; phases: Liquid, Gas
Property: Vapor or sublimation pressure, kPa (Liquid); method: CCELL:UFactor:8
Mole fraction of carbon dioxide	Temperature, K	Vapor or sublimation pressure, kPa	uncertainty
0	253.15	244.2	6.2
0	263.15	344.7	8.7
0	273.15	473.9	11.9
0	283.15	636.3	15.9
0	293.15	836.3	20.9
0	303.15	1079.6	26.9
0	313.15	1369.8	34.1
0	323.15	1714.5	42.6
0.016	253.15	309.2	24.5
0.017	263.15	423.1	30.4
0.02	273.15	582.3	34.8
0.021	283.15	771.8	42.5
0.021	323.15	1910.8	73.3
0.022	293.15	997.7	48
0.025	303.15	1260.5	53.5
0.026	313.15	1597.2	66.2
0.04	263.15	535.4	29.7
0.041	283.15	895	41.9
0.042	253.15	407.5	24
0.042	273.15	697.1	33.6
0.043	293.15	1128.7	47.7
0.043	313.15	1750	65.1
0.044	323.15	2123.9	77.5
0.046	303.15	1411	55.9
0.079	323.15	2458.3	82
0.081	283.15	1129	44.2
0.082	263.15	713.9	29.5
0.083	293.15	1392.2	51.6
0.084	253.15	556	23.7
0.084	303.15	1702.2	60.5
0.085	273.15	903.8	36.4
0.085	313.15	2079.4	71.1
0.162	283.15	1585.9	50.9
0.165	273.15	1293.1	42.7
0.165	323.15	3230.4	96.2
0.166	293.15	1922	61.2
0.167	263.15	1038	34.2
0.169	303.15	2310.6	71.2
0.169	313.15	2777.9	84.7
0.17	253.15	819.9	26.4
0.204	323.15	3563.1	102.5
0.206	293.15	2166.6	64.9
0.208	283.15	1797.2	53.4
0.209	273.15	1471.6	43.8
0.211	313.15	3102.7	89.1
0.212	263.15	1188.3	35.8
0.213	303.15	2588	74.7
0.269	323.15	4126.9	114
0.273	283.15	2128	61
0.274	263.15	1396.2	39.9
0.274	293.15	2573.9	73.2
0.275	273.15	1737	49.4
0.279	253.15	1101.2	30.8
0.286	313.15	3650.8	100.6
0.295	283.15	2222.8	59.6
0.3	273.15	1818	48.2
0.301	263.15	1466.7	39
0.304	293.15	2726.7	72.8
0.305	253.15	1161.7	30.6
0.308	303.15	3214.3	90
0.356	303.15	3582.5	97
0.357	323.15	4842.3	129.3
0.368	283.15	2490.2	66
0.369	293.15	3004.9	80.1
0.369	313.15	4253	114.5
0.373	263.15	1631.9	42.8
0.376	273.15	2034.5	53.8
0.385	253.15	1281.8	33.4
0.409	313.15	4558.4	121.2
0.416	323.15	5290.7	138.6
0.45	303.15	4142.3	108
0.451	273.15	2281.2	59.9
0.452	293.15	3449.3	91.5
0.453	283.15	2829	74.4
0.454	263.15	1808.3	46.7
0.455	253.15	1403.3	36.4
0.475	313.15	5024.7	130.8
0.477	293.15	3562.1	92.5
0.478	323.15	5737.5	148.8
0.483	283.15	2942.1	76
0.49	273.15	2385.9	61.5
0.5	253.15	1473.4	37.7
0.518	303.15	4451.6	114.7
0.519	293.15	3756.6	97
0.521	283.15	3068.8	78.5
0.524	273.15	2479.6	63.4
0.525	323.15	6074.5	156.1
0.529	313.15	5347.1	138.2
0.531	263.15	1963.4	50.4
0.536	253.15	1519.1	38.5
0.559	323.15	6281.3	160.1
0.575	263.15	2053.7	52.2
0.582	253.15	1574.6	39.8
0.582	273.15	2621.9	66.6
0.584	293.15	4035.7	103.3
0.59	283.15	3285.8	83.8
0.599	303.15	4898.7	126
0.621	313.15	5943.6	152.3
0.648	263.15	2173.3	54.9
0.656	273.15	2788.5	70.8
0.657	253.15	1656.6	41.7
0.675	283.15	3569.3	90.5
0.682	313.15	6311.4	160.7
0.69	303.15	5398.9	139.1
0.694	293.15	4492.8	114.4
0.699	273.15	2881.6	72.5
0.701	263.15	2241.8	56.3
0.703	313.15	6434.3	163.5
0.708	303.15	5523	143.1
0.803	293.15	4966.6	126.1
0.807	303.15	6111.5	155.7
0.808	283.15	3965.4	99.9
0.814	273.15	3113.2	78.2
0.815	253.15	1804.1	45.2
0.82	263.15	2396.7	60.1
0.851	293.15	5159.8	130.2
0.859	303.15	6411.7	162.7
0.87	253.15	1848.1	46.3
1	253.15	1964.8	48.9
1	263.15	2641.8	65.7
1	273.15	3478.5	86.4
1	283.15	4497.8	111.7
1	293.15	5723.7	142.1
1	303.15	7206.2	178.8

System: propane + carbon dioxide; phases: Gas, Liquid
Property: Mole fraction of carbon dioxide (Gas); method: CHROM:UFactor:4
Mole fraction of carbon dioxide	Temperature, K	Mole fraction of carbon dioxide	uncertainty
0	253.15	0	0.001
0	263.15	0	0.001
0	273.15	0	0.001
0	283.15	0	0.001
0	293.15	0	0.001
0	303.15	0	0.001
0	313.15	0	0.001
0	323.15	0	0.001
0.016	253.15	0.191	0.055
0.017	263.15	0.177	0.049
0.02	273.15	0.173	0.044
0.021	283.15	0.158	0.04
0.021	323.15	0.088	0.023
0.022	293.15	0.139	0.035
0.025	303.15	0.134	0.03
0.026	313.15	0.123	0.027
0.04	263.15	0.327	0.031
0.041	283.15	0.265	0.027
0.042	253.15	0.388	0.034
0.042	273.15	0.302	0.028
0.043	293.15	0.24	0.025
0.043	313.15	0.188	0.02
0.044	323.15	0.164	0.019
0.046	303.15	0.224	0.022
0.079	323.15	0.257	0.016
0.081	283.15	0.413	0.021
0.082	263.15	0.498	0.024
0.083	293.15	0.38	0.02
0.084	253.15	0.544	0.022
0.084	303.15	0.339	0.018
0.085	273.15	0.459	0.022
0.085	313.15	0.305	0.017
0.162	283.15	0.577	0.019
0.165	273.15	0.615	0.018
0.165	323.15	0.407	0.018
0.166	293.15	0.532	0.02
0.167	263.15	0.658	0.016
0.169	303.15	0.493	0.021
0.169	313.15	0.461	0.02
0.17	253.15	0.693	0.014
0.204	323.15	0.455	0.018
0.206	293.15	0.59	0.017
0.208	283.15	0.63	0.015
0.209	273.15	0.673	0.014
0.211	313.15	0.512	0.019
0.212	263.15	0.708	0.013
0.213	303.15	0.554	0.018
0.269	323.15	0.513	0.019
0.273	283.15	0.687	0.013
0.274	263.15	0.752	0.011
0.274	293.15	0.653	0.014
0.275	273.15	0.724	0.012
0.279	253.15	0.783	0.01
0.286	313.15	0.584	0.016
0.295	283.15	0.701	0.012
0.3	273.15	0.738	0.011
0.301	263.15	0.769	0.01
0.304	293.15	0.68	0.013
0.305	253.15	0.798	0.01
0.308	303.15	0.637	0.015
0.356	303.15	0.67	0.013
0.357	323.15	0.575	0.016
0.368	283.15	0.746	0.011
0.369	293.15	0.711	0.012
0.369	313.15	0.635	0.014
0.373	263.15	0.806	0.009
0.376	273.15	0.781	0.01
0.385	253.15	0.834	0.009
0.409	313.15	0.655	0.013
0.416	323.15	0.602	0.015
0.45	303.15	0.717	0.012
0.451	273.15	0.808	0.009
0.452	293.15	0.755	0.011
0.453	283.15	0.775	0.01
0.454	263.15	0.834	0.008
0.455	253.15	0.855	0.008
0.475	313.15	0.685	0.013
0.477	293.15	0.764	0.01
0.478	323.15	0.621	0.014
0.483	283.15	0.793	0.01
0.49	273.15	0.823	0.009
0.5	253.15	0.866	0.008
0.518	303.15	0.747	0.011
0.519	293.15	0.776	0.01
0.521	283.15	0.809	0.009
0.524	273.15	0.834	0.008
0.525	323.15	0.632	0.014
0.529	313.15	0.707	0.012
0.531	263.15	0.854	0.008
0.536	253.15	0.875	0.007
0.559	323.15	0.636	0.014
0.575	263.15	0.864	0.008
0.582	253.15	0.882	0.007
0.582	273.15	0.844	0.008
0.584	293.15	0.8	0.009
0.59	283.15	0.829	0.009
0.599	303.15	0.776	0.01
0.621	313.15	0.725	0.011
0.648	263.15	0.885	0.007
0.656	273.15	0.868	0.008
0.657	253.15	0.895	0.007
0.675	283.15	0.852	0.008
0.682	313.15	0.748	0.011
0.69	303.15	0.812	0.01
0.694	293.15	0.84	0.008
0.699	273.15	0.88	0.008
0.701	263.15	0.893	0.007
0.703	313.15	0.752	0.01
0.708	303.15	0.816	0.009
0.803	293.15	0.885	0.008
0.807	303.15	0.866	0.008
0.808	283.15	0.897	0.008
0.814	273.15	0.915	0.007
0.815	253.15	0.924	0.007
0.82	263.15	0.918	0.007
0.851	293.15	0.91	0.008
0.859	303.15	0.89	0.008
0.87	253.15	0.935	0.007
1	253.15	1	0.001
1	263.15	1	0.001
1	273.15	1	0.001
1	283.15	1	0.001
1	293.15	1	0.001
1	303.15	1	0.001
