Measured thermophysical data. Densities, viscosities and ultrasonic velocities of binary mixtures  of methylbenzene with hexan-2-ol, heptan-2-ol  and octan-2-ol at T = 298.15 and 308.15K
Source: Fluid Phase Equilib., 2007, 10.1016/j.fluid.2007.01.001
Compound 1: toluene, C7H8, InChI=1S/C7H8/c1-7-5-3-2-4-6-7/h2-6H,1H3, purity 99.5%
Compound 2: 2-hexanol, C6H14O, InChI=1S/C6H14O/c1-3-4-5-6(2)7/h6-7H,3-5H2,1-2H3, purity 99.5%
Compound 3: 2-heptanol, C7H16O, InChI=1S/C7H16O/c1-3-4-5-6-7(2)8/h7-8H,3-6H2,1-2H3, purity 99.5%
Compound 4: 2-octanol, C8H18O, InChI=1S/C8H18O/c1-3-4-5-6-7-8(2)9/h8-9H,3-7H2,1-2H3, purity 99.5%

System: toluene; phases: Liquid
Fixed: Pressure, kPa = 101
Property: Mass density, kg/m3 (Liquid); method: Pycnometric method
Temperature, K	Mass density, kg/m3	uncertainty
298.15	862.18	0.73
308.15	852.79	0.74

System: toluene; phases: Liquid
Fixed: Pressure, kPa = 101
Property: Viscosity, Pa*s (Liquid); method: Capillary tube (Ostwald; Ubbelohde) method
Temperature, K	Viscosity, Pa*s	uncertainty
298.15	0.000554	4.4e-05
308.15	0.000496	4e-05

System: toluene; phases: Liquid
Fixed: Pressure, kPa = 101
Fixed: Frequency, MHz = 2
Property: Speed of sound, m/s (Liquid); method: Linear variable-path acoustic interferometer
Temperature, K	Speed of sound, m/s	uncertainty
298.15	1306	3
308.15	1270	3

System: 2-hexanol; phases: Liquid
Fixed: Pressure, kPa = 101
Property: Mass density, kg/m3 (Liquid); method: Pycnometric method
Temperature, K	Mass density, kg/m3	uncertainty
298.15	810.84	0.7
308.15	801.75	0.71

System: 2-hexanol; phases: Liquid
Fixed: Pressure, kPa = 101
Property: Viscosity, Pa*s (Liquid); method: Capillary tube (Ostwald; Ubbelohde) method
Temperature, K	Viscosity, Pa*s	uncertainty
298.15	0.004105	0.00033
308.15	0.00292	0.000235

System: 2-hexanol; phases: Liquid
Fixed: Pressure, kPa = 101
Fixed: Frequency, MHz = 2
Property: Speed of sound, m/s (Liquid); method: Linear variable-path acoustic interferometer
Temperature, K	Speed of sound, m/s	uncertainty
298.15	1290	3
308.15	1255	3

System: 2-heptanol; phases: Liquid
Fixed: Pressure, kPa = 101
Property: Mass density, kg/m3 (Liquid); method: Pycnometric method
Temperature, K	Mass density, kg/m3	uncertainty
298.15	813.74	0.69
308.15	804.88	0.7

System: 2-heptanol; phases: Liquid
Fixed: Pressure, kPa = 101
Property: Viscosity, Pa*s (Liquid); method: Capillary tube (Ostwald; Ubbelohde) method
Temperature, K	Viscosity, Pa*s	uncertainty
298.15	0.005088	0.000409
308.15	0.003683	0.000297

System: 2-heptanol; phases: Liquid
Fixed: Pressure, kPa = 101
Fixed: Frequency, MHz = 2
Property: Speed of sound, m/s (Liquid); method: Linear variable-path acoustic interferometer
Temperature, K	Speed of sound, m/s	uncertainty
298.15	1314	3
308.15	1274	3

System: 2-octanol; phases: Liquid
Fixed: Pressure, kPa = 101
Property: Mass density, kg/m3 (Liquid); method: Pycnometric method
Temperature, K	Mass density, kg/m3	uncertainty
298.15	817.08	0.58
308.15	809.89	0.6

System: 2-octanol; phases: Liquid
Fixed: Pressure, kPa = 101
Property: Viscosity, Pa*s (Liquid); method: Capillary tube (Ostwald; Ubbelohde) method
Temperature, K	Viscosity, Pa*s	uncertainty
298.15	0.006429	0.000517
308.15	0.004365	0.000352

System: 2-octanol; phases: Liquid
Fixed: Pressure, kPa = 101
Fixed: Frequency, MHz = 2
Property: Speed of sound, m/s (Liquid); method: Linear variable-path acoustic interferometer
Temperature, K	Speed of sound, m/s	uncertainty
298.15	1328	3
308.15	1292	3

System: toluene + 2-hexanol; phases: Liquid
Fixed: Pressure, kPa = 101
Property: Mass density, kg/m3 (Liquid); method: Pycnometric method
Temperature, K	Mole fraction of toluene	Mass density, kg/m3	uncertainty
298.15	0	810.84	0.7
298.15	0.0497	812.91	0.71
298.15	0.1007	815.08	0.71
298.15	0.1588	817.53	0.72
298.15	0.1993	819.29	0.72
298.15	0.252	821.5	0.73
298.15	0.2999	823.59	0.74
298.15	0.3495	825.77	0.75
298.15	0.4016	828.16	0.75
298.15	0.4468	830.21	0.76
298.15	0.5012	832.7	0.76
298.15	0.5502	835.1	0.76
298.15	0.6003	837.61	0.76
298.15	0.6492	840.23	0.76
298.15	0.7008	843.05	0.76
298.15	0.7476	845.75	0.76
298.15	0.8006	848.93	0.76
298.15	0.8502	852.09	0.76
298.15	0.8945	855.01	0.76
298.15	0.9407	858.09	0.75
298.15	1	862.18	0.73
308.15	0	801.75	0.71
308.15	0.0497	803.69	0.72
308.15	0.1007	805.85	0.73
308.15	0.1588	808.16	0.73
308.15	0.1993	809.89	0.74
308.15	0.252	812.03	0.74
308.15	0.2999	813.99	0.75
308.15	0.3495	816.07	0.75
308.15	0.4016	818.34	0.76
308.15	0.4468	820.35	0.76
308.15	0.5012	822.9	0.76
308.15	0.5502	825.27	0.76
308.15	0.6003	827.79	0.76
308.15	0.6492	830.36	0.76
308.15	0.7008	833.28	0.76
308.15	0.7476	835.92	0.76
308.15	0.8006	839.1	0.76
308.15	0.8502	842.25	0.77
308.15	0.8945	845.2	0.77
308.15	0.9407	848.38	0.76
308.15	1	852.79	0.74

System: toluene + 2-hexanol; phases: Liquid
Fixed: Pressure, kPa = 101
Property: Viscosity, Pa*s (Liquid); method: Capillary tube (Ostwald; Ubbelohde) method
Temperature, K	Mole fraction of toluene	Viscosity, Pa*s	uncertainty
298.15	0	0.004105	0.00033
298.15	0.0497	0.003548	0.000285
298.15	0.1007	0.003087	0.000248
298.15	0.1588	0.002741	0.00022
298.15	0.1993	0.002427	0.000195
298.15	0.252	0.00211	0.00017
298.15	0.2999	0.001849	0.000149
298.15	0.3495	0.001619	0.00013
298.15	0.4016	0.001439	0.000116
298.15	0.4468	0.001318	0.000106
298.15	0.5012	0.001165	9.4e-05
298.15	0.5502	0.001061	8.5e-05
298.15	0.6003	0.000953	7.7e-05
298.15	0.6492	0.00092	7.4e-05
298.15	0.7008	0.000866	7e-05
298.15	0.7476	0.00084	6.8e-05
298.15	0.8006	0.000762	6.1e-05
298.15	0.8502	0.000686	5.5e-05
298.15	0.8945	0.000649	5.2e-05
298.15	0.9407	0.000638	5.1e-05
298.15	1	0.000554	4.4e-05
308.15	0	0.00292	0.000235
308.15	0.0497	0.002566	0.000207
308.15	0.1007	0.002273	0.000183
308.15	0.1588	0.001935	0.000156
308.15	0.1993	0.001703	0.000137
308.15	0.252	0.001519	0.000122
308.15	0.2999	0.001303	0.000105
308.15	0.3495	0.001153	9.3e-05
308.15	0.4016	0.001046	8.4e-05
308.15	0.4468	0.000962	7.8e-05
308.15	0.5012	0.00085	6.8e-05
308.15	0.5502	0.000794	6.4e-05
308.15	0.6003	0.000766	6.2e-05
308.15	0.6492	0.000689	5.5e-05
308.15	0.7008	0.000671	5.4e-05
308.15	0.7476	0.000611	4.9e-05
308.15	0.8006	0.000579	4.7e-05
308.15	0.8502	0.000561	4.5e-05
308.15	0.8945	0.000531	4.3e-05
308.15	0.9407	0.000527	4.2e-05
308.15	1	0.000496	4e-05

System: toluene + 2-hexanol; phases: Liquid
Fixed: Pressure, kPa = 101
Fixed: Frequency, MHz = 2
Property: Speed of sound, m/s (Liquid); method: Linear variable-path acoustic interferometer
Temperature, K	Mole fraction of toluene	Speed of sound, m/s	uncertainty
298.15	0	1290	3
298.15	0.0497	1286	3
298.15	0.1007	1284	3
298.15	0.1588	1281	3
298.15	0.1993	1278	3
298.15	0.252	1274	3
298.15	0.2999	1270	3
298.15	0.3495	1269	3
298.15	0.4016	1267	3
298.15	0.4468	1265	3
298.15	0.5012	1265	3
298.15	0.5502	1264	3
298.15	0.6003	1263	3
298.15	0.6492	1267	3
298.15	0.7008	1268	3
298.15	0.7476	1271	3
298.15	0.8006	1276	3
298.15	0.8502	1280	3
298.15	0.8945	1286	3
298.15	0.9407	1294	3
298.15	1	1306	3
308.15	0	1255	3
308.15	0.0497	1251	3
308.15	0.1007	1245	3
308.15	0.1588	1243	3
308.15	0.1993	1240	3
308.15	0.252	1237	3
308.15	0.2999	1235	3
308.15	0.3495	1232	3
308.15	0.4016	1230	3
308.15	0.4468	1229	3
308.15	0.5012	1228	3
308.15	0.5502	1228	3
308.15	0.6003	1228	3
308.15	0.6492	1229	3
308.15	0.7008	1230	3
308.15	0.7476	1232	3
308.15	0.8006	1237	3
308.15	0.8502	1242	3
308.15	0.8945	1249	3
308.15	0.9407	1257	3
308.15	1	1270	3

System: toluene + 2-heptanol; phases: Liquid
Fixed: Pressure, kPa = 101
Property: Mass density, kg/m3 (Liquid); method: Pycnometric method
Temperature, K	Mole fraction of toluene	Mass density, kg/m3	uncertainty
298.15	0	813.74	0.69
298.15	0.0514	815.49	0.7
298.15	0.1014	817.27	0.7
298.15	0.1469	818.88	0.71
298.15	0.2008	820.83	0.71
298.15	0.2519	822.7	0.72
298.15	0.3007	824.54	0.73
298.15	0.348	826.33	0.73
298.15	0.4006	828.45	0.74
298.15	0.4526	830.61	0.74
298.15	0.5002	832.62	0.75
298.15	0.5501	834.9	0.75
298.15	0.6011	837.36	0.76
298.15	0.6574	840.16	0.77
298.15	0.7011	842.5	0.77
298.15	0.756	845.59	0.77
298.15	0.8	848.22	0.77
298.15	0.854	851.69	0.77
298.15	0.9009	854.88	0.77
298.15	0.9475	858.12	0.75
298.15	1	862.18	0.73
308.15	0	804.88	0.7
308.15	0.0514	806.49	0.7
308.15	0.1014	808.2	0.71
308.15	0.1469	809.75	0.72
308.15	0.2008	811.62	0.72
308.15	0.2519	813.37	0.73
308.15	0.3007	815.12	0.74
308.15	0.348	816.85	0.74
308.15	0.4006	818.86	0.75
308.15	0.4526	820.97	0.75
308.15	0.5002	822.92	0.75
308.15	0.5501	825.13	0.76
308.15	0.6011	827.5	0.77
308.15	0.6574	830.22	0.77
308.15	0.7011	832.53	0.77
308.15	0.756	835.62	0.77
308.15	0.8	838.25	0.77
308.15	0.854	841.71	0.77
308.15	0.9009	844.95	0.77
308.15	0.9475	848.5	0.75
308.15	1	852.79	0.74

System: toluene + 2-heptanol; phases: Liquid
Fixed: Pressure, kPa = 101
Property: Viscosity, Pa*s (Liquid); method: Capillary tube (Ostwald; Ubbelohde) method
Temperature, K	Mole fraction of toluene	Viscosity, Pa*s	uncertainty
298.15	0	0.005088	0.000409
298.15	0.0514	0.004335	0.000349
298.15	0.1014	0.003878	0.000312
298.15	0.1469	0.003392	0.000273
298.15	0.2008	0.002918	0.000235
298.15	0.2519	0.002526	0.000203
298.15	0.3007	0.002195	0.000176
298.15	0.348	0.0019	0.000153
298.15	0.4006	0.001622	0.00013
298.15	0.4526	0.001396	0.000112
298.15	0.5002	0.00124	0.0001
298.15	0.5501	0.001064	8.5e-05
298.15	0.6011	0.000931	7.5e-05
298.15	0.6574	0.000853	6.8e-05
298.15	0.7011	0.000778	6.2e-05
298.15	0.756	0.000741	5.9e-05
298.15	0.8	0.000691	5.5e-05
298.15	0.854	0.00065	5.2e-05
298.15	0.9009	0.000611	4.9e-05
298.15	0.9475	0.000589	4.7e-05
298.15	1	0.000554	4.4e-05
308.15	0	0.003683	0.000297
308.15	0.0514	0.003171	0.000255
308.15	0.1014	0.002776	0.000224
308.15	0.1469	0.002459	0.000198
308.15	0.2008	0.002155	0.000174
308.15	0.2519	0.001875	0.000151
308.15	0.3007	0.001665	0.000134
308.15	0.348	0.001485	0.000119
308.15	0.4006	0.001332	0.000107
308.15	0.4526	0.001199	9.6e-05
308.15	0.5002	0.001078	8.7e-05
308.15	0.5501	0.000992	8e-05
308.15	0.6011	0.000904	7.3e-05
308.15	0.6574	0.000818	6.6e-05
308.15	0.7011	0.000756	6.1e-05
308.15	0.756	0.000679	5.5e-05
308.15	0.8	0.000641	5.1e-05
308.15	0.854	0.00057	4.6e-05
308.15	0.9009	0.000518	4.2e-05
308.15	0.9475	0.000501	4e-05
308.15	1	0.000496	4e-05

System: toluene + 2-heptanol; phases: Liquid
Fixed: Pressure, kPa = 101
Fixed: Frequency, MHz = 2
Property: Speed of sound, m/s (Liquid); method: Linear variable-path acoustic interferometer
Temperature, K	Mole fraction of toluene	Speed of sound, m/s	uncertainty
298.15	0	1314	3
298.15	0.0514	1309	3
298.15	0.1014	1303	3
298.15	0.1469	1298	3
298.15	0.2008	1293	3
298.15	0.2519	1288	3
298.15	0.3007	1283	3
298.15	0.348	1279	3
298.15	0.4006	1276	3
298.15	0.4526	1272	3
298.15	0.5002	1271	3
298.15	0.5501	1269	3
298.15	0.6011	1268	3
298.15	0.6574	1268	3
298.15	0.7011	1269	3
298.15	0.756	1273	3
298.15	0.8	1276	3
298.15	0.854	1283	3
298.15	0.9009	1289	3
298.15	0.9475	1296	3
298.15	1	1306	3
308.15	0	1274	3
308.15	0.0514	1267	3
308.15	0.1014	1261	3
308.15	0.1469	1256	3
308.15	0.2008	1251	3
308.15	0.2519	1246	3
308.15	0.3007	1243	3
308.15	0.348	1238	3
308.15	0.4006	1235	3
308.15	0.4526	1232	3
308.15	0.5002	1230	3
308.15	0.5501	1229	3
308.15	0.6011	1228	3
308.15	0.6574	1229	3
308.15	0.7011	1230	3
308.15	0.756	1234	3
308.15	0.8	1238	3
308.15	0.854	1243	3
308.15	0.9009	1250	3
308.15	0.9475	1258	3
308.15	1	1270	3

System: toluene + 2-octanol; phases: Liquid
Fixed: Pressure, kPa = 101
Property: Mass density, kg/m3 (Liquid); method: Pycnometric method
Temperature, K	Mole fraction of toluene	Mass density, kg/m3	uncertainty
298.15	0	817.08	0.58
298.15	0.0494	818.49	0.59
298.15	0.0991	819.89	0.6
298.15	0.1497	821.39	0.61
298.15	0.1999	822.91	0.62
298.15	0.2511	824.47	0.64
298.15	0.2996	826.03	0.65
298.15	0.354	827.83	0.66
298.15	0.3998	829.43	0.67
298.15	0.4469	831.12	0.68
298.15	0.5	833.15	0.69
298.15	0.5509	835.22	0.7
298.15	0.5995	837.33	0.71
298.15	0.6486	839.67	0.72
298.15	0.701	842.33	0.73
298.15	0.7477	844.88	0.74
298.15	0.7989	847.89	0.74
298.15	0.8513	851.18	0.75
298.15	0.9	854.46	0.74
298.15	0.9511	858.12	0.75
298.15	1	862.18	0.73
308.15	0	809.89	0.6
308.15	0.0494	811.13	0.61
308.15	0.0991	812.4	0.61
308.15	0.1497	813.76	0.62
308.15	0.1999	815.11	0.63
308.15	0.2511	816.48	0.64
308.15	0.2996	817.85	0.66
308.15	0.354	819.46	0.67
308.15	0.3998	820.91	0.68
308.15	0.4469	822.49	0.69
308.15	0.5	824.35	0.7
308.15	0.5509	826.29	0.7
308.15	0.5995	828.32	0.71
308.15	0.6486	830.43	0.72
308.15	0.701	832.94	0.73
308.15	0.7477	835.37	0.74
308.15	0.7989	838.32	0.75
308.15	0.8513	841.6	0.75
308.15	0.9	844.93	0.74
308.15	0.9511	848.66	0.73
308.15	1	852.79	0.74

System: toluene + 2-octanol; phases: Liquid
Fixed: Pressure, kPa = 101
Property: Viscosity, Pa*s (Liquid); method: Capillary tube (Ostwald; Ubbelohde) method
Temperature, K	Mole fraction of toluene	Viscosity, Pa*s	uncertainty
298.15	0	0.006429	0.000517
298.15	0.0494	0.005547	0.000446
298.15	0.0991	0.004813	0.000387
298.15	0.1497	0.004186	0.000337
298.15	0.1999	0.003559	0.000286
298.15	0.2511	0.003069	0.000247
298.15	0.2996	0.002652	0.000213
298.15	0.354	0.002239	0.00018
298.15	0.3998	0.001966	0.000158
298.15	0.4469	0.00169	0.000136
298.15	0.5	0.001462	0.000118
298.15	0.5509	0.001263	0.000101
298.15	0.5995	0.001104	8.9e-05
298.15	0.6486	0.000947	7.6e-05
298.15	0.701	0.00088	7.1e-05
298.15	0.7477	0.000791	6.4e-05
298.15	0.7989	0.000716	5.7e-05
298.15	0.8513	0.000628	5e-05
298.15	0.9	0.000636	5.1e-05
298.15	0.9511	0.000574	4.6e-05
298.15	1	0.000554	4.4e-05
308.15	0	0.004365	0.000352
308.15	0.0494	0.003837	0.00031
308.15	0.0991	0.003373	0.000272
308.15	0.1497	0.002975	0.00024
308.15	0.1999	0.002563	0.000206
308.15	0.2511	0.002264	0.000182
308.15	0.2996	0.001986	0.00016
308.15	0.354	0.001685	0.000136
308.15	0.3998	0.001488	0.00012
308.15	0.4469	0.001276	0.000103
308.15	0.5	0.001121	9e-05
308.15	0.5509	0.001004	8.1e-05
308.15	0.5995	0.000912	7.3e-05
308.15	0.6486	0.000836	6.7e-05
308.15	0.701	0.00077	6.2e-05
308.15	0.7477	0.000707	5.7e-05
308.15	0.7989	0.000649	5.2e-05
308.15	0.8513	0.000569	4.6e-05
308.15	0.9	0.000573	4.6e-05
308.15	0.9511	0.000506	4.1e-05
308.15	1	0.000496	4e-05

System: toluene + 2-octanol; phases: Liquid
Fixed: Pressure, kPa = 101
Fixed: Frequency, MHz = 2
Property: Speed of sound, m/s (Liquid); method: Linear variable-path acoustic interferometer
Temperature, K	Mole fraction of toluene	Speed of sound, m/s	uncertainty
298.15	0	1328	3
298.15	0.0494	1323	3
298.15	0.0991	1317	3
298.15	0.1497	1313	3
298.15	0.1999	1306	3
298.15	0.2511	1299	3
298.15	0.2996	1294	3
298.15	0.354	1289	3
298.15	0.3998	1285	3
298.15	0.4469	1279	3
298.15	0.5	1277	3
298.15	0.5509	1273	3
298.15	0.5995	1271	3
298.15	0.6486	1270	3
298.15	0.701	1270	3
298.15	0.7477	1271	3
298.15	0.7989	1273	3
298.15	0.8513	1278	3
298.15	0.9	1286	3
298.15	0.9511	1294	3
298.15	1	1306	3
308.15	0	1292	3
308.15	0.0494	1285	3
308.15	0.0991	1280	3
308.15	0.1497	1274	3
308.15	0.1999	1268	3
308.15	0.2511	1261	3
308.15	0.2996	1257	3
308.15	0.354	1250	3
308.15	0.3998	1247	3
308.15	0.4469	1243	3
308.15	0.5	1239	3
308.15	0.5509	1235	3
308.15	0.5995	1234	3
308.15	0.6486	1232	3
308.15	0.701	1233	3
308.15	0.7477	1234	3
308.15	0.7989	1237	3
308.15	0.8513	1241	3
308.15	0.9	1247	3
308.15	0.9511	1255	3
308.15	1	1270	3
