Measured thermophysical data. Vapour pressures and enthalpies of vaporization of a series  of substituted phenyl isobutyl ethers
Source: Fluid Phase Equilib., 2005, 10.1016/j.fluid.2004.11.024
Compound 1: 1-bromo-2-isobutoxybenzene, C10H13BrO, InChI=1S/C10H13BrO/c1-8(2)7-12-10-6-4-3-5-9(10)11/h3-6,8H,7H2,1-2H3
Compound 2: 1-bromo-3-isobutoxybenzene, C10H13BrO, InChI=1S/C10H13BrO/c1-8(2)7-12-10-5-3-4-9(11)6-10/h3-6,8H,7H2,1-2H3
Compound 3: 1-bromo-4-isobutoxybenzene, C10H13BrO, InChI=1S/C10H13BrO/c1-8(2)7-12-10-5-3-9(11)4-6-10/h3-6,8H,7H2,1-2H3
Compound 4: 2-bromo-1-isobutoxy-4-methylbenzene, C11H15BrO, InChI=1S/C11H15BrO/c1-8(2)7-13-11-5-4-9(3)6-10(11)12/h4-6,8H,7H2,1-3H3

System: 1-bromo-2-isobutoxybenzene; phases: Liquid, Gas
Property: Vapor or sublimation pressure, kPa (Liquid); method: Transpiration method
Temperature, K	Vapor or sublimation pressure, kPa	uncertainty
293.3	0.00213	0.00011
295.3	0.00252	0.00013
298.1	0.00325	0.00017
301.2	0.00423	0.00022
303.3	0.00511	0.00027
306.2	0.00634	0.00033
308.3	0.00753	0.0004
311.2	0.00954	0.0005
313.3	0.01119	0.00059
316.3	0.01398	0.00073
318.2	0.01628	0.00085
321.3	0.02031	0.00105
323.2	0.02325	0.0012

System: 1-bromo-3-isobutoxybenzene; phases: Liquid, Gas
Property: Vapor or sublimation pressure, kPa (Liquid); method: Transpiration method
Temperature, K	Vapor or sublimation pressure, kPa	uncertainty
290.2	0.00145	8e-05
293.3	0.00194	0.0001
295.2	0.00232	0.00012
298.1	0.00301	0.00016
301.1	0.00389	0.0002
303.2	0.00465	0.00025
306.2	0.00607	0.00032
308.1	0.00703	0.00037
311.3	0.00909	0.00048
313.2	0.0106	0.00056
316.1	0.01312	0.00069
318.3	0.01567	0.00082
321.3	0.01929	0.001
323.2	0.02231	0.00116

System: 1-bromo-4-isobutoxybenzene; phases: Liquid, Gas
Property: Vapor or sublimation pressure, kPa (Liquid); method: Transpiration method
Temperature, K	Vapor or sublimation pressure, kPa	uncertainty
293.2	0.00151	8e-05
298.3	0.00242	0.00013
301.2	0.00304	0.00016
303.2	0.00351	0.00019
306.2	0.0048	0.00025
308.4	0.00538	0.00028
311.3	0.00687	0.00036
313.3	0.0081	0.00043
316.2	0.0101	0.00053
318.3	0.01175	0.00062
321.3	0.01498	0.00078
323.2	0.01699	0.0009
326.3	0.0224	0.00118
328.2	0.02634	0.00139
331.2	0.03352	0.00175
333.2	0.0391	0.00203

System: 2-bromo-1-isobutoxy-4-methylbenzene; phases: Liquid, Gas
Property: Vapor or sublimation pressure, kPa (Liquid); method: Transpiration method
Temperature, K	Vapor or sublimation pressure, kPa	uncertainty
293.2	0.0006	3e-05
295.2	0.00076	4e-05
298.3	0.00103	5e-05
300.2	0.0012	6e-05
301.2	0.00132	7e-05
303.1	0.0016	8e-05
303.8	0.00167	9e-05
306.1	0.00208	0.00011
306.2	0.00213	0.00011
308.2	0.00261	0.00014
309.1	0.00271	0.00014
311.1	0.00328	0.00017
311.2	0.00322	0.00017
313.2	0.00385	0.00021
316.3	0.00506	0.00027
318.2	0.00591	0.00031
318.7	0.00622	0.00033
321.2	0.00746	0.00039
321.3	0.00752	0.0004
321.3	0.00762	0.0004
323.2	0.00914	0.00048
323.2	0.00897	0.00047
323.2	0.00883	0.00047
326.2	0.01113	0.00058
328.2	0.01293	0.00067
