Measured thermophysical data. Modulation in physico-chemical characteristics of some polyhydroxy solutes in presence of L-glycine: Volumetric and NMR spectroscopic approach
Source: Fluid Phase Equilib., 2015, 10.1016/j.fluid.2015.05.043
Compound 1: .alpha.-methyl mannopyranoside, C7H14O6, InChI=1S/C7H14O6/c1-12-7-6(11)5(10)4(9)3(2-8)13-7/h3-11H,2H2,1H3/t3-,4-,5+,6+,7+/m1/s1, purity 99%
Compound 2: D-glucose, C6H12O6, InChI=1S/C6H12O6/c7-1-3(9)5(11)6(12)4(10)2-8/h1,3-6,8-12H,2H2/t3-,4+,5+,6+/m0/s1, purity 99%
Compound 3: methyl-.alpha.-D-glucopyranoside, C7H14O6, InChI=1S/C7H14O6/c1-12-7-6(11)5(10)4(9)3(2-8)13-7/h3-11H,2H2,1H3/t3-,4-,5+,6-,7+/m1/s1, purity 99%
Compound 4: L-sorbose, C6H12O6, InChI=1S/C6H12O6/c7-1-3(9)5(11)6(12)4(10)2-8/h3,5-9,11-12H,1-2H2/t3-,5+,6+/m0/s1, purity 98%
Compound 5: D-(+)-maltose monohydrate, C12H24O12, InChI=1S/C12H22O11.H2O/c13-1-3-5(15)6(16)9(19)12(22-3)23-10-4(2-14)21-11(20)8(18)7(10)17;/h3-20H,1-2H2;1H2/t3-,4-,5-,6+,7-,8-,9-,10-,11-,12-;/m1./s1, purity 95%
Compound 6: D-cellobiose, C12H22O11, InChI=1S/C12H22O11/c13-1-3-5(15)6(16)9(19)12(22-3)23-10-4(2-14)21-11(20)8(18)7(10)17/h3-20H,1-2H2/t3-,4-,5-,6+,7-,8-,9-,10-,11-,12+/m1/s1, purity 98%
Compound 7: 2-aminoacetic acid, C2H5NO2, InChI=1S/C2H5NO2/c3-1-2(4)5/h1,3H2,(H,4,5), purity 99%
Compound 8: 6-deoxy-D-mannose, C6H12O5, InChI=1S/C6H12O5/c1-3(8)5(10)6(11)4(9)2-7/h2-6,8-11H,1H3/t3-,4-,5-,6-/m1/s1, purity 99%
Compound 9: D-mannitol, C6H14O6, InChI=1S/C6H14O6/c7-1-3(9)5(11)6(12)4(10)2-8/h3-12H,1-2H2/t3-,4-,5-,6-/m1/s1, purity 99%
Compound 10: 2-deoxy-D-glucose, C6H12O5, InChI=1S/C6H12O5/c7-2-4-6(10)3(8)1-5(9)11-4/h3-10H,1-2H2/t3-,4-,5?,6+/m1/s1, purity 99%
Compound 11: D-sorbitol, C6H14O6, InChI=1S/C6H14O6/c7-1-3(9)5(11)6(12)4(10)2-8/h3-12H,1-2H2/t3-,4+,5-,6-/m1/s1, purity 98%
Compound 12: cis-1,2,3,5-trans-4,6-cyclohexanehexol, C6H12O6, InChI=1S/C6H12O6/c7-1-2(8)4(10)6(12)5(11)3(1)9/h1-12H/t1-,2-,3-,4+,5-,6-, purity 98%
Compound 13: D-mannose, C6H12O6, InChI=1S/C6H12O6/c7-1-3(9)5(11)6(12)4(10)2-8/h1,3-6,8-12H,2H2/t3-,4-,5-,6-/m1/s1, purity 99%
Compound 14: water, H2O, InChI=1S/H2O/h1H2, purity 99.9%

System: water; phases: Liquid
Property: Electrical conductivity, S/m (Liquid); method: Alternating current cell with electrodes
Temperature, K	Pressure, kPa	Electrical conductivity, S/m	uncertainty
298.15	101.325	0.000129	1e-06

System: 2-aminoacetic acid + D-mannose + water; phases: Liquid
Fixed: Pressure, kPa = 101
Property: Mass density, kg/m3 (Liquid); method: Vibrating tube method
Temperature, K	Solvent: Molality, mol/kg of 2-aminoacetic acid	Molality, mol/kg of D-mannose	Mass density, kg/m3	uncertainty
288.15	0	0	1000.519	0.131
288.15	0	0.05128	1002.65	0.132
288.15	0	0.07205	1004.059	0.133
288.15	0	0.08112	1004.67	0.133
288.15	0	0.09335	1005.491	0.133
288.15	0	0.12882	1007.867	0.135
288.15	0	0.15171	1009.387	0.135
298.15	0	0	998.639	0.131
298.15	0	0.05128	1000.537	0.131
298.15	0	0.07205	1001.93	0.132
298.15	0	0.08112	1002.535	0.132
298.15	0	0.09335	1003.346	0.132
298.15	0	0.12882	1005.695	0.134
298.15	0	0.15171	1007.198	0.134
308.15	0	0	995.613	0.132
308.15	0	0.05128	997.532	0.131
308.15	0	0.07205	998.92	0.131
308.15	0	0.08112	999.523	0.131
308.15	0	0.09335	1000.334	0.131
308.15	0	0.12882	1002.676	0.132
308.15	0	0.15171	1004.177	0.133
318.15	0	0	991.883	0.132
318.15	0	0.05128	993.684	0.132
318.15	0	0.07205	995.058	0.132
318.15	0	0.08112	995.655	0.132
318.15	0	0.09335	996.458	0.132
318.15	0	0.12882	998.776	0.131
318.15	0	0.15171	1000.255	0.131
288.15	0.05	0.05944	1018.976	0.142
288.15	0.05	0.06545	1019.384	0.142
288.15	0.05	0.0906	1021.089	0.141
288.15	0.05	0.12315	1023.275	0.142
288.15	0.05	0.14195	1024.526	0.143
288.15	0.05	0.15113	1025.123	0.143
288.15	0.05	0.18306	1027.221	0.145
288.15	0.05	0.19701	1028.13	0.145
298.15	0.05	0.05944	1011.97	0.138
298.15	0.05	0.06545	1012.374	0.138
298.15	0.05	0.0906	1014.067	0.138
298.15	0.05	0.12315	1016.239	0.139
298.15	0.05	0.14195	1017.48	0.14
298.15	0.05	0.15113	1018.081	0.14
298.15	0.05	0.18306	1020.17	0.141
298.15	0.05	0.19701	1021.07	0.141
308.15	0.05	0.05944	1008.709	0.136
308.15	0.05	0.06545	1009.108	0.136
308.15	0.05	0.0906	1010.776	0.136
308.15	0.05	0.12315	1012.916	0.137
308.15	0.05	0.14195	1014.137	0.138
308.15	0.05	0.15113	1014.727	0.138
308.15	0.05	0.18306	1016.785	0.139
308.15	0.05	0.19701	1017.672	0.139
318.15	0.05	0.05944	1004.883	0.135
318.15	0.05	0.06545	1005.28	0.135
318.15	0.05	0.0906	1006.938	0.135
318.15	0.05	0.12315	1009.068	0.136
318.15	0.05	0.14195	1010.283	0.136
318.15	0.05	0.15113	1010.872	0.137
318.15	0.05	0.18306	1012.923	0.137
318.15	0.05	0.19701	1013.808	0.138
288.15	0.15	0	1004.094	0.133
288.15	0.15	0.0625	1008.403	0.135
288.15	0.15	0.07619	1009.333	0.135
288.15	0.15	0.08938	1010.225	0.136
288.15	0.15	0.09999	1010.94	0.136
288.15	0.15	0.12828	1012.838	0.137
288.15	0.15	0.14802	1014.152	0.138
288.15	0.15	0.1789	1016.194	0.139
288.15	0.15	0.2036	1017.814	0.14
298.15	0.15	0	1001.842	0.132
298.15	0.15	0.0625	1006.104	0.134
298.15	0.15	0.07619	1007.025	0.134
298.15	0.15	0.08938	1007.909	0.135
298.15	0.15	0.09999	1008.614	0.135
298.15	0.15	0.12828	1010.495	0.136
298.15	0.15	0.14802	1011.793	0.136
298.15	0.15	0.1789	1013.816	0.137
298.15	0.15	0.2036	1015.418	0.138
308.15	0.15	0	998.701	0.131
308.15	0.15	0.0625	1002.916	0.132
308.15	0.15	0.07619	1003.828	0.133
308.15	0.15	0.08938	1004.702	0.133
308.15	0.15	0.09999	1005.401	0.133
308.15	0.15	0.12828	1007.26	0.134
308.15	0.15	0.14802	1008.545	0.135
308.15	0.15	0.1789	1010.544	0.136
308.15	0.15	0.2036	1012.116	0.137
318.15	0.15	0	994.912	0.132
318.15	0.15	0.0625	999.091	0.131
318.15	0.15	0.07619	999.994	0.131
318.15	0.15	0.08938	1000.858	0.131
318.15	0.15	0.09999	1001.551	0.132
318.15	0.15	0.12828	1003.393	0.132
318.15	0.15	0.14802	1004.665	0.133
318.15	0.15	0.1789	1006.644	0.134
318.15	0.15	0.2036	1008.209	0.135
288.15	0.25	0	1007.451	0.134
288.15	0.25	0.05554	1011.218	0.136
288.15	0.25	0.0644	1011.812	0.136
288.15	0.25	0.07681	1012.641	0.137
288.15	0.25	0.09169	1013.631	0.137
288.15	0.25	0.11644	1015.269	0.138
288.15	0.25	0.13056	1016.195	0.139
288.15	0.25	0.15899	1018.054	0.139
298.15	0.25	0	1004.893	0.133
298.15	0.25	0.05554	1008.632	0.135
298.15	0.25	0.0644	1009.221	0.135
298.15	0.25	0.07681	1010.044	0.136
298.15	0.25	0.09169	1011.027	0.136
298.15	0.25	0.11644	1012.652	0.137
298.15	0.25	0.13056	1013.569	0.137
298.15	0.25	0.15899	1015.414	0.138
308.15	0.25	0	1001.752	0.132
308.15	0.25	0.05554	1005.47	0.134
308.15	0.25	0.0644	1006.055	0.134
308.15	0.25	0.07681	1006.874	0.134
308.15	0.25	0.09169	1007.851	0.135
308.15	0.25	0.11644	1009.467	0.135
308.15	0.25	0.13056	1010.379	0.136
308.15	0.25	0.15899	1012.216	0.137
318.15	0.25	0	997.907	0.131
318.15	0.25	0.05554	1001.601	0.132
318.15	0.25	0.0644	1002.182	0.132
318.15	0.25	0.07681	1002.995	0.132
318.15	0.25	0.09169	1003.963	0.133
318.15	0.25	0.11644	1005.568	0.134
318.15	0.25	0.13056	1006.473	0.134
318.15	0.25	0.15899	1008.294	0.135
288.15	0.35	0	1010.589	0.136
288.15	0.35	0.05799	1014.508	0.138
288.15	0.35	0.07674	1015.76	0.14
288.15	0.35	0.0953	1016.991	0.139
288.15	0.35	0.11703	1018.42	0.14
288.15	0.35	0.14048	1019.954	0.14
288.15	0.35	0.17754	1022.363	0.142
288.15	0.35	0.19582	1023.534	0.142
288.15	0.35	0.21457	1024.726	0.143
298.15	0.35	0	1007.909	0.135
298.15	0.35	0.05799	1011.801	0.136
298.15	0.35	0.07674	1013.043	0.137
298.15	0.35	0.0953	1014.266	0.138
298.15	0.35	0.11703	1015.688	0.138
298.15	0.35	0.14048	1017.212	0.139
298.15	0.35	0.17754	1019.603	0.14
298.15	0.35	0.19582	1020.766	0.141
298.15	0.35	0.21457	1021.951	0.141
308.15	0.35	0	1004.697	0.133
308.15	0.35	0.05799	1008.566	0.135
308.15	0.35	0.07674	1009.8	0.136
308.15	0.35	0.0953	1011.015	0.136
308.15	0.35	0.11703	1012.43	0.137
308.15	0.35	0.14048	1013.942	0.138
308.15	0.35	0.17754	1016.322	0.139
308.15	0.35	0.19582	1017.48	0.139
308.15	0.35	0.21457	1018.66	0.14
318.15	0.35	0	1000.903	0.131
318.15	0.35	0.05799	1004.748	0.133
318.15	0.35	0.07674	1005.974	0.134
318.15	0.35	0.0953	1007.179	0.134
318.15	0.35	0.11703	1008.581	0.135
318.15	0.35	0.14048	1010.082	0.136
318.15	0.35	0.17754	1012.439	0.137
318.15	0.35	0.19582	1013.585	0.137
318.15	0.35	0.21457	1014.752	0.138
288.15	0.5	0	1015.016	0.138
288.15	0.5	0.03942	1017.546	0.139
288.15	0.5	0.06849	1019.488	0.14
288.15	0.5	0.08502	1020.582	0.141
288.15	0.5	0.12352	1023.116	0.142
288.15	0.5	0.12815	1023.416	0.142
288.15	0.5	0.15393	1025.088	0.143
298.15	0.5	0	1012.338	0.137
298.15	0.5	0.03942	1015.084	0.138
298.15	0.5	0.06849	1017.01	0.139
298.15	0.5	0.08502	1018.097	0.14
298.15	0.5	0.12352	1020.611	0.141
298.15	0.5	0.12815	1020.907	0.141
298.15	0.5	0.15393	1022.57	0.142
308.15	0.5	0	1009.196	0.135
308.15	0.5	0.03942	1011.824	0.137
308.15	0.5	0.06849	1013.744	0.137
308.15	0.5	0.08502	1014.828	0.138
308.15	0.5	0.12352	1017.339	0.139
308.15	0.5	0.12815	1017.634	0.139
308.15	0.5	0.15393	1019.294	0.14
318.15	0.5	0	1005.35	0.133
318.15	0.5	0.03942	1007.962	0.135
318.15	0.5	0.06849	1009.87	0.136
318.15	0.5	0.08502	1010.942	0.136
318.15	0.5	0.12352	1013.425	0.137
318.15	0.5	0.12815	1013.72	0.137
318.15	0.5	0.15393	1015.362	0.138

System: 2-aminoacetic acid + 6-deoxy-D-mannose + water; phases: Liquid
Fixed: Pressure, kPa = 101
Property: Mass density, kg/m3 (Liquid); method: Vibrating tube method
Temperature, K	Solvent: Molality, mol/kg of 2-aminoacetic acid	Molality, mol/kg of 6-deoxy-D-mannose	Mass density, kg/m3	uncertainty
288.15	0	0.04431	1001.504	0.131
288.15	0	0.07435	1003.095	0.132
288.15	0	0.08916	1003.873	0.133
288.15	0	0.13192	1006.102	0.134
288.15	0	0.14111	1006.57	0.134
298.15	0	0.04431	999.411	0.131
298.15	0	0.07435	1000.995	0.131
298.15	0	0.08916	1001.767	0.132
298.15	0	0.13192	1003.985	0.133
298.15	0	0.14111	1004.452	0.133
308.15	0	0.04431	996.394	0.131
308.15	0	0.07435	997.953	0.131
308.15	0	0.08916	998.715	0.131
308.15	0	0.13192	1000.902	0.131
308.15	0	0.14111	1001.362	0.132
318.15	0	0.04431	992.525	0.132
318.15	0	0.07435	994.053	0.132
318.15	0	0.08916	994.799	0.132
318.15	0	0.13192	996.938	0.131
318.15	0	0.14111	997.39	0.131
288.15	0.05	0.05561	1003.464	0.132
288.15	0.05	0.07138	1004.288	0.133
288.15	0.05	0.10624	1006.096	0.134
288.15	0.05	0.11946	1006.775	0.134
288.15	0.05	0.14831	1008.243	0.135
298.15	0.05	0.05561	1001.576	0.132
298.15	0.05	0.07138	1002.398	0.132
298.15	0.05	0.10624	1004.2	0.133
298.15	0.05	0.11946	1004.875	0.133
298.15	0.05	0.14831	1006.341	0.134
308.15	0.05	0.05561	998.514	0.131
308.15	0.05	0.07138	999.323	0.131
308.15	0.05	0.10624	1001.102	0.131
308.15	0.05	0.11946	1001.768	0.132
308.15	0.05	0.14831	1003.214	0.132
318.15	0.05	0.05561	994.729	0.132
318.15	0.05	0.07138	995.525	0.132
318.15	0.05	0.10624	997.272	0.131
318.15	0.05	0.11946	997.927	0.131
318.15	0.05	0.14831	999.347	0.131
288.15	0.15	0.04064	1006.235	0.134
288.15	0.15	0.06448	1007.476	0.134
288.15	0.15	0.09083	1008.833	0.135
288.15	0.15	0.12663	1010.662	0.136
288.15	0.15	0.15	1011.837	0.136
298.15	0.15	0.04064	1003.979	0.133
298.15	0.15	0.06448	1005.218	0.133
298.15	0.15	0.09083	1006.575	0.134
298.15	0.15	0.12663	1008.399	0.135
298.15	0.15	0.15	1009.567	0.135
308.15	0.15	0.04064	1000.813	0.131
308.15	0.15	0.06448	1002.037	0.132
308.15	0.15	0.09083	1003.377	0.133
308.15	0.15	0.12663	1005.177	0.133
308.15	0.15	0.15	1006.337	0.134
318.15	0.15	0.04064	996.984	0.131
318.15	0.15	0.06448	998.182	0.131
318.15	0.15	0.09083	999.492	0.131
318.15	0.15	0.12663	1001.255	0.132
318.15	0.15	0.15	1002.388	0.132
288.15	0.25	0.03911	1009.497	0.135
288.15	0.25	0.06737	1010.958	0.136
288.15	0.25	0.08622	1011.921	0.136
288.15	0.25	0.11287	1013.272	0.137
288.15	0.25	0.14883	1015.074	0.138
298.15	0.25	0.03911	1006.936	0.134
298.15	0.25	0.06737	1008.395	0.135
298.15	0.25	0.08622	1009.357	0.135
298.15	0.25	0.11287	1010.709	0.136
298.15	0.25	0.14883	1012.512	0.137
308.15	0.25	0.03911	1003.772	0.133
308.15	0.25	0.06737	1005.213	0.133
308.15	0.25	0.08622	1006.164	0.134
308.15	0.25	0.11287	1007.499	0.134
308.15	0.25	0.14883	1009.286	0.135
318.15	0.25	0.03911	999.89	0.131
318.15	0.25	0.06737	1001.306	0.132
318.15	0.25	0.08622	1002.239	0.132
318.15	0.25	0.11287	1003.548	0.133
318.15	0.25	0.14883	1005.297	0.133
288.15	0.35	0.05058	1013.213	0.137
288.15	0.35	0.06721	1014.061	0.138
288.15	0.35	0.08775	1015.101	0.138
288.15	0.35	0.12087	1016.765	0.139
288.15	0.35	0.14512	1017.968	0.139
298.15	0.35	0.05058	1010.53	0.136
298.15	0.35	0.06721	1011.381	0.136
298.15	0.35	0.08775	1012.423	0.137
298.15	0.35	0.12087	1014.091	0.138
298.15	0.35	0.14512	1015.292	0.138
308.15	0.35	0.05058	1007.289	0.134
308.15	0.35	0.06721	1008.13	0.135
308.15	0.35	0.08775	1009.162	0.135
308.15	0.35	0.12087	1010.813	0.136
308.15	0.35	0.14512	1012.003	0.137
318.15	0.35	0.05058	1003.447	0.133
318.15	0.35	0.06721	1004.272	0.133
318.15	0.35	0.08775	1005.282	0.133
318.15	0.35	0.12087	1006.896	0.134
318.15	0.35	0.14512	1008.064	0.135
288.15	0.5	0.0466	1017.412	0.139
288.15	0.5	0.07772	1018.992	0.14
288.15	0.5	0.10187	1020.203	0.141
288.15	0.5	0.13134	1021.667	0.141
288.15	0.5	0.14646	1022.411	0.142
298.15	0.5	0.0466	1014.732	0.138
298.15	0.5	0.07772	1016.308	0.139
298.15	0.5	0.10187	1017.516	0.139
298.15	0.5	0.13134	1018.981	0.14
298.15	0.5	0.14646	1019.723	0.14
308.15	0.5	0.0466	1011.563	0.136
308.15	0.5	0.07772	1013.123	0.137
308.15	0.5	0.10187	1014.319	0.138
308.15	0.5	0.13134	1015.764	0.138
308.15	0.5	0.14646	1016.495	0.139
318.15	0.5	0.0466	1007.675	0.135
318.15	0.5	0.07772	1009.21	0.135
318.15	0.5	0.10187	1010.385	0.136
318.15	0.5	0.13134	1011.806	0.137
318.15	0.5	0.14646	1012.527	0.137

System: 2-aminoacetic acid + .alpha.-methyl mannopyranoside + water; phases: Liquid
Fixed: Pressure, kPa = 101
Property: Mass density, kg/m3 (Liquid); method: Vibrating tube method
Temperature, K	Solvent: Molality, mol/kg of 2-aminoacetic acid	Molality, mol/kg of .alpha.-methyl mannopyranoside	Mass density, kg/m3	uncertainty
288.15	0	0.04482	1001.888	0.132
288.15	0	0.06016	1002.82	0.132
288.15	0	0.07397	1003.654	0.133
288.15	0	0.10468	1005.496	0.133
288.15	0	0.12346	1006.613	0.134
298.15	0	0.04482	999.795	0.131
298.15	0	0.06016	1000.724	0.131
298.15	0	0.07397	1001.555	0.132
298.15	0	0.10468	1003.393	0.132
298.15	0	0.12346	1004.504	0.133
308.15	0	0.04482	996.782	0.131
308.15	0	0.06016	997.7	0.131
308.15	0	0.07397	998.522	0.131
308.15	0	0.10468	1000.337	0.131
308.15	0	0.12346	1001.435	0.132
318.15	0	0.04482	992.925	0.132
318.15	0	0.06016	993.831	0.132
318.15	0	0.07397	994.643	0.132
318.15	0	0.10468	996.436	0.132
318.15	0	0.12346	997.52	0.131
288.15	0.05	0.04818	1003.483	0.132
288.15	0.05	0.06182	1004.311	0.133
288.15	0.05	0.09008	1006.018	0.134
288.15	0.05	0.11609	1007.573	0.134
288.15	0.05	0.14438	1009.249	0.135
298.15	0.05	0.04818	1001.596	0.132
298.15	0.05	0.06182	1002.423	0.132
298.15	0.05	0.09008	1004.126	0.133
298.15	0.05	0.11609	1005.676	0.134
298.15	0.05	0.14438	1007.349	0.134
308.15	0.05	0.04818	998.546	0.131
308.15	0.05	0.06182	999.363	0.131
308.15	0.05	0.09008	1001.047	0.131
308.15	0.05	0.11609	1002.58	0.132
308.15	0.05	0.14438	1004.233	0.133
318.15	0.05	0.04818	994.781	0.132
318.15	0.05	0.06182	995.589	0.132
318.15	0.05	0.09008	997.256	0.131
318.15	0.05	0.11609	998.772	0.131
318.15	0.05	0.14438	1000.405	0.131
288.15	0.15	0.0565	1007.502	0.134
288.15	0.15	0.06916	1008.256	0.135
288.15	0.15	0.08844	1009.398	0.135
288.15	0.15	0.11383	1010.889	0.136
288.15	0.15	0.14654	1012.792	0.137
298.15	0.15	0.0565	1005.244	0.133
298.15	0.15	0.06916	1005.994	0.134
298.15	0.15	0.08844	1007.132	0.134
298.15	0.15	0.11383	1008.62	0.135
298.15	0.15	0.14654	1010.517	0.136
308.15	0.15	0.0565	1002.077	0.132
308.15	0.15	0.06916	1002.818	0.132
308.15	0.15	0.08844	1003.941	0.133
308.15	0.15	0.11383	1005.409	0.133
308.15	0.15	0.14654	1007.283	0.134
318.15	0.15	0.0565	998.254	0.131
318.15	0.15	0.06916	998.991	0.131
318.15	0.15	0.08844	1000.107	0.131
318.15	0.15	0.11383	1001.565	0.132
318.15	0.15	0.14654	1003.425	0.133
288.15	0.25	0.04443	1010.101	0.136
288.15	0.25	0.06967	1011.588	0.136
288.15	0.25	0.09754	1013.213	0.137
288.15	0.25	0.1125	1014.076	0.138
288.15	0.25	0.13359	1015.286	0.138
298.15	0.25	0.04443	1007.537	0.134
298.15	0.25	0.06967	1009.022	0.135
298.15	0.25	0.09754	1010.645	0.136
298.15	0.25	0.1125	1011.505	0.136
298.15	0.25	0.13359	1012.712	0.137
308.15	0.25	0.04443	1004.373	0.133
308.15	0.25	0.06967	1005.842	0.134
308.15	0.25	0.09754	1007.449	0.134
308.15	0.25	0.1125	1008.298	0.135
308.15	0.25	0.13359	1009.488	0.135
318.15	0.25	0.04443	1000.494	0.131
318.15	0.25	0.06967	1001.944	0.132
318.15	0.25	0.09754	1003.53	0.133
318.15	0.25	0.1125	1004.369	0.133
318.15	0.25	0.13359	1005.547	0.134
288.15	0.35	0.0402	1012.973	0.137
288.15	0.35	0.07575	1015.055	0.138
288.15	0.35	0.08992	1015.876	0.138
288.15	0.35	0.11809	1017.495	0.139
288.15	0.35	0.14843	1019.22	0.14
298.15	0.35	0.0402	1010.289	0.136
298.15	0.35	0.07575	1012.368	0.137
298.15	0.35	0.08992	1013.189	0.137
298.15	0.35	0.11809	1014.804	0.138
298.15	0.35	0.14843	1016.526	0.139
308.15	0.35	0.0402	1007.059	0.134
308.15	0.35	0.07575	1009.113	0.135
308.15	0.35	0.08992	1009.923	0.136
308.15	0.35	0.11809	1011.523	0.136
308.15	0.35	0.14843	1013.227	0.137
318.15	0.35	0.0402	1003.232	0.132
318.15	0.35	0.07575	1005.265	0.133
318.15	0.35	0.08992	1006.066	0.134
318.15	0.35	0.11809	1007.647	0.135
318.15	0.35	0.14843	1009.331	0.135
288.15	0.5	0.04741	1017.799	0.139
288.15	0.5	0.07037	1019.128	0.14
288.15	0.5	0.09404	1020.486	0.141
288.15	0.5	0.12125	1022.033	0.141
288.15	0.5	0.14489	1023.362	0.142
298.15	0.5	0.04741	1015.116	0.138
298.15	0.5	0.07037	1016.445	0.139
298.15	0.5	0.09404	1017.8	0.139
298.15	0.5	0.12125	1019.347	0.14
298.15	0.5	0.14489	1020.674	0.141
308.15	0.5	0.04741	1011.953	0.137
308.15	0.5	0.07037	1013.266	0.137
308.15	0.5	0.09404	1014.606	0.138
308.15	0.5	0.12125	1016.134	0.139
308.15	0.5	0.14489	1017.446	0.139
318.15	0.5	0.04741	1008.071	0.135
318.15	0.5	0.07037	1009.37	0.14
318.15	0.5	0.09404	1010.697	0.136
318.15	0.5	0.12125	1012.209	0.137
318.15	0.5	0.14489	1013.509	0.137

System: 2-aminoacetic acid + D-mannitol + water; phases: Liquid
Fixed: Pressure, kPa = 101
Property: Mass density, kg/m3 (Liquid); method: Vibrating tube method
Temperature, K	Solvent: Molality, mol/kg of 2-aminoacetic acid	Molality, mol/kg of D-mannitol	Mass density, kg/m3	uncertainty
288.15	0	0.05058	1002.395	0.132
288.15	0	0.07721	1004.094	0.133
288.15	0	0.10726	1005.991	0.134
288.15	0	0.1138	1006.399	0.134
288.15	0	0.12451	1007.067	0.134
288.15	0	0.1333	1007.609	0.134
298.15	0	0.05058	1000.218	0.131
298.15	0	0.07721	1001.867	0.132
298.15	0	0.10726	1003.713	0.133
298.15	0	0.1138	1004.105	0.133
298.15	0	0.12451	1004.754	0.133
298.15	0	0.1333	1005.281	0.133
308.15	0	0.05058	997.174	0.131
308.15	0	0.07721	998.795	0.131
308.15	0	0.10726	1000.605	0.131
308.15	0	0.1138	1000.993	0.131
308.15	0	0.12451	1001.63	0.132
308.15	0	0.1333	1002.146	0.132
318.15	0	0.05058	993.325	0.132
318.15	0	0.07721	994.921	0.132
318.15	0	0.10726	996.716	0.132
318.15	0	0.1138	997.098	0.131
318.15	0	0.12451	997.728	0.131
318.15	0	0.1333	998.241	0.131
288.15	0.05	0.0541	1018.293	0.14
288.15	0.05	0.06627	1019.05	0.141
288.15	0.05	0.09276	1020.693	0.141
288.15	0.05	0.11426	1022.014	0.141
288.15	0.05	0.14036	1023.606	0.143
288.15	0.05	0.15404	1024.434	0.143
288.15	0.05	0.19442	1026.866	0.144
288.15	0.05	0.19621	1026.968	0.144
298.15	0.05	0.0541	1011.234	0.137
298.15	0.05	0.06627	1011.973	0.137
298.15	0.05	0.09276	1013.576	0.138
298.15	0.05	0.11426	1014.864	0.138
298.15	0.05	0.14036	1016.419	0.139
298.15	0.05	0.15404	1017.223	0.139
298.15	0.05	0.19442	1019.591	0.141
298.15	0.05	0.19621	1019.687	0.141
308.15	0.05	0.0541	1007.965	0.135
308.15	0.05	0.06627	1008.692	0.135
308.15	0.05	0.09276	1010.268	0.136
308.15	0.05	0.11426	1011.533	0.136
308.15	0.05	0.14036	1013.055	0.137
308.15	0.05	0.15404	1013.849	0.138
308.15	0.05	0.19442	1016.175	0.139
308.15	0.05	0.19621	1016.269	0.139
318.15	0.05	0.0541	1004.151	0.134
318.15	0.05	0.06627	1004.874	0.133
318.15	0.05	0.09276	1006.443	0.134
318.15	0.05	0.11426	1007.702	0.135
318.15	0.05	0.14036	1009.218	0.135
318.15	0.05	0.15404	1010.003	0.136
318.15	0.05	0.19442	1012.319	0.137
318.15	0.05	0.19621	1012.412	0.137
288.15	0.15	0.05789	1007.758	0.135
288.15	0.15	0.08942	1009.727	0.136
288.15	0.15	0.10869	1010.917	0.136
288.15	0.15	0.12714	1012.05	0.137
288.15	0.15	0.14016	1012.84	0.137
288.15	0.15	0.15121	1013.509	0.138
288.15	0.15	0.16917	1014.597	0.138
288.15	0.15	0.19638	1016.232	0.14
298.15	0.15	0.05789	1005.408	0.133
298.15	0.15	0.08942	1007.324	0.134
298.15	0.15	0.10869	1008.485	0.135
298.15	0.15	0.12714	1009.589	0.135
298.15	0.15	0.14016	1010.36	0.136
298.15	0.15	0.15121	1011.013	0.136
298.15	0.15	0.16917	1012.073	0.137
298.15	0.15	0.19638	1013.666	0.137
308.15	0.15	0.05789	1002.207	0.132
308.15	0.15	0.08942	1004.09	0.133
308.15	0.15	0.10869	1005.23	0.133
308.15	0.15	0.12714	1006.313	0.134
308.15	0.15	0.14016	1007.07	0.134
308.15	0.15	0.15121	1007.711	0.135
308.15	0.15	0.16917	1008.749	0.135
308.15	0.15	0.19638	1010.312	0.136
318.15	0.15	0.05789	998.388	0.131
318.15	0.15	0.08942	1000.253	0.131
318.15	0.15	0.10869	1001.377	0.131
318.15	0.15	0.12714	1002.445	0.132
318.15	0.15	0.14016	1003.192	0.132
318.15	0.15	0.15121	1003.824	0.133
318.15	0.15	0.16917	1004.851	0.133
318.15	0.15	0.19638	1006.394	0.134
288.15	0.25	0.03936	1009.937	0.136
288.15	0.25	0.06855	1011.758	0.136
288.15	0.25	0.08442	1012.74	0.137
288.15	0.25	0.1006	1013.731	0.137
288.15	0.25	0.13882	1016.066	0.139
288.15	0.25	0.14399	1016.374	0.139
288.15	0.25	0.14701	1016.555	0.139
288.15	0.25	0.15269	1016.893	0.139
298.15	0.25	0.03936	1007.312	0.134
298.15	0.25	0.06855	1009.086	0.135
298.15	0.25	0.08442	1010.042	0.136
298.15	0.25	0.1006	1011.011	0.136
298.15	0.25	0.13882	1013.29	0.137
298.15	0.25	0.14399	1013.588	0.137
298.15	0.25	0.14701	1013.763	0.137
298.15	0.25	0.15269	1014.093	0.138
308.15	0.25	0.03936	1004.134	0.133
308.15	0.25	0.06855	1005.879	0.134
308.15	0.25	0.08442	1006.817	0.134
308.15	0.25	0.1006	1007.771	0.135
308.15	0.25	0.13882	1010.013	0.136
308.15	0.25	0.14399	1010.31	0.136
308.15	0.25	0.14701	1010.484	0.136
308.15	0.25	0.15269	1010.806	0.136
318.15	0.25	0.03936	1000.27	0.131
318.15	0.25	0.06855	1002.001	0.132
318.15	0.25	0.08442	1002.934	0.132
318.15	0.25	0.1006	1003.877	0.133
318.15	0.25	0.13882	1006.094	0.134
318.15	0.25	0.14399	1006.384	0.134
318.15	0.25	0.14701	1006.553	0.134
318.15	0.25	0.15269	1006.869	0.134
288.15	0.35	0.05008	1013.727	0.137
288.15	0.35	0.07107	1015.028	0.138
288.15	0.35	0.09653	1016.592	0.139
288.15	0.35	0.10264	1016.96	0.139
288.15	0.35	0.12065	1018.048	0.139
288.15	0.35	0.15433	1020.077	0.14
288.15	0.35	0.16089	1020.463	0.141
288.15	0.35	0.1976	1022.644	0.142
298.15	0.35	0.05008	1010.962	0.136
298.15	0.35	0.07107	1012.227	0.137
298.15	0.35	0.09653	1013.752	0.137
298.15	0.35	0.10264	1014.112	0.138
298.15	0.35	0.12065	1015.177	0.138
298.15	0.35	0.15433	1017.159	0.139
298.15	0.35	0.16089	1017.536	0.139
298.15	0.35	0.1976	1019.669	0.14
308.15	0.35	0.05008	1007.701	0.135
308.15	0.35	0.07107	1008.945	0.135
308.15	0.35	0.09653	1010.44	0.136
308.15	0.35	0.10264	1010.793	0.136
308.15	0.35	0.12065	1011.839	0.137
308.15	0.35	0.15433	1013.782	0.137
308.15	0.35	0.16089	1014.152	0.138
308.15	0.35	0.1976	1016.251	0.139
318.15	0.35	0.05008	1003.889	0.133
318.15	0.35	0.07107	1005.124	0.133
318.15	0.35	0.09653	1006.609	0.134
318.15	0.35	0.10264	1006.961	0.134
318.15	0.35	0.12065	1007.999	0.135
318.15	0.35	0.15433	1009.93	0.136
318.15	0.35	0.16089	1010.297	0.136
318.15	0.35	0.1976	1012.376	0.137
288.15	0.5	0.05582	1018.357	0.14
288.15	0.5	0.06762	1019.081	0.14
288.15	0.5	0.09731	1020.895	0.141
288.15	0.5	0.1278	1022.736	0.142
288.15	0.5	0.15134	1024.143	0.142
288.15	0.5	0.17289	1025.422	0.143
288.15	0.5	0.19702	1026.846	0.144
288.15	0.5	0.21003	1027.601	0.144
298.15	0.5	0.05582	1015.819	0.138
298.15	0.5	0.06762	1016.525	0.139
298.15	0.5	0.09731	1018.298	0.14
298.15	0.5	0.1278	1020.099	0.14
298.15	0.5	0.15134	1021.474	0.141
298.15	0.5	0.17289	1022.723	0.142
298.15	0.5	0.19702	1024.111	0.142
298.15	0.5	0.21003	1024.849	0.143
308.15	0.5	0.05582	1012.514	0.137
308.15	0.5	0.06762	1013.208	0.137
308.15	0.5	0.09731	1014.945	0.138
308.15	0.5	0.1278	1016.704	0.139
308.15	0.5	0.15134	1018.049	0.14
308.15	0.5	0.17289	1019.273	0.14
308.15	0.5	0.19702	1020.632	0.141
308.15	0.5	0.21003	1021.351	0.141
318.15	0.5	0.05582	1008.646	0.135
318.15	0.5	0.06762	1009.333	0.135
318.15	0.5	0.09731	1011.055	0.136
318.15	0.5	0.1278	1012.805	0.137
318.15	0.5	0.15134	1014.139	0.138
318.15	0.5	0.17289	1015.351	0.138
318.15	0.5	0.19702	1016.698	0.139
318.15	0.5	0.21003	1017.416	0.139

System: D-glucose + 2-aminoacetic acid + water; phases: Liquid
Fixed: Pressure, kPa = 101
Property: Mass density, kg/m3 (Liquid); method: Vibrating tube method
Temperature, K	Solvent: Molality, mol/kg of 2-aminoacetic acid	Molality, mol/kg of D-glucose	Mass density, kg/m3	uncertainty
288.15	0	0.05534	1002.924	0.132
288.15	0	0.06964	1003.893	0.133
288.15	0	0.08668	1005.045	0.133
288.15	0	0.10965	1006.589	0.134
288.15	0	0.12194	1007.408	0.134
288.15	0	0.15573	1009.655	0.135
298.15	0	0.05534	1000.804	0.131
298.15	0	0.06964	1001.766	0.132
298.15	0	0.08668	1002.906	0.132
298.15	0	0.10965	1004.436	0.133
298.15	0	0.12194	1005.249	0.133
298.15	0	0.15573	1007.481	0.134
308.15	0	0.05534	997.774	0.131
308.15	0	0.06964	998.718	0.131
308.15	0	0.08668	999.842	0.131
308.15	0	0.10965	1001.343	0.132
308.15	0	0.12194	1002.143	0.132
308.15	0	0.15573	1004.333	0.133
318.15	0	0.05534	993.917	0.132
318.15	0	0.06964	994.856	0.132
318.15	0	0.08668	995.969	0.132
318.15	0	0.10965	997.46	0.131
318.15	0	0.12194	998.243	0.131
318.15	0	0.15573	1000.411	0.131
288.15	0.05	0.04832	1003.827	0.133
288.15	0.05	0.06103	1004.687	0.133
288.15	0.05	0.0762	1005.712	0.133
288.15	0.05	0.10266	1007.485	0.134
288.15	0.05	0.11789	1008.498	0.135
288.15	0.05	0.13387	1009.549	0.135
288.15	0.05	0.14178	1010.067	0.136
288.15	0.05	0.16833	1011.806	0.136
298.15	0.05	0.04832	1001.916	0.132
298.15	0.05	0.06103	1002.766	0.132
298.15	0.05	0.0762	1003.776	0.133
298.15	0.05	0.10266	1005.529	0.133
298.15	0.05	0.11789	1006.529	0.134
298.15	0.05	0.13387	1007.574	0.134
298.15	0.05	0.14178	1008.083	0.135
298.15	0.05	0.16833	1009.804	0.135
308.15	0.05	0.04832	998.86	0.13
308.15	0.05	0.06103	999.701	0.131
308.15	0.05	0.0762	1000.703	0.131
308.15	0.05	0.10266	1002.438	0.132
308.15	0.05	0.11789	1003.43	0.13
308.15	0.05	0.13387	1004.467	0.133
308.15	0.05	0.14178	1004.976	0.133
308.15	0.05	0.16833	1006.682	0.134
318.15	0.05	0.04832	995.099	0.132
318.15	0.05	0.06103	995.935	0.132
318.15	0.05	0.0762	996.931	0.131
318.15	0.05	0.10266	998.655	0.131
318.15	0.05	0.11789	999.639	0.131
318.15	0.05	0.13387	1000.666	0.131
318.15	0.05	0.14178	1001.168	0.131
318.15	0.05	0.16833	1002.857	0.132
288.15	0.15	0.0495	1007.473	0.134
288.15	0.15	0.07546	1009.225	0.135
288.15	0.15	0.08666	1009.973	0.136
288.15	0.15	0.10966	1011.507	0.136
288.15	0.15	0.13102	1012.918	0.137
288.15	0.15	0.14441	1013.797	0.137
288.15	0.15	0.16222	1014.959	0.138
288.15	0.15	0.17048	1015.491	0.138
298.15	0.15	0.0495	1005.192	0.133
298.15	0.15	0.07546	1006.929	0.134
298.15	0.15	0.08666	1007.672	0.134
298.15	0.15	0.10966	1009.192	0.135
298.15	0.15	0.13102	1010.59	0.14
298.15	0.15	0.14441	1011.462	0.136
298.15	0.15	0.16222	1012.612	0.137
298.15	0.15	0.17048	1013.14	0.14
308.15	0.15	0.0495	1002.02	0.13
308.15	0.15	0.07546	1003.74	0.13
308.15	0.15	0.08666	1004.476	0.133
308.15	0.15	0.10966	1005.98	0.13
308.15	0.15	0.13102	1007.369	0.134
308.15	0.15	0.14441	1008.234	0.135
308.15	0.15	0.16222	1009.375	0.135
308.15	0.15	0.17048	1009.896	0.136
318.15	0.15	0.0495	998.205	0.131
318.15	0.15	0.07546	999.913	0.131
318.15	0.15	0.08666	1000.642	0.131
318.15	0.15	0.10966	1002.136	0.132
318.15	0.15	0.13102	1003.511	0.133
318.15	0.15	0.14441	1004.369	0.133
318.15	0.15	0.16222	1005.501	0.134
318.15	0.15	0.17048	1006.023	0.134
288.15	0.25	0.05713	1011.33	0.136
288.15	0.25	0.08085	1012.919	0.137
288.15	0.25	0.09347	1013.758	0.137
288.15	0.25	0.12783	1016.034	0.139
288.15	0.25	0.15766	1017.989	0.139
288.15	0.25	0.17978	1019.422	0.14
288.15	0.25	0.20431	1021.003	0.141
288.15	0.25	0.25796	1024.443	0.143
298.15	0.25	0.05713	1008.737	0.135
298.15	0.25	0.08085	1010.312	0.136
298.15	0.25	0.09347	1011.145	0.136
298.15	0.25	0.12783	1013.402	0.137
298.15	0.25	0.15766	1015.343	0.138
298.15	0.25	0.17978	1016.77	0.14
298.15	0.25	0.20431	1018.339	0.14
298.15	0.25	0.25796	1021.74	0.14
308.15	0.25	0.05713	1005.562	0.134
308.15	0.25	0.08085	1007.122	0.134
308.15	0.25	0.09347	1007.949	0.135
308.15	0.25	0.12783	1010.186	0.136
308.15	0.25	0.15766	1012.113	0.137
308.15	0.25	0.17978	1013.534	0.137
308.15	0.25	0.20431	1015.099	0.138
308.15	0.25	0.25796	1018.49	0.14
318.15	0.25	0.05713	1001.679	0.132
318.15	0.25	0.08085	1003.225	0.132
318.15	0.25	0.09347	1004.041	0.133
318.15	0.25	0.12783	1006.251	0.134
318.15	0.25	0.15766	1008.151	0.135
318.15	0.25	0.17978	1009.547	0.136
318.15	0.25	0.20431	1011.08	0.136
318.15	0.25	0.25796	1014.42	0.138
288.15	0.35	0.04832	1013.696	0.137
288.15	0.35	0.06103	1015.341	0.138
288.15	0.35	0.0762	1017.829	0.139
288.15	0.35	0.10266	1019.641	0.14
288.15	0.35	0.11789	1020.532	0.141
288.15	0.35	0.13387	1021.98	0.141
288.15	0.35	0.14178	1022.826	0.142
288.15	0.35	0.16833	1023.654	0.142
298.15	0.35	0.04832	1010.993	0.136
298.15	0.35	0.06103	1012.628	0.137
298.15	0.35	0.0762	1015.104	0.138
298.15	0.35	0.10266	1016.913	0.139
298.15	0.35	0.11789	1017.799	0.139
298.15	0.35	0.13387	1019.247	0.14
298.15	0.35	0.14178	1020.09	0.14
298.15	0.35	0.16833	1020.91	0.141
308.15	0.35	0.04832	1007.752	0.135
308.15	0.35	0.06103	1009.369	0.135
308.15	0.35	0.0762	1011.821	0.137
308.15	0.35	0.10266	1013.609	0.137
308.15	0.35	0.11789	1014.484	0.138
308.15	0.35	0.13387	1015.913	0.139
308.15	0.35	0.14178	1016.747	0.139
308.15	0.35	0.16833	1017.56	0.139
318.15	0.35	0.04832	1003.933	0.133
318.15	0.35	0.06103	1005.538	0.134
318.15	0.35	0.0762	1007.968	0.135
318.15	0.35	0.10266	1009.738	0.136
318.15	0.35	0.11789	1010.606	0.136
318.15	0.35	0.13387	1012.021	0.137
318.15	0.35	0.14178	1012.845	0.137
318.15	0.35	0.16833	1013.65	0.137
288.15	0.5	0.04499	1017.865	0.139
288.15	0.5	0.07174	1019.618	0.14
288.15	0.5	0.08455	1020.449	0.141
288.15	0.5	0.12112	1022.813	0.142
288.15	0.5	0.13327	1023.59	0.142
288.15	0.5	0.14621	1024.409	0.143
298.15	0.5	0.04499	1015.394	0.138
298.15	0.5	0.07174	1017.128	0.139
298.15	0.5	0.08455	1017.951	0.139
298.15	0.5	0.12112	1020.29	0.141
298.15	0.5	0.13327	1021.058	0.141
298.15	0.5	0.14621	1021.863	0.141
308.15	0.5	0.04499	1012.169	0.137
308.15	0.5	0.07174	1013.917	0.138
308.15	0.5	0.08455	1014.748	0.138
308.15	0.5	0.12112	1017.11	0.139
308.15	0.5	0.13327	1017.884	0.139
308.15	0.5	0.14621	1018.708	0.14
318.15	0.5	0.04499	1008.297	0.135
318.15	0.5	0.07174	1010.029	0.136
318.15	0.5	0.08455	1010.852	0.136
318.15	0.5	0.12112	1013.188	0.137
318.15	0.5	0.13327	1013.953	0.138
318.15	0.5	0.14621	1014.768	0.138

System: 2-aminoacetic acid + methyl-.alpha.-D-glucopyranoside + water; phases: Liquid
Fixed: Pressure, kPa = 101
Property: Mass density, kg/m3 (Liquid); method: Vibrating tube method
Temperature, K	Solvent: Molality, mol/kg of 2-aminoacetic acid	Molality, mol/kg of methyl-.alpha.-D-glucopyranoside	Mass density, kg/m3	uncertainty
288.15	0	0.0614	1002.904	0.132
288.15	0	0.07432	1003.685	0.133
288.15	0	0.09118	1004.7	0.133
288.15	0	0.1213	1006.494	0.134
288.15	0	0.13876	1007.523	0.134
298.15	0	0.0614	1000.768	0.131
298.15	0	0.07432	1001.54	0.132
298.15	0	0.09118	1002.539	0.132
298.15	0	0.1213	1004.317	0.133
298.15	0	0.13876	1005.336	0.133
308.15	0	0.0614	997.729	0.131
308.15	0	0.07432	998.492	0.131
308.15	0	0.09118	999.482	0.131
308.15	0	0.1213	1001.241	0.131
308.15	0	0.13876	1002.252	0.132
318.15	0	0.0614	993.853	0.132
318.15	0	0.07432	994.602	0.132
318.15	0	0.09118	995.574	0.132
318.15	0	0.1213	997.303	0.131
318.15	0	0.13876	998.296	0.131
288.15	0.05	0.04376	1003.225	0.132
288.15	0.05	0.06845	1004.732	0.133
288.15	0.05	0.07617	1005.197	0.133
288.15	0.05	0.09045	1006.057	0.134
288.15	0.05	0.12203	1007.947	0.135
288.15	0.05	0.14769	1009.469	0.135
288.15	0.05	0.149	1009.541	0.135
288.15	0.05	0.1723	1010.904	0.136
298.15	0.05	0.04376	1001.324	0.131
298.15	0.05	0.06845	1002.819	0.132
298.15	0.05	0.07617	1003.281	0.132
298.15	0.05	0.09045	1004.136	0.133
298.15	0.05	0.12203	1006.013	0.134
298.15	0.05	0.14769	1007.524	0.134
298.15	0.05	0.149	1007.599	0.134
298.15	0.05	0.1723	1008.952	0.135
308.15	0.05	0.04376	998.275	0.131
308.15	0.05	0.06845	999.757	0.131
308.15	0.05	0.07617	1000.214	0.131
308.15	0.05	0.09045	1001.059	0.131
308.15	0.05	0.12203	1002.919	0.132
308.15	0.05	0.14769	1004.415	0.133
308.15	0.05	0.149	1004.489	0.133
308.15	0.05	0.1723	1005.828	0.134
318.15	0.05	0.04376	994.53	0.132
318.15	0.05	0.06845	996.003	0.132
318.15	0.05	0.07617	996.458	0.132
318.15	0.05	0.09045	997.299	0.131
318.15	0.05	0.12203	999.147	0.131
318.15	0.05	0.14769	1000.632	0.131
318.15	0.05	0.149	1000.699	0.131
318.15	0.05	0.1723	1002.035	0.132
288.15	0.15	0.05141	1007.252	0.134
288.15	0.15	0.06061	1007.808	0.135
288.15	0.15	0.08247	1009.125	0.135
288.15	0.15	0.09331	1009.77	0.135
288.15	0.15	0.10674	1010.569	0.136
288.15	0.15	0.13458	1012.214	0.137
288.15	0.15	0.14285	1012.693	0.137
288.15	0.15	0.18974	1015.428	0.138
298.15	0.15	0.05141	1004.968	0.133
298.15	0.15	0.06061	1005.519	0.133
298.15	0.15	0.08247	1006.824	0.134
298.15	0.15	0.09331	1007.465	0.134
298.15	0.15	0.10674	1008.255	0.135
298.15	0.15	0.13458	1009.886	0.136
298.15	0.15	0.14285	1010.363	0.136
298.15	0.15	0.18974	1013.072	0.137
308.15	0.15	0.05141	1001.804	0.132
308.15	0.15	0.06061	1002.351	0.132
308.15	0.15	0.08247	1003.645	0.133
308.15	0.15	0.09331	1004.281	0.133
308.15	0.15	0.10674	1005.067	0.133
308.15	0.15	0.13458	1006.686	0.134
308.15	0.15	0.14285	1007.159	0.134
308.15	0.15	0.18974	1009.847	0.136
318.15	0.15	0.05141	998.005	0.131
318.15	0.15	0.06061	998.55	0.131
318.15	0.15	0.08247	999.844	0.131
318.15	0.15	0.09331	1000.478	0.131
318.15	0.15	0.10674	1001.262	0.132
318.15	0.15	0.13458	1002.878	0.132
318.15	0.15	0.14285	1003.35	0.133
318.15	0.15	0.18974	1006.034	0.134
288.15	0.25	0.04461	1010.18	0.136
288.15	0.25	0.06461	1011.389	0.136
288.15	0.25	0.07326	1011.907	0.136
288.15	0.25	0.1012	1013.577	0.137
288.15	0.25	0.13135	1015.358	0.138
288.15	0.25	0.14886	1016.382	0.139
288.15	0.25	0.17066	1017.644	0.139
288.15	0.25	0.18687	1018.577	0.14
298.15	0.25	0.04461	1007.59	0.13
298.15	0.25	0.06461	1008.781	0.135
298.15	0.25	0.07326	1009.291	0.135
298.15	0.25	0.1012	1010.933	0.136
298.15	0.25	0.13135	1012.687	0.137
298.15	0.25	0.14886	1013.698	0.137
298.15	0.25	0.17066	1014.944	0.138
298.15	0.25	0.18687	1015.863	0.138
308.15	0.25	0.04461	1004.426	0.133
308.15	0.25	0.06461	1005.608	0.134
308.15	0.25	0.07326	1006.115	0.134
308.15	0.25	0.1012	1007.748	0.135
308.15	0.25	0.13135	1009.49	0.135
308.15	0.25	0.14886	1010.494	0.136
308.15	0.25	0.17066	1011.73	0.136
308.15	0.25	0.18687	1012.646	0.137
318.15	0.25	0.04461	1000.574	0.131
318.15	0.25	0.06461	1001.754	0.132
318.15	0.25	0.07326	1002.262	0.132
318.15	0.25	0.1012	1003.895	0.133
318.15	0.25	0.13135	1005.64	0.134
318.15	0.25	0.14886	1006.64	0.134
318.15	0.25	0.17066	1007.876	0.135
318.15	0.25	0.18687	1008.79	0.135
288.15	0.35	0.05072	1013.638	0.137
288.15	0.35	0.06352	1014.397	0.138
288.15	0.35	0.07842	1015.276	0.138
288.15	0.35	0.10257	1016.688	0.139
288.15	0.35	0.12294	1017.869	0.139
288.15	0.35	0.14785	1019.301	0.14
288.15	0.35	0.1604	1020.009	0.14
288.15	0.35	0.19465	1021.953	0.141
298.15	0.35	0.05072	1010.924	0.136
298.15	0.35	0.06352	1011.672	0.136
298.15	0.35	0.07842	1012.54	0.137
298.15	0.35	0.10257	1013.936	0.138
298.15	0.35	0.12294	1015.104	0.138
298.15	0.35	0.14785	1016.52	0.139
298.15	0.35	0.1604	1017.222	0.139
298.15	0.35	0.19465	1019.141	0.14
308.15	0.35	0.05072	1007.68	0.135
308.15	0.35	0.06352	1008.42	0.135
308.15	0.35	0.07842	1009.279	0.135
308.15	0.35	0.10257	1010.659	0.136
308.15	0.35	0.12294	1011.813	0.137
308.15	0.35	0.14785	1013.214	0.137
308.15	0.35	0.1604	1013.907	0.138
308.15	0.35	0.19465	1015.806	0.138
318.15	0.35	0.05072	1003.86	0.133
318.15	0.35	0.06352	1004.596	0.133
318.15	0.35	0.07842	1005.449	0.134
318.15	0.35	0.10257	1006.82	0.134
318.15	0.35	0.12294	1007.966	0.135
318.15	0.35	0.14785	1009.359	0.135
318.15	0.35	0.1604	1010.047	0.136
318.15	0.35	0.19465	1011.93	0.137
288.15	0.5	0.06414	1018.664	0.14
288.15	0.5	0.07919	1019.536	0.14
288.15	0.5	0.10562	1021.057	0.141
288.15	0.5	0.12056	1021.905	0.141
288.15	0.5	0.13825	1022.907	0.142
288.15	0.5	0.15234	1023.694	0.142
298.15	0.5	0.06414	1016.176	0.139
298.15	0.5	0.07919	1017.037	0.139
298.15	0.5	0.10562	1018.539	0.14
298.15	0.5	0.12056	1019.379	0.14
298.15	0.5	0.13825	1020.367	0.141
298.15	0.5	0.15234	1021.147	0.141
308.15	0.5	0.06414	1012.883	0.137
308.15	0.5	0.07919	1013.733	0.137
308.15	0.5	0.10562	1015.212	0.138
308.15	0.5	0.12056	1016.039	0.139
308.15	0.5	0.13825	1017.013	0.139
308.15	0.5	0.15234	1017.781	0.139
318.15	0.5	0.06414	1009.054	0.135
318.15	0.5	0.07919	1009.911	0.136
318.15	0.5	0.10562	1011.402	0.136
318.15	0.5	0.12056	1012.234	0.137
318.15	0.5	0.13825	1013.219	0.137
318.15	0.5	0.15234	1013.995	0.138

System: 2-aminoacetic acid + 2-deoxy-D-glucose + water; phases: Liquid
Fixed: Pressure, kPa = 101
Property: Mass density, kg/m3 (Liquid); method: Vibrating tube method
Temperature, K	Solvent: Molality, mol/kg of 2-aminoacetic acid	Molality, mol/kg of 2-deoxy-D-glucose	Mass density, kg/m3	uncertainty
288.15	0	0.05429	1001.946	0.132
288.15	0	0.07587	1003.051	0.132
288.15	0	0.09613	1004.08	0.133
288.15	0	0.11511	1005.037	0.133
298.15	0	0.05429	999.821	0.131
298.15	0	0.07587	1000.909	0.131
298.15	0	0.09613	1001.922	0.132
298.15	0	0.11511	1002.864	0.132
308.15	0	0.05429	996.807	0.131
308.15	0	0.07587	997.884	0.131
308.15	0	0.09613	998.888	0.131
308.15	0	0.11511	999.822	0.131
318.15	0	0.05429	992.956	0.132
318.15	0	0.07587	994.021	0.132
318.15	0	0.09613	995.013	0.132
318.15	0	0.11511	995.934	0.132
288.15	0.05	0.04688	1002.886	0.132
288.15	0.05	0.05468	1003.275	0.132
288.15	0.05	0.07784	1004.424	0.133
288.15	0.05	0.09787	1005.407	0.133
298.15	0.05	0.04688	1000.984	0.131
298.15	0.05	0.05468	1001.37	0.13
298.15	0.05	0.07784	1002.51	0.13
298.15	0.05	0.09787	1003.485	0.132
308.15	0.05	0.04688	997.941	0.131
308.15	0.05	0.05468	998.324	0.131
308.15	0.05	0.07784	999.455	0.131
308.15	0.05	0.09787	1000.423	0.131
318.15	0.05	0.04688	994.199	0.132
318.15	0.05	0.05468	994.579	0.132
318.15	0.05	0.07784	995.704	0.132
318.15	0.05	0.09787	996.671	0.131
288.15	0.15	0.03952	1006.073	0.134
288.15	0.15	0.06584	1007.375	0.134
288.15	0.15	0.07166	1007.658	0.134
288.15	0.15	0.09936	1009.011	0.135
298.15	0.15	0.03952	1003.803	0.133
298.15	0.15	0.06584	1005.094	0.133
298.15	0.15	0.07166	1005.375	0.133
298.15	0.15	0.09936	1006.716	0.134
308.15	0.15	0.03952	1000.647	0.131
308.15	0.15	0.06584	1001.927	0.132
308.15	0.15	0.07166	1002.205	0.132
308.15	0.15	0.09936	1003.536	0.133
318.15	0.15	0.03952	996.848	0.131
318.15	0.15	0.06584	998.124	0.131
318.15	0.15	0.07166	998.403	0.131
318.15	0.15	0.09936	999.73	0.131
288.15	0.25	0.03032	1008.962	0.135
288.15	0.25	0.04884	1009.877	0.136
288.15	0.25	0.06267	1010.553	0.136
288.15	0.25	0.08374	1011.58	0.136
298.15	0.25	0.03032	1006.388	0.134
298.15	0.25	0.04884	1007.292	0.134
298.15	0.25	0.06267	1007.96	0.135
298.15	0.25	0.08374	1008.973	0.135
308.15	0.25	0.03032	1003.238	0.132
308.15	0.25	0.04884	1004.137	0.133
308.15	0.25	0.06267	1004.802	0.133
308.15	0.25	0.08374	1005.81	0.134
318.15	0.25	0.03032	999.383	0.131
318.15	0.25	0.04884	1000.276	0.131
318.15	0.25	0.06267	1000.937	0.131
318.15	0.25	0.08374	1001.937	0.132
288.15	0.35	0.04859	1012.989	0.137
288.15	0.35	0.05788	1013.441	0.137
288.15	0.35	0.07582	1014.311	0.138
288.15	0.35	0.09896	1015.428	0.138
298.15	0.35	0.04859	1010.288	0.136
298.15	0.35	0.05788	1010.737	0.136
298.15	0.35	0.07582	1011.6	0.1
298.15	0.35	0.09896	1012.707	0.137
308.15	0.35	0.04859	1007.057	0.134
308.15	0.35	0.05788	1007.503	0.134
308.15	0.35	0.07582	1008.36	0.135
308.15	0.35	0.09896	1009.458	0.135
318.15	0.35	0.04859	1003.249	0.132
318.15	0.35	0.05788	1003.692	0.133
318.15	0.35	0.07582	1004.544	0.133
318.15	0.35	0.09896	1005.636	0.134
288.15	0.5	0.04517	1017.229	0.139
288.15	0.5	0.05422	1017.668	0.139
288.15	0.5	0.07847	1018.838	0.14
288.15	0.5	0.096	1019.675	0.14
298.15	0.5	0.04517	1014.53	0.138
298.15	0.5	0.05422	1014.964	0.138
298.15	0.5	0.07847	1016.123	0.139
298.15	0.5	0.096	1016.95	0.139
308.15	0.5	0.04517	1011.368	0.136
308.15	0.5	0.05422	1011.796	0.137
308.15	0.5	0.07847	1012.938	0.137
308.15	0.5	0.096	1013.753	0.137
318.15	0.5	0.04517	1007.514	0.135
318.15	0.5	0.05422	1007.942	0.135
318.15	0.5	0.07847	1009.086	0.135
318.15	0.5	0.096	1009.903	0.136

System: 2-aminoacetic acid + L-sorbose + water; phases: Liquid
Fixed: Pressure, kPa = 101
Property: Mass density, kg/m3 (Liquid); method: Vibrating tube method
Temperature, K	Solvent: Molality, mol/kg of 2-aminoacetic acid	Molality, mol/kg of L-sorbose	Mass density, kg/m3	uncertainty
288.15	0	0.04792	1002.488	0.244
288.15	0	0.06754	1003.85	0.245
288.15	0	0.08829	1005.285	0.246
288.15	0	0.10485	1006.42	0.247
288.15	0	0.11898	1007.385	0.248
288.15	0	0.14074	1008.86	0.249
298.15	0	0.04792	1000.369	0.242
298.15	0	0.06754	1001.713	0.244
298.15	0	0.08829	1003.127	0.245
298.15	0	0.10485	1004.249	0.246
298.15	0	0.11898	1005.202	0.246
298.15	0	0.14074	1006.667	0.248
308.15	0	0.04792	997.364	0.242
308.15	0	0.06754	998.703	0.242
308.15	0	0.08829	1000.111	0.242
308.15	0	0.10485	1001.226	0.243
308.15	0	0.11898	1002.172	0.244
308.15	0	0.14074	1003.622	0.245
318.15	0	0.04792	993.542	0.242
318.15	0	0.06754	994.877	0.242
318.15	0	0.08829	996.28	0.242
318.15	0	0.10485	997.394	0.242
318.15	0	0.11898	998.339	0.242
318.15	0	0.14074	999.79	0.242
288.15	0.05	0.06506	1004.974	0.246
288.15	0.05	0.07762	1005.822	0.247
288.15	0.05	0.09966	1007.305	0.248
288.15	0.05	0.11167	1008.105	0.249
288.15	0.05	0.14103	1010.06	0.25
288.15	0.05	0.15743	1011.144	0.251
288.15	0.05	0.16861	1011.873	0.252
288.15	0.05	0.18419	1012.887	0.253
298.15	0.05	0.06506	1003.055	0.245
298.15	0.05	0.07762	1003.895	0.245
298.15	0.05	0.09966	1005.364	0.247
298.15	0.05	0.11167	1006.156	0.247
298.15	0.05	0.14103	1008.091	0.249
298.15	0.05	0.15743	1009.163	0.25
298.15	0.05	0.16861	1009.888	0.25
298.15	0.05	0.18419	1010.894	0.251
308.15	0.05	0.06506	1000.011	0.242
308.15	0.05	0.07762	1000.846	0.243
308.15	0.05	0.09966	1002.31	0.244
308.15	0.05	0.11167	1003.098	0.245
308.15	0.05	0.14103	1005.022	0.246
308.15	0.05	0.15743	1006.085	0.247
308.15	0.05	0.16861	1006.807	0.248
308.15	0.05	0.18419	1007.807	0.249
318.15	0.05	0.06506	996.281	0.242
318.15	0.05	0.07762	997.119	0.242
318.15	0.05	0.09966	998.581	0.242
318.15	0.05	0.11167	999.369	0.242
318.15	0.05	0.14103	1001.294	0.243
318.15	0.05	0.15743	1002.361	0.244
318.15	0.05	0.16861	1003.082	0.245
318.15	0.05	0.18419	1004.08	0.246
288.15	0.15	0.05362	1007.744	0.248
288.15	0.15	0.06786	1008.703	0.249
288.15	0.15	0.07817	1009.393	0.25
288.15	0.15	0.09524	1010.532	0.251
288.15	0.15	0.11627	1011.927	0.252
288.15	0.15	0.12734	1012.657	0.252
288.15	0.15	0.14895	1014.075	0.254
288.15	0.15	0.16562	1015.161	0.255
298.15	0.15	0.05362	1005.458	0.247
298.15	0.15	0.06786	1006.408	0.247
298.15	0.15	0.07817	1007.091	0.248
298.15	0.15	0.09524	1008.217	0.249
298.15	0.15	0.11627	1009.598	0.25
298.15	0.15	0.12734	1010.318	0.251
298.15	0.15	0.14895	1011.723	0.252
298.15	0.15	0.16562	1012.796	0.253
308.15	0.15	0.05362	1002.308	0.244
308.15	0.15	0.06786	1003.255	0.245
308.15	0.15	0.07817	1003.936	0.245
308.15	0.15	0.09524	1005.061	0.246
308.15	0.15	0.11627	1006.44	0.25
308.15	0.15	0.12734	1007.159	0.248
308.15	0.15	0.14895	1008.56	0.249
308.15	0.15	0.16562	1009.628	0.25
318.15	0.15	0.05362	998.524	0.242
318.15	0.15	0.06786	999.471	0.242
318.15	0.15	0.07817	1000.153	0.242
318.15	0.15	0.09524	1001.277	0.243
318.15	0.15	0.11627	1002.654	0.244
318.15	0.15	0.12734	1003.373	0.245
318.15	0.15	0.14895	1004.773	0.246
318.15	0.15	0.16562	1005.841	0.247
288.15	0.25	0.0572	1011.332	0.251
288.15	0.25	0.0714	1012.283	0.252
288.15	0.25	0.09076	1013.571	0.253
288.15	0.25	0.11188	1014.97	0.254
288.15	0.25	0.14197	1016.95	0.256
288.15	0.25	0.1519	1017.598	0.257
288.15	0.25	0.18036	1019.446	0.258
288.15	0.25	0.21747	1021.835	0.26
298.15	0.25	0.0572	1008.741	0.249
298.15	0.25	0.0714	1009.682	0.25
298.15	0.25	0.09076	1010.959	0.251
298.15	0.25	0.11188	1012.344	0.252
298.15	0.25	0.14197	1014.303	0.254
298.15	0.25	0.1519	1014.941	0.254
298.15	0.25	0.18036	1016.77	0.26
298.15	0.25	0.21747	1019.141	0.258
308.15	0.25	0.0572	1005.591	0.247
308.15	0.25	0.0714	1006.532	0.248
308.15	0.25	0.09076	1007.809	0.249
308.15	0.25	0.11188	1009.194	0.25
308.15	0.25	0.14197	1011.152	0.251
308.15	0.25	0.1519	1011.792	0.252
308.15	0.25	0.18036	1013.622	0.253
308.15	0.25	0.21747	1015.986	0.255
318.15	0.25	0.0572	1001.751	0.244
318.15	0.25	0.0714	1002.693	0.244
318.15	0.25	0.09076	1003.969	0.245
318.15	0.25	0.11188	1005.351	0.247
318.15	0.25	0.14197	1007.308	0.248
318.15	0.25	0.1519	1007.946	0.249
318.15	0.25	0.18036	1009.775	0.25
318.15	0.25	0.21747	1012.145	0.252
288.15	0.35	0.04738	1013.793	0.253
288.15	0.35	0.06867	1015.216	0.255
288.15	0.35	0.08592	1016.361	0.256
288.15	0.35	0.11218	1018.094	0.257
288.15	0.35	0.12948	1019.231	0.258
288.15	0.35	0.14674	1020.352	0.259
288.15	0.35	0.17484	1022.171	0.26
288.15	0.35	0.19726	1023.608	0.261
298.15	0.35	0.04738	1011.089	0.251
298.15	0.35	0.06867	1012.502	0.252
298.15	0.35	0.08592	1013.638	0.253
298.15	0.35	0.11218	1015.358	0.255
298.15	0.35	0.12948	1016.483	0.256
298.15	0.35	0.14674	1017.596	0.257
298.15	0.35	0.17484	1019.4	0.258
298.15	0.35	0.19726	1020.829	0.259
308.15	0.35	0.04738	1007.871	0.249
308.15	0.35	0.06867	1009.282	0.25
308.15	0.35	0.08592	1010.414	0.251
308.15	0.35	0.11218	1012.129	0.252
308.15	0.35	0.12948	1013.251	0.253
308.15	0.35	0.14674	1014.363	0.254
308.15	0.35	0.17484	1016.161	0.255
308.15	0.35	0.19726	1017.58	0.26
318.15	0.35	0.04738	1004.084	0.246
318.15	0.35	0.06867	1005.495	0.247
318.15	0.35	0.08592	1006.629	0.248
318.15	0.35	0.11218	1008.347	0.249
318.15	0.35	0.12948	1009.471	0.25
318.15	0.35	0.14674	1010.583	0.251
318.15	0.35	0.17484	1012.388	0.252
318.15	0.35	0.19726	1013.811	0.253
288.15	0.5	0.05571	1018.761	0.257
288.15	0.5	0.07903	1020.311	0.259
288.15	0.5	0.09273	1021.213	0.26
288.15	0.5	0.12865	1023.57	0.261
288.15	0.5	0.13052	1023.685	0.262
288.15	0.5	0.1501	1024.956	0.263
298.15	0.5	0.05571	1016.056	0.255
298.15	0.5	0.07903	1017.592	0.257
298.15	0.5	0.09273	1018.486	0.257
298.15	0.5	0.12865	1020.821	0.259
298.15	0.5	0.13052	1020.937	0.259
298.15	0.5	0.1501	1022.194	0.26
308.15	0.5	0.05571	1012.9	0.253
308.15	0.5	0.07903	1014.429	0.254
308.15	0.5	0.09273	1015.318	0.255
308.15	0.5	0.12865	1017.64	0.257
308.15	0.5	0.13052	1017.755	0.257
308.15	0.5	0.1501	1019.005	0.258
318.15	0.5	0.05571	1009.062	0.25
318.15	0.5	0.07903	1010.596	0.251
318.15	0.5	0.09273	1011.49	0.252
318.15	0.5	0.12865	1013.823	0.254
318.15	0.5	0.13052	1013.937	0.254
318.15	0.5	0.1501	1015.194	0.255

System: D-sorbitol + 2-aminoacetic acid + water; phases: Liquid
Fixed: Pressure, kPa = 101
Property: Mass density, kg/m3 (Liquid); method: Vibrating tube method
Temperature, K	Solvent: Molality, mol/kg of 2-aminoacetic acid	Molality, mol/kg of D-sorbitol	Mass density, kg/m3	uncertainty
288.15	0	0.05048	1002.394	0.244
288.15	0	0.06829	1003.533	0.245
288.15	0	0.08352	1004.498	0.246
288.15	0	0.09926	1005.492	0.247
288.15	0	0.12635	1007.189	0.248
288.15	0	0.14851	1008.565	0.249
298.15	0	0.05048	1000.236	0.242
298.15	0	0.06829	1001.347	0.243
298.15	0	0.08352	1002.291	0.244
298.15	0	0.09926	1003.263	0.245
298.15	0	0.12635	1004.923	0.246
298.15	0	0.14851	1006.268	0.247
308.15	0	0.05048	997.194	0.242
308.15	0	0.06829	998.285	0.242
308.15	0	0.08352	999.211	0.242
308.15	0	0.09926	1000.163	0.242
308.15	0	0.12635	1001.794	0.244
308.15	0	0.14851	1003.114	0.245
318.15	0	0.05048	993.328	0.242
318.15	0	0.06829	994.402	0.242
318.15	0	0.08352	995.315	0.242
318.15	0	0.09926	996.252	0.242
318.15	0	0.12635	997.859	0.242
318.15	0	0.14851	999.16	0.242
288.15	0.05	0.05794	1004.202	0.246
288.15	0.05	0.06389	1004.574	0.246
288.15	0.05	0.08003	1005.583	0.247
288.15	0.05	0.09881	1006.755	0.248
288.15	0.05	0.11447	1007.722	0.248
288.15	0.05	0.13654	1009.08	0.25
288.15	0.05	0.16025	1010.515	0.251
298.15	0.05	0.05794	1002.242	0.244
298.15	0.05	0.06389	1002.605	0.244
298.15	0.05	0.08003	1003.588	0.245
298.15	0.05	0.09881	1004.727	0.246
298.15	0.05	0.11447	1005.667	0.247
298.15	0.05	0.13654	1006.989	0.248
298.15	0.05	0.16025	1008.394	0.249
308.15	0.05	0.05794	999.169	0.242
308.15	0.05	0.06389	999.527	0.242
308.15	0.05	0.08003	1000.5	0.243
308.15	0.05	0.09881	1001.629	0.244
308.15	0.05	0.11447	1002.562	0.244
308.15	0.05	0.13654	1003.87	0.245
308.15	0.05	0.16025	1005.264	0.246
318.15	0.05	0.05794	995.402	0.242
318.15	0.05	0.06389	995.758	0.242
318.15	0.05	0.08003	996.723	0.242
318.15	0.05	0.09881	997.839	0.242
318.15	0.05	0.11447	998.762	0.242
318.15	0.05	0.13654	1000.057	0.242
318.15	0.05	0.16025	1001.437	0.243
288.15	0.15	0.04606	1007.009	0.248
288.15	0.15	0.06988	1008.496	0.249
288.15	0.15	0.08748	1009.588	0.25
288.15	0.15	0.10099	1010.417	0.251
288.15	0.15	0.13161	1012.292	0.252
288.15	0.15	0.15186	1013.518	0.253
288.15	0.15	0.18367	1015.436	0.255
288.15	0.15	0.20618	1016.774	0.256
298.15	0.15	0.04606	1004.695	0.246
298.15	0.15	0.06988	1006.153	0.247
298.15	0.15	0.08748	1007.223	0.248
298.15	0.15	0.10099	1008.036	0.249
298.15	0.15	0.13161	1009.872	0.25
298.15	0.15	0.15186	1011.074	0.251
298.15	0.15	0.18367	1012.948	0.253
298.15	0.15	0.20618	1014.258	0.254
308.15	0.15	0.04606	1001.518	0.243
308.15	0.15	0.06988	1002.965	0.245
308.15	0.15	0.08748	1004.025	0.245
308.15	0.15	0.10099	1004.833	0.246
308.15	0.15	0.13161	1006.658	0.248
308.15	0.15	0.15186	1007.851	0.249
308.15	0.15	0.18367	1009.715	0.25
308.15	0.15	0.20618	1011.021	0.251
318.15	0.15	0.04606	997.704	0.242
318.15	0.15	0.06988	999.128	0.242
318.15	0.15	0.08748	1000.17	0.242
318.15	0.15	0.10099	1000.964	0.243
318.15	0.15	0.13161	1002.758	0.244
318.15	0.15	0.15186	1003.931	0.245
318.15	0.15	0.18367	1005.766	0.247
318.15	0.15	0.20618	1007.049	0.248
288.15	0.25	0.04937	1010.558	0.251
288.15	0.25	0.06005	1011.218	0.251
288.15	0.25	0.07845	1012.356	0.252
288.15	0.25	0.10466	1013.964	0.254
288.15	0.25	0.13653	1015.901	0.255
288.15	0.25	0.15188	1016.821	0.256
288.15	0.25	0.17243	1018.046	0.257
298.15	0.25	0.04937	1007.934	0.249
298.15	0.25	0.06005	1008.577	0.249
298.15	0.25	0.07845	1009.687	0.25
298.15	0.25	0.10466	1011.253	0.251
298.15	0.25	0.13653	1013.143	0.253
298.15	0.25	0.15188	1014.04	0.254
298.15	0.25	0.17243	1015.238	0.255
308.15	0.25	0.04937	1004.751	0.246
308.15	0.25	0.06005	1005.39	0.247
308.15	0.25	0.07845	1006.491	0.247
308.15	0.25	0.10466	1008.045	0.249
308.15	0.25	0.13653	1009.919	0.25
308.15	0.25	0.15188	1010.807	0.251
308.15	0.25	0.17243	1011.992	0.252
318.15	0.25	0.04937	1000.879	0.243
318.15	0.25	0.06005	1001.512	0.243
318.15	0.25	0.07845	1002.602	0.244
318.15	0.25	0.10466	1004.144	0.246
318.15	0.25	0.13653	1006.002	0.247
318.15	0.25	0.15188	1006.883	0.248
318.15	0.25	0.17243	1008.059	0.249
288.15	0.35	0.04942	1013.684	0.253
288.15	0.35	0.06136	1014.42	0.254
288.15	0.35	0.08414	1015.821	0.255
288.15	0.35	0.09838	1016.689	0.256
288.15	0.35	0.12136	1018.083	0.257
288.15	0.35	0.15855	1020.324	0.259
288.15	0.35	0.16597	1020.758	0.259
288.15	0.35	0.18942	1022.147	0.26
298.15	0.35	0.04942	1010.939	0.251
298.15	0.35	0.06136	1011.66	0.252
298.15	0.35	0.08414	1013.032	0.253
298.15	0.35	0.09838	1013.882	0.254
298.15	0.35	0.12136	1015.245	0.255
298.15	0.35	0.15855	1017.435	0.256
298.15	0.35	0.16597	1017.86	0.257
298.15	0.35	0.18942	1019.216	0.258
308.15	0.35	0.04942	1007.684	0.248
308.15	0.35	0.06136	1008.399	0.249
308.15	0.35	0.08414	1009.758	0.25
308.15	0.35	0.09838	1010.601	0.251
308.15	0.35	0.12136	1011.954	0.252
308.15	0.35	0.15855	1014.126	0.254
308.15	0.35	0.16597	1014.548	0.254
308.15	0.35	0.18942	1015.896	0.255
318.15	0.35	0.04942	1003.864	0.245
318.15	0.35	0.06136	1004.57	0.246
318.15	0.35	0.08414	1005.913	0.247
318.15	0.35	0.09838	1006.744	0.248
318.15	0.35	0.12136	1008.078	0.249
318.15	0.35	0.15855	1010.225	0.251
318.15	0.35	0.16597	1010.644	0.251
318.15	0.35	0.18942	1011.976	0.252
288.15	0.5	0.04979	1018.115	0.257
288.15	0.5	0.07949	1019.933	0.258
288.15	0.5	0.10118	1021.246	0.26
288.15	0.5	0.12779	1022.851	0.261
288.15	0.5	0.14093	1023.631	0.262
288.15	0.5	0.173	1025.535	0.263
288.15	0.5	0.18859	1026.448	0.264
288.15	0.5	0.21848	1028.195	0.265
298.15	0.5	0.04979	1015.368	0.255
298.15	0.5	0.07949	1017.153	0.256
298.15	0.5	0.10118	1018.442	0.257
298.15	0.5	0.12779	1020.013	0.259
298.15	0.5	0.14093	1020.777	0.259
298.15	0.5	0.173	1022.642	0.261
298.15	0.5	0.18859	1023.535	0.261
298.15	0.5	0.21848	1025.247	0.263
308.15	0.5	0.04979	1012.18	0.25
308.15	0.5	0.07949	1013.935	0.254
308.15	0.5	0.10118	1015.205	0.255
308.15	0.5	0.12779	1016.75	0.256
308.15	0.5	0.14093	1017.501	0.257
308.15	0.5	0.173	1019.338	0.258
308.15	0.5	0.18859	1020.22	0.259
308.15	0.5	0.21848	1021.905	0.26
318.15	0.5	0.04979	1008.312	0.249
318.15	0.5	0.07949	1010.057	0.25
318.15	0.5	0.10118	1011.318	0.251
318.15	0.5	0.12779	1012.857	0.253
318.15	0.5	0.14093	1013.607	0.253
318.15	0.5	0.173	1015.435	0.255
318.15	0.5	0.18859	1016.313	0.256
318.15	0.5	0.21848	1017.986	0.257

System: 2-aminoacetic acid + cis-1,2,3,5-trans-4,6-cyclohexanehexol + water; phases: Liquid
Fixed: Pressure, kPa = 101
Property: Mass density, kg/m3 (Liquid); method: Vibrating tube method
Temperature, K	Solvent: Molality, mol/kg of 2-aminoacetic acid	Molality, mol/kg of cis-1,2,3,5-trans-4,6-cyclohexanehexol	Mass density, kg/m3	uncertainty
288.15	0	0.04287	1002.555	0.244
288.15	0	0.07439	1005.049	0.246
288.15	0	0.09546	1006.702	0.248
288.15	0	0.10312	1007.298	0.248
288.15	0	0.13247	1009.581	0.25
288.15	0	0.17224	1012.648	0.252
288.15	0	0.18066	1013.289	0.253
298.15	0	0.04287	1000.419	0.242
298.15	0	0.07439	1002.875	0.244
298.15	0	0.09546	1004.503	0.246
298.15	0	0.10312	1005.088	0.246
298.15	0	0.13247	1007.335	0.248
298.15	0	0.17224	1010.355	0.251
298.15	0	0.18066	1010.982	0.251
308.15	0	0.04287	997.382	0.242
308.15	0	0.07439	999.802	0.242
308.15	0	0.09546	1001.406	0.243
308.15	0	0.10312	1001.985	0.244
308.15	0	0.13247	1004.2	0.246
308.15	0	0.17224	1007.177	0.248
308.15	0	0.18066	1007.797	0.249
318.15	0	0.04287	993.514	0.242
318.15	0	0.07439	995.895	0.242
318.15	0	0.09546	997.473	0.242
318.15	0	0.10312	998.043	0.242
318.15	0	0.13247	1000.221	0.242
318.15	0	0.17224	1003.151	0.245
318.15	0	0.18066	1003.76	0.245
288.15	0.05	0.03815	1003.599	0.245
288.15	0.05	0.0685	1006.027	0.247
288.15	0.05	0.07777	1006.763	0.248
288.15	0.05	0.08924	1007.67	0.248
288.15	0.05	0.12982	1010.869	0.251
288.15	0.05	0.14365	1011.945	0.252
288.15	0.05	0.17213	1014.159	0.254
298.15	0.05	0.03815	1001.664	0.244
298.15	0.05	0.0685	1004.05	0.245
298.15	0.05	0.07777	1004.773	0.246
298.15	0.05	0.08924	1005.664	0.247
298.15	0.05	0.12982	1008.804	0.249
298.15	0.05	0.14365	1009.862	0.25
298.15	0.05	0.17213	1012.036	0.252
308.15	0.05	0.03815	998.584	0.242
308.15	0.05	0.0685	1000.926	0.243
308.15	0.05	0.07777	1001.635	0.244
308.15	0.05	0.08924	1002.509	0.244
308.15	0.05	0.12982	1005.592	0.247
308.15	0.05	0.14365	1006.631	0.248
308.15	0.05	0.17213	1008.763	0.249
318.15	0.05	0.03815	994.804	0.242
318.15	0.05	0.0685	997.105	0.242
318.15	0.05	0.07777	997.801	0.242
318.15	0.05	0.08924	998.661	0.242
318.15	0.05	0.12982	1001.688	0.244
318.15	0.05	0.14365	1002.709	0.244
318.15	0.05	0.17213	1004.803	0.246
288.15	0.15	0.0504	1008.139	0.249
288.15	0.15	0.06106	1008.987	0.249
288.15	0.15	0.07571	1010.149	0.25
288.15	0.15	0.09115	1011.364	0.251
288.15	0.15	0.11572	1013.294	0.253
288.15	0.15	0.14939	1015.916	0.255
288.15	0.15	0.15414	1016.278	0.255
298.15	0.15	0.0504	1005.816	0.247
298.15	0.15	0.06106	1006.648	0.248
298.15	0.15	0.07571	1007.788	0.249
298.15	0.15	0.09115	1008.98	0.249
298.15	0.15	0.11572	1010.873	0.251
298.15	0.15	0.14939	1013.448	0.253
298.15	0.15	0.15414	1013.8	0.253
308.15	0.15	0.0504	1002.608	0.244
308.15	0.15	0.06106	1003.426	0.245
308.15	0.15	0.07571	1004.547	0.246
308.15	0.15	0.09115	1005.721	0.247
308.15	0.15	0.11572	1007.582	0.248
308.15	0.15	0.14939	1010.113	0.25
308.15	0.15	0.15414	1010.463	0.251
318.15	0.15	0.0504	998.752	0.242
318.15	0.15	0.06106	999.557	0.242
318.15	0.15	0.07571	1000.659	0.243
318.15	0.15	0.09115	1001.813	0.244
318.15	0.15	0.11572	1003.643	0.245
318.15	0.15	0.14939	1006.133	0.247
318.15	0.15	0.15414	1006.475	0.248
288.15	0.25	0.04226	1010.78	0.251
288.15	0.25	0.06483	1012.542	0.252
288.15	0.25	0.08845	1014.372	0.254
288.15	0.25	0.09459	1014.843	0.254
288.15	0.25	0.1197	1016.772	0.256
288.15	0.25	0.14121	1018.41	0.257
288.15	0.25	0.15875	1019.741	0.258
298.15	0.25	0.04226	1008.177	0.249
298.15	0.25	0.06483	1009.914	0.25
298.15	0.25	0.08845	1011.72	0.252
298.15	0.25	0.09459	1012.184	0.252
298.15	0.25	0.1197	1014.086	0.254
298.15	0.25	0.14121	1015.702	0.255
298.15	0.25	0.15875	1017.016	0.256
308.15	0.25	0.04226	1004.992	0.246
308.15	0.25	0.06483	1006.705	0.248
308.15	0.25	0.08845	1008.487	0.249
308.15	0.25	0.09459	1008.945	0.249
308.15	0.25	0.1197	1010.823	0.251
308.15	0.25	0.14121	1012.415	0.252
308.15	0.25	0.15875	1013.711	0.253
318.15	0.25	0.04226	1001.106	0.243
318.15	0.25	0.06483	1002.799	0.245
318.15	0.25	0.08845	1004.558	0.246
318.15	0.25	0.09459	1005.011	0.246
318.15	0.25	0.1197	1006.863	0.248
318.15	0.25	0.14121	1008.435	0.249
318.15	0.25	0.15875	1009.712	0.25
288.15	0.35	0.04196	1013.883	0.253
288.15	0.35	0.05648	1015.014	0.254
288.15	0.35	0.08401	1017.145	0.256
288.15	0.35	0.10214	1018.536	0.257
288.15	0.35	0.13101	1020.742	0.259
288.15	0.35	0.13671	1021.175	0.259
288.15	0.35	0.16592	1023.383	0.261
298.15	0.35	0.04196	1011.16	0.251
298.15	0.35	0.05648	1012.275	0.252
298.15	0.35	0.08401	1014.378	0.254
298.15	0.35	0.10214	1015.752	0.255
298.15	0.35	0.13101	1017.929	0.257
298.15	0.35	0.13671	1018.356	0.257
298.15	0.35	0.16592	1020.533	0.259
308.15	0.35	0.04196	1007.908	0.249
308.15	0.35	0.05648	1009.009	0.25
308.15	0.35	0.08401	1011.083	0.251
308.15	0.35	0.10214	1012.439	0.252
308.15	0.35	0.13101	1014.587	0.254
308.15	0.35	0.13671	1015.007	0.254
308.15	0.35	0.16592	1017.16	0.256
318.15	0.35	0.04196	1004.073	0.246
318.15	0.35	0.05648	1005.161	0.246
318.15	0.35	0.08401	1007.211	0.248
318.15	0.35	0.10214	1008.55	0.249
318.15	0.35	0.13101	1010.67	0.251
318.15	0.35	0.13671	1011.087	0.251
318.15	0.35	0.16592	1013.213	0.253
288.15	0.5	0.05846	1019.578	0.258
288.15	0.5	0.07612	1020.938	0.259
288.15	0.5	0.08111	1021.319	0.26
288.15	0.5	0.10511	1023.153	0.261
288.15	0.5	0.12577	1024.721	0.262
288.15	0.5	0.13365	1025.313	0.263
288.15	0.5	0.15469	1026.894	0.264
298.15	0.5	0.05846	1016.841	0.256
298.15	0.5	0.07612	1018.183	0.257
298.15	0.5	0.08111	1018.557	0.257
298.15	0.5	0.10511	1020.367	0.259
298.15	0.5	0.12577	1021.914	0.26
298.15	0.5	0.13365	1022.497	0.261
298.15	0.5	0.15469	1024.061	0.262
308.15	0.5	0.05846	1013.642	0.253
308.15	0.5	0.07612	1014.97	0.254
308.15	0.5	0.08111	1015.34	0.255
308.15	0.5	0.10511	1017.131	0.256
308.15	0.5	0.12577	1018.661	0.257
308.15	0.5	0.13365	1019.24	0.258
308.15	0.5	0.15469	1020.785	0.259
318.15	0.5	0.05846	1009.742	0.25
318.15	0.5	0.07612	1011.055	0.251
318.15	0.5	0.08111	1011.422	0.252
318.15	0.5	0.10511	1013.194	0.253
318.15	0.5	0.12577	1014.708	0.254
318.15	0.5	0.13365	1015.28	0.255
318.15	0.5	0.15469	1016.808	0.256

System: 2-aminoacetic acid + D-(+)-maltose monohydrate + water; phases: Liquid
Fixed: Pressure, kPa = 101
Property: Mass density, kg/m3 (Liquid); method: Vibrating tube method
Temperature, K	Solvent: Molality, mol/kg of 2-aminoacetic acid	Molality, mol/kg of D-(+)-maltose monohydrate	Mass density, kg/m3	uncertainty
288.15	0	0.04652	1005.281	0.876
288.15	0	0.06268	1007.381	0.88
288.15	0	0.09207	1011.165	0.888
288.15	0	0.09889	1012.035	0.89
288.15	0	0.10954	1013.383	0.893
288.15	0	0.13709	1016.842	0.9
298.15	0	0.04652	1003.135	0.872
298.15	0	0.06268	1005.215	0.876
298.15	0	0.09207	1008.961	0.884
298.15	0	0.09889	1009.824	0.886
298.15	0	0.10954	1011.161	0.888
298.15	0	0.13709	1014.591	0.895
308.15	0	0.04652	1000.082	0.865
308.15	0	0.06268	1002.132	0.87
308.15	0	0.09207	1005.818	0.877
308.15	0	0.09889	1006.666	0.879
308.15	0	0.10954	1007.984	0.882
308.15	0	0.13709	1011.339	0.889
318.15	0	0.04652	996.225	0.86
318.15	0	0.06268	998.267	0.863
318.15	0	0.09207	1001.944	0.869
318.15	0	0.09889	1002.788	0.871
318.15	0	0.10954	1004.099	0.874
318.15	0	0.13709	1007.469	0.881
288.15	0.05	0.05469	1007.803	0.881
288.15	0.05	0.07483	1010.435	0.887
288.15	0.05	0.09713	1013.309	0.893
288.15	0.05	0.12992	1017.474	0.901
288.15	0.05	0.13703	1018.362	0.903
288.15	0.05	0.15462	1020.558	0.908
288.15	0.05	0.17522	1023.108	0.913
288.15	0.05	0.18703	1024.553	0.916
288.15	0.05	0.20871	1027.193	0.922
288.15	0.05	0.21451	1027.884	0.923
298.15	0.05	0.05469	1005.839	0.877
298.15	0.05	0.07483	1008.444	0.883
298.15	0.05	0.09713	1011.299	0.889
298.15	0.05	0.12992	1015.445	0.897
298.15	0.05	0.13703	1016.329	0.899
298.15	0.05	0.15462	1018.515	0.904
298.15	0.05	0.17522	1021.05	0.909
298.15	0.05	0.18703	1022.489	0.912
298.15	0.05	0.20871	1025.109	0.917
298.15	0.05	0.21451	1025.794	0.919
308.15	0.05	0.05469	1002.735	0.871
308.15	0.05	0.07483	1005.298	0.876
308.15	0.05	0.09713	1008.106	0.882
308.15	0.05	0.12992	1012.183	0.89
308.15	0.05	0.13703	1013.052	0.892
308.15	0.05	0.15462	1015.201	0.897
308.15	0.05	0.17522	1017.694	0.902
308.15	0.05	0.18703	1019.106	0.905
308.15	0.05	0.20871	1021.691	0.91
308.15	0.05	0.21451	1022.39	0.912
318.15	0.05	0.05469	998.935	0.864
318.15	0.05	0.07483	1001.474	0.868
318.15	0.05	0.09713	1004.253	0.874
318.15	0.05	0.12992	1008.29	0.882
318.15	0.05	0.13703	1009.152	0.884
318.15	0.05	0.15462	1011.281	0.889
318.15	0.05	0.17522	1013.75	0.894
318.15	0.05	0.18703	1015.152	0.897
318.15	0.05	0.20871	1017.711	0.902
318.15	0.05	0.21451	1018.383	0.903
288.15	0.15	0.0574	1011.674	0.889
288.15	0.15	0.07227	1013.599	0.893
288.15	0.15	0.10278	1017.51	0.902
288.15	0.15	0.11554	1019.127	0.905
288.15	0.15	0.13775	1021.915	0.911
288.15	0.15	0.15445	1023.99	0.915
288.15	0.15	0.17487	1026.5	0.92
288.15	0.15	0.19179	1028.565	0.925
288.15	0.15	0.21866	1031.809	0.932
288.15	0.15	0.23135	1033.323	0.935
298.15	0.15	0.0574	1009.336	0.885
298.15	0.15	0.07227	1011.246	0.888
298.15	0.15	0.10278	1015.123	0.897
298.15	0.15	0.11554	1016.727	0.9
298.15	0.15	0.13775	1019.498	0.906
298.15	0.15	0.15445	1021.556	0.91
298.15	0.15	0.17487	1024.054	0.915
298.15	0.15	0.19179	1026.105	0.92
298.15	0.15	0.21866	1029.327	0.926
298.15	0.15	0.23135	1030.829	0.93
308.15	0.15	0.0574	1006.112	0.878
308.15	0.15	0.07227	1007.989	0.882
308.15	0.15	0.10278	1011.803	0.89
308.15	0.15	0.11554	1013.378	0.893
308.15	0.15	0.13775	1016.097	0.899
308.15	0.15	0.15445	1018.119	0.903
308.15	0.15	0.17487	1020.573	0.908
308.15	0.15	0.19179	1022.584	0.912
308.15	0.15	0.21866	1025.745	0.919
308.15	0.15	0.23135	1027.214	0.922
318.15	0.15	0.0574	1002.254	0.87
318.15	0.15	0.07227	1004.12	0.874
318.15	0.15	0.10278	1007.91	0.882
318.15	0.15	0.11554	1009.473	0.885
318.15	0.15	0.13775	1012.178	0.89
318.15	0.15	0.15445	1014.186	0.895
318.15	0.15	0.17487	1016.628	0.9
318.15	0.15	0.19179	1018.623	0.904
318.15	0.15	0.21866	1021.77	0.91
318.15	0.15	0.23135	1023.235	0.914
288.15	0.25	0.04356	1013.146	0.892
288.15	0.25	0.05989	1015.239	0.897
288.15	0.25	0.08158	1017.991	0.903
288.15	0.25	0.10082	1020.411	0.908
288.15	0.25	0.11271	1021.895	0.911
288.15	0.25	0.11934	1022.714	0.912
288.15	0.25	0.13133	1024.19	0.916
288.15	0.25	0.14266	1025.58	0.918
298.15	0.25	0.04356	1010.535	0.887
298.15	0.25	0.05989	1012.619	0.891
298.15	0.25	0.08158	1015.349	0.897
298.15	0.25	0.10082	1017.747	0.902
298.15	0.25	0.11271	1019.216	0.905
298.15	0.25	0.11934	1020.029	0.907
298.15	0.25	0.13133	1021.496	0.91
298.15	0.25	0.14266	1022.874	0.913
308.15	0.25	0.04356	1007.359	0.88
308.15	0.25	0.05989	1009.429	0.885
308.15	0.25	0.08158	1012.152	0.89
308.15	0.25	0.10082	1014.545	0.895
308.15	0.25	0.11271	1016.01	0.898
308.15	0.25	0.11934	1016.824	0.9
308.15	0.25	0.13133	1018.288	0.903
308.15	0.25	0.14266	1019.663	0.906
318.15	0.25	0.04356	1003.475	0.872
318.15	0.25	0.05989	1005.529	0.877
318.15	0.25	0.08158	1008.231	0.882
318.15	0.25	0.10082	1010.604	0.887
318.15	0.25	0.11271	1012.059	0.89
318.15	0.25	0.11934	1012.865	0.892
318.15	0.25	0.13133	1014.313	0.895
318.15	0.25	0.14266	1015.677	0.898
288.15	0.35	0.04756	1016.79	0.9
288.15	0.35	0.06716	1019.298	0.905
288.15	0.35	0.08242	1021.235	0.909
288.15	0.35	0.08812	1021.953	0.911
288.15	0.35	0.11275	1025.041	0.917
288.15	0.35	0.12035	1025.985	0.919
288.15	0.35	0.14689	1029.26	0.926
288.15	0.35	0.16343	1031.273	0.93
298.15	0.35	0.04756	1014.053	0.894
298.15	0.35	0.06716	1016.542	0.9
298.15	0.35	0.08242	1018.465	0.904
298.15	0.35	0.08812	1019.179	0.905
298.15	0.35	0.11275	1022.241	0.911
298.15	0.35	0.12035	1023.175	0.913
298.15	0.35	0.14689	1026.416	0.92
298.15	0.35	0.16343	1028.413	0.924
308.15	0.35	0.04756	1010.796	0.888
308.15	0.35	0.06716	1013.266	0.893
308.15	0.35	0.08242	1015.173	0.897
308.15	0.35	0.08812	1015.879	0.898
308.15	0.35	0.11275	1018.921	0.904
308.15	0.35	0.12035	1019.848	0.906
308.15	0.35	0.14689	1023.071	0.913
308.15	0.35	0.16343	1025.057	0.917
318.15	0.35	0.04756	1006.965	0.88
318.15	0.35	0.06716	1009.416	0.885
318.15	0.35	0.08242	1011.313	0.889
318.15	0.35	0.08812	1012.018	0.89
318.15	0.35	0.11275	1015.044	0.896
318.15	0.35	0.12035	1015.965	0.898
318.15	0.35	0.14689	1019.172	0.905
318.15	0.35	0.16343	1021.144	0.909
288.15	0.5	0.05327	1021.788	0.91
288.15	0.5	0.07088	1024.025	0.915
288.15	0.5	0.07902	1025.053	0.917
288.15	0.5	0.10165	1027.889	0.923
288.15	0.5	0.10409	1028.189	0.924
288.15	0.5	0.14235	1032.911	0.934
298.15	0.5	0.05327	1019.287	0.905
298.15	0.5	0.07088	1021.51	0.91
298.15	0.5	0.07902	1022.53	0.912
298.15	0.5	0.10165	1025.345	0.918
298.15	0.5	0.10409	1025.643	0.919
298.15	0.5	0.14235	1030.334	0.928
308.15	0.5	0.05327	1015.987	0.898
308.15	0.5	0.07088	1018.193	0.903
308.15	0.5	0.07902	1019.204	0.905
308.15	0.5	0.10165	1021.997	0.911
308.15	0.5	0.10409	1022.291	0.912
308.15	0.5	0.14235	1026.943	0.921
318.15	0.5	0.05327	1012.1	0.89
318.15	0.5	0.07088	1014.292	0.895
318.15	0.5	0.07902	1015.297	0.897
318.15	0.5	0.10165	1018.075	0.903
318.15	0.5	0.10409	1018.368	0.903
318.15	0.5	0.14235	1022.994	0.913

System: 2-aminoacetic acid + D-cellobiose + water; phases: Liquid
Fixed: Pressure, kPa = 101
Property: Mass density, kg/m3 (Liquid); method: Vibrating tube method
Temperature, K	Solvent: Molality, mol/kg of 2-aminoacetic acid	Molality, mol/kg of D-cellobiose	Mass density, kg/m3	uncertainty
288.15	0	0.05401	1006.178	0.247
288.15	0	0.05609	1006.446	0.248
288.15	0	0.07877	1009.353	0.25
288.15	0	0.0815	1009.698	0.25
288.15	0	0.09742	1011.716	0.252
288.15	0	0.11745	1014.233	0.254
298.15	0	0.05401	1004.047	0.246
298.15	0	0.05609	1004.312	0.246
298.15	0	0.07877	1007.197	0.248
298.15	0	0.0815	1007.539	0.248
298.15	0	0.09742	1009.545	0.25
298.15	0	0.11745	1012.044	0.252
308.15	0	0.05401	1001.017	0.243
308.15	0	0.05609	1001.28	0.244
308.15	0	0.07877	1004.146	0.246
308.15	0	0.0815	1004.486	0.246
308.15	0	0.09742	1006.477	0.248
308.15	0	0.11745	1008.959	0.25
318.15	0	0.05401	997.156	0.243
318.15	0	0.05609	997.418	0.243
318.15	0	0.07877	1000.267	0.243
318.15	0	0.0815	1000.604	0.243
318.15	0	0.09742	1002.583	0.245
318.15	0	0.11745	1005.051	0.247
288.15	0.05	0.05312	1007.354	0.248
288.15	0.05	0.0741	1010.009	0.25
288.15	0.05	0.07647	1010.305	0.251
288.15	0.05	0.08596	1011.493	0.252
288.15	0.05	0.11707	1015.361	0.255
288.15	0.05	0.12101	1015.841	0.255
288.15	0.05	0.15955	1020.549	0.259
298.15	0.05	0.05312	1005.44	0.247
298.15	0.05	0.0741	1008.077	0.249
298.15	0.05	0.07647	1008.371	0.249
298.15	0.05	0.08596	1009.551	0.25
298.15	0.05	0.11707	1013.392	0.253
298.15	0.05	0.12101	1013.871	0.254
298.15	0.05	0.15955	1018.549	0.257
308.15	0.05	0.05312	1002.379	0.244
308.15	0.05	0.0741	1005	0.247
308.15	0.05	0.07647	1005.293	0.247
308.15	0.05	0.08596	1006.465	0.248
308.15	0.05	0.11707	1010.28	0.251
308.15	0.05	0.12101	1010.754	0.251
308.15	0.05	0.15955	1015.4	0.255
318.15	0.05	0.05312	998.618	0.243
318.15	0.05	0.0741	1001.223	0.244
318.15	0.05	0.07647	1001.515	0.244
318.15	0.05	0.08596	1002.682	0.245
318.15	0.05	0.11707	1006.477	0.248
318.15	0.05	0.12101	1006.948	0.248
318.15	0.05	0.15955	1011.569	0.252
288.15	0.15	0.04878	1010.345	0.251
288.15	0.15	0.06108	1011.897	0.252
288.15	0.15	0.09043	1015.563	0.255
288.15	0.15	0.10002	1016.748	0.256
288.15	0.15	0.12565	1019.894	0.259
288.15	0.15	0.13344	1020.837	0.259
288.15	0.15	0.1686	1025.084	0.263
298.15	0.15	0.04878	1008.068	0.249
298.15	0.15	0.06108	1009.613	0.25
298.15	0.15	0.09043	1013.267	0.253
298.15	0.15	0.10002	1014.447	0.254
298.15	0.15	0.12565	1017.58	0.257
298.15	0.15	0.13344	1018.522	0.257
298.15	0.15	0.1686	1022.75	0.26
308.15	0.15	0.04878	1004.901	0.246
308.15	0.15	0.06108	1006.439	0.248
308.15	0.15	0.09043	1010.073	0.251
308.15	0.15	0.10002	1011.246	0.252
308.15	0.15	0.12565	1014.363	0.254
308.15	0.15	0.13344	1015.301	0.255
308.15	0.15	0.1686	1019.504	0.258
318.15	0.15	0.04878	1001.09	0.243
318.15	0.15	0.06108	1002.621	0.245
318.15	0.15	0.09043	1006.243	0.248
318.15	0.15	0.10002	1007.413	0.249
318.15	0.15	0.12565	1010.518	0.251
318.15	0.15	0.13344	1011.449	0.252
318.15	0.15	0.1686	1015.64	0.255
288.15	0.25	0.05008	1013.826	0.254
288.15	0.25	0.0657	1015.782	0.255
288.15	0.25	0.07882	1017.415	0.257
288.15	0.25	0.09865	1019.861	0.259
288.15	0.25	0.12245	1022.769	0.261
288.15	0.25	0.14705	1025.742	0.263
288.15	0.25	0.17079	1028.579	0.266
298.15	0.25	0.05008	1011.246	0.252
298.15	0.25	0.0657	1013.198	0.253
298.15	0.25	0.07882	1014.826	0.254
298.15	0.25	0.09865	1017.264	0.256
298.15	0.25	0.12245	1020.164	0.259
298.15	0.25	0.14705	1023.127	0.261
298.15	0.25	0.17079	1025.954	0.264
308.15	0.25	0.05008	1008.088	0.249
308.15	0.25	0.0657	1010.033	0.251
308.15	0.25	0.07882	1011.654	0.252
308.15	0.25	0.09865	1014.084	0.254
308.15	0.25	0.12245	1016.972	0.256
308.15	0.25	0.14705	1019.924	0.259
308.15	0.25	0.17079	1022.746	0.261
318.15	0.25	0.05008	1004.225	0.246
318.15	0.25	0.0657	1006.164	0.248
318.15	0.25	0.07882	1007.782	0.249
318.15	0.25	0.09865	1010.205	0.251
318.15	0.25	0.12245	1013.086	0.253
318.15	0.25	0.14705	1016.03	0.256
318.15	0.25	0.17079	1018.837	0.258
288.15	0.35	0.04373	1016.136	0.256
288.15	0.35	0.07642	1020.21	0.259
288.15	0.35	0.0819	1020.885	0.259
288.15	0.35	0.09355	1022.315	0.261
288.15	0.35	0.1103	1024.359	0.262
288.15	0.35	0.12	1025.532	0.263
288.15	0.35	0.1515	1029.319	0.266
298.15	0.35	0.04373	1013.431	0.253
298.15	0.35	0.07642	1017.479	0.257
298.15	0.35	0.0819	1018.149	0.257
298.15	0.35	0.09355	1019.569	0.258
298.15	0.35	0.1103	1021.6	0.26
298.15	0.35	0.12	1022.763	0.261
298.15	0.35	0.1515	1026.522	0.264
308.15	0.35	0.04373	1010.199	0.251
308.15	0.35	0.07642	1014.24	0.254
308.15	0.35	0.0819	1014.908	0.255
308.15	0.35	0.09355	1016.326	0.256
308.15	0.35	0.1103	1018.353	0.257
308.15	0.35	0.12	1019.516	0.258
308.15	0.35	0.1515	1023.272	0.262
318.15	0.35	0.04373	1006.385	0.248
318.15	0.35	0.07642	1010.414	0.251
318.15	0.35	0.0819	1011.081	0.252
318.15	0.35	0.09355	1012.494	0.253
318.15	0.35	0.1103	1014.515	0.254
318.15	0.35	0.12	1015.674	0.255
318.15	0.35	0.1515	1019.42	0.258
288.15	0.5	0.05385	1021.665	0.26
288.15	0.5	0.07869	1024.737	0.263
288.15	0.5	0.08667	1025.715	0.263
288.15	0.5	0.11117	1028.698	0.266
288.15	0.5	0.12967	1030.929	0.268
288.15	0.5	0.13047	1031.018	0.268
288.15	0.5	0.15619	1034.083	0.27
298.15	0.5	0.05385	1019.19	0.258
298.15	0.5	0.07869	1022.24	0.261
298.15	0.5	0.08667	1023.21	0.261
298.15	0.5	0.11117	1026.171	0.264
298.15	0.5	0.12967	1028.386	0.266
298.15	0.5	0.13047	1028.473	0.266
298.15	0.5	0.15619	1031.516	0.268
308.15	0.5	0.05385	1015.925	0.256
308.15	0.5	0.07869	1018.97	0.258
308.15	0.5	0.08667	1019.938	0.259
308.15	0.5	0.11117	1022.896	0.261
308.15	0.5	0.12967	1025.106	0.263
308.15	0.5	0.13047	1025.194	0.263
308.15	0.5	0.15619	1028.233	0.266
318.15	0.5	0.05385	1012.057	0.252
318.15	0.5	0.07869	1015.09	0.255
318.15	0.5	0.08667	1016.056	0.256
318.15	0.5	0.11117	1019.001	0.258
318.15	0.5	0.12967	1021.205	0.26
318.15	0.5	0.13047	1021.294	0.26
318.15	0.5	0.15619	1024.323	0.262
