Measured thermophysical data. New experimental VLE data for the binary mixture of carbon dioxide + perfluorohexane (CO2 + C6F14) from 273 K to 333 K
Source: Fluid Phase Equilib., 2019, 10.1016/j.fluid.2019.06.024
Compound 1: carbon dioxide, CO2, InChI=1S/CO2/c2-1-3, purity 99.998%
Compound 2: perfluorohexane, C6F14, InChI=1S/C6F14/c7-1(8,3(11,12)5(15,16)17)2(9,10)4(13,14)6(18,19)20, purity 98%

System: carbon dioxide + perfluorohexane; phases: Gas, Liquid
Property: Vapor or sublimation pressure, kPa (Gas); method: Closed cell (Static) method
Temperature, K	Mole fraction of carbon dioxide	Vapor or sublimation pressure, kPa	uncertainty
273.14	0.1597	505.4	30.5
273.14	0.3195	1002.1	26.9
273.14	0.4702	1501.2	27.9
273.14	0.6096	2001.4	35.3
273.14	0.7598	2499.8	34.3
273.14	0.8901	2998.7	33.4
283.15	0.1532	501.3	36.3
283.15	0.268	1000.8	30.2
283.15	0.3911	1501.4	28.7
283.15	0.5243	2001.6	36.5
283.15	0.62	2498.1	37.6
283.15	0.7257	2999.2	35.8
283.15	0.8464	3500.3	35.2
283.15	0.9494	3999.5	34.7
293.16	0.1221	501.2	43.1
293.16	0.2307	999.5	27.6
293.16	0.341	1499.4	28.8
293.16	0.4509	1999.3	31.3
293.16	0.5415	2499.9	38.5
293.16	0.6505	2999.6	38.9
293.16	0.7214	3503.2	39.8
293.16	0.8014	3998.7	39
293.16	0.8703	4500.5	37.5
293.16	0.9368	4998.7	37.8
303.14	0.11	499.9	23
303.14	0.2104	997.4	24.8
303.14	0.3074	1508	28.2
303.14	0.3937	1998.8	31.5
303.14	0.4735	2498.7	40.7
303.14	0.5475	2997.5	42.4
303.14	0.6168	3500.7	43
303.14	0.6828	3995.1	42.7
303.14	0.7477	4499.8	41.8
303.14	0.8086	4998.6	41
303.14	0.8678	5498.9	41.1
303.14	0.9065	5998.9	40.7
303.14	0.9575	6509.5	65.2
313.16	0.0962	505.6	26.1
313.16	0.1885	1000.5	25.6
313.16	0.274	1498.8	29.3
313.16	0.3518	1999.4	32.9
313.16	0.4248	2498.6	42.3
313.16	0.4925	2999.9	44.9
313.16	0.555	3501	46
313.16	0.6158	4000.9	46.5
313.16	0.6721	4502	47.6
313.16	0.7253	5012.5	46.9
313.16	0.7744	5501.5	46
313.16	0.822	5997.1	45.4
313.16	0.867	6508.8	68.5
313.16	0.929	7287.1	66.9
323.16	0.0907	502.8	27.5
323.16	0.1684	1001.5	26.1
323.16	0.2484	1498.8	29.5
323.16	0.32	1998.4	34.2
323.16	0.3867	2499.1	44.1
323.16	0.4491	2999.5	46.6
323.16	0.5073	3498.9	48.5
323.16	0.5624	3996.9	50
323.16	0.6138	4498.6	51.4
323.16	0.6631	4999.2	51.9
323.16	0.7091	5498.8	52
323.16	0.7523	5997.1	50.6
323.16	0.7945	6500.2	73
323.16	0.8332	6999.3	71.6
323.16	0.8738	7501.3	70.5
323.16	0.9032	7917.9	69.6
333.18	0.0791	500.7	58.1
333.18	0.1498	1001	31.2
333.18	0.2228	1499.9	33.5
333.18	0.2899	1997.9	37.2
333.18	0.3536	2500.4	45.3
333.18	0.4181	2999.3	47.9
333.18	0.4735	3500.4	52.3
333.18	0.5253	3999.5	54
333.18	0.5744	4501.7	55.6
333.18	0.6208	5000.4	56
333.18	0.6655	5502.1	58.4
333.18	0.7031	6002.2	74.8
333.18	0.7537	6501.9	73.1
333.18	0.7942	7001.4	77.2
333.18	0.8195	7500.5	75.3
333.18	0.8602	7996.9	72.4
333.18	0.8976	8575.5	71.1

System: carbon dioxide + perfluorohexane; phases: Gas, Liquid
Property: Mole fraction of carbon dioxide (Gas); method: Chromatography
Temperature, K	Mole fraction of carbon dioxide	Mole fraction of carbon dioxide	uncertainty
273.14	0.1597	0.9804	0.0196
273.14	0.3195	0.987	0.013
273.14	0.4702	0.99	0.01
273.14	0.6096	0.9964	0.0036
273.14	0.7598	0.9965	0.0035
273.14	0.8901	0.9949	0.004
283.15	0.1532	0.9706	0.0294
283.15	0.268	0.9871	0.0129
283.15	0.3911	0.9874	0.0126
283.15	0.5243	0.9885	0.006
283.15	0.62	0.9897	0.005
283.15	0.7257	0.9913	0.004
283.15	0.8464	0.9925	0.005
283.15	0.9494	0.9909	0.005
293.16	0.1221	0.9519	0.0481
293.16	0.2307	0.9744	0.024
293.16	0.341	0.98	0.017
293.16	0.4509	0.985	0.012
293.16	0.5415	0.987	0.009
293.16	0.6505	0.986	0.007
293.16	0.7214	0.9875	0.004
293.16	0.8014	0.9878	0.005
293.16	0.8703	0.9828	0.004
293.16	0.9368	0.9854	0.005
303.14	0.11	0.9299	0.044
303.14	0.2104	0.9606	0.015
303.14	0.3074	0.975	0.008
303.14	0.3937	0.9801	0.006
303.14	0.4735	0.9801	0.006
303.14	0.5475	0.9789	0.005
303.14	0.6168	0.9788	0.005
303.14	0.6828	0.9813	0.004
303.14	0.7477	0.9844	0.004
303.14	0.8086	0.985	0.004
303.14	0.8678	0.9857	0.004
303.14	0.9065	0.985	0.003
303.14	0.9575	0.9895	0.003
313.16	0.0962	0.8815	0.0471
313.16	0.1885	0.9507	0.0151
313.16	0.274	0.9597	0.011
313.16	0.3518	0.9667	0.008
313.16	0.4248	0.9708	0.007
313.16	0.4925	0.9731	0.006
313.16	0.555	0.9748	0.006
313.16	0.6158	0.9749	0.005
313.16	0.6721	0.9706	0.006
313.16	0.7253	0.968	0.006
313.16	0.7744	0.9782	0.004
313.16	0.822	0.9782	0.004
313.16	0.867	0.9782	0.004
313.16	0.929	0.9774	0.004
323.16	0.0907	0.8736	0.0471
323.16	0.1684	0.9315	0.0181
323.16	0.2484	0.9491	0.013
323.16	0.32	0.9559	0.01
323.16	0.3867	0.9617	0.008
323.16	0.4491	0.9658	0.007
323.16	0.5073	0.9677	0.007
323.16	0.5624	0.9692	0.006
323.16	0.6138	0.9709	0.006
323.16	0.6631	0.9714	0.006
323.16	0.7091	0.9692	0.006
323.16	0.7523	0.9675	0.006
323.16	0.7945	0.9699	0.005
323.16	0.8332	0.969	0.006
323.16	0.8738	0.9673	0.006
323.16	0.9032	0.9601	0.007
333.18	0.0791	0.7781	0.0927
333.18	0.1498	0.8803	0.0402
333.18	0.2228	0.9166	0.026
333.18	0.2899	0.93	0.019
333.18	0.3536	0.9425	0.015
333.18	0.4181	0.947	0.013
333.18	0.4735	0.9525	0.011
333.18	0.5253	0.9541	0.011
333.18	0.5744	0.9565	0.01
333.18	0.6208	0.9588	0.009
333.18	0.6655	0.9589	0.009
333.18	0.7031	0.9589	0.008
333.18	0.7537	0.9558	0.009
333.18	0.7942	0.9519	0.009
333.18	0.8195	0.9488	0.009
333.18	0.8602	0.9441	0.01
333.18	0.8976	0.9397	0.01
