Measured thermophysical data. An experimental investigation on the solubility of methane in 1-octanol and n-dodecane at ambient temperatures
Source: Fluid Phase Equilib., 2016, 10.1016/j.fluid.2016.08.009
Compound 1: methane, CH4, InChI=1S/CH4/h1H4
Compound 2: octan-1-ol, C8H18O, InChI=1S/C8H18O/c1-2-3-4-5-6-7-8-9/h9H,2-8H2,1H3
Compound 3: dodecane, C12H26, InChI=1S/C12H26/c1-3-5-7-9-11-12-10-8-6-4-2/h3-12H2,1-2H3

System: methane + octan-1-ol; phases: Liquid, Gas
Property: Molality, mol/kg of methane (Liquid); method: synthetic method
Pressure, kPa	Temperature, K	Molality, mol/kg of methane	uncertainty
2076	273.25	0.456	0.019
2936	273.25	0.662	0.019
4011	273.25	0.915	0.019
4802	273.25	1.096	0.021
5688	273.25	1.293	0.022
6820	273.25	1.56	0.023
8058	273.25	1.822	0.024
9338	273.25	2.083	0.026
10060	273.25	2.231	0.027
1502	283.15	0.318	0.015
2801	283.15	0.591	0.018
3793	283.15	0.811	0.019
4765	283.15	1.03	0.02
5489	283.15	1.178	0.021
7110	283.15	1.524	0.022
8530	283.15	1.819	0.026
9966	283.15	2.15	0.027
1058	293.2	0.204	0.016
1985	293.2	0.409	0.018
2842	293.2	0.581	0.018
3654	293.2	0.756	0.018
5598	293.2	1.135	0.02
7079	293.2	1.424	0.021
8696	293.2	1.75	0.023
10140	293.2	2.011	0.024

System: methane + dodecane; phases: Liquid, Gas
Fixed: Temperature, K = 273.1
Property: Molality, mol/kg of methane (Liquid); method: synthetic
Pressure, kPa	Molality, mol/kg of methane	uncertainty
909	0.315	0.024
1775	0.643	0.026
2811	1.037	0.027
3578	1.335	0.03
4518	1.718	0.033
5361	2.047	0.035
6686	2.571	0.04
7729	3.019	0.045
8805	3.466	0.049
