Measured thermophysical data. Binary vapor liquid equilibrium of methyl glycolate and ethylene glycol
Source: Fluid Phase Equilib., 2006, 10.1016/j.fluid.2006.09.019
Compound 1: 1,2-ethanediol, C2H6O2, InChI=1S/C2H6O2/c3-1-2-4/h3-4H,1-2H2, purity 99.5%
Compound 2: methyl hydroxyethanoate, C3H6O3, InChI=1S/C3H6O3/c1-6-3(5)2-4/h4H,2H2,1H3, purity 98%

System: methyl hydroxyethanoate; phases: Liquid, Gas
Property: Vapor or sublimation pressure, kPa (Liquid); method: CCELL:UFactor:16
Temperature, K	Vapor or sublimation pressure, kPa	uncertainty
293.23	0.48636	0.076527
303.17	0.84593	0.1210967
313.27	1.409217	0.1590536
323.12	2.310877	0.1815851
333.28	3.738359	0.2174488
343.26	5.905248	0.2719776
353.25	9.291636	0.3563707

System: methyl hydroxyethanoate + 1,2-ethanediol; phases: Liquid, Gas
Property: Vapor or sublimation pressure, kPa (Liquid); method: CCELL:UFactor:8
Temperature, K	Mole fraction of methyl hydroxyethanoate	Vapor or sublimation pressure, kPa	uncertainty
323.15	0.0264	0.314507	0.055062
323.15	0.0496	0.435697	0.070128
323.15	0.0856	0.570886	0.086926
323.15	0.1872	0.89326	0.1268962
323.15	0.2484	1.074312	0.1494544
323.15	0.3214	1.246564	0.170786
323.15	0.4133	1.444415	0.1599868
323.15	0.5032	1.624	0.1645198
323.15	0.6528	1.900644	0.1714526
323.15	0.7739	2.039432	0.1750523
333.15	0.0264	0.514091	0.07986
333.15	0.0496	0.72834	0.1064046
333.15	0.0856	1.020316	0.1426549
333.15	0.1872	1.462546	0.1603868
333.15	0.2484	1.727858	0.1669196
333.15	0.3214	1.957439	0.1727858
333.15	0.4133	2.258481	0.1802518
333.15	0.5032	2.548724	0.1875846
333.15	0.6528	2.947091	0.1975838
333.15	0.7739	3.294796	0.206383
343.15	0.0264	0.913658	0.129496
343.15	0.0496	1.143106	0.1578537
343.15	0.0856	1.550806	0.16252
343.15	0.1872	2.304077	0.1813184
343.15	0.2484	2.67898	0.1907843
343.15	0.3214	3.08188	0.2009168
343.15	0.4133	3.499979	0.2114493
343.15	0.5032	3.907412	0.2217151
343.15	0.6528	4.470299	0.2361139
343.15	0.7739	4.916129	0.2474463
353.15	0.0264	1.549739	0.16252
353.15	0.0496	1.923442	0.1718525
353.15	0.0856	2.350473	0.182385
353.15	0.1872	3.505578	0.2111826
353.15	0.2484	4.069132	0.2253148
353.15	0.3214	4.636152	0.2395803
353.15	0.4133	5.367559	0.2579788
353.15	0.5032	6.12043	0.2769106
353.15	0.6528	7.181409	0.303975
353.15	0.7739	8.077602	0.3267731
