Measured thermophysical data. Solubility of pharmaceutical compounds in ionic liquidsAna
Source: Fluid Phase Equilib., 2013, 10.1016/j.fluid.2013.07.020
Compound 1: 1,2-benzopyrone, C9H6O2, InChI=1S/C9H6O2/c10-9-6-5-7-3-1-2-4-8(7)11-9/h1-6H, purity 99%
Compound 2: N-acetyl-L-cysteine, C5H9NO3S, InChI=1S/C5H9NO3S/c1-3(7)6-4(2-10)5(8)9/h4,10H,2H2,1H3,(H,6,7)(H,8,9)/t4-/m0/s1, purity 99%
Compound 3: 4-hydroxycoumarin, C9H6O3, InChI=1S/C9H6O3/c10-7-5-9(11)12-8-4-2-1-3-6(7)8/h1-5,10H, purity 98%
Compound 4: 1-ethyl-3-methylimidazolium bis((trifluoromethyl)sulfonyl)imide, C8H11F6N3O4S2, InChI=1S/C6H11N2.C2F6NO4S2/c1-3-8-5-4-7(2)6-8;3-1(4,5)14(10,11)9-15(12,13)2(6,7)8/h4-6H,3H2,1-2H3;/q+1;-1, purity 99%
Compound 5: 1-butyl-3-methylimidazolium bis(trifluoromethylsulfonyl)imide, C10H15F6N3O4S2, InChI=1S/C8H15N2.C2F6NO4S2/c1-3-4-5-10-7-6-9(2)8-10;3-1(4,5)14(10,11)9-15(12,13)2(6,7)8/h6-8H,3-5H2,1-2H3;/q+1;-1, purity 99%
Compound 6: 1-hexyl-3-methylimidazolium bis[(trifluoromethyl)sulfonyl]imide, C12H19F6N3O4S2, InChI=1S/C10H19N2.C2F6NO4S2/c1-3-4-5-6-7-12-9-8-11(2)10-12;3-1(4,5)14(10,11)9-15(12,13)2(6,7)8/h8-10H,3-7H2,1-2H3;/q+1;-1, purity 99%
Compound 7: 1-decyl-3-methylimidazolium bis(trifluoromethylsulfonyl)amide, C16H27F6N3O4S2, InChI=1S/C14H27N2.C2F6NO4S2/c1-3-4-5-6-7-8-9-10-11-16-13-12-15(2)14-16;3-1(4,5)14(10,11)9-15(12,13)2(6,7)8/h12-14H,3-11H2,1-2H3;/q+1;-1, purity 99%
Compound 8: 1-ethyl-3-methylimidazolium trifluoromethanesulfonate, C7H11F3N2O3S, InChI=1S/C6H11N2.CHF3O3S/c1-3-8-5-4-7(2)6-8;2-1(3,4)8(5,6)7/h4-6H,3H2,1-2H3;(H,5,6,7)/q+1;/p-1, purity 98%
Compound 9: 1-butyl-3-methylimidazolium trifluoromethanesulfonate, C9H15F3N2O3S, InChI=1S/C8H15N2.CHF3O3S/c1-3-4-5-10-7-6-9(2)8-10;2-1(3,4)8(5,6)7/h6-8H,3-5H2,1-2H3;(H,5,6,7)/q+1;/p-1, purity 99%

System: 4-hydroxycoumarin + 1-ethyl-3-methylimidazolium trifluoromethanesulfonate; phases: Liquid, Crystal
Fixed: Pressure, kPa = 100
Property: Solid-liquid equilibrium temperature, K (Liquid); method: VISOBS
Mole fraction of 4-hydroxycoumarin	Solid-liquid equilibrium temperature, K	uncertainty
0.0711	283.02	0.6
0.1107	306.06	0.55
0.1476	323.17	0.45
0.1973	342.78	0.4
0.2485	359.96	0.31
0.3101	372.98	0.26
0.3654	385.07	0.26
0.4204	396.26	0.25
0.4887	408.56	0.24
1	488.3	0.16

System: 4-hydroxycoumarin + 1-butyl-3-methylimidazolium trifluoromethanesulfonate; phases: Liquid, Crystal
Fixed: Pressure, kPa = 100
Property: Solid-liquid equilibrium temperature, K (Liquid); method: VISOBS
Mole fraction of 4-hydroxycoumarin	Solid-liquid equilibrium temperature, K	uncertainty
0.0566	293.46	0.58
0.0907	312.45	0.52
0.1197	324.88	0.4
0.1656	340.36	0.36
0.2145	355.49	0.36
0.2728	374.57	0.32
0.3283	387.73	0.27
0.3902	400.96	0.26
0.4625	415.2	0.25
1	488.3	0.16

System: 4-hydroxycoumarin + 1-butyl-3-methylimidazolium bis(trifluoromethylsulfonyl)imide; phases: Liquid, Crystal
Fixed: Pressure, kPa = 100
Property: Solid-liquid equilibrium temperature, K (Liquid); method: VISOBS
Mole fraction of 4-hydroxycoumarin	Solid-liquid equilibrium temperature, K	uncertainty
0.0203	321.38	0.73
0.0477	340.84	0.54
0.1026	364.94	0.41
0.1615	384.13	0.35
0.2141	399.99	0.3
0.2667	411.6	0.27
1	488.3	0.16

System: N-acetyl-L-cysteine + 1-ethyl-3-methylimidazolium trifluoromethanesulfonate; phases: Liquid, Crystal
Fixed: Pressure, kPa = 100
Property: Solid-liquid equilibrium temperature, K (Liquid); method: VISOBS
Mole fraction of N-acetyl-L-cysteine	Solid-liquid equilibrium temperature, K	uncertainty
0.0889	283.34	0.37
0.1135	291.49	0.37
0.1372	299.83	0.34
0.1711	309.26	0.27
0.2226	318.74	0.22
0.2876	328.22	0.2
0.3574	335.74	0.19
0.4091	341.94	0.19
0.4457	345.81	0.18
0.4794	348.83	0.18
0.5341	353.23	0.17
0.5715	355.39	0.17
0.62	359.34	0.17
0.6602	361.93	0.17
0.7026	364.46	0.17
0.7406	367.93	0.17
0.783	370.77	0.17
0.8398	374.17	0.16
0.9295	378.61	0.16
1	381.99	0.16

System: N-acetyl-L-cysteine + 1-butyl-3-methylimidazolium trifluoromethanesulfonate; phases: Liquid, Crystal
Fixed: Pressure, kPa = 100
Property: Solid-liquid equilibrium temperature, K (Liquid); method: VISOBS
Mole fraction of N-acetyl-L-cysteine	Solid-liquid equilibrium temperature, K	uncertainty
0.0644	293.11	0.45
0.1088	311.94	0.33
0.1699	324.38	0.24
0.2214	332.53	0.2
0.2985	340.68	0.19
0.3824	349.56	0.18
0.4576	355.28	0.17
0.523	359.7	0.17
0.6515	368.28	0.16
0.8445	376.34	0.16
0.9054	379.13	0.16
1	381.99	0.16

System: N-acetyl-L-cysteine + 1-butyl-3-methylimidazolium bis(trifluoromethylsulfonyl)imide; phases: Liquid, Crystal
Fixed: Pressure, kPa = 100
Property: Solid-liquid equilibrium temperature, K (Liquid); method: VISOBS
Mole fraction of N-acetyl-L-cysteine	Solid-liquid equilibrium temperature, K	uncertainty
0.0866	306.47	0.25
0.1769	324.32	0.23
0.2692	336.64	0.2
0.3559	348.19	0.19
0.4642	357.91	0.17
0.6006	365.28	0.16
0.7422	372.23	0.16
0.8775	377.79	0.16
1	381.99	0.16

System: N-acetyl-L-cysteine + 1-hexyl-3-methylimidazolium bis[(trifluoromethyl)sulfonyl]imide; phases: Liquid, Crystal
Fixed: Pressure, kPa = 100
Property: Solid-liquid equilibrium temperature, K (Liquid); method: VISOBS
Mole fraction of N-acetyl-L-cysteine	Solid-liquid equilibrium temperature, K	uncertainty
0.0635	298.36	0.35
0.1333	320.58	0.27
0.2424	338.52	0.2
0.3799	352.37	0.18
0.4996	360.96	0.17
0.6236	366.65	0.16
0.7497	372.99	0.16
0.8843	378.1	0.16
1	381.99	0.16

System: N-acetyl-L-cysteine + 1-decyl-3-methylimidazolium bis(trifluoromethylsulfonyl)amide; phases: Liquid, Crystal
Fixed: Pressure, kPa = 100
Property: Solid-liquid equilibrium temperature, K (Liquid); method: VISOBS
Mole fraction of N-acetyl-L-cysteine	Solid-liquid equilibrium temperature, K	uncertainty
0.0102	305.35	2.04
0.0193	323.88	2.04
0.058	342.61	0.3
0.136	355.24	0.19
0.261	365.51	0.17
0.3717	371.43	0.16
0.5157	375.09	0.16
0.6461	376.83	0.16
0.7722	379.26	0.16
0.8984	381.04	0.16
1	381.99	0.16

System: 1,2-benzopyrone + 1-butyl-3-methylimidazolium trifluoromethanesulfonate; phases: Liquid, Crystal
Fixed: Pressure, kPa = 100
Property: Solid-liquid equilibrium temperature, K (Liquid); method: VISOBS
Mole fraction of 1,2-benzopyrone	Solid-liquid equilibrium temperature, K	uncertainty
0.0714	275.51	0.22
0.1509	287.63	0.22
0.24	300.83	0.19
0.3449	310	0.17
0.4824	318.83	0.17
0.616	326.92	0.16
0.756	333.56	0.16
0.8995	338.77	0.16
1	341.68	0.16

System: 1,2-benzopyrone + 1-ethyl-3-methylimidazolium trifluoromethanesulfonate; phases: Liquid, Crystal
Fixed: Pressure, kPa = 100
Property: Solid-liquid equilibrium temperature, K (Liquid); method: VISOBS
Mole fraction of 1,2-benzopyrone	Solid-liquid equilibrium temperature, K	uncertainty
0.1463	278.38	0.2
0.2596	292.36	0.19
0.3693	304.12	0.18
0.5206	315.13	0.17
0.6415	322.71	0.17
0.7743	331.17	0.16
0.906	337.47	0.16
1	341.68	0.16

System: 1,2-benzopyrone + 1-ethyl-3-methylimidazolium bis((trifluoromethyl)sulfonyl)imide; phases: Liquid, Crystal
Fixed: Pressure, kPa = 100
Property: Solid-liquid equilibrium temperature, K (Liquid); method: VISOBS
Mole fraction of 1,2-benzopyrone	Solid-liquid equilibrium temperature, K	uncertainty
0.1387	263.58	0.19
0.2512	276.27	0.19
0.3673	288.66	0.18
0.5091	302.03	0.18
0.6271	313.49	0.18
0.7615	324.6	0.17
0.8865	334.28	0.17
1	341.68	0.16

System: 1,2-benzopyrone + 1-butyl-3-methylimidazolium bis(trifluoromethylsulfonyl)imide; phases: Liquid, Crystal
Fixed: Pressure, kPa = 100
Property: Solid-liquid equilibrium temperature, K (Liquid); method: VISOBS
Mole fraction of 1,2-benzopyrone	Solid-liquid equilibrium temperature, K	uncertainty
0.2879	274.32	0.2
0.392	287.27	0.19
0.5068	298.16	0.18
0.6332	310.12	0.18
0.7637	322.28	0.18
0.8844	332.38	0.18
1	341.68	0.16

System: 1,2-benzopyrone + 1-hexyl-3-methylimidazolium bis[(trifluoromethyl)sulfonyl]imide; phases: Liquid, Crystal
Fixed: Pressure, kPa = 100
Property: Solid-liquid equilibrium temperature, K (Liquid); method: VISOBS
Mole fraction of 1,2-benzopyrone	Solid-liquid equilibrium temperature, K	uncertainty
0.2651	267.71	0.19
0.387	281.91	0.19
0.4958	292.67	0.19
0.6269	306.7	0.19
0.7563	319.94	0.18
0.8788	330.92	0.18
1	341.68	0.16

System: 1,2-benzopyrone + 1-decyl-3-methylimidazolium bis(trifluoromethylsulfonyl)amide; phases: Liquid, Crystal
Fixed: Pressure, kPa = 100
Property: Solid-liquid equilibrium temperature, K (Liquid); method: VISOBS
Mole fraction of 1,2-benzopyrone	Solid-liquid equilibrium temperature, K	uncertainty
0.4034	276.24	0.21
0.4573	284.02	0.2
0.5092	289.27	0.2
0.5818	298.69	0.2
0.6544	307.49	0.19
0.7081	313.21	0.19
0.7695	320.32	0.19
0.8291	326.48	0.18
0.8906	332.36	0.18
1	341.68	0.16
