Measured thermophysical data. Liquid-liquid equilibrium for binary and ternary systems containing di-isopropyl ether (DIPE) and an imidazoliumbased ionic liquid at different temperatures
Source: Fluid Phase Equilib., 2010, 10.1016/j.fluid.2010.09.008
Compound 1: diisopropyl ether, C6H14O, InChI=1S/C6H14O/c1-5(2)7-6(3)4/h5-6H,1-4H3
Compound 2: 1-ethyl-3-methylimidazolium ethyl sulfate, C8H16N2O4S, InChI=1S/C6H11N2.C2H6O4S/c1-3-8-5-4-7(2)6-8;1-2-6-7(3,4)5/h4-6H,3H2,1-2H3;2H2,1H3,(H,3,4,5)/q+1;/p-1
Compound 3: 1-butyl-3-methylimidazolium tetrafluoroborate, C8H15BF4N2, InChI=1S/C8H15N2.BF4/c1-3-4-5-10-7-6-9(2)8-10;2-1(3,4)5/h6-8H,3-5H2,1-2H3;/q+1;-1
Compound 4: water, H2O, InChI=1S/H2O/h1H2

System: diisopropyl ether + 1-ethyl-3-methylimidazolium ethyl sulfate; phases: Liquid mixture 2, Liquid mixture 1
Fixed: Pressure, kPa = 101
Property: Mole fraction of diisopropyl ether (Liquid mixture 2); method: Residual mass after evaporation
Temperature, K	Mole fraction of diisopropyl ether	uncertainty
293.15	0.001	0.001
298.15	0.004	0.004
303.15	0.008	0.004
308.15	0.01	0.004
313.15	0.013	0.004

System: diisopropyl ether + 1-ethyl-3-methylimidazolium ethyl sulfate; phases: Liquid mixture 1, Liquid mixture 2
Fixed: Pressure, kPa = 101
Property: Mole fraction of diisopropyl ether (Liquid mixture 1); method: Residual mass after evaporation
Temperature, K	Mole fraction of diisopropyl ether	uncertainty
293.15	0.999	0.001
298.15	0.998	0.002
303.15	0.998	0.002
308.15	0.998	0.002
313.15	0.998	0.002

System: diisopropyl ether + 1-butyl-3-methylimidazolium tetrafluoroborate; phases: Liquid mixture 2, Liquid mixture 1
Fixed: Pressure, kPa = 101
Property: Mole fraction of diisopropyl ether (Liquid mixture 2); method: Residual mass after evaporation
Temperature, K	Mole fraction of diisopropyl ether	uncertainty
293.15	0.044	0.004
298.15	0.053	0.004
303.15	0.059	0.004
308.15	0.061	0.004
313.15	0.065	0.004

System: diisopropyl ether + 1-butyl-3-methylimidazolium tetrafluoroborate; phases: Liquid mixture 1, Liquid mixture 2
Fixed: Pressure, kPa = 101
Property: Mole fraction of diisopropyl ether (Liquid mixture 1); method: Residual mass after evaporation
Temperature, K	Mole fraction of diisopropyl ether	uncertainty
293.15	0.999	0.001
298.15	0.999	0.001
303.15	0.999	0.001
308.15	0.998	0.002
313.15	0.998	0.002

System: diisopropyl ether + water + 1-ethyl-3-methylimidazolium ethyl sulfate; phases: Liquid mixture 1, Liquid mixture 2
Fixed: Pressure, kPa = 101
Property: Mole fraction of diisopropyl ether (Liquid mixture 1); method: Chromatography
Property: Mole fraction of diisopropyl ether (Liquid mixture 2); method: Chromatography
Property: Mole fraction of water (Liquid mixture 2); method: Chromatography
Temperature, K	Mole fraction of water	Mole fraction of diisopropyl ether	uncertainty	Mole fraction of diisopropyl ether	uncertainty	Mole fraction of water	uncertainty
293.15	0.003	0.993	0.005	0.007	0.004	0.273	
293.15	0.005	0.991	0.005	0.007	0.004	0.428	
293.15	0.009	0.989	0.005	0.005	0.004	0.633	
293.15	0.011	0.987	0.005	0.003	0.003	0.793	
293.15	0.013	0.983	0.005	0.003	0.003	0.871	
293.15	0.016	0.981	0.006	0.003	0.003	0.929	
293.15	0.018	0.979	0.005	0.003	0.003	0.951	
293.15	0.022	0.976	0.005	0.004	0.004	0.972	
293.15	0.027	0.973	0.005	0.002	0.002	0.998	
303.15	0.003	0.993	0.005	0.021	0.004	0.251	
303.15	0.006	0.99	0.005	0.017	0.004	0.364	
303.15	0.008	0.987	0.006	0.014	0.004	0.442	
303.15	0.012	0.984	0.005	0.012	0.004	0.574	
303.15	0.015	0.981	0.006	0.009	0.004	0.643	
303.15	0.018	0.979	0.006	0.006	0.004	0.735	
303.15	0.02	0.975	0.005	0.004	0.004	0.791	
303.15	0.022	0.973	0.005	0.004	0.004	0.851	
303.15	0.023	0.97	0.005	0.003	0.003	0.883	
303.15	0.033	0.967	0.004	0.002	0.002	0.998	
313.15	0.006	0.987	0.005	0.02	0.004	0.195	
313.15	0.014	0.983	0.005	0.021	0.004	0.388	
313.15	0.017	0.978	0.005	0.027	0.004	0.461	
313.15	0.021	0.973	0.006	0.029	0.004	0.537	
313.15	0.029	0.967	0.006	0.016	0.004	0.713	
313.15	0.032	0.963	0.006	0.022	0.004	0.745	
313.15	0.038	0.957	0.006	0.013	0.004	0.823	
313.15	0.041	0.953	0.006	0.009	0.004	0.873	
313.15	0.039	0.961	0.004	0.003	0.003	0.997	

System: diisopropyl ether + water + 1-butyl-3-methylimidazolium tetrafluoroborate; phases: Liquid mixture 1, Liquid mixture 2
Fixed: Pressure, kPa = 101
Property: Mole fraction of diisopropyl ether (Liquid mixture 1); method: Chromatography
Property: Mole fraction of diisopropyl ether (Liquid mixture 2); method: Chromatography
Property: Mole fraction of water (Liquid mixture 2); method: Chromatography
Temperature, K	Mole fraction of water	Mole fraction of diisopropyl ether	uncertainty	Mole fraction of diisopropyl ether	uncertainty	Mole fraction of water	uncertainty
293.15	0.002	0.996	0.004	0.032	0.004	0.359	
293.15	0.006	0.993	0.005	0.026	0.004	0.54	
293.15	0.008	0.992	0.005	0.022	0.004	0.68	
293.15	0.011	0.989	0.006	0.018	0.004	0.801	
293.15	0.013	0.987	0.006	0.015	0.004	0.921	
293.15	0.027	0.973	0.006	0.002	0.002	0.998	
303.15	0.001	0.997	0.003	0.058	0.004	0.095	
303.15	0.004	0.995	0.005	0.052	0.004	0.252	
303.15	0.008	0.991	0.006	0.056	0.004	0.421	
303.15	0.01	0.989	0.006	0.044	0.004	0.605	
303.15	0.013	0.982	0.006	0.037	0.004	0.683	
303.15	0.016	0.98	0.007	0.03	0.004	0.787	
303.15	0.02	0.976	0.005	0.021	0.004	0.843	
303.15	0.022	0.974	0.005	0.018	0.004	0.875	
303.15	0.025	0.971	0.005	0.015	0.004	0.897	
303.15	0.033	0.967	0.005	0.002	0.002	0.998	
313.15	0.005	0.992	0.007	0.072	0.004	0.161	
313.15	0.008	0.986	0.005	0.076	0.004	0.24	
313.15	0.011	0.984	0.006	0.083	0.004	0.335	
313.15	0.015	0.982	0.006	0.079	0.004	0.454	
313.15	0.018	0.979	0.006	0.072	0.004	0.537	
313.15	0.02	0.974	0.006	0.072	0.004	0.596	
313.15	0.028	0.967	0.005	0.049	0.004	0.767	
313.15	0.039	0.961	0.005	0.003	0.003	0.997	
