Measured thermophysical data. Liquid-liquid equilibria of ternary mixtures of dimethyl carbonate, diphenyl carbonate, phenol  and water at 358.15 K
Source: Fluid Phase Equilib., 2011, 10.1016/j.fluid.2010.11.012
Compound 1: dimethyl carbonate, C3H6O3, InChI=1S/C3H6O3/c1-5-3(4)6-2/h1-2H3, purity 99.9%
Compound 2: water, H2O, InChI=1S/H2O/h1H2, purity 99.9%
Compound 3: diphenyl carbonate, C13H10O3, InChI=1S/C13H10O3/c14-13(15-11-7-3-1-4-8-11)16-12-9-5-2-6-10-12/h1-10H, purity 99.7%
Compound 4: phenol, C6H6O, InChI=1S/C6H6O/c7-6-4-2-1-3-5-6/h1-5,7H, purity 99.9%

System: diphenyl carbonate + dimethyl carbonate + water; phases: Liquid mixture 1, Liquid mixture 2
Fixed: Temperature, K = 358.15
Fixed: Pressure, kPa = 101
Property: Mole fraction of diphenyl carbonate (Liquid mixture 1); method: Chromatography
Property: Mole fraction of diphenyl carbonate (Liquid mixture 2); method: Chromatography
Property: Mole fraction of dimethyl carbonate (Liquid mixture 2); method: Chromatography
Mole fraction of dimethyl carbonate	Mole fraction of diphenyl carbonate	uncertainty	Mole fraction of diphenyl carbonate	uncertainty	Mole fraction of dimethyl carbonate	uncertainty
0.6231	0		0		0.0353	
0.5928	0.0671	0.0007	0.0001	0.0001	0.0269	
0.5595	0.1494	0.0012	0.0001	0.0001	0.0246	
0.4921	0.2843	0.0022	0.0002	0.0002	0.0171	
0.4019	0.4211	0.0033	0.0002	0.0002	0.0109	
0.2765	0.5849	0.0032	0.0002	0.0002	0.0064	
0.1515	0.7251	0.0021	0.0002	0.0002	0.0028	
0	0.8653	0.001	0.0001	0.0001	0	

System: phenol + dimethyl carbonate + water; phases: Liquid mixture 1, Liquid mixture 2
Fixed: Temperature, K = 358.15
Fixed: Pressure, kPa = 101
Property: Mole fraction of phenol (Liquid mixture 1); method: Chromatography
Property: Mole fraction of phenol (Liquid mixture 2); method: Chromatography
Property: Mole fraction of dimethyl carbonate (Liquid mixture 2); method: Chromatography
Mole fraction of dimethyl carbonate	Mole fraction of phenol	uncertainty	Mole fraction of phenol	uncertainty	Mole fraction of dimethyl carbonate	uncertainty
0.6231	0		0		0.0353	
0.4547	0.116	0.0009	0.0014	0.0002	0.0247	
0.3641	0.1636	0.0013	0.006	0.0003	0.0207	
0.2721	0.2148	0.0017	0.0098	0.0003	0.018	
0.1206	0.2526	0.002	0.0184	0.0004	0.01	
0.0452	0.2395	0.0019	0.035	0.0005	0.0023	

System: diphenyl carbonate + phenol + water; phases: Liquid mixture 2, Liquid mixture 1
Fixed: Pressure, kPa = 101
Fixed: Temperature, K = 358.15
Property: Mole fraction of diphenyl carbonate (Liquid mixture 2); method: Chromatography
Property: Mole fraction of phenol (Liquid mixture 1); method: Chromatography
Property: Mole fraction of diphenyl carbonate (Liquid mixture 1); method: Chromatography
Mole fraction of phenol	Mole fraction of diphenyl carbonate	uncertainty	Mole fraction of phenol	uncertainty	Mole fraction of diphenyl carbonate	uncertainty
0	0.0001	0.0001	0		0.8653	
0.0002	0.0006	0.0005	0.0757	0.0006	0.7506	
0.003	0.0007	0.0002	0.177	0.0014	0.5937	
0.0044	0.0007	0.0002	0.2664	0.0021	0.4008	
0.0065	0.0004	0.0002	0.3155	0.0024	0.2914	
0.0131	0.0005	0.0002	0.3607	0.0028	0.151	
0.0166	0.0002	0.0002	0.3674	0.0028	0.0454	
