Measured thermophysical data. Equilibrium solubility of carbon dioxide in aqueous potassium Lasparaginate and potassium L-glutaminate solutions
Source: Fluid Phase Equilib., 2015, 10.1016/j.fluid.2015.04.023
Compound 1: carbon dioxide, CO2, InChI=1S/CO2/c2-1-3, purity 99.99%
Compound 2: potassium Salt of sarcosine, C3H6KNO2, InChI=1S/C3H7NO2.K/c1-4-2-3(5)6;/h4H,2H2,1H3,(H,5,6);/q;+1/p-1, purity 98%
Compound 3: potassium L-asparaginate, C4H7KN2O3, InChI=1S/C4H8N2O3.K/c5-2(4(8)9)1-3(6)7;/h2H,1,5H2,(H2,6,7)(H,8,9);/q;+1/p-1/t2-;/m0./s1, purity 99%
Compound 4: potassium L-glutaminate, C5H9KN2O3, InChI=1S/C5H10N2O3.K/c6-3(5(9)10)1-2-4(7)8;/h3H,1-2,6H2,(H2,7,8)(H,9,10);/q;+1/p-1/t3-;/m0./s1, purity 99%
Compound 5: water, H2O, InChI=1S/H2O/h1H2

System: carbon dioxide + water + potassium Salt of sarcosine; phases: Liquid, Gas
Fixed: Temperature, K = 353.2
Fixed: Solvent: Mass fraction of potassium Salt of sarcosine = 0.509
Property: Amount ratio of solute to solvent of carbon dioxide (Liquid); method: Potentiometric titration w/ BaCl2
Pressure, kPa of carbon dioxide	Amount ratio of solute to solvent of carbon dioxide	uncertainty
4.6	0.41	0.03
21.5	0.52	0.03
72.7	0.6	0.04
143.5	0.65	0.04
245.7	0.69	0.04
345.5	0.72	0.04
456.3	0.75	0.05
574.8	0.77	0.05
642.2	0.79	0.05
753.4	0.81	0.05
865.4	0.82	0.05
950.6	0.83	0.05

System: carbon dioxide + water + potassium L-asparaginate; phases: Liquid, Gas
Property: Mass ratio of solute to solvent of carbon dioxide (Liquid); method: potentiometric titration with BaCl2
Temperature, K	Solvent: Mass fraction of potassium L-asparaginate	Pressure, kPa of carbon dioxide	Mass ratio of solute to solvent of carbon dioxide	uncertainty
313.2	0.085	8.2	0.69	0.04
313.2	0.085	25.1	0.79	0.05
313.2	0.085	74.5	0.91	0.05
313.2	0.085	147.1	1	0.01
313.2	0.085	243.5	1.06	0.06
313.2	0.085	347.2	1.1	0.07
313.2	0.085	440.9	1.15	0.07
313.2	0.085	556.4	1.17	0.07
313.2	0.085	648.5	1.19	0.07
313.2	0.085	851.6	1.22	0.07
333.2	0.085	9.7	0.59	0.04
333.2	0.085	18.9	0.65	0.04
333.2	0.085	53.5	0.75	0.05
333.2	0.085	78.2	0.83	0.05
333.2	0.085	134.2	0.89	0.05
333.2	0.085	245.3	0.95	0.05
333.2	0.085	334.9	1	0.01
333.2	0.085	462.4	1.04	0.06
333.2	0.085	564.2	1.07	0.06
333.2	0.085	661.2	1.09	0.07
333.2	0.085	860.3	1.12	0.07
353.2	0.085	7.4	0.43	0.03
353.2	0.085	35.3	0.58	0.04
353.2	0.085	80.2	0.71	0.04
353.2	0.085	167.4	0.81	0.05
353.2	0.085	231.7	0.86	0.05
353.2	0.085	345.5	0.89	0.05
353.2	0.085	440.9	0.94	0.06
353.2	0.085	568.4	0.96	0.04
353.2	0.085	639	0.98	0.02
353.2	0.085	742.7	1	0.01
353.2	0.085	851.6	1.02	0.06
313.2	0.17	7.3	0.52	0.03
313.2	0.17	31.4	0.64	0.04
313.2	0.17	81.5	0.76	0.05
313.2	0.17	132.2	0.83	0.05
313.2	0.17	241.3	0.9	0.05
313.2	0.17	354.2	0.94	0.06
313.2	0.17	445.3	0.97	0.03
313.2	0.17	548.6	1	0.01
313.2	0.17	650.3	1.03	0.06
313.2	0.17	865.1	1.06	0.06
333.2	0.17	10.2	0.44	0.03
333.2	0.17	36.8	0.53	0.03
333.2	0.17	78	0.6	0.04
333.2	0.17	144.8	0.69	0.04
333.2	0.17	257.5	0.78	0.05
333.2	0.17	362.5	0.83	0.05
333.2	0.17	442.9	0.87	0.05
333.2	0.17	554.7	0.9	0.05
333.2	0.17	661.2	0.92	0.06
333.2	0.17	851.7	0.95	0.05
353.2	0.17	8.6	0.25	0.02
353.2	0.17	37.6	0.38	0.02
353.2	0.17	84	0.48	0.03
353.2	0.17	165.2	0.59	0.04
353.2	0.17	245.4	0.63	0.04
353.2	0.17	349.5	0.67	0.04
353.2	0.17	448.8	0.71	0.04
353.2	0.17	534.5	0.76	0.05
353.2	0.17	651.7	0.78	0.05
353.2	0.17	747.6	0.8	0.05
353.2	0.17	855.1	0.83	0.05
313.2	0.34	30.6	0.45	0.03
313.2	0.34	70.2	0.54	0.03
313.2	0.34	135.5	0.6	0.04
313.2	0.34	248.6	0.67	0.04
313.2	0.34	361.5	0.71	0.04
313.2	0.34	461.5	0.73	0.04
313.2	0.34	552.6	0.76	0.05
313.2	0.34	642.4	0.79	0.05
313.2	0.34	843.9	0.81	0.05
313.2	0.34	951.2	0.82	0.05
333.2	0.34	7.2	0.22	0.01
333.2	0.34	30.6	0.32	0.02
333.2	0.34	72.5	0.42	0.03
333.2	0.34	140.1	0.47	0.03
333.2	0.34	254.5	0.54	0.03
333.2	0.34	355.9	0.58	0.04
333.2	0.34	457.2	0.61	0.04
333.2	0.34	556.4	0.65	0.04
333.2	0.34	646.2	0.67	0.04
333.2	0.34	843.9	0.69	0.04
353.2	0.34	24.9	0.17	0.01
353.2	0.34	81.2	0.28	0.02
353.2	0.34	143.7	0.35	0.02
353.2	0.34	248	0.4	0.03
353.2	0.34	357.3	0.46	0.03
353.2	0.34	451.3	0.5	0.03
353.2	0.34	547.7	0.52	0.03
353.2	0.34	650.3	0.55	0.03
353.2	0.34	748.9	0.57	0.03
353.2	0.34	854.6	0.6	0.04

System: carbon dioxide + water + potassium L-glutaminate; phases: Liquid, Gas
Property: Mass ratio of solute to solvent of carbon dioxide (Liquid); method: potentiometric titration with BaCl2
Temperature, K	Solvent: Mass fraction of potassium L-glutaminate	Pressure, kPa of carbon dioxide	Mass ratio of solute to solvent of carbon dioxide	uncertainty
313.2	0.092	8.6	0.71	0.04
313.2	0.092	15.5	0.77	0.05
313.2	0.092	26.3	0.88	0.05
313.2	0.092	72.8	1.05	0.06
313.2	0.092	142.5	1.14	0.07
313.2	0.092	238.1	1.22	0.07
313.2	0.092	345	1.3	0.08
313.2	0.092	449.8	1.34	0.08
313.2	0.092	550.1	1.39	0.08
313.2	0.092	659.2	1.4	0.08
313.2	0.092	855.2	1.44	0.09
333.2	0.092	9.4	0.68	0.04
333.2	0.092	19.2	0.75	0.05
333.2	0.092	36.2	0.84	0.05
333.2	0.092	77.2	0.95	0.05
333.2	0.092	133.6	1.05	0.06
333.2	0.092	236.8	1.15	0.07
333.2	0.092	346	1.19	0.07
333.2	0.092	449.8	1.24	0.07
333.2	0.092	541.4	1.3	0.08
333.2	0.092	653.7	1.33	0.08
333.2	0.092	852.2	1.37	0.08
353.2	0.092	7.4	0.52	0.03
353.2	0.092	17.9	0.61	0.04
353.2	0.092	38.4	0.74	0.04
353.2	0.092	74.7	0.83	0.05
353.2	0.092	146.3	0.97	0.03
353.2	0.092	232.9	1.04	0.06
353.2	0.092	342.1	1.1	0.07
353.2	0.092	430.3	1.16	0.07
353.2	0.092	534.1	1.19	0.07
353.2	0.092	639.6	1.22	0.07
353.2	0.092	850.1	1.26	0.08
313.2	0.184	9.2	0.69	0.04
313.2	0.184	23.4	0.78	0.05
313.2	0.184	51.6	0.88	0.05
313.2	0.184	85.5	0.98	0.02
313.2	0.184	129.3	1.06	0.06
313.2	0.184	239.8	1.14	0.07
313.2	0.184	333.4	1.19	0.07
313.2	0.184	444.1	1.22	0.07
313.2	0.184	546.4	1.27	0.08
313.2	0.184	665.7	1.29	0.08
313.2	0.184	756.1	1.33	0.08
313.2	0.184	871.4	1.35	0.08
333.2	0.184	8.4	0.63	0.04
333.2	0.184	22.1	0.71	0.04
333.2	0.184	60.6	0.85	0.05
333.2	0.184	121.7	0.95	0.05
333.2	0.184	252.6	1.05	0.06
333.2	0.184	331.1	1.09	0.07
333.2	0.184	445.3	1.12	0.07
333.2	0.184	551.1	1.18	0.07
333.2	0.184	648.4	1.21	0.07
333.2	0.184	741.4	1.23	0.07
333.2	0.184	842.2	1.26	0.08
353.2	0.184	5.1	0.39	0.02
353.2	0.184	25.8	0.58	0.04
353.2	0.184	60.5	0.72	0.04
353.2	0.184	170.4	0.85	0.05
353.2	0.184	252.5	0.91	0.05
353.2	0.184	336.6	0.95	0.05
353.2	0.184	453.7	1.01	0.06
353.2	0.184	543.4	1.04	0.06
353.2	0.184	648.5	1.06	0.06
353.2	0.184	767.3	1.12	0.07
353.2	0.184	852.6	1.13	0.07
313.2	0.368	8.3	0.55	0.03
313.2	0.368	14.2	0.63	0.04
313.2	0.368	28.1	0.71	0.04
313.2	0.368	76.2	0.83	0.05
313.2	0.368	138.7	0.95	0.05
313.2	0.368	254.7	1.03	0.06
313.2	0.368	362.1	1.06	0.06
313.2	0.368	454.2	1.1	0.07
313.2	0.368	542.4	1.14	0.07
313.2	0.368	663.4	1.16	0.07
313.2	0.368	844.9	1.19	0.07
333.2	0.368	6.2	0.38	0.02
333.2	0.368	17.4	0.49	0.03
333.2	0.368	35.2	0.57	0.03
333.2	0.368	70.5	0.68	0.04
333.2	0.368	137.4	0.78	0.05
333.2	0.368	245.9	0.84	0.05
333.2	0.368	349.5	0.86	0.05
333.2	0.368	450.2	0.92	0.06
333.2	0.368	551.2	0.95	0.05
333.2	0.368	653.5	0.99	0.01
333.2	0.368	854.9	1.01	0.06
353.2	0.368	7.5	0.28	0.02
353.2	0.368	18.1	0.37	0.02
353.2	0.368	37.2	0.41	0.03
353.2	0.368	78.5	0.5	0.03
353.2	0.368	160.7	0.59	0.04
353.2	0.368	245.7	0.65	0.04
353.2	0.368	348.9	0.7	0.04
353.2	0.368	448.6	0.72	0.04
353.2	0.368	549.4	0.76	0.05
353.2	0.368	657.5	0.79	0.05
353.2	0.368	852.4	0.82	0.05
