Measured thermophysical data. Volumetric investigation of the ternary system ethanol + dimethylformamide + cyclohexane at 298.15 K
Source: Fluid Phase Equilib., 2014, 10.1016/j.fluid.2014.01.046
Compound 1: ethanol, C2H6O, InChI=1S/C2H6O/c1-2-3/h3H,2H2,1H3, purity 99.9%
Compound 2: dimethylformamide, C3H7NO, InChI=1S/C3H7NO/c1-4(2)3-5/h3H,1-2H3, purity 99.5%
Compound 3: cyclohexane, C6H12, InChI=1S/C6H12/c1-2-4-6-5-3-1/h1-6H2, purity 99.5%

System: ethanol; phases: Liquid
Property: Mass density, kg/m3 (Liquid); method: Vibrating tube method
Temperature, K	Pressure, kPa	Mass density, kg/m3	uncertainty
298.15	101.325	785.106	2.005

System: dimethylformamide; phases: Liquid
Property: Mass density, kg/m3 (Liquid); method: Vibrating tube method
Temperature, K	Pressure, kPa	Mass density, kg/m3	uncertainty
298.15	101.325	943.827	2.005

System: cyclohexane; phases: Liquid
Property: Mass density, kg/m3 (Liquid); method: Vibrating tube method
Temperature, K	Pressure, kPa	Mass density, kg/m3	uncertainty
298.15	101.325	773.814	2.007

System: dimethylformamide + cyclohexane; phases: Liquid
Fixed: Pressure, kPa = 101
Fixed: Temperature, K = 298.15
Property: Mass density, kg/m3 (Liquid); method: Vibrating tube method
Mole fraction of dimethylformamide	Mass density, kg/m3	uncertainty
0.0013	773.912	2.007
0.0032	774.059	2.007
0.00735	774.39	2.007
0.00767	774.433	2.007
0.0142	774.963	2.007
0.0191	775.4	2.007
0.0404	777.361	2.007
0.05	778.28	2.007
0.05	778.287	2.007
0.05	778.289	2.007
0.0554	778.816	2.007
0.8496	906.747	2.007
0.8504	906.951	2.007
0.8533	907.513	2.007
0.8999	918.584	2.008
0.9245	924.576	2.008
0.969	935.786	2.008

System: ethanol + dimethylformamide + cyclohexane; phases: Liquid
Fixed: Pressure, kPa = 101
Fixed: Temperature, K = 298.15
Property: Mass density, kg/m3 (Liquid); method: Vibrating tube method
Mole fraction of ethanol	Mole fraction of dimethylformamide	Mass density, kg/m3	uncertainty
0.00111	0.0499	778.261	2.007
0.00328	0.0498	778.243	2.007
0.00919	0.0495	778.178	2.007
0.0175	0.0491	778.103	2.007
0.0306	0.0485	778	2.007
0.1018	0.0449	777.491	2.007
0.178	0.0411	777.161	2.007
0.2815	0.0359	776.765	2.006
0.4396	0.028	776.561	2.006
0.0646	0.0934	783.072	2.007
0.1154	0.0884	782.698	2.007
0.1866	0.0813	782.191	2.007
0.3841	0.0615	781.025	2.007
0.1591	0.168	793.596	2.007
0.3501	0.1305	791.018	2.006
0.5272	0.0944	788.649	2.007
0.726	0.0547	786.402	2.007
0.8515	0.0297	785.391	2.008
0.9411	0.0118	785.062	2.008
0.2409	0.3037	816.328	2.007
0.2589	0.2961	815.661	2.007
0.3224	0.2711	813.669	2.007
0.4419	0.2233	809.567	2.007
0.5766	0.1694	804.571	2.007
0.6994	0.1201	799.531	2.007
0.8017	0.0792	794.989	2.007
0.9156	0.0337	789.497	2.008
0.3318	0.3318	825.107	2.007
0.4462	0.275	819.742	2.007
0.0757	0.0084	775.299	2.007
0.139	0.0154	776.693	2.006
0.2397	0.0266	779.828	2.007
0.3595	0.0399	782.598	2.006
0.0774	0.8303	911.348	2.008
0.1977	0.722	899.332	2.008
0.3335	0.5998	884.539	2.008
0.4529	0.4924	870.331	2.007
0.0094	0.0626	779.526	2.007
0.0096	0.0339	776.617	2.007
0.0099	0.0101	774.375	2.007
0.0187	0.0655	779.821	2.007
0.0197	0.0163	774.785	2.007
0.0368	0.0695	780.233	2.007
0.0379	0.0411	777.182	2.007
0.0387	0.0207	775.057	2.007
0.0461	0.0778	781.174	2.007
0.0477	0.046	777.657	2.007
0.0492	0.0151	774.41	2.007
0.0655	0.0638	779.645	2.007
0.0675	0.0356	776.505	2.007
0.0699	0.0015	772.815	2.007
0.0886	0.113	785.594	2.007
0.0894	0.1062	784.759	2.007
0.0929	0.0701	780.412	2.007
0.0937	0.0624	779.518	2.007
0.0946	0.0537	778.513	2.007
0.0968	0.0311	775.939	2.007
0.0978	0.0224	774.956	2.007
0.0995	0.0053	773.036	2.011
0.0998	0.0019	772.648	2.007
0.0265	0.8676	914.166	2.008
0.0399	0.8006	899.973	2.008
0.181	0.0949	783.949	2.007
0.1947	0.0265	775.32	2.007
0.1984	0.0079	773.005	2.007
0.1993	0.0037	772.479	2.007
0.1997	0.0014	772.196	2.01
0.0166	0.9668	937.645	2.009
0.0171	0.9657	937.428	2.009
0.0508	0.8984	924.916	2.008
0.1259	0.7483	897.331	2.008
0.2367	0.5268	858.067	2.007
0.3228	0.3541	828.859	2.007
0.3734	0.253	812.308	2.007
0.4272	0.1452	795.104	2.007
0.4588	0.0824	785.261	2.007
0.4703	0.0591	781.665	2.006
0.4887	0.0227	776.078	2.007
0.2662	0.7198	907.701	2.008
0.5076	0.4657	869.541	2.008
0.6227	0.3445	849.262	2.007
0.7349	0.2265	828.041	2.008
0.9314	0.0376	791.503	2.008
0.9502	0.0181	787.299	2.008
0.082	0.7388	890.322	2.008
0.0899	0.8097	907.845	2.008
0.0922	0.8309	913.335	2.008
0.0948	0.853	919.253	2.008
0.0971	0.8746	925.099	2.008
0.164	0.656	879.909	2.008
0.1758	0.7031	892.117	2.008
0.1897	0.7586	907.649	2.008
0.1945	0.7781	913.38	2.008
0.2438	0.3659	827.254	2.007
0.2972	0.446	845.639	2.007
0.338	0.5073	862.369	2.007
0.3727	0.5594	878.737	2.007
0.3889	0.5837	887.067	2.008
0.1456	0.0966	783.899	2.007
0.2568	0.1704	795.537	2.007
0.3482	0.231	807.599	2.007
0.4058	0.2692	816.749	2.007
0.4067	0.2711	817.098	2.007
0.4716	0.3144	829.431	2.007
0.5279	0.3519	842.222	2.007
0.5611	0.3741	850.853	2.007
0.1334	0.035	776.306	2.006
0.2975	0.0745	782.089	2.007
0.426	0.1067	788.697	2.007
0.5549	0.139	797.694	2.007
0.659	0.1651	807.579	2.007
0.7412	0.1857	817.783	2.007
