Measured thermophysical data. Bubble points of some binary mixtures formed by o-cresol at 95.75 kPa
Source: Fluid Phase Equilib., 2005, 10.1016/j.fluid.2005.09.012
Compound 1: 2-methylphenol, C7H8O, InChI=1S/C7H8O/c1-6-4-2-3-5-7(6)8/h2-5,8H,1H3
Compound 2: 1,2-dichloroethane, C2H4Cl2, InChI=1S/C2H4Cl2/c3-1-2-4/h1-2H2
Compound 3: 1,1,2,2-tetrachloroethane, C2H2Cl4, InChI=1S/C2H2Cl4/c3-1(4)2(5)6/h1-2H
Compound 4: trichloroethene, C2HCl3, InChI=1S/C2HCl3/c3-1-2(4)5/h1H
Compound 5: tetrachloroethene, C2Cl4, InChI=1S/C2Cl4/c3-1(4)2(5)6
Compound 6: 1,2-dimethylbenzene, C8H10, InChI=1S/C8H10/c1-7-5-3-4-6-8(7)2/h3-6H,1-2H3
Compound 7: 1,3-dimethylbenzene, C8H10, InChI=1S/C8H10/c1-7-4-3-5-8(2)6-7/h3-6H,1-2H3
Compound 8: 1,4-dimethylbenzene, C8H10, InChI=1S/C8H10/c1-7-3-5-8(2)6-4-7/h3-6H,1-2H3
Compound 9: heptane, C7H16, InChI=1S/C7H16/c1-3-5-7-6-4-2/h3-7H2,1-2H3

System: 2-methylphenol; phases: Liquid
Property: Refractive index (Na D-line) (Liquid); method: ABBE:UFactor:4
Temperature, K	Pressure, kPa	Refractive index (Na D-line)	uncertainty
293.15	101.325	1.5467	0.0017

System: 2-methylphenol; phases: Liquid
Property: Mass density, kg/m3 (Liquid); method: PYCNOM:UFactor:8
Temperature, K	Pressure, kPa	Mass density, kg/m3	uncertainty
293.15	101.325	1046	2.7

System: 2-methylphenol; phases: Liquid, Gas
Property: Vapor or sublimation pressure, kPa (Liquid); method: EBULLIO:UFactor:64
Temperature, K	Vapor or sublimation pressure, kPa	uncertainty
461.85	95.75	9.62

System: 1,2-dichloroethane; phases: Liquid
Property: Refractive index (Na D-line) (Liquid); method: ABBE:UFactor:4
Temperature, K	Pressure, kPa	Refractive index (Na D-line)	uncertainty
293.15	101.325	1.4196	0.0017

System: 1,2-dichloroethane; phases: Liquid
Property: Mass density, kg/m3 (Liquid); method: PYCNOM:UFactor:8
Temperature, K	Pressure, kPa	Mass density, kg/m3	uncertainty
293.15	101.325	1252.9	3.4

System: 1,2-dichloroethane; phases: Liquid, Gas
Property: Vapor or sublimation pressure, kPa (Liquid); method: EBULLIO:UFactor:64
Temperature, K	Vapor or sublimation pressure, kPa	uncertainty
355.25	95.75	9

System: 1,1,2,2-tetrachloroethane; phases: Liquid
Property: Refractive index (Na D-line) (Liquid); method: ABBE:UFactor:4
Temperature, K	Pressure, kPa	Refractive index (Na D-line)	uncertainty
293.15	101.325	1.494	0.0017

System: 1,1,2,2-tetrachloroethane; phases: Liquid
Property: Mass density, kg/m3 (Liquid); method: PYCNOM:UFactor:8
Temperature, K	Pressure, kPa	Mass density, kg/m3	uncertainty
293.15	101.325	1593	4.5

System: 1,1,2,2-tetrachloroethane; phases: Liquid, Gas
Property: Vapor or sublimation pressure, kPa (Liquid); method: EBULLIO:UFactor:64
Temperature, K	Vapor or sublimation pressure, kPa	uncertainty
417.35	95.75	9

System: trichloroethene; phases: Liquid
Property: Refractive index (Na D-line) (Liquid); method: ABBE:UFactor:4
Temperature, K	Pressure, kPa	Refractive index (Na D-line)	uncertainty
293.15	101.325	1.4782	0.0017

System: trichloroethene; phases: Liquid
Property: Mass density, kg/m3 (Liquid); method: PYCNOM:UFactor:8
Temperature, K	Pressure, kPa	Mass density, kg/m3	uncertainty
293.15	101.325	1464	4.1

System: trichloroethene; phases: Liquid, Gas
Property: Vapor or sublimation pressure, kPa (Liquid); method: EBULLIO:UFactor:128
Temperature, K	Vapor or sublimation pressure, kPa	uncertainty
357.95	95.75	9

System: tetrachloroethene; phases: Liquid
Property: Refractive index (Na D-line) (Liquid); method: ABBE:UFactor:4
Temperature, K	Pressure, kPa	Refractive index (Na D-line)	uncertainty
293.15	101.325	1.505	0.0017

System: tetrachloroethene; phases: Liquid
Property: Mass density, kg/m3 (Liquid); method: PYCNOM:UFactor:8
Temperature, K	Pressure, kPa	Mass density, kg/m3	uncertainty
293.15	101.325	1625	4.6

System: tetrachloroethene; phases: Liquid, Gas
Property: Vapor or sublimation pressure, kPa (Liquid); method: EBULLIO:UFactor:64
Temperature, K	Vapor or sublimation pressure, kPa	uncertainty
392.25	95.75	9

System: 1,2-dimethylbenzene; phases: Liquid
Property: Refractive index (Na D-line) (Liquid); method: ABBE:UFactor:4
Temperature, K	Pressure, kPa	Refractive index (Na D-line)	uncertainty
293.15	101.325	1.5055	0.0017

System: 1,2-dimethylbenzene; phases: Liquid
Property: Mass density, kg/m3 (Liquid); method: PYCNOM:UFactor:8
Temperature, K	Pressure, kPa	Mass density, kg/m3	uncertainty
293.15	101.325	880.1	2.2

System: 1,2-dimethylbenzene; phases: Liquid, Gas
Property: Vapor or sublimation pressure, kPa (Liquid); method: EBULLIO:UFactor:64
Temperature, K	Vapor or sublimation pressure, kPa	uncertainty
415.55	95.75	9

System: 1,3-dimethylbenzene; phases: Liquid
Property: Refractive index (Na D-line) (Liquid); method: ABBE:UFactor:4
Temperature, K	Pressure, kPa	Refractive index (Na D-line)	uncertainty
293.15	101.325	1.4972	0.0017

System: 1,3-dimethylbenzene; phases: Liquid
Property: Mass density, kg/m3 (Liquid); method: PYCNOM:UFactor:8
Temperature, K	Pressure, kPa	Mass density, kg/m3	uncertainty
293.15	101.325	864.4	2.1

System: 1,3-dimethylbenzene; phases: Liquid, Gas
Property: Vapor or sublimation pressure, kPa (Liquid); method: EBULLIO:UFactor:64
Temperature, K	Vapor or sublimation pressure, kPa	uncertainty
410.35	95.75	9

System: 1,4-dimethylbenzene; phases: Liquid
Property: Refractive index (Na D-line) (Liquid); method: ABBE:UFactor:4
Temperature, K	Pressure, kPa	Refractive index (Na D-line)	uncertainty
293.15	101.325	1.4858	0.0017

System: 1,4-dimethylbenzene; phases: Liquid
Property: Mass density, kg/m3 (Liquid); method: PYCNOM:UFactor:8
Temperature, K	Pressure, kPa	Mass density, kg/m3	uncertainty
293.15	101.325	861	2.1

System: 1,4-dimethylbenzene; phases: Liquid, Gas
Property: Vapor or sublimation pressure, kPa (Liquid); method: EBULLIO:UFactor:64
Temperature, K	Vapor or sublimation pressure, kPa	uncertainty
409.35	95.75	9

System: heptane; phases: Liquid
Property: Refractive index (Na D-line) (Liquid); method: ABBE:UFactor:4
Temperature, K	Pressure, kPa	Refractive index (Na D-line)	uncertainty
293.15	101.325	1.3876	0.0017

System: heptane; phases: Liquid
Property: Mass density, kg/m3 (Liquid); method: PYCNOM:UFactor:8
Temperature, K	Pressure, kPa	Mass density, kg/m3	uncertainty
293.15	101.325	683.8	1.5

System: heptane; phases: Liquid, Gas
Property: Vapor or sublimation pressure, kPa (Liquid); method: EBULLIO:UFactor:64
Temperature, K	Vapor or sublimation pressure, kPa	uncertainty
369.75	95.75	9

System: 2-methylphenol + 1,2-dichloroethane; phases: Liquid, Gas
Fixed: Pressure, kPa = 95.75
Property: Boiling temperature at pressure P, K (Liquid); method: EBULLIO:UFactor:64
Mole fraction of 1,2-dichloroethane	Boiling temperature at pressure P, K	uncertainty
0	461.85	2.03
0.0503	437.45	2.03
0.1002	421.75	2.03
0.1551	410.95	2.03
0.1957	403.65	2.03
0.3004	391.45	2.03
0.3782	384.85	2.03
0.5002	376.45	2.03
0.595	371.25	2.03
0.7003	366.25	2.03
0.786	362.75	2.03
0.9007	358.55	2.03
0.9505	356.75	2.03
1	355.25	2.03

System: trichloroethene + 2-methylphenol; phases: Liquid, Gas
Fixed: Pressure, kPa = 95.75
Property: Boiling temperature at pressure P, K (Liquid); method: EBULLIO:UFactor:128
Mole fraction of trichloroethene	Boiling temperature at pressure P, K	uncertainty
0	461.85	4.05
0.0511	438.85	4.05
0.1003	422.55	4.05
0.17	408.25	4.05
0.2501	397.35	4.05
0.3002	384.95	4.05
0.391	378.25	4.05
0.5002	373.65	4.05
0.5902	368.75	4.05
0.7002	364.45	4.05
0.812	361.25	4.05
0.9006	361.25	4.05
0.9514	359.85	4.05
1	357.95	4.05

System: 1,2-dimethylbenzene + 2-methylphenol; phases: Liquid, Gas
Fixed: Pressure, kPa = 95.75
Property: Boiling temperature at pressure P, K (Liquid); method: EBULLIO:UFactor:64
Mole fraction of 1,2-dimethylbenzene	Boiling temperature at pressure P, K	uncertainty
0	461.85	2.03
0.0516	454.15	2.03
0.1003	451.15	2.03
0.151	448.75	2.03
0.199	446.55	2.03
0.3002	442.05	2.03
0.413	437.95	2.03
0.5002	433.35	2.03
0.612	428.85	2.03
0.7003	425.45	2.03
0.8255	421.05	2.03
0.9007	418.55	2.03
0.9513	416.85	2.03
1	415.55	2.03

System: 2-methylphenol + 1,4-dimethylbenzene; phases: Liquid, Gas
Fixed: Pressure, kPa = 95.75
Property: Boiling temperature at pressure P, K (Liquid); method: EBULLIO:UFactor:64
Mole fraction of 1,4-dimethylbenzene	Boiling temperature at pressure P, K	uncertainty
0	461.85	2.03
0.0503	454.95	2.03
0.1007	448.95	2.03
0.1505	443.85	2.03
0.1902	440.15	2.03
0.3004	431.75	2.03
0.412	425.05	2.03
0.5007	420.85	2.03
0.6112	416.65	2.03
0.7012	413.95	2.03
0.8252	411.35	2.03
0.9001	410.25	2.03
0.9505	409.65	2.03
1	409.35	2.03

System: 1,1,2,2-tetrachloroethane + 2-methylphenol; phases: Liquid, Gas
Fixed: Pressure, kPa = 95.75
Property: Boiling temperature at pressure P, K (Liquid); method: EBULLIO:UFactor:64
Mole fraction of 1,1,2,2-tetrachloroethane	Boiling temperature at pressure P, K	uncertainty
0	461.85	2.03
0.051	456.75	2.03
0.1007	452.25	2.03
0.1612	447.45	2.03
0.215	443.65	2.03
0.3007	438.45	2.03
0.3889	433.85	2.03
0.5503	429.25	2.03
0.612	425.45	2.03
0.7006	423.05	2.03
0.786	421.15	2.03
0.9003	418.95	2.03
0.9506	418.05	2.03
1	417.35	2.03

System: 2-methylphenol + tetrachloroethene; phases: Liquid, Gas
Fixed: Pressure, kPa = 95.75
Property: Boiling temperature at pressure P, K (Liquid); method: EBULLIO:UFactor:64
Mole fraction of tetrachloroethene	Boiling temperature at pressure P, K	uncertainty
0	461.85	2.03
0.0504	446.55	2.03
0.1007	436.35	2.03
0.1515	429.05	2.03
0.2199	422.05	2.03
0.3002	416.25	2.03
0.3969	411.25	2.03
0.5002	407.05	2.03
0.5872	404.05	2.03
0.7004	400.65	2.03
0.7914	398.05	2.03
0.9007	394.95	2.03
0.9511	393.65	2.03
1	392.25	2.03

System: 2-methylphenol + 1,3-dimethylbenzene; phases: Liquid, Gas
Fixed: Pressure, kPa = 95.75
Property: Boiling temperature at pressure P, K (Liquid); method: EBULLIO:UFactor:64
Mole fraction of 1,3-dimethylbenzene	Boiling temperature at pressure P, K	uncertainty
0	461.85	2.03
0.0511	458.45	2.03
0.1004	455.25	2.03
0.1503	452.05	2.03
0.1899	449.65	2.03
0.3002	443.05	2.03
0.413	436.65	2.03
0.5002	431.95	2.03
0.612	426.35	2.03
0.7003	422.25	2.03
0.8255	416.75	2.03
0.9007	413.85	2.03
0.9506	412.05	2.03
1	410.35	2.03

System: 2-methylphenol + heptane; phases: Liquid, Gas
Fixed: Pressure, kPa = 95.75
Property: Boiling temperature at pressure P, K (Liquid); method: EBULLIO:UFactor:64
Mole fraction of heptane	Boiling temperature at pressure P, K	uncertainty
0	461.85	2.03
0.0513	447.85	2.03
0.1004	436.95	2.03
0.1551	427.05	2.03
0.207	419.25	2.03
0.3004	407.75	2.03
0.396	398.45	2.03
0.5002	390.25	2.03
0.6133	383.05	2.03
0.7002	378.45	2.03
0.7982	374.15	2.03
0.9002	371.05	2.03
0.9502	370.15	2.03
1	369.75	2.03
