Measured thermophysical data. Influence of the molecular structure on the viscosity of some alkoxyethanols
Source: Fluid Phase Equilib., 2005, 10.1016/j.fluid.2005.02.009
Compound 1: 2-methoxyethan-1-ol, C3H8O2, InChI=1S/C3H8O2/c1-5-3-2-4/h4H,2-3H2,1H3
Compound 2: 2-ethoxyethan-1-ol, C4H10O2, InChI=1S/C4H10O2/c1-2-6-4-3-5/h5H,2-4H2,1H3
Compound 3: 2-isopropoxyethanol, C5H12O2, InChI=1S/C5H12O2/c1-5(2)7-4-3-6/h5-6H,3-4H2,1-2H3

System: 2-methoxyethan-1-ol; phases: Liquid
Property: Viscosity, Pa*s (Liquid); method: SPHERE:UFactor:4
Temperature, K	Pressure, kPa	Viscosity, Pa*s	uncertainty
293.15	20000	0.001948	9.6e-05
293.15	40000	0.002186	0.000108
293.15	60000	0.002426	0.00012
293.15	80000	0.002659	0.000131
293.15	100000	0.002878	0.000142
303.15	20000	0.001583	7.8e-05
303.15	40000	0.001777	8.8e-05
303.15	60000	0.001977	9.8e-05
303.15	80000	0.002176	0.000107
303.15	100000	0.002367	0.000117
313.15	20000	0.001339	6.6e-05
313.15	40000	0.001489	7.3e-05
313.15	60000	0.001647	8.1e-05
313.15	80000	0.001814	8.9e-05
313.15	100000	0.001988	9.8e-05
323.15	20000	0.001135	5.6e-05
323.15	40000	0.001268	6.3e-05
323.15	60000	0.001405	6.9e-05
323.15	80000	0.001544	7.6e-05
323.15	100000	0.001685	8.3e-05
333.15	20000	0.000965	4.8e-05
333.15	40000	0.001084	5.3e-05
333.15	60000	0.00121	6e-05
333.15	80000	0.001338	6.6e-05
333.15	100000	0.001466	7.2e-05
343.15	20000	0.000852	4.2e-05
343.15	40000	0.000958	4.7e-05
343.15	60000	0.001058	5.2e-05
343.15	80000	0.001149	5.7e-05
343.15	100000	0.001231	6.1e-05
353.15	20000	0.000738	3.6e-05
353.15	40000	0.000834	4.1e-05
353.15	60000	0.000924	4.6e-05
353.15	80000	0.001006	5e-05
353.15	100000	0.00108	5.3e-05

System: 2-methoxyethan-1-ol; phases: Liquid
Fixed: Pressure, kPa = 100
Property: Viscosity, Pa*s (Liquid); method: CAPTUB:UFactor:2
Temperature, K	Viscosity, Pa*s	uncertainty
293.15	0.001707	4e-05
303.15	0.001398	3.3e-05
313.15	0.001162	2.7e-05
323.15	0.000984	2.3e-05
333.15	0.000843	2e-05
343.15	0.000731	1.7e-05
353.15	0.000635	1.5e-05

System: 2-ethoxyethan-1-ol; phases: Liquid
Property: Viscosity, Pa*s (Liquid); method: SPHERE:UFactor:4
Temperature, K	Pressure, kPa	Viscosity, Pa*s	uncertainty
293.15	20000	0.002417	0.00012
293.15	40000	0.002776	0.000137
293.15	60000	0.003145	0.000156
293.15	80000	0.003509	0.000174
293.15	100000	0.003859	0.000191
303.15	20000	0.001922	9.5e-05
303.15	40000	0.00221	0.000109
303.15	60000	0.002512	0.000124
303.15	80000	0.002816	0.000139
303.15	100000	0.003115	0.000154
313.15	20000	0.001599	7.9e-05
313.15	40000	0.001834	9.1e-05
313.15	60000	0.002071	0.000102
313.15	80000	0.002308	0.000114
313.15	100000	0.002543	0.000126
323.15	20000	0.00132	6.5e-05
323.15	40000	0.001529	7.6e-05
323.15	60000	0.001743	8.6e-05
323.15	80000	0.001931	9.6e-05
323.15	100000	0.00213	0.000105
333.15	20000	0.001081	5.4e-05
333.15	40000	0.001236	6.1e-05
333.15	60000	0.001408	7e-05
333.15	80000	0.001592	7.9e-05
333.15	100000	0.001787	8.8e-05
343.15	20000	0.000939	4.6e-05
343.15	40000	0.001078	5.3e-05
343.15	60000	0.001221	6e-05
343.15	80000	0.001362	6.7e-05
343.15	100000	0.0015	7.4e-05
353.15	20000	0.000829	4.1e-05
353.15	40000	0.000953	4.7e-05
353.15	60000	0.001068	5.3e-05
353.15	80000	0.001172	5.8e-05
353.15	100000	0.001265	6.3e-05

System: 2-ethoxyethan-1-ol; phases: Liquid
Fixed: Pressure, kPa = 100
Property: Viscosity, Pa*s (Liquid); method: CAPTUB:UFactor:2
Temperature, K	Viscosity, Pa*s	uncertainty
293.15	0.002073	4.9e-05
303.15	0.001663	3.9e-05
313.15	0.001346	3.2e-05
323.15	0.001117	2.6e-05
333.15	0.000941	2.2e-05
343.15	0.000804	1.9e-05
353.15	0.000695	1.7e-05

System: 2-isopropoxyethanol; phases: Liquid
Property: Viscosity, Pa*s (Liquid); method: SPHERE:UFactor:4
Temperature, K	Pressure, kPa	Viscosity, Pa*s	uncertainty
293.15	20000	0.002939	0.000145
293.15	40000	0.003493	0.000173
293.15	60000	0.004073	0.000202
293.15	80000	0.004661	0.000231
293.15	100000	0.005241	0.000259
303.15	20000	0.002284	0.000113
303.15	40000	0.002691	0.000133
303.15	60000	0.003123	0.000155
303.15	80000	0.003566	0.000177
303.15	100000	0.004008	0.000199
313.15	20000	0.001861	9.2e-05
313.15	40000	0.002186	0.000108
313.15	60000	0.002512	0.000124
313.15	80000	0.002838	0.000141
313.15	100000	0.003162	0.000157
323.15	20000	0.001485	7.4e-05
323.15	40000	0.001731	8.6e-05
323.15	60000	0.002002	9.9e-05
323.15	80000	0.002296	0.000114
323.15	100000	0.002611	0.000129
333.15	20000	0.00125	6.2e-05
333.15	40000	0.00148	7.3e-05
333.15	60000	0.00172	8.5e-05
333.15	80000	0.001966	9.7e-05
333.15	100000	0.002212	0.000109
343.15	20000	0.001046	5.2e-05
343.15	40000	0.001236	6.1e-05
343.15	60000	0.001445	7.1e-05
343.15	80000	0.001669	8.3e-05
343.15	100000	0.001903	9.4e-05
353.15	20000	0.000927	4.6e-05
353.15	40000	0.00109	5.4e-05
353.15	60000	0.001236	6.1e-05
353.15	80000	0.001368	6.8e-05
353.15	100000	0.001536	7.6e-05

System: 2-isopropoxyethanol; phases: Liquid
Fixed: Pressure, kPa = 100
Property: Viscosity, Pa*s (Liquid); method: CAPTUB:UFactor:2
Temperature, K	Viscosity, Pa*s	uncertainty
293.15	0.00238	5.6e-05
303.15	0.00187	4.4e-05
313.15	0.001506	3.6e-05
323.15	0.001228	2.9e-05
333.15	0.001024	2.4e-05
343.15	0.000864	2.1e-05
353.15	0.000739	1.8e-05
