Measured thermophysical data. Measurement of heat capacities of ionic liquids by differential scanning calorimetry
Source: Fluid Phase Equilib., 2006, 10.1016/j.fluid.2006.03.015
Compound 1: 4-(dimethylamino)-1-hexyl-pyridinium 1,1,1-trifluoro-N-[(trifluoromethyl)sulfonyl]methanesulfonamide, C15H23F6N3O4S2, InChI=1S/C13H23N2.C2F6NO4S2/c1-4-5-6-7-10-15-11-8-13(9-12-15)14(2)3;3-1(4,5)14(10,11)9-15(12,13)2(6,7)8/h8-9,11-12H,4-7,10H2,1-3H3;/q+1;-1
Compound 2: 1-ethyl-3-methylimidazolium trifluoromethanesulfonate, C7H11F3N2O3S, InChI=1S/C6H11N2.CHF3O3S/c1-3-8-5-4-7(2)6-8;2-1(3,4)8(5,6)7/h4-6H,3H2,1-2H3;(H,5,6,7)/q+1;/p-1
Compound 3: 1-butyl-3-methylimidazolium trifluoromethanesulfonate, C9H15F3N2O3S, InChI=1S/C8H15N2.CHF3O3S/c1-3-4-5-10-7-6-9(2)8-10;2-1(3,4)8(5,6)7/h6-8H,3-5H2,1-2H3;(H,5,6,7)/q+1;/p-1
Compound 4: 1-hexyl-3-methylimidazolium trifluoromethanesulfonate, C11H19F3N2O3S, InChI=1S/C10H19N2.CHF3O3S/c1-3-4-5-6-7-12-9-8-11(2)10-12;2-1(3,4)8(5,6)7/h8-10H,3-7H2,1-2H3;(H,5,6,7)/q+1;/p-1
Compound 5: 1-octyl-3-methylimidazolium trifluoromethanesulfonate, C13H23F3N2O3S, InChI=1S/C12H23N2.CHF3O3S/c1-3-4-5-6-7-8-9-14-11-10-13(2)12-14;2-1(3,4)8(5,6)7/h10-12H,3-9H2,1-2H3;(H,5,6,7)/q+1;/p-1
Compound 6: 1-hexyl-3-methylimidazolium bis[(trifluoromethyl)sulfonyl]imide, C12H19F6N3O4S2, InChI=1S/C10H19N2.C2F6NO4S2/c1-3-4-5-6-7-12-9-8-11(2)10-12;3-1(4,5)14(10,11)9-15(12,13)2(6,7)8/h8-10H,3-7H2,1-2H3;/q+1;-1
Compound 7: 1-butylpyridinium bis[(trifluoromethyl)sulfonyl]imide, C11H14F6N2O4S2, InChI=1S/C9H14N.C2F6NO4S2/c1-2-3-7-10-8-5-4-6-9-10;3-1(4,5)14(10,11)9-15(12,13)2(6,7)8/h4-6,8-9H,2-3,7H2,1H3;/q+1;-1
Compound 8: water, H2O, InChI=1S/H2O/h1H2
Compound 9: tetrahydrofuran, C4H8O, InChI=1S/C4H8O/c1-2-4-5-3-1/h1-4H2
Compound 10: benzene, C6H6, InChI=1S/C6H6/c1-2-4-6-5-3-1/h1-6H
Compound 11: n-ethyl-4-(n',n'-dimethylammonium)pyridinium bis(trifluoromethylsulfonyl)imide, C11H15F6N3O4S2, InChI=1S/C9H15N2.C2F6NO4S2/c1-4-11-7-5-9(6-8-11)10(2)3;3-1(4,5)14(10,11)9-15(12,13)2(6,7)8/h5-8H,4H2,1-3H3;/q+1;-1
Compound 12: n-butyl-4-(n',n'-dimethylammonium)pyridinium bis(trifluoromethylsulfonyl)imid, C13H19F6N3O4S2, InChI=1S/C11H19N2.C2F6NO4S2/c1-4-5-8-13-9-6-11(7-10-13)12(2)3;3-1(4,5)14(10,11)9-15(12,13)2(6,7)8/h6-7,9-10H,4-5,8H2,1-3H3;/q+1;-1

System: 4-(dimethylamino)-1-hexyl-pyridinium 1,1,1-trifluoro-N-[(trifluoromethyl)sulfonyl]methanesulfonamide; phases: Liquid
Fixed: Pressure, kPa = 101.325
Property: Molar heat capacity at constant pressure, J/K/mol (Liquid); method: Small sample (50 mg) DSC
Temperature, K	Molar heat capacity at constant pressure, J/K/mol	uncertainty
315.15	750	39
320.15	753	39
325.15	757	39
330.15	760	39
335.15	762	40
340.15	767	40
345.15	771	40
350.15	774	40
355.15	778	40
360.15	782	41
365.15	785	41
370.15	789	41
375.15	792	41
380.15	794	41
385.15	798	41
390.15	801	42
395.15	804	42
400.15	809	42
405.15	812	42
410.15	815	42
415.15	818	43
420.15	822	43
425.15	825	43

System: 4-(dimethylamino)-1-hexyl-pyridinium 1,1,1-trifluoro-N-[(trifluoromethyl)sulfonyl]methanesulfonamide; phases: Liquid
Fixed: Pressure, kPa = 101.325
Property: Molar heat capacity at constant pressure, J/K/mol (Liquid); method: Large sample (1 g) DSC
Temperature, K	Molar heat capacity at constant pressure, J/K/mol	uncertainty
313.15	731	38
318.16	736	38
323.17	740	38
328.12	742	39
333.15	742	39
338.15	745	39
343.16	748	39
348.17	749	39
353.18	752	39
358.13	755	39
363.17	759	39
368.13	764	40
373.14	766	40
378.13	769	40
383.17	774	40
388.16	777	40
393.14	782	41
398.18	786	41
403.16	793	41
408.13	796	41
413.16	801	42
418.13	801	42

System: 4-(dimethylamino)-1-hexyl-pyridinium 1,1,1-trifluoro-N-[(trifluoromethyl)sulfonyl]methanesulfonamide; phases: Liquid
Fixed: Pressure, kPa = 101.325
Property: Molar heat capacity at constant pressure, J/K/mol (Liquid); method: modulated-temperature differential scanning calorimetry MDSC
Temperature, K	Molar heat capacity at constant pressure, J/K/mol	uncertainty
328.15	753	38
333.15	756	38
338.15	759	38
343.15	762	38
348.15	766	38
353.15	768	38
358.15	773	39
363.15	775	39
368.15	778	39
373.15	782	39
378.15	783	39
383.15	787	39
388.15	788	39
393.15	793	40
398.15	795	40
403.15	798	40
408.15	800	40
413.15	801	40

System: 1-ethyl-3-methylimidazolium trifluoromethanesulfonate; phases: Liquid
Fixed: Pressure, kPa = 101.325
Property: Molar heat capacity at constant pressure, J/K/mol (Liquid); method: modulated-temperature differential scanning calorimetry MDSC
Temperature, K	Molar heat capacity at constant pressure, J/K/mol	uncertainty
328.15	392	20
333.15	395	20
338.15	397	20
343.15	398	20
348.15	400	20
353.15	402	20
358.15	404	20
363.15	405	20
368.15	408	20
373.15	409	20
378.15	411	21
383.15	412	21
388.15	414	21
393.15	416	21
398.15	416	21
403.15	418	21
408.15	419	21
413.15	421	21

System: 1-ethyl-3-methylimidazolium trifluoromethanesulfonate; phases: Liquid
Fixed: Pressure, kPa = 101.325
Property: Molar heat capacity at constant pressure, J/K/mol (Liquid); method: Large sample (1 g) DSC
Temperature, K	Molar heat capacity at constant pressure, J/K/mol	uncertainty
313.13	384	20
318.13	385	20
323.12	386	20
328.16	384	20
333.14	383	20
338.17	387	20
343.17	391	20
348.13	392	20
353.16	393	20
358.12	395	21
363.14	398	21
368.14	400	21
373.14	401	21
378.13	402	21
383.17	405	21
388.15	407	21
393.14	410	21
398.17	411	21
403.15	414	22
408.12	416	22
413.15	419	22
418.17	421	22
423.14	422	22

System: 1-ethyl-3-methylimidazolium trifluoromethanesulfonate; phases: Liquid
Fixed: Pressure, kPa = 101.325
Property: Molar heat capacity at constant pressure, J/K/mol (Liquid); method: Small sample (50 mg) DSC
Temperature, K	Molar heat capacity at constant pressure, J/K/mol	uncertainty
315.15	386	20
320.15	388	20
325.15	390	20
330.15	392	20
335.15	394	20
340.15	395	21
345.15	396	21
350.15	397	21
355.15	399	21
360.15	401	21
365.15	403	21
370.15	405	21
375.15	406	21
380.15	409	21
385.15	410	21
390.15	412	21
395.15	414	22
400.15	416	22
405.15	418	22
410.15	420	22
415.15	422	22
420.15	424	22
425.15	425	22

System: 1-butyl-3-methylimidazolium trifluoromethanesulfonate; phases: Liquid
Fixed: Pressure, kPa = 101.325
Property: Molar heat capacity at constant pressure, J/K/mol (Liquid); method: modulated-temperature differential scanning calorimetry MDSC
Temperature, K	Molar heat capacity at constant pressure, J/K/mol	uncertainty
328.15	443	22
333.15	446	22
338.15	448	22
343.15	450	23
348.15	453	23
353.15	454	23
358.15	458	23
363.15	460	23
368.15	463	23
373.15	464	23
378.15	468	23
383.15	468	23
388.15	471	24
393.15	472	24
398.15	475	24
403.15	476	24
408.15	477	24
413.15	481	24

System: 1-butyl-3-methylimidazolium trifluoromethanesulfonate; phases: Liquid
Fixed: Pressure, kPa = 101.325
Property: Molar heat capacity at constant pressure, J/K/mol (Liquid); method: Large sample (1 g) DSC
Temperature, K	Molar heat capacity at constant pressure, J/K/mol	uncertainty
313.16	448	23
318.15	449	23
323.14	451	23
328.12	451	23
333.17	450	23
338.15	453	24
343.14	455	24
348.18	456	24
353.18	459	24
358.13	463	24
363.14	467	24
368.14	471	24
373.13	472	25
378.12	474	25
383.16	477	25
388.15	479	25
393.13	482	25
398.16	484	25
403.14	487	25
408.17	489	25
413.14	491	26
418.17	494	26
423.14	494	26

System: 1-butyl-3-methylimidazolium trifluoromethanesulfonate; phases: Liquid
Fixed: Pressure, kPa = 101.325
Property: Molar heat capacity at constant pressure, J/K/mol (Liquid); method: Small sample (50 mg) DSC
Temperature, K	Molar heat capacity at constant pressure, J/K/mol	uncertainty
315.15	449	23
320.15	451	23
325.15	452	23
330.15	454	24
335.15	457	24
340.15	460	24
345.15	462	24
350.15	465	24
355.15	468	24
360.15	470	24
365.15	473	25
370.15	476	25
375.15	479	25
380.15	481	25
385.15	484	25
390.15	487	25
395.15	489	25
400.15	492	26
405.15	495	26
410.15	498	26
415.15	500	26
420.15	503	26
425.15	506	26

System: 1-hexyl-3-methylimidazolium trifluoromethanesulfonate; phases: Liquid
Fixed: Pressure, kPa = 101.325
Property: Molar heat capacity at constant pressure, J/K/mol (Liquid); method: modulated-temperature differential scanning calorimetry MDSC
Temperature, K	Molar heat capacity at constant pressure, J/K/mol	uncertainty
328.15	519	26
333.15	522	26
338.15	524	26
343.15	528	26
348.15	530	27
353.15	532	27
358.15	535	27
363.15	538	27
368.15	540	27
373.15	543	27
378.15	544	27
383.15	547	27
388.15	549	27
393.15	552	28
398.15	554	28
403.15	556	28
408.15	557	28
413.15	562	28

System: 1-hexyl-3-methylimidazolium trifluoromethanesulfonate; phases: Liquid
Fixed: Pressure, kPa = 101.325
Property: Molar heat capacity at constant pressure, J/K/mol (Liquid); method: Small sample (50 mg) DSC
Temperature, K	Molar heat capacity at constant pressure, J/K/mol	uncertainty
315.15	526	27
320.15	528	27
325.15	530	28
330.15	532	28
335.15	536	28
340.15	539	28
345.15	541	28
350.15	545	28
355.15	548	28
360.15	551	29
365.15	554	29
370.15	556	29
375.15	559	29
380.15	562	29
385.15	565	29
390.15	568	30
395.15	571	30
400.15	574	30
405.15	577	30
410.15	580	30
415.15	583	30
420.15	586	30
425.15	589	31

System: 1-hexyl-3-methylimidazolium trifluoromethanesulfonate; phases: Liquid
Fixed: Pressure, kPa = 101.325
Property: Molar heat capacity at constant pressure, J/K/mol (Liquid); method: Large sample (1 g) DSC
Temperature, K	Molar heat capacity at constant pressure, J/K/mol	uncertainty
313.14	517	27
318.15	522	27
323.17	525	27
328.13	527	27
333.15	528	27
338.16	531	28
343.16	534	28
348.16	535	28
353.18	539	28
358.12	542	28
363.17	545	28
368.15	548	28
373.17	550	29
378.17	552	29
383.17	555	29
388.16	558	29
393.15	560	29
398.18	562	29
403.16	564	29
408.13	566	29
413.16	569	30
418.15	573	30
423.17	572	30

System: 1-octyl-3-methylimidazolium trifluoromethanesulfonate; phases: Liquid
Fixed: Pressure, kPa = 101.325
Property: Molar heat capacity at constant pressure, J/K/mol (Liquid); method: modulated-temperature differential scanning calorimetry MDSC
Temperature, K	Molar heat capacity at constant pressure, J/K/mol	uncertainty
328.15	599	30
333.15	603	30
338.15	606	30
343.15	609	30
348.15	612	31
353.15	616	31
358.15	619	31
363.15	622	31
368.15	625	31
373.15	628	31
378.15	631	32
383.15	635	32
388.15	637	32
393.15	640	32
398.15	642	32
403.15	645	32
408.15	648	32
413.15	651	33

System: 1-octyl-3-methylimidazolium trifluoromethanesulfonate; phases: Liquid
Fixed: Pressure, kPa = 101.325
Property: Molar heat capacity at constant pressure, J/K/mol (Liquid); method: Large sample (1 g) DSC
Temperature, K	Molar heat capacity at constant pressure, J/K/mol	uncertainty
313.17	588	31
318.14	592	31
323.13	595	31
328.13	595	31
333.14	595	31
338.14	598	31
343.14	599	31
348.17	599	31
353.13	601	31
358.15	605	31
363.15	610	32
368.15	616	32
373.14	617	32
378.12	621	32
383.16	626	33
388.15	631	33
393.13	636	33
398.17	639	33
403.14	642	33
408.18	644	33
413.15	647	34
418.18	649	34
423.14	651	34

System: 1-octyl-3-methylimidazolium trifluoromethanesulfonate; phases: Liquid
Fixed: Pressure, kPa = 101.325
Property: Molar heat capacity at constant pressure, J/K/mol (Liquid); method: Small sample (50 mg) DSC
Temperature, K	Molar heat capacity at constant pressure, J/K/mol	uncertainty
315.15	604	31
320.15	608	32
325.15	612	32
330.15	612	32
335.15	616	32
340.15	620	32
345.15	623	32
350.15	627	33
355.15	631	33
360.15	634	33
365.15	637	33
370.15	641	33
375.15	644	33
380.15	648	34
385.15	652	34
390.15	655	34
395.15	658	34
400.15	663	34
405.15	666	35
410.15	670	35
415.15	673	35
420.15	677	35
425.15	680	35

System: 1-hexyl-3-methylimidazolium bis[(trifluoromethyl)sulfonyl]imide; phases: Liquid
Fixed: Pressure, kPa = 101.325
Property: Molar heat capacity at constant pressure, J/K/mol (Liquid); method: modulated-temperature differential scanning calorimetry MDSC
Temperature, K	Molar heat capacity at constant pressure, J/K/mol	uncertainty
323.15	680	34
328.15	682	34
333.15	685	34
338.15	688	34
343.15	689	34
348.15	693	35
353.15	695	35
358.15	698	35
363.15	701	35
368.15	705	35
373.15	706	35
378.15	709	35
383.15	711	36
388.15	714	36
393.15	716	36
398.15	718	36
403.15	720	36
408.15	723	36
413.15	723	36

System: 1-hexyl-3-methylimidazolium bis[(trifluoromethyl)sulfonyl]imide; phases: Liquid
Fixed: Pressure, kPa = 101.325
Property: Molar heat capacity at constant pressure, J/K/mol (Liquid); method: Large sample (1 g) DSC
Temperature, K	Molar heat capacity at constant pressure, J/K/mol	uncertainty
318.17	668	35
323.13	672	35
328.14	673	35
333.16	673	35
338.16	675	35
343.17	676	35
348.18	677	35
353.13	680	35
358.12	682	35
363.16	686	36
368.18	689	36
373.13	691	36
378.13	694	36
383.17	697	36
388.16	698	36
393.14	703	37
398.18	706	37
403.16	709	37
408.13	712	37
413.16	716	37
418.13	719	37

System: 1-hexyl-3-methylimidazolium bis[(trifluoromethyl)sulfonyl]imide; phases: Liquid
Fixed: Pressure, kPa = 101.325
Property: Molar heat capacity at constant pressure, J/K/mol (Liquid); method: Small sample (50 mg) DSC
Temperature, K	Molar heat capacity at constant pressure, J/K/mol	uncertainty
320.15	672	35
325.15	675	35
330.15	679	35
335.15	681	35
340.15	684	36
345.15	686	36
350.15	688	36
355.15	691	36
360.15	693	36
365.15	696	36
370.15	700	36
375.15	703	37
380.15	706	37
385.15	709	37
390.15	713	37
395.15	716	37
400.15	720	37
405.15	725	38
410.15	728	38
415.15	732	38
420.15	736	38
425.15	739	38

System: 1-butylpyridinium bis[(trifluoromethyl)sulfonyl]imide; phases: Liquid
Fixed: Pressure, kPa = 101.325
Property: Molar heat capacity at constant pressure, J/K/mol (Liquid); method: modulated-temperature differential scanning calorimetry MDSC
Temperature, K	Molar heat capacity at constant pressure, J/K/mol	uncertainty
328.15	604	30
333.15	607	30
338.15	610	31
343.15	610	31
348.15	616	31
353.15	615	31
358.15	621	31
363.15	624	31
368.15	623	31
373.15	628	31
378.15	628	31
383.15	631	32
388.15	635	32
393.15	636	32
398.15	636	32
403.15	640	32
408.15	642	32
413.15	644	32
418.15	645	32

System: 1-butylpyridinium bis[(trifluoromethyl)sulfonyl]imide; phases: Liquid
Fixed: Pressure, kPa = 101.325
Property: Molar heat capacity at constant pressure, J/K/mol (Liquid); method: Large sample (1 g) DSC
Temperature, K	Molar heat capacity at constant pressure, J/K/mol	uncertainty
323.18	592	31
328.18	595	31
333.13	596	31
338.14	600	31
343.16	603	31
348.12	603	31
353.14	604	31
358.15	609	32
363.17	614	32
368.17	617	32
373.16	617	32
378.13	618	32
383.14	621	32
388.14	623	32
393.14	626	33
398.13	630	33
403.17	631	33
408.14	632	33
413.16	633	33
418.13	636	33
423.15	635	33

System: 1-butylpyridinium bis[(trifluoromethyl)sulfonyl]imide; phases: Liquid
Fixed: Pressure, kPa = 101.325
Property: Molar heat capacity at constant pressure, J/K/mol (Liquid); method: Small sample (50 mg) DSC
Temperature, K	Molar heat capacity at constant pressure, J/K/mol	uncertainty
330.15	587	31
335.15	590	31
340.15	594	31
345.15	596	31
350.15	600	31
355.15	603	31
360.15	605	31
365.15	607	32
370.15	610	32
375.15	613	32
380.15	616	32
385.15	619	32
390.15	622	32
395.15	624	32
400.15	627	33
405.15	630	33
410.15	633	33
415.15	635	33
420.15	639	33
425.15	641	33

System: water; phases: Liquid
Fixed: Pressure, kPa = 101.325
Property: Molar heat capacity at constant pressure, J/K/mol (Liquid); method: Small sample (50 mg) DSC
Temperature, K	Molar heat capacity at constant pressure, J/K/mol	uncertainty
305.15	74.95	3.89
310.15	74.96	3.9
315.15	74.9	3.89
320.15	74.93	3.89
325.15	75.01	3.9
330.15	75.09	3.9
335.15	75.11	3.9
340.15	75.23	3.91
345.15	75.31	3.91
350.15	75.43	3.92
355.15	75.53	3.92
360.15	75.59	3.93
365.15	75.72	3.93
370.15	75.8	3.94

System: tetrahydrofuran; phases: Liquid
Fixed: Pressure, kPa = 101.325
Property: Molar heat capacity at constant pressure, J/K/mol (Liquid); method: Small sample (50 mg) DSC
Temperature, K	Molar heat capacity at constant pressure, J/K/mol	uncertainty
180.15	105.5	5.5
185.15	105.6	5.5
190.15	105.8	5.5
195.15	106	5.5
200.15	106.3	5.5
205.15	106.5	5.5
210.15	106.7	5.5
215.15	107.2	5.6
220.15	107.6	5.6
225.15	107.9	5.6
230.15	108.5	5.6
235.15	109.2	5.7
240.15	109.8	5.7
245.15	110.6	5.7
250.15	111.5	5.8
255.15	112.4	5.8
260.15	113.4	5.9
265.15	114.4	5.9
270.15	115.5	6
275.15	116.6	6.1
280.15	117.9	6.1
285.15	119.2	6.2
290.15	120.3	6.3
295.15	121.7	6.3
300.15	123.1	6.4
305.15	124.5	6.5
310.15	126	6.5
315.15	127.3	6.6
320.15	128.8	6.7
325.15	130.5	6.8

System: benzene; phases: Liquid
Fixed: Pressure, kPa = 101.325
Property: Molar heat capacity at constant pressure, J/K/mol (Liquid); method: Small sample (50 mg) DSC
Temperature, K	Molar heat capacity at constant pressure, J/K/mol	uncertainty
295.15	134.8	7
300.15	135.4	7.04
305.15	136.5	7.09
310.15	137.9	7.17
315.15	139.2	7.23
320.15	140.85	7.32
325.15	142.5	7.4
330.15	144.15	7.49
335.15	145.8	7.58
340.15	147.55	7.67
345.15	149.3	7.76
350.15	151.2	7.86

System: n-ethyl-4-(n',n'-dimethylammonium)pyridinium bis(trifluoromethylsulfonyl)imide; phases: Liquid
Fixed: Pressure, kPa = 101.325
Property: Molar heat capacity at constant pressure, J/K/mol (Liquid); method: modulated-temperature differential scanning calorimetry MDSC
Temperature, K	Molar heat capacity at constant pressure, J/K/mol	uncertainty
328.15	590	30
333.15	592	30
338.15	594	30
343.15	595	30
348.15	599	30
353.15	600	30
358.15	603	30
363.15	604	30
368.15	608	30
373.15	608	30
378.15	612	31
383.15	612	31
388.15	616	31
393.15	616	31
398.15	619	31
403.15	619	31
408.15	621	31
413.15	622	31

System: n-ethyl-4-(n',n'-dimethylammonium)pyridinium bis(trifluoromethylsulfonyl)imide; phases: Liquid
Fixed: Pressure, kPa = 101.325
Property: Molar heat capacity at constant pressure, J/K/mol (Liquid); method: Small sample (50 mg) DSC
Temperature, K	Molar heat capacity at constant pressure, J/K/mol	uncertainty
315.15	603	31
320.15	605	31
325.15	608	32
330.15	612	32
335.15	613	32
340.15	617	32
345.15	620	32
350.15	622	32
355.15	625	32
360.15	628	33
365.15	631	33
370.15	633	33
375.15	635	33
380.15	634	33
385.15	637	33
390.15	640	33
395.15	642	33
400.15	646	34
405.15	648	34
410.15	651	34
415.15	654	34
420.15	657	34
425.15	659	34

System: n-ethyl-4-(n',n'-dimethylammonium)pyridinium bis(trifluoromethylsulfonyl)imide; phases: Liquid
Fixed: Pressure, kPa = 101.325
Property: Molar heat capacity at constant pressure, J/K/mol (Liquid); method: Large sample (1 g) DSC
Temperature, K	Molar heat capacity at constant pressure, J/K/mol	uncertainty
313.12	619	32
318.17	619	32
323.16	620	32
328.14	619	32
333.12	617	32
338.17	620	32
343.15	622	32
348.14	619	32
353.12	620	32
358.16	622	32
363.14	626	33
368.14	633	33
373.14	636	33
378.15	638	33
383.15	641	33
388.14	643	33
393.13	645	34
398.17	646	34
403.16	649	34
408.13	649	34
413.16	650	34
418.14	653	34
423.17	649	34

System: n-butyl-4-(n',n'-dimethylammonium)pyridinium bis(trifluoromethylsulfonyl)imid; phases: Liquid
Fixed: Pressure, kPa = 101.325
Property: Molar heat capacity at constant pressure, J/K/mol (Liquid); method: modulated-temperature differential scanning calorimetry MDSC
Temperature, K	Molar heat capacity at constant pressure, J/K/mol	uncertainty
328.15	690	35
333.15	693	35
338.15	696	35
343.15	697	35
348.15	702	35
353.15	704	35
358.15	708	35
363.15	710	36
368.15	713	36
373.15	716	36
378.15	717	36
383.15	719	36
388.15	722	36
393.15	726	36
398.15	727	36
403.15	730	37
408.15	731	37
413.15	734	37

System: n-butyl-4-(n',n'-dimethylammonium)pyridinium bis(trifluoromethylsulfonyl)imid; phases: Liquid
Fixed: Pressure, kPa = 101.325
Property: Molar heat capacity at constant pressure, J/K/mol (Liquid); method: Small sample (50 mg) DSC
Temperature, K	Molar heat capacity at constant pressure, J/K/mol	uncertainty
315.15	673	35
320.15	672	35
325.15	675	35
330.15	679	35
335.15	681	35
340.15	685	36
345.15	689	36
350.15	692	36
355.15	696	36
360.15	700	36
365.15	703	37
370.15	707	37
375.15	708	37
380.15	709	37
385.15	712	37
390.15	716	37
395.15	719	37
400.15	723	38
405.15	726	38
410.15	729	38
415.15	732	38
420.15	736	38
425.15	739	38

System: n-butyl-4-(n',n'-dimethylammonium)pyridinium bis(trifluoromethylsulfonyl)imid; phases: Liquid
Fixed: Pressure, kPa = 101.325
Property: Molar heat capacity at constant pressure, J/K/mol (Liquid); method: Large sample (1 g) DSC
Temperature, K	Molar heat capacity at constant pressure, J/K/mol	uncertainty
313.13	688	36
318.15	682	35
323.17	685	36
328.13	686	36
333.14	687	36
338.16	689	36
343.17	691	36
348.18	691	36
353.13	694	36
358.12	698	36
363.17	702	36
368.14	705	37
373.15	705	37
378.15	707	37
383.14	712	37
388.13	714	37
393.18	717	37
398.16	720	37
403.14	723	38
408.17	725	38
413.14	729	38
418.17	732	38
423.14	732	38
