Measured thermophysical data. Thermodynamic study of binary systems containing sulphur dioxide and nitric oxide: Measurements and modelling
Source: Fluid Phase Equilib., 2018, 10.1016/j.fluid.2017.12.036
Compound 1: sulfur dioxide, O2S, InChI=1S/O2S/c1-3-2, purity 99.9%
Compound 2: nitrogen oxide (NO), NO, InChI=1S/NO/c1-2, purity 99%

System: nitrogen oxide (NO) + sulfur dioxide; phases: Gas, Liquid
Property: Mole fraction of nitrogen oxide (NO) (Gas); method: Chromatography
Temperature, K	Pressure, kPa	Mole fraction of nitrogen oxide (NO)	uncertainty
273.07	486.6	0.658	0.0091
273.07	1011.5	0.8283	0.0085
273.07	2060.9	0.9096	0.0082
273.07	3292.6	0.9372	0.0081
273.07	6164.5	0.9551	0.0081
273.07	10841.6	0.9618	0.008
313.21	1248.8	0.439	0.0092
313.21	1806.3	0.609	0.0091
313.21	3224.2	0.757	0.0086
313.21	5104	0.827	0.0084
313.21	9250.3	0.858	0.0083
313.21	14173	0.881	0.0082
343.28	2258.4	0.3091	0.0088
343.28	3515.3	0.519	0.0094
343.28	5522.6	0.653	0.0089
343.28	7762.4	0.719	0.0087
343.28	9974.3	0.742	0.0086
343.28	12773.1	0.753	0.0086
343.28	16108.5	0.762	0.0085
