Measured thermophysical data. Vapor liquid equilibrium for binary system of thiophene + 2,2,4-trimethylpentane at 343.15 and 353.15K and thiophene + 2-ethoxy-2-methylpropane at 333.15 and 343.15K
Source: Fluid Phase Equilib., 2007, 10.1016/j.fluid.2007.06.010
Compound 1: thiophene, C4H4S, InChI=1S/C4H4S/c1-2-4-5-3-1/h1-4H, purity 99.98%
Compound 2: 2,2,4-trimethylpentane, C8H18, InChI=1S/C8H18/c1-7(2)6-8(3,4)5/h7H,6H2,1-5H3, purity 99.78%
Compound 3: 2-ethoxy-2-methylpropane, C6H14O, InChI=1S/C6H14O/c1-5-7-6(2,3)4/h5H2,1-4H3
Compound 4: toluene, C7H8, InChI=1S/C7H8/c1-7-5-3-2-4-6-7/h2-6H,1H3, purity 99.98%

System: thiophene; phases: Liquid
Property: Refractive index (Na D-line) (Liquid); method: Standard Abbe refractometry
Temperature, K	Pressure, kPa	Refractive index (Na D-line)	uncertainty
298.15	101.325	1.5255	0.0007

System: 2,2,4-trimethylpentane; phases: Liquid
Property: Refractive index (Na D-line) (Liquid); method: Standard Abbe refractometry
Temperature, K	Pressure, kPa	Refractive index (Na D-line)	uncertainty
298.15	101.325	1.389	0.0007

System: 2-ethoxy-2-methylpropane; phases: Liquid
Property: Refractive index (Na D-line) (Liquid); method: Standard Abbe refractometry
Temperature, K	Pressure, kPa	Refractive index (Na D-line)	uncertainty
298.15	101.325	1.373	0.0007

System: toluene; phases: Liquid
Property: Refractive index (Na D-line) (Liquid); method: Standard Abbe refractometry
Temperature, K	Pressure, kPa	Refractive index (Na D-line)	uncertainty
298.15	101.325	1.494	0.0007

System: thiophene + 2,2,4-trimethylpentane; phases: Liquid, Gas
Property: Vapor or sublimation pressure, kPa (Liquid); method: Closed cell (Static) method
Mole fraction of thiophene	Temperature, K	Vapor or sublimation pressure, kPa	uncertainty
0	343.15	40.87	0.4
0	353.15	57.04	0.42
0.049	343.15	44.28	0.43
0.056	353.15	62.06	0.46
0.12	343.15	48.59	0.43
0.133	353.15	68.02	0.46
0.193	343.15	52.54	0.44
0.218	353.15	73.99	0.47
0.267	343.15	55.99	0.45
0.299	353.15	78.72	0.48
0.339	343.15	58.9	0.45
0.368	353.15	82.28	0.48
0.413	343.15	61.34	0.46
0.438	353.15	85.19	0.49
0.482	343.15	63.27	0.46
0.496	353.15	87.52	0.5
0.542	343.15	64.77	0.46
0.549	353.15	89.14	0.5
0.616	343.15	66	0.47
0.621	353.15	90.95	0.5
0.687	343.15	66.92	0.47
0.696	353.15	92.34	0.51
0.761	343.15	67.51	0.47
0.762	353.15	93.02	0.51
0.819	353.15	93.17	0.51
0.825	343.15	67.83	0.47
0.867	353.15	93.04	0.51
0.878	343.15	67.38	0.47
0.907	353.15	92.57	0.51
0.923	343.15	66.81	0.47
0.94	353.15	91.87	0.51
0.957	343.15	66.05	0.47
0.967	353.15	90.97	0.51
0.983	343.15	65.18	0.47
0.986	353.15	90.12	0.51
1	343.15	64.45	0.46
1	353.15	89.34	0.5

System: thiophene + 2,2,4-trimethylpentane; phases: Gas, Liquid
Property: Mole fraction of thiophene (Gas); method: Chromatography
Mole fraction of thiophene	Temperature, K	Mole fraction of thiophene	uncertainty
0	343.15	0	0.001
0	353.15	0	0.001
0.049	343.15	0.117	0.005
0.056	353.15	0.127	0.005
0.12	343.15	0.249	0.004
0.133	353.15	0.262	0.004
0.193	343.15	0.356	0.005
0.218	353.15	0.379	0.005
0.267	343.15	0.442	0.005
0.299	353.15	0.465	0.005
0.339	343.15	0.512	0.005
0.368	353.15	0.528	0.005
0.413	343.15	0.569	0.004
0.438	353.15	0.583	0.004
0.482	343.15	0.619	0.004
0.496	353.15	0.625	0.004
0.542	343.15	0.656	0.004
0.549	353.15	0.661	0.004
0.616	343.15	0.696	0.004
0.621	353.15	0.702	0.003
0.687	343.15	0.739	0.003
0.696	353.15	0.747	0.003
0.761	343.15	0.781	0.003
0.762	353.15	0.785	0.003
0.819	353.15	0.821	0.003
0.825	343.15	0.822	0.003
0.867	353.15	0.856	0.003
0.878	343.15	0.861	0.003
0.907	353.15	0.89	0.003
0.923	343.15	0.901	0.003
0.94	353.15	0.922	0.003
0.957	343.15	0.936	0.003
0.967	353.15	0.953	0.003
0.983	343.15	0.972	0.004
0.986	353.15	0.979	0.004
1	343.15	1	0.001
1	353.15	1	0.001

System: thiophene + 2-ethoxy-2-methylpropane; phases: Liquid, Gas
Property: Vapor or sublimation pressure, kPa (Liquid); method: Closed cell (Static) method
Mole fraction of thiophene	Temperature, K	Vapor or sublimation pressure, kPa	uncertainty
0	333.15	66.52	0.48
0	343.15	92.96	0.51
0.048	343.15	92.08	0.51
0.053	333.15	65.82	0.47
0.114	343.15	90.97	0.51
0.118	333.15	65.01	0.47
0.193	343.15	89.58	0.5
0.197	333.15	63.95	0.47
0.274	343.15	88.08	0.5
0.283	333.15	62.74	0.47
0.345	343.15	86.58	0.5
0.361	333.15	61.52	0.46
0.421	343.15	84.92	0.49
0.442	333.15	60.21	0.46
0.496	343.15	83.13	0.49
0.521	333.15	58.77	0.45
0.563	343.15	81.42	0.48
0.586	333.15	57.51	0.45
0.597	343.15	80.64	0.48
0.644	333.15	56.29	0.45
0.672	343.15	78.46	0.47
0.696	333.15	55.26	0.45
0.744	343.15	76.07	0.47
0.769	333.15	53.41	0.44
0.81	343.15	73.61	0.46
0.834	333.15	51.59	0.44
0.867	343.15	71.27	0.46
0.891	333.15	49.76	0.43
0.912	343.15	69.22	0.46
0.937	333.15	48.05	0.43
0.951	343.15	67.23	0.46
0.974	333.15	46.53	0.43
0.981	343.15	65.54	0.45
1	333.15	45.41	0.41
1	343.15	64.45	0.44

System: thiophene + 2-ethoxy-2-methylpropane; phases: Gas, Liquid
Property: Mole fraction of thiophene (Gas); method: Chromatography
Mole fraction of thiophene	Temperature, K	Mole fraction of thiophene	uncertainty
0	333.15	0	0.001
0	343.15	0	0.001
0.048	343.15	0.04	0.003
0.053	333.15	0.044	0.003
0.114	343.15	0.096	0.003
0.118	333.15	0.098	0.003
0.193	343.15	0.162	0.003
0.197	333.15	0.163	0.003
0.274	343.15	0.229	0.003
0.283	333.15	0.234	0.003
0.345	343.15	0.289	0.004
0.361	333.15	0.3	0.004
0.421	343.15	0.353	0.004
0.442	333.15	0.368	0.004
0.496	343.15	0.417	0.004
0.521	333.15	0.436	0.005
0.563	343.15	0.477	0.005
0.586	333.15	0.493	0.005
0.597	343.15	0.506	0.005
0.644	333.15	0.545	0.005
0.672	343.15	0.577	0.005
0.696	333.15	0.593	0.004
0.744	343.15	0.648	0.004
0.769	333.15	0.669	0.004
0.81	343.15	0.72	0.004
0.834	333.15	0.744	0.004
0.867	343.15	0.79	0.004
0.891	333.15	0.818	0.004
0.912	343.15	0.853	0.004
0.937	333.15	0.887	0.004
0.951	343.15	0.911	0.004
0.974	333.15	0.95	0.004
0.981	343.15	0.964	0.004
1	333.15	1	0.001
1	343.15	1	0.001
