Measured thermophysical data. Density and viscosity measurements of diethyl ether from 243 to 373K and up to 20MPa
Source: Fluid Phase Equilib., 2008, 10.1016/j.fluid.2008.06.014
Compound 1: diethyl ether, C4H10O, InChI=1S/C4H10O/c1-3-5-4-2/h3-4H2,1-2H3, purity 99.5%

System: diethyl ether; phases: Liquid
Property: Viscosity, Pa*s (Liquid); method: vibrating wire
Temperature, K	Pressure, kPa	Viscosity, Pa*s	uncertainty
243.15	100	0.000412	1.7e-05
243.15	4360	0.000427	1.7e-05
243.15	9400	0.000445	1.8e-05
243.15	14450	0.000463	1.9e-05
243.15	19460	0.000481	1.9e-05
253.15	100	0.000363	1.5e-05
253.15	4440	0.000377	1.5e-05
253.15	9400	0.000392	1.6e-05
253.15	14460	0.000408	1.6e-05
253.15	19510	0.000424	1.7e-05
263.15	100	0.000323	1.3e-05
263.15	4390	0.000335	1.3e-05
263.15	9440	0.00035	1.4e-05
263.15	14430	0.000364	1.5e-05
263.15	19430	0.000378	1.5e-05
273.15	100	0.000288	1.2e-05
273.15	4380	0.0003	1.2e-05
273.15	9430	0.000313	1.3e-05
273.15	14470	0.000326	1.3e-05
273.15	19480	0.000339	1.4e-05
283.15	100	0.00026	1e-05
283.15	4390	0.00027	1.1e-05
283.15	9420	0.000283	1.1e-05
283.15	14500	0.000294	1.2e-05
283.15	19540	0.000307	1.2e-05
293.15	100	0.000235	9e-06
293.15	4380	0.000245	1e-05
293.15	9420	0.000256	1e-05
293.15	14480	0.000268	1.1e-05
293.15	19490	0.00028	1.1e-05
303.15	220	0.000214	9e-06
303.15	4380	0.000223	9e-06
303.15	9420	0.000234	9e-06
303.15	14500	0.000245	1e-05
303.15	19560	0.000256	1e-05
313.15	410	0.000195	8e-06
313.15	4360	0.000203	8e-06
313.15	9430	0.000214	9e-06
313.15	14520	0.000225	9e-06
313.15	19610	0.000235	9e-06
323.15	350	0.000179	7e-06
323.15	4380	0.000187	8e-06
323.15	9430	0.000197	8e-06
323.15	14490	0.000209	8e-06
323.15	19510	0.000217	9e-06
333.15	410	0.000163	7e-06
333.15	4390	0.000172	7e-06
333.15	9430	0.000182	7e-06
333.15	14470	0.000192	8e-06
333.15	19470	0.000201	8e-06
343.15	340	0.00015	6e-06
343.15	4390	0.000158	6e-06
343.15	9420	0.000167	7e-06
343.15	14460	0.000178	7e-06
343.15	19470	0.000187	8e-06
353.15	410	0.000137	6e-06
353.15	4380	0.000146	6e-06
353.15	9410	0.000155	6e-06
353.15	14440	0.000165	7e-06
353.15	19400	0.000174	7e-06
363.15	510	0.000126	5e-06
363.15	4380	0.000134	5e-06
363.15	9390	0.000144	6e-06
363.15	14400	0.000153	6e-06
363.15	19350	0.000162	7e-06
373.15	650	0.000116	5e-06
373.15	4380	0.000124	5e-06
373.15	9380	0.000134	5e-06
373.15	14400	0.000143	6e-06
373.15	19460	0.000151	6e-06

System: diethyl ether; phases: Liquid
Property: Mass density, kg/m3 (Liquid); method: vibrating wire
Temperature, K	Pressure, kPa	Mass density, kg/m3	uncertainty
243.15	100	768.339	3.078
243.15	4360	771.759	3.091
243.15	9400	775.801	3.107
243.15	14450	779.603	3.122
243.15	19460	783.16	3.136
253.15	100	758.413	3.04
253.15	4440	762.367	3.055
253.15	9400	766.683	3.071
253.15	14460	770.762	3.087
253.15	19510	774.696	3.102
263.15	100	747.885	2.999
263.15	4390	752.036	3.014
263.15	9440	756.778	3.033
263.15	14430	761.197	3.05
263.15	19430	765.357	3.066
273.15	100	736.593	2.954
273.15	4380	741.075	2.972
273.15	9430	746.224	2.991
273.15	14470	750.968	3.01
273.15	19480	755.407	3.027
283.15	100	725.632	2.912
283.15	4390	730.65	2.931
283.15	9420	735.997	2.952
283.15	14500	741.302	2.972
283.15	19540	746.114	2.99
293.15	100	714.517	2.87
293.15	4380	719.86	2.89
293.15	9420	725.825	2.912
293.15	14480	731.278	2.933
293.15	19490	736.437	2.953
303.15	220	702.89	2.826
303.15	4380	708.706	2.848
303.15	9420	715.312	2.872
303.15	14500	721.122	2.893
303.15	19560	726.788	2.916
313.15	410	691.21	2.783
313.15	4360	697.329	2.805
313.15	9430	704.446	2.831
313.15	14520	710.954	2.855
313.15	19610	717.082	2.878
323.15	350	678.758	2.737
323.15	4380	685.74	2.762
323.15	9430	693.587	2.789
323.15	14490	700.362	2.814
323.15	19510	707.014	2.841
333.15	410	666.408	2.694
333.15	4390	673.959	2.719
333.15	9430	682.531	2.749
333.15	14470	690.138	2.776
333.15	19470	697.082	2.802
343.15	340	653.148	2.649
343.15	4390	661.825	2.677
343.15	9420	671.37	2.709
343.15	14460	679.704	2.737
343.15	19470	687.162	2.764
353.15	410	639.678	2.605
353.15	4380	649.165	2.634
353.15	9410	659.723	2.668
353.15	14440	668.759	2.697
353.15	19400	676.864	2.727
363.15	510	625.615	2.565
363.15	4380	636.228	2.593
363.15	9390	647.821	2.627
363.15	14400	657.773	2.658
363.15	19350	666.459	2.689
373.15	650	610.791	2.523
373.15	4380	622.533	2.553
373.15	9380	635.564	2.587
373.15	14400	646.594	2.619
373.15	19460	656.28	2.653
