Measured thermophysical data. Dielectric constant of dimethyl sulfoxide - monohydric alcohol mixture solution at the microwave frequency
Source: Fluid Phase Equilib., 2014, 10.1016/j.fluid.2013.12.014
Compound 1: dimethyl sulfoxide, C2H6OS, InChI=1S/C2H6OS/c1-4(2)3/h1-2H3
Compound 2: methanol, CH4O, InChI=1S/CH4O/c1-2/h2H,1H3
Compound 3: ethanol, C2H6O, InChI=1S/C2H6O/c1-2-3/h3H,2H2,1H3
Compound 4: propan-1-ol, C3H8O, InChI=1S/C3H8O/c1-2-3-4/h4H,2-3H2,1H3
Compound 5: propan-2-ol, C3H8O, InChI=1S/C3H8O/c1-3(2)4/h3-4H,1-2H3
Compound 6: butan-1-ol, C4H10O, InChI=1S/C4H10O/c1-2-3-4-5/h5H,2-4H2,1H3
Compound 7: butan-2-ol, C4H10O, InChI=1S/C4H10O/c1-3-4(2)5/h4-5H,3H2,1-2H3

System: dimethyl sulfoxide; phases: Liquid
Property: Relative permittivity at zero frequency (Liquid); method: PNA-N5227A Microwave Network Analyzer
Pressure, kPa	Temperature, K	Relative permittivity at zero frequency	uncertainty
101	298	49	5.2

System: methanol; phases: Liquid
Property: Relative permittivity at zero frequency (Liquid); method: PNA-N5227A Microwave Network Analyzer
Pressure, kPa	Temperature, K	Relative permittivity at zero frequency	uncertainty
101	298	33.1	3.5

System: ethanol; phases: Liquid
Property: Relative permittivity at zero frequency (Liquid); method: PNA-N5227A Microwave Network Analyzer
Pressure, kPa	Temperature, K	Relative permittivity at zero frequency	uncertainty
101	298	22.8	2.4

System: propan-1-ol; phases: Liquid
Property: Relative permittivity at zero frequency (Liquid); method: PNA-N5227A Microwave Network Analyzer
Pressure, kPa	Temperature, K	Relative permittivity at zero frequency	uncertainty
101	298	21.3	2.3

System: propan-2-ol; phases: Liquid
Property: Relative permittivity at zero frequency (Liquid); method: PNA-N5227A Microwave Network Analyzer
Pressure, kPa	Temperature, K	Relative permittivity at zero frequency	uncertainty
101	298	19.1	1.3

System: butan-1-ol; phases: Liquid
Property: Relative permittivity at zero frequency (Liquid); method: PNA-N5227A Microwave Network Analyzer
Pressure, kPa	Temperature, K	Relative permittivity at zero frequency	uncertainty
101	298	17.8	1.9

System: butan-2-ol; phases: Liquid
Property: Relative permittivity at zero frequency (Liquid); method: PNA-N5227A Microwave Network Analyzer
Pressure, kPa	Temperature, K	Relative permittivity at zero frequency	uncertainty
101	298	17.6	1.9

System: methanol + dimethyl sulfoxide; phases: Liquid
Fixed: Pressure, kPa = 94.77
Fixed: Temperature, K = 298
Property: Relative permittivity at zero frequency (Liquid); method: PNA-N5227A Microwave Network Analyzer
Mole fraction of dimethyl sulfoxide	Relative permittivity at zero frequency	uncertainty
0	33.1	3.5
0.1	33.9	3.6
0.2	39	4.1
0.3	42.5	4.5
0.4	44.8	4.8
0.5	45.8	4.9
0.6	47.1	5
0.7	49.2	5.2
0.8	47.3	5
0.9	45.8	4.9
1	49	5.2

System: ethanol + dimethyl sulfoxide; phases: Liquid
Fixed: Pressure, kPa = 94.77
Fixed: Temperature, K = 298
Property: Relative permittivity at zero frequency (Liquid); method: PNA-N5227A Microwave Network Analyzer
Mole fraction of dimethyl sulfoxide	Relative permittivity at zero frequency	uncertainty
0	22.8	2.4
0.1	26.3	2.8
0.2	29.4	3.1
0.3	31.7	3.4
0.4	34.4	3.7
0.5	37.4	4
0.6	39.7	4.2
0.7	41.6	4.4
0.8	42.9	4.6
0.9	45.4	4.9

System: dimethyl sulfoxide + propan-1-ol; phases: Liquid
Fixed: Pressure, kPa = 94.77
Fixed: Temperature, K = 298
Property: Relative permittivity at zero frequency (Liquid); method: PNA-N5227A Microwave Network Analyzer
Mole fraction of dimethyl sulfoxide	Relative permittivity at zero frequency	uncertainty
0	21.3	2.3
0.1	22.7	2.4
0.2	23.9	2.5
0.3	26	2.8
0.4	27	2.9
0.5	31.9	3.4
0.6	33	3.5
0.7	35	3.8
0.8	38	4.4
0.9	46.6	5.8

System: propan-2-ol + dimethyl sulfoxide; phases: Liquid
Fixed: Pressure, kPa = 94.77
Fixed: Temperature, K = 298
Property: Relative permittivity at zero frequency (Liquid); method: PNA-N5227A Microwave Network Analyzer
Mole fraction of dimethyl sulfoxide	Relative permittivity at zero frequency	uncertainty
0	19.1	2
0.1	19.9	2.1
0.2	20.4	2.2
0.3	21	2.2
0.4	22	2.4
0.5	26	2.9
0.6	30	3.3
0.7	33.6	3.7
0.8	37.8	4.5
0.9	46.2	5.8

System: dimethyl sulfoxide + butan-1-ol; phases: Liquid
Fixed: Pressure, kPa = 94.77
Fixed: Temperature, K = 298
Property: Relative permittivity at zero frequency (Liquid); method: PNA-N5227A Microwave Network Analyzer
Mole fraction of dimethyl sulfoxide	Relative permittivity at zero frequency	uncertainty
0	17.8	1.9
0.1	18.2	1.9
0.2	22.9	2.4
0.3	22.7	2.4
0.4	25.9	2.8
0.5	29.8	3.3
0.6	34.1	3.7
0.7	37.8	4.1
0.8	41.8	4.5
0.9	44.1	4.7

System: dimethyl sulfoxide + butan-2-ol; phases: Liquid
Fixed: Pressure, kPa = 94.77
Fixed: Temperature, K = 298
Property: Relative permittivity at zero frequency (Liquid); method: PNA-N5227A Microwave Network Analyzer
Mole fraction of dimethyl sulfoxide	Relative permittivity at zero frequency	uncertainty
0	17.6	1.9
0.1	19.1	2
0.2	20.3	2.2
0.3	24.5	2.6
0.4	26.7	2.9
0.5	29.5	3.2
0.6	34.7	3.7
0.7	34.7	3.7
0.8	38.9	4.4
0.9	44.6	5.2
