Measured thermophysical data. Comment on "Solubilities of 3-acetylpyridine in supercritical carbon dioxide at several temperatures and pressures: Experimental and modeling" Fluid Phase Equilib. 354 (2013) 127-132
Source: Fluid Phase Equilib., 2016, 10.1016/j.fluid.2016.06.047
Compound 1: carbon dioxide, CO2, InChI=1S/CO2/c2-1-3, purity 99.8%
Compound 2: 3-acetylpyridine, C7H7NO, InChI=1S/C7H7NO/c1-6(9)7-3-2-4-8-5-7/h2-5H,1H3, purity 98%

System: carbon dioxide + 3-acetylpyridine; phases: Liquid, Gas
Property: Critical temperature, K (Liquid); method: Derived from PVT data
Mole fraction of carbon dioxide	Critical temperature, K	uncertainty
0.909	313.15	0.2
0.89	323.15	0.2
0.875	333.15	0.2
0.864	343.15	0.2

System: carbon dioxide + 3-acetylpyridine; phases: Liquid, Gas
Property: Critical pressure, kPa (Liquid); method: Derived from PVT data
Mole fraction of carbon dioxide	Critical pressure, kPa	uncertainty
0.909	9150	80
0.89	10260	80
0.875	12520	80
0.864	14720	80
