Measured thermophysical data. Solid-liquid equilibrium (SLE) of ternary system 3-nitrophthalic acid + 4-nitrophthalic acid + 1,4-dioxane at (283.15, 293.15, 303.15,  313.15 and 323.15) K
Source: Fluid Phase Equilib., 2013, 10.1016/j.fluid.2013.03.021
Compound 1: 3-nitro-1,2-benzenedicarboxylic acid, C8H5NO6, InChI=1S/C8H5NO6/c10-7(11)4-2-1-3-5(9(14)15)6(4)8(12)13/h1-3H,(H,10,11)(H,12,13), purity 99.2%
Compound 2: 4-nitrophthalic acid, C8H5NO6, InChI=1S/C8H5NO6/c10-7(11)5-2-1-4(9(14)15)3-6(5)8(12)13/h1-3H,(H,10,11)(H,12,13), purity 99.2%
Compound 3: 1,4-dioxane, C4H8O2, InChI=1S/C4H8O2/c1-2-6-4-3-5-1/h1-4H2, purity 99.5%

System: 1,4-dioxane + 3-nitro-1,2-benzenedicarboxylic acid + 4-nitrophthalic acid; phases: Liquid
Fixed: Pressure, kPa = 101.3
Property: Mass density, kg/m3 (Liquid); method: Pycnometric method
Temperature, K	Mass fraction of 4-nitrophthalic acid	Mass fraction of 3-nitro-1,2-benzenedicarboxylic acid	Mass density, kg/m3	uncertainty
283.15	0	0.1502	1029.3	44.8
283.15	0.0182	0.1445	1038.5	46
283.15	0.0416	0.1397	1053.7	56.8
283.15	0.0665	0.1395	1073.8	48.3
283.15	0.0958	0.1461	1108.1	63.8
283.15	0.1205	0.1623	1144	64.2
283.15	0.1261	0.1421	1114.1	53.2
283.15	0.1335	0.1186	1093.2	57.8
283.15	0.1433	0.0975	1072.5	47.2
283.15	0.1508	0.0773	1061.5	51.4
283.15	0.1611	0.0554	1052.1	35.8
283.15	0.1749	0.0335	1044.9	31.3
283.15	0.1886	0.0125	1039	22.1
283.15	0.2059	0	1035.4	12.3
293.15	0	0.1744	1045.4	35.8
293.15	0.0282	0.1625	1060.8	42.5
293.15	0.0677	0.1642	1088.6	48.8
293.15	0.1005	0.1704	1123.5	56.3
293.15	0.1332	0.1868	1156.8	50.8
293.15	0.1394	0.158	1138	62.1
293.15	0.1541	0.1275	1106.7	50.7
293.15	0.1704	0.0942	1083.6	47.7
293.15	0.1868	0.0615	1072.8	39.9
293.15	0.2077	0.0282	1068.9	14.8
293.15	0.2302	0	1067.2	14.1
303.15	0	0.2205	1056.2	11
303.15	0.0182	0.2127	1064.2	17.8
303.15	0.0415	0.2074	1074.5	37
303.15	0.0668	0.2049	1090.1	41
303.15	0.0967	0.2074	1120.2	50.9
303.15	0.1224	0.215	1152.7	47.6
303.15	0.1374	0.2231	1185.1	61.5
303.15	0.1438	0.1942	1162.6	57
303.15	0.1508	0.168	1152.2	56
303.15	0.161	0.1395	1142.8	49.8
303.15	0.1747	0.1095	1135.7	51.8
303.15	0.1954	0.0819	1127	52.9
303.15	0.2124	0.0558	1123.1	47.9
303.15	0.2299	0.0377	1120	49.5
303.15	0.2501	0.0186	1124.3	48.4
303.15	0.2758	0	1129.2	8.1
313.15	0	0.2205	1058.9	38.4
313.15	0.0181	0.2127	1063.8	42.2
313.15	0.0415	0.2074	1081.1	46.2
313.15	0.0668	0.2049	1094.4	35.8
313.15	0.0967	0.2074	1114.6	38.9
313.15	0.1224	0.215	1147	38.2
313.15	0.1374	0.2231	1170.2	51.2
313.15	0.1438	0.1942	1162.3	54.1
313.15	0.1508	0.168	1154.3	42.9
313.15	0.161	0.1395	1147.8	40.7
313.15	0.1747	0.1095	1144.7	39.9
313.15	0.1954	0.0819	1141.3	15.8
313.15	0.2124	0.0558	1137.3	34
313.15	0.2299	0.0377	1136.5	32.4
313.15	0.2501	0.0186	1139.4	3.3
313.15	0.2758	0	1142.3	5.2
323.15	0	0.3192	1156.3	36.3
323.15	0.0269	0.3098	1161.1	31.8
323.15	0.0637	0.3036	1175.2	18.2
323.15	0.1059	0.3029	1195.7	36.4
323.15	0.1419	0.3065	1226.9	42.7
323.15	0.1732	0.3151	1258.3	45.7
323.15	0.1992	0.3247	1282.2	42.1
323.15	0.2071	0.2919	1261.3	45.4
323.15	0.2094	0.2523	1234.1	40.5
323.15	0.2172	0.2146	1201	43.1
323.15	0.2346	0.1795	1190.8	47.8
323.15	0.2511	0.1433	1180.8	40.4
323.15	0.275	0.1112	1176.6	40
323.15	0.296	0.079	1172.5	44.3
323.15	0.3266	0.0496	1177.2	92.2
323.15	0.3572	0.0214	1183.8	39.7
323.15	0.3758	0	1190	10.5

System: 1,4-dioxane + 3-nitro-1,2-benzenedicarboxylic acid + 4-nitrophthalic acid; phases: Liquid, Crystal
Fixed: Pressure, kPa = 101.3
Property: Mass fraction of 4-nitrophthalic acid (Liquid); method: Chromatography
Temperature, K	Mass fraction of 3-nitro-1,2-benzenedicarboxylic acid	Mass fraction of 4-nitrophthalic acid	uncertainty
283.15	0.1502	0	
283.15	0.1445	0.0182	0.0182
283.15	0.1397	0.0416	0.04
283.15	0.1395	0.0665	0.04
283.15	0.1461	0.0958	0.04
293.15	0.1744	0	
293.15	0.1625	0.0282	0.0282
293.15	0.1642	0.0677	0.04
293.15	0.1704	0.1005	0.04
303.15	0.2205	0	
303.15	0.2127	0.0182	0.0182
303.15	0.2074	0.0415	0.04
303.15	0.2049	0.0668	0.04
303.15	0.2074	0.0967	0.04
303.15	0.215	0.1224	0.04
313.15	0.2205	0	
313.15	0.2127	0.0181	0.0181
313.15	0.2074	0.0415	0.04
313.15	0.2049	0.0668	0.04
313.15	0.2074	0.0967	0.04
313.15	0.215	0.1224	0.04
323.15	0.3192	0	
323.15	0.3098	0.0269	0.0269
323.15	0.3036	0.0637	0.04
323.15	0.3029	0.1059	0.04
323.15	0.3065	0.1419	0.04
323.15	0.3151	0.1732	0.04

System: 1,4-dioxane + 3-nitro-1,2-benzenedicarboxylic acid + 4-nitrophthalic acid; phases: Liquid, Crystal of intercomponent compound 1
Fixed: Pressure, kPa = 101.3
Property: Mass fraction of 4-nitrophthalic acid (Liquid); method: Chromatography
Temperature, K	Mass fraction of 3-nitro-1,2-benzenedicarboxylic acid	Mass fraction of 4-nitrophthalic acid	uncertainty
283.15	0.1421	0.1261	0.0429
283.15	0.1186	0.1335	0.0434
283.15	0.0975	0.1433	0.0431
283.15	0.0773	0.1508	0.0445
283.15	0.0554	0.1611	0.0453
283.15	0.0335	0.1749	0.044
283.15	0.0125	0.1886	0.0408
283.15	0	0.2059	0.04
293.15	0.158	0.1394	0.0429
293.15	0.1275	0.1541	0.0424
293.15	0.0942	0.1704	0.0455
293.15	0.0615	0.1868	0.0469
293.15	0.0282	0.2077	0.0422
293.15	0	0.2302	0.04
303.15	0.1438	0.1942	0.0818
303.15	0.1508	0.168	0.0872
303.15	0.161	0.1395	0.0803
303.15	0.1747	0.1095	0.079
303.15	0.1954	0.0819	0.0718
303.15	0.2124	0.0558	0.0558
303.15	0.2299	0.0377	0.0377
303.15	0.2501	0.0186	0.0186
303.15	0.2758	0	
313.15	0.1942	0.1438	0.0406
313.15	0.168	0.1508	0.0404
313.15	0.1395	0.161	0.0432
313.15	0.1095	0.1747	0.0456
313.15	0.0819	0.1954	0.0489
313.15	0.0558	0.2124	0.0549
313.15	0.0377	0.2299	0.0715
313.15	0.0186	0.2501	0.0482
313.15	0	0.2758	0.04
323.15	0.2919	0.2071	0.0403
323.15	0.2523	0.2094	0.0423
323.15	0.2146	0.2172	0.0417
323.15	0.1795	0.2346	0.0441
323.15	0.1433	0.2511	0.0462
323.15	0.1112	0.275	0.049
323.15	0.079	0.296	0.0529
323.15	0.0496	0.3266	0.0539
323.15	0.0214	0.3572	0.046
323.15	0	0.3758	0.04

System: 1,4-dioxane + 3-nitro-1,2-benzenedicarboxylic acid + 4-nitrophthalic acid; phases: Liquid, Crystal, Crystal of intercomponent compound 1
Fixed: Pressure, kPa = 101.3
Property: Mass fraction of 4-nitrophthalic acid (Liquid); method: Chromatography
Temperature, K	Mass fraction of 4-nitrophthalic acid	uncertainty
323.15	0.1992	0.04
313.15	0.1374	0.04
303.15	0.1374	0.04
293.15	0.1332	0.04
283.15	0.1205	0.04
