Measured thermophysical data. Dissolution behavior and thermodynamic properties of lapatinib ditosylate in pure and mixed organic solvents from T = (283.15-323.15) K
Source: Fluid Phase Equilib., 2019, 10.1016/j.fluid.2019.01.005
Compound 1: lapatinib ditosylate, C43H42ClFN4O10S3, InChI=1S/C29H26ClFN4O4S.2C7H8O3S/c1-40(36,37)12-11-32-16-23-7-10-27(39-23)20-5-8-26-24(14-20)29(34-18-33-26)35-22-6-9-28(25(30)15-22)38-17-19-3-2-4-21(31)13-19;2*1-6-2-4-7(5-3-6)11(8,9)10/h2-10,13-15,18,32H,11-12,16-17H2,1H3,(H,33,34,35);2*2-5H,1H3,(H,8,9,10), purity 99.6%
Compound 2: propan-1-ol, C3H8O, InChI=1S/C3H8O/c1-2-3-4/h4H,2-3H2,1H3, purity 99.5%
Compound 3: propan-2-ol, C3H8O, InChI=1S/C3H8O/c1-3(2)4/h3-4H,1-2H3, purity 99.6%
Compound 4: acetone, C3H6O, InChI=1S/C3H6O/c1-3(2)4/h1-2H3, purity 99.5%
Compound 5: acetonitrile, C2H3N, InChI=1S/C2H3N/c1-2-3/h1H3, purity 99.6%
Compound 6: ethyl acetate, C4H8O2, InChI=1S/C4H8O2/c1-3-6-4(2)5/h3H2,1-2H3, purity 99.5%
Compound 7: toluene, C7H8, InChI=1S/C7H8/c1-7-5-3-2-4-6-7/h2-6H,1H3, purity 99.5%
Compound 8: tetrahydrofuran, C4H8O, InChI=1S/C4H8O/c1-2-4-5-3-1/h1-4H2, purity 99.6%
Compound 9: butan-1-ol, C4H10O, InChI=1S/C4H10O/c1-2-3-4-5/h5H,2-4H2,1H3, purity 99.5%

System: lapatinib ditosylate + propan-1-ol; phases: Liquid, Crystal
Fixed: Pressure, kPa = 101.1
Property: Mole fraction of lapatinib ditosylate (Liquid); method: Chromatography
Temperature, K	Mole fraction of lapatinib ditosylate	uncertainty
283.15	2.039e-06	1.59e-07
288.15	2.864e-06	2.24e-07
293.15	4.078e-06	3.18e-07
298.15	5.682e-06	4.44e-07
303.15	7.806e-06	6.09e-07
308.15	1.022e-05	8e-07
313.15	1.344e-05	1.05e-06
318.15	1.738e-05	1.36e-06
323.15	2.226e-05	1.74e-06

System: lapatinib ditosylate + propan-2-ol; phases: Liquid, Crystal
Fixed: Pressure, kPa = 101.1
Property: Mole fraction of lapatinib ditosylate (Liquid); method: Chromatography
Temperature, K	Mole fraction of lapatinib ditosylate	uncertainty
283.15	1.223e-06	9.6e-08
288.15	1.714e-06	1.34e-07
293.15	2.546e-06	1.99e-07
298.15	3.704e-06	2.89e-07
303.15	5.149e-06	4.02e-07
308.15	7.041e-06	5.5e-07
313.15	9.49e-06	7.4e-07
318.15	1.257e-05	9.8e-07
323.15	1.678e-05	1.31e-06

System: lapatinib ditosylate + butan-1-ol; phases: Liquid, Crystal
Fixed: Pressure, kPa = 101.1
Property: Mole fraction of lapatinib ditosylate (Liquid); method: Chromatography
Temperature, K	Mole fraction of lapatinib ditosylate	uncertainty
283.15	9.393e-07	7.34e-08
288.15	1.354e-06	1.06e-07
293.15	1.961e-06	1.53e-07
298.15	2.706e-06	2.11e-07
303.15	4.058e-06	3.17e-07
308.15	5.938e-06	4.64e-07
313.15	8.198e-06	6.4e-07
318.15	1.107e-05	8.6e-07
323.15	1.48e-05	1.2e-06

System: lapatinib ditosylate + ethyl acetate; phases: Liquid, Crystal
Fixed: Pressure, kPa = 101.1
Property: Mole fraction of lapatinib ditosylate (Liquid); method: Chromatography
Temperature, K	Mole fraction of lapatinib ditosylate	uncertainty
283.15	5.646e-07	4.41e-08
288.15	8.424e-07	6.58e-08
293.15	1.347e-06	1.05e-07
298.15	2.021e-06	1.58e-07
303.15	2.844e-06	2.22e-07
308.15	3.847e-06	3e-07
313.15	5.022e-06	3.92e-07
318.15	6.567e-06	5.13e-07
323.15	8.898e-06	6.95e-07

System: lapatinib ditosylate + acetone; phases: Liquid, Crystal
Fixed: Pressure, kPa = 101.1
Property: Mole fraction of lapatinib ditosylate (Liquid); method: Chromatography
Temperature, K	Mole fraction of lapatinib ditosylate	uncertainty
283.15	5.051e-05	3.94e-06
288.15	6.553e-05	5.12e-06
293.15	8.621e-05	6.73e-06
298.15	0.0001149	9e-06
303.15	0.0001507	1.18e-05
308.15	0.0001909	1.49e-05
313.15	0.0002403	1.88e-05
318.15	0.000297	2.3e-05
323.15	0.0003549	2.77e-05

System: lapatinib ditosylate + toluene; phases: Liquid, Crystal
Fixed: Pressure, kPa = 101.1
Property: Mole fraction of lapatinib ditosylate (Liquid); method: Chromatography
Temperature, K	Mole fraction of lapatinib ditosylate	uncertainty
283.15	2.994e-07	2.34e-08
288.15	4.562e-07	3.56e-08
293.15	7.122e-07	5.56e-08
298.15	1.143e-06	8.9e-08
303.15	1.747e-06	1.36e-07
308.15	2.58e-06	2e-07
313.15	3.651e-06	2.85e-07
318.15	5.234e-06	4.09e-07
323.15	7.463e-06	5.83e-07

System: lapatinib ditosylate + acetonitrile; phases: Liquid, Crystal
Fixed: Pressure, kPa = 101.1
Property: Mole fraction of lapatinib ditosylate (Liquid); method: Chromatography
Temperature, K	Mole fraction of lapatinib ditosylate	uncertainty
283.15	2.934e-06	2.29e-07
288.15	4.039e-06	3.15e-07
293.15	5.494e-06	4.29e-07
298.15	7.558e-06	5.9e-07
303.15	1.01e-05	8e-07
308.15	1.306e-05	1.02e-06
313.15	1.688e-05	1.32e-06
318.15	2.107e-05	1.64e-06
323.15	2.584e-05	2.02e-06

System: lapatinib ditosylate + tetrahydrofuran; phases: Liquid, Crystal
Fixed: Pressure, kPa = 101.1
Property: Mole fraction of lapatinib ditosylate (Liquid); method: Chromatography
Temperature, K	Mole fraction of lapatinib ditosylate	uncertainty
283.15	3.174e-05	2.48e-06
288.15	4.13e-05	3.2e-06
293.15	5.352e-05	4.18e-06
298.15	6.659e-05	5.2e-06
303.15	8.289e-05	6.47e-06
308.15	0.0001005	7.8e-06
313.15	0.0001215	9.5e-06
318.15	0.0001466	1.14e-05
323.15	0.0001754	1.37e-05
