Measured thermophysical data. Separation of thiophene, or benzothiophene from model fuel using glycols. Liquid-liquid phase equilibria and oxidative desulfurization study
Source: Fluid Phase Equilib., 2019, 10.1016/j.fluid.2018.10.017
Compound 1: diethylene glycol, C4H10O3, InChI=1S/C4H10O3/c5-1-3-7-4-2-6/h5-6H,1-4H2, purity 99%
Compound 2: thiophene, C4H4S, InChI=1S/C4H4S/c1-2-4-5-3-1/h1-4H, purity 99%
Compound 3: heptane, C7H16, InChI=1S/C7H16/c1-3-5-7-6-4-2/h3-7H2,1-2H3, purity 99%
Compound 4: benzo[b]thiophene, C8H6S, InChI=1S/C8H6S/c1-2-4-8-7(3-1)5-6-9-8/h1-6H, purity 98%
Compound 5: triethylene glycol, C6H14O4, InChI=1S/C6H14O4/c7-1-3-9-5-6-10-4-2-8/h7-8H,1-6H2, purity 99%

System: diethylene glycol + thiophene + heptane; phases: Liquid mixture 2, Liquid mixture 1
Fixed: Temperature, K = 308.15
Fixed: Pressure, kPa = 101
Property: Mole fraction of heptane (Liquid mixture 2); method: Chromatography
Property: Mole fraction of heptane (Liquid mixture 1); method: Chromatography
Property: Mole fraction of thiophene (Liquid mixture 1); method: Chromatography
Mole fraction of thiophene	Mole fraction of heptane	uncertainty	Mole fraction of heptane	uncertainty	Mole fraction of thiophene	uncertainty
0	0.008	0.006	1		0	
0.054	0.009	0.006	0.888	0.009	0.11	
0.1	0.009	0.006	0.771	0.009	0.228	
0.165	0.012	0.006	0.663	0.009	0.336	
0.21	0.013	0.006	0.581	0.009	0.418	
0.254	0.014	0.006	0.496	0.009	0.502	
0.286	0.016	0.006	0.381	0.009	0.613	
0.338	0.019	0.006	0.338	0.009	0.655	
0.349	0.018	0.006	0.289	0.009	0.699	
0.378	0.02	0.006	0.253	0.009	0.733	
0.404	0.022	0.006	0.218	0.019	0.766	
0.653	0.035	0.006	0.06	0.02	0.769	
0.629	0.037	0.006	0.072	0.012	0.794	
0.415	0.022	0.006	0.172	0.013	0.798	
0.466	0.024	0.006	0.143	0.017	0.817	
0.615	0.035	0.006	0.079	0.021	0.818	
0.594	0.032	0.006	0.082	0.014	0.822	
0.57	0.031	0.006	0.093	0.013	0.825	
0.504	0.026	0.006	0.12	0.026	0.831	

System: diethylene glycol + benzo[b]thiophene + heptane; phases: Liquid mixture 2, Liquid mixture 1
Fixed: Temperature, K = 308.15
Fixed: Pressure, kPa = 101
Property: Mole fraction of heptane (Liquid mixture 2); method: Chromatography
Property: Mole fraction of heptane (Liquid mixture 1); method: Chromatography
Property: Mole fraction of benzo[b]thiophene (Liquid mixture 1); method: Chromatography
Mole fraction of benzo[b]thiophene	Mole fraction of heptane	uncertainty	Mole fraction of heptane	uncertainty	Mole fraction of benzo[b]thiophene	uncertainty
0	0.008	0.006	0.996	0.004	0	
0.006	0.01	0.006	0.987	0.01	0.007	
0.058	0.011	0.006	0.898	0.008	0.1	
0.105	0.014	0.006	0.812	0.009	0.187	
0.171	0.018	0.006	0.726	0.009	0.273	
0.181	0.014	0.006	0.652	0.009	0.347	
0.208	0.019	0.006	0.585	0.009	0.41	
0.22	0.022	0.006	0.523	0.009	0.472	
0.248	0.023	0.006	0.448	0.009	0.545	
0.259	0.019	0.006	0.385	0.009	0.604	
0.277	0.024	0.006	0.341	0.009	0.65	
0.306	0.023	0.006	0.298	0.01	0.687	
0.323	0.026	0.006	0.267	0.009	0.712	
0.352	0.026	0.006	0.203	0.01	0.769	
0.384	0.026	0.006	0.157	0.012	0.802	
0.392	0.027	0.006	0.126	0.028	0.814	
0.527	0.024	0.006	0.047	0.015	0.817	
0.502	0.024	0.006	0.061	0.012	0.822	
0.427	0.024	0.006	0.091	0.019	0.832	

System: triethylene glycol + thiophene + heptane; phases: Liquid mixture 2, Liquid mixture 1
Fixed: Temperature, K = 308.15
Fixed: Pressure, kPa = 101
Property: Mole fraction of heptane (Liquid mixture 2); method: Chromatography
Property: Mole fraction of heptane (Liquid mixture 1); method: Chromatography
Property: Mole fraction of thiophene (Liquid mixture 1); method: Chromatography
Mole fraction of thiophene	Mole fraction of heptane	uncertainty	Mole fraction of heptane	uncertainty	Mole fraction of thiophene	uncertainty
0	0.012	0.006	1		0	
0.085	0.014	0.006	0.89	0.009	0.11	
0.176	0.018	0.006	0.797	0.009	0.203	
0.187	0.018	0.006	0.754	0.009	0.246	
0.287	0.021	0.006	0.623	0.009	0.374	
0.337	0.023	0.006	0.579	0.009	0.421	
0.362	0.024	0.006	0.534	0.009	0.462	
0.384	0.025	0.006	0.44	0.009	0.554	
0.406	0.026	0.006	0.411	0.009	0.582	
0.42	0.036	0.006	0.379	0.009	0.613	
0.47	0.03	0.006	0.353	0.009	0.638	
0.483	0.032	0.006	0.326	0.009	0.663	
0.55	0.035	0.006	0.292	0.009	0.695	
0.562	0.037	0.006	0.267	0.009	0.716	
0.583	0.041	0.006	0.244	0.021	0.736	
0.707	0.068	0.006	0.116	0.018	0.763	
0.585	0.042	0.006	0.202	0.015	0.768	
0.702	0.068	0.007	0.132	0.013	0.779	
0.608	0.047	0.006	0.178	0.013	0.783	
0.662	0.055	0.006	0.156	0.018	0.791	
0.685	0.061	0.006	0.15	0.013	0.797	

System: triethylene glycol + benzo[b]thiophene + heptane; phases: Liquid mixture 2, Liquid mixture 1
Fixed: Temperature, K = 308.15
Fixed: Pressure, kPa = 101
Property: Mole fraction of heptane (Liquid mixture 2); method: Chromatography
Property: Mole fraction of heptane (Liquid mixture 1); method: Chromatography
Property: Mole fraction of benzo[b]thiophene (Liquid mixture 1); method: Chromatography
Mole fraction of benzo[b]thiophene	Mole fraction of heptane	uncertainty	Mole fraction of heptane	uncertainty	Mole fraction of benzo[b]thiophene	uncertainty
0	0.012	0.006	0.997	0.003	0	
0.05	0.015	0.006	0.95	0.009	0.048	
0.103	0.017	0.006	0.89	0.009	0.107	
0.166	0.021	0.006	0.823	0.009	0.173	
0.215	0.025	0.006	0.775	0.009	0.224	
0.269	0.04	0.006	0.667	0.009	0.33	
0.326	0.036	0.006	0.596	0.009	0.4	
0.368	0.036	0.006	0.531	0.009	0.46	
0.376	0.036	0.006	0.489	0.009	0.5	
0.384	0.04	0.006	0.466	0.009	0.522	
0.412	0.046	0.006	0.415	0.009	0.571	
0.443	0.053	0.006	0.383	0.009	0.597	
0.446	0.053	0.006	0.34	0.011	0.64	
0.492	0.056	0.006	0.282	0.029	0.666	
0.61	0.101	0.007	0.149	0.04	0.677	
0.602	0.096	0.008	0.156	0.017	0.68	
0.591	0.087	0.008	0.174	0.022	0.684	
0.53	0.071	0.006	0.234	0.052	0.689	
0.54	0.074	0.006	0.208	0.035	0.689	

System: diethylene glycol + heptane; phases: Liquid mixture 2, Liquid mixture 1
Property: Mole fraction of heptane (Liquid mixture 2); method: Chromatography
Temperature, K	Pressure, kPa	Mole fraction of heptane	uncertainty
308.15	101	0.008	0.006

System: diethylene glycol + heptane; phases: Liquid mixture 1, Liquid mixture 2
Property: Mole fraction of heptane (Liquid mixture 1); method: Chromatography
Temperature, K	Pressure, kPa	Mole fraction of heptane	uncertainty
308.15	101	0.996	0.004

System: triethylene glycol + heptane; phases: Liquid mixture 2, Liquid mixture 1
Property: Mole fraction of heptane (Liquid mixture 2); method: Chromatography
Temperature, K	Pressure, kPa	Mole fraction of heptane	uncertainty
308.15	101	0.012	0.006

System: triethylene glycol + heptane; phases: Liquid mixture 1, Liquid mixture 2
Property: Mole fraction of heptane (Liquid mixture 1); method: Chromatography
Temperature, K	Pressure, kPa	Mole fraction of heptane	uncertainty
308.15	101	0.997	0.003
