Measured thermophysical data. Determination and correlation of excess molar enthalpies of thebinary carbon dioxide + ethyl acetate system at 298.15 to 308.15 K and 5.0 to 7.0 MPa
Source: Fluid Phase Equilib., 2014, 10.1016/j.fluid.2013.10.038
Compound 1: carbon dioxide, CO2, InChI=1S/CO2/c2-1-3
Compound 2: ethyl acetate, C4H8O2, InChI=1S/C4H8O2/c1-3-6-4(2)5/h3H2,1-2H3

System: carbon dioxide + ethyl acetate; phases: Liquid
Property: Excess molar enthalpy (molar enthalpy of mixing), kJ/mol (Liquid); method: Flow calorimetry
Pressure, kPa	Temperature, K	Mole fraction of carbon dioxide	Excess molar enthalpy (molar enthalpy of mixing), kJ/mol	uncertainty
5000	298.15	0.099	-1.188	0.035
5000	298.15	0.199	-2.371	0.056
5000	298.15	0.3	-3.5	0.078
5000	298.15	0.4	-4.628	0.101
5000	298.15	0.5	-5.718	0.124
6000	298.15	0.101	-1.052	0.035
6000	298.15	0.2	-2.141	0.053
6000	298.15	0.3	-3.166	0.075
6000	298.15	0.399	-4.117	0.096
6000	298.15	0.5	-5.078	0.11
7000	298.15	0.1	-0.383	0.017
7000	298.15	0.2	-0.7	0.034
7000	298.15	0.299	-1.001	0.049
7000	298.15	0.4	-1.27	0.064
5000	303.15	0.099	-1.231	0.035
5000	303.15	0.199	-2.436	0.057
5000	303.15	0.3	-3.641	0.081
5000	303.15	0.4	-4.75	0.103
6000	303.15	0.101	-1.151	0.034
6000	303.15	0.2	-2.24	0.053
6000	303.15	0.3	-3.32	0.074
6000	303.15	0.399	-4.344	0.095
6000	303.15	0.5	-5.31	0.116
7000	303.15	0.1	-0.903	0.03
7000	303.15	0.2	-1.809	0.044
7000	303.15	0.299	-2.705	0.063
7000	303.15	0.4	-3.553	0.081
7000	303.15	0.5	-4.275	0.094
5000	308.15	0.099	-1.448	0.036
5000	308.15	0.199	-2.326	0.054
5000	308.15	0.3	-3.51	0.078
5000	308.15	0.4	-4.606	0.1
6000	308.15	0.101	-1.147	0.033
6000	308.15	0.2	-2.271	0.053
6000	308.15	0.3	-3.309	0.074
6000	308.15	0.399	-4.383	0.096
7000	308.15	0.1	-0.994	0.029
7000	308.15	0.2	-1.979	0.047
7000	308.15	0.299	-2.965	0.066
7000	308.15	0.4	-3.881	0.085
7000	308.15	0.5	-4.73	0.103
