Measured thermophysical data. Isothermal vapor- liquid equilibria and excess molar enthalpy of 2-methylpyrazine (2MP) containing binary mixtures. Comparison with DISQUAC predictions
Source: Fluid Phase Equilib., 2015, 10.1016/j.fluid.2015.03.033
Compound 1: 2-methylpyrazine, C5H6N2, InChI=1S/C5H6N2/c1-5-4-6-2-3-7-5/h2-4H,1H3, purity 99%
Compound 2: toluene, C7H8, InChI=1S/C7H8/c1-7-5-3-2-4-6-7/h2-6H,1H3, purity 99.3%
Compound 3: heptane, C7H16, InChI=1S/C7H16/c1-3-5-7-6-4-2/h3-7H2,1-2H3, purity 99%
Compound 4: cyclohexane, C6H12, InChI=1S/C6H12/c1-2-4-6-5-3-1/h1-6H2, purity 99.7%

System: 2-methylpyrazine; phases: Liquid, Gas
Property: Vapor or sublimation pressure, kPa (Liquid); method: Closed cell (Static) method
Temperature, K	Vapor or sublimation pressure, kPa	uncertainty
263.72	0.109	0.06
273.47	0.23	0.06
283.27	0.457	0.06
293.24	0.866	0.021
303.18	1.563	0.012
313.12	2.697	0.014
323.13	4.476	0.018
333.11	7.151	0.024
343.05	11.031	0.033
353.03	16.606	0.046
362.95	24.076	0.059

System: toluene; phases: Liquid, Gas
Property: Vapor or sublimation pressure, kPa (Liquid); method: Closed cell (Static) method
Temperature, K	Vapor or sublimation pressure, kPa	uncertainty
263.64	0.484	0.005
273.47	0.925	0.009
283.32	1.68	0.011
293.24	2.926	0.014
298.25	3.803	0.016
303.21	4.896	0.019
303.23	4.896	0.019
303.23	4.894	0.019
313.19	7.872	0.025
313.22	7.872	0.025
323.22	12.248	0.035
333.2	18.574	0.049
343.16	27.202	0.064

System: heptane; phases: Liquid, Gas
Property: Vapor or sublimation pressure, kPa (Liquid); method: Closed cell (Static) method
Temperature, K	Vapor or sublimation pressure, kPa	uncertainty
263.45	0.817	0.008
273.27	1.548	0.011
283.21	2.77	0.014
293.25	4.772	0.019
303.15	7.807	0.026
313.12	12.408	0.037
323.1	18.976	0.052
333.07	28.134	0.073
343.04	40.624	0.101
353.01	57.559	0.132

System: cyclohexane; phases: Liquid, Gas
Property: Vapor or sublimation pressure, kPa (Liquid); method: Closed cell (Static) method
Temperature, K	Vapor or sublimation pressure, kPa	uncertainty
283.32	6.389	0.023
288.28	8.195	0.026
293.27	10.417	0.031
298.25	13.173	0.037
303.27	16.453	0.046
313.24	24.971	0.062
323.21	36.721	0.086
333.21	52.48	0.116
343.18	72.982	0.154
353.14	99.11	0.195

System: toluene + 2-methylpyrazine; phases: Liquid
Fixed: Temperature, K = 303.15
Fixed: Pressure, kPa = 100
Property: Excess molar enthalpy (molar enthalpy of mixing), kJ/mol (Liquid); method: Calvet calorimetry
Mole fraction of 2-methylpyrazine	Excess molar enthalpy (molar enthalpy of mixing), kJ/mol	uncertainty
0.156	0.028	0.003
0.256	0.048	0.005
0.421	0.073	0.007
0.465	0.075	0.008
0.475	0.075	0.008
0.561	0.069	0.007
0.698	0.039	0.004
0.76	0.029	0.003

System: toluene + 2-methylpyrazine; phases: Gas, Liquid
Property: Mole fraction of 2-methylpyrazine (Gas); method: Chromatography
Mole fraction of 2-methylpyrazine	Temperature, K	Mole fraction of 2-methylpyrazine	uncertainty
0.1346	263.153	0.0384	0.0005
0.2424	263.153	0.0736	0.0008
0.3729	263.153	0.1208	0.0011
0.505	263.153	0.1783	0.0017
0.6416	263.153	0.2624	0.0026
0.7642	263.153	0.3866	0.0041
0.1346	273.15	0.0425	0.0006
0.2424	273.15	0.0807	0.0008
0.3729	273.15	0.1318	0.0013
0.505	273.15	0.1943	0.0019
0.6416	273.15	0.2848	0.0028
0.7642	273.15	0.4151	0.0045
0.1346	283.15	0.0465	0.0006
0.2424	283.15	0.0876	0.0009
0.3729	283.15	0.1424	0.0014
0.505	283.15	0.2094	0.002
0.6416	283.15	0.3056	0.0031
0.7642	283.15	0.4408	0.0048
0.1346	293.15	0.0504	0.0006
0.2424	293.15	0.0942	0.0009
0.3729	293.15	0.1525	0.0015
0.505	293.15	0.2236	0.0022
0.6416	293.15	0.3248	0.0033
0.7642	293.15	0.4638	0.0052
0.1346	303.15	0.0541	0.0006
0.2424	303.15	0.1006	0.001
0.3729	303.15	0.1622	0.0016
0.505	303.15	0.2371	0.0023
0.6416	303.15	0.3426	0.0035
0.7642	303.15	0.4845	0.0055
0.1346	313.15	0.0576	0.0007
0.2424	313.15	0.1069	0.001
0.3729	313.15	0.1716	0.0016
0.505	313.15	0.2499	0.0025
0.6416	313.15	0.359	0.004
0.7642	313.15	0.5031	0.0057
0.1346	323.15	0.0613	0.0007
0.2424	323.15	0.113	0.001
0.3729	323.15	0.1808	0.0017
0.505	323.15	0.2622	0.0026
0.6416	323.15	0.3743	0.0039
0.7642	323.15	0.5198	0.0056
0.1346	333.15	0.0646	0.0007
0.2424	333.15	0.1189	0.0011
0.3729	333.15	0.1897	0.0018
0.505	333.15	0.274	0.0027
0.6416	333.15	0.3887	0.0041
0.7642	333.15	0.5348	0.0055
0.1346	343.15	0.067	0.001
0.2424	343.15	0.1247	0.0012
0.3729	343.15	0.1984	0.0019
0.505	343.15	0.2853	0.0028
0.6416	343.15	0.4021	0.0043
0.7642	343.15	0.5485	0.0054
0.1346	353.15	0.0711	0.0008
0.2424	353.15	0.1304	0.0013
0.3729	353.15	0.2069	0.002
0.505	353.15	0.2964	0.003
0.6416	353.15	0.4148	0.0045
0.7642	353.15	0.5609	0.0053
0.1346	363.15	0.0741	0.0008
0.2424	363.15	0.136	0.0013
0.3729	363.15	0.2153	0.0021
0.505	363.15	0.3071	0.0031
0.6416	363.15	0.4269	0.0046
0.7642	363.15	0.5723	0.0052

System: toluene + 2-methylpyrazine; phases: Liquid, Gas
Property: Vapor or sublimation pressure, kPa (Liquid); method: Closed cell (Static) method
Mole fraction of 2-methylpyrazine	Temperature, K	Vapor or sublimation pressure, kPa	uncertainty
0.1346	263.15	0.425	0.009
0.2424	263.15	0.381	0.008
0.3729	263.15	0.345	0.008
0.505	263.15	0.301	0.007
0.6416	263.15	0.252	0.006
0.7642	263.15	0.203	0.005
0.1346	273.15	0.829	0.015
0.2424	273.15	0.747	0.014
0.3729	273.15	0.679	0.013
0.505	273.15	0.596	0.011
0.6416	273.15	0.501	0.01
0.7642	273.15	0.409	0.008
0.1346	283.15	1.529	0.021
0.2424	283.15	1.393	0.02
0.3729	283.15	1.262	0.022
0.505	283.15	1.114	0.02
0.6416	283.15	0.942	0.017
0.7642	283.15	0.778	0.014
0.1346	293.15	2.683	0.025
0.2424	293.15	2.439	0.024
0.3729	293.15	2.233	0.023
0.505	293.15	1.981	0.022
0.6416	293.15	1.688	0.021
0.7642	293.15	1.408	0.02
0.1346	303.15	4.509	0.032
0.2424	303.15	4.117	0.03
0.3729	303.15	3.782	0.029
0.505	303.15	3.371	0.028
0.6416	303.15	2.893	0.026
0.7642	303.15	2.438	0.024
0.1346	313.15	7.288	0.042
0.2424	313.15	6.685	0.04
0.3729	313.15	6.161	0.038
0.505	313.15	5.517	0.036
0.6416	313.15	4.768	0.033
0.7642	313.15	4.056	0.03
0.1346	323.15	11.382	0.057
0.2424	323.15	10.487	0.054
0.3729	323.15	9.693	0.051
0.505	323.15	8.718	0.048
0.6416	323.15	7.589	0.044
0.7642	323.15	6.513	0.04
0.1346	333.15	17.234	0.079
0.2424	333.15	15.946	0.074
0.3729	333.15	14.781	0.07
0.505	333.15	13.349	0.065
0.6416	333.15	11.706	0.059
0.7642	333.15	10.128	0.054
0.1346	343.15	25.3799	0.1089
0.2424	343.15	23.581	0.103
0.3729	343.15	21.916	0.097
0.505	343.15	19.873	0.09
0.6416	343.15	17.552	0.082
0.7642	343.15	15.3	0.074
0.1346	353.15	36.445	0.149
0.2424	353.15	34.002	0.141
0.3729	353.15	31.683	0.133
0.505	353.15	28.838	0.124
0.6416	353.15	25.65	0.113
0.7642	353.15	22.519	0.101
0.1346	363.15	51.161	0.199
0.2424	363.15	47.92	0.189
0.3729	363.15	44.76	0.178
0.505	363.15	40.89	0.166
0.6416	363.15	36.622	0.151
0.7642	363.15	32.366	0.137

System: 2-methylpyrazine + cyclohexane; phases: Liquid
Fixed: Temperature, K = 303.15
Fixed: Pressure, kPa = 100
Property: Excess molar enthalpy (molar enthalpy of mixing), kJ/mol (Liquid); method: Calvet calorimetry
Mole fraction of 2-methylpyrazine	Excess molar enthalpy (molar enthalpy of mixing), kJ/mol	uncertainty
0.094	0.68	0.071
0.153	0.977	0.099
0.251	1.287	0.129
0.381	1.489	0.149
0.474	1.522	0.153
0.566	1.505	0.151
0.639	1.383	0.139
0.766	1.012	0.102
0.845	0.732	0.075

System: 2-methylpyrazine + cyclohexane; phases: Gas, Liquid
Property: Mole fraction of 2-methylpyrazine (Gas); method: Chromatography
Mole fraction of 2-methylpyrazine	Temperature, K	Mole fraction of 2-methylpyrazine	uncertainty
0.1321	283.15	0.03755	0.00051
0.2405	283.15	0.0519	0.0006
0.3801	283.15	0.0608	0.00065
0.5455	283.15	0.06725	0.0007
0.6667	283.15	0.07459	0.00075
0.8358	283.15	0.10698	0.00104
0.9606	283.15	0.28119	0.00275
0.1321	293.15	0.04026	0.00053
0.2405	293.15	0.05698	0.00063
0.3801	293.15	0.06868	0.00071
0.5455	293.15	0.07837	0.00078
0.6667	293.15	0.08869	0.00086
0.8358	293.15	0.12971	0.00125
0.9606	293.15	0.3318	0.00329
0.1321	303.15	0.04317	0.00055
0.2405	303.15	0.06231	0.00067
0.3801	303.15	0.07695	0.00077
0.5455	303.15	0.09016	0.00087
0.6667	303.15	0.10379	0.00098
0.8358	303.15	0.15412	0.00149
0.9606	303.15	0.38201	0.00385
0.1321	313.15	0.04623	0.00057
0.2405	313.15	0.06787	0.0007
0.3801	313.15	0.08558	0.00083
0.5455	313.15	0.10258	0.00096
0.6667	313.15	0.1198	0.0011
0.8358	313.15	0.17993	0.00173
0.9606	313.15	0.43081	0.00444
0.1321	323.15	0.04942	0.00059
0.2405	323.15	0.07363	0.00075
0.3801	323.15	0.09453	0.0009
0.5455	323.15	0.11556	0.00108
0.6667	323.15	0.13662	0.00128
0.8358	323.15	0.20687	0.002
0.9606	323.15	0.47744	0.00505
0.1321	333.15	0.05272	0.00061
0.2405	333.15	0.07956	0.00079
0.3801	333.15	0.10379	0.00097
0.5455	333.15	0.12907	0.00121
0.6667	333.15	0.15417	0.00145
0.8358	333.15	0.23466	0.00227
0.9606	333.15	0.52137	0.00522
0.1321	343.15	0.05608	0.00063
0.2405	343.15	0.08563	0.00084
0.3801	343.15	0.11331	0.00106
0.5455	343.15	0.14304	0.00134
0.6667	343.15	0.17236	0.00162
0.8358	343.15	0.26306	0.00255
0.9606	343.15	0.56232	0.00495
0.1321	353.15	0.05951	0.00066
0.2405	353.15	0.09183	0.00088
0.3801	353.15	0.12307	0.00115
0.5455	353.15	0.15745	0.00148
0.6667	353.15	0.19111	0.00181
0.8358	353.15	0.29182	0.00288
0.9606	353.15	0.60018	0.00469

System: 2-methylpyrazine + cyclohexane; phases: Liquid, Gas
Property: Vapor or sublimation pressure, kPa (Liquid); method: Closed cell (Static) method
Mole fraction of 2-methylpyrazine	Temperature, K	Vapor or sublimation pressure, kPa	uncertainty
0.1321	283.15	5.961	0.038
0.2405	283.15	5.658	0.036
0.3801	283.15	5.438	0.036
0.5455	283.15	5.169	0.035
0.6667	283.15	4.827	0.034
0.8358	283.15	3.699	0.03
0.9606	283.15	1.562	0.022
0.1321	293.15	9.755	0.05
0.2405	293.15	9.235	0.048
0.3801	293.15	8.828	0.047
0.5455	293.15	8.31	0.045
0.6667	293.15	7.704	0.044
0.8358	293.15	5.825	0.037
0.9606	293.15	2.516	0.026
0.1321	303.15	15.348	0.07
0.2405	303.15	14.498	0.067
0.3801	303.15	13.793	0.065
0.5455	303.15	12.878	0.062
0.6667	303.15	11.866	0.059
0.8358	303.15	8.881	0.049
0.9606	303.15	3.947	0.033
0.1321	313.15	23.32	0.098
0.2405	313.15	21.991	0.093
0.3801	313.15	20.831	0.09
0.5455	313.15	19.318	0.086
0.6667	313.15	17.706	0.081
0.8358	313.15	13.155	0.066
0.9606	313.15	6.039	0.043
0.1321	323.15	34.352	0.136
0.2405	323.15	32.351	0.129
0.3801	323.15	30.525	0.124
0.5455	323.15	28.149	0.117
0.6667	323.15	25.682	0.11
0.8358	323.15	18.987	0.089
0.9606	323.15	9.035	0.058
0.1321	333.15	49.224	0.186
0.2405	333.15	46.305	0.177
0.3801	333.15	43.54	0.17
0.5455	333.15	39.963	0.16
0.6667	333.15	36.315	0.149
0.8358	333.15	26.767	0.119
0.9606	333.15	13.238	0.077
0.1321	343.15	68.805	0.252
0.2405	343.15	64.67	0.24
0.3801	343.15	60.616	0.229
0.5455	343.15	55.421	0.214
0.6667	343.15	50.188	0.2
0.8358	343.15	36.939	0.158
0.9606	343.15	19.026	0.103
0.1321	353.15	94.053	0.332
0.2405	353.15	88.343	0.316
0.3801	353.15	82.568	0.3
0.5455	353.15	75.25	0.28
0.6667	353.15	67.94	0.259
0.8358	353.15	49.997	0.203
0.9606	353.15	26.861	0.138

System: 2-methylpyrazine + heptane; phases: Liquid
Fixed: Temperature, K = 303.15
Fixed: Pressure, kPa = 100
Property: Excess molar enthalpy (molar enthalpy of mixing), kJ/mol (Liquid); method: Calvet calorimetry
Mole fraction of 2-methylpyrazine	Excess molar enthalpy (molar enthalpy of mixing), kJ/mol	uncertainty
0.082	0.563	0.061
0.175	1.077	0.109
0.335	1.475	0.148
0.411	1.543	0.155
0.481	1.55	0.155
0.523	1.543	0.155
0.622	1.44	0.145
0.704	1.247	0.125
0.809	0.965	0.098
0.877	0.697	0.072

System: 2-methylpyrazine + heptane; phases: Gas, Liquid
Property: Mole fraction of 2-methylpyrazine (Gas); method: Chromatography
Mole fraction of 2-methylpyrazine	Temperature, K	Mole fraction of 2-methylpyrazine	uncertainty
0.1377	263.15	0.07991	0.0008
0.2415	263.15	0.10142	0.00096
0.4101	263.15	0.11613	0.0011
0.5401	263.15	0.12134	0.00115
0.6815	263.15	0.1262	0.0012
0.8048	263.15	0.13778	0.00133
0.9447	263.15	0.2377	0.0024
0.1377	273.15	0.08268	0.00082
0.2415	273.15	0.10841	0.00103
0.4101	273.15	0.1287	0.00123
0.5401	273.15	0.13722	0.00131
0.6815	273.15	0.14568	0.0014
0.8048	273.15	0.16223	0.00158
0.9447	273.15	0.28248	0.00293
0.1377	283.15	0.08522	0.00084
0.2415	283.15	0.11499	0.00109
0.4101	283.15	0.14095	0.00135
0.5401	283.15	0.15305	0.00147
0.6815	283.15	0.16553	0.0016
0.8048	283.15	0.18749	0.00185
0.9447	283.15	0.32737	0.00349
0.1377	293.15	0.08754	0.00086
0.2415	293.15	0.12113	0.00115
0.4101	293.15	0.1528	0.00147
0.5401	293.15	0.16872	0.00163
0.6815	293.15	0.18557	0.00181
0.8048	293.15	0.21329	0.00213
0.9447	293.15	0.37156	0.00409
0.1377	303.15	0.08968	0.00088
0.2415	303.15	0.12686	0.00121
0.4101	303.15	0.16419	0.00158
0.5401	303.15	0.18412	0.00179
0.6815	303.15	0.20566	0.00202
0.8048	303.15	0.23939	0.00242
0.9447	303.15	0.41441	0.00471
0.1377	313.15	0.09164	0.0009
0.2415	313.15	0.13216	0.00126
0.4101	313.15	0.17509	0.0017
0.5401	313.15	0.19918	0.00195
0.6815	313.15	0.22568	0.00224
0.8048	313.15	0.26558	0.00273
0.9447	313.15	0.45543	0.00534
0.1377	323.15	0.09346	0.00091
0.2415	323.15	0.13707	0.00131
0.4101	323.15	0.18547	0.00181
0.5401	323.15	0.21385	0.00211
0.6815	323.15	0.24556	0.00247
0.8048	323.15	0.29171	0.00304
0.9447	323.15	0.4943	0.00598
0.1377	333.15	0.09515	0.00093
0.2415	333.15	0.14159	0.00136
0.4101	333.15	0.19532	0.00191
0.5401	333.15	0.22811	0.00227
0.6815	333.15	0.26523	0.0027
0.8048	333.15	0.31764	0.00337
0.9447	333.15	0.53082	0.00586
0.1377	343.15	0.09673	0.00094
0.2415	343.15	0.14575	0.0014
0.4101	343.15	0.20466	0.00201
0.5401	343.15	0.24196	0.00243
0.6815	343.15	0.28466	0.00293
0.8048	343.15	0.34325	0.0037
0.9447	343.15	0.56488	0.00559
0.1377	353.15	0.09822	0.00096
0.2415	353.15	0.14957	0.00144
0.4101	353.15	0.21349	0.00211
0.5401	353.15	0.25539	0.00258
0.6815	353.15	0.30382	0.00317
0.8048	353.15	0.36846	0.00405
0.9447	353.15	0.59647	0.00533
0.1377	363.15	0.09964	0.00097
0.2415	363.15	0.15307	0.00148
0.4101	363.15	0.22183	0.0022
0.5401	363.15	0.26841	0.00274
0.6815	363.15	0.3227	0.00341
0.8048	363.15	0.3932	0.0044
0.9447	363.15	0.62564	0.00507

System: 2-methylpyrazine + heptane; phases: Liquid, Gas
Property: Vapor or sublimation pressure, kPa (Liquid); method: Closed cell (Static) method
Mole fraction of 2-methylpyrazine	Temperature, K	Vapor or sublimation pressure, kPa	uncertainty
0.1377	263.15	0.783	0.015
0.2415	263.15	0.771	0.014
0.4101	263.15	0.745	0.014
0.5401	263.15	0.729	0.014
0.6815	263.15	0.713	0.013
0.8048	263.15	0.674	0.016
0.9447	263.15	0.415	0.009
0.1377	273.15	1.49	0.021
0.2415	273.15	1.462	0.021
0.4101	273.15	1.406	0.02
0.5401	273.15	1.369	0.02
0.6815	273.15	1.322	0.02
0.8048	273.15	1.229	0.021
0.9447	273.15	0.757	0.014
0.1377	283.15	2.685	0.025
0.2415	283.15	2.626	0.025
0.4101	283.15	2.517	0.025
0.5401	283.15	2.438	0.024
0.6815	283.15	2.331	0.024
0.8048	283.15	2.137	0.023
0.9447	283.15	1.321	0.02
0.1377	293.15	4.608	0.033
0.2415	293.15	4.498	0.032
0.4101	293.15	4.298	0.031
0.5401	293.15	4.146	0.031
0.6815	293.15	3.928	0.03
0.8048	293.15	3.563	0.029
0.9447	293.15	2.219	0.024
0.1377	303.15	7.58	0.044
0.2415	303.15	7.386	0.044
0.4101	303.15	7.043	0.042
0.5401	303.15	6.767	0.041
0.6815	303.15	6.36	0.039
0.8048	303.15	5.719	0.037
0.9447	303.15	3.602	0.029
0.1377	313.15	12.007	0.062
0.2415	313.15	11.686	0.061
0.4101	313.15	11.125	0.058
0.5401	313.15	10.651	0.056
0.6815	313.15	9.939	0.053
0.8048	313.15	8.877	0.049
0.9447	313.15	5.665	0.037
0.1377	323.15	18.388	0.087
0.2415	323.15	17.883	0.085
0.4101	323.15	17.006	0.081
0.5401	323.15	16.229	0.078
0.6815	323.15	15.047	0.073
0.8048	323.15	13.37	0.067
0.9447	323.15	8.661	0.05
0.1377	333.15	27.328	0.122
0.2415	333.15	26.563	0.119
0.4101	333.15	25.242	0.113
0.5401	333.15	24.017	0.108
0.6815	333.15	22.139	0.101
0.8048	333.15	19.597	0.092
0.9447	333.15	12.906	0.067
0.1377	343.15	39.532	0.169
0.2415	343.15	38.415	0.165
0.4101	343.15	36.49	0.157
0.5401	343.15	34.625	0.15
0.6815	343.15	31.751	0.138
0.8048	343.15	28.027	0.125
0.9447	343.15	18.786	0.091
0.1377	353.15	55.811	0.232
0.2415	353.15	54.231	0.225
0.4101	353.15	51.506	0.215
0.5401	353.15	48.75	0.204
0.6815	353.15	44.493	0.187
0.8048	353.15	39.202	0.168
0.9447	353.15	26.764	0.123
0.1377	363.15	77.079	0.309
0.2415	363.15	74.903	0.301
0.4101	363.15	71.145	0.286
0.5401	363.15	67.183	0.271
0.6815	363.15	61.052	0.247
0.8048	363.15	53.734	0.22
0.9447	363.15	37.387	0.164
