Measured thermophysical data. Measurements of binary diffusion coefficients for metal complexes in organic solvents by the Taylor dispersion method
Source: Fluid Phase Equilib., 2010, 10.1016/j.fluid.2010.06.003
Compound 1: cobalt tris(acetylacetonate), C15H21CoO6, InChI=1S/3C5H8O2.Co/c3*1-4(6)3-5(2)7;/h3*3,6H,1-2H3;/q;;;+3/p-3/b3*4-3-;
Compound 2: palladium bis(2,4-pentanedionate), C10H14O4Pd, InChI=1S/2C5H7O2.Pd/c2*1-4(6)3-5(2)7;/h2*3H,1-2H3;/q2*-1;+2
Compound 3: platinum acetylacetonate, C10H14O4Pt, InChI=1S/2C5H7O2.Pt/c2*1-4(6)3-5(2)7;/h2*3H,1-2H3;/q2*-1;+2
Compound 4: tris(2,4-pentanedionato-O,O')rhodium, C15H21O6Rh, InChI=1S/3C5H7O2.Rh/c3*1-4(6)3-5(2)7;/h3*3H,1-2H3;/q3*-1;+3
Compound 5: ruthenium (III) acetylacetonate, C15H21O6Ru, InChI=1S/3C5H8O2.Ru/c3*1-4(6)3-5(2)7;/h3*3,6H,1-2H3;/q;;;+3/p-3/b3*4-3-;
Compound 6: ferrocene, C10H10Fe, InChI=1S/2C5H5.Fe/c2*1-2-4-5-3-1;/h2*1-5H;
Compound 7: 1,1'-dimethylferrocene, C12H14Fe, InChI=1S/2C6H7.Fe/c2*1-6-4-2-3-5-6;/h2*2-5H,1H3;/q2*-1;+2
Compound 8: ethyl ferrocene, C12H14Fe, InChI=1S/C7H9.C5H5.Fe/c1-2-7-5-3-4-6-7;1-2-4-5-3-1;/h3-6H,2H2,1H3;1-5H;/q2*-1;+2
Compound 9: hexane, C6H14, InChI=1S/C6H14/c1-3-5-6-4-2/h3-6H2,1-2H3, purity 99.9%
Compound 10: cyclohexane, C6H12, InChI=1S/C6H12/c1-2-4-6-5-3-1/h1-6H2, purity 99.9%
Compound 11: ethanol, C2H6O, InChI=1S/C2H6O/c1-2-3/h3H,2H2,1H3, purity 99.8%

System: ferrocene + cyclohexane; phases: Liquid
Fixed: Mole fraction of ferrocene = 0
Property: Binary diffusion coefficient, m2/s (Liquid); method: Taylor dispersion method
Temperature, K	Pressure, kPa	Binary diffusion coefficient, m2/s	uncertainty
313.15	170	1.522e-09	0.152
313.15	190	1.513e-09	0.151
313.15	200	1.498e-09	0.15
313.15	11030	1.312e-09	0.131
313.15	11080	1.315e-09	0.132
313.15	11090	1.324e-09	0.132
313.15	16010	1.246e-09	0.125
313.15	16020	1.247e-09	0.125
313.15	16030	1.25e-09	0.125
313.15	19010	1.208e-09	0.121
313.15	19020	1.213e-09	0.121
313.15	16030	1.25e-09	0.125
313.15	19020	1.215e-09	0.122
313.15	19020	1.243e-09	0.124
313.15	19020	1.212e-09	0.121
323.15	16020	1.479e-09	0.148
323.15	16030	1.483e-09	0.148

System: ethanol + ferrocene; phases: Liquid
Fixed: Temperature, K = 313.15
Fixed: Pressure, kPa = 200
Fixed: Mole fraction of ferrocene = 0
Property: Binary diffusion coefficient, m2/s (Liquid); method: Taylor dispersion method
Binary diffusion coefficient, m2/s	uncertainty
1.479e-09	0.148
1.464e-09	0.146
1.447e-09	0.145

System: ferrocene + hexane; phases: Liquid
Fixed: Mole fraction of ferrocene = 0
Property: Binary diffusion coefficient, m2/s (Liquid); method: Taylor dispersion method
Temperature, K	Pressure, kPa	Binary diffusion coefficient, m2/s	uncertainty
313.05	16020	3.136e-09	0.314
313.05	16030	3.111e-09	0.311
313.15	160	3.647e-09	0.365
313.15	170	3.638e-09	0.364
313.15	10990	3.248e-09	0.535
313.15	11070	3.28e-09	0.537
313.15	11090	3.288e-09	0.537
313.15	15990	3.172e-09	0.317
313.15	16010	3.128e-09	0.313
313.15	16020	3.121e-09	0.312
313.15	16030	3.113e-09	0.311
313.15	19020	3.069e-09	0.307
313.15	160	3.656e-09	0.366
313.15	10990	3.28e-09	0.329
313.15	16030	3.136e-09	0.314
313.15	19020	3.072e-09	0.307
313.15	19020	3.065e-09	0.307

System: cyclohexane + 1,1'-dimethylferrocene; phases: Liquid
Fixed: Mole fraction of 1,1'-dimethylferrocene = 0
Property: Binary diffusion coefficient, m2/s (Liquid); method: Taylor dispersion method
Temperature, K	Pressure, kPa	Binary diffusion coefficient, m2/s	uncertainty
313.15	190	1.36e-09	0.136
313.15	11020	1.202e-09	0.12
313.15	11030	1.199e-09	0.12
313.15	11090	1.207e-09	0.121
313.15	16010	1.139e-09	0.114
313.15	16020	1.143e-09	0.114
313.15	16030	1.134e-09	0.113
313.15	19010	1.093e-09	0.109
313.15	19020	1.109e-09	0.111
313.15	190	1.374e-09	0.137
313.15	16030	1.129e-09	0.113
313.15	19020	1.093e-09	0.109
313.15	190	1.374e-09	0.137
313.15	19020	1.136e-09	0.114
313.15	19020	1.108e-09	0.111
323.15	16000	1.359e-09	0.136
323.15	16020	1.359e-09	0.136
323.15	16030	1.358e-09	0.136

System: ethanol + 1,1'-dimethylferrocene; phases: Liquid
Fixed: Temperature, K = 313.15
Fixed: Pressure, kPa = 200
Fixed: Mole fraction of 1,1'-dimethylferrocene = 0
Property: Binary diffusion coefficient, m2/s (Liquid); method: Taylor dispersion method
Binary diffusion coefficient, m2/s	uncertainty
1.287e-09	0.129
1.297e-09	0.13
1.314e-09	0.131

System: hexane + 1,1'-dimethylferrocene; phases: Liquid
Fixed: Temperature, K = 313.15
Fixed: Mole fraction of 1,1'-dimethylferrocene = 0
Property: Binary diffusion coefficient, m2/s (Liquid); method: Taylor dispersion method
Pressure, kPa	Binary diffusion coefficient, m2/s	uncertainty
160	3.358e-09	0.336
170	3.409e-09	0.341
11030	3.059e-09	0.306
15990	2.901e-09	0.29
16000	2.871e-09	0.287
16010	2.902e-09	0.29
16030	2.904e-09	0.29
19020	2.842e-09	0.284
160	3.371e-09	0.337
11030	3.052e-09	0.305
16000	2.893e-09	0.289
16010	2.903e-09	0.29
160	3.404e-09	0.34
11030	3.054e-09	0.305

System: cyclohexane + ethyl ferrocene; phases: Liquid
Fixed: Mole fraction of ethyl ferrocene = 0
Property: Binary diffusion coefficient, m2/s (Liquid); method: Taylor dispersion method
Temperature, K	Pressure, kPa	Binary diffusion coefficient, m2/s	uncertainty
313.15	170	1.378e-09	0.138
313.15	180	1.362e-09	0.136
313.15	11020	1.21e-09	0.121
313.15	11030	1.204e-09	0.12
313.15	16030	1.152e-09	0.115
313.15	19010	1.147e-09	0.115
313.15	19020	1.125e-09	0.113
313.15	19030	1.107e-09	0.111
313.15	180	1.378e-09	0.138
313.15	11020	1.209e-09	0.121
313.15	16030	1.141e-09	0.114
313.15	19010	1.122e-09	0.112
313.15	19020	1.118e-09	0.112
313.15	16030	1.138e-09	0.114
313.15	19020	1.123e-09	0.112
313.15	16030	1.141e-09	0.114
313.15	19020	1.12e-09	0.112
323.15	16020	1.363e-09	0.136
323.15	16030	1.351e-09	0.135

System: ethanol + ethyl ferrocene; phases: Liquid
Fixed: Temperature, K = 313.15
Fixed: Pressure, kPa = 200
Fixed: Mole fraction of ethyl ferrocene = 0
Property: Binary diffusion coefficient, m2/s (Liquid); method: Taylor dispersion method
Binary diffusion coefficient, m2/s	uncertainty
1.294e-09	0.129
1.316e-09	0.132
1.313e-09	0.131

System: hexane + ethyl ferrocene; phases: Liquid
Fixed: Temperature, K = 313.15
Fixed: Mole fraction of ethyl ferrocene = 0
Property: Binary diffusion coefficient, m2/s (Liquid); method: Taylor dispersion method
Pressure, kPa	Binary diffusion coefficient, m2/s	uncertainty
160	3.351e-09	0.335
11060	2.975e-09	0.298
11070	3.002e-09	0.3
16010	2.86e-09	0.286
16030	2.872e-09	0.287
18960	2.81e-09	0.281
19010	2.779e-09	0.278
160	3.341e-09	0.334
11070	2.989e-09	0.299
16010	2.888e-09	0.289
19010	2.779e-09	0.278
160	3.373e-09	0.337
160	3.382e-09	0.338
160	3.302e-09	0.33

System: cyclohexane + cobalt tris(acetylacetonate); phases: Liquid
Property: Binary diffusion coefficient, m2/s (Liquid); method: Taylor dispersion method
Temperature, K	Pressure, kPa	Mole fraction of cobalt tris(acetylacetonate)	Binary diffusion coefficient, m2/s	uncertainty
313.15	180	0	7.72e-10	0.077

System: ethanol + cobalt tris(acetylacetonate); phases: Liquid
Fixed: Mole fraction of cobalt tris(acetylacetonate) = 0
Property: Binary diffusion coefficient, m2/s (Liquid); method: Taylor dispersion method
Temperature, K	Pressure, kPa	Binary diffusion coefficient, m2/s	uncertainty
313.15	180	7.72e-10	0.077
313.15	200	7.5e-10	0.075
313.15	180	7.6e-10	0.076
313.15	180	7.49e-10	0.075
313.15	180	7.55e-10	0.076
313.25	180	7.54e-10	0.075

System: hexane + cobalt tris(acetylacetonate); phases: Liquid
Fixed: Temperature, K = 313.15
Fixed: Pressure, kPa = 160
Fixed: Mole fraction of cobalt tris(acetylacetonate) = 0
Property: Binary diffusion coefficient, m2/s (Liquid); method: Taylor dispersion method
Binary diffusion coefficient, m2/s	uncertainty
2.241e-09	0.224
2.247e-09	0.225
2.26e-09	0.226
2.244e-09	0.224

System: ethanol + palladium bis(2,4-pentanedionate); phases: Liquid
Fixed: Temperature, K = 313.15
Fixed: Mole fraction of palladium bis(2,4-pentanedionate) = 0
Property: Binary diffusion coefficient, m2/s (Liquid); method: Taylor dispersion method
Pressure, kPa	Binary diffusion coefficient, m2/s	uncertainty
180	9.78e-10	0.098
200	9.88e-10	0.099
180	9.76e-10	0.098
180	9.74e-10	0.097

System: ethanol + platinum acetylacetonate; phases: Liquid
Fixed: Temperature, K = 313.15
Fixed: Mole fraction of platinum acetylacetonate = 0
Property: Binary diffusion coefficient, m2/s (Liquid); method: Taylor dispersion method
Pressure, kPa	Binary diffusion coefficient, m2/s	uncertainty
180	9.86e-10	0.099
190	9.59e-10	0.096
180	9.83e-10	0.098
180	9.75e-10	0.098

System: ethanol + tris(2,4-pentanedionato-O,O')rhodium; phases: Liquid
Fixed: Temperature, K = 313.15
Fixed: Pressure, kPa = 180
Fixed: Mole fraction of tris(2,4-pentanedionato-O,O')rhodium = 0
Property: Binary diffusion coefficient, m2/s (Liquid); method: Taylor dispersion method
Binary diffusion coefficient, m2/s	uncertainty
7.44e-10	0.074
7.45e-10	0.075
7.44e-10	0.074

System: ethanol + ruthenium (III) acetylacetonate; phases: Liquid
Fixed: Temperature, K = 313.15
Fixed: Mole fraction of ruthenium (III) acetylacetonate = 0
Property: Binary diffusion coefficient, m2/s (Liquid); method: Taylor dispersion method
Pressure, kPa	Binary diffusion coefficient, m2/s	uncertainty
170	7.52e-10	0.075
180	7.59e-10	0.076
190	7.48e-10	0.075
180	7.44e-10	0.074
