Measured thermophysical data. Separation of benzene and thiophene with a mixture of N-methyl-2- pyrrolidinone (NMP) and ionic liquid as the entrainer
Source: Fluid Phase Equilib., 2015, 10.1016/j.fluid.2015.01.005
Compound 1: benzene, C6H6, InChI=1S/C6H6/c1-2-4-6-5-3-1/h1-6H, purity 99.5%
Compound 2: thiophene, C4H4S, InChI=1S/C4H4S/c1-2-4-5-3-1/h1-4H, purity 99%
Compound 3: N-methylpyrrolidone, C5H9NO, InChI=1S/C5H9NO/c1-6-4-2-3-5(6)7/h2-4H2,1H3, purity 99%

System: benzene + thiophene; phases: Liquid, Gas
Fixed: Pressure, kPa = 101.3
Property: Boiling temperature at pressure P, K (Liquid); method: Closed cell (Static) method
Mole fraction of benzene	Boiling temperature at pressure P, K	uncertainty
0	357.26	0.27
0.1095	356.7	0.27
0.2209	356.27	0.27
0.3159	355.87	0.27
0.4132	355.41	0.27
0.5091	355.09	0.27
0.6084	354.56	0.27
0.6996	354.28	0.27
0.7989	353.56	0.27
0.8978	353.25	0.27
1	353.17	0.27

System: benzene + thiophene; phases: Gas, Liquid
Fixed: Pressure, kPa = 101.3
Property: Mole fraction of benzene (Gas); method: Chromatography
Mole fraction of benzene	Mole fraction of benzene	uncertainty
0	0	
0.1095	0.1239	0.0026
0.2209	0.2455	0.0032
0.3159	0.3458	0.004
0.4132	0.445	0.005
0.5091	0.5403	0.0053
0.6084	0.636	0.0044
0.6996	0.7227	0.0037
0.7989	0.816	0.003
0.8978	0.9073	0.0024
1	1	

System: benzene + thiophene + N-methylpyrrolidone; phases: Liquid, Gas
Fixed: Pressure, kPa = 101.3
Property: Mole fraction of thiophene (Liquid); method: Chromatography
Property: Mole fraction of thiophene (Gas); method: Chromatography
Property: Mole fraction of benzene (Gas); method: Chromatography
Temperature, K	Mole fraction of benzene	Mole fraction of thiophene	uncertainty	Mole fraction of thiophene	uncertainty	Mole fraction of benzene	uncertainty
364.33	0.0787	0.7214	0.0029	0.8667	0.0025	0.1305	
367.63	0.2783	0.4186	0.0035	0.5237	0.0053	0.4726	
366.59	0.3623	0.335	0.0029	0.4087	0.0042	0.5876	
365.41	0.4837	0.2135	0.0022	0.2547	0.0028	0.742	
365.29	0.5613	0.1356	0.0019	0.1603	0.0021	0.8363	
364.7	0.6522	0.0473	0.0016	0.0557	0.0017	0.941	
375.6	0.0294	0.5676	0.0039	0.9206	0.002	0.0714	
374.85	0.1204	0.4792	0.0041	0.7285	0.0037	0.2644	
373.2	0.209	0.3884	0.0033	0.5644	0.005	0.4287	
372.17	0.2983	0.3001	0.0027	0.4216	0.0044	0.5726	
371.57	0.3911	0.2087	0.0022	0.2859	0.003	0.7081	
363.46	0.1997	0.5998	0.0036	0.6909	0.004	0.3066	
371.33	0.4464	0.1507	0.0019	0.2042	0.0024	0.7902	
370.59	0.5066	0.0942	0.0017	0.1245	0.0019	0.8701	
362.91	0.3229	0.4753	0.004	0.5301	0.0053	0.4673	
361.9	0.4419	0.3577	0.0031	0.3878	0.004	0.6098	
361.27	0.5594	0.2388	0.0023	0.2555	0.0028	0.7422	
360.78	0.6337	0.1649	0.002	0.1758	0.0022	0.822	
360.44	0.7159	0.0833	0.0017	0.0885	0.0018	0.9092	
369.57	0.0724	0.6259	0.0035	0.8522	0.0026	0.1432	
368.46	0.1729	0.5267	0.0041	0.6851	0.0041	0.3107	
