Measured thermophysical data. Excess volumes and excess heat capacities of {1,2- alkanediol + methanol} mixtures and ionic volumes in these systems
Source: Fluid Phase Equilib., 2015, 10.1016/j.fluid.2015.05.016
Compound 1: methanol, CH4O, InChI=1S/CH4O/c1-2/h2H,1H3, purity 99%
Compound 2: 1,2-propanediol, C3H8O2, InChI=1S/C3H8O2/c1-3(5)2-4/h3-5H,2H2,1H3, purity 99.5%
Compound 3: 1,2-butanediol, C4H10O2, InChI=1S/C4H10O2/c1-2-4(6)3-5/h4-6H,2-3H2,1H3, purity 99.9%
Compound 4: 1,2-pentanediol, C5H12O2, InChI=1S/C5H12O2/c1-2-3-5(7)4-6/h5-7H,2-4H2,1H3, purity 96%
Compound 5: sodium iodide, INa, InChI=1S/HI.Na/h1H;/q;+1/p-1, purity 99.5%
Compound 6: sodium tetraphenylboron, C24H20BNa, InChI=1S/C24H20B.Na/c1-5-13-21(14-6-1)25(22-15-7-2-8-16-22,23-17-9-3-10-18-23)24-19-11-4-12-20-24;/h1-20H;/q-1;+1, purity 99.5%
Compound 7: tetraphenylphosphonium iodide, C24H20IP, InChI=1S/C24H20P.HI/c1-5-13-21(14-6-1)25(22-15-7-2-8-16-22,23-17-9-3-10-18-23)24-19-11-4-12-20-24;/h1-20H;1H/q+1;/p-1, purity 99%

System: methanol; phases: Liquid
Property: Mass density, kg/m3 (Liquid); method: Vibrating tube method
Temperature, K	Pressure, kPa	Mass density, kg/m3	uncertainty
298.15	101.325	786.585	0.242

System: methanol; phases: Liquid
Property: Molar heat capacity at constant pressure, J/K/mol (Liquid); method: Large sample (1 g) DSC
Temperature, K	Pressure, kPa	Molar heat capacity at constant pressure, J/K/mol	uncertainty
298.15	101.325	81.37	1.4

System: 1,2-propanediol; phases: Liquid
Property: Mass density, kg/m3 (Liquid); method: Vibrating tube method
Temperature, K	Pressure, kPa	Mass density, kg/m3	uncertainty
298.15	101.325	1032.554	0.111

System: 1,2-propanediol; phases: Liquid
Property: Molar heat capacity at constant pressure, J/K/mol (Liquid); method: Large sample (1 g) DSC
Temperature, K	Pressure, kPa	Molar heat capacity at constant pressure, J/K/mol	uncertainty
298.15	101.325	191.71	3.21

System: 1,2-butanediol; phases: Liquid
Property: Mass density, kg/m3 (Liquid); method: Vibrating tube method
Temperature, K	Pressure, kPa	Mass density, kg/m3	uncertainty
298.15	101.325	998.505	0.068

System: 1,2-pentanediol; phases: Liquid
Property: Mass density, kg/m3 (Liquid); method: Vibrating tube method
Temperature, K	Pressure, kPa	Mass density, kg/m3	uncertainty
298.15	101.325	966.678	3.186

System: 1,2-pentanediol; phases: Liquid
Property: Molar heat capacity at constant pressure, J/K/mol (Liquid); method: Large sample (1 g) DSC
Temperature, K	Pressure, kPa	Molar heat capacity at constant pressure, J/K/mol	uncertainty
298.15	101.325	266.29	4.61

System: 1,2-propanediol + methanol + sodium iodide; phases: Liquid, Crystal
Fixed: Molality, mol/kg of sodium iodide = 0.025
Fixed: Temperature, K = 298.15
Property: Mass density, kg/m3 (Liquid); method: Vibrating tube method
Solvent: Mole fraction of 1,2-propanediol	Mass density, kg/m3	uncertainty
0	786.596	0.169
0.1327	846.918	0.178
0.1814	865.369	0.168
0.2261	881.978	0.161
0.2753	896.501	0.155
0.3262	911.722	0.151
0.3685	922.983	0.146
0.4269	937.567	0.143
0.4734	948.369	0.14
0.5169	958.235	0.136
0.5794	970.053	0.137
0.6279	987.079	0.129
0.6823	988.883	0.126
0.7829	1004.961	0.127
0.8408	1012.912	0.131
0.8877	1019.729	0.135
0.948	1026.895	0.138
1	1032.534	0.139

System: 1,2-propanediol + methanol + sodium tetraphenylboron; phases: Liquid, Crystal
Fixed: Molality, mol/kg of sodium tetraphenylboron = 0.025
Fixed: Temperature, K = 298.15
Property: Mass density, kg/m3 (Liquid); method: Vibrating tube method
Solvent: Mole fraction of 1,2-propanediol	Mass density, kg/m3	uncertainty
0	786.596	0.169
0.0925	830.64	0.18
0.1832	866.109	0.167
0.2554	890.342	0.159
0.2781	897.551	0.155
0.3034	904.984	0.153
0.4802	949.958	0.14
0.5567	966.194	0.134
0.6683	986.987	0.128
0.7841	1004.861	0.127
0.8318	1011.892	0.131
0.8879	1019.287	0.134
1	1032.534	0.139

System: 1,2-propanediol + methanol + tetraphenylphosphonium iodide; phases: Liquid, Crystal
Fixed: Molality, mol/kg of tetraphenylphosphonium iodide = 0.025
Fixed: Temperature, K = 298.15
Property: Mass density, kg/m3 (Liquid); method: Vibrating tube method
Solvent: Mole fraction of 1,2-propanediol	Mass density, kg/m3	uncertainty
0	786.596	0.199
0.0925	830.671	0.211
0.1773	863.66	0.202
0.2147	877.433	0.197
0.2677	894.561	0.193
0.3155	908.824	0.188
0.4545	943.877	0.182
0.5696	968.207	0.178
0.6648	986.133	0.174
0.8402	1012.833	0.181
0.8845	1018.6	0.184
1	1032.534	0.191

System: methanol + 1,2-butanediol + sodium iodide; phases: Liquid, Crystal
Fixed: Molality, mol/kg of sodium iodide = 0.025
Fixed: Temperature, K = 298.15
Property: Mass density, kg/m3 (Liquid); method: Vibrating tube method
Solvent: Mole fraction of 1,2-butanediol	Mass density, kg/m3	uncertainty
0	786.596	0.149
0.0878	829.088	0.162
0.1732	862.007	0.146
0.2348	881.218	0.137
0.2733	892.743	0.132
0.3031	900.502	0.128
0.4516	931.997	0.115
0.5882	954.965	0.107
0.6753	966.186	0.102
0.7966	980.568	0.098
0.8382	984.806	0.096
0.9007	990.442	0.094
1	998.49	0.091

System: methanol + sodium tetraphenylboron + 1,2-butanediol; phases: Liquid, Crystal
Fixed: Molality, mol/kg of sodium tetraphenylboron = 0.025
Fixed: Temperature, K = 298.15
Property: Mass density, kg/m3 (Liquid); method: Vibrating tube method
Solvent: Mole fraction of 1,2-butanediol	Mass density, kg/m3	uncertainty
0	786.596	0.149
0.0899	830.089	0.162
0.1765	863.301	0.147
0.2259	879.347	0.137
0.2687	891.395	0.131
0.3207	904.777	0.124
0.4695	935.385	0.114
0.5623	951.536	0.108
0.6726	966.713	0.102
0.7834	979.277	0.098
0.8438	985.305	0.096
0.8922	989.433	0.095
1	998.49	0.091

System: methanol + 1,2-butanediol + tetraphenylphosphonium iodide; phases: Liquid, Crystal
Fixed: Molality, mol/kg of tetraphenylphosphonium iodide = 0.025
Fixed: Temperature, K = 298.15
Property: Mass density, kg/m3 (Liquid); method: Vibrating tube method
Solvent: Mole fraction of 1,2-butanediol	Mass density, kg/m3	uncertainty
0	786.596	0.174
0.0955	832.701	0.186
0.1704	861.383	0.173
0.2248	878.781	0.165
0.278	893.878	0.161
0.3081	902.115	0.159
0.4838	937.864	0.147
0.568	951.552	0.142
0.6718	966.883	0.139
0.7842	979.391	0.135
0.8444	985.302	0.134
0.8867	989.202	0.133
1	998.49	0.13

System: 1,2-propanediol + methanol; phases: Liquid
Fixed: Pressure, kPa = 100
Fixed: Temperature, K = 298.15
Property: Molar heat capacity at constant pressure, J/K/mol (Liquid); method: Large sample (1 g) DSC
Mole fraction of 1,2-propanediol	Molar heat capacity at constant pressure, J/K/mol	uncertainty
0	81.37	1.26
0.0743	89.47	1.39
0.2305	106.48	1.65
0.3354	118.08	1.83
0.4104	126.35	1.96
0.51	137.4	2.13
0.6498	152.77	2.37
0.7273	161.34	2.5
0.7821	167.69	2.6
0.8985	180.45	2.8
1	191.71	2.97

System: methanol + 1,2-pentanediol; phases: Liquid
Fixed: Pressure, kPa = 100
Fixed: Temperature, K = 298.15
Property: Molar heat capacity at constant pressure, J/K/mol (Liquid); method: Large sample (1 g) DSC
Mole fraction of 1,2-pentanediol	Molar heat capacity at constant pressure, J/K/mol	uncertainty
0	81.37	1.26
0.073	94.77	1.47
0.1773	114.15	1.77
0.31	138.7	2.15
0.3868	152.56	2.36
0.5238	178.04	2.76
0.6142	194.86	3.02
0.7047	211.81	3.28
0.8127	231.91	3.59
0.914	250.63	3.88
1	266.29	4.13

System: methanol + 1,2-pentanediol; phases: Liquid
Fixed: Temperature, K = 298.15
Fixed: Pressure, kPa = 100
Property: Mass density, kg/m3 (Liquid); method: Vibrating tube method
Mole fraction of 1,2-pentanediol	Mass density, kg/m3	uncertainty
0	786.585	0.237
0.073	832.04	0.307
0.31	886.031	0.666
0.5238	929.073	1.224
0.6142	931.181	1.496
0.7047	946.883	1.846
0.8127	950.977	2.27
0.914	961.834	2.753
1	966.678	3.186
