Measured thermophysical data. Measurements of the thermal conductivity of ethene in the supercritical region
Source: Fluid Phase Equilib., 2018, 10.1016/j.fluid.2017.11.013
Compound 1: ethene, C2H4, InChI=1S/C2H4/c1-2/h1-2H2, purity 99.95%

System: ethene; phases: Gas
Fixed: Pressure, kPa = 101
Property: Thermal conductivity, W/m/K (Gas); method: Coaxial cylinder method
Temperature, K	Thermal conductivity, W/m/K	uncertainty
283.47	0.01865	0.00069
283.96	0.01869	0.00069
284.89	0.01877	0.00069
302.21	0.02112	0.00077
303.1	0.0207	0.00076
425	0.0381	0.00133
425.62	0.03809	0.00133

System: ethene; phases: Fluid (supercritical or subcritical phases)
Property: Thermal conductivity, W/m/K (Fluid (supercritical or subcritical phases)); method: Coaxial cylinder method
Temperature, K	Pressure, kPa	Thermal conductivity, W/m/K	uncertainty
283.47	4620	0.03417	0.00157
283.47	4770	0.03732	0.00169
283.47	4910	0.04251	0.00336
283.47	4960	0.04566	0.00263
283.47	5050	0.05593	0.00254
283.47	5090	0.06391	0.00272
283.47	5120	0.07425	0.00284
283.47	5140	0.09013	0.00336
283.47	5150	0.1049	0.00387
283.47	5150	0.10324	0.00381
283.47	5160	0.12407	0.00481
283.47	5170	0.13392	0.00537
283.47	5180	0.11431	0.00504
283.47	5190	0.09843	0.00538
283.47	5200	0.09006	0.00777
283.47	5200	0.0888	0.00783
283.47	5210	0.08522	0.00977
283.47	5220	0.08191	0.0111
283.47	5230	0.07984	0.01033
283.47	5240	0.07787	0.00824
283.47	5250	0.076	0.00289
283.47	5290	0.07419	0.00413
283.47	5300	0.07248	0.00386
283.47	5370	0.07203	0.00326
283.47	5390	0.07122	0.00286
283.47	5440	0.06948	0.00269
283.47	5480	0.06848	0.00479
283.47	5540	0.06774	0.00269
283.47	5730	0.06774	0.00263
283.47	5820	0.06848	0.00265
283.47	5930	0.06847	0.00265
283.47	6220	0.07041	0.00271
283.47	6490	0.07152	0.00275
283.47	6720	0.07259	0.00279
283.47	6980	0.07316	0.0028
283.47	7060	0.07329	0.00282
283.47	7200	0.07345	0.00281
283.47	7610	0.07519	0.00287
283.47	8250	0.07664	0.00291
283.47	8910	0.07874	0.00298
283.96	3380	0.02528	0.00131
283.96	3960	0.02767	0.00138
283.96	4620	0.03396	0.00164
283.96	4970	0.04334	0.00201
283.96	5050	0.04855	0.00218
283.96	5090	0.05262	0.00248
283.96	5110	0.05631	0.00292
283.96	5120	0.05987	0.00304
283.96	5150	0.06832	0.00401
283.96	5190	0.08914	0.00413
283.96	5200	0.10049	0.00423
283.96	5210	0.11002	0.00441
283.96	5220	0.11615	0.00453
283.96	5230	0.11191	0.0042
283.96	5240	0.1008	0.00379
283.96	5260	0.08675	0.00326
283.96	5270	0.08189	0.00309
283.96	5290	0.0783	0.00311
283.96	5300	0.07641	0.0031
283.96	5340	0.07293	0.00369
283.96	5400	0.07163	0.00282
283.96	5500	0.06977	0.00269
283.96	5590	0.06886	0.00266
283.96	5740	0.06796	0.00263
283.96	5920	0.06854	0.00265
283.96	6140	0.06972	0.00269
283.96	6310	0.0703	0.00271
283.96	6530	0.0709	0.00273
283.96	6710	0.07122	0.00274
283.96	7100	0.07249	0.00278
284.89	680	0.02012	0.00116
284.89	1170	0.02064	0.00118
284.89	2430	0.02241	0.00123
284.89	3520	0.02591	0.00133
284.89	4330	0.03024	0.00145
284.89	4740	0.03518	0.0016
284.89	4900	0.03781	0.00172
284.89	5030	0.04219	0.00191
284.89	5100	0.04581	0.00614
284.89	5160	0.05257	0.00221
284.89	5200	0.05764	0.00237
284.89	5240	0.0653	0.00264
284.89	5260	0.06948	0.00631
284.89	5290	0.08267	0.01027
284.89	5310	0.09324	0.00848
284.89	5320	0.09654	0.00356
284.89	5340	0.09916	0.01718
284.89	5360	0.08875	0.02029
284.89	5380	0.08399	0.01709
284.89	5400	0.07691	0.00992
284.89	5430	0.07429	0.01169
284.89	5460	0.07184	0.00573
284.89	5490	0.06955	0.00629
284.89	5530	0.06954	0.00271
284.89	5600	0.06952	0.0027
284.89	5610	0.06954	0.00338
284.89	5670	0.06864	0.00471
284.89	5780	0.06822	0.00265
284.89	5890	0.06866	0.00266
284.89	6170	0.06954	0.00269
284.89	6530	0.07045	0.00272
284.89	7030	0.07139	0.00275
284.89	7500	0.07332	0.00281
284.89	8190	0.07593	0.00289
284.89	8580	0.07756	0.00294
284.89	8590	0.07756	0.00294
284.89	9070	0.07866	0.00298
284.89	9530	0.07924	0.003
284.89	9990	0.08043	0.00305
284.89	10010	0.08041	0.00305
285.04	5080	0.04457	0.00193
285.04	5100	0.04514	0.00194
285.04	5210	0.05584	0.00253
285.04	5270	0.06826	0.00275
285.04	5300	0.07918	0.00308
285.04	5340	0.09492	0.00357
285.04	5350	0.09641	0.00362
285.04	5370	0.09081	0.00344
285.04	5420	0.07925	0.00305
285.04	5490	0.07233	0.0028
285.04	5640	0.06952	0.00269
285.04	6040	0.06871	0.00266
285.04	6040	0.0687	0.00266
285.04	6050	0.06846	0.00265
285.04	6140	0.06843	0.00265
285.04	6150	0.06861	0.00266
285.04	6160	0.06936	0.00268
285.04	6760	0.07168	0.00276
285.04	7250	0.07341	0.00281
285.04	8160	0.07598	0.00289
285.04	9010	0.07839	0.00297
285.04	9690	0.0804	0.00304
285.04	9800	0.08072	0.00305
285.04	9810	0.08067	0.00305
285.04	9830	0.0807	0.00305
285.04	9850	0.08058	0.00304
285.04	9900	0.08077	0.00306
285.04	9920	0.08085	0.00307
285.04	9950	0.08076	0.00307
285.04	9950	0.08065	0.00306
285.04	10000	0.08079	0.00307
285.04	10180	0.08121	0.00306
285.04	10350	0.08166	0.00308
285.04	10570	0.08194	0.00309
288.24	4580	0.03085	0.00147
288.24	5100	0.03767	0.00168
288.24	5360	0.04634	0.00202
288.24	5510	0.05465	0.00223
288.24	5570	0.06007	0.00239
288.24	5630	0.06943	0.00269
288.24	5680	0.07371	0.00283
288.24	5790	0.0746	0.00285
288.24	5920	0.06841	0.00265
288.24	6000	0.06651	0.00259
288.24	6240	0.06542	0.00256
288.24	6570	0.06758	0.00262
288.24	7140	0.06951	0.00269
294.62	5100	0.03346	0.00155
294.62	5370	0.03618	0.00164
294.62	6200	0.05841	0.00233
294.62	6290	0.06125	0.00242
294.62	6530	0.06505	0.00254
294.62	6690	0.066	0.00257
294.62	6770	0.06592	0.00257
294.62	6870	0.06592	0.00257
294.62	6950	0.06591	0.00257
294.62	7030	0.0659	0.00257
294.62	7130	0.06589	0.00257
294.62	7360	0.06665	0.00259
294.62	7490	0.06627	0.00258
294.62	7670	0.06623	0.00258
294.62	7690	0.06625	0.00258
294.62	8210	0.06804	0.00264
294.62	8570	0.06916	0.00267
294.62	9220	0.07111	0.00274
294.62	9740	0.07276	0.00279
294.62	10280	0.07482	0.00286
294.62	10840	0.07574	0.00289
301.6	1010	0.02196	0.00121
301.6	1900	0.02294	0.00124
301.6	2940	0.02469	0.00129
301.6	3920	0.02736	0.00137
301.6	5010	0.03136	0.00149
301.6	5560	0.0359	0.00162
301.6	5610	0.03586	0.00162
301.6	6120	0.0417	0.00181
301.6	6120	0.04209	0.00183
301.6	6550	0.0488	0.00204
301.6	6780	0.05244	0.00215
301.6	6930	0.05667	0.00228
301.6	7100	0.05988	0.00238
301.6	7230	0.06174	0.00244
301.6	7400	0.06342	0.00249
301.6	7430	0.06371	0.0025
301.6	7440	0.06376	0.0025
301.6	7460	0.06392	0.0025
301.6	7480	0.06395	0.00251
301.6	7570	0.06425	0.00252
301.6	7570	0.06425	0.00252
301.6	7680	0.06462	0.00253
301.6	7720	0.06482	0.00253
301.6	7760	0.06461	0.00253
301.6	7800	0.06479	0.00253
301.6	7820	0.06483	0.00253
301.6	7980	0.06482	0.00253
301.6	8360	0.0649	0.00254
301.6	9100	0.0668	0.0026
301.6	10390	0.0716	0.00275
301.6	12800	0.07701	0.00293
301.6	14950	0.08151	0.00307
301.6	18120	0.08743	0.00326
301.6	20700	0.09068	0.00337
301.6	20800	0.09075	0.00337
301.6	25600	0.09706	0.00358
301.6	31800	0.10393	0.0038
301.6	40300	0.11378	0.00413
301.6	45200	0.11847	0.00428
301.6	50400	0.12361	0.00445
301.6	50400	0.12361	0.00445
301.6	55500	0.12834	0.0046
301.6	59300	0.132	0.00472
301.6	61000	0.13366	0.00478
301.6	61000	0.13364	0.00478
301.6	61000	0.13356	0.00477
301.6	62000	0.13421	0.0048
301.6	65000	0.13664	0.00488
301.6	65300	0.13724	0.0049
301.6	65700	0.13778	0.00491
301.6	66000	0.13776	0.00491
301.6	70000	0.14142	0.00503
425.46	500	0.03821	0.00169
425.46	1000	0.03832	0.0017
425.46	2500	0.03937	0.00173
425.46	5000	0.04226	0.00182
425.46	7300	0.04435	0.00188
425.46	10000	0.04845	0.00201
425.46	12200	0.0528	0.00215
425.46	14600	0.05769	0.00231
425.46	14600	0.05771	0.00231
425.46	14800	0.05814	0.00232
425.46	20000	0.06783	0.00263
425.46	24900	0.07364	0.00282
425.46	30000	0.07726	0.00293
425.46	40600	0.08392	0.00315
425.46	50500	0.0908	0.00337
425.46	60700	0.09875	0.00363
425.46	70300	0.10515	0.00384
425.46	71800	0.10681	0.0039
425.46	73700	0.10896	0.00397
425.46	75000	0.10984	0.004
425.46	79000	0.11192	0.00406
425.46	81900	0.11442	0.00415
425.46	89500	0.11837	0.00428
425.46	93500	0.12144	0.00438
425.46	97000	0.12317	0.00443
425.46	100000	0.12506	0.0045
