Measured thermophysical data. Thermodynamic analysis and correlation of solubility of candesartan cilexetil in aqueous solvent mixtures
Source: Fluid Phase Equilib., 2013, 10.1016/j.fluid.2012.09.027
Compound 1: 1-(((cyclohexyloxy)carbonyl)oxy)ethyl 1-((2-(1H-tetrazol-5-yl)-[1,1'-biphenyl]-4-yl)methyl)-2-ethoxy-1H-benzo[d]imidazole-7-carboxylate, C33H34N6O6, InChI=1S/C33H34N6O6/c1-3-42-32-34-28-16-10-15-26(31(40)43-21(2)44-33(41)45-24-13-8-5-9-14-24)29(28)39(32)20-22-17-18-25(23-11-6-4-7-12-23)27(19-22)30-35-37-38-36-30/h4,6-7,10-12,15-19,21,24H,3,5,8-9,13-14,20H2,1-2H3,(H,35,36,37,38), purity 99.5%
Compound 2: water, H2O, InChI=1S/H2O/h1H2, purity 99.9%
Compound 3: ethanol, C2H6O, InChI=1S/C2H6O/c1-2-3/h3H,2H2,1H3, purity 99.8%
Compound 4: acetonitrile, C2H3N, InChI=1S/C2H3N/c1-2-3/h1H3, purity 99.8%
Compound 5: acetone, C3H6O, InChI=1S/C3H6O/c1-3(2)4/h1-2H3, purity 99.8%

System: 1-(((cyclohexyloxy)carbonyl)oxy)ethyl 1-((2-(1H-tetrazol-5-yl)-[1,1'-biphenyl]-4-yl)methyl)-2-ethoxy-1H-benzo[d]imidazole-7-carboxylate; phases: Crystal, Liquid, Air at 1 atmosphere
Property: Normal melting temperature, K (Crystal); method: DTA
Normal melting temperature, K	uncertainty
442	1

System: 1-(((cyclohexyloxy)carbonyl)oxy)ethyl 1-((2-(1H-tetrazol-5-yl)-[1,1'-biphenyl]-4-yl)methyl)-2-ethoxy-1H-benzo[d]imidazole-7-carboxylate; phases: Crystal, Liquid, Air at 1 atmosphere
Property: Molar enthalpy of transition or fusion, kJ/mol (Crystal); method: DSC
Molar enthalpy of transition or fusion, kJ/mol	uncertainty
27.74	0.79

System: ethanol + water + 1-(((cyclohexyloxy)carbonyl)oxy)ethyl 1-((2-(1H-tetrazol-5-yl)-[1,1'-biphenyl]-4-yl)methyl)-2-ethoxy-1H-benzo[d]imidazole-7-carboxylate; phases: Liquid, Crystal
Fixed: Pressure, kPa = 101
Property: Mole fraction of 1-(((cyclohexyloxy)carbonyl)oxy)ethyl 1-((2-(1H-tetrazol-5-yl)-[1,1'-biphenyl]-4-yl)methyl)-2-ethoxy-1H-benzo[d]imidazole-7-carboxylate (Liquid); method: Gravimetric method
Temperature, K	Solvent: Mole fraction of ethanol	Mole fraction of 1-(((cyclohexyloxy)carbonyl)oxy)ethyl 1-((2-(1H-tetrazol-5-yl)-[1,1'-biphenyl]-4-yl)methyl)-2-ethoxy-1H-benzo[d]imidazole-7-carboxylate	uncertainty
303.15	0.1	2e-06	1.36e-07
303.15	0.2	1.319e-05	1.08e-06
303.15	0.3	4.874e-05	2.62e-06
303.15	0.4	0.0001656	9.5e-06
303.15	0.5	0.0003871	2.54e-05
303.15	0.6	0.0006813	3.01e-05
303.15	0.7	0.00104	6e-05
303.15	0.8	0.001364	7.1e-05
303.15	0.875	0.001485	7.8e-05
303.15	0.925	0.001534	0.00011
303.15	1	0.001439	0.00015
313.15	0.1	2.99e-06	2.04e-07
313.15	0.2	2.369e-05	1.42e-06
313.15	0.3	9.456e-05	5.08e-06
313.15	0.4	0.0002631	1.41e-05
313.15	0.5	0.0006336	2.81e-05
313.15	0.6	0.001154	9.1e-05
313.15	0.7	0.001703	8.7e-05
313.15	0.8	0.00218	0.000106
313.15	0.875	0.00241	0.000131
313.15	0.925	0.002453	7.9e-05
313.15	1	0.00235	0.000113
323.15	0.1	5.74e-06	3.91e-07
323.15	0.2	4.6e-05	2.76e-06
323.15	0.3	0.0001759	1.48e-05
323.15	0.4	0.0005332	2.59e-05
323.15	0.5	0.00126	0.000103
323.15	0.6	0.002259	0.000147
323.15	0.7	0.003358	0.000127
323.15	0.8	0.004236	0.000182
323.15	0.875	0.004595	0.000214
323.15	0.925	0.004775	0.000217
323.15	1	0.004654	0.000174
333.15	0.1	1.138e-05	8e-07
333.15	0.2	7.57e-05	4.5e-06
333.15	0.3	0.0003163	1.7e-05
333.15	0.4	0.0009973	4.85e-05
333.15	0.5	0.002293	0.000102
333.15	0.6	0.00418	0.000174
333.15	0.7	0.006276	0.000238
333.15	0.8	0.007766	0.000275
333.15	0.875	0.008325	0.00028
333.15	0.925	0.008419	0.000315
333.15	1	0.008236	0.000256
343.15	0.1	1.586e-05	1.08e-06
343.15	0.2	0.00012	8.8e-06
343.15	0.3	0.0004564	2.45e-05
343.15	0.4	0.001679	9.4e-05
343.15	0.5	0.00305	0.000141
343.15	0.6	0.005537	0.000274
343.15	0.7	0.008549	0.000325
343.15	0.8	0.0109	0.00068
343.15	0.875	0.01184	0.00044
343.15	0.925	0.01195	0.0015
343.15	1	0.01178	0.00146

System: acetonitrile + water + 1-(((cyclohexyloxy)carbonyl)oxy)ethyl 1-((2-(1H-tetrazol-5-yl)-[1,1'-biphenyl]-4-yl)methyl)-2-ethoxy-1H-benzo[d]imidazole-7-carboxylate; phases: Liquid, Crystal
Fixed: Pressure, kPa = 101
Property: Mole fraction of 1-(((cyclohexyloxy)carbonyl)oxy)ethyl 1-((2-(1H-tetrazol-5-yl)-[1,1'-biphenyl]-4-yl)methyl)-2-ethoxy-1H-benzo[d]imidazole-7-carboxylate (Liquid); method: Gravimetric method
Temperature, K	Solvent: Mole fraction of acetonitrile	Mole fraction of 1-(((cyclohexyloxy)carbonyl)oxy)ethyl 1-((2-(1H-tetrazol-5-yl)-[1,1'-biphenyl]-4-yl)methyl)-2-ethoxy-1H-benzo[d]imidazole-7-carboxylate	uncertainty
293.15	0.1	3.67e-06	2.56e-07
293.15	0.2	2.334e-05	1.71e-06
293.15	0.3	8.135e-05	4.63e-06
293.15	0.4	0.0002103	1.49e-05
293.15	0.5	0.0003852	1.85e-05
293.15	0.6	0.0007253	3.6e-05
293.15	0.7	0.001092	4.5e-05
293.15	0.8	0.001365	0.000111
293.15	0.9	0.001121	0.000124
293.15	1	0.0005816	2.01e-05
303.15	0.1	4.48e-06	3.13e-07
303.15	0.2	2.912e-05	1.83e-06
303.15	0.3	0.0001133	7.6e-06
303.15	0.4	0.0002644	1.77e-05
303.15	0.5	0.0005587	2.69e-05
303.15	0.6	0.001013	0.000198
303.15	0.7	0.001503	7.2e-05
303.15	0.8	0.001781	0.000102
303.15	0.9	0.001595	0.000137
303.15	1	0.0009122	3.16e-05
313.15	0.1	6.42e-06	4.48e-07
313.15	0.2	4.128e-05	2.64e-06
313.15	0.3	0.0001735	1.18e-05
313.15	0.4	0.0004521	2.51e-05
313.15	0.5	0.001012	9.2e-05
313.15	0.6	0.001699	0.000144
313.15	0.7	0.002465	0.000123
313.15	0.8	0.002979	0.000125
313.15	0.9	0.002687	0.000172
313.15	1	0.001598	5.5e-05
323.15	0.1	7.17e-06	5e-07
323.15	0.2	5.39e-05	3.4e-06
323.15	0.3	0.0002152	1.42e-05
323.15	0.4	0.0006508	3.39e-05
323.15	0.5	0.001287	0.000147
323.15	0.6	0.002801	0.000125
323.15	0.7	0.003891	0.000182
323.15	0.8	0.00457	0.000179
323.15	0.9	0.004128	0.000152
323.15	1	0.002627	0.000133
333.15	0.1	9.16e-06	6.4e-07
333.15	0.2	6.93e-05	4.3e-06
333.15	0.3	0.0003301	1.91e-05
333.15	0.4	0.0009587	5e-05
333.15	0.5	0.002648	0.000252
333.15	0.6	0.005022	0.000225
333.15	0.7	0.007255	0.000304
333.15	0.8	0.00865	0.00034
333.15	0.9	0.007499	0.00029
333.15	1	0.004414	0.000153

System: acetone + water + 1-(((cyclohexyloxy)carbonyl)oxy)ethyl 1-((2-(1H-tetrazol-5-yl)-[1,1'-biphenyl]-4-yl)methyl)-2-ethoxy-1H-benzo[d]imidazole-7-carboxylate; phases: Liquid, Crystal
Fixed: Pressure, kPa = 101
Property: Mole fraction of 1-(((cyclohexyloxy)carbonyl)oxy)ethyl 1-((2-(1H-tetrazol-5-yl)-[1,1'-biphenyl]-4-yl)methyl)-2-ethoxy-1H-benzo[d]imidazole-7-carboxylate (Liquid); method: Gravimetric method
Temperature, K	Solvent: Mole fraction of acetone	Mole fraction of 1-(((cyclohexyloxy)carbonyl)oxy)ethyl 1-((2-(1H-tetrazol-5-yl)-[1,1'-biphenyl]-4-yl)methyl)-2-ethoxy-1H-benzo[d]imidazole-7-carboxylate	uncertainty
293.15	0.1	6.324e-06	4.08e-07
293.15	0.2	2.171e-05	1.5e-06
293.15	0.3	0.0002318	1.19e-05
293.15	0.4	0.0009505	3.97e-05
293.15	0.5	0.002435	9.1e-05
293.15	0.6	0.004547	0.000181
293.15	0.7	0.007102	0.00022
293.15	0.8	0.00905	0.000259
293.15	0.85	0.009173	0.000252
293.15	0.9	0.008767	0.000282
293.15	1	0.006727	0.000177
298.15	0.1	9.33e-06	6.01e-07
298.15	0.2	2.262e-05	1.29e-06
298.15	0.3	0.0002772	1.6e-05
298.15	0.4	0.001119	7.7e-05
298.15	0.5	0.002858	0.000117
298.15	0.6	0.005536	0.000202
298.15	0.7	0.008475	0.000263
298.15	0.8	0.01033	0.0006
298.15	0.85	0.01079	0.00047
298.15	0.9	0.01022	0.00217
298.15	1	0.007833	0.000193
303.15	0.1	1.37e-05	1.5e-06
303.15	0.2	3.94e-05	2.15e-06
303.15	0.3	0.0001963	1.42e-05
303.15	0.4	0.001419	0.000148
303.15	0.5	0.003092	0.000151
303.15	0.6	0.005953	0.000202
303.15	0.7	0.01005	0.00127
303.15	0.8	0.01213	0.00054
303.15	0.85	0.01242	0.00198
303.15	0.9	0.01179	0.00112
303.15	1	0.009461	0.000258
308.15	0.1	1.8e-05	1.16e-06
308.15	0.2	5.479e-05	2.99e-06
308.15	0.3	0.000456	2.16e-05
308.15	0.4	0.00179	0.000111
308.15	0.5	0.004345	0.000221
308.15	0.6	0.008149	0.000277
308.15	0.7	0.01242	0.00166
308.15	0.8	0.01445	0.00213
308.15	0.85	0.01506	0.00135
308.15	0.9	0.0142	0.00115
308.15	1	0.0111	0.00237
313.15	0.1	2.492e-05	1.61e-06
313.15	0.2	6.499e-05	3.54e-06
313.15	0.3	0.0005908	2.94e-05
313.15	0.4	0.002221	0.000149
313.15	0.5	0.005335	0.000222
313.15	0.6	0.009626	0.000328
313.15	0.7	0.01462	0.00101
313.15	0.8	0.01737	0.00089
313.15	0.85	0.0175	0.00079
313.15	0.9	0.01699	0.00138
313.15	1	0.01329	0.00033
