Measured thermophysical data. Influence of electrolytes on liquid-liquid equilibria of water/1-butanol and on the partitioning of 5-hydroxymethylfurfural in water/1-butanol
Source: Fluid Phase Equilib., 2016, 10.1016/j.fluid.2016.05.001
Compound 1: lithium acetate, C2H3LiO2, InChI=1S/C2H4O2.Li/c1-2(3)4;/h1H3,(H,3,4);/q;+1/p-1, purity 99.95%
Compound 2: sodium ethanoate, C2H3NaO2, InChI=1S/C2H4O2.Na/c1-2(3)4;/h1H3,(H,3,4);/q;+1/p-1, purity 99%
Compound 3: lithium nitrate, LiNO3, InChI=1S/Li.NO3/c;2-1(3)4/q+1;-1, purity 98%
Compound 4: lithium sulfate, Li2O4S, InChI=1S/2Li.H2O4S/c;;1-5(2,3)4/h;;(H2,1,2,3,4)/q2*+1;/p-2, purity 99.99%
Compound 5: sodium sulfate, Na2O4S, InChI=1S/2Na.H2O4S/c;;1-5(2,3)4/h;;(H2,1,2,3,4)/q2*+1;/p-2, purity 99%
Compound 6: butan-1-ol, C4H10O, InChI=1S/C4H10O/c1-2-3-4-5/h5H,2-4H2,1H3, purity 99.8%
Compound 7: 5-(hydroxymethyl)furan-2-carbaldehyde, C6H6O3, InChI=1S/C6H6O3/c7-3-5-1-2-6(4-8)9-5/h1-3,8H,4H2, purity 99.1%
Compound 8: water, H2O, InChI=1S/H2O/h1H2, purity 98%

System: butan-1-ol + water + lithium nitrate; phases: Liquid mixture 2, Liquid mixture 1
Fixed: Temperature, K = 298.15
Fixed: Pressure, kPa = 100
Property: Mass fraction of butan-1-ol (Liquid mixture 2); method: Chromatography
Property: Mass fraction of butan-1-ol (Liquid mixture 1); method: Chromatography
Property: Mass fraction of lithium nitrate (Liquid mixture 1); method: Chromatography
Mass fraction of lithium nitrate	Mass fraction of butan-1-ol	uncertainty	Mass fraction of butan-1-ol	uncertainty	Mass fraction of lithium nitrate	uncertainty
0.0092	0.816	0.0015	0.0578	0.0005	0.0788	
0.0292	0.8094	0.0016	0.0425	0.0004	0.1699	
0.0531	0.7949	0.0018	0.0321	0.0003	0.2533	
0.0798	0.7774	0.0019	0.0235	0.0003	0.3235	

System: butan-1-ol + water + lithium sulfate; phases: Liquid mixture 2, Liquid mixture 1
Fixed: Temperature, K = 298.15
Fixed: Pressure, kPa = 100
Property: Mass fraction of lithium sulfate (Liquid mixture 2); method: Chromatography
Property: Mass fraction of butan-1-ol (Liquid mixture 1); method: Chromatography
Property: Mass fraction of lithium sulfate (Liquid mixture 1); method: Chromatography
Mass fraction of butan-1-ol	Mass fraction of lithium sulfate	uncertainty	Mass fraction of butan-1-ol	uncertainty	Mass fraction of lithium sulfate	uncertainty
0.8339	0.0002	0.0002	0.0344	0.0003	0.0549	
0.8582	0.0002	0.0002	0.0191	0.0003	0.1186	
0.8891	0.0001	0.0001	0.0057	0.0002	0.2144	

System: butan-1-ol + water + sodium sulfate; phases: Liquid mixture 2, Liquid mixture 1
Fixed: Temperature, K = 298.15
Fixed: Pressure, kPa = 100
Property: Mass fraction of sodium sulfate (Liquid mixture 2); method: Chromatography
Property: Mass fraction of butan-1-ol (Liquid mixture 1); method: Chromatography
Property: Mass fraction of sodium sulfate (Liquid mixture 1); method: Chromatography
Mass fraction of butan-1-ol	Mass fraction of sodium sulfate	uncertainty	Mass fraction of butan-1-ol	uncertainty	Mass fraction of sodium sulfate	uncertainty
0.8308	0.0001	0.0001	0.03	0.0003	0.0823	
0.8369	0.0002	0.0002	0.0231	0.0003	0.106	
0.8452	0.0002	0.0002	0.0189	0.0003	0.1251	
0.8506	0.0001	0.0001	0.0138	0.0002	0.1514	

System: butan-1-ol + sodium ethanoate + water; phases: Liquid mixture 2, Liquid mixture 1
Fixed: Temperature, K = 298.15
Fixed: Pressure, kPa = 100
Property: Mass fraction of sodium ethanoate (Liquid mixture 2); method: Chromatography
Property: Mass fraction of butan-1-ol (Liquid mixture 1); method: Chromatography
Property: Mass fraction of sodium ethanoate (Liquid mixture 1); method: Chromatography
Mass fraction of butan-1-ol	Mass fraction of sodium ethanoate	uncertainty	Mass fraction of butan-1-ol	uncertainty	Mass fraction of sodium ethanoate	uncertainty
0.833	0.0015	0.0015	0.0425	0.0004	0.0863	
0.8612	0.0024	0.0024	0.0306	0.0003	0.1431	
0.8787	0.0033	0.0033	0.0233	0.0003	0.1906	
0.8886	0.0041	0.0041	0.0194	0.0002	0.242	

System: butan-1-ol + lithium acetate + water; phases: Liquid mixture 2, Liquid mixture 1
Fixed: Temperature, K = 298.15
Fixed: Pressure, kPa = 100
Property: Mass fraction of lithium acetate (Liquid mixture 2); method: Chromatography
Property: Mass fraction of butan-1-ol (Liquid mixture 1); method: Chromatography
Property: Mass fraction of lithium acetate (Liquid mixture 1); method: Chromatography
Mass fraction of butan-1-ol	Mass fraction of lithium acetate	uncertainty	Mass fraction of butan-1-ol	uncertainty	Mass fraction of lithium acetate	uncertainty
0.833	0.0015	0.0003	0.0425	0.0004	0.0863	
0.8612	0.0024	0.0004	0.0306	0.0003	0.1431	
0.8787	0.0033	0.0005	0.0233	0.0003	0.1906	
0.8886	0.0041	0.0007	0.0194	0.0002	0.242	

System: 5-(hydroxymethyl)furan-2-carbaldehyde + butan-1-ol + water; phases: Liquid mixture 2, Liquid mixture 1
Fixed: Temperature, K = 298.15
Fixed: Pressure, kPa = 100
Property: Mass fraction of 5-(hydroxymethyl)furan-2-carbaldehyde (Liquid mixture 2); method: Chromatography
Property: Mass fraction of butan-1-ol (Liquid mixture 1); method: Chromatography
Property: Mass fraction of 5-(hydroxymethyl)furan-2-carbaldehyde (Liquid mixture 1); method: Chromatography
Mass fraction of butan-1-ol	Mass fraction of 5-(hydroxymethyl)furan-2-carbaldehyde	uncertainty	Mass fraction of butan-1-ol	uncertainty	Mass fraction of 5-(hydroxymethyl)furan-2-carbaldehyde	uncertainty
0.7702	0.0484	0.0079	0.0831	0.0023	0.0261	
0.74	0.0723	0.0054	0.0982	0.0023	0.038	
0.673	0.1025	0.0048	0.1093	0.0023	0.059	
0.6127	0.1321	0.0045	0.0989	0.0023	0.0777	
0.5758	0.1446	0.0056	0.1277	0.0024	0.097	
0.5077	0.1886	0.0046	0.1342	0.0024	0.124	
0.447	0.1999	0.0024	0.14481	0.00243	0.1379	
