Measured thermophysical data. PVTx measurements of the carbon dioxide + trans-1,3,3,3-tetrafluoroprop-1-ene binary system
Source: Fluid Phase Equilib., 2013, 10.1016/j.fluid.2013.09.022
Compound 1: carbon dioxide, CO2, InChI=1S/CO2/c2-1-3, purity 99.99%
Compound 2: trans-1,3,3,3-tetrafluoropropene, C3H2F4, InChI=1S/C3H2F4/c4-2-1-3(5,6)7/h1-2H/b2-1+, purity 99.5%

System: carbon dioxide + trans-1,3,3,3-tetrafluoropropene; phases: Gas
Property: Molar volume, m3/mol (Gas); method: ISOCHOR
Mole fraction of carbon dioxide	Temperature, K	Pressure, kPa	Molar volume, m3/mol	uncertainty
0.155	313.09	773.6	0.002926	1e-05
0.155	323.07	808.6	0.002928	1e-05
0.155	333.05	843.8	0.002929	1e-05
0.155	343.05	877.3	0.00293	1e-05
0.155	353.02	910	0.002931	1e-05
0.155	363.08	942.8	0.002933	1e-05
0.254	302.65	741.2	0.002778	1e-05
0.254	313.11	824.7	0.00278	1e-05
0.254	323.06	861.2	0.002781	1e-05
0.254	333.02	897.5	0.002782	1e-05
0.254	343.2	933	0.002783	1e-05
0.254	353.12	967.3	0.002784	1e-05
0.254	363.03	1000.8	0.002786	1e-05
0.331	302.78	834.7	0.002626	1e-05
0.331	313.1	879.9	0.002627	1e-05
0.331	323.04	918.1	0.002628	1e-05
0.331	333.07	955.4	0.002629	1e-05
0.331	343.02	991.5	0.00263	1e-05
0.331	353.1	1027.7	0.002631	1e-05
0.331	363.14	1063.4	0.002632	1e-05
0.459	303.15	934.1	0.002372	1e-05
0.459	313.11	979	0.002373	1e-05
0.459	323.09	1019.8	0.002374	1e-05
0.459	332.99	1059.7	0.002375	1e-05
0.459	342.93	1098.9	0.002376	1e-05
0.459	352.96	1140	0.002377	1e-05
0.459	362.89	1178.4	0.002378	1e-05
0.563	303.12	1086.9	0.002066	1e-05
0.563	313.14	1137.1	0.002067	1e-05
0.563	323.03	1183.9	0.002067	1e-05
0.563	333.15	1230.3	0.002068	1e-05
0.563	342.9	1274.8	0.002069	1e-05
0.563	353.01	1320.4	0.00207	1e-05
0.563	363.05	1365.6	0.002071	1e-05
0.642	293.15	1053.5	0.002057	1e-05
0.642	303.19	1105.4	0.002058	1e-05
0.642	313.18	1155.7	0.002059	1e-05
0.642	323.12	1201.6	0.00206	1e-05
0.642	333.03	1246.4	0.002061	1e-05
0.642	343.07	1291.7	0.002062	1e-05
0.642	353.03	1336.3	0.002062	1e-05
0.642	362.94	1380.5	0.002063	1e-05
0.733	293.11	1207.5	0.001776	1e-05
0.733	303.12	1281.1	0.001777	1e-05
0.733	313.15	1337.5	0.001778	1e-05
0.733	323.06	1392.7	0.001778	1e-05
0.733	333.08	1445.3	0.001779	1e-05
0.733	343.01	1497.2	0.00178	1e-05
0.733	353.14	1549.7	0.001781	1e-05
0.733	363.12	1601.3	0.001781	1e-05
0.859	282.98	1378	0.00149	1e-05
0.859	292.75	1458.4	0.001491	1e-05
0.859	302.95	1530.5	0.001492	1e-05
0.859	313.1	1598.3	0.001492	1e-05
0.859	323.07	1661.1	0.001493	1e-05
0.859	333.04	1723.3	0.001494	1e-05
0.859	343.06	1785.7	0.001494	1e-05
0.859	353.03	1847.2	0.001495	1e-05
0.859	363.08	1908.8	0.001496	1e-05
