Measured thermophysical data. Vapor-liquid equilibrium for the ternary carbon dioxide + ethanol + n-hexane and quaternary carbon dioxide + ethanol + n-hexane + thiophene systems
Source: Fluid Phase Equilib., 2012, 10.1016/j.fluid.2011.11.009
Compound 1: carbon dioxide, CO2, InChI=1S/CO2/c2-1-3, purity 99.9999%
Compound 2: ethanol, C2H6O, InChI=1S/C2H6O/c1-2-3/h3H,2H2,1H3, purity 99.8%
Compound 3: hexane, C6H14, InChI=1S/C6H14/c1-3-5-6-4-2/h3-6H2,1-2H3, purity 99.5%

System: ethanol + hexane + carbon dioxide; phases: Liquid, Gas
Property: Mole fraction of ethanol (Liquid); method: Chromatography
Property: Mole fraction of ethanol (Gas); method: Chromatography
Property: Mole fraction of carbon dioxide (Gas); method: Chromatography
Temperature, K	Pressure, kPa	Mole fraction of carbon dioxide	Mole fraction of ethanol	uncertainty	Mole fraction of ethanol	uncertainty	Mole fraction of carbon dioxide	uncertainty
313.66	2259	0.2183	0.5476	0.0072	0.01	0.0032	0.9703	
313.66	3147	0.2902	0.4961	0.0073	0.0091	0.0032	0.9738	
313.66	4086	0.3763	0.4335	0.0071	0.0089	0.0032	0.9766	
313.66	5066	0.5034	0.3372	0.0068	0.009	0.0032	0.9771	
313.66	6049	0.6235	0.2517	0.0066	0.0104	0.0032	0.9768	
313.66	7025	0.7873	0.1567	0.0065	0.0135	0.0032	0.9757	
342.82	2247	0.1517	0.5967	0.007	0.0363	0.0032	0.9162	
342.82	3108	0.228	0.5322	0.0072	0.0325	0.0032	0.9259	
342.82	4049	0.2967	0.479	0.0072	0.0273	0.0032	0.9384	
342.82	5058	0.3602	0.4345	0.0071	0.0256	0.0032	0.9432	
342.82	6069	0.417	0.3966	0.007	0.0253	0.0032	0.9449	
342.82	7089	0.5034	0.3297	0.0068	0.0262	0.0032	0.9451	
342.82	8103	0.5854	0.2714	0.0067	0.0304	0.0032	0.9392	
342.82	9152	0.6831	0.2017	0.0066	0.0401	0.0032	0.9263	
342.82	9812	0.7502	0.155	0.0065	0.056	0.0032	0.9047	
372.76	2159	0.1041	0.6311	0.0069	0.1208	0.0034	0.7683	
372.76	3096	0.1471	0.5998	0.007	0.0937	0.0033	0.8214	
372.76	4178	0.2073	0.5519	0.0072	0.079	0.0033	0.8508	
372.76	5134	0.2532	0.5169	0.0073	0.0716	0.0033	0.8661	
372.76	6053	0.3204	0.4626	0.0072	0.0681	0.0033	0.8735	
372.76	7119	0.3817	0.4082	0.007	0.0696	0.0033	0.8725	
372.76	8198	0.4315	0.3673	0.0069	0.0745	0.0033	0.8654	
372.76	9240	0.494	0.3176	0.0068	0.08	0.0033	0.8575	
372.76	10038	0.5386	0.2842	0.0067	0.0891	0.0033	0.8436	
372.76	11240	0.6566	0.2003	0.0066	0.1232	0.0034	0.7985	
