Measured thermophysical data. Vaporization thermodynamics of compounds modeling lignin structural units
Source: Fluid Phase Equilib., 2019, 10.1016/j.fluid.2019.03.004
Compound 1: (E)-1-(4-methoxyphenyl)propene, C10H12O, InChI=1S/C10H12O/c1-3-4-9-5-7-10(11-2)8-6-9/h3-8H,1-2H3/b4-3+, purity 99%
Compound 2: 1-allyl-4-methoxybenzene, C10H12O, InChI=1S/C10H12O/c1-3-4-9-5-7-10(11-2)8-6-9/h3,5-8H,1,4H2,2H3, purity 98%
Compound 3: 2-hydroxy-5-allylanisole, C10H12O2, InChI=1S/C10H12O2/c1-3-4-8-5-6-9(11)10(7-8)12-2/h3,5-7,11H,1,4H2,2H3, purity 99%
Compound 4: 2-methoxy-4-(1E)-1-propen-1-yl-phenol, C10H12O2, InChI=1S/C10H12O2/c1-3-4-8-5-6-9(11)10(7-8)12-2/h3-7,11H,1-2H3/b4-3+, purity 98%

System: (E)-1-(4-methoxyphenyl)propene; phases: Liquid, Gas
Property: Vapor or sublimation pressure, kPa (Liquid); method: Transpiration method
Temperature, K	Vapor or sublimation pressure, kPa	uncertainty
296.5	0.00567	0.00041
300.4	0.00774	0.00054
304.4	0.0112	0.00076
308.4	0.01507	0.00099
312.3	0.02056	0.00133
313.2	0.02178	0.00142
316.4	0.02753	0.00177
318.5	0.03262	0.00212
321.4	0.04178	0.00265
323.4	0.04533	0.00287
326.4	0.05539	0.00353
328.4	0.06574	0.00419
331.5	0.08089	0.00512
333.4	0.09361	0.00593

System: 1-allyl-4-methoxybenzene; phases: Liquid, Gas
Property: Vapor or sublimation pressure, kPa (Liquid); method: Transpiration method
Temperature, K	Vapor or sublimation pressure, kPa	uncertainty
279.1	0.00378	0.00025
284.1	0.00583	0.00041
288.9	0.00912	0.00062
293.8	0.01395	0.00092
298.8	0.02153	0.0014
303.7	0.03168	0.00204
308.8	0.04509	0.00288
313.7	0.06571	0.00419
318.2	0.09199	0.00582
323.2	0.12775	0.008

System: 2-hydroxy-5-allylanisole; phases: Liquid, Gas
Property: Vapor or sublimation pressure, kPa (Liquid); method: Transpiration method
Temperature, K	Vapor or sublimation pressure, kPa	uncertainty
281.1	0.0003	2e-05
283.7	0.00039	3e-05
289	0.00066	5e-05
293.9	0.00111	8e-05
298.9	0.00179	0.00012
303.7	0.00287	0.0002
308.7	0.00447	0.0003
313.7	0.00709	0.00049
318.9	0.01038	0.00069
323.6	0.01507	0.00099
328.6	0.02241	0.00147
333.6	0.03329	0.00215
338.5	0.04891	0.00312
343.5	0.06869	0.00432

System: 2-methoxy-4-(1E)-1-propen-1-yl-phenol; phases: Liquid, Gas
Property: Vapor or sublimation pressure, kPa (Liquid); method: Transpiration method
Temperature, K	Vapor or sublimation pressure, kPa	uncertainty
313.2	0.00241	0.00017
315.2	0.00289	0.0002
316.2	0.00313	0.0002
318.2	0.00371	0.00025
320.3	0.00449	0.0003
323.2	0.00561	0.0004
325.2	0.00657	0.00046
328.1	0.00838	0.00056
330.2	0.00975	0.00066
333.2	0.01216	0.00081
336.3	0.01528	0.00101
338.2	0.01783	0.00116
340.2	0.02046	0.00133
343.2	0.02507	0.00161
345.1	0.02835	0.00182
348.2	0.03558	0.00226
350.1	0.04019	0.00258
353.1	0.05109	0.00326
356.1	0.06297	0.00398
358.1	0.07097	0.00446
