Measured thermophysical data. Vapor liquid equilibria for the quaternary reactive system ethyl acetate + ethanol +water + acetic acid and some of the constituent binary systems at 101.3 kPa
Source: Fluid Phase Equilib., 2005, 10.1016/j.fluid.2005.07.010
Compound 1: acetic acid, C2H4O2, InChI=1S/C2H4O2/c1-2(3)4/h1H3,(H,3,4)
Compound 2: ethyl acetate, C4H8O2, InChI=1S/C4H8O2/c1-3-6-4(2)5/h3H2,1-2H3
Compound 3: water, H2O, InChI=1S/H2O/h1H2
Compound 4: ethanol, C2H6O, InChI=1S/C2H6O/c1-2-3/h3H,2H2,1H3

System: acetic acid; phases: Liquid, Gas
Property: Normal boiling temperature, K (Liquid); method: Ebulliometric method (Recirculating still)
Normal boiling temperature, K	uncertainty
390.95	0.2

System: acetic acid; phases: Liquid
Property: Mass density, kg/m3 (Liquid); method: VIBTUB:UFactor:4
Temperature, K	Pressure, kPa	Mass density, kg/m3	uncertainty
298.15	101.325	1043.6	0.6

System: acetic acid; phases: Liquid
Property: Viscosity, Pa*s (Liquid); method: CAPTUB:UFactor:4
Temperature, K	Pressure, kPa	Viscosity, Pa*s	uncertainty
298.15	101.325	0.001115	3.5e-05

System: ethyl acetate; phases: Liquid, Gas
Property: Normal boiling temperature, K (Liquid); method: Ebulliometric method (Recirculating still)
Normal boiling temperature, K	uncertainty
350.27	0.2

System: ethyl acetate; phases: Liquid
Property: Mass density, kg/m3 (Liquid); method: VIBTUB:UFactor:4
Temperature, K	Pressure, kPa	Mass density, kg/m3	uncertainty
298.15	101.325	894.4	0.4

System: ethyl acetate; phases: Liquid
Property: Viscosity, Pa*s (Liquid); method: CAPTUB:UFactor:4
Temperature, K	Pressure, kPa	Viscosity, Pa*s	uncertainty
298.15	101.325	0.000426	1.6e-05

System: ethanol; phases: Liquid, Gas
Property: Normal boiling temperature, K (Liquid); method: Ebulliometric method (Recirculating still)
Normal boiling temperature, K	uncertainty
351.43	0.2

System: ethanol; phases: Liquid
Property: Mass density, kg/m3 (Liquid); method: VIBTUB:UFactor:4
Temperature, K	Pressure, kPa	Mass density, kg/m3	uncertainty
298.15	101.325	785.4	0.6

System: ethanol; phases: Liquid
Property: Viscosity, Pa*s (Liquid); method: CAPTUB:UFactor:4
Temperature, K	Pressure, kPa	Viscosity, Pa*s	uncertainty
298.15	101.325	0.001082	3.4e-05

System: ethanol + ethyl acetate; phases: Liquid, Gas
Fixed: Pressure, kPa = 101.325
Property: Boiling temperature at pressure P, K (Liquid); method: EBULLIO:UFactor:6
Mole fraction of ethyl acetate	Boiling temperature at pressure P, K	uncertainty
0.0239	350.77	0.18
0.0437	350.08	0.18
0.0651	349.52	0.18
0.1005	348.76	0.18
0.1633	347.53	0.18
0.1886	347.16	0.18
0.222	346.74	0.18
0.2905	346.07	0.18
0.3406	345.7	0.18
0.3697	345.61	0.18
0.3916	345.51	0.18
0.415	345.41	0.18
0.4342	345.35	0.18
0.4643	345.27	0.18
0.499	345.22	0.18
0.5369	345.19	0.18
0.5792	345.21	0.18
0.6241	345.29	0.18
0.6594	345.43	0.18
0.7002	345.61	0.18
0.7447	345.89	0.18
0.7919	346.33	0.18
0.842	346.99	0.18
0.8992	347.91	0.18

System: ethanol + ethyl acetate; phases: Gas, Liquid
Fixed: Pressure, kPa = 101.325
Property: Mole fraction of ethyl acetate (Gas); method: Density calibration data
Mole fraction of ethyl acetate	Mole fraction of ethyl acetate	uncertainty
0.0239	0.0602	0.0235
0.0437	0.1024	0.0211
0.0651	0.1367	0.0189
0.1005	0.1936	0.0174
0.1633	0.2778	0.0164
0.1886	0.3066	0.0144
0.222	0.3389	0.0129
0.2905	0.3899	0.0126
0.3406	0.4296	0.012
0.3697	0.4407	0.0115
0.3916	0.4586	0.0123
0.415	0.4729	0.0117
0.4342	0.4844	0.0112
0.4643	0.4981	0.0113
0.499	0.5178	0.0116
0.5369	0.541	0.0117
0.5792	0.5657	0.0117
0.6241	0.593	0.0119
0.6594	0.6165	0.012
0.7002	0.6438	0.0122
0.7447	0.6762	0.0128
0.7919	0.7164	0.0139
0.842	0.7699	0.015
0.8992	0.8357	0.0152

System: acetic acid + ethyl acetate; phases: Liquid, Gas
Fixed: Pressure, kPa = 101.325
Property: Boiling temperature at pressure P, K (Liquid); method: EBULLIO:UFactor:8
Mole fraction of ethyl acetate	Boiling temperature at pressure P, K	uncertainty
0.0238	388.86	0.25
0.0366	387.91	0.25
0.0476	386.97	0.25
0.0776	385.03	0.25
0.0907	384.03	0.25
0.117	382.21	0.25
0.141	380.57	0.25
0.1657	379.12	0.25
0.2203	376.35	0.25
0.2661	373.77	0.25
0.3085	371.67	0.25
0.3924	367.87	0.25
0.4617	365	0.25
0.4924	364	0.25
0.5332	362.65	0.25
0.5559	361.91	0.25
0.6068	360.21	0.25
0.6568	358.94	0.25
0.6986	357.82	0.25
0.7426	356.57	0.25
0.7974	355.2	0.25
0.8415	354.21	0.25
0.8644	353.55	0.25
0.9197	352.2	0.25
0.9482	351.45	0.25
0.9809	350.61	0.25

System: acetic acid + ethyl acetate; phases: Gas, Liquid
Fixed: Pressure, kPa = 101.325
Property: Mole fraction of ethyl acetate (Gas); method: Density calibration data
Mole fraction of ethyl acetate	Mole fraction of ethyl acetate	uncertainty
0.0238	0.0825	0.0301
0.0366	0.1189	0.0308
0.0476	0.1518	0.0322
0.0776	0.2443	0.0301
0.0907	0.2718	0.0231
0.117	0.3265	0.0236
0.141	0.3795	0.0235
0.1657	0.4297	0.0223
0.2203	0.5369	0.0208
0.2661	0.6113	0.0186
0.3085	0.6739	0.0155
0.3924	0.7621	0.0139
0.4617	0.8215	0.0131
0.4924	0.8463	0.0121
0.5332	0.8702	0.0115
0.5559	0.882	0.0112
0.6068	0.9074	0.0109
0.6568	0.9266	0.0108
0.6986	0.9439	0.0106
0.7426	0.9571	0.0104
0.7974	0.971	0.0102
0.8415	0.9769	0.0101
0.8644	0.9811	0.0101
0.9197	0.9898	0.0101
0.9482	0.9938	0.0062
0.9809	0.9968	0.0032

System: acetic acid + water; phases: Liquid, Gas
Fixed: Pressure, kPa = 101.325
Property: Boiling temperature at pressure P, K (Liquid); method: EBULLIO:UFactor:8
Mole fraction of water	Boiling temperature at pressure P, K	uncertainty
0.0901	386.54	0.25
0.1414	384.47	0.25
0.1934	382.96	0.25
0.2593	381.86	0.25
0.3241	380.39	0.25
0.3627	379.83	0.25
0.4454	378.65	0.25
0.4702	378.35	0.25
0.5071	377.84	0.25
0.5337	377.47	0.25
0.5698	377.18	0.25
0.6046	376.7	0.25
0.6546	376.28	0.25
0.6808	375.98	0.25
0.7057	375.68	0.25
0.7332	375.45	0.25
0.7789	375	0.25
0.8287	374.62	0.25
0.8555	374.45	0.25
0.8963	374.11	0.25
0.914	373.99	0.25
0.9391	373.84	0.25
0.9653	373.66	0.25
0.9902	373.31	0.25

System: acetic acid + water; phases: Gas, Liquid
Fixed: Pressure, kPa = 101.325
Property: Mole fraction of water (Gas); method: Density calibration data
Mole fraction of water	Mole fraction of water	uncertainty
0.0901	0.2253	0.0206
0.1414	0.3177	0.0193
0.1934	0.3954	0.016
0.2593	0.4654	0.0145
0.3241	0.5311	0.0139
0.3627	0.5622	0.0134
0.4454	0.6371	0.0136
0.4702	0.6593	0.0126
0.5071	0.6844	0.0123
0.5337	0.7047	0.0121
0.5698	0.7271	0.0122
0.6046	0.7536	0.0129
0.6546	0.7961	0.0133
0.6808	0.82	0.0131
0.7057	0.8394	0.0122
0.7332	0.8566	0.0116
0.7789	0.8819	0.0113
0.8287	0.9064	0.0111
0.8555	0.9183	0.0113
0.8963	0.9419	0.0115
0.914	0.9515	0.0114
0.9391	0.9651	0.0115
0.9653	0.9809	0.0116
0.9902	0.9951	0.0049
