Measured thermophysical data. Liquid-liquid equilibria for ternary mixtures of 2,2-dimethyl-1,3-dioxolane-4-methanol with n-heptane, toluene, ethanol and water
Source: Fluid Phase Equilib., 2015, 10.1016/j.fluid.2015.07.016
Compound 1: 2,2-dimethyl-1,3-dioxolane-4-methanol, C6H12O3, InChI=1S/C6H12O3/c1-6(2)8-4-5(3-7)9-6/h5,7H,3-4H2,1-2H3, purity 99%
Compound 2: heptane, C7H16, InChI=1S/C7H16/c1-3-5-7-6-4-2/h3-7H2,1-2H3, purity 99.8%
Compound 3: toluene, C7H8, InChI=1S/C7H8/c1-7-5-3-2-4-6-7/h2-6H,1H3, purity 99.8%
Compound 4: ethanol, C2H6O, InChI=1S/C2H6O/c1-2-3/h3H,2H2,1H3, purity 99.8%
Compound 5: water, H2O, InChI=1S/H2O/h1H2, purity 99.8%

System: 2,2-dimethyl-1,3-dioxolane-4-methanol; phases: Liquid
Property: Mass density, kg/m3 (Liquid); method: Vibrating tube method
Temperature, K	Pressure, kPa	Mass density, kg/m3	uncertainty
298.15	101.325	1069.3	1

System: 2,2-dimethyl-1,3-dioxolane-4-methanol; phases: Liquid
Property: Refractive index (Na D-line) (Liquid); method: Standard Abbe refractometry
Temperature, K	Pressure, kPa	Refractive index (Na D-line)	uncertainty
293.15	101.325	1.4346	0.0007

System: heptane; phases: Liquid
Property: Mass density, kg/m3 (Liquid); method: Vibrating tube method
Temperature, K	Pressure, kPa	Mass density, kg/m3	uncertainty
298.15	101.325	683.8	1

System: heptane; phases: Liquid
Property: Refractive index (Na D-line) (Liquid); method: Standard Abbe refractometry
Temperature, K	Pressure, kPa	Refractive index (Na D-line)	uncertainty
298.15	101.325	1.3876	0.0007

System: toluene; phases: Liquid
Property: Mass density, kg/m3 (Liquid); method: Vibrating tube method
Temperature, K	Pressure, kPa	Mass density, kg/m3	uncertainty
298.15	101.325	866.9	1

System: toluene; phases: Liquid
Property: Refractive index (Na D-line) (Liquid); method: Standard Abbe refractometry
Temperature, K	Pressure, kPa	Refractive index (Na D-line)	uncertainty
298.15	101.325	1.4969	0.0007

System: ethanol; phases: Liquid
Property: Mass density, kg/m3 (Liquid); method: Vibrating tube method
Temperature, K	Pressure, kPa	Mass density, kg/m3	uncertainty
298.15	101.325	789.5	1

System: ethanol; phases: Liquid
Property: Refractive index (Na D-line) (Liquid); method: Standard Abbe refractometry
Temperature, K	Pressure, kPa	Refractive index (Na D-line)	uncertainty
298.15	101.325	1.3614	0.0007

System: water; phases: Liquid
Property: Mass density, kg/m3 (Liquid); method: Vibrating tube method
Temperature, K	Pressure, kPa	Mass density, kg/m3	uncertainty
298.15	101.325	998.2	1

System: water; phases: Liquid
Property: Refractive index (Na D-line) (Liquid); method: Standard Abbe refractometry
Temperature, K	Pressure, kPa	Refractive index (Na D-line)	uncertainty
298.15	101.325	1.333	0.0007

System: ethanol + 2,2-dimethyl-1,3-dioxolane-4-methanol + heptane; phases: Liquid mixture 1, Liquid mixture 2
Fixed: Temperature, K = 293.15
Fixed: Pressure, kPa = 101.3
Property: Mole fraction of heptane (Liquid mixture 1); method: Index of refraction calibration data
Property: Mole fraction of 2,2-dimethyl-1,3-dioxolane-4-methanol (Liquid mixture 2); method: Index of refraction calibration data
Property: Mole fraction of heptane (Liquid mixture 2); method: Index of refraction calibration data
Mole fraction of 2,2-dimethyl-1,3-dioxolane-4-methanol	Mole fraction of heptane	uncertainty	Mole fraction of 2,2-dimethyl-1,3-dioxolane-4-methanol	uncertainty	Mole fraction of heptane	uncertainty
0.716	0.25	0.006	0.025	0.002	0.96	
0.632	0.28	0.007	0.05	0.003	0.916	
0.582	0.3	0.007	0.072	0.003	0.88	
0.553	0.317	0.008	0.085	0.003	0.857	
0.496	0.359	0.009	0.129	0.004	0.791	
0.416	0.431	0.01	0.19	0.005	0.702	

System: ethanol + 2,2-dimethyl-1,3-dioxolane-4-methanol + heptane; phases: Liquid mixture 2, Liquid mixture 1
Fixed: Pressure, kPa = 101.3
Property: Mole fraction of 2,2-dimethyl-1,3-dioxolane-4-methanol (Liquid mixture 2); method: Isothermal Titration
Temperature, K	Mole fraction of heptane	Mole fraction of 2,2-dimethyl-1,3-dioxolane-4-methanol	uncertainty
293.15	0.481	0.366	0.009
293.15	0.546	0.312	0.008
293.15	0.647	0.228	0.006
293.15	0.737	0.165	0.004
293.15	0.825	0.106	0.003
293.15	0.911	0.054	0.003
293.15	0.987	0.013	0.002
273.15	0.433	0.276	0.007
273.15	0.563	0.186	0.005
273.15	0.685	0.134	0.004
273.15	0.791	0.084	0.003
273.15	0.983	0.017	0.002
293.15	0.244	0.756	0.011
293.15	0.264	0.667	0.01
293.15	0.314	0.557	0.011
293.15	0.375	0.472	0.011
293.15	0.431	0.414	0.01
273.15	0.161	0.839	0.007
273.15	0.132	0.741	0.01
273.15	0.182	0.586	0.013
273.15	0.248	0.462	0.011
273.15	0.322	0.383	0.009

System: 2,2-dimethyl-1,3-dioxolane-4-methanol + heptane + water; phases: Liquid mixture 1, Liquid mixture 2
Fixed: Temperature, K = 293.15
Fixed: Pressure, kPa = 101.3
Property: Mole fraction of heptane (Liquid mixture 1); method: Index of refraction calibration data
Property: Mole fraction of 2,2-dimethyl-1,3-dioxolane-4-methanol (Liquid mixture 2); method: Index of refraction calibration data
Property: Mole fraction of heptane (Liquid mixture 2); method: Index of refraction calibration data
Mole fraction of 2,2-dimethyl-1,3-dioxolane-4-methanol	Mole fraction of heptane	uncertainty	Mole fraction of 2,2-dimethyl-1,3-dioxolane-4-methanol	uncertainty	Mole fraction of heptane	uncertainty
0.181	0.01	0.01	0.009	0.002	0.99	
0.296	0.013	0.002	0.01	0.01	0.985	
0.51	0.024	0.002	0.01	0.01	0.985	
0.664	0.069	0.003	0.01	0.01	0.985	
0.755	0.146	0.004	0.01	0.01	0.985	

System: 2,2-dimethyl-1,3-dioxolane-4-methanol + heptane + water; phases: Liquid mixture 1, Liquid mixture 2
Fixed: Temperature, K = 293.15
Fixed: Pressure, kPa = 101.3
Property: Mole fraction of heptane (Liquid mixture 1); method: Isothermal Titration
Mole fraction of 2,2-dimethyl-1,3-dioxolane-4-methanol	Mole fraction of heptane	uncertainty
0.054	0.003	0.002
0.086	0.006	0.002
0.122	0.004	0.002
0.196	0.013	0.002
0.233	0.01	0.002
0.38	0.022	0.002
0.456	0.017	0.002
0.504	0.03	0.002
0.52	0.027	0.002
0.58	0.035	0.002
0.655	0.064	0.003
0.674	0.073	0.003
0.725	0.103	0.003
0.746	0.128	0.009
0.761	0.159	0.034
0.76	0.167	0.039
0.759	0.208	0.024
0.756	0.244	0.016

System: 2,2-dimethyl-1,3-dioxolane-4-methanol + toluene + water; phases: Liquid mixture 2, Liquid mixture 1
Fixed: Pressure, kPa = 101.3
Fixed: Temperature, K = 293.15
Property: Mole fraction of toluene (Liquid mixture 2); method: Index of refraction calibration data
Property: Mole fraction of toluene (Liquid mixture 1); method: Index of refraction calibration data
Property: Mole fraction of 2,2-dimethyl-1,3-dioxolane-4-methanol (Liquid mixture 1); method: Index of refraction calibration data
Mole fraction of 2,2-dimethyl-1,3-dioxolane-4-methanol	Mole fraction of toluene	uncertainty	Mole fraction of toluene	uncertainty	Mole fraction of 2,2-dimethyl-1,3-dioxolane-4-methanol	uncertainty
0.01	0.985	0.003	0.003	0.002	0.057	
0.061	0.928	0.003	0.005	0.002	0.126	
0.137	0.842	0.005	0.01	0.002	0.17	
0.244	0.645	0.009	0.056	0.003	0.255	
0.01	0.985	0.003	0.003	0.002	0.057	
0.061	0.928	0.003	0.005	0.002	0.126	

System: 2,2-dimethyl-1,3-dioxolane-4-methanol + toluene + water; phases: Liquid mixture 1, Liquid mixture 2
Fixed: Temperature, K = 293.15
Fixed: Pressure, kPa = 101.3
Property: Mole fraction of toluene (Liquid mixture 1); method: Isothermal Titration
Mole fraction of 2,2-dimethyl-1,3-dioxolane-4-methanol	Mole fraction of toluene	uncertainty
0.129	0.005	0.005
0.2	0.02	0.003
0.282	0.092	0.016
0.309	0.214	0.031
0.31	0.345	0.018
0.29	0.501	0.012
0.26	0.608	0.021
0.223	0.7	0.019
0.186	0.779	0.023
0.143	0.838	0.021

System: 2,2-dimethyl-1,3-dioxolane-4-methanol + heptane; phases: Liquid mixture 2, Liquid mixture 1
Fixed: Pressure, kPa = 101.3
Property: Mole fraction of 2,2-dimethyl-1,3-dioxolane-4-methanol (Liquid mixture 2); method: Isothermal Titration
Temperature, K	Mole fraction of 2,2-dimethyl-1,3-dioxolane-4-methanol	uncertainty
293.15	0.013	0.002
273.15	0.017	0.002
293.15	0.756	0.011
273.15	0.839	0.007

System: 2,2-dimethyl-1,3-dioxolane-4-methanol + heptane; phases: Liquid mixture 1, Liquid mixture 2
Property: Mole fraction of heptane (Liquid mixture 1); method: Isothermal Titration
Temperature, K	Pressure, kPa	Mole fraction of heptane	uncertainty
293.15	101.3	0.244	0.016
