Measured thermophysical data. CO2 solubility in water containing monosaccharides, and the prediction of pH using Peng-Robinson equation of state
Source: Fluid Phase Equilib., 2017, 10.1016/j.fluid.2017.03.005
Compound 1: carbon dioxide, CO2, InChI=1S/CO2/c2-1-3
Compound 2: water, H2O, InChI=1S/H2O/h1H2, purity 99.8%
Compound 3: sodium galacturonate, C6H9NaO7, InChI=1S/C6H10O7.Na/c7-1-2(8)3(9)4(10)5(11)6(12)13;/h1-5,8-11H,(H,12,13);/q;+1/p-1/t2-,3+,4+,5-;/m0./s1, purity 97%
Compound 4: D-galacturonic acid, C6H10O7, InChI=1S/C6H10O7/c7-1-2(8)3(9)4(10)5(11)6(12)13/h1-5,8-11H,(H,12,13)/t2-,3+,4+,5-/m0/s1, purity 97%

System: carbon dioxide + D-galacturonic acid + water; phases: Liquid, Gas
Fixed: Temperature, K = 313.4
Property: Mole fraction of carbon dioxide (Liquid); method: wet flow meter
Pressure, kPa	Solvent: Mass fraction of D-galacturonic acid	Mole fraction of carbon dioxide	uncertainty
3590	0	0.0117	0.0001
4650	0	0.0139	0.0001
6180	0	0.0171	0.0002
7930	0	0.0202	0.0002
9000	0	0.0215	0.0002
3230	0.6109	0.0105	0.0001
4200	0.6109	0.0126	0.0001
5570	0.6109	0.0161	0.0001
7240	0.6109	0.0195	0.0002
9290	0.6109	0.0228	0.0002

System: carbon dioxide + water + sodium galacturonate; phases: Liquid, Gas
Fixed: Temperature, K = 313.4
Property: Mole fraction of carbon dioxide (Liquid); method: wet flow meter
Pressure, kPa	Solvent: Mass fraction of sodium galacturonate	Mole fraction of carbon dioxide	uncertainty
3590	0	0.0117	0.0001
4650	0	0.0139	0.0001
6180	0	0.0171	0.0002
7930	0	0.0202	0.0002
9000	0	0.0215	0.0002
4760	0.6514	0.0146	0.0001
5280	0.6514	0.0155	0.0001
7800	0.6514	0.0191	0.0002
9190	0.6514	0.0208	0.0002
