Measured thermophysical data. Experimental determination and correlation of the solubility of a new reactive disperse orange SCF-AOL2 dye in pure supercritical carbon dioxide fluid
Source: Fluid Phase Equilib., 2018, 10.1016/j.fluid.2018.01.009
Compound 1: 2-((4-(4-N,N-diethyl)-phenylazo)sulfonyl)ethyl hydrogen sulfate, C18H23N3O6S2, InChI=1S/C18H23N3O6S2/c1-3-21(4-2)17-9-5-15(6-10-17)19-20-16-7-11-18(12-8-16)28(22,23)14-13-27-29(24,25)26/h5-12H,3-4,13-14H2,1-2H3,(H,24,25,26)/b20-19+
Compound 2: carbon dioxide, CO2, InChI=1S/CO2/c2-1-3, purity 99.5%

System: 2-((4-(4-N,N-diethyl)-phenylazo)sulfonyl)ethyl hydrogen sulfate + carbon dioxide; phases: Fluid (supercritical or subcritical phases), Liquid
Property: Mole fraction of 2-((4-(4-N,N-diethyl)-phenylazo)sulfonyl)ethyl hydrogen sulfate (Fluid (supercritical or subcritical phases)); method: UV Vis Spectrophotometry
Temperature, K	Pressure, kPa	Mole fraction of 2-((4-(4-N,N-diethyl)-phenylazo)sulfonyl)ethyl hydrogen sulfate	uncertainty
333.2	8000	3.41062e-07	1.6135e-08
333.2	10000	2.59684e-07	1.1937e-08
333.2	12000	2.33205e-07	9.65e-09
333.2	16000	2.22648e-07	9.16e-09
333.2	18000	2.22229e-07	9.14e-09
333.2	20000	2.16774e-07	8.888e-09
333.2	22000	2.11847e-07	8.672e-09
353.2	8000	5.47536e-07	2.6794e-08
353.2	10000	4.61174e-07	1.9881e-08
353.2	12000	4.17969e-07	1.7223e-08
353.2	16000	3.93724e-07	1.6048e-08
353.2	18000	3.89311e-07	1.5922e-08
353.2	20000	3.59751e-07	1.4815e-08
353.2	22000	3.42971e-07	1.4002e-08
363.2	8000	7.95577e-07	3.482e-08
363.2	10000	6.4901e-07	2.8259e-08
363.2	12000	6.0014e-07	2.4843e-08
363.2	16000	5.35492e-07	2.2094e-08
363.2	18000	5.04348e-07	2.0729e-08
363.2	20000	4.84107e-07	1.9833e-08
363.2	22000	4.73653e-07	1.9353e-08
373.2	8000	9.83875e-07	4.1247e-08
373.2	10000	8.56692e-07	3.5847e-08
373.2	12000	8.08862e-07	3.3167e-08
373.2	16000	7.28681e-07	3.0053e-08
373.2	18000	6.71644e-07	2.7653e-08
373.2	20000	6.51448e-07	2.6608e-08
373.2	22000	6.32949e-07	2.5828e-08
383.2	8000	1.107776e-06	4.6564e-08
383.2	10000	9.75437e-07	3.9956e-08
383.2	12000	9.93318e-07	4.0452e-08
383.2	16000	9.67033e-07	3.9505e-08
383.2	18000	8.72683e-07	3.6228e-08
383.2	20000	8.25139e-07	3.3742e-08
383.2	22000	7.98614e-07	3.257e-08
393.2	8000	1.214295e-06	4.9179e-08
393.2	10000	1.186652e-06	4.8451e-08
393.2	12000	1.308347e-06	5.3077e-08
393.2	16000	1.21319e-06	4.9619e-08
393.2	18000	1.110194e-06	4.6125e-08
393.2	20000	1.020757e-06	4.2209e-08
393.2	22000	9.49119e-07	3.9122e-08
