Measured thermophysical data. Density, viscosity, refractive index and electrical conductivity of saturated solutions of the lithium hydroxide + ethanol +water system at 298.15 K, and thermodynamic description of the solid liquid equilibrium
Source: Fluid Phase Equilib., 2005, 10.1016/j.fluid.2005.05.022
Compound 1: ethanol, C2H6O, InChI=1S/C2H6O/c1-2-3/h3H,2H2,1H3, purity 99.8%
Compound 2: water, H2O, InChI=1S/H2O/h1H2
Compound 3: lithium hydroxide, HLiO, InChI=1S/Li.H2O/h;1H2/q+1;/p-1, purity 99%

System: ethanol + lithium hydroxide + water; phases: Liquid, Crystal of intercomponent compound 1
Fixed: Pressure, kPa = 101
Fixed: Temperature, K = 298.15
Property: Electrical conductivity, S/m (Liquid); method: Orion model 170 conductivity-meter
Solvent: Mass fraction of ethanol	Electrical conductivity, S/m	uncertainty
0	395.1	15.8
0.091	264.2	10.6
0.187	171	6.8
0.272	111.9	4.5
0.386	67	2.7
0.46	48	2
0.511	34.2	2
0.553	27.9	2
0.589	21	2

System: ethanol + lithium hydroxide + water; phases: Liquid, Crystal of intercomponent compound 1
Fixed: Pressure, kPa = 101
Fixed: Temperature, K = 298.15
Property: Viscosity, Pa*s (Liquid); method: Capillary tube (Ostwald; Ubbelohde) method
Solvent: Mass fraction of ethanol	Viscosity, Pa*s	uncertainty
0	0.003614	5.7e-05
0.091	0.003803	5.8e-05
0.187	0.00406	5.9e-05
0.272	0.004091	5.9e-05
0.386	0.003918	5.8e-05
0.46	0.003661	5.7e-05
0.511	0.003432	5.6e-05
0.553	0.00324	5.5e-05
0.589	0.003075	5.4e-05

System: ethanol + lithium hydroxide + water; phases: Liquid, Crystal of intercomponent compound 1
Fixed: Temperature, K = 298.15
Fixed: Pressure, kPa = 101
Property: Mass ratio of solute to solvent of lithium hydroxide (Liquid); method: Atomic Abosorption Spectrometry
Solvent: Mass fraction of ethanol	Mass ratio of solute to solvent of lithium hydroxide	uncertainty
0	0.1103	0.0016
0.091	0.0848	0.0016
0.187	0.0635	0.0016
0.272	0.0497	0.0016
0.386	0.0366	0.0016
0.46	0.0289	0.0016
0.511	0.0248	0.0016
0.553	0.0211	0.0016
0.589	0.0191	0.0016

System: ethanol + lithium hydroxide + water; phases: Liquid, Crystal of intercomponent compound 1
Fixed: Pressure, kPa = 101
Fixed: Temperature, K = 298.15
Property: Refractive index (Na D-line) (Liquid); method: Standard Abbe refractometry
Solvent: Mass fraction of ethanol	Refractive index (Na D-line)	uncertainty
0	1.3735	0.0007
0.091	1.3708	0.0007
0.187	1.3695	0.0007
0.272	1.369	0.0007
0.386	1.3686	0.0007
0.46	1.3684	0.0007
0.511	1.3681	0.0007
0.553	1.368	0.0007
0.589	1.3678	0.0007

System: ethanol + lithium hydroxide + water; phases: Liquid, Crystal of intercomponent compound 1
Fixed: Temperature, K = 298.15
Fixed: Pressure, kPa = 101
Property: Mass density, kg/m3 (Liquid); method: Vibrating tube method
Solvent: Mass fraction of ethanol	Mass density, kg/m3	uncertainty
0	1111.92	0.51
0.091	1072.15	0.49
0.187	1035.37	0.47
0.272	1005.72	0.46
0.386	969.11	0.44
0.46	946.95	0.43
0.511	930.42	0.43
0.553	918.83	0.42
0.589	908.35	0.42
