Measured thermophysical data. Surface tension and liquid viscosity measurement for binary mixtures of R134a with R1234yf and R1234ze(E)
Source: Fluid Phase Equilib., 2016, 10.1016/j.fluid.2016.01.013
Compound 1: 1,1,1,2-tetrafluoroethane, C2H2F4, InChI=1S/C2H2F4/c3-1-2(4,5)6/h1H2, purity 99.9%
Compound 2: 2,3,3,3-tetrafluoro-1-propene, C3H2F4, InChI=1S/C3H2F4/c1-2(4)3(5,6)7/h1H2, purity 99.9%
Compound 3: trans-1,3,3,3-tetrafluoropropene, C3H2F4, InChI=1S/C3H2F4/c4-2-1-3(5,6)7/h1-2H/b2-1+, purity 99.9%

System: 2,3,3,3-tetrafluoro-1-propene + 1,1,1,2-tetrafluoroethane; phases: Liquid, Gas
Property: Kinematic viscosity, m2/s (Liquid); method: Surface laser light scattering (SLLS)
Temperature, K	Mole fraction of 1,1,1,2-tetrafluoroethane	Kinematic viscosity, m2/s	uncertainty
293.22	0.3196	1.49e-07	1.01e-08
303.21	0.3196	1.347e-07	9.7e-09
313.12	0.3196	1.249e-07	9.4e-09
323.1	0.3196	1.15e-07	9.1e-09
333.16	0.3196	1.066e-07	8.9e-09
343.19	0.3196	9.77e-08	8.7e-09
353.16	0.3196	8.7e-08	8.4e-09
358.15	0.3196	8.36e-08	8.4e-09
293.2	0.6018	1.612e-07	1.04e-08
303.13	0.6018	1.425e-07	9.9e-09
313.15	0.6018	1.294e-07	9.5e-09
323.16	0.6018	1.221e-07	9.3e-09
333.12	0.6018	1.122e-07	9.1e-09
343.16	0.6018	1.001e-07	8.7e-09
353.19	0.6018	8.9e-08	8.5e-09
363.19	0.6018	7.95e-08	8.4e-09
293.15	0.807	1.617e-07	1.05e-08
303.15	0.807	1.47e-07	1e-08
323.15	0.807	1.258e-07	9.4e-09
333.15	0.807	1.133e-07	9.1e-09
343.14	0.807	1.04e-07	8.8e-09
353.1	0.807	9.22e-08	8.6e-09
363.16	0.807	8.21e-08	8.4e-09

System: 2,3,3,3-tetrafluoro-1-propene + 1,1,1,2-tetrafluoroethane; phases: Liquid, Gas
Property: Surface tension liquid-gas, N/m (Liquid); method: SLS
Temperature, K	Mole fraction of 1,1,1,2-tetrafluoroethane	Surface tension liquid-gas, N/m	uncertainty
293.22	0.3196	0.00738	0.00022
303.21	0.3196	0.00614	0.00018
313.12	0.3196	0.00493	0.00015
323.1	0.3196	0.00395	0.00012
333.16	0.3196	0.00287	9e-05
343.19	0.3196	0.00188	6e-05
353.16	0.3196	0.001	3e-05
358.15	0.3196	0.0006	2e-05
293.2	0.6018	0.0078	0.00023
303.13	0.6018	0.00659	0.0002
313.15	0.6018	0.00541	0.00016
323.16	0.6018	0.00424	0.00013
333.12	0.6018	0.00315	9e-05
343.16	0.6018	0.00211	6e-05
353.19	0.6018	0.00117	4e-05
363.19	0.6018	0.00037	1e-05
293.15	0.807	0.00825	0.00025
303.15	0.807	0.00699	0.00021
323.15	0.807	0.00455	0.00014
333.15	0.807	0.00341	0.0001
343.14	0.807	0.00239	7e-05
353.1	0.807	0.00131	4e-05
363.16	0.807	0.00053	2e-05

System: 1,1,1,2-tetrafluoroethane + trans-1,3,3,3-tetrafluoropropene; phases: Liquid, Gas
Fixed: Mole fraction of 1,1,1,2-tetrafluoroethane = 0.4446
Property: Kinematic viscosity, m2/s (Liquid); method: Surface laser light scattering (SLLS)
Temperature, K	Kinematic viscosity, m2/s	uncertainty
293.1	1.782e-07	1.1e-08
303.16	1.615e-07	1.05e-08
313.12	1.455e-07	1e-08
323.11	1.304e-07	9.5e-09
333.14	1.214e-07	9.3e-09
343.14	1.125e-07	9.1e-09
353.1	1.024e-07	8.8e-09
363.1	9e-08	8.5e-09
369.15	8.63e-08	8.4e-09

System: 1,1,1,2-tetrafluoroethane + trans-1,3,3,3-tetrafluoropropene; phases: Liquid, Gas
Fixed: Mole fraction of 1,1,1,2-tetrafluoroethane = 0.4446
Property: Surface tension liquid-gas, N/m (Liquid); method: SLS
Temperature, K	Surface tension liquid-gas, N/m	uncertainty
293.1	0.00889	0.00013
303.16	0.00758	0.00011
313.12	0.00634	0.0001
323.11	0.00516	8e-05
333.14	0.00398	6e-05
343.14	0.00292	4e-05
353.1	0.00192	3e-05
363.1	0.00101	2e-05
369.15	0.00053	1e-05
