Measured thermophysical data. Correlation of solubility of pioglitazone hydrochloride in different binary solvents
Source: Fluid Phase Equilib., 2013, 10.1016/j.fluid.2013.05.008
Compound 1: 5-(4-(2-(5-ethylpyridin-2-yl)ethoxy)benzyl)thiazolidine-2,4-dione hydrochloride, C19H21ClN2O3S, InChI=1S/C19H20N2O3S.ClH/c1-2-13-3-6-15(20-12-13)9-10-24-16-7-4-14(5-8-16)11-17-18(22)21-19(23)25-17;/h3-8,12,17H,2,9-11H2,1H3,(H,21,22,23);1H, purity 99%
Compound 2: methanol, CH4O, InChI=1S/CH4O/c1-2/h2H,1H3, purity 99.5%
Compound 3: ethanol, C2H6O, InChI=1S/C2H6O/c1-2-3/h3H,2H2,1H3, purity 99.5%
Compound 4: propan-1-ol, C3H8O, InChI=1S/C3H8O/c1-2-3-4/h4H,2-3H2,1H3, purity 99.5%
Compound 5: acetone, C3H6O, InChI=1S/C3H6O/c1-3(2)4/h1-2H3, purity 99.5%

System: 5-(4-(2-(5-ethylpyridin-2-yl)ethoxy)benzyl)thiazolidine-2,4-dione hydrochloride; phases: Crystal, Liquid, Air at 1 atmosphere
Property: Normal melting temperature, K (Crystal); method: DTA
Normal melting temperature, K	uncertainty
468.77	0.5

System: 5-(4-(2-(5-ethylpyridin-2-yl)ethoxy)benzyl)thiazolidine-2,4-dione hydrochloride; phases: Crystal, Liquid, Air at 1 atmosphere
Property: Molar enthalpy of transition or fusion, kJ/mol (Crystal); method: DSC
Molar enthalpy of transition or fusion, kJ/mol	uncertainty
50.34	1.36

System: ethanol + methanol + 5-(4-(2-(5-ethylpyridin-2-yl)ethoxy)benzyl)thiazolidine-2,4-dione hydrochloride; phases: Liquid, Crystal
Fixed: Pressure, kPa = 101
Property: Mole fraction of 5-(4-(2-(5-ethylpyridin-2-yl)ethoxy)benzyl)thiazolidine-2,4-dione hydrochloride (Liquid); method: Chromatography
Temperature, K	Solvent: Mole fraction of methanol	Mole fraction of 5-(4-(2-(5-ethylpyridin-2-yl)ethoxy)benzyl)thiazolidine-2,4-dione hydrochloride	uncertainty
283.15	0.091	0.0009927	0.0009927
283.15	0.192	0.001142	0.001142
283.15	0.265	0.001217	0.001217
283.15	0.372	0.001456	0.001456
283.15	0.484	0.001909	0.001909
283.15	0.597	0.002357	0.002357
283.15	0.697	0.002863	0.002863
283.15	0.778	0.003418	0.003418
283.15	0.903	0.004419	0.004419
283.15	1	0.005175	0.005175
293.15	0.091	0.001185	0.001185
293.15	0.192	0.001497	0.001497
293.15	0.265	0.001752	0.001752
293.15	0.372	0.002048	0.002048
293.15	0.484	0.002596	0.002596
293.15	0.597	0.003227	0.003227
293.15	0.697	0.004009	0.004009
293.15	0.778	0.004721	0.004721
293.15	0.903	0.006141	0.006141
293.15	1	0.007535	0.007535
303.15	0.091	0.001722	0.001722
303.15	0.192	0.002059	0.002059
303.15	0.265	0.002344	0.002344
303.15	0.372	0.002825	0.002825
303.15	0.484	0.003674	0.003674
303.15	0.597	0.004588	0.004588
303.15	0.697	0.005639	0.005639
303.15	0.778	0.006409	0.006409
303.15	0.903	0.0085	0.0085
303.15	1	0.01024	0.01024
313.15	0.091	0.002413	0.002413
313.15	0.192	0.002937	0.002937
313.15	0.265	0.003394	0.003394
313.15	0.372	0.004064	0.004064
313.15	0.484	0.005235	0.005235
313.15	0.597	0.006489	0.006489
313.15	0.697	0.007943	0.007943
313.15	0.778	0.009499	0.009499
313.15	0.903	0.01244	0.01244
313.15	1	0.01494	0.01494
323.15	0.091	0.003544	0.003544
323.15	0.192	0.004223	0.004223
323.15	0.265	0.004914	0.004914
323.15	0.372	0.005935	0.005935
323.15	0.484	0.007713	0.007713
323.15	0.597	0.009687	0.009687
323.15	0.697	0.01199	0.01199
323.15	0.778	0.01438	0.01438
323.15	0.903	0.01891	0.01891
323.15	1	0.02228	0.02228

System: methanol + propan-1-ol + 5-(4-(2-(5-ethylpyridin-2-yl)ethoxy)benzyl)thiazolidine-2,4-dione hydrochloride; phases: Liquid, Crystal
Fixed: Pressure, kPa = 101
Property: Mole fraction of 5-(4-(2-(5-ethylpyridin-2-yl)ethoxy)benzyl)thiazolidine-2,4-dione hydrochloride (Liquid); method: Chromatography
Temperature, K	Solvent: Mole fraction of methanol	Mole fraction of 5-(4-(2-(5-ethylpyridin-2-yl)ethoxy)benzyl)thiazolidine-2,4-dione hydrochloride	uncertainty
283.15	0.101	0.0006913	0.0006913
283.15	0.197	0.0007955	0.0007955
283.15	0.292	0.0009657	0.0009657
283.15	0.388	0.001194	0.001194
283.15	0.475	0.001358	0.001358
283.15	0.595	0.001944	0.001944
283.15	0.696	0.002629	0.002629
283.15	0.802	0.003377	0.003377
283.15	0.902	0.004322	0.004322
283.15	1	0.005175	0.005175
293.15	0.101	0.0007781	0.0007781
293.15	0.197	0.0009343	0.0009343
293.15	0.292	0.001133	0.001133
293.15	0.388	0.001452	0.001452
293.15	0.475	0.001797	0.001797
293.15	0.595	0.002556	0.002556
293.15	0.696	0.003401	0.003401
293.15	0.802	0.004629	0.004629
293.15	0.902	0.005787	0.005787
293.15	1	0.007535	0.007535
303.15	0.101	0.001009	0.001009
303.15	0.197	0.001286	0.001286
303.15	0.292	0.001631	0.001631
303.15	0.388	0.002078	0.002078
303.15	0.475	0.00251	0.00251
303.15	0.595	0.003542	0.003542
303.15	0.696	0.00464	0.00464
303.15	0.802	0.006333	0.006333
303.15	0.902	0.008183	0.008183
303.15	1	0.01024	0.01024
313.15	0.101	0.001513	0.001513
313.15	0.197	0.001952	0.001952
313.15	0.292	0.002299	0.002299
313.15	0.388	0.002955	0.002955
313.15	0.475	0.003711	0.003711
313.15	0.595	0.00513	0.00513
313.15	0.696	0.006676	0.006676
313.15	0.802	0.009167	0.009167
313.15	0.902	0.01207	0.01207
313.15	1	0.01494	0.01494
323.15	0.101	0.00231	0.00231
323.15	0.197	0.00277	0.00277
323.15	0.292	0.003539	0.003539
323.15	0.388	0.004414	0.004414
323.15	0.475	0.005667	0.005667
323.15	0.595	0.007507	0.007507
323.15	0.696	0.009991	0.009991
323.15	0.802	0.01348	0.01348
323.15	0.902	0.01835	0.01835
323.15	1	0.02228	0.02228

System: methanol + acetone + 5-(4-(2-(5-ethylpyridin-2-yl)ethoxy)benzyl)thiazolidine-2,4-dione hydrochloride; phases: Liquid, Crystal
Fixed: Pressure, kPa = 101
Property: Mole fraction of 5-(4-(2-(5-ethylpyridin-2-yl)ethoxy)benzyl)thiazolidine-2,4-dione hydrochloride (Liquid); method: Chromatography
Temperature, K	Solvent: Mole fraction of methanol	Mole fraction of 5-(4-(2-(5-ethylpyridin-2-yl)ethoxy)benzyl)thiazolidine-2,4-dione hydrochloride	uncertainty
283.15	0.191	0.001041	0.001041
283.15	0.281	0.001571	0.001571
283.15	0.381	0.002468	0.002468
283.15	0.471	0.00341	0.00341
283.15	0.608	0.004983	0.004983
283.15	0.69	0.005718	0.005718
283.15	0.801	0.006174	0.006174
283.15	0.899	0.005852	0.005852
283.15	1	0.005175	0.005175
293.15	0.191	0.001134	0.001134
293.15	0.281	0.001721	0.001721
293.15	0.381	0.003032	0.003032
293.15	0.471	0.004273	0.004273
293.15	0.608	0.006313	0.006313
293.15	0.69	0.007433	0.007433
293.15	0.801	0.008231	0.008231
293.15	0.899	0.008026	0.008026
293.15	1	0.007535	0.007535
303.15	0.191	0.001451	0.001451
303.15	0.281	0.002277	0.002277
303.15	0.381	0.003799	0.003799
303.15	0.471	0.005429	0.005429
303.15	0.608	0.008067	0.008067
303.15	0.69	0.009576	0.009576
303.15	0.801	0.01104	0.01104
303.15	0.899	0.01108	0.01108
303.15	1	0.01024	0.01024
313.15	0.191	0.001847	0.001847
313.15	0.281	0.00277	0.00277
313.15	0.381	0.004701	0.004701
313.15	0.471	0.00692	0.00692
313.15	0.608	0.01053	0.01053
313.15	0.69	0.0129	0.0129
313.15	0.801	0.01505	0.01505
313.15	0.899	0.01586	0.01586
313.15	1	0.01494	0.01494
323.15	0.191	0.00232	0.00232
323.15	0.281	0.00343	0.00343
323.15	0.381	0.005957	0.005957
323.15	0.471	0.009	0.009
323.15	0.608	0.01392	0.01392
323.15	0.69	0.01767	0.01767
323.15	0.801	0.02108	0.02108
323.15	0.899	0.02354	0.02354
323.15	1	0.02228	0.02228
