Measured thermophysical data. Polyethylene glycol (1500 or 600) - potassium tartrate aqueous twophase systems
Source: Fluid Phase Equilib., 2018, 10.1016/j.fluid.2017.11.009
Compound 1: dipotassium L-tartrate, C4H4K2O6, InChI=1S/C4H6O6.2K/c5-1(3(7)8)2(6)4(9)10;;/h1-2,5-6H,(H,7,8)(H,9,10);;/q;2*+1/p-2/t1-,2-;;/m1../s1
Compound 2: water, H2O, InChI=1S/H2O/h1H2

System: dipotassium L-tartrate + water; phases: Liquid, Crystal
Fixed: Pressure, kPa = 100
Property: Mass fraction of dipotassium L-tartrate (Liquid); method: Density calibration data
Temperature, K	Mass fraction of dipotassium L-tartrate	uncertainty
278.15	0.575	0.004
283.15	0.578	0.004
288.15	0.582	0.004
293.15	0.585	0.004
298.15	0.589	0.004
303.15	0.595	0.004
308.15	0.599	0.004
313.15	0.603	0.004
318.15	0.608	0.004
323.15	0.613	0.004

System: dipotassium L-tartrate + water; phases: Liquid
Fixed: Temperature, K = 298.15
Fixed: Pressure, kPa = 100
Property: Mass density, kg/m3 (Liquid); method: Vibrating tube method
Mass fraction of dipotassium L-tartrate	Mass density, kg/m3	uncertainty
0.001	0.9979	0.202
0.007	1.0015	0.202
0.014	1.006	0.202
0.028	1.0148	0.202
0.055	1.0323	0.202
0.081	1.0497	0.202
0.106	1.0665	0.202
0.13	1.0832	0.202
