Measured thermophysical data. Viscosity, density, interfacial tension and compositional data for near critical mixtures of methane + butane and methane + decane systems at 310.95K
Source: Fluid Phase Equilib., 2005, 10.1016/j.fluid.2005.03.032
Compound 1: methane, CH4, InChI=1S/CH4/h1H4
Compound 2: butane, C4H10, InChI=1S/C4H10/c1-3-4-2/h3-4H2,1-2H3
Compound 3: decane, C10H22, InChI=1S/C10H22/c1-3-5-7-9-10-8-6-4-2/h3-10H2,1-2H3

System: methane + butane; phases: Liquid, Gas
Fixed: Temperature, K = 310.95
Property: Vapor or sublimation pressure, kPa (Liquid); method: Closed cell (Static) method
Mole fraction of methane	Vapor or sublimation pressure, kPa	uncertainty
0.5155	10800	126
0.5905	12270	139
0.6111	12620	141

System: methane + butane; phases: Gas, Liquid
Fixed: Temperature, K = 310.95
Property: Mole fraction of methane (Gas); method: Chromatography
Mole fraction of methane	Mole fraction of methane	uncertainty
0.5155	0.855	0.0024
0.5905	0.8312	0.0026
0.6111	0.8232	0.0026

System: methane + butane; phases: Gas, Liquid
Fixed: Temperature, K = 310.95
Property: Viscosity, Pa*s (Gas); method: Capillary tube (Ostwald; Ubbelohde) method
Pressure, kPa	Viscosity, Pa*s	uncertainty
10800	1.71e-05	1.1e-06
12270	2.11e-05	1.4e-06
12620	2.31e-05	1.5e-06

System: methane + butane; phases: Liquid, Gas
Fixed: Temperature, K = 310.95
Property: Viscosity, Pa*s (Liquid); method: Capillary tube (Ostwald; Ubbelohde) method
Pressure, kPa	Viscosity, Pa*s	uncertainty
10800	6.06e-05	3.8e-06
12270	4.57e-05	3e-06
12620	4.08e-05	2.7e-06

System: methane + butane; phases: Liquid, Gas
Property: Vapor or sublimation pressure, kPa (Liquid); method: Closed cell (Static) method
Temperature, K	Mole fraction of methane	Vapor or sublimation pressure, kPa	uncertainty
310.95	0.736	12890	140

System: methane + butane; phases: Gas, Liquid
Fixed: Temperature, K = 310.95
Property: Mass density, kg/m3 (Gas); method: Vibrating tube method
Pressure, kPa	Mass density, kg/m3	uncertainty
10800	133	2
12270	178	5
12340	185	4
12410	189	4
12690	211	4
12760	220	6

System: methane + butane; phases: Liquid, Gas
Fixed: Temperature, K = 310.95
Property: Mass density, kg/m3 (Liquid); method: Vibrating tube method
Pressure, kPa	Mass density, kg/m3	uncertainty
10800	404	3
12270	354	6
12340	345	4
12410	341	4
12690	317	4
12760	307	6

System: methane + butane; phases: Gas
Fixed: Temperature, K = 310.95
Fixed: Mole fraction of methane = 0.736
Property: Viscosity, Pa*s (Gas); method: Capillary tube (Ostwald; Ubbelohde) method
Pressure, kPa	Viscosity, Pa*s	uncertainty
13790	3.05e-05	1.9e-06
20680	4.06e-05	2.6e-06

System: methane + butane; phases: Gas
Fixed: Temperature, K = 310.95
Fixed: Mole fraction of methane = 0.736
Property: Mass density, kg/m3 (Gas); method: Vibrating tube method
Pressure, kPa	Mass density, kg/m3	uncertainty
13790	265	2
20680	329	2

System: methane + butane; phases: Liquid, Gas
Fixed: Temperature, K = 310.95
Property: Surface tension liquid-gas, N/m (Liquid); method: meniscus height method
Pressure, kPa	Surface tension liquid-gas, N/m	uncertainty
12760	8e-06	2e-06
12690	3.6e-05	4e-06
12410	0.000112	8e-06
12340	0.000149	1e-05
10800	0.00085	2e-05

System: methane + decane; phases: Liquid
Fixed: Temperature, K = 310.95
Fixed: Mole fraction of methane = 0.8609
Property: Viscosity, Pa*s (Liquid); method: Capillary tube (Ostwald; Ubbelohde) method
Pressure, kPa	Viscosity, Pa*s	uncertainty
36230	0.000105	5e-06
36300	0.000102	5e-06
36370	0.0001	4e-06
36540	9.6e-05	4e-06
36890	9.5e-05	4e-06
37230	9.5e-05	4e-06
37580	9.5e-05	4e-06
37920	9.6e-05	4e-06

System: methane + decane; phases: Liquid, Gas
Fixed: Temperature, K = 310.95
Property: Viscosity, Pa*s (Liquid); method: Capillary tube (Ostwald; Ubbelohde) method
Pressure, kPa	Viscosity, Pa*s	uncertainty
10340	0.000428	1.7e-05
13790	0.000364	1.5e-05
20680	0.000267	1.1e-05
27580	0.00019	8e-06
34470	0.000119	5e-06

System: methane + decane; phases: Gas, Liquid
Fixed: Temperature, K = 310.95
Property: Viscosity, Pa*s (Gas); method: Capillary tube (Ostwald; Ubbelohde) method
Pressure, kPa	Viscosity, Pa*s	uncertainty
10340	1.49e-05	1e-06
13790	1.67e-05	1.1e-06
20680	2.2e-05	1.4e-06
27580	2.89e-05	1.9e-06
34470	3.85e-05	2.5e-06

System: methane + decane; phases: Gas
Fixed: Mole fraction of methane = 0.9514
Fixed: Temperature, K = 310.95
Property: Viscosity, Pa*s (Gas); method: Capillary tube (Ostwald; Ubbelohde) method
Pressure, kPa	Viscosity, Pa*s	uncertainty
34610	3.86e-05	2.5e-06
35160	3.96e-05	2.5e-06
35850	4.03e-05	2.6e-06
36540	4.1e-05	2.6e-06
37230	4.16e-05	2.7e-06
37920	4.2e-05	2.7e-06

System: methane + decane; phases: Liquid
Fixed: Mole fraction of methane = 0.8064
Fixed: Temperature, K = 310.95
Property: Viscosity, Pa*s (Liquid); method: Capillary tube (Ostwald; Ubbelohde) method
Pressure, kPa	Viscosity, Pa*s	uncertainty
34610	0.00012	5e-06
35160	0.00012	5e-06
35850	0.000121	5e-06
36540	0.000122	5e-06
37230	0.000123	5e-06
37920	0.000124	5e-06
