Measured thermophysical data. Vapor liquid equilibria in the ternary system dipropyl ether + 1-propanol + 1-pentanol and the binary systems dipropyl ether + 1-pentanol, 1-propanol + 1-pentanol at 101.3 kPa
Source: Fluid Phase Equilib., 2006, 10.1016/j.fluid.2006.07.003
Compound 1: dipropyl ether, C6H14O, InChI=1S/C6H14O/c1-3-5-7-6-4-2/h3-6H2,1-2H3, purity 90%
Compound 2: propan-1-ol, C3H8O, InChI=1S/C3H8O/c1-2-3-4/h4H,2-3H2,1H3, purity 99.5%
Compound 3: pentan-1-ol, C5H12O, InChI=1S/C5H12O/c1-2-3-4-5-6/h6H,2-5H2,1H3, purity 99%

System: dipropyl ether; phases: Liquid
Property: Refractive index (Na D-line) (Liquid); method: Standard Abbe refractometry
Temperature, K	Pressure, kPa	Refractive index (Na D-line)	uncertainty
298.15	101.325	1.3784	0.0008

System: dipropyl ether; phases: Liquid
Property: Mass density, kg/m3 (Liquid); method: VIBTUB:UFactor:6
Temperature, K	Pressure, kPa	Mass density, kg/m3	uncertainty
298.15	101.325	741.81	0.91

System: dipropyl ether; phases: Liquid, Gas
Property: Vapor or sublimation pressure, kPa (Liquid); method: EBULLIO:UFactor:4
Temperature, K	Vapor or sublimation pressure, kPa	uncertainty
363.16	101.3	1.8

System: propan-1-ol; phases: Liquid
Property: Refractive index (Na D-line) (Liquid); method: Standard Abbe refractometry
Temperature, K	Pressure, kPa	Refractive index (Na D-line)	uncertainty
298.15	101.325	1.3836	0.0007

System: propan-1-ol; phases: Liquid
Property: Mass density, kg/m3 (Liquid); method: VIBTUB:UFactor:4
Temperature, K	Pressure, kPa	Mass density, kg/m3	uncertainty
298.15	101.325	799.62	0.48

System: propan-1-ol; phases: Liquid, Gas
Property: Vapor or sublimation pressure, kPa (Liquid); method: EBULLIO:UFactor:4
Temperature, K	Vapor or sublimation pressure, kPa	uncertainty
369.75	101.3	1.8

System: pentan-1-ol; phases: Liquid
Property: Refractive index (Na D-line) (Liquid); method: Standard Abbe refractometry
Temperature, K	Pressure, kPa	Refractive index (Na D-line)	uncertainty
298.15	101.325	1.408	0.0008

System: pentan-1-ol; phases: Liquid
Property: Mass density, kg/m3 (Liquid); method: VIBTUB:UFactor:6
Temperature, K	Pressure, kPa	Mass density, kg/m3	uncertainty
298.15	101.325	810.89	0.77

System: pentan-1-ol; phases: Liquid, Gas
Property: Vapor or sublimation pressure, kPa (Liquid); method: EBULLIO:UFactor:4
Temperature, K	Vapor or sublimation pressure, kPa	uncertainty
410.62	101.3	1.8

System: pentan-1-ol + dipropyl ether; phases: Liquid, Gas
Fixed: Pressure, kPa = 101.3
Property: Boiling temperature at pressure P, K (Liquid); method: EBULLIO:UFactor:4
Mole fraction of dipropyl ether	Boiling temperature at pressure P, K	uncertainty
0	410.62	0.34
0.033	406.05	0.44
0.048	404	0.43
0.073	400.79	0.4
0.116	396.65	0.4
0.146	393.3	0.4
0.188	389.38	0.38
0.224	386.6	0.37
0.265	383.96	0.36
0.32	380.87	0.36
0.367	378.67	0.35
0.421	376.35	0.35
0.47	374.79	0.35
0.535	372.49	0.35
0.593	370.96	0.35
0.649	369.57	0.35
0.708	368.38	0.35
0.765	367.16	0.35
0.829	365.94	0.34
0.885	364.85	0.35
0.946	363.56	0.6
1	363.16	0.34

System: pentan-1-ol + dipropyl ether; phases: Gas, Liquid
Fixed: Pressure, kPa = 101.3
Property: Mole fraction of dipropyl ether (Gas); method: CHROM:UFactor:4
Mole fraction of dipropyl ether	Mole fraction of dipropyl ether	uncertainty
0	0	0.001
0.033	0.181	0.012
0.048	0.243	0.012
0.073	0.342	0.015
0.116	0.478	0.019
0.146	0.551	0.018
0.188	0.646	0.014
0.224	0.688	0.012
0.265	0.736	0.01
0.32	0.78	0.009
0.367	0.808	0.008
0.421	0.836	0.007
0.47	0.856	0.006
0.535	0.875	0.005
0.593	0.891	0.004
0.649	0.906	0.004
0.708	0.919	0.004
0.765	0.929	0.003
0.829	0.942	0.003
0.885	0.957	0.003
0.946	0.975	0.002
1	1	0.001

System: propan-1-ol + pentan-1-ol; phases: Liquid, Gas
Fixed: Pressure, kPa = 101.3
Property: Boiling temperature at pressure P, K (Liquid); method: EBULLIO:UFactor:4
Mole fraction of propan-1-ol	Boiling temperature at pressure P, K	uncertainty
0	410.62	0.34
0.047	406.39	0.38
0.095	403.01	0.37
0.144	399.88	0.36
0.194	396.92	0.36
0.246	393.99	0.36
0.291	391.33	0.36
0.347	388.85	0.35
0.41	386.33	0.35
0.459	384.35	0.35
0.518	382.29	0.35
0.577	380.35	0.35
0.633	378.57	0.35
0.682	377.15	0.35
0.736	375.65	0.35
0.788	374.25	0.34
0.841	373.11	0.34
0.888	371.99	0.34
0.933	371.03	0.34
0.974	370.21	0.34
1	369.75	0.34

System: propan-1-ol + pentan-1-ol; phases: Gas, Liquid
Fixed: Pressure, kPa = 101.3
Property: Mole fraction of propan-1-ol (Gas); method: CHROM:UFactor:4
Mole fraction of propan-1-ol	Mole fraction of propan-1-ol	uncertainty
0	0	0.001
0.047	0.173	0.009
0.095	0.306	0.012
0.144	0.413	0.016
0.194	0.506	0.019
0.246	0.591	0.016
0.291	0.654	0.013
0.347	0.708	0.011
0.41	0.76	0.009
0.459	0.802	0.008
0.518	0.837	0.006
0.577	0.867	0.005
0.633	0.892	0.004
0.682	0.912	0.004
0.736	0.93	0.003
0.788	0.951	0.003
0.841	0.966	0.002
0.888	0.979	0.002
0.933	0.987	0.002
0.974	0.995	0.002
1	1	0.001

System: propan-1-ol + pentan-1-ol + dipropyl ether; phases: Liquid, Gas
Fixed: Pressure, kPa = 101.3
Property: Mole fraction of propan-1-ol (Liquid); method: CHROM:UFactor:4
Property: Mole fraction of propan-1-ol (Gas); method: CHROM:UFactor:4
Property: Mole fraction of dipropyl ether (Gas); method: CHROM:UFactor:4
Temperature, K	Mole fraction of dipropyl ether	Mole fraction of propan-1-ol	uncertainty	Mole fraction of propan-1-ol	uncertainty	Mole fraction of dipropyl ether	uncertainty
359.8	0.702	0.251	0.008	0.283	0.011	0.71	
359.98	0.478	0.474	0.015	0.404	0.015	0.591	
360.88	0.629	0.274	0.009	0.29	0.011	0.695	
360.96	0.515	0.388	0.012	0.359	0.013	0.629	
361.42	0.406	0.498	0.016	0.424	0.016	0.565	
361.44	0.731	0.172	0.005	0.218	0.008	0.763	
362.04	0.271	0.683	0.01	0.541	0.017	0.455	
362.61	0.91	0.043	0.002	0.078	0.003	0.908	
362.71	0.295	0.606	0.012	0.502	0.019	0.486	
363	0.818	0.076	0.003	0.118	0.005	0.855	
363.99	0.477	0.302	0.009	0.308	0.012	0.657	
364.31	0.588	0.19	0.006	0.22	0.008	0.738	
364.37	0.368	0.416	0.013	0.393	0.015	0.576	
364.89	0.187	0.71	0.009	0.605	0.015	0.383	
365.51	0.266	0.521	0.015	0.484	0.018	0.486	
365.57	0.701	0.079	0.003	0.111	0.004	0.837	
366.56	0.414	0.283	0.009	0.303	0.011	0.645	
367.07	0.497	0.179	0.006	0.211	0.008	0.726	
367.65	0.302	0.391	0.012	0.402	0.015	0.547	
368.12	0.087	0.808	0.006	0.754	0.009	0.233	
369.24	0.031	0.92	0.003	0.882	0.005	0.113	
369.48	0.109	0.684	0.01	0.687	0.012	0.281	
369.92	0.189	0.495	0.015	0.525	0.018	0.421	
371.74	0.272	0.292	0.009	0.35	0.013	0.562	
372.83	0.031	0.762	0.007	0.848	0.006	0.113	
372.83	0.364	0.146	0.005	0.193	0.007	0.695	
373.13	0.173	0.403	0.013	0.49	0.018	0.423	
373.27	0.325	0.181	0.006	0.235	0.009	0.649	
373.52	0.082	0.596	0.013	0.696	0.012	0.239	
376.15	0.188	0.297	0.009	0.403	0.015	0.473	
377.48	0.23	0.196	0.006	0.284	0.011	0.563	
378.68	0.032	0.548	0.014	0.769	0.009	0.12	
379.61	0.085	0.398	0.012	0.594	0.015	0.272	
380.77	0.198	0.176	0.005	0.276	0.01	0.54	
382.09	0.034	0.444	0.014	0.712	0.011	0.134	
382.87	0.135	0.221	0.007	0.374	0.014	0.418	
384.16	0.186	0.108	0.004	0.195	0.007	0.557	
385.99	0.034	0.343	0.011	0.636	0.014	0.141	
387.73	0.085	0.203	0.006	0.404	0.015	0.312	
393.33	0.088	0.1	0.004	0.236	0.009	0.353	
400.93	0.048	0.051	0.003	0.154	0.006	0.231	
