Measured thermophysical data. Volumetric behavior of carbon dioxide + 2-methyl-1-propanol and carbondioxide + 2-methyl-2-propanol mixtures at 313.15 K
Source: Fluid Phase Equilib., 2013, 10.1016/j.fluid.2013.02.003
Compound 1: carbon dioxide, CO2, InChI=1S/CO2/c2-1-3, purity 99.999%
Compound 2: 2-methyl-1-propanol, C4H10O, InChI=1S/C4H10O/c1-4(2)3-5/h4-5H,3H2,1-2H3, purity 99.9%
Compound 3: 2-methylpropan-2-ol, C4H10O, InChI=1S/C4H10O/c1-4(2,3)5/h5H,1-3H3, purity 99.9%

System: 2-methyl-1-propanol; phases: Liquid
Property: Refractive index (Na D-line) (Liquid); method: Standard Abbe refractometry
Temperature, K	Pressure, kPa	Refractive index (Na D-line)	uncertainty
298.15	101.325	1.3938	0.0014

System: 2-methyl-1-propanol; phases: Liquid
Property: Mass density, kg/m3 (Liquid); method: Vibrating tube method
Temperature, K	Pressure, kPa	Mass density, kg/m3	uncertainty
298.15	101.325	798.26	0.14

System: 2-methyl-1-propanol; phases: Liquid, Gas
Property: Boiling temperature at pressure P, K (Liquid); method: Closed cell (Static) method
Pressure, kPa	Boiling temperature at pressure P, K	uncertainty
101	380.78	0.04

System: 2-methylpropan-2-ol; phases: Liquid
Property: Refractive index (Na D-line) (Liquid); method: Standard Abbe refractometry
Temperature, K	Pressure, kPa	Refractive index (Na D-line)	uncertainty
298.15	101.325	1.3851	0.0014

System: 2-methylpropan-2-ol; phases: Liquid
Property: Mass density, kg/m3 (Liquid); method: Vibrating tube method
Temperature, K	Pressure, kPa	Mass density, kg/m3	uncertainty
298.15	101.325	781.05	0.15

System: 2-methylpropan-2-ol; phases: Liquid, Gas
Property: Boiling temperature at pressure P, K (Liquid); method: Closed cell (Static) method
Pressure, kPa	Boiling temperature at pressure P, K	uncertainty
101	355.34	0.04

System: 2-methyl-1-propanol + carbon dioxide; phases: Liquid
Fixed: Temperature, K = 313.15
Property: Mass density, kg/m3 (Liquid); method: Vibrating tube method
Pressure, kPa	Mole fraction of carbon dioxide	Mass density, kg/m3	uncertainty
1000	0	787.4	0.2
1000	1	17.9	0.2
2000	0	788.2	0.2
2000	0.1	793.8	0.3
2000	1	37.1	0.2
3000	0	788.9	0.2
3000	0.1	794.7	0.3
3000	1	58.7	0.2
4000	0	789.6	0.2
4000	0.1	795.6	0.3
4000	0.2	801.7	0.3
4000	1	83.5	0.2
5000	0	790.4	0.3
5000	0.1	796.4	0.3
5000	0.2	802.7	0.3
5000	0.3	808.3	0.3
5000	1	112.7	0.2
6000	0	791.1	0.3
6000	0.1	797.2	0.3
6000	0.2	803.6	0.3
6000	0.3	809.5	0.3
6000	0.4	814	0.3
6000	1	148.8	0.3
7000	0	791.8	0.3
7000	0.1	798	0.3
7000	0.2	804.6	0.3
7000	0.3	810.7	0.3
7000	0.4	815.5	0.3
7000	0.5	819.3	0.3
7000	1	197.3	0.3
8000	0.1	792.5	0.3
8000	0.2	798.9	0.3
8000	0.3	805.6	0.3
8000	0.4	811.9	0.3
8000	0.5	817	0.3
8000	0.6	821.3	0.3
8000	0.7	822.1	0.3
8000	0.8	817	3.9
8000	1	276.7	0.4
9000	0	793.2	0.3
9000	0.1	799.7	0.3
9000	0.2	806.6	0.3
9000	0.3	813	0.3
9000	0.4	818.5	0.3
9000	0.5	823.1	0.3
9000	0.6	824.7	0.3
9000	0.7	821.3	0.3
9000	0.8	805.7	0.6
9000	0.9	764	1.2
9000	0.95	712.9	5.6
9000	1	483.4	0.5
10000	0	793.8	0.3
10000	0.1	800.6	0.3
10000	0.2	807.4	0.3
10000	0.3	814.2	0.3
10000	0.4	819.9	0.3
10000	0.5	824.9	0.3
10000	0.6	827.2	0.3
10000	0.7	825.3	0.3
10000	0.8	812.4	0.5
10000	0.9	779.2	1
10000	0.95	741	3.1
10000	1	627.4	0.5

System: 2-methyl-1-propanol + carbon dioxide; phases: Liquid, Gas
Fixed: Temperature, K = 313.15
Property: Vapor or sublimation pressure, kPa (Liquid); method: Closed cell (Static) method
Mole fraction of carbon dioxide	Vapor or sublimation pressure, kPa	uncertainty
0.1	1826	33
0.2	3460	31
0.3	4667	27
0.4	5644	26
0.5	6536	26
0.6	7106	25
0.7	7489	25
0.8	7723	26
0.9	7953	26
0.95	8140	28

System: 2-methyl-1-propanol + carbon dioxide; phases: Liquid
Fixed: Temperature, K = 313.15
Property: Mass density, kg/m3 (Liquid); method: Vibrating tube method
Pressure, kPa	Mole fraction of carbon dioxide	Mass density, kg/m3	uncertainty
3435	0.1	801.7	0.3
4320	0.2	805.7	0.2
5422	0.3	811.2	0.3
6028	0.4	815.2	0.3
6606	0.5	819	0.3
7055	0.5	820.3	0.4
7709	0.7	792.6	0.4

System: 2-methyl-1-propanol + carbon dioxide; phases: Gas
Fixed: Temperature, K = 313.15
Property: Mass density, kg/m3 (Gas); method: Vibrating tube method
Pressure, kPa	Mole fraction of carbon dioxide	Mass density, kg/m3	uncertainty
3435	0.1	72.9	0.2
4320	0.2	98	0.5
5422	0.3	133.9	0.3
6028	0.4	158.2	0.3
6606	0.5	185.9	0.3
7055	0.5	213.4	0.4
7709	0.7	273.5	0.4

System: 2-methylpropan-2-ol + carbon dioxide; phases: Liquid
Fixed: Temperature, K = 313.15
Property: Mass density, kg/m3 (Liquid); method: Vibrating tube method
Pressure, kPa	Mole fraction of 2-methylpropan-2-ol	Mass density, kg/m3	uncertainty
1000	0	765.3	0.2
1000	1	17.9	0.2
2000	0	766.2	0.2
2000	0.1	771.1	0.3
2000	1	37.1	0.2
3000	0	767.2	0.2
3000	0.1	772.3	0.3
3000	0.2	776.5	0.3
3000	1	58.7	0.2
4000	0	768	0.3
4000	0.1	773.3	0.3
4000	0.2	777.8	0.3
4000	0.3	781	0.3
4000	1	83.5	0.2
5000	0	768.9	0.3
5000	0.1	774.4	0.3
5000	0.2	779	0.3
5000	0.3	782.5	0.3
5000	0.4	786.3	0.3
5000	1	112.7	0.2
6000	0	769.8	0.3
6000	0.1	775.5	0.3
6000	0.2	780.3	0.3
6000	0.3	784	0.3
6000	0.4	788.1	0.3
6000	0.5	790.9	0.3
6000	1	148.8	0.3
7000	0	770.6	0.3
7000	0.1	776.5	0.3
7000	0.2	781.5	0.3
7000	0.3	785.4	0.3
7000	0.4	790	0.3
7000	0.5	793.3	0.3
7000	0.6	794.3	0.3
7000	1	197.3	0.3
8000	0	771.4	0.3
8000	0.1	777.5	0.3
8000	0.2	782.4	0.3
8000	0.3	786.8	0.3
8000	0.4	791.7	0.3
8000	0.5	795.6	0.3
8000	0.6	797.5	0.3
8000	0.7	796.8	0.3
8000	0.8	783.7	3.7
8000	1	276.7	0.4
9000	0	772.3	0.3
9000	0.1	778.5	0.3
9000	0.2	783.9	0.3
9000	0.3	788.2	0.3
9000	0.4	793.4	0.3
9000	0.5	797.8	0.3
9000	0.6	800.6	0.3
9000	0.7	801.4	0.3
9000	0.8	791.5	0.6
9000	0.9	753.3	1.2
9000	0.95	703.6	5.4
9000	1	483.4	0.5
10000	0	773.1	0.3
10000	0.1	779.5	0.3
10000	0.2	785	0.3
10000	0.3	789.6	0.3
10000	0.4	795.2	0.3
10000	0.5	800	0.3
10000	0.6	803.5	0.3
10000	0.7	805.7	0.3
10000	0.8	798.6	0.5
10000	0.9	768.1	0.9
10000	0.95	731.7	2.8
10000	1	627.4	0.5
