Measured thermophysical data. Isobaric vapor-liquid equilibria for binary mixtures from methyl methanoate, dimethoxymethane and dimethyl carbonate at 101.33 kPa
Source: Fluid Phase Equilib., 2015, 10.1016/j.fluid.2015.03.049
Compound 1: dimethyl carbonate, C3H6O3, InChI=1S/C3H6O3/c1-5-3(4)6-2/h1-2H3, purity 99%
Compound 2: dimethoxymethane, C3H8O2, InChI=1S/C3H8O2/c1-4-3-5-2/h3H2,1-2H3, purity 99%
Compound 3: methyl methanoate, C2H4O2, InChI=1S/C2H4O2/c1-4-2-3/h2H,1H3, purity 99%

System: dimethyl carbonate; phases: Liquid
Property: Mass density, kg/m3 (Liquid); method: Vibrating tube method
Temperature, K	Pressure, kPa	Mass density, kg/m3	uncertainty
298.15	101.325	1063.3	0.12

System: dimethyl carbonate; phases: Liquid, Gas
Property: Normal boiling temperature, K (Liquid); method: Ebulliometric method (Recirculating still)
Normal boiling temperature, K	uncertainty
363.15	0.2

System: dimethoxymethane; phases: Liquid
Property: Mass density, kg/m3 (Liquid); method: Vibrating tube method
Temperature, K	Pressure, kPa	Mass density, kg/m3	uncertainty
303.15	101.325	848.59	0.13

System: dimethoxymethane; phases: Liquid, Gas
Property: Normal boiling temperature, K (Liquid); method: Ebulliometric method (Recirculating still)
Normal boiling temperature, K	uncertainty
315.15	0.2

System: methyl methanoate; phases: Liquid
Property: Mass density, kg/m3 (Liquid); method: Vibrating tube method
Temperature, K	Pressure, kPa	Mass density, kg/m3	uncertainty
288.15	101.325	980.82	0.11

System: methyl methanoate; phases: Liquid, Gas
Property: Normal boiling temperature, K (Liquid); method: Ebulliometric method (Recirculating still)
Normal boiling temperature, K	uncertainty
304.65	0.2

System: methyl methanoate + dimethoxymethane; phases: Liquid, Gas
Fixed: Pressure, kPa = 101.33
Property: Boiling temperature at pressure P, K (Liquid); method: Ebulliometric method (Recirculating still)
Mole fraction of methyl methanoate	Boiling temperature at pressure P, K	uncertainty
1	304.65	0.13
0.994	304.68	0.13
0.973	304.82	0.15
0.954	304.97	0.15
0.858	305.51	0.14
0.782	305.98	0.14
0.717	306.45	0.15
0.628	307.09	0.15
0.546	307.87	0.16
0.468	308.6	0.16
0.395	309.38	0.17
0.257	310.9	0.17
0.201	311.72	0.21
0.136	312.92	0.22
0.08	313.82	0.21
0	315.15	0.13

System: methyl methanoate + dimethoxymethane; phases: Gas, Liquid
Fixed: Pressure, kPa = 101.33
Property: Mole fraction of methyl methanoate (Gas); method: Chromatography
Mole fraction of methyl methanoate	Mole fraction of methyl methanoate	uncertainty
1	1	
0.994	0.995	0.005
0.973	0.978	0.013
0.954	0.962	0.013
0.858	0.886	0.013
0.782	0.826	0.013
0.717	0.772	0.013
0.628	0.696	0.013
0.546	0.628	0.014
0.468	0.558	0.014
0.395	0.492	0.014
0.257	0.356	0.015
0.201	0.291	0.016
0.136	0.206	0.017
0.08	0.127	0.018
0	0	

System: methyl methanoate + dimethyl carbonate; phases: Liquid, Gas
Fixed: Pressure, kPa = 101.33
Property: Boiling temperature at pressure P, K (Liquid); method: Ebulliometric method (Recirculating still)
Mole fraction of methyl methanoate	Boiling temperature at pressure P, K	uncertainty
1	304.68	0.09
0.932	306.68	0.1
0.885	307.69	0.1
0.796	309.95	0.1
0.711	312.46	0.11
0.671	314.05	0.12
0.598	317.05	0.12
0.464	322.88	0.12
0.404	325.75	0.14
0.334	330.05	0.15
0.249	335.35	0.16
0.197	339.35	0.19
0.139	344.6	0.2
0.09	350.05	0.27
0.026	358.98	0.3
0	363.15	0.09

System: methyl methanoate + dimethyl carbonate; phases: Gas, Liquid
Fixed: Pressure, kPa = 101.33
Property: Mole fraction of methyl methanoate (Gas); method: Chromatography
Mole fraction of methyl methanoate	Mole fraction of methyl methanoate	uncertainty
1	1	
0.932	0.991	0.002
0.885	0.985	0.002
0.796	0.971	0.002
0.711	0.955	0.002
0.671	0.945	0.002
0.598	0.926	0.002
0.464	0.872	0.002
0.404	0.842	0.003
0.334	0.79	0.003
0.249	0.715	0.004
0.197	0.645	0.005
0.139	0.541	0.006
0.09	0.411	0.008
0.026	0.149	0.009
0	0	

System: dimethoxymethane + dimethyl carbonate; phases: Liquid, Gas
Fixed: Pressure, kPa = 101.33
Property: Boiling temperature at pressure P, K (Liquid); method: Ebulliometric method (Recirculating still)
Mole fraction of dimethoxymethane	Boiling temperature at pressure P, K	uncertainty
1	315.15	0.09
0.97	315.89	0.31
0.929	317.24	0.27
0.892	317.89	0.31
0.809	320.66	0.29
0.715	322.85	0.25
0.651	324.35	0.29
0.552	327.35	0.38
0.418	332.95	0.48
0.288	339.87	0.55
0.226	343.39	0.64
0.172	347.21	0.75
0.124	351.03	0.81
0.09	353.85	0.84
0.029	358.96	1.01
0	363.15	0.09

System: dimethoxymethane + dimethyl carbonate; phases: Gas, Liquid
Fixed: Pressure, kPa = 101.33
Property: Mole fraction of dimethoxymethane (Gas); method: Chromatography
Mole fraction of dimethoxymethane	Mole fraction of dimethoxymethane	uncertainty
1	1	
0.97	0.994	0.001
0.929	0.985	0.001
0.892	0.978	0.001
0.809	0.957	0.001
0.715	0.93	0.001
0.651	0.911	0.001
0.552	0.874	0.002
0.418	0.8	0.002
0.288	0.69	0.003
0.226	0.616	0.004
0.172	0.524	0.005
0.124	0.426	0.005
0.09	0.323	0.004
0.029	0.133	0.004
0	0	
