Measured thermophysical data. High pressure (solid + liquid) equilibria of n-alkane mixtures: experimental results, correlation and prediction
Source: Fluid Phase Equilib., 2005, 10.1016/j.fluid.2004.11.020
Compound 1: tridecane, C13H28, InChI=1S/C13H28/c1-3-5-7-9-11-13-12-10-8-6-4-2/h3-13H2,1-2H3, purity 99%
Compound 2: hexadecane, C16H34, InChI=1S/C16H34/c1-3-5-7-9-11-13-15-16-14-12-10-8-6-4-2/h3-16H2,1-2H3, purity 99%
Compound 3: octadecane, C18H38, InChI=1S/C18H38/c1-3-5-7-9-11-13-15-17-18-16-14-12-10-8-6-4-2/h3-18H2,1-2H3, purity 99%
Compound 4: hexane, C6H14, InChI=1S/C6H14/c1-3-5-6-4-2/h3-6H2,1-2H3, purity 99%

System: tridecane; phases: Crystal 1, Liquid
Property: Solid-liquid equilibrium temperature, K (Crystal 1); method: closed cylinder with variable piston
Pressure, kPa	Solid-liquid equilibrium temperature, K	uncertainty
100	268.21	0.24
133010	293.15	1.02
197120	303.15	1.25
265400	313.15	1.56
337830	323.15	1.87
414420	333.15	2.16
495170	343.15	2.5

System: hexadecane; phases: Crystal, Liquid
Property: Solid-liquid equilibrium temperature, K (Crystal); method: closed cylinder with variable piston
Pressure, kPa	Solid-liquid equilibrium temperature, K	uncertainty
9210	293.15	0.3
50650	303.15	0.58
95560	313.15	0.9
143920	323.15	1.21
195740	333.15	1.52
251030	343.15	1.87

System: octadecane; phases: Crystal, Liquid
Property: Solid-liquid equilibrium temperature, K (Crystal); method: closed cylinder with variable piston
Pressure, kPa	Solid-liquid equilibrium temperature, K	uncertainty
8860	303.15	0.3
49600	313.15	0.57
94900	323.15	0.88
144780	333.15	1.18
199220	343.15	1.47
258230	353.15	1.81

System: hexane + tridecane; phases: Liquid, Crystal 1
Fixed: Pressure, kPa = 100
Property: Solid-liquid equilibrium temperature, K (Liquid); method: VISOBS:UFactor:8
Mole fraction of tridecane	Solid-liquid equilibrium temperature, K	uncertainty
0.4685	255.18	1.24
0.5147	257.95	1.24
0.5564	258.86	1.24
0.5752	259.16	1.24
0.5919	259.3	1.24
0.6116	259.46	1.24
0.6301	260.38	1.24
0.6512	261.27	1.24
0.6784	262.12	1.24
0.7036	262.31	1.24
0.7225	262.73	1.24
0.7378	262.85	1.24
0.7597	263.16	1.24
0.7786	264.11	1.24
0.8008	264.39	1.24
0.8284	264.79	1.24
0.8496	265.62	1.24
0.873	266.43	1.24
0.9034	266.84	1.24
0.9357	267.18	1.24
0.9599	267.75	1.24
0.9782	267.97	1.24
0.9876	268.02	1.24
1	268.21	1.24

System: hexane + tridecane; phases: Liquid, Crystal 2
Fixed: Pressure, kPa = 100
Property: Solid-liquid equilibrium temperature, K (Liquid); method: VISOBS:UFactor:8
Mole fraction of tridecane	Solid-liquid equilibrium temperature, K	uncertainty
0.0263	218.86	1.41
0.0341	224.18	1.3
0.0443	226.21	1.25
0.0676	229.59	1.25
0.1157	236.78	1.25
0.1331	238.66	1.24
0.1603	240.89	1.24
0.2048	244.05	1.24
0.2229	244.99	1.24
0.2786	247.95	1.24
0.3033	248.92	1.24
0.3251	249.47	1.24
0.3777	250.93	1.24
0.4119	252.25	1.24
0.4328	253.11	1.24

System: hexane + tridecane; phases: Liquid, Crystal
Property: Vapor or sublimation pressure, kPa (Liquid); method: closed cylinder with variable piston
Mole fraction of tridecane	Temperature, K	Vapor or sublimation pressure, kPa	uncertainty
0.0232	293.15	436170	17736
0.0232	303.15	547000	22192
0.0232	313.15	675170	27371
0.0232	323.15	820690	33249
0.0232	333.15	983540	39830
0.0232	343.15	1163740	47085
0.0806	293.15	395220	16101
0.0806	303.15	510350	20712
0.0806	313.15	626010	25369
0.0806	323.15	756840	30648
0.0806	333.15	895350	36248
0.0806	343.15	1059440	42874
0.1372	293.15	364080	14860
0.1372	303.15	473700	19229
0.1372	313.15	578920	23459
0.1372	323.15	693740	28093
0.1372	333.15	818030	33120
0.1372	343.15	968210	39176
0.1777	293.15	335110	13675
0.1777	303.15	441000	17904
0.1777	313.15	533500	21616
0.1777	323.15	639360	25892
0.1777	333.15	756220	30614
0.1777	343.15	891780	36097
0.2442	293.15	302200	12316
0.2442	303.15	390540	15859
0.2442	313.15	481710	19520
0.2442	323.15	575720	23312
0.2442	333.15	684270	27694
0.2442	343.15	802100	32452
0.3158	293.15	269680	10976
0.3158	303.15	347870	14123
0.3158	313.15	431320	17481
0.3158	323.15	520030	21056
0.3158	333.15	619720	25078
0.3158	343.15	728110	29458
0.4256	293.15	237160	9658
0.4256	303.15	305200	12391
0.4256	313.15	380930	15443
0.4256	323.15	464340	18804
0.4256	333.15	555440	22477
0.4256	343.15	654210	26460
0.5006	293.15	217260	8868
0.5006	303.15	285960	11618
0.5006	313.15	360200	14604
0.5006	323.15	439960	17815
0.5006	333.15	525250	21250
0.5006	343.15	616070	24907
0.5789	293.15	197360	8070
0.5789	303.15	266720	10847
0.5789	313.15	339460	13767
0.5789	323.15	415580	16827
0.5789	333.15	495060	20026
0.5789	343.15	577920	23364
0.6708	293.15	182400	7481
0.6708	303.15	250000	10174
0.6708	313.15	320710	13006
0.6708	323.15	390520	15810
0.6708	333.15	465000	18808
0.6708	343.15	542000	21913
0.7359	293.15	170010	6983
0.7359	303.15	237370	9669
0.7359	313.15	307520	12478
0.7359	323.15	378460	15326
0.7359	333.15	452970	18323
0.7359	343.15	529980	21421
0.8156	293.15	157630	6493
0.8156	303.15	224740	9163
0.8156	313.15	294330	11950
0.8156	323.15	366400	14843
0.8156	333.15	440940	17840
0.8156	343.15	517960	20938
0.8587	293.15	152470	6292
0.8587	303.15	218840	8924
0.8587	313.15	286500	11637
0.8587	323.15	360210	14600
0.8587	333.15	437530	17704
0.8587	343.15	513020	20735
0.9237	293.15	142510	5889
0.9237	303.15	207560	8474
0.9237	313.15	275950	11214
0.9237	323.15	348910	14145
0.9237	333.15	425710	17232
0.9237	343.15	504090	20382
1	293.15	133010	5513
1	303.15	197120	8056
1	313.15	265400	10791
1	323.15	337830	13700
1	333.15	414420	16780
1	343.15	495170	20026

System: hexane + hexadecane; phases: Liquid, Crystal
Property: Vapor or sublimation pressure, kPa (Liquid); method: closed cylinder with variable piston
Mole fraction of hexadecane	Temperature, K	Vapor or sublimation pressure, kPa	uncertainty
0.026	293.15	469450	19324
0.026	303.15	548680	22519
0.026	313.15	645850	26446
0.026	323.15	760970	31106
0.026	333.15	894020	36497
0.026	343.15	1045010	42594
0.1	293.15	204710	8469
0.1	303.15	270170	11154
0.1	313.15	346020	14204
0.1	323.15	432260	17681
0.1	333.15	528890	21583
0.1	343.15	635910	26197
0.2007	293.15	128700	5320
0.2007	303.15	185580	7609
0.2007	313.15	249760	10187
0.2007	323.15	321260	13066
0.2007	333.15	400050	16241
0.2007	343.15	486160	19754
0.2765	293.15	91900	3901
0.2765	303.15	151100	6228
0.2765	313.15	215210	8787
0.2765	323.15	284230	11555
0.2765	333.15	358150	14527
0.2765	343.15	436970	17700
0.3674	293.15	55100	2451
0.3674	303.15	116630	4873
0.3674	313.15	180670	7404
0.3674	323.15	247200	10062
0.3674	333.15	316240	12830
0.3674	343.15	387790	15718
0.5026	293.15	41440	1944
0.5026	303.15	92580	3891
0.5026	313.15	150580	6190
0.5026	323.15	212440	8660
0.5026	333.15	277170	11254
0.5026	343.15	344750	13972
0.6002	293.15	35770	1785
0.6002	303.15	86530	3643
0.6002	313.15	140500	5773
0.6002	323.15	197680	8056
0.6002	333.15	258090	10479
0.6002	343.15	321710	13038
0.6955	293.15	25310	1438
0.6955	303.15	75410	3213
0.6955	313.15	128740	5306
0.6955	323.15	185290	7561
0.6955	333.15	245070	9956
0.6955	343.15	308080	12483
0.7845	293.15	14850	1130
0.7845	303.15	64300	2788
0.7845	313.15	116980	4840
0.7845	323.15	172900	7065
0.7845	333.15	232060	9434
0.7845	343.15	294460	11934
0.8316	293.15	13490	1106
0.8316	303.15	61700	2679
0.8316	313.15	112880	4671
0.8316	323.15	167020	6825
0.8316	333.15	224110	9111
0.8316	343.15	284150	11520
0.8885	293.15	12120	1059
0.8885	303.15	59110	2572
0.8885	313.15	108780	4503
0.8885	323.15	161130	6585
0.8885	333.15	216150	8788
0.8885	343.15	273850	11099
0.9543	293.15	10670	987
0.9543	303.15	54880	2395
0.9543	313.15	102170	4228
0.9543	323.15	149520	6111
0.9543	333.15	201950	8214
0.9543	343.15	257440	10443
1	293.15	9210	908
1	303.15	50650	2217
1	313.15	95560	3963
1	323.15	143920	5887
1	333.15	195740	7963
1	343.15	251030	10180

System: hexane + octadecane; phases: Liquid, Crystal
Property: Vapor or sublimation pressure, kPa (Liquid); method: closed cylinder with variable piston
Mole fraction of octadecane	Temperature, K	Vapor or sublimation pressure, kPa	uncertainty
0.0608	303.15	238600	9804
0.0608	313.15	305710	12495
0.0608	323.15	383160	15617
0.0608	333.15	470940	19163
0.0608	343.15	569050	23131
0.0608	353.15	677490	27507
0.1066	303.15	176980	7259
0.1066	313.15	241660	9875
0.1066	323.15	312770	12732
0.1066	333.15	390340	15856
0.1066	343.15	474350	19245
0.1066	353.15	564810	22938
0.1986	303.15	115370	4812
0.1986	313.15	177600	7297
0.1986	323.15	242390	9883
0.1986	333.15	309740	12585
0.1986	343.15	379650	15396
0.1986	353.15	452120	18335
0.2509	303.15	97980	4119
0.2509	313.15	156290	6422
0.2509	323.15	217790	8879
0.2509	333.15	282490	11473
0.2509	343.15	350370	14200
0.2509	353.15	421440	17060
0.321	303.15	80590	3418
0.321	313.15	134980	5562
0.321	323.15	193200	7886
0.321	333.15	255230	10374
0.321	343.15	321090	13020
0.321	353.15	390770	15821
0.3865	303.15	70740	3031
0.3865	313.15	121960	5033
0.3865	323.15	176990	7229
0.3865	333.15	235820	9588
0.3865	343.15	298450	12104
0.3865	353.15	364880	14775
0.459	303.15	60890	2631
0.459	313.15	108940	4507
0.459	323.15	160780	6573
0.459	333.15	216400	8802
0.459	343.15	275800	11188
0.459	353.15	338980	13733
0.5344	303.15	53940	2342
0.5344	313.15	97570	4043
0.5344	323.15	146420	5994
0.5344	333.15	200510	8164
0.5344	343.15	259820	10549
0.5344	353.15	324360	13141
0.62	303.15	47000	2068
0.62	313.15	86190	3579
0.62	323.15	132060	5415
0.62	333.15	184610	7527
0.62	343.15	243840	9910
0.62	353.15	309740	12559
0.6997	303.15	35020	1651
0.6997	313.15	77150	3239
0.6997	323.15	124640	5124
0.6997	333.15	177500	7242
0.6997	343.15	235740	9581
0.6997	353.15	299340	12134
0.7785	303.15	23050	1288
0.7785	313.15	68100	2904
0.7785	323.15	117220	4836
0.7785	333.15	170400	6958
0.7785	343.15	227630	9253
0.7785	353.15	288930	11711
0.8193	303.15	19130	1197
0.8193	313.15	64920	2785
0.8193	323.15	114140	4713
0.8193	333.15	166780	6811
0.8193	343.15	222840	9058
0.8193	353.15	282330	11445
0.8673	303.15	15220	1104
0.8673	313.15	61740	2668
0.8673	323.15	111050	4591
0.8673	333.15	163160	6665
0.8673	343.15	218040	8862
0.8673	353.15	275720	11176
0.9401	303.15	12040	1003
0.9401	313.15	55670	2423
0.9401	323.15	102980	4268
0.9401	333.15	153970	6297
0.9401	343.15	208630	8487
0.9401	353.15	266970	10825
1	303.15	8860	890
1	313.15	49600	2177
1	323.15	94900	3942
1	333.15	144780	5929
1	343.15	199220	8111
1	353.15	258230	10476
