Measured thermophysical data. Vapour liquid equilibria, enthalpy of mixing of binary mixtures containing diisopropylether DIPE and monoaromatic hydrocarbons Experimental results and modelling
Source: Fluid Phase Equilib., 2007, 10.1016/j.fluid.2007.03.017
Compound 1: diisopropyl ether, C6H14O, InChI=1S/C6H14O/c1-5(2)7-6(3)4/h5-6H,1-4H3, purity 99%
Compound 2: toluene, C7H8, InChI=1S/C7H8/c1-7-5-3-2-4-6-7/h2-6H,1H3, purity 99.5%
Compound 3: 1,3-dimethylbenzene, C8H10, InChI=1S/C8H10/c1-7-4-3-5-8(2)6-7/h3-6H,1-2H3, purity 99.5%

System: diisopropyl ether; phases: Liquid, Gas
Property: Vapor or sublimation pressure, kPa (Liquid); method: CCELL:UFactor:8
Temperature, K	Vapor or sublimation pressure, kPa	uncertainty
263.75	3.205	0.102
273.47	5.706	0.133
283.35	9.691	0.183
293.29	15.802	0.26
303.28	24.574	0.37
313.27	36.955	0.525
323.25	53.848	0.736
333.22	76.241	1.015
343.18	104.96	1.37

System: toluene; phases: Liquid, Gas
Property: Vapor or sublimation pressure, kPa (Liquid); method: CCELL:UFactor:8
Temperature, K	Vapor or sublimation pressure, kPa	uncertainty
263.75	0.433	0.035
273.47	0.843	0.06
283.35	1.574	0.082
293.29	2.817	0.097
303.28	4.789	0.122
313.27	7.787	0.159
323.25	12.3	0.216
333.22	18.926	0.298
343.18	27.758	0.408

System: 1,3-dimethylbenzene; phases: Liquid, Gas
Property: Vapor or sublimation pressure, kPa (Liquid); method: CCELL:UFactor:8
Temperature, K	Vapor or sublimation pressure, kPa	uncertainty
263.75	0.099	0.015
273.47	0.21	0.021
283.35	0.433	0.035
293.29	0.863	0.062
303.28	1.591	0.082
313.27	2.77	0.096
323.25	4.405	0.117
333.22	6.846	0.147
343.18	10.481	0.192

System: diisopropyl ether + toluene; phases: Liquid
Fixed: Temperature, K = 303.15
Fixed: Pressure, kPa = 101
Property: Excess molar enthalpy (molar enthalpy of mixing), kJ/mol (Liquid); method: CALVET:UFactor:2
Mole fraction of diisopropyl ether	Excess molar enthalpy (molar enthalpy of mixing), kJ/mol	uncertainty
0.057	0.0273	0.0102
0.103	0.0422	0.0102
0.14	0.0519	0.0102
0.228	0.0593	0.0103
0.314	0.0548	0.0102
0.397	0.0419	0.0102
0.455	0.0323	0.0102
0.673	0.0032	0.0101
0.752	-0.0091	0.0101
0.889	-0.0081	0.0101

System: diisopropyl ether + toluene; phases: Liquid, Gas
Property: Vapor or sublimation pressure, kPa (Liquid); method: CCELL:UFactor:8
Temperature, K	Mole fraction of diisopropyl ether	Vapor or sublimation pressure, kPa	uncertainty
263.15	0.0843	0.7645	0.1109
263.15	0.1517	1.222	0.1676
263.15	0.2846	1.4887	0.1609
263.15	0.4047	1.8843	0.1708
263.15	0.6416	2.0713	0.1754
263.15	0.7718	2.693	0.191
263.15	0.8702	2.8945	0.196
273.15	0.0843	1.4249	0.1593
273.15	0.1517	2.1406	0.1771
273.15	0.2846	2.6988	0.191
273.15	0.4047	3.368	0.2076
273.15	0.6416	3.8712	0.2202
273.15	0.7718	4.811	0.2436
273.15	0.8702	5.1776	0.2527
283.15	0.0843	2.5232	0.1866
283.15	0.1517	3.6049	0.2135
283.15	0.2846	4.65	0.2395
283.15	0.4047	5.7337	0.2664
283.15	0.6416	6.8013	0.2931
283.15	0.7718	8.1685	0.3272
283.15	0.8702	8.7964	0.3429
293.15	0.0843	4.2712	0.23
293.15	0.1517	5.8593	0.2695
293.15	0.2846	7.6626	0.3144
293.15	0.4047	9.3513	0.3564
293.15	0.6416	11.331	0.4058
293.15	0.7718	13.2653	0.454
293.15	0.8702	14.2875	0.4796
303.15	0.0843	6.9469	0.2965
303.15	0.1517	9.224	0.3531
303.15	0.2846	12.1398	0.4257
303.15	0.4047	14.6845	0.489
303.15	0.6416	18.0299	0.5725
303.15	0.7718	20.7159	0.6395
303.15	0.8702	22.3082	0.6793
313.15	0.0843	10.9038	0.3949
313.15	0.1517	14.1074	0.4745
313.15	0.2846	18.5745	0.5856
313.15	0.4047	22.2966	0.6783
313.15	0.6416	27.5644	0.8097
313.15	0.7718	31.2524	0.9017
313.15	0.8702	33.6391	0.9613
323.15	0.0843	16.5788	0.5359
323.15	0.1517	21.0179	0.6462
323.15	0.2846	27.5513	0.8087
323.15	0.4047	32.8534	0.9407
323.15	0.6416	40.6893	1.1361
323.15	0.7718	45.7228	1.2617
323.15	0.8702	49.1813	1.3481
333.15	0.0843	24.4974	0.7326
333.15	0.1517	30.5749	0.8836
333.15	0.2846	39.7474	1.1118
333.15	0.4047	47.1241	1.2954
333.15	0.6416	58.2372	1.5725
333.15	0.7718	65.0863	1.7434
333.15	0.8702	69.9508	1.8649
343.15	0.0843	35.2787	1.0001
343.15	0.1517	43.5193	1.2047
343.15	0.2846	55.9308	1.5133
343.15	0.4047	65.9785	1.7632
343.15	0.6416	81.1044	2.1405
343.15	0.7718	90.4056	2.3724
343.15	0.8702	97.0686	2.5388

System: diisopropyl ether + 1,3-dimethylbenzene; phases: Liquid
Fixed: Temperature, K = 303.15
Fixed: Pressure, kPa = 101
Property: Excess molar enthalpy (molar enthalpy of mixing), kJ/mol (Liquid); method: Calvet calorimetry
Mole fraction of diisopropyl ether	Excess molar enthalpy (molar enthalpy of mixing), kJ/mol	uncertainty
0.133	0.0448	0.0101
0.147	0.047	0.0101
0.221	0.0574	0.0101
0.259	0.0593	0.0101
0.35	0.0571	0.0101
0.424	0.0514	0.0101
0.483	0.0453	0.0101
0.622	0.0261	0.01
0.656	0.0226	0.01
0.752	0.0115	0.01
0.902	0.0013	0.01

System: diisopropyl ether + 1,3-dimethylbenzene; phases: Liquid, Gas
Property: Vapor or sublimation pressure, kPa (Liquid); method: CCELL:UFactor:8
Temperature, K	Mole fraction of diisopropyl ether	Vapor or sublimation pressure, kPa	uncertainty
263.15	0.0572	0.4165	0.0677
263.15	0.1682	1.1295	0.1562
263.15	0.3929	1.7176	0.1666
263.15	0.7981	2.6987	0.1911
263.15	0.8639	2.8992	0.1961
273.15	0.0572	0.7847	0.1134
273.15	0.1682	2.035	0.1745
273.15	0.3929	3.062	0.2
273.15	0.7981	4.7934	0.2431
273.15	0.8639	5.1356	0.2517
283.15	0.0572	1.4036	0.1588
283.15	0.1682	3.488	0.2106
283.15	0.3929	5.1949	0.253
283.15	0.7981	8.0982	0.3254
283.15	0.8639	8.6591	0.3394
293.15	0.0572	2.3988	0.1835
293.15	0.1682	5.7225	0.2661
293.15	0.3929	8.4388	0.3337
293.15	0.7981	13.0944	0.4498
293.15	0.8639	13.9845	0.472
303.15	0.0572	3.9367	0.2217
303.15	0.1682	9.0328	0.3484
303.15	0.3929	13.1929	0.4519
303.15	0.7981	20.3764	0.6311
303.15	0.8639	21.7357	0.665
313.15	0.0572	6.2317	0.2787
313.15	0.1682	13.7772	0.4663
313.15	0.3929	19.9372	0.6196
313.15	0.7981	30.6433	0.8865
313.15	0.8639	32.6675	0.9371
323.15	0.0572	9.5515	0.3612
323.15	0.1682	20.3811	0.6303
323.15	0.3929	29.2326	0.8506
323.15	0.7981	44.7087	1.2365
323.15	0.8639	47.6472	1.3099
333.15	0.0572	14.2215	0.4772
333.15	0.1682	29.3369	0.8528
333.15	0.3929	41.7194	1.1609
333.15	0.7981	63.4908	1.7037
333.15	0.8639	67.6584	1.8078
343.15	0.0572	20.6289	0.6362
343.15	0.1682	41.2022	1.1465
343.15	0.3929	58.1134	1.5678
343.15	0.7981	88.0049	2.3128
343.15	0.8639	93.7923	2.4572
