Measured thermophysical data. Determination of water solubility in supercritical CO2 from 313.15 to 473.15 K and from 10 to 50 MPa by in-situ quantitative Raman spectroscopy
Source: Fluid Phase Equilib., 2018, 10.1016/j.fluid.2018.08.006
Compound 1: carbon dioxide, CO2, InChI=1S/CO2/c2-1-3
Compound 2: water, H2O, InChI=1S/H2O/h1H2, purity 99.9%

System: water + carbon dioxide; phases: Gas, Liquid
Property: Mole fraction of water (Gas); method: Raman Spectroscopy in-situ
Pressure, kPa	Temperature, K	Mole fraction of water	uncertainty
10000	313.15	0.0076	0.0004
10000	333.15	0.0098	0.0008
10000	353.15	0.0167	0.0012
10000	373.15	0.0291	0.0019
10000	393.15	0.0515	0.0014
10000	413.15	0.0859	0.0022
10000	433.15	0.1347	0.0029
10000	453.15	0.2067	0.005
10000	473.15	0.2894	0.0064
20000	313.15	0.0093	0.001
20000	333.15	0.0129	0.001
20000	353.15	0.0211	0.0009
20000	373.15	0.0303	0.0015
20000	393.15	0.0444	0.0016
20000	413.15	0.0661	0.0024
20000	433.15	0.0983	0.002
20000	453.15	0.1425	0.0039
20000	473.15	0.205	0.0051
30000	313.15	0.0093	0.0003
30000	333.15	0.0142	0.0005
30000	353.15	0.0225	0.0011
30000	373.15	0.0325	0.0013
30000	393.15	0.0488	0.0009
30000	413.15	0.0697	0.0014
30000	433.15	0.0987	0.003
30000	453.15	0.1383	0.0029
30000	473.15	0.188	0.0033
40000	313.15	0.0101	0.0006
40000	333.15	0.0159	0.0005
40000	353.15	0.0226	0.0007
40000	373.15	0.0345	0.0015
40000	393.15	0.0492	0.0017
40000	413.15	0.0702	0.0015
40000	433.15	0.0951	0.0017
40000	453.15	0.1264	0.0022
40000	473.15	0.1658	0.003
50000	313.15	0.0106	0.0004
50000	333.15	0.0162	0.001
50000	353.15	0.0239	0.0007
50000	373.15	0.036	0.0014
50000	393.15	0.0502	0.0013
50000	413.15	0.0683	0.0014
50000	433.15	0.0925	0.002
50000	453.15	0.122	0.0021
50000	473.15	0.1564	0.0028
