Measured thermophysical data. New ionic liquid [P4,4,4,4][NTf2] in bio-butanol extraction on investigation of limiting activity coefficients
Source: Fluid Phase Equilib., 2018, 10.1016/j.fluid.2018.07.028
Compound 1: tetrabutylphosphonium bis(trifluoromethylsulfonyl)imide, C18H36F6NO4PS2, InChI=1S/C16H36P.C2F6NO4S2/c1-5-9-13-17(14-10-6-2,15-11-7-3)16-12-8-4;3-1(4,5)14(10,11)9-15(12,13)2(6,7)8/h5-16H2,1-4H3;/q+1;-1
Compound 2: water, H2O, InChI=1S/H2O/h1H2
Compound 3: pentane, C5H12, InChI=1S/C5H12/c1-3-5-4-2/h3-5H2,1-2H3, purity 99%
Compound 4: 2,2-dimethylbutane, C6H14, InChI=1S/C6H14/c1-5-6(2,3)4/h5H2,1-4H3, purity 99%
Compound 5: 2-methyl-1-propanol, C4H10O, InChI=1S/C4H10O/c1-4(2)3-5/h4-5H,3H2,1-2H3, purity 99.8%
Compound 6: 2-methylpropan-2-ol, C4H10O, InChI=1S/C4H10O/c1-4(2,3)5/h5H,1-3H3, purity 99.7%
Compound 7: diisopropyl ether, C6H14O, InChI=1S/C6H14O/c1-5(2)7-6(3)4/h5-6H,1-4H3, purity 99%
Compound 8: hexane, C6H14, InChI=1S/C6H14/c1-3-5-6-4-2/h3-6H2,1-2H3, purity 99%
Compound 9: 3-methylpentane, C6H14, InChI=1S/C6H14/c1-4-6(3)5-2/h6H,4-5H2,1-3H3, purity 99%
Compound 10: heptane, C7H16, InChI=1S/C7H16/c1-3-5-7-6-4-2/h3-7H2,1-2H3, purity 99.5%
Compound 11: octane, C8H18, InChI=1S/C8H18/c1-3-5-7-8-6-4-2/h3-8H2,1-2H3, purity 99%
Compound 12: 2,2,4-trimethylpentane, C8H18, InChI=1S/C8H18/c1-7(2)6-8(3,4)5/h7H,6H2,1-5H3, purity 99%
Compound 13: nonane, C9H20, InChI=1S/C9H20/c1-3-5-7-9-8-6-4-2/h3-9H2,1-2H3, purity 99%
Compound 14: decane, C10H22, InChI=1S/C10H22/c1-3-5-7-9-10-8-6-4-2/h3-10H2,1-2H3, purity 99%
Compound 15: cyclopentane, C5H10, InChI=1S/C5H10/c1-2-4-5-3-1/h1-5H2, purity 99%
Compound 16: cyclohexane, C6H12, InChI=1S/C6H12/c1-2-4-6-5-3-1/h1-6H2, purity 99%
Compound 17: methylcyclohexane, C7H14, InChI=1S/C7H14/c1-7-5-3-2-4-6-7/h7H,2-6H2,1H3, purity 99%
Compound 18: cycloheptane, C7H14, InChI=1S/C7H14/c1-2-4-6-7-5-3-1/h1-7H2, purity 98%
Compound 19: cyclooctane, C8H16, InChI=1S/C8H16/c1-2-4-6-8-7-5-3-1/h1-8H2, purity 99%
Compound 20: 1-pentene, C5H10, InChI=1S/C5H10/c1-3-5-4-2/h3H,1,4-5H2,2H3, purity 98.5%
Compound 21: hex-1-ene, C6H12, InChI=1S/C6H12/c1-3-5-6-4-2/h3H,1,4-6H2,2H3, purity 99%
Compound 22: cyclohexene, C6H10, InChI=1S/C6H10/c1-2-4-6-5-3-1/h1-2H,3-6H2, purity 99%
Compound 23: 1-heptene, C7H14, InChI=1S/C7H14/c1-3-5-7-6-4-2/h3H,1,4-7H2,2H3, purity 99%
Compound 24: oct-1-ene, C8H16, InChI=1S/C8H16/c1-3-5-7-8-6-4-2/h3H,1,4-8H2,2H3, purity 98%
Compound 25: 1-decene, C10H20, InChI=1S/C10H20/c1-3-5-7-9-10-8-6-4-2/h3H,1,4-10H2,2H3, purity 97%
Compound 26: 1-pentyne, C5H8, InChI=1S/C5H8/c1-3-5-4-2/h1H,4-5H2,2H3, purity 99%
Compound 27: 1-hexyne, C6H10, InChI=1S/C6H10/c1-3-5-6-4-2/h1H,4-6H2,2H3, purity 97%
Compound 28: 1-heptyne, C7H12, InChI=1S/C7H12/c1-3-5-7-6-4-2/h1H,4-7H2,2H3, purity 98%
Compound 29: 1-octyne, C8H14, InChI=1S/C8H14/c1-3-5-7-8-6-4-2/h1H,4-8H2,2H3, purity 97%
Compound 30: benzene, C6H6, InChI=1S/C6H6/c1-2-4-6-5-3-1/h1-6H, purity 99.8%
Compound 31: toluene, C7H8, InChI=1S/C7H8/c1-7-5-3-2-4-6-7/h2-6H,1H3, purity 99.8%
Compound 32: ethylbenzene, C8H10, InChI=1S/C8H10/c1-2-8-6-4-3-5-7-8/h3-7H,2H2,1H3, purity 99.8%
Compound 33: 1,2-dimethylbenzene, C8H10, InChI=1S/C8H10/c1-7-5-3-4-6-8(7)2/h3-6H,1-2H3, purity 99%
Compound 34: 1,3-dimethylbenzene, C8H10, InChI=1S/C8H10/c1-7-4-3-5-8(2)6-7/h3-6H,1-2H3, purity 99%
Compound 35: 1,4-dimethylbenzene, C8H10, InChI=1S/C8H10/c1-7-3-5-8(2)6-4-7/h3-6H,1-2H3, purity 99%
Compound 36: propylbenzene, C9H12, InChI=1S/C9H12/c1-2-6-9-7-4-3-5-8-9/h3-5,7-8H,2,6H2,1H3, purity 98%
Compound 37: isopropylbenzene, C9H12, InChI=1S/C9H12/c1-8(2)9-6-4-3-5-7-9/h3-8H,1-2H3, purity 99%
Compound 38: styrene, C8H8, InChI=1S/C8H8/c1-2-8-6-4-3-5-7-8/h2-7H,1H2, purity 99.9%
Compound 39: (1-methylethenyl)benzene, C9H10, InChI=1S/C9H10/c1-8(2)9-6-4-3-5-7-9/h3-7H,1H2,2H3, purity 99%
Compound 40: thiophene, C4H4S, InChI=1S/C4H4S/c1-2-4-5-3-1/h1-4H, purity 99%
Compound 41: methanol, CH4O, InChI=1S/CH4O/c1-2/h2H,1H3, purity 99.9%
Compound 42: ethanol, C2H6O, InChI=1S/C2H6O/c1-2-3/h3H,2H2,1H3, purity 99.8%
Compound 43: propan-1-ol, C3H8O, InChI=1S/C3H8O/c1-2-3-4/h4H,2-3H2,1H3, purity 99.9%
Compound 44: propan-2-ol, C3H8O, InChI=1S/C3H8O/c1-3(2)4/h3-4H,1-2H3, purity 99.9%
Compound 45: butan-1-ol, C4H10O, InChI=1S/C4H10O/c1-2-3-4-5/h5H,2-4H2,1H3, purity 99.8%
Compound 46: butan-2-ol, C4H10O, InChI=1S/C4H10O/c1-3-4(2)5/h4-5H,3H2,1-2H3, purity 99.5%
Compound 47: pentan-1-ol, C5H12O, InChI=1S/C5H12O/c1-2-3-4-5-6/h6H,2-5H2,1H3, purity 99.8%
Compound 48: methyl ethanoate, C3H6O2, InChI=1S/C3H6O2/c1-3(4)5-2/h1-2H3, purity 99.8%
Compound 49: methyl propanoate, C4H8O2, InChI=1S/C4H8O2/c1-3-4(5)6-2/h3H2,1-2H3, purity 99%
Compound 50: methyl butanoate, C5H10O2, InChI=1S/C5H10O2/c1-3-4-5(6)7-2/h3-4H2,1-2H3, purity 99%
Compound 51: ethyl acetate, C4H8O2, InChI=1S/C4H8O2/c1-3-6-4(2)5/h3H2,1-2H3, purity 99.8%
Compound 52: vinyl acetate, C4H6O2, InChI=1S/C4H6O2/c1-3-6-4(2)5/h3H,1H2,2H3, purity 99%
Compound 53: tetrahydrofuran, C4H8O, InChI=1S/C4H8O/c1-2-4-5-3-1/h1-4H2, purity 99.9%
Compound 54: 1,4-dioxane, C4H8O2, InChI=1S/C4H8O2/c1-2-6-4-3-5-1/h1-4H2, purity 99.8%
Compound 55: 2-methoxy-2-methylpropane, C5H12O, InChI=1S/C5H12O/c1-5(2,3)6-4/h1-4H3, purity 99.8%
Compound 56: 2-ethoxy-2-methylpropane, C6H14O, InChI=1S/C6H14O/c1-5-7-6(2,3)4/h5H2,1-4H3, purity 99%
Compound 57: 2-methoxy-2-methylbutane, C6H14O, InChI=1S/C6H14O/c1-5-6(2,3)7-4/h5H2,1-4H3, purity 97%
Compound 58: diethyl ether, C4H10O, InChI=1S/C4H10O/c1-3-5-4-2/h3-4H2,1-2H3, purity 99.9%
Compound 59: dipropyl ether, C6H14O, InChI=1S/C6H14O/c1-3-5-7-6-4-2/h3-6H2,1-2H3, purity 99%
Compound 60: dibutyl ether, C8H18O, InChI=1S/C8H18O/c1-3-5-7-9-8-6-4-2/h3-8H2,1-2H3, purity 99.3%
Compound 61: acetone, C3H6O, InChI=1S/C3H6O/c1-3(2)4/h1-2H3, purity 99.9%
Compound 62: pentan-2-one, C5H10O, InChI=1S/C5H10O/c1-3-4-5(2)6/h3-4H2,1-2H3, purity 99%
Compound 63: pentan-3-one, C5H10O, InChI=1S/C5H10O/c1-3-5(6)4-2/h3-4H2,1-2H3, purity 99%
Compound 64: butanal, C4H8O, InChI=1S/C4H8O/c1-2-3-4-5/h4H,2-3H2,1H3, purity 99%
Compound 65: acetonitrile, C2H3N, InChI=1S/C2H3N/c1-2-3/h1H3, purity 99.9%
Compound 66: 1-nitropropane, C3H7NO2, InChI=1S/C3H7NO2/c1-2-3-4(5)6/h2-3H2,1H3, purity 98.5%

System: tetrabutylphosphonium bis(trifluoromethylsulfonyl)imide + pentane; phases: Liquid
Fixed: Mole fraction of pentane = 0
Fixed: Pressure, kPa = 101.325
Property: Activity coefficient of pentane (Liquid); method: Chromatography
Temperature, K	Activity coefficient of pentane	uncertainty
358.15	3.61	0.25
368.15	3.62	0.25
378.15	3.65	0.25
388.15	3.66	0.25
398.15	3.68	0.25
408.15	3.7	0.25

System: tetrabutylphosphonium bis(trifluoromethylsulfonyl)imide + hexane; phases: Liquid
Fixed: Mole fraction of hexane = 0
Fixed: Pressure, kPa = 101.325
Property: Activity coefficient of hexane (Liquid); method: Chromatography
Temperature, K	Activity coefficient of hexane	uncertainty
358.15	4.39	0.3
368.15	4.41	0.3
378.15	4.44	0.3
388.15	4.46	0.3
398.15	4.49	0.31
408.15	4.51	0.31

System: tetrabutylphosphonium bis(trifluoromethylsulfonyl)imide + 3-methylpentane; phases: Liquid
Fixed: Mole fraction of 3-methylpentane = 0
Fixed: Pressure, kPa = 101.325
Property: Activity coefficient of 3-methylpentane (Liquid); method: Chromatography
Temperature, K	Activity coefficient of 3-methylpentane	uncertainty
358.15	4.02	0.27
368.15	4.04	0.28
378.15	4.06	0.28
388.15	4.09	0.28
398.15	4.11	0.28
408.15	4.13	0.28

System: tetrabutylphosphonium bis(trifluoromethylsulfonyl)imide + 2,2-dimethylbutane; phases: Liquid
Fixed: Mole fraction of 2,2-dimethylbutane = 0
Fixed: Pressure, kPa = 101.325
Property: Activity coefficient of 2,2-dimethylbutane (Liquid); method: Chromatography
Temperature, K	Activity coefficient of 2,2-dimethylbutane	uncertainty
358.15	3.93	0.27
368.15	3.98	0.27
378.15	4.01	0.27
388.15	4.05	0.28
398.15	4.08	0.28
408.15	4.12	0.28

System: tetrabutylphosphonium bis(trifluoromethylsulfonyl)imide + heptane; phases: Liquid
Fixed: Mole fraction of heptane = 0
Fixed: Pressure, kPa = 101.325
Property: Activity coefficient of heptane (Liquid); method: Chromatography
Temperature, K	Activity coefficient of heptane	uncertainty
358.15	5.4	0.37
368.15	5.38	0.37
378.15	5.37	0.37
388.15	5.35	0.36
398.15	5.34	0.36
408.15	5.33	0.36

System: tetrabutylphosphonium bis(trifluoromethylsulfonyl)imide + octane; phases: Liquid
Fixed: Mole fraction of octane = 0
Fixed: Pressure, kPa = 101.325
Property: Activity coefficient of octane (Liquid); method: Chromatography
Temperature, K	Activity coefficient of octane	uncertainty
358.15	6.69	0.46
368.15	6.62	0.45
378.15	6.56	0.45
388.15	6.5	0.44
398.15	6.44	0.44
408.15	6.39	0.44

System: tetrabutylphosphonium bis(trifluoromethylsulfonyl)imide + 2,2,4-trimethylpentane; phases: Liquid
Fixed: Mole fraction of 2,2,4-trimethylpentane = 0
Fixed: Pressure, kPa = 101.325
Property: Activity coefficient of 2,2,4-trimethylpentane (Liquid); method: Chromatography
Temperature, K	Activity coefficient of 2,2,4-trimethylpentane	uncertainty
358.15	5.43	0.37
368.15	5.42	0.37
378.15	5.41	0.37
388.15	5.4	0.37
398.15	5.39	0.37
408.15	5.39	0.37

System: tetrabutylphosphonium bis(trifluoromethylsulfonyl)imide + nonane; phases: Liquid
Fixed: Mole fraction of nonane = 0
Fixed: Pressure, kPa = 101.325
Property: Activity coefficient of nonane (Liquid); method: Chromatography
Temperature, K	Activity coefficient of nonane	uncertainty
358.15	8.31	0.57
368.15	8.15	0.56
378.15	8.01	0.55
388.15	7.87	0.54
398.15	7.74	0.53
408.15	7.62	0.52

System: tetrabutylphosphonium bis(trifluoromethylsulfonyl)imide + decane; phases: Liquid
Fixed: Mole fraction of decane = 0
Fixed: Pressure, kPa = 101.325
Property: Activity coefficient of decane (Liquid); method: Chromatography
Temperature, K	Activity coefficient of decane	uncertainty
358.15	10.4	0.7
368.15	10.1	0.7
378.15	9.88	0.67
388.15	9.67	0.66
398.15	9.47	0.65
408.15	9.29	0.63

System: tetrabutylphosphonium bis(trifluoromethylsulfonyl)imide + cyclopentane; phases: Liquid
Fixed: Mole fraction of cyclopentane = 0
Fixed: Pressure, kPa = 101.325
Property: Activity coefficient of cyclopentane (Liquid); method: Chromatography
Temperature, K	Activity coefficient of cyclopentane	uncertainty
358.15	2.33	0.16
368.15	2.35	0.16
378.15	2.37	0.16
388.15	2.38	0.16
398.15	2.4	0.16
408.15	2.42	0.16

System: tetrabutylphosphonium bis(trifluoromethylsulfonyl)imide + cyclohexane; phases: Liquid
Fixed: Mole fraction of cyclohexane = 0
Fixed: Pressure, kPa = 101.325
Property: Activity coefficient of cyclohexane (Liquid); method: Chromatography
Temperature, K	Activity coefficient of cyclohexane	uncertainty
358.15	2.85	0.19
368.15	2.85	0.19
378.15	2.85	0.19
388.15	2.86	0.19
398.15	2.86	0.19
408.15	2.86	0.19

System: tetrabutylphosphonium bis(trifluoromethylsulfonyl)imide + methylcyclohexane; phases: Liquid
Fixed: Mole fraction of methylcyclohexane = 0
Fixed: Pressure, kPa = 101.325
Property: Activity coefficient of methylcyclohexane (Liquid); method: Chromatography
Temperature, K	Activity coefficient of methylcyclohexane	uncertainty
358.15	3.5	0.24
368.15	3.49	0.24
378.15	3.48	0.24
388.15	3.48	0.24
398.15	3.47	0.24
408.15	3.46	0.24

System: tetrabutylphosphonium bis(trifluoromethylsulfonyl)imide + cycloheptane; phases: Liquid
Fixed: Mole fraction of cycloheptane = 0
Fixed: Pressure, kPa = 101.325
Property: Activity coefficient of cycloheptane (Liquid); method: Chromatography
Temperature, K	Activity coefficient of cycloheptane	uncertainty
358.15	3.42	0.23
368.15	3.41	0.23
378.15	3.4	0.23
388.15	3.39	0.23
398.15	3.38	0.23
408.15	3.37	0.23

System: tetrabutylphosphonium bis(trifluoromethylsulfonyl)imide + cyclooctane; phases: Liquid
Fixed: Mole fraction of cyclooctane = 0
Fixed: Pressure, kPa = 101.325
Property: Activity coefficient of cyclooctane (Liquid); method: Chromatography
Temperature, K	Activity coefficient of cyclooctane	uncertainty
358.15	4.08	0.28
368.15	4.04	0.28
378.15	4	0.27
388.15	3.97	0.27
398.15	3.94	0.27
408.15	3.91	0.27

System: tetrabutylphosphonium bis(trifluoromethylsulfonyl)imide + 1-pentene; phases: Liquid
Fixed: Mole fraction of 1-pentene = 0
Fixed: Pressure, kPa = 101.325
Property: Activity coefficient of 1-pentene (Liquid); method: Chromatography
Temperature, K	Activity coefficient of 1-pentene	uncertainty
358.15	2.61	0.18
368.15	2.66	0.18
378.15	2.7	0.18
388.15	2.74	0.19
398.15	2.78	0.19
408.15	2.82	0.19

System: tetrabutylphosphonium bis(trifluoromethylsulfonyl)imide + hex-1-ene; phases: Liquid
Fixed: Mole fraction of hex-1-ene = 0
Fixed: Pressure, kPa = 101.325
Property: Activity coefficient of hex-1-ene (Liquid); method: Chromatography
Temperature, K	Activity coefficient of hex-1-ene	uncertainty
358.15	3.15	0.21
368.15	3.2	0.22
378.15	3.24	0.22
388.15	3.28	0.22
398.15	3.32	0.23
408.15	3.35	0.23

System: tetrabutylphosphonium bis(trifluoromethylsulfonyl)imide + cyclohexene; phases: Liquid
Fixed: Mole fraction of cyclohexene = 0
Fixed: Pressure, kPa = 101.325
Property: Activity coefficient of cyclohexene (Liquid); method: Chromatography
Temperature, K	Activity coefficient of cyclohexene	uncertainty
358.15	2.24	0.15
368.15	2.27	0.15
378.15	2.29	0.16
388.15	2.32	0.16
398.15	2.34	0.16
408.15	2.37	0.16

System: tetrabutylphosphonium bis(trifluoromethylsulfonyl)imide + 1-heptene; phases: Liquid
Fixed: Mole fraction of 1-heptene = 0
Fixed: Pressure, kPa = 101.325
Property: Activity coefficient of 1-heptene (Liquid); method: Chromatography
Temperature, K	Activity coefficient of 1-heptene	uncertainty
358.15	3.96	0.27
368.15	4	0.27
378.15	4.05	0.28
388.15	4.09	0.28
398.15	4.13	0.28
408.15	4.17	0.28

System: tetrabutylphosphonium bis(trifluoromethylsulfonyl)imide + oct-1-ene; phases: Liquid
Fixed: Mole fraction of oct-1-ene = 0
Fixed: Pressure, kPa = 101.325
Property: Activity coefficient of oct-1-ene (Liquid); method: Chromatography
Temperature, K	Activity coefficient of oct-1-ene	uncertainty
358.15	4.9	0.33
368.15	4.92	0.34
378.15	4.94	0.34
388.15	4.96	0.34
398.15	4.98	0.34
408.15	5.01	0.34

System: tetrabutylphosphonium bis(trifluoromethylsulfonyl)imide + 1-decene; phases: Liquid
Fixed: Mole fraction of 1-decene = 0
Fixed: Pressure, kPa = 101.325
Property: Activity coefficient of 1-decene (Liquid); method: Chromatography
Temperature, K	Activity coefficient of 1-decene	uncertainty
358.15	7.54	0.51
368.15	7.48	0.51
378.15	7.41	0.51
388.15	7.36	0.5
398.15	7.3	0.5
408.15	7.25	0.49

System: tetrabutylphosphonium bis(trifluoromethylsulfonyl)imide + 1-pentyne; phases: Liquid
Fixed: Mole fraction of 1-pentyne = 0
Fixed: Pressure, kPa = 101.325
Property: Activity coefficient of 1-pentyne (Liquid); method: Chromatography
Temperature, K	Activity coefficient of 1-pentyne	uncertainty
358.15	1.52	0.1
368.15	1.58	0.1
378.15	1.64	0.11
388.15	1.7	0.11
398.15	1.76	0.12
408.15	1.82	0.12

System: tetrabutylphosphonium bis(trifluoromethylsulfonyl)imide + 1-hexyne; phases: Liquid
Fixed: Mole fraction of 1-hexyne = 0
Fixed: Pressure, kPa = 101.325
Property: Activity coefficient of 1-hexyne (Liquid); method: Chromatography
Temperature, K	Activity coefficient of 1-hexyne	uncertainty
358.15	1.88	0.13
368.15	1.94	0.13
378.15	2	0.14
388.15	2.06	0.14
398.15	2.11	0.14
408.15	2.17	0.15

System: tetrabutylphosphonium bis(trifluoromethylsulfonyl)imide + 1-heptyne; phases: Liquid
Fixed: Mole fraction of 1-heptyne = 0
Fixed: Pressure, kPa = 101.325
Property: Activity coefficient of 1-heptyne (Liquid); method: Chromatography
Temperature, K	Activity coefficient of 1-heptyne	uncertainty
358.15	2.28	0.16
368.15	2.35	0.16
378.15	2.42	0.16
388.15	2.48	0.17
398.15	2.55	0.17
408.15	2.62	0.18

System: tetrabutylphosphonium bis(trifluoromethylsulfonyl)imide + 1-octyne; phases: Liquid
Fixed: Mole fraction of 1-octyne = 0
Fixed: Pressure, kPa = 101.325
Property: Activity coefficient of 1-octyne (Liquid); method: Chromatography
Temperature, K	Activity coefficient of 1-octyne	uncertainty
358.15	2.79	0.19
368.15	2.87	0.2
378.15	2.93	0.2
388.15	3	0.2
398.15	3.07	0.21
408.15	3.13	0.21

System: tetrabutylphosphonium bis(trifluoromethylsulfonyl)imide + benzene; phases: Liquid
Fixed: Mole fraction of benzene = 0
Fixed: Pressure, kPa = 101.325
Property: Activity coefficient of benzene (Liquid); method: Chromatography
Temperature, K	Activity coefficient of benzene	uncertainty
358.15	0.836	0.054
368.15	0.869	0.056
378.15	0.901	0.057
388.15	0.933	0.059
398.15	0.963	0.061
408.15	0.994	0.062

System: tetrabutylphosphonium bis(trifluoromethylsulfonyl)imide + toluene; phases: Liquid
Fixed: Mole fraction of toluene = 0
Fixed: Pressure, kPa = 101.325
Property: Activity coefficient of toluene (Liquid); method: Chromatography
Temperature, K	Activity coefficient of toluene	uncertainty
358.15	1.11	0.07
368.15	1.16	0.07
378.15	1.2	0.08
388.15	1.24	0.08
398.15	1.28	0.08
408.15	1.32	0.09

System: tetrabutylphosphonium bis(trifluoromethylsulfonyl)imide + ethylbenzene; phases: Liquid
Fixed: Mole fraction of ethylbenzene = 0
Fixed: Pressure, kPa = 101.325
Property: Activity coefficient of ethylbenzene (Liquid); method: Chromatography
Temperature, K	Activity coefficient of ethylbenzene	uncertainty
358.15	1.49	0.1
368.15	1.54	0.1
378.15	1.58	0.1
388.15	1.63	0.11
398.15	1.67	0.11
408.15	1.71	0.11

System: tetrabutylphosphonium bis(trifluoromethylsulfonyl)imide + 1,2-dimethylbenzene; phases: Liquid
Fixed: Mole fraction of 1,2-dimethylbenzene = 0
Fixed: Pressure, kPa = 101.325
Property: Activity coefficient of 1,2-dimethylbenzene (Liquid); method: Chromatography
Temperature, K	Activity coefficient of 1,2-dimethylbenzene	uncertainty
358.15	1.39	0.09
368.15	1.43	0.09
378.15	1.48	0.1
388.15	1.52	0.1
398.15	1.57	0.1
408.15	1.61	0.11

System: tetrabutylphosphonium bis(trifluoromethylsulfonyl)imide + 1,3-dimethylbenzene; phases: Liquid
Fixed: Mole fraction of 1,3-dimethylbenzene = 0
Fixed: Pressure, kPa = 101.325
Property: Activity coefficient of 1,3-dimethylbenzene (Liquid); method: Chromatography
Temperature, K	Activity coefficient of 1,3-dimethylbenzene	uncertainty
358.15	1.53	0.1
368.15	1.58	0.1
378.15	1.63	0.11
388.15	1.68	0.11
398.15	1.72	0.12
408.15	1.77	0.12

System: tetrabutylphosphonium bis(trifluoromethylsulfonyl)imide + 1,4-dimethylbenzene; phases: Liquid
Fixed: Mole fraction of 1,4-dimethylbenzene = 0
Fixed: Pressure, kPa = 101.325
Property: Activity coefficient of 1,4-dimethylbenzene (Liquid); method: Chromatography
Temperature, K	Activity coefficient of 1,4-dimethylbenzene	uncertainty
358.15	1.55	0.1
368.15	1.6	0.11
378.15	1.64	0.11
388.15	1.69	0.11
398.15	1.74	0.12
408.15	1.79	0.12

System: tetrabutylphosphonium bis(trifluoromethylsulfonyl)imide + propylbenzene; phases: Liquid
Fixed: Mole fraction of propylbenzene = 0
Fixed: Pressure, kPa = 101.325
Property: Activity coefficient of propylbenzene (Liquid); method: Chromatography
Temperature, K	Activity coefficient of propylbenzene	uncertainty
358.15	1.88	0.13
368.15	1.93	0.13
378.15	1.98	0.13
388.15	2.03	0.14
398.15	2.07	0.14
408.15	2.12	0.14

System: tetrabutylphosphonium bis(trifluoromethylsulfonyl)imide + isopropylbenzene; phases: Liquid
Fixed: Mole fraction of isopropylbenzene = 0
Fixed: Pressure, kPa = 101.325
Property: Activity coefficient of isopropylbenzene (Liquid); method: Chromatography
Temperature, K	Activity coefficient of isopropylbenzene	uncertainty
358.15	1.92	0.13
368.15	1.97	0.13
378.15	2.02	0.14
388.15	2.07	0.14
398.15	2.12	0.14
408.15	2.17	0.15

System: tetrabutylphosphonium bis(trifluoromethylsulfonyl)imide + styrene; phases: Liquid
Fixed: Mole fraction of styrene = 0
Fixed: Pressure, kPa = 101.325
Property: Activity coefficient of styrene (Liquid); method: Chromatography
Temperature, K	Activity coefficient of styrene	uncertainty
358.15	1.01	0.06
368.15	1.05	0.07
378.15	1.1	0.07
388.15	1.14	0.07
398.15	1.18	0.08
408.15	1.23	0.08

System: tetrabutylphosphonium bis(trifluoromethylsulfonyl)imide + (1-methylethenyl)benzene; phases: Liquid
Fixed: Mole fraction of (1-methylethenyl)benzene = 0
Fixed: Pressure, kPa = 101.325
Property: Activity coefficient of (1-methylethenyl)benzene (Liquid); method: Chromatography
Temperature, K	Activity coefficient of (1-methylethenyl)benzene	uncertainty
358.15	1.4	0.09
368.15	1.46	0.1
378.15	1.52	0.1
388.15	1.58	0.1
398.15	1.64	0.11
408.15	1.7	0.11

System: tetrabutylphosphonium bis(trifluoromethylsulfonyl)imide + thiophene; phases: Liquid
Fixed: Mole fraction of thiophene = 0
Fixed: Pressure, kPa = 101.325
Property: Activity coefficient of thiophene (Liquid); method: Chromatography
Temperature, K	Activity coefficient of thiophene	uncertainty
358.15	0.782	0.051
368.15	0.812	0.053
378.15	0.842	0.054
388.15	0.872	0.056
398.15	0.9	0.057
408.15	0.929	0.059

System: tetrabutylphosphonium bis(trifluoromethylsulfonyl)imide + methanol; phases: Liquid
Fixed: Mole fraction of methanol = 0
Fixed: Pressure, kPa = 101.325
Property: Activity coefficient of methanol (Liquid); method: Chromatography
Temperature, K	Activity coefficient of methanol	uncertainty
358.15	1.28	0.08
368.15	1.23	0.08
378.15	1.18	0.08
388.15	1.14	0.07
398.15	1.1	0.07
408.15	1.06	0.07

System: tetrabutylphosphonium bis(trifluoromethylsulfonyl)imide + ethanol; phases: Liquid
Fixed: Mole fraction of ethanol = 0
Fixed: Pressure, kPa = 101.325
Property: Activity coefficient of ethanol (Liquid); method: Chromatography
Temperature, K	Activity coefficient of ethanol	uncertainty
358.15	1.42	0.09
368.15	1.36	0.09
378.15	1.31	0.09
388.15	1.26	0.08
398.15	1.22	0.08
408.15	1.18	0.08

System: tetrabutylphosphonium bis(trifluoromethylsulfonyl)imide + propan-1-ol; phases: Liquid
Fixed: Mole fraction of propan-1-ol = 0
Fixed: Pressure, kPa = 101.325
Property: Activity coefficient of propan-1-ol (Liquid); method: Chromatography
Temperature, K	Activity coefficient of propan-1-ol	uncertainty
358.15	1.53	0.1
368.15	1.47	0.1
378.15	1.42	0.09
388.15	1.37	0.09
398.15	1.32	0.09
408.15	1.28	0.08

System: tetrabutylphosphonium bis(trifluoromethylsulfonyl)imide + propan-2-ol; phases: Liquid
Fixed: Mole fraction of propan-2-ol = 0
Fixed: Pressure, kPa = 101.325
Property: Activity coefficient of propan-2-ol (Liquid); method: Chromatography
Temperature, K	Activity coefficient of propan-2-ol	uncertainty
358.15	1.47	0.1
368.15	1.42	0.09
378.15	1.37	0.09
388.15	1.33	0.09
398.15	1.29	0.08
408.15	1.26	0.08

System: tetrabutylphosphonium bis(trifluoromethylsulfonyl)imide + butan-1-ol; phases: Liquid
Fixed: Mole fraction of butan-1-ol = 0
Fixed: Pressure, kPa = 101.325
Property: Activity coefficient of butan-1-ol (Liquid); method: Chromatography
Temperature, K	Activity coefficient of butan-1-ol	uncertainty
358.15	1.67	0.11
368.15	1.61	0.11
378.15	1.56	0.1
388.15	1.51	0.1
398.15	1.46	0.1
408.15	1.42	0.09

System: tetrabutylphosphonium bis(trifluoromethylsulfonyl)imide + butan-2-ol; phases: Liquid
Fixed: Mole fraction of butan-2-ol = 0
Fixed: Pressure, kPa = 101.325
Property: Activity coefficient of butan-2-ol (Liquid); method: Chromatography
Temperature, K	Activity coefficient of butan-2-ol	uncertainty
358.15	1.53	0.1
368.15	1.49	0.1
378.15	1.46	0.1
388.15	1.43	0.09
398.15	1.4	0.09
408.15	1.37	0.09

System: tetrabutylphosphonium bis(trifluoromethylsulfonyl)imide + 2-methyl-1-propanol; phases: Liquid
Fixed: Mole fraction of 2-methyl-1-propanol = 0
Fixed: Pressure, kPa = 101.325
Property: Activity coefficient of 2-methyl-1-propanol (Liquid); method: Chromatography
Temperature, K	Activity coefficient of 2-methyl-1-propanol	uncertainty
358.15	1.57	0.1
368.15	1.52	0.1
378.15	1.46	0.1
388.15	1.41	0.09
398.15	1.37	0.09
408.15	1.33	0.09

System: tetrabutylphosphonium bis(trifluoromethylsulfonyl)imide + 2-methylpropan-2-ol; phases: Liquid
Fixed: Mole fraction of 2-methylpropan-2-ol = 0
Fixed: Pressure, kPa = 101.325
Property: Activity coefficient of 2-methylpropan-2-ol (Liquid); method: Chromatography
Temperature, K	Activity coefficient of 2-methylpropan-2-ol	uncertainty
358.15	1.41	0.09
368.15	1.4	0.09
378.15	1.38	0.09
388.15	1.37	0.09
398.15	1.36	0.09
408.15	1.35	0.09

System: tetrabutylphosphonium bis(trifluoromethylsulfonyl)imide + pentan-1-ol; phases: Liquid
Fixed: Mole fraction of pentan-1-ol = 0
Fixed: Pressure, kPa = 101.325
Property: Activity coefficient of pentan-1-ol (Liquid); method: Chromatography
Temperature, K	Activity coefficient of pentan-1-ol	uncertainty
358.15	1.81	0.12
368.15	1.76	0.12
378.15	1.71	0.11
388.15	1.67	0.11
398.15	1.63	0.11
408.15	1.59	0.11

System: tetrabutylphosphonium bis(trifluoromethylsulfonyl)imide + water; phases: Liquid
Fixed: Mole fraction of water = 0
Fixed: Pressure, kPa = 101.325
Property: Activity coefficient of water (Liquid); method: Chromatography
Temperature, K	Activity coefficient of water	uncertainty
358.15	4.2	0.29
368.15	3.85	0.26
378.15	3.53	0.24
388.15	3.26	0.22
398.15	3.02	0.21
408.15	2.81	0.19

System: tetrabutylphosphonium bis(trifluoromethylsulfonyl)imide + methyl ethanoate; phases: Liquid
Fixed: Mole fraction of methyl ethanoate = 0
Fixed: Pressure, kPa = 101.325
Property: Activity coefficient of methyl ethanoate (Liquid); method: Chromatography
Temperature, K	Activity coefficient of methyl ethanoate	uncertainty
358.15	0.753	0.05
368.15	0.785	0.051
378.15	0.816	0.053
388.15	0.847	0.054
398.15	0.878	0.056
408.15	0.909	0.058

System: tetrabutylphosphonium bis(trifluoromethylsulfonyl)imide + methyl propanoate; phases: Liquid
Fixed: Mole fraction of methyl propanoate = 0
Fixed: Pressure, kPa = 101.325
Property: Activity coefficient of methyl propanoate (Liquid); method: Chromatography
Temperature, K	Activity coefficient of methyl propanoate	uncertainty
358.15	0.82	0.053
368.15	0.857	0.055
378.15	0.894	0.057
388.15	0.931	0.059
398.15	0.967	0.061
408.15	1	0.06

System: tetrabutylphosphonium bis(trifluoromethylsulfonyl)imide + methyl butanoate; phases: Liquid
Fixed: Mole fraction of methyl butanoate = 0
Fixed: Pressure, kPa = 101.325
Property: Activity coefficient of methyl butanoate (Liquid); method: Chromatography
Temperature, K	Activity coefficient of methyl butanoate	uncertainty
358.15	0.946	0.06
368.15	0.989	0.062
378.15	1.03	0.06
388.15	1.08	0.07
398.15	1.12	0.07
408.15	1.17	0.07

System: tetrabutylphosphonium bis(trifluoromethylsulfonyl)imide + ethyl acetate; phases: Liquid
Fixed: Mole fraction of ethyl acetate = 0
Fixed: Pressure, kPa = 101.325
Property: Activity coefficient of ethyl acetate (Liquid); method: Chromatography
Temperature, K	Activity coefficient of ethyl acetate	uncertainty
358.15	0.835	0.054
368.15	0.869	0.056
378.15	0.905	0.057
388.15	0.939	0.059
398.15	0.975	0.061
408.15	1.008	0.063

System: tetrabutylphosphonium bis(trifluoromethylsulfonyl)imide + vinyl acetate; phases: Liquid
Fixed: Mole fraction of vinyl acetate = 0
Fixed: Pressure, kPa = 101.325
Property: Activity coefficient of vinyl acetate (Liquid); method: Chromatography
Temperature, K	Activity coefficient of vinyl acetate	uncertainty
358.15	0.983	0.062
368.15	1.01	0.06
378.15	1.04	0.07
388.15	1.07	0.07
398.15	1.1	0.07
408.15	1.13	0.07

System: tetrabutylphosphonium bis(trifluoromethylsulfonyl)imide + tetrahydrofuran; phases: Liquid
Fixed: Mole fraction of tetrahydrofuran = 0
Fixed: Pressure, kPa = 101.325
Property: Activity coefficient of tetrahydrofuran (Liquid); method: Chromatography
Temperature, K	Activity coefficient of tetrahydrofuran	uncertainty
358.15	0.622	0.043
368.15	0.653	0.045
378.15	0.682	0.046
388.15	0.712	0.047
398.15	0.742	0.049
408.15	0.772	0.05

System: tetrabutylphosphonium bis(trifluoromethylsulfonyl)imide + 1,4-dioxane; phases: Liquid
Fixed: Mole fraction of 1,4-dioxane = 0
Fixed: Pressure, kPa = 101.325
Property: Activity coefficient of 1,4-dioxane (Liquid); method: Chromatography
Temperature, K	Activity coefficient of 1,4-dioxane	uncertainty
358.15	0.795	0.052
368.15	0.825	0.053
378.15	0.853	0.055
388.15	0.884	0.056
398.15	0.911	0.058
408.15	0.941	0.059

System: tetrabutylphosphonium bis(trifluoromethylsulfonyl)imide + 2-methoxy-2-methylpropane; phases: Liquid
Fixed: Mole fraction of 2-methoxy-2-methylpropane = 0
Fixed: Pressure, kPa = 101.325
Property: Activity coefficient of 2-methoxy-2-methylpropane (Liquid); method: Chromatography
Temperature, K	Activity coefficient of 2-methoxy-2-methylpropane	uncertainty
358.15	1.66	0.11
368.15	1.73	0.12
378.15	1.8	0.12
388.15	1.87	0.13
398.15	1.94	0.13
408.15	2.01	0.14

System: tetrabutylphosphonium bis(trifluoromethylsulfonyl)imide + 2-ethoxy-2-methylpropane; phases: Liquid
Fixed: Mole fraction of 2-ethoxy-2-methylpropane = 0
Fixed: Pressure, kPa = 101.325
Property: Activity coefficient of 2-ethoxy-2-methylpropane (Liquid); method: Chromatography
Temperature, K	Activity coefficient of 2-ethoxy-2-methylpropane	uncertainty
358.15	2.72	0.19
368.15	2.78	0.19
378.15	2.84	0.19
388.15	2.91	0.2
398.15	2.96	0.2
408.15	3.02	0.21

System: tetrabutylphosphonium bis(trifluoromethylsulfonyl)imide + 2-methoxy-2-methylbutane; phases: Liquid
Fixed: Mole fraction of 2-methoxy-2-methylbutane = 0
Fixed: Pressure, kPa = 101.325
Property: Activity coefficient of 2-methoxy-2-methylbutane (Liquid); method: Chromatography
Temperature, K	Activity coefficient of 2-methoxy-2-methylbutane	uncertainty
358.15	2	0.14
368.15	2.07	0.14
378.15	2.13	0.14
388.15	2.2	0.15
398.15	2.26	0.15
408.15	2.32	0.16

System: tetrabutylphosphonium bis(trifluoromethylsulfonyl)imide + diethyl ether; phases: Liquid
Fixed: Mole fraction of diethyl ether = 0
Fixed: Pressure, kPa = 101.325
Property: Activity coefficient of diethyl ether (Liquid); method: Chromatography
Temperature, K	Activity coefficient of diethyl ether	uncertainty
358.15	1.65	0.11
368.15	1.7	0.11
378.15	1.76	0.12
388.15	1.8	0.12
398.15	1.86	0.13
408.15	1.91	0.13

System: tetrabutylphosphonium bis(trifluoromethylsulfonyl)imide + dipropyl ether; phases: Liquid
Fixed: Mole fraction of dipropyl ether = 0
Fixed: Pressure, kPa = 101.325
Property: Activity coefficient of dipropyl ether (Liquid); method: Chromatography
Temperature, K	Activity coefficient of dipropyl ether	uncertainty
358.15	2.73	0.19
368.15	2.78	0.19
378.15	2.83	0.19
388.15	2.88	0.2
398.15	2.93	0.2
408.15	2.98	0.2

System: tetrabutylphosphonium bis(trifluoromethylsulfonyl)imide + diisopropyl ether; phases: Liquid
Fixed: Mole fraction of diisopropyl ether = 0
Fixed: Pressure, kPa = 101.325
Property: Activity coefficient of diisopropyl ether (Liquid); method: Chromatography
Temperature, K	Activity coefficient of diisopropyl ether	uncertainty
358.15	2.88	0.2
368.15	2.94	0.2
378.15	3	0.2
388.15	3.05	0.21
398.15	3.11	0.21
408.15	3.17	0.22

System: tetrabutylphosphonium bis(trifluoromethylsulfonyl)imide + dibutyl ether; phases: Liquid
Fixed: Mole fraction of dibutyl ether = 0
Fixed: Pressure, kPa = 101.325
Property: Activity coefficient of dibutyl ether (Liquid); method: Chromatography
Temperature, K	Activity coefficient of dibutyl ether	uncertainty
358.15	4.19	0.29
368.15	4.19	0.29
378.15	4.19	0.29
388.15	4.19	0.29
398.15	4.2	0.29
408.15	4.2	0.29

System: tetrabutylphosphonium bis(trifluoromethylsulfonyl)imide + acetone; phases: Liquid
Fixed: Mole fraction of acetone = 0
Fixed: Pressure, kPa = 101.325
Property: Activity coefficient of acetone (Liquid); method: Chromatography
Temperature, K	Activity coefficient of acetone	uncertainty
358.15	0.503	0.038
368.15	0.524	0.039
378.15	0.545	0.04
388.15	0.567	0.041
398.15	0.587	0.042
408.15	0.607	0.042

System: tetrabutylphosphonium bis(trifluoromethylsulfonyl)imide + pentan-2-one; phases: Liquid
Fixed: Mole fraction of pentan-2-one = 0
Fixed: Pressure, kPa = 101.325
Property: Activity coefficient of pentan-2-one (Liquid); method: Chromatography
Temperature, K	Activity coefficient of pentan-2-one	uncertainty
358.15	0.62	0.043
368.15	0.651	0.045
378.15	0.682	0.046
388.15	0.714	0.048
398.15	0.744	0.049
408.15	0.774	0.051

System: tetrabutylphosphonium bis(trifluoromethylsulfonyl)imide + pentan-3-one; phases: Liquid
Fixed: Mole fraction of pentan-3-one = 0
Fixed: Pressure, kPa = 101.325
Property: Activity coefficient of pentan-3-one (Liquid); method: Chromatography
Temperature, K	Activity coefficient of pentan-3-one	uncertainty
358.15	0.629	0.043
368.15	0.66	0.045
378.15	0.69	0.05
388.15	0.721	0.048
398.15	0.75	0.049
408.15	0.781	0.051

System: tetrabutylphosphonium bis(trifluoromethylsulfonyl)imide + butanal; phases: Liquid
Fixed: Mole fraction of butanal = 0
Fixed: Pressure, kPa = 101.325
Property: Activity coefficient of butanal (Liquid); method: Chromatography
Temperature, K	Activity coefficient of butanal	uncertainty
358.15	0.669	0.045
368.15	0.699	0.047
378.15	0.729	0.048
388.15	0.758	0.05
398.15	0.787	0.051
408.15	0.817	0.053

System: tetrabutylphosphonium bis(trifluoromethylsulfonyl)imide + acetonitrile; phases: Liquid
Fixed: Mole fraction of acetonitrile = 0
Fixed: Pressure, kPa = 101.325
Property: Activity coefficient of acetonitrile (Liquid); method: Chromatography
Temperature, K	Activity coefficient of acetonitrile	uncertainty
358.15	0.602	0.042
368.15	0.613	0.043
378.15	0.625	0.043
388.15	0.635	0.044
398.15	0.645	0.044
408.15	0.655	0.045

System: tetrabutylphosphonium bis(trifluoromethylsulfonyl)imide + 1-nitropropane; phases: Liquid
Fixed: Mole fraction of 1-nitropropane = 0
Fixed: Pressure, kPa = 101.325
Property: Activity coefficient of 1-nitropropane (Liquid); method: Chromatography
Temperature, K	Activity coefficient of 1-nitropropane	uncertainty
358.15	0.693	0.047
368.15	0.708	0.047
378.15	0.724	0.048
388.15	0.739	0.049
398.15	0.754	0.05
408.15	0.768	0.05
