Measured thermophysical data. Phase equilibria properties of binary and ternary systems containing di-isopropyl ether + isobutanol + benzene at 313.15K
Source: Fluid Phase Equilib., 2006, 10.1016/j.fluid.2005.11.017
Compound 1: diisopropyl ether, C6H14O, InChI=1S/C6H14O/c1-5(2)7-6(3)4/h5-6H,1-4H3
Compound 2: benzene, C6H6, InChI=1S/C6H6/c1-2-4-6-5-3-1/h1-6H
Compound 3: 2-methyl-1-propanol, C4H10O, InChI=1S/C4H10O/c1-4(2)3-5/h4-5H,3H2,1-2H3

System: diisopropyl ether; phases: Liquid, Gas
Fixed: Temperature, K = 313.15
Property: Vapor or sublimation pressure, kPa (Liquid); method: CCELL:UFactor:2
Vapor or sublimation pressure, kPa	uncertainty
37.111	0.266
37.093	0.266
37.137	0.266

System: benzene; phases: Liquid, Gas
Fixed: Temperature, K = 313.15
Property: Vapor or sublimation pressure, kPa (Liquid); method: CCELL:UFactor:2
Vapor or sublimation pressure, kPa	uncertainty
24.38	0.185
24.381	0.185
24.365	0.185

System: 2-methyl-1-propanol; phases: Liquid, Gas
Fixed: Temperature, K = 313.15
Property: Vapor or sublimation pressure, kPa (Liquid); method: CCELL:UFactor:2
Vapor or sublimation pressure, kPa	uncertainty
3.999	0.056
3.996	0.056
4.015	0.056
4.016	0.056

System: 2-methyl-1-propanol + diisopropyl ether; phases: Liquid, Gas
Fixed: Temperature, K = 313.15
Property: Vapor or sublimation pressure, kPa (Liquid); method: CCELL:UFactor:2
Mole fraction of diisopropyl ether	Vapor or sublimation pressure, kPa	uncertainty
0	3.999	0.056
0.0582	8.047	0.082
0.1047	10.983	0.1
0.1562	13.887	0.119
0.2026	16.204	0.133
0.2497	18.305	0.147
0.3012	20.327	0.16
0.3027	20.388	0.16
0.3486	21.985	0.17
0.3998	23.592	0.18
0.4041	23.737	0.181
0.4445	24.849	0.188
0.4511	25.059	0.19
0.4993	26.265	0.197
0.5013	26.341	0.198
0.5492	27.449	0.205
0.5516	27.518	0.205
0.5998	28.563	0.212
0.6037	28.65	0.212
0.6484	29.567	0.218
0.687	30.321	0.223
0.7004	30.592	0.225
0.7506	31.587	0.231
0.8008	32.584	0.237
0.8502	33.592	0.244
0.9006	34.682	0.251
0.9505	35.849	0.258
1	37.111	0.266

System: benzene + 2-methyl-1-propanol; phases: Liquid, Gas
Fixed: Temperature, K = 313.15
Property: Vapor or sublimation pressure, kPa (Liquid); method: CCELL:UFactor:2
Mole fraction of benzene	Vapor or sublimation pressure, kPa	uncertainty
0	3.996	0.056
0.0584	8.181	0.082
0.0982	10.54	0.097
0.15	13.099	0.114
0.2072	15.356	0.128
0.2539	16.881	0.138
0.2995	18.06	0.145
0.3496	19.157	0.152
0.3991	20.053	0.158
0.3996	20.077	0.158
0.4488	20.808	0.163
0.4495	20.827	0.163
0.4994	21.458	0.167
0.4995	21.452	0.167
0.5492	21.99	0.17
0.5495	22.001	0.17
0.599	22.465	0.173
0.6013	22.476	0.173
0.6488	22.879	0.176
0.6995	23.248	0.178
0.7491	23.57	0.18
0.8001	23.875	0.182
0.8553	24.145	0.184
0.899	24.341	0.185
0.9518	24.518	0.186
1	24.38	0.185

System: benzene + 2-methyl-1-propanol; phases: Liquid, Gas
Fixed: Temperature, K = 313.15
Property: Vapor or sublimation pressure, kPa (Liquid); method: CCELL::UFactor:2
Mole fraction of 2-methyl-1-propanol	Vapor or sublimation pressure, kPa	uncertainty
0.3009	23.226	0.178
0.6935	18.247	0.146

System: benzene + diisopropyl ether; phases: Liquid, Gas
Fixed: Temperature, K = 313.15
Property: Vapor or sublimation pressure, kPa (Liquid); method: CCELL::UFactor:2
Mole fraction of diisopropyl ether	Vapor or sublimation pressure, kPa	uncertainty
0.3015	29.498	0.218
0.7004	34.207	0.248

System: benzene + 2-methyl-1-propanol + diisopropyl ether; phases: Liquid, Gas
Fixed: Temperature, K = 313.15
Property: Vapor or sublimation pressure, kPa (Liquid); method: CCELL:UFactor:2
Mole fraction of diisopropyl ether	Mole fraction of 2-methyl-1-propanol	Vapor or sublimation pressure, kPa	uncertainty
0	0	24.381	0.185
0	0.3009	23.226	0.178
0	0.6935	18.247	0.146
0	1	4.015	0.056
0.0001	0	24.365	0.185
0.0001	1	4.016	0.056
0.0296	0.292	23.639	0.181
0.0317	0.6715	18.873	0.15
0.0517	0.2853	23.955	0.183
0.0585	0.6529	19.427	0.154
0.1013	0.2704	24.655	0.187
0.1051	0.6205	20.423	0.16
0.1506	0.5005	22.807	0.175
0.1518	0.349	24.58	0.187
0.1546	0.2543	25.42	0.192
0.1546	0.5862	21.495	0.167
0.1658	0.4504	23.61	0.18
0.167	0.3841	24.393	0.185
0.1807	0.4009	24.337	0.185
0.1811	0.4164	24.194	0.184
0.1959	0.3504	25.012	0.189
0.1959	0.4506	23.942	0.183
0.2026	0.5528	22.526	0.174
0.2029	0.2398	26.106	0.196
0.2109	0.3007	25.654	0.193
0.2124	0.4886	23.597	0.18
0.2261	0.2501	26.273	0.197
0.2276	0.5238	23.231	0.178
0.2409	0.5545	22.861	0.176
0.2447	0.1884	27.005	0.202
0.2504	0.2255	26.779	0.201
0.2514	0.5189	23.544	0.18
0.2553	0.5876	22.398	0.173
0.2565	0.1495	27.472	0.205
0.2714	0.1	28.084	0.209
0.2728	0.6281	21.748	0.169
0.2855	0.6576	21.206	0.165
0.2865	0.0498	28.77	0.213
0.2924	0.6735	20.886	0.163
0.2941	0.0246	29.15	0.216
0.3007	0.2103	27.482	0.205
0.3015	0	29.498	0.218
0.3023	0.4836	24.579	0.187
0.3027	0.6973	20.388	0.16
0.344	0.1566	28.42	0.211
0.3499	0.5005	24.787	0.188
0.35	0.4505	25.511	0.192
0.3511	0.1952	28.178	0.209
0.3781	0.1721	28.653	0.212
0.3847	0.4508	25.836	0.195
0.4003	0.4156	26.461	0.199
0.4007	0.1802	28.861	0.214
0.4128	0.1879	28.886	0.214
0.4199	0.4006	26.818	0.201
0.4458	0.203	29.092	0.215
0.4509	0.1651	29.547	0.218
0.4516	0.3801	27.391	0.204
0.4553	0.35	27.747	0.207
0.4812	0.2191	29.304	0.217
0.4899	0.3006	28.613	0.212
0.5001	0.3464	28.238	0.21
0.5013	0.1499	30.235	0.222
0.5163	0.2351	29.501	0.218
0.5252	0.2502	29.48	0.218
0.5513	0.2511	29.684	0.219
0.561	0.199	30.352	0.223
0.585	0.2664	29.859	0.22
0.5959	0.1492	31.217	0.229
0.6192	0.2821	30.029	0.221
0.6251	0.1075	31.989	0.234
0.6476	0.0754	32.601	0.238
0.6534	0.2976	30.191	0.222
0.6699	0.3052	30.242	0.223
0.6815	0.0271	33.605	0.244
0.687	0.313	30.321	0.223
0.7004	0	34.207	0.248
1	0	37.093	0.266
1	0	37.137	0.266
