Measured thermophysical data. Experimental isobaric vapor-liquid equilibrium for the ternary system of sec-butyl alcohol + sec-butyl acetate + dimethyl sulfoxide at 101.3 kPa
Source: Fluid Phase Equilib., 2015, 10.1016/j.fluid.2015.07.029
Compound 1: butan-2-ol, C4H10O, InChI=1S/C4H10O/c1-3-4(2)5/h4-5H,3H2,1-2H3, purity 99.9%
Compound 2: 1-methylpropyl ethanoate, C6H12O2, InChI=1S/C6H12O2/c1-4-5(2)8-6(3)7/h5H,4H2,1-3H3, purity 99.7%
Compound 3: dimethyl sulfoxide, C2H6OS, InChI=1S/C2H6OS/c1-4(2)3/h1-2H3, purity 99.8%

System: dimethyl sulfoxide + butan-2-ol; phases: Liquid, Gas
Fixed: Pressure, kPa = 101.3
Property: Boiling temperature at pressure P, K (Liquid); method: Ebulliometric method (Recirculating still)
Mole fraction of butan-2-ol	Boiling temperature at pressure P, K	uncertainty
1	372.9	0.13
0.971	373.5	0.25
0.904	375.45	0.29
0.815	378.5	0.35
0.72	383	0.4
0.605	388.45	0.45
0.513	394.2	0.53
0.436	399.3	0.56
0.365	404.25	0.63
0.288	410.65	0.72
0.246	414.8	0.87
0.197	420.4	1.02
0.164	425.25	1.23
0.137	429.55	1.36
0.106	435.05	1.58
0.078	441.2	1.8
0.062	444.95	1.83
0.04	449.9	2.09
0.017	456.65	2.45
0.012	458.55	2.76
0.007	460.1	2.42
0	464	0.13

System: dimethyl sulfoxide + butan-2-ol; phases: Gas, Liquid
Fixed: Pressure, kPa = 101.3
Property: Mole fraction of butan-2-ol (Gas); method: Chromatography
Mole fraction of butan-2-ol	Mole fraction of butan-2-ol	uncertainty
1	1	
0.971	0.999	0.001
0.904	0.996	0.004
0.815	0.991	0.009
0.72	0.983	0.017
0.605	0.966	0.034
0.513	0.946	0.04
0.436	0.923	0.04
0.365	0.894	0.04
0.288	0.851	0.04
0.246	0.816	0.041
0.197	0.762	0.041
0.164	0.711	0.042
0.137	0.659	0.044
0.106	0.581	0.046
0.078	0.49	0.049
0.062	0.422	0.056
0.04	0.305	0.063
0.017	0.149	0.07
0.012	0.108	0.072
0.007	0.065	0.065
0	0	

System: dimethyl sulfoxide + 1-methylpropyl ethanoate; phases: Liquid, Gas
Fixed: Pressure, kPa = 101.3
Property: Boiling temperature at pressure P, K (Liquid); method: Ebulliometric method (Recirculating still)
Mole fraction of 1-methylpropyl ethanoate	Boiling temperature at pressure P, K	uncertainty
1	383.15	0.13
0.968	385.2	0.32
0.922	386.1	0.22
0.864	387.5	0.23
0.797	389.1	0.21
0.714	390.55	0.19
0.682	391.15	0.23
0.65	392.1	0.19
0.581	392.95	0.18
0.559	393.65	0.19
0.527	393.9	0.21
0.475	395.35	0.24
0.372	397.85	0.24
0.336	399.05	0.29
0.328	399.35	0.29
0.288	400.55	0.33
0.27	401.65	0.46
0.248	402.75	0.44
0.238	403.35	0.52
0.202	405.65	0.69
0.152	410.6	1.2
0.083	423.1	2.33
0.072	426.3	3.14
0.036	441.2	3.45
0.026	446.4	4.24
0.019	450.05	4.42
0.012	453.9	5.39
0.008	456.75	4.87
0	464	0.13

System: dimethyl sulfoxide + 1-methylpropyl ethanoate; phases: Gas, Liquid
Fixed: Pressure, kPa = 101.3
Property: Mole fraction of 1-methylpropyl ethanoate (Gas); method: Chromatography
Mole fraction of 1-methylpropyl ethanoate	Mole fraction of 1-methylpropyl ethanoate	uncertainty
1	1	
0.968	0.993	0.007
0.922	0.985	0.008
0.864	0.976	0.008
0.797	0.963	0.008
0.714	0.951	0.008
0.682	0.945	0.008
0.65	0.941	0.008
0.581	0.931	0.008
0.559	0.928	0.008
0.527	0.921	0.008
0.475	0.912	0.008
0.372	0.901	0.008
0.336	0.892	0.008
0.328	0.89	0.008
0.288	0.881	0.008
0.27	0.876	0.009
0.248	0.866	0.009
0.238	0.862	0.009
0.202	0.845	0.009
0.152	0.815	0.013
0.083	0.701	0.028
0.072	0.664	0.042
0.036	0.466	0.049
0.026	0.376	0.087
0.019	0.298	0.09
0.012	0.207	0.115
0.008	0.148	0.109
0	0	

System: dimethyl sulfoxide + butan-2-ol + 1-methylpropyl ethanoate; phases: Liquid, Gas
Fixed: Pressure, kPa = 101.3
Property: Mole fraction of 1-methylpropyl ethanoate (Liquid); method: Chromatography
Property: Mole fraction of 1-methylpropyl ethanoate (Gas); method: Chromatography
Property: Mole fraction of butan-2-ol (Gas); method: Chromatography
Temperature, K	Mole fraction of butan-2-ol	Mole fraction of 1-methylpropyl ethanoate	uncertainty	Mole fraction of 1-methylpropyl ethanoate	uncertainty	Mole fraction of butan-2-ol	uncertainty
402.16	0.364	0.023	0.001	0.068	0.001	0.845	
402.81	0.143	0.206	0.002	0.627	0.004	0.261	
402.51	0.113	0.229	0.002	0.698	0.003	0.194	
401.95	0.082	0.254	0.002	0.757	0.002	0.118	
400.66	0.048	0.291	0.002	0.833	0.002	0.06	
402.96	0.341	0.035	0.001	0.108	0.001	0.795	
402.7	0.338	0.06	0.001	0.166	0.002	0.743	
403.16	0.295	0.074	0.001	0.226	0.002	0.675	
403.31	0.27	0.095	0.001	0.29	0.003	0.608	
403.3	0.239	0.122	0.001	0.377	0.004	0.519	
402.55	0.223	0.147	0.001	0.439	0.004	0.458	
403.33	0.187	0.164	0.002	0.514	0.005	0.375	
402.83	0.163	0.189	0.002	0.576	0.004	0.311	
