Measured thermophysical data. Solid liquid phase equilibria in the systems K2SO4 MSO4 H2O (M= Co, Ni, Cu) from ambient to enhanced temperatures
Source: Fluid Phase Equilib., 2010, 10.1016/j.fluid.2009.12.027
Compound 1: potassium sulfate, K2O4S, InChI=1S/2K.H2O4S/c;;1-5(2,3)4/h;;(H2,1,2,3,4)/q2*+1;/p-2
Compound 2: cobalt(II) sulfate, CoO4S, InChI=1S/Co.H2O4S/c;1-5(2,3)4/h;(H2,1,2,3,4)/q+2;/p-2
Compound 3: nickel monosulfate, NiO4S, InChI=1S/Ni.H2O4S/c;1-5(2,3)4/h;(H2,1,2,3,4)/q+2;/p-2
Compound 4: copper sulfate, CuO4S, InChI=1S/Cu.H2O4S/c;1-5(2,3)4/h;(H2,1,2,3,4)/q+2;/p-2
Compound 5: water, H2O, InChI=1S/H2O/h1H2, purity 99.8%

System: water + potassium sulfate + cobalt(II) sulfate; phases: Liquid, Crystal
Fixed: Temperature, K = 313
Fixed: Pressure, kPa = 98
Property: Molality, mol/kg of cobalt(II) sulfate (Liquid); method: Titration
Solvent: Molality, mol/kg of potassium sulfate	Molality, mol/kg of cobalt(II) sulfate	uncertainty
0	2.99	0.0601
0.0991	3.02	0.0607
0.1984	3.061	0.0616
0.2976	3.105	0.063
0.3016	3.101	0.0629
0.3484	2.732	0.113
0.3861	2.224	0.1183
0.4159	2.016	0.0819
0.498	1.496	0.0891
0.5193	1.283	0.0898
0.5623	1.023	0.0532
0.668	0.767	0.046
0.724	0.6294	0.0532
0.7706	0.5264	0.0357
0.815	0.447	0.0281
0.8607	0.4263	5.7855
0.9131	0.4	0.2312
0.8911	0.1433	0.14
0.8621	0	5.1156

System: water + potassium sulfate + cobalt(II) sulfate; phases: Liquid, Crystal
Fixed: Pressure, kPa = 98
Fixed: Temperature, K = 313
Property: Molality, mol/kg of potassium sulfate (Liquid); method: Gravimetric Method
Solvent: Molality, mol/kg of cobalt(II) sulfate	Molality, mol/kg of potassium sulfate	uncertainty
2.99	0	0.2114
3.02	0.0991	0.1664
3.061	0.1984	0.1401
3.105	0.2976	0.0626
3.101	0.3016	0.0607
2.732	0.3484	0.0278
2.224	0.3861	0.0124
2.016	0.4159	0.0142
1.496	0.498	0.0156
1.283	0.5193	0.0158
1.023	0.5623	0.0174
0.767	0.668	0.0207
0.6294	0.724	0.0221
0.5264	0.7706	0.0235
0.447	0.815	0.0251
0.4263	0.8607	0.0286
0.4	0.9131	0.0301
0.1433	0.8911	0.0268
0	0.8621	0.0259

System: water + potassium sulfate + nickel monosulfate; phases: Liquid, Crystal
Fixed: Pressure, kPa = 98
Fixed: Temperature, K = 313
Property: Molality, mol/kg of nickel monosulfate (Liquid); method: Gravimetric Method
Solvent: Molality, mol/kg of potassium sulfate	Molality, mol/kg of nickel monosulfate	uncertainty
0	3.092	0.093
0.0352	3.112	0.094
0.0995	3.183	0.096
0.1068	3.174	0.132
0.1234	2.545	0.127
0.1461	2.058	0.117
0.165	1.512	0.113
0.1883	1.015	0.07
0.2302	0.587	0.0781
0.2398	0.4465	0.0802
0.2867	0.2724	0.0148
0.3721	0.1688	0.0105
0.4268	0.1168	0.0061
0.5249	0.08338	0.00403
0.6002	0.07026	0.00285
0.7539	0.0501	0.00178
0.7901	0.04812	0.00558
0.8437	0.04492	0.02247
0.8515	0.0463	0.01851
0.8341	0.02689	0.03607
0.8619	0.0289	0.0328
0.8621	0	0.0734

System: water + potassium sulfate + nickel monosulfate; phases: Liquid, Crystal
Fixed: Pressure, kPa = 98
Fixed: Temperature, K = 313
Property: Molality, mol/kg of potassium sulfate (Liquid); method: Gravimetric Method
Solvent: Molality, mol/kg of nickel monosulfate	Molality, mol/kg of potassium sulfate	uncertainty
3.092	0	0.169
3.112	0.0352	0.1191
3.183	0.0995	0.0779
3.174	0.1068	0.0779
2.545	0.1234	0.0109
2.058	0.1461	0.0049
1.512	0.165	0.0052
1.015	0.1883	0.0059
0.587	0.2302	0.007
0.4465	0.2398	0.0074
0.2724	0.2867	0.009
0.1688	0.3721	0.0116
0.1168	0.4268	0.0136
0.08338	0.5249	0.0171
0.07026	0.6002	0.0211
0.0501	0.7539	0.0249
0.04812	0.7901	0.0241
0.04492	0.8437	0.0257
0.0463	0.8515	0.0265
0.02689	0.8341	0.0251
0.0289	0.8619	0.0259
0	0.8621	0.0259

System: water + copper sulfate + potassium sulfate; phases: Liquid, Crystal
Fixed: Pressure, kPa = 98
Fixed: Temperature, K = 313
Property: Molality, mol/kg of potassium sulfate (Liquid); method: Gravimetric Method
Solvent: Molality, mol/kg of copper sulfate	Molality, mol/kg of potassium sulfate	uncertainty
1.828	0	0.8137
1.851	0.0933	0.1802
1.913	0.1961	0.0187
1.845	0.2059	0.1149
1.982	0.2991	0.0091
1.971	0.3303	0.0202
1.988	0.3403	0.0465
1.832	0.3538	0.0185
1.61	0.3739	0.0114
1.27	0.4162	0.0125
1.016	0.4611	0.0139
0.6647	0.539	0.0162
0.4654	0.6188	0.0188
0.3097	0.7463	0.0227
0.2726	0.8077	0.0246
0.2492	0.8378	0.0253
0.1968	0.886	0.0269
0.1937	0.889	0.0271
0.1878	0.877	0.027
0.09298	0.8745	0.0263
0.07411	0.8628	0.026
0	0.8621	0.0259

System: water + copper sulfate + potassium sulfate; phases: Liquid, Crystal
Fixed: Pressure, kPa = 98
Fixed: Temperature, K = 313
Property: Molality, mol/kg of copper sulfate (Liquid); method: Titration
Solvent: Molality, mol/kg of potassium sulfate	Molality, mol/kg of copper sulfate	uncertainty
0	1.828	0.037
0.0933	1.851	0.037
0.1961	1.913	0.043
0.2059	1.845	0.043
0.2991	1.982	0.04
0.3303	1.971	0.04
0.3403	1.988	0.05
0.3538	1.832	0.063
0.3739	1.61	0.056
0.4162	1.27	0.04
0.4611	1.016	0.037
0.539	0.6647	0.0284
0.6188	0.4654	0.0174
0.7463	0.3097	0.0128
0.8077	0.2726	0.0096
0.8378	0.2492	0.0574
0.886	0.1968	0.0128
0.889	0.1937	0.021
0.877	0.1878	0.1378
0.8745	0.09298	0.74339
0.8628	0.07411	0.08818
0.8621	0	0.0854

System: water + cobalt(II) sulfate; phases: Liquid, Crystal
Property: Molality, mol/kg of cobalt(II) sulfate (Liquid); method: Titration
Temperature, K	Pressure, kPa	Molality, mol/kg of cobalt(II) sulfate	uncertainty
313	98	2.99	0.0601

System: water + nickel monosulfate; phases: Liquid, Crystal
Property: Molality, mol/kg of nickel monosulfate (Liquid); method: Gravimetric Method
Pressure, kPa	Temperature, K	Molality, mol/kg of nickel monosulfate	uncertainty
98	313	3.092	0.093
