Measured thermophysical data. Liquid density of 1-pentanol at pressures up to 140MPa and from 293.15 to 403.15K
Source: Fluid Phase Equilib., 2008, 10.1016/j.fluid.2008.06.007
Compound 1: pentan-1-ol, C5H12O, InChI=1S/C5H12O/c1-2-3-4-5-6/h6H,2-5H2,1H3

System: pentan-1-ol; phases: Liquid
Property: Mass density, kg/m3 (Liquid); method: Vibrating tube method
Temperature, K	Pressure, kPa	Mass density, kg/m3	uncertainty
293.15	100	814.7	1
293.15	10000	821.1	1
293.15	20000	827.3	1.1
293.15	30000	833.2	1.1
293.15	40000	838.6	1.1
293.15	50000	843.6	1.1
293.15	60000	848.5	1.1
293.15	70000	853.1	1.1
293.15	80000	857.4	1.1
293.15	90000	861.7	1.2
293.15	100000	865.8	1.2
293.15	110000	869.6	1.2
293.15	120000	873.2	1.2
293.15	130000	876.9	1.2
293.15	140000	880.3	1.2
303.15	100	807.3	1
303.15	10000	814.4	1.1
303.15	20000	820.7	1.1
303.15	30000	826.7	1.1
303.15	40000	832.2	1.1
303.15	50000	837.5	1.1
303.15	60000	842.4	1.1
303.15	70000	847	1.1
303.15	80000	851.6	1.1
303.15	90000	855.8	1.2
303.15	100000	860.1	1.2
303.15	110000	864.1	1.2
303.15	120000	868	1.2
303.15	130000	871.7	1.2
303.15	140000	875.2	1.2
313.15	100	799.8	1.1
313.15	10000	807.4	1.1
313.15	20000	814.1	1.1
313.15	30000	820.2	1.1
313.15	40000	826	1.1
313.15	50000	831.5	1.1
313.15	60000	836.6	1.1
313.15	70000	841.4	1.1
313.15	80000	846.1	1.2
313.15	90000	850.5	1.2
313.15	100000	854.8	1.2
313.15	110000	858.9	1.2
313.15	120000	862.8	1.2
313.15	130000	866.6	1.2
313.15	140000	870.2	1.3
323.15	100	792.5	1.1
323.15	10000	800.3	1.1
323.15	20000	807.3	1.1
323.15	30000	813.7	1.1
323.15	40000	819.8	1.1
323.15	50000	825.4	1.1
323.15	60000	830.7	1.1
323.15	70000	835.7	1.1
323.15	80000	840.4	1.2
323.15	90000	845	1.2
323.15	100000	849.3	1.2
323.15	110000	853.6	1.2
323.15	120000	857.6	1.2
323.15	130000	861.5	1.3
323.15	140000	865.3	1.3
333.15	100	784.4	1.1
333.15	10000	792.7	1.1
333.15	20000	800.1	1.1
333.15	30000	806.8	1.1
333.15	40000	813.1	1.1
333.15	50000	818.9	1.1
333.15	60000	824.4	1.1
333.15	70000	829.7	1.2
333.15	80000	834.6	1.2
333.15	90000	839.2	1.2
333.15	100000	843.7	1.2
333.15	110000	848	1.2
333.15	120000	852.1	1.3
333.15	130000	856	1.3
333.15	140000	860	1.3
343.15	100	776.5	1.1
343.15	10000	785.2	1.1
343.15	20000	792.9	1.1
343.15	30000	799.9	1.1
343.15	40000	806.6	1.1
343.15	50000	812.6	1.1
343.15	60000	818.3	1.1
343.15	70000	823.7	1.2
343.15	80000	828.7	1.2
343.15	90000	833.5	1.2
343.15	100000	838.2	1.2
343.15	110000	842.5	1.3
343.15	120000	846.8	1.3
343.15	130000	850.9	1.3
343.15	140000	854.8	1.3
353.15	100	768.1	1.1
353.15	10000	777.3	1.1
353.15	20000	785.6	1.1
353.15	30000	792.9	1.1
353.15	40000	799.8	1.1
353.15	50000	806.1	1.1
353.15	60000	812	1.2
353.15	70000	817.6	1.2
353.15	80000	822.8	1.2
353.15	90000	827.8	1.2
353.15	100000	832.6	1.2
353.15	110000	837.2	1.3
353.15	120000	841.6	1.3
353.15	130000	845.8	1.3
353.15	140000	849.7	1.3
363.15	100	759.4	1.1
363.15	10000	769.2	1.1
363.15	20000	777.7	1.1
363.15	30000	785.6	1.1
363.15	40000	792.6	1.1
363.15	50000	799.2	1.1
363.15	60000	805.5	1.2
363.15	70000	811.3	1.2
363.15	80000	816.7	1.2
363.15	90000	821.8	1.2
363.15	100000	826.8	1.3
363.15	110000	831.3	1.3
363.15	120000	835.8	1.3
363.15	130000	840.1	1.3
363.15	140000	844.2	1.3
373.15	100	750.7	1.1
373.15	10000	761.2	1.1
373.15	20000	770.3	1.1
373.15	30000	778.2	1.1
373.15	40000	785.7	1.1
373.15	50000	792.5	1.2
373.15	60000	798.9	1.2
373.15	70000	804.9	1.2
373.15	80000	810.5	1.2
373.15	90000	815.8	1.2
373.15	100000	820.9	1.3
373.15	110000	825.7	1.3
373.15	120000	830.3	1.3
373.15	130000	834.7	1.3
373.15	140000	839	1.4
383.15	100	741.5	1.1
383.15	10000	752.3	1.1
383.15	20000	761.9	1.1
383.15	30000	770.7	1.1
383.15	40000	778.5	1.1
383.15	50000	785.7	1.2
383.15	60000	792.3	1.2
383.15	70000	798.5	1.2
383.15	80000	804.3	1.2
383.15	90000	809.7	1.3
383.15	100000	815	1.3
383.15	110000	819.9	1.3
383.15	120000	824.7	1.3
383.15	130000	829.2	1.4
383.15	140000	833.5	1.4
393.15	100	731.7	1.1
393.15	10000	743.4	1.1
393.15	20000	753.7	1.1
393.15	30000	762.8	1.1
393.15	40000	771	1.1
393.15	50000	778.6	1.2
393.15	60000	785.6	1.2
393.15	70000	792	1.2
393.15	80000	798.1	1.2
393.15	90000	803.7	1.3
393.15	100000	809.1	1.3
393.15	110000	814.2	1.3
393.15	120000	819.1	1.4
393.15	130000	823.7	1.4
393.15	140000	828.1	1.4
403.15	100	721.7	1.1
403.15	10000	734.4	1.1
403.15	20000	745.3	1.1
403.15	30000	754.9	1.1
403.15	40000	763.4	1.2
403.15	50000	771.3	1.2
403.15	60000	778.4	1.2
403.15	70000	785.1	1.2
403.15	80000	791.3	1.3
403.15	90000	797.2	1.3
403.15	100000	802.8	1.3
403.15	110000	808	1.3
403.15	120000	813	1.4
403.15	130000	817.8	1.4
403.15	140000	822.3	1.4
