Measured thermophysical data. Solubility determination of organometallic complexes in supercritical carbon dioxide by chromatographic impulse response method
Source: Fluid Phase Equilib., 2011, 10.1016/j.fluid.2010.09.034
Compound 1: naphthalene, C10H8, InChI=1S/C10H8/c1-2-6-10-8-4-3-7-9(10)5-1/h1-8H
Compound 2: ferrocene, C10H10Fe, InChI=1S/2C5H5.Fe/c2*1-2-4-5-3-1;/h2*1-5H;
Compound 3: carbon dioxide, CO2, InChI=1S/CO2/c2-1-3

System: naphthalene + carbon dioxide; phases: Fluid (supercritical or subcritical phases), Crystal
Fixed: Temperature, K = 308.15
Property: Mole fraction of naphthalene (Fluid (supercritical or subcritical phases)); method: Chromatography
Pressure, kPa	Mole fraction of naphthalene	uncertainty
7000	0.0005	5e-05
7400	0.0008	8e-05
7520	0.00092	0.0001
7600	0.00108	0.00012
7700	0.00128	0.00014
7800	0.0016	0.00018
7900	0.00213	0.00026
8020	0.00324	0.00041
8100	0.00448	0.00052
8150	0.00527	0.00059
8200	0.00564	0.0006
8250	0.00611	0.00063
8300	0.00645	0.00067
8350	0.00679	0.0007
8400	0.00725	0.00074
8450	0.00767	0.00078
8500	0.00764	0.00077
8520	0.00762	0.00077
8550	0.00806	0.00081
8600	0.0083	0.00083
8700	0.00835	0.00084
8800	0.00863	0.00087
9000	0.00908	0.00091
9990	0.01035	0.00104
10000	0.01031	0.00103
11000	0.01236	0.00124
12000	0.01293	0.0013
13300	0.01395	0.0014
14000	0.01411	0.00141
15000	0.01497	0.0015
20000	0.01697	0.0017
25000	0.01854	0.00186
30000	0.01995	0.002
35000	0.02058	0.00206
40000	0.0216	0.00216

System: ferrocene + carbon dioxide; phases: Fluid (supercritical or subcritical phases), Crystal
Fixed: Temperature, K = 333.15
Property: Mole fraction of ferrocene (Fluid (supercritical or subcritical phases)); method: Chromatography
Pressure, kPa	Mole fraction of ferrocene	uncertainty
10000	0.000227	2.3e-05
11000	0.000398	4e-05
12000	0.000657	6.6e-05
13000	0.000968	9.7e-05
14000	0.001271	0.000128
15000	0.001569	0.000158
20000	0.002332	0.000234
25000	0.002892	0.00029
30000	0.003276	0.000329
