Measured thermophysical data. Experimental solubility of hydrogen sulfide and carbon dioxide in dimethylformamide and dimethylsulfoxide
Source: Fluid Phase Equilib., 2014, 10.1016/j.fluid.2014.01.020
Compound 1: hydrogen sulfide, H2S, InChI=1S/H2S/h1H2, purity 99.95%
Compound 2: carbon dioxide, CO2, InChI=1S/CO2/c2-1-3, purity 99.5%
Compound 3: dimethylformamide, C3H7NO, InChI=1S/C3H7NO/c1-4(2)3-5/h3H,1-2H3, purity 99%
Compound 4: dimethyl sulfoxide, C2H6OS, InChI=1S/C2H6OS/c1-4(2)3/h1-2H3, purity 99.9%

System: dimethylformamide + carbon dioxide; phases: Liquid, Gas
Property: Vapor or sublimation pressure, kPa (Liquid); method: Closed cell (Static) method
Temperature, K	Mole fraction of carbon dioxide	Vapor or sublimation pressure, kPa	uncertainty
313.15	0.021	201	53
313.15	0.038	361	62
313.15	0.062	579	62
313.15	0.103	952	63
313.15	0.136	1272	64
313.15	0.17	1602	76
313.15	0.203	1911	63
333.15	0.019	242	56
333.15	0.035	441	56
333.15	0.056	713	72
333.15	0.093	1189	71
333.15	0.126	1602	73
333.15	0.155	2005	75
333.15	0.186	2434	58
353.15	0.018	278	83
353.15	0.032	508	81
353.15	0.052	823	81
353.15	0.087	1378	82
353.15	0.115	1846	84
353.15	0.144	2336	113

System: dimethyl sulfoxide + carbon dioxide; phases: Liquid, Gas
Property: Vapor or sublimation pressure, kPa (Liquid); method: Closed cell (Static) method
Temperature, K	Mole fraction of carbon dioxide	Vapor or sublimation pressure, kPa	uncertainty
313.15	0.014	197	58
313.15	0.033	467	57
313.15	0.048	666	57
313.15	0.075	1039	74
313.15	0.107	1469	73
313.15	0.169	2271	73
333.15	0.012	216	62
333.15	0.028	510	60
333.15	0.04	730	60
333.15	0.063	1140	90
333.15	0.089	1611	86
333.15	0.14	2506	87
353.15	0.01	232	104
353.15	0.024	550	110
353.15	0.034	787	104
353.15	0.054	1235	104
353.15	0.076	1741	147

System: dimethyl sulfoxide + hydrogen sulfide; phases: Liquid, Gas
Property: Vapor or sublimation pressure, kPa (Liquid); method: Closed cell (Static) method
Temperature, K	Mole fraction of hydrogen sulfide	Vapor or sublimation pressure, kPa	uncertainty
313.15	0.042	56	50
313.15	0.091	98	50
313.15	0.169	126	50
313.15	0.141	133	50
313.15	0.233	160	50
313.15	0.301	182	50
313.15	0.405	222	50
313.15	0.445	289	52
313.15	0.503	429	57
313.15	0.565	843	66
313.15	0.601	1123	70
313.15	0.627	1346	71
313.15	0.65	1535	71
323.15	0.23	202	50
323.15	0.299	226	50
323.15	0.403	271	50
323.15	0.444	329	52
323.15	0.501	505	61
323.15	0.563	999	70
323.15	0.598	1292	77
323.15	0.624	1598	87
323.15	0.646	1858	84
323.15	0.042	42	50
333.15	0.228	253	50
333.15	0.296	279	50
333.15	0.402	329	50
333.15	0.442	384	51
333.15	0.5	589	57
333.15	0.56	1171	79
333.15	0.594	1557	86
333.15	0.62	1871	89
333.15	0.642	2139	89
343.15	0.224	316	50
343.15	0.248	325	50
343.15	0.293	346	50
343.15	0.399	402	50
343.15	0.44	461	51
343.15	0.498	682	59
343.15	0.556	1359	88
343.15	0.59	1789	95
343.15	0.616	2161	100

System: dimethylformamide + hydrogen sulfide; phases: Liquid, Gas
Property: Vapor or sublimation pressure, kPa (Liquid); method: Closed cell (Static) method
Temperature, K	Mole fraction of hydrogen sulfide	Vapor or sublimation pressure, kPa	uncertainty
303.15	0.012	22	50
303.15	0.026	49	51
303.15	0.047	89	51
303.15	0.066	128	51
303.15	0.091	176	51
303.15	0.122	239	51
303.15	0.16	319	51
303.15	0.192	389	51
303.15	0.217	443	51
303.15	0.255	528	51
303.15	0.275	579	51
313.15	0.012	26	50
313.15	0.026	59	50
313.15	0.046	106	51
313.15	0.065	156	51
313.15	0.09	218	51
313.15	0.121	291	51
313.15	0.159	388	51
313.15	0.191	474	51
313.15	0.216	540	53
313.15	0.253	645	53
313.15	0.273	706	52
323.15	0.012	31	50
323.15	0.026	70	50
323.15	0.046	126	51
323.15	0.065	186	51
323.15	0.09	261	51
323.15	0.12	348	51
323.15	0.158	464	52
323.15	0.19	566	52
323.15	0.214	644	52
323.15	0.252	768	52
323.15	0.271	846	56
333.15	0.012	34	50
333.15	0.026	80	52
333.15	0.046	147	52
333.15	0.064	214	52
333.15	0.089	302	52
333.15	0.119	407	52
333.15	0.157	545	52
333.15	0.188	665	52
333.15	0.213	758	53
333.15	0.25	907	56
333.15	0.27	995	57
343.15	0.012	37	51
343.15	0.026	88	52
343.15	0.045	166	53
343.15	0.064	245	53
343.15	0.088	340	53
343.15	0.119	466	53
343.15	0.156	629	53
343.15	0.187	768	53
343.15	0.211	877	53
343.15	0.248	1051	54
353.15	0.012	38	53
353.15	0.025	96	53
353.15	0.063	276	53
353.15	0.088	378	53
353.15	0.118	531	54
353.15	0.155	715	54
353.15	0.186	876	59
353.15	0.21	1001	59
