Measured thermophysical data. Effect of CO2 dissolution on electrical conductivity and self-diffusion coefficients of 1-butyl-3-methylimidazolium hexafluorophosphate ionic liquid
Source: Fluid Phase Equilib., 2013, 10.1016/j.fluid.2013.05.023
Compound 1: 1-butyl-3-methylimidazolium hexafluorophosphate, C8H15F6N2P, InChI=1S/C8H15N2.F6P/c1-3-4-5-10-7-6-9(2)8-10;1-7(2,3,4,5)6/h6-8H,3-5H2,1-2H3;/q+1;-1, purity 99.9%
Compound 2: carbon dioxide, CO2, InChI=1S/CO2/c2-1-3, purity 99.99%

System: carbon dioxide + 1-butyl-3-methylimidazolium hexafluorophosphate; phases: Liquid, Gas
Property: Electrical conductivity, S/m (Liquid); method: stated elsewhere
Temperature, K	Pressure, kPa	Electrical conductivity, S/m	uncertainty
298.1	100	0.144	0.006
298.1	730	0.231	0.009
298.1	1250	0.306	0.012
298.1	1750	0.386	0.015
298.1	2290	0.477	0.019
298.1	2940	0.591	0.024
298.1	3570	0.702	0.028
298.1	4230	0.815	0.033
298.1	5030	0.943	0.038
298.1	5940	1.06	0.04
298.1	6830	1.11	0.04
298.1	7860	1.12	0.05
298.1	8930	1.13	0.05
298.1	11300	1.14	0.05
298.1	13380	1.14	0.05
298.1	15270	1.13	0.05
313.1	100	0.317	0.013
313.1	700	0.426	0.017
313.1	1380	0.546	0.022
313.1	1950	0.648	0.026
313.1	2490	0.757	0.03
313.1	3100	0.884	0.035
313.1	3740	1.01	0.04
313.1	4600	1.19	0.05
313.1	5500	1.36	0.05
313.1	6680	1.57	0.06
313.1	8200	1.75	0.07
313.1	9780	1.83	0.07
313.1	10190	1.84	0.07
313.1	12190	1.87	0.08
313.1	14640	1.91	0.08
313.1	17190	1.93	0.08
313.1	20000	1.94	0.08
333.1	100	0.693	0.028
333.1	940	0.927	0.037
333.1	1620	1.06	0.04
333.1	2520	1.24	0.05
333.1	3150	1.38	0.06
333.1	3940	1.53	0.06
333.1	4640	1.67	0.07
333.1	5490	1.83	0.07
333.1	6360	1.98	0.08
333.1	7230	2.08	0.08
333.1	7410	2.15	0.09
333.1	8930	2.35	0.09
333.1	10440	2.5	0.1
333.1	12460	2.62	0.1
333.1	14780	2.69	0.11
333.1	17510	2.74	0.11
333.1	20560	2.78	0.11

System: carbon dioxide + 1-butyl-3-methylimidazolium hexafluorophosphate; phases: Liquid, Gas
Property: Electrical conductivity, S/m (Liquid); method: stated elsewhere
Temperature, K	Pressure, kPa	Electrical conductivity, S/m	uncertainty
298	100	0.144	0.006
298	730	0.231	0.009
298	1250	0.306	0.012
298	1750	0.386	0.015
298	2290	0.477	0.019
298	2940	0.591	0.024
298	3570	0.702	0.028
298	4230	0.815	0.033
298	5030	0.943	0.038
313	100	0.317	0.013
313	700	0.426	0.017
313	1380	0.546	0.022
313	1950	0.648	0.026
313	2490	0.757	0.03
313	3100	0.884	0.035
313	3740	1.01	0.04
313	4600	1.19	0.05
313	5500	1.36	0.05
313	6680	1.57	0.06
313	8200	1.75	0.07
313	9780	1.83	0.07
313	10190	1.84	0.07
313	12190	1.87	0.08
333	100	0.693	0.028
333	940	0.927	0.037
333	1620	1.06	0.04
333	2520	1.24	0.05
333	3150	1.38	0.06
333	3940	1.53	0.06
333	4640	1.67	0.07
333	5490	1.83	0.07
333	6360	1.98	0.08
333	7230	2.08	0.08
333	7410	2.15	0.09
333	8930	2.35	0.09
333	10440	2.5	0.1
333	12460	2.62	0.1
