Measured thermophysical data. Oil desulfurization using deep eutectic solvents as sustainable and economical extractants via liquid-liquid extraction: Experimental and PC-SAFT predictions
Source: Fluid Phase Equilib., 2018, 10.1016/j.fluid.2018.03.018
Compound 1: octane, C8H18, InChI=1S/C8H18/c1-3-5-7-8-6-4-2/h3-8H2,1-2H3, purity 99%
Compound 2: methyltriphenylphosphonium bromide, C19H18BrP, InChI=1S/C19H18P.BrH/c1-20(17-11-5-2-6-12-17,18-13-7-3-8-14-18)19-15-9-4-10-16-19;/h2-16H,1H3;1H/q+1;/p-1, purity 99%
Compound 3: tetraethylammonium chloride, C8H20ClN, InChI=1S/C8H20N.ClH/c1-5-9(6-2,7-3)8-4;/h5-8H2,1-4H3;1H/q+1;/p-1, purity 99%
Compound 4: glycerol, C3H8O3, InChI=1S/C3H8O3/c4-1-3(6)2-5/h3-6H,1-2H2, purity 99%
Compound 5: 1,2-ethanediol, C2H6O2, InChI=1S/C2H6O2/c3-1-2-4/h3-4H,1-2H2, purity 99%

System: tetraethylammonium chloride + 1,2-ethanediol; phases: Liquid
Fixed: Pressure, kPa = 101
Fixed: Mole fraction of tetraethylammonium chloride = 0.3333
Property: Mass density, kg/m3 (Liquid); method: Vibrating tube method
Temperature, K	Mass density, kg/m3	uncertainty
293.15	1052.3	1
298.15	1049.4	1
303.15	1046.6	1
308.15	1043.7	1
313.15	1040.9	1
318.15	1038.1	1
323.15	1035.3	1
328.15	1032.5	1
333.15	1029.7	1
338.15	1026.9	1
343.15	1024.1	1

System: tetraethylammonium chloride + glycerol; phases: Liquid
Fixed: Pressure, kPa = 101
Fixed: Mole fraction of tetraethylammonium chloride = 0.3333
Property: Mass density, kg/m3 (Liquid); method: Vibrating tube method
Temperature, K	Mass density, kg/m3	uncertainty
293.15	1124	1
298.15	1121	1
303.15	1118.1	1
308.15	1115.1	1
313.15	1112.3	1
318.15	1109.4	1
323.15	1106.6	1
328.15	1103.8	1
333.15	1101	1
338.15	1098.2	1
343.15	1095.4	1

System: methyltriphenylphosphonium bromide + 1,2-ethanediol; phases: Liquid
Fixed: Pressure, kPa = 101
Fixed: Mole fraction of methyltriphenylphosphonium bromide = 0.25
Property: Mass density, kg/m3 (Liquid); method: Vibrating tube method
Temperature, K	Mass density, kg/m3	uncertainty
298.15	1249.1	1.1
303.15	1245.7	1.1
308.15	1242.2	1.1
313.15	1238.8	1.1
318.15	1235.4	1.1
323.15	1231.9	1.1

System: methyltriphenylphosphonium bromide + glycerol; phases: Liquid
Fixed: Pressure, kPa = 101
Fixed: Mole fraction of methyltriphenylphosphonium bromide = 0.25
Property: Mass density, kg/m3 (Liquid); method: Vibrating tube method
Temperature, K	Mass density, kg/m3	uncertainty
298.15	1295.8	1.1
303.15	1292.4	1.1
308.15	1288.9	1.1
313.15	1285.3	1.1
318.15	1281.7	1.1
323.15	1278.1	1.1

System: tetraethylammonium chloride + 1,2-ethanediol + octane; phases: Liquid mixture 1, Liquid mixture 2
Property: Mass fraction of octane (Liquid mixture 1); method: Chromatography
Temperature, K	Pressure, kPa	Solvent: Mole fraction of tetraethylammonium chloride	Mass fraction of octane	uncertainty
298	101	0.3333	0.0006	0.0006

System: tetraethylammonium chloride + glycerol + octane; phases: Liquid mixture 1, Liquid mixture 2
Property: Mass fraction of octane (Liquid mixture 1); method: Chromatography
Temperature, K	Pressure, kPa	Solvent: Mole fraction of tetraethylammonium chloride	Mass fraction of octane	uncertainty
298	101	0.3333	0.0003	0.0003

System: methyltriphenylphosphonium bromide + 1,2-ethanediol + octane; phases: Liquid mixture 1, Liquid mixture 2
Property: Mass fraction of octane (Liquid mixture 1); method: Chromatography
Temperature, K	Pressure, kPa	Solvent: Mole fraction of methyltriphenylphosphonium bromide	Mass fraction of octane	uncertainty
298	101	0.25	0.001	0.001

System: methyltriphenylphosphonium bromide + glycerol + octane; phases: Liquid mixture 1, Liquid mixture 2
Property: Mass fraction of octane (Liquid mixture 1); method: Chromatography
Temperature, K	Pressure, kPa	Solvent: Mole fraction of methyltriphenylphosphonium bromide	Mass fraction of octane	uncertainty
298	101	0.25	0.0002	0.0002
