Measured thermophysical data. Volumetric and viscometric behaviour of amino acids in aqueous metal electrolytes solutions at 308K
Source: Fluid Phase Equilib., 2007, 10.1016/j.fluid.2007.01.043
Compound 1: L-proline, C5H9NO2, InChI=1S/C5H9NO2/c7-5(8)4-2-1-3-6-4/h4,6H,1-3H2,(H,7,8)/t4-/m0/s1
Compound 2: L-glutamine, C5H10N2O3, InChI=1S/C5H10N2O3/c6-3(5(9)10)1-2-4(7)8/h3H,1-2,6H2,(H2,7,8)(H,9,10)/t3-/m0/s1
Compound 3: copper dinitrate, CuN2O6, InChI=1S/Cu.2NO3/c;2*2-1(3)4/q+2;2*-1
Compound 4: nickel chloride (NiCl2), Cl2Ni, InChI=1S/2ClH.Ni/h2*1H;/q;;+2/p-2
Compound 5: water, H2O, InChI=1S/H2O/h1H2

System: copper dinitrate + water; phases: Liquid
Fixed: Pressure, kPa = 101.3
Fixed: Temperature, K = 308
Property: Viscosity, Pa*s (Liquid); method: CAPTUB::UFactor:4
Amount concentration (molarity), mol/dm3 of copper dinitrate	Viscosity, Pa*s	uncertainty
0.06	0.0007347	1.93e-05
0.1	0.0007487	1.97e-05

System: copper dinitrate + water; phases: Liquid
Fixed: Pressure, kPa = 101
Fixed: Temperature, K = 308
Property: Mass density, kg/m3 (Liquid); method: PYCNOM::UFactor:2
Amount concentration (molarity), mol/dm3 of copper dinitrate	Mass density, kg/m3	uncertainty
0.06	1002.3	0.8
0.1	1008.6	0.8

System: nickel chloride (NiCl2) + water; phases: Liquid
Fixed: Pressure, kPa = 101.3
Fixed: Temperature, K = 308
Property: Viscosity, Pa*s (Liquid); method: CAPTUB:UFactor:4
Amount concentration (molarity), mol/dm3 of nickel chloride (NiCl2)	Viscosity, Pa*s	uncertainty
0.06	0.0007261	1.9e-05
0.1	0.0007469	1.94e-05

System: nickel chloride (NiCl2) + water; phases: Liquid
Fixed: Pressure, kPa = 101
Fixed: Temperature, K = 308
Property: Mass density, kg/m3 (Liquid); method: PYCNOM:UFactor:2
Amount concentration (molarity), mol/dm3 of nickel chloride (NiCl2)	Mass density, kg/m3	uncertainty
0.06	994.09	0.7
0.1	1004	0.7

System: L-proline + copper dinitrate + water; phases: Liquid
Fixed: Pressure, kPa = 101.3
Fixed: Temperature, K = 308
Property: Viscosity, Pa*s (Liquid); method: CAPTUB:UFactor:4
Amount concentration (molarity), mol/dm3 of L-proline	Solvent: Amount concentration (molarity), mol/dm3 of copper dinitrate	Viscosity, Pa*s	uncertainty
0	0.06	0.0007347	1.93e-05
0	0.1	0.0007487	1.97e-05
0.03	0.06	0.0007374	1.94e-05
0.03	0.1	0.0007532	1.98e-05
0.05	0.06	0.0007392	1.94e-05
0.05	0.1	0.0007583	1.99e-05
0.1	0.06	0.0007434	1.95e-05
0.1	0.1	0.0007632	2e-05
0.15	0.06	0.000746	1.96e-05
0.15	0.1	0.0007744	2.02e-05
0.2	0.06	0.0007516	1.97e-05
0.2	0.1	0.0007838	2.04e-05

System: L-proline + copper dinitrate + water; phases: Liquid
Fixed: Pressure, kPa = 101
Fixed: Temperature, K = 308
Property: Mass density, kg/m3 (Liquid); method: PYCNOM:UFactor:2
Amount concentration (molarity), mol/dm3 of L-proline	Solvent: Amount concentration (molarity), mol/dm3 of copper dinitrate	Mass density, kg/m3	uncertainty
0	0.06	1002.3	0.8
0	0.1	1008.6	0.8
0.03	0.06	1003	0.8
0.03	0.1	1009.7	0.8
0.05	0.06	1003.4	0.8
0.05	0.1	1010.4	0.8
0.1	0.06	1004.2	0.8
0.1	0.1	1012.2	0.8
0.15	0.06	1005.4	0.8
0.15	0.1	1013.5	0.8
0.2	0.06	1007.8	0.8
0.2	0.1	1016.1	0.8

System: L-glutamine + nickel chloride (NiCl2) + water; phases: Liquid
Fixed: Pressure, kPa = 101.3
Fixed: Temperature, K = 308
Property: Viscosity, Pa*s (Liquid); method: CAPTUB:UFactor:4
Amount concentration (molarity), mol/dm3 of L-glutamine	Solvent: Amount concentration (molarity), mol/dm3 of nickel chloride (NiCl2)	Viscosity, Pa*s	uncertainty
0	0.06	0.0007261	1.9e-05
0	0.1	0.0007469	1.94e-05
0.03	0.06	0.0007484	1.94e-05
0.03	0.1	0.0007593	1.97e-05
0.05	0.06	0.0007602	1.97e-05
0.05	0.1	0.0007623	1.97e-05
0.1	0.06	0.0007729	2e-05
0.1	0.1	0.0007644	1.98e-05
0.15	0.06	0.0007855	2.02e-05
0.15	0.1	0.0008191	2.1e-05
0.2	0.06	0.0007949	2.05e-05
0.2	0.1	0.0008403	2.14e-05

System: L-glutamine + nickel chloride (NiCl2) + water; phases: Liquid
Fixed: Pressure, kPa = 101
Fixed: Temperature, K = 308
Property: Mass density, kg/m3 (Liquid); method: PYCNOM:UFactor:2
Amount concentration (molarity), mol/dm3 of L-glutamine	Solvent: Amount concentration (molarity), mol/dm3 of nickel chloride (NiCl2)	Mass density, kg/m3	uncertainty
0	0.06	994.09	0.7
0	0.1	1004	0.7
0.03	0.06	1003.5	0.7
0.03	0.1	1008	0.7
0.05	0.06	1004.6	0.6
0.05	0.1	1009.3	0.6
0.1	0.06	1006.8	0.6
0.1	0.1	1010.8	0.6
0.15	0.06	1009.1	0.6
0.15	0.1	1013.3	0.7
0.2	0.06	1011.4	0.6
0.2	0.1	1017	0.7
