Measured thermophysical data. Critical point measurement of ferrocene and some of its derivatives
Source: Fluid Phase Equilib., 2012, 10.1016/j.fluid.2012.03.021
Compound 1: ferrocene, C10H10Fe, InChI=1S/2C5H5.Fe/c2*1-2-4-5-3-1;/h2*1-5H;, purity 99.9%
Compound 2: butylferrocene, C14H18Fe, InChI=1S/C9H13.C5H5.Fe/c1-2-3-6-9-7-4-5-8-9;1-2-4-5-3-1;/h4-5,7-8H,2-3,6H2,1H3;1-5H;/q2*-1;+2, purity 99.7%
Compound 3: acetylferrocene, C12H12FeO, InChI=1S/C7H7O.C5H5.Fe/c1-6(8)7-4-2-3-5-7;1-2-4-5-3-1;/h2-5H,1H3;1-5H;/q2*-1;+2, purity 99.9%
Compound 4: benzoylferrocene, C17H14FeO, InChI=1S/C12H9O.C5H5.Fe/c13-12(11-8-4-5-9-11)10-6-2-1-3-7-10;1-2-4-5-3-1;/h1-9H;1-5H;/q2*-1;+2, purity 99%

System: ferrocene; phases: Liquid, Gas
Property: Critical pressure, kPa (Liquid); method: Direct measurement
Critical pressure, kPa	uncertainty
3610	200

System: ferrocene; phases: Liquid, Gas
Property: Critical temperature, K (Liquid); method: Pulse Heating
Critical temperature, K	uncertainty
785	16

System: butylferrocene; phases: Liquid, Gas
Property: Critical pressure, kPa (Liquid); method: Direct measurement
Critical pressure, kPa	uncertainty
2180	180

System: butylferrocene; phases: Liquid, Gas
Property: Critical temperature, K (Liquid); method: Pulse Heating
Critical temperature, K	uncertainty
784	24

System: acetylferrocene; phases: Liquid, Gas
Property: Critical pressure, kPa (Liquid); method: Direct measurement
Critical pressure, kPa	uncertainty
3280	260

System: acetylferrocene; phases: Liquid, Gas
Property: Critical temperature, K (Liquid); method: Pulse Heating
Critical temperature, K	uncertainty
847	26

System: benzoylferrocene; phases: Liquid, Gas
Property: Critical pressure, kPa (Liquid); method: Direct measurement
Critical pressure, kPa	uncertainty
1590	120

System: benzoylferrocene; phases: Liquid, Gas
Property: Critical temperature, K (Liquid); method: Pulse Heating
Critical temperature, K	uncertainty
886	26
