Measured thermophysical data. An experimental investigation of the phase equilibrium of the binary system (methane + water) at low temperatures: Solubility of methane in water and three-phase (vapour + liquid + hydrate) equilibrium
Source: Fluid Phase Equilib., 2016, 10.1016/j.fluid.2015.03.041
Compound 1: water, H2O, InChI=1S/H2O/h1H2, purity 99.8%
Compound 2: methane, CH4, InChI=1S/CH4/h1H4, purity 99.5%

System: methane + water; phases: Liquid, Gas
Property: Molality, mol/kg of methane (Liquid); method: Synthetic gas solubility method
Temperature, K	Pressure, kPa	Molality, mol/kg of methane	uncertainty
283.14	1151	0.0214	0.0043
283.14	1967	0.0352	0.0044
283.14	2456	0.0447	0.0044
283.14	3342	0.0576	0.0044
283.14	3349	0.0576	0.0044
283.14	3876	0.0669	0.0044
283.14	4673	0.0784	0.0044
283.14	5701	0.092	0.0044
298.15	3200	0.0424	0.0043
298.15	4111	0.0527	0.0043
298.15	4989	0.0638	0.0043
298.15	6539	0.0812	0.0043
298.15	8675	0.0993	0.0043
298.15	10360	0.1141	0.0043
