Measured thermophysical data. Experimental studies and thermodynamic analysis of isobaric vapor-liquid-liquid equilibria of 2-propanol + water system using n-propyl acetate and isopropyl acetate as entrainers
Source: Fluid Phase Equilib., 2017, 10.1016/j.fluid.2017.09.010
Compound 1: propan-2-ol, C3H8O, InChI=1S/C3H8O/c1-3(2)4/h3-4H,1-2H3, purity 99%
Compound 2: propyl ethanoate, C5H10O2, InChI=1S/C5H10O2/c1-3-4-7-5(2)6/h3-4H2,1-2H3, purity 99%
Compound 3: 1-methylethyl ethanoate, C5H10O2, InChI=1S/C5H10O2/c1-4(2)7-5(3)6/h4H,1-3H3, purity 99%
Compound 4: water, H2O, InChI=1S/H2O/h1H2, purity 99.8%

System: propan-2-ol; phases: Liquid, Gas
Property: Vapor or sublimation pressure, kPa (Liquid); method: Ebulliometric method (Recirculating still)
Temperature, K	Vapor or sublimation pressure, kPa	uncertainty
355.4	101	1

System: propyl ethanoate; phases: Liquid, Gas
Property: Vapor or sublimation pressure, kPa (Liquid); method: Ebulliometric method (Recirculating still)
Temperature, K	Vapor or sublimation pressure, kPa	uncertainty
374.2	101	1.01

System: 1-methylethyl ethanoate; phases: Liquid, Gas
Property: Vapor or sublimation pressure, kPa (Liquid); method: Ebulliometric method (Recirculating still)
Temperature, K	Vapor or sublimation pressure, kPa	uncertainty
361.8	101	1.01

System: water; phases: Liquid, Gas
Property: Vapor or sublimation pressure, kPa (Liquid); method: Ebulliometric method (Recirculating still)
Temperature, K	Vapor or sublimation pressure, kPa	uncertainty
373	101	5.05

System: propan-2-ol + water; phases: Liquid, Gas
Fixed: Pressure, kPa = 101
Property: Boiling temperature at pressure P, K (Liquid); method: Ebulliometric method (Recirculating still)
Mole fraction of propan-2-ol	Boiling temperature at pressure P, K	uncertainty
0	373	1
0.0172	367.1	0.8
0.0513	362.2	0.6
0.0695	359.5	0.5
0.0924	357.9	0.3
0.1263	356.7	0.2
0.1961	355.6	0.2
0.2705	354.9	0.2
0.3576	354.5	0.2
0.4479	354.1	0.2
0.5293	353.7	0.2
0.6217	353.3	0.2
0.6652	353.2	0.2
0.6892	353.1	0.2
0.7495	353.3	0.2
0.8618	353.6	0.2
0.9095	354.2	0.2
1	355.4	0.2

System: propan-2-ol + water; phases: Gas, Liquid
Fixed: Pressure, kPa = 101
Property: Mole fraction of propan-2-ol (Gas); method: Chromatography
Mole fraction of propan-2-ol	Mole fraction of propan-2-ol	uncertainty
0	0	
0.0172	0.2292	0.0291
0.0513	0.3897	0.0179
0.0695	0.45	0.01
0.0924	0.4945	0.0074
0.1263	0.5112	0.0063
0.1961	0.5292	0.0061
0.2705	0.5458	0.006
0.3576	0.5634	0.006
0.4479	0.5806	0.006
0.5293	0.6181	0.0059
0.6217	0.6596	0.0057
0.6652	0.6778	0.0056
0.6892	0.6858	0.0056
0.7495	0.7121	0.0062
0.8618	0.8277	0.0062
0.9095	0.8803	0.0066
1	1	

System: propan-2-ol + water; phases: Liquid, Gas
Property: Azeotropic composition: mole fraction of propan-2-ol (Liquid); method: By X=Y
Temperature, K	Azeotropic composition: mole fraction of propan-2-ol	uncertainty
353.1	0.689	0.005

System: propan-2-ol + propyl ethanoate; phases: Liquid, Gas
Fixed: Pressure, kPa = 101
Property: Boiling temperature at pressure P, K (Liquid); method: Ebulliometric method (Recirculating still)
Mole fraction of propan-2-ol	Boiling temperature at pressure P, K	uncertainty
0	374.2	0.2
0.0548	371.8	0.3
0.1067	369.5	0.3
0.2287	364.6	0.3
0.351	361.7	0.2
0.3918	360.3	0.2
0.4477	359.3	0.2
0.549	357.8	0.2
0.6332	357.2	0.2
0.7759	356.1	0.2
0.8448	355.9	0.2
0.8945	355.5	0.2
0.9357	355.4	0.2
0.9692	355.3	0.2
0.9781	355.3	0.2
1	355.4	0.2

System: propan-2-ol + propyl ethanoate; phases: Gas, Liquid
Fixed: Pressure, kPa = 101
Property: Mole fraction of propan-2-ol (Gas); method: Chromatography
Mole fraction of propan-2-ol	Mole fraction of propan-2-ol	uncertainty
0	0	
0.0548	0.115	0.01
0.1067	0.2359	0.0079
0.2287	0.407	0.0077
0.351	0.5461	0.0078
0.3918	0.5756	0.0074
0.4477	0.6356	0.0066
0.549	0.6889	0.0061
0.6332	0.7432	0.0058
0.7759	0.8232	0.0053
0.8448	0.8699	0.0054
0.8945	0.9144	0.0054
0.9357	0.946	0.005
0.9692	0.969	0.0049
0.9781	0.9764	0.0057
1	1	

System: propan-2-ol + propyl ethanoate; phases: Liquid, Gas
Property: Azeotropic composition: mole fraction of propan-2-ol (Liquid); method: By X=Y
Temperature, K	Azeotropic composition: mole fraction of propan-2-ol	uncertainty
355.3	0.969	0.004

System: propan-2-ol + 1-methylethyl ethanoate; phases: Liquid, Gas
Fixed: Pressure, kPa = 101
Property: Boiling temperature at pressure P, K (Liquid); method: Ebulliometric method (Recirculating still)
Mole fraction of propan-2-ol	Boiling temperature at pressure P, K	uncertainty
0	361.8	0.2
0.0673	359.7	0.3
0.1272	357.7	0.2
0.1985	356.5	0.2
0.3141	355.1	0.2
0.429	354.4	0.2
0.486	354.1	0.2
0.5754	353.9	0.2
0.6228	353.8	0.2
0.666	353.6	0.2
0.6861	353.7	0.2
0.7563	353.8	0.2
0.8096	353.9	0.2
0.861	354.1	0.2
0.9489	354.8	0.2
1	355.4	0.2

System: propan-2-ol + 1-methylethyl ethanoate; phases: Gas, Liquid
Fixed: Pressure, kPa = 101
Property: Mole fraction of propan-2-ol (Gas); method: Chromatography
Mole fraction of propan-2-ol	Mole fraction of propan-2-ol	uncertainty
0	0	
0.0673	0.1036	0.0079
0.1272	0.2148	0.0075
0.1985	0.3013	0.0064
0.3141	0.4113	0.0067
0.429	0.492	0.007
0.486	0.5438	0.0073
0.5754	0.6104	0.0068
0.6228	0.6366	0.0065
0.666	0.6634	0.0063
0.6861	0.6744	0.0064
0.7563	0.7246	0.0061
0.8096	0.7633	0.0061
0.861	0.8103	0.0066
0.9489	0.9173	0.0068
1	1	

System: propan-2-ol + 1-methylethyl ethanoate; phases: Liquid, Gas
Property: Azeotropic composition: mole fraction of propan-2-ol (Liquid); method: By X=Y
Temperature, K	Azeotropic composition: mole fraction of propan-2-ol	uncertainty
353.6	0.666	0.005

System: propan-2-ol + water + propyl ethanoate; phases: Liquid, Gas
Property: Azeotropic temperature, K (Liquid); method: By T(X) extreme
Mole fraction of propan-2-ol	Mole fraction of water	Azeotropic temperature, K	uncertainty
0.374	0.4197	354.4	0.31

System: propan-2-ol + water + propyl ethanoate; phases: Liquid mixture 2, Liquid mixture 1, Gas
Fixed: Pressure, kPa = 101
Property: Mole fraction of propan-2-ol (Liquid mixture 2); method: Chromatography
Property: Mole fraction of water (Liquid mixture 2); method: Chromatography
Property: Mole fraction of propan-2-ol (Liquid mixture 1); method: Chromatography
Property: Mole fraction of water (Liquid mixture 1); method: Chromatography
Property: Mole fraction of propan-2-ol (Gas); method: Chromatography
Property: Mole fraction of water (Gas); method: Chromatography
Temperature, K	Mole fraction of propan-2-ol	uncertainty	Mole fraction of water	uncertainty	Mole fraction of propan-2-ol	uncertainty	Mole fraction of water	uncertainty	Mole fraction of propan-2-ol	uncertainty	Mole fraction of water	uncertainty
354.5	0.1282	0.0186	0.8604	0.02	0.3035	0.0065	0.5677	0.0636	0.383	0.0308	0.4215	0.0069
354.4	0.1191	0.0245	0.8712	0.0251	0.3102	0.0397	0.5221	0.0994	0.374	0.073	0.4197	0.0164
354.3	0.1054	0.0142	0.8813	0.0122	0.3055	0.0411	0.4963	0.0815	0.3556	0.0603	0.4257	0.0159
354.2	0.101	0.017	0.8897	0.0152	0.2965	0.0269	0.4726	0.0782	0.3374	0.0494	0.4286	0.0125
354.4	0.0919	0.0073	0.8943	0.0102	0.2874	0.0246	0.4364	0.0424	0.3146	0.0335	0.4369	0.0065
354.2	0.0873	0.0172	0.8998	0.0152	0.2739	0.0269	0.4055	0.0782	0.2874	0.0494	0.4411	0.0125
354.1	0.0828	0.0172	0.9083	0.0162	0.2511	0.0427	0.3732	0.0708	0.2648	0.0535	0.4431	0.0135
353.9	0.0782	0.0187	0.9043	0.0169	0.2239	0.0547	0.3336	0.0637	0.2354	0.0586	0.4559	0.0158
353.8	0.0691	0.0157	0.9182	0.0144	0.1829	0.0487	0.3101	0.0335	0.214	0.0431	0.4571	0.0142
353.7	0.051	0.0149	0.9335	0.0131	0.1601	0.053	0.2966	0.0322	0.188	0.0453	0.4636	0.0155
353.6	0.0463	0.0186	0.939	0.0209	0.1329	0.0654	0.282	0.0283	0.162	0.0521	0.4733	0.0161
353.5	0.0372	0.0201	0.9498	0.0207	0.1054	0.0577	0.2737	0.0217	0.136	0.0522	0.4829	0.0181
353.4	0.0328	0.0128	0.952	0.013	0.0647	0.0637	0.2628	0.023	0.1056	0.0551	0.495	0.0216
353.3	0.0237	0.0156	0.9659	0.0184	0.0282	0.0282	0.2497	0.022	0.0796	0.0551	0.5015	0.0195
353.2	0.0101	0.0101	0.9791	0.0199	0.0101	0.0101	0.2463	0.0188	0.0578	0.0523	0.509	0.0182

System: propan-2-ol + water + 1-methylethyl ethanoate; phases: Liquid, Gas
Property: Azeotropic temperature, K (Liquid); method: By T(X) extreme
Mole fraction of propan-2-ol	Mole fraction of water	Azeotropic temperature, K	uncertainty
0.0922	0.401	349.2	0.31

System: propan-2-ol + water + 1-methylethyl ethanoate; phases: Liquid mixture 2, Gas, Liquid mixture 1
Fixed: Pressure, kPa = 101
Property: Mole fraction of propan-2-ol (Liquid mixture 2); method: Chromatography
Property: Mole fraction of water (Liquid mixture 2); method: Chromatography
Property: Mole fraction of propan-2-ol (Liquid mixture 1); method: Chromatography
Property: Mole fraction of water (Liquid mixture 1); method: Chromatography
Property: Mole fraction of propan-2-ol (Gas); method: Chromatography
Property: Mole fraction of water (Gas); method: Chromatography
Temperature, K	Mole fraction of propan-2-ol	uncertainty	Mole fraction of water	uncertainty	Mole fraction of propan-2-ol	uncertainty	Mole fraction of water	uncertainty	Mole fraction of propan-2-ol	uncertainty	Mole fraction of water	uncertainty
350.4	0.1007	0.0229	0.8889	0.0189	0.291	0.0311	0.5365	0.0672	0.19	0.0173	0.3783	0.0066
350.3	0.0725	0.0119	0.9127	0.0096	0.2742	0.0301	0.4821	0.0534	0.181	0.0169	0.3803	0.0067
350.2	0.0613	0.0055	0.9229	0.0065	0.2517	0.0301	0.4352	0.0469	0.1688	0.0189	0.3864	0.0062
350	0.0557	0.0089	0.9258	0.0117	0.2295	0.0323	0.4024	0.0528	0.1565	0.0171	0.3873	0.0061
349.9	0.0557	0.0069	0.9306	0.0102	0.207	0.0301	0.3652	0.0459	0.1412	0.0158	0.3922	0.0054
349.8	0.05	0.0081	0.9334	0.0088	0.1845	0.0283	0.3355	0.0378	0.132	0.0137	0.3943	0.0052
349.6	0.0444	0.0101	0.9509	0.0089	0.1623	0.0269	0.2981	0.032	0.1229	0.0149	0.3935	0.005
349.4	0.0332	0.0089	0.9542	0.0122	0.1397	0.0272	0.285	0.028	0.1166	0.0143	0.394	0.005
349.3	0.0278	0.0096	0.9543	0.0084	0.1274	0.031	0.2702	0.0185	0.0983	0.0189	0.3954	0.0061
349.2	0.0278	0.0096	0.9663	0.0082	0.106	0.031	0.2632	0.0185	0.0922	0.0187	0.401	0.0061
349.1	0.0222	0.0068	0.974	0.0085	0.0894	0.0375	0.2373	0.0206	0.083	0.0278	0.399	0.0073
348.9	0.0136	0.0085	0.976	0.0055	0.0557	0.0319	0.235	0.0155	0.0585	0.0248	0.4059	0.006
348.8	0.0166	0.0055	0.9768	0.0044	0.0278	0.0278	0.2245	0.0096	0.0341	0.0328	0.4101	0.0089
348.6	0.0053	0.0053	0.9776	0.0041	0.011	0.011	0.2184	0.0119	0.0188	0.0188	0.4112	0.0061
