Measured thermophysical data. Relationship between the two-component system 1-Br-adamantane + 1-Cl-adamantane and the high-pressure properties of the pure components
Source: Fluid Phase Equilib., 2018, 10.1016/j.fluid.2017.07.020
Compound 1: 1-bromotricyclo[3.3.1.1(3,7)]decane, C10H15Br, InChI=1S/C10H15Br/c11-10-4-7-1-8(5-10)3-9(2-7)6-10/h7-9H,1-6H2, purity 99%
Compound 2: 1-chlorotricyclo[3.3.1.1(3,7)]decane, C10H15Cl, InChI=1S/C10H15Cl/c11-10-4-7-1-8(5-10)3-9(2-7)6-10/h7-9H,1-6H2, purity 98%

System: 1-bromotricyclo[3.3.1.1(3,7)]decane; phases: Crystal 3, Crystal 2, Air at 1 atmosphere
Property: Molar enthalpy of transition or fusion, kJ/mol (Crystal 3); method: DSC
Molar enthalpy of transition or fusion, kJ/mol	uncertainty
1.26	0.16

System: 1-bromotricyclo[3.3.1.1(3,7)]decane; phases: Crystal 2, Crystal 1, Air at 1 atmosphere
Property: Molar enthalpy of transition or fusion, kJ/mol (Crystal 2); method: DSC
Molar enthalpy of transition or fusion, kJ/mol	uncertainty
6.69	0.73

System: 1-bromotricyclo[3.3.1.1(3,7)]decane; phases: Crystal 1, Liquid, Air at 1 atmosphere
Property: Molar enthalpy of transition or fusion, kJ/mol (Crystal 1); method: DSC
Molar enthalpy of transition or fusion, kJ/mol	uncertainty
3.25	0.42

System: 1-bromotricyclo[3.3.1.1(3,7)]decane; phases: Crystal 3, Crystal 2, Air at 1 atmosphere
Property: Triple point temperature, K (Crystal 3); method: DTA
Triple point temperature, K	uncertainty
282.6	2

System: 1-bromotricyclo[3.3.1.1(3,7)]decane; phases: Crystal 2, Crystal 1, Air at 1 atmosphere
Property: Triple point temperature, K (Crystal 2); method: DTA
Triple point temperature, K	uncertainty
310.8	2

System: 1-bromotricyclo[3.3.1.1(3,7)]decane; phases: Crystal 1, Liquid, Air at 1 atmosphere
Property: Triple point temperature, K (Crystal 1); method: DTA
Triple point temperature, K	uncertainty
392	3

System: 1-bromotricyclo[3.3.1.1(3,7)]decane; phases: Crystal 3, Crystal 2
Property: Vapor or sublimation pressure, kPa (Crystal 3); method: DTA
Temperature, K	Vapor or sublimation pressure, kPa	uncertainty
286.4	36100	18100
292.5	71200	17100
299.2	93300	16400
311.5	117100	23900
310.5	122500	24500
316.8	133700	138000
325.4	151800	52500
316.4	151900	138400
330.6	175700	33400
327.5	184900	30300
337	199700	32200
333.7	227100	35800
342.8	256100	48300

System: 1-bromotricyclo[3.3.1.1(3,7)]decane; phases: Crystal 2, Crystal 1
Property: Vapor or sublimation pressure, kPa (Crystal 2); method: DTA
Temperature, K	Vapor or sublimation pressure, kPa	uncertainty
308.3	0	100
310.7	31100	4700
323	40400	6100
324.7	45700	6900
317.9	48600	7300
321.1	48800	7300
323.9	49000	7400
318.5	49700	7500
323.1	50000	7500
322.6	50400	7600
325.2	50900	7600
324.1	51800	7800
329.9	72400	10900
329.6	72800	10900
335.1	73100	11000
332	74500	11200
337.4	95400	14300
337.3	100700	15100
337.8	101000	15200
343.5	118200	17700
348.3	126000	18900
351.4	126900	19000
347.6	128300	19300
355.9	138100	20700
358.3	153800	23100
359	154300	23200
362.3	155500	23300
363.9	177800	26700
372.5	178800	26800
369	182300	27400
369.7	189300	28400
381.6	204700	30700
377.4	205400	30800
374.4	205600	30900
382.7	224800	33700
383.4	232100	34800
381.6	234100	35100
390.9	255000	38300
389.6	255000	38300
392.5	261500	39200

System: 1-bromotricyclo[3.3.1.1(3,7)]decane; phases: Crystal 1, Liquid
Property: Vapor or sublimation pressure, kPa (Crystal 1); method: DTA
Temperature, K	Vapor or sublimation pressure, kPa	uncertainty
404.9	25800	3900
406	32500	4900
414.6	56200	8400
411.8	61300	9200
415.8	78400	11800
436.7	160000	24000

System: 1-chlorotricyclo[3.3.1.1(3,7)]decane; phases: Crystal 2, Crystal 1, Air at 1 atmosphere
Property: Molar enthalpy of transition or fusion, kJ/mol (Crystal 2); method: DSC
Molar enthalpy of transition or fusion, kJ/mol	uncertainty
5.96	0.63

System: 1-chlorotricyclo[3.3.1.1(3,7)]decane; phases: Crystal 1, Liquid, Air at 1 atmosphere
Property: Molar enthalpy of transition or fusion, kJ/mol (Crystal 1); method: DSC
Molar enthalpy of transition or fusion, kJ/mol	uncertainty
4.22	0.53

System: 1-chlorotricyclo[3.3.1.1(3,7)]decane; phases: Crystal 1, Liquid, Air at 1 atmosphere
Property: Triple point temperature, K (Crystal 1); method: DSC
Triple point temperature, K	uncertainty
438.6	3.1

System: 1-chlorotricyclo[3.3.1.1(3,7)]decane; phases: Crystal 2, Crystal 1, Air at 1 atmosphere
Property: Triple point temperature, K (Crystal 2); method: DTA
Triple point temperature, K	uncertainty
249.5	2

System: 1-chlorotricyclo[3.3.1.1(3,7)]decane; phases: Crystal 2, Crystal 1
Property: Vapor or sublimation pressure, kPa (Crystal 2); method: DTA
Temperature, K	Vapor or sublimation pressure, kPa	uncertainty
250.4	400	11300
254.3	15100	14400
260.5	47600	13000
265	52500	11200
270.3	73100	18300
274.4	98800	18700
278.5	104200	17300
284.7	123100	21400
292.3	150200	87000
292.2	153000	87100
298.4	173600	30900
300.5	199600	31500
306.2	204000	56000
307	216500	57100
311.5	221600	34500
315.2	237700	35700
313.1	237900	45800
317.3	241000	39900
313.7	242200	36500
319.5	261500	45800
320.7	266800	42200
