Measured thermophysical data. Monoethanolamine-based deep eutectic solvents, their synthesis and characterization
Source: Fluid Phase Equilib., 2017, 10.1016/j.fluid.2017.03.008
Compound 1: choline chloride, C5H14ClNO, InChI=1S/C5H14NO.ClH/c1-6(2,3)4-5-7;/h7H,4-5H2,1-3H3;1H/q+1;/p-1
Compound 2: methyltriphenylphosphonium bromide, C19H18BrP, InChI=1S/C19H18P.BrH/c1-20(17-11-5-2-6-12-17,18-13-7-3-8-14-18)19-15-9-4-10-16-19;/h2-16H,1H3;1H/q+1;/p-1
Compound 3: tetrabutylammonium bromide, C16H36BrN, InChI=1S/C16H36N.BrH/c1-5-9-13-17(14-10-6-2,15-11-7-3)16-12-8-4;/h5-16H2,1-4H3;1H/q+1;/p-1
Compound 4: 2-aminoethan-1-ol, C2H7NO, InChI=1S/C2H7NO/c3-1-2-4/h4H,1-3H2

System: choline chloride + 2-aminoethan-1-ol; phases: Liquid, Crystal of intercomponent compound 1
Fixed: Pressure, kPa = 101
Property: Solid-liquid equilibrium temperature, K (Liquid); method: DTA
Amount ratio of solute to solvent of 2-aminoethan-1-ol	Solid-liquid equilibrium temperature, K	uncertainty
5	276.95	0.39
6	276.84	0.39
7	276.69	0.39
8	278.23	0.39

System: choline chloride + 2-aminoethan-1-ol; phases: Liquid
Fixed: Pressure, kPa = 101.3
Property: Mass density, kg/m3 (Liquid); method: Vibrating tube method
Temperature, K	Mole fraction of choline chloride	Mass density, kg/m3	uncertainty
298.15	0.16	1076.7	2.2
298.15	0.14	1069	2.2
298.15	0.13	1065	2.2
298.15	0.11	1062.8	2.2
308.15	0.16	1069.6	2.2
308.15	0.14	1061.7	2.2
308.15	0.13	1057.6	2.2
308.15	0.11	1055.2	2.2
318.15	0.16	1062.7	2.2
318.15	0.14	1054.4	2.2
318.15	0.13	1050.3	2.1
318.15	0.11	1047.8	2.1
328.15	0.16	1055.9	2.2
328.15	0.14	1047.2	2.1
328.15	0.13	1043	2.1
328.15	0.11	1040.4	2.1
338.15	0.16	1049	2.1
338.15	0.14	1039.9	2.1
338.15	0.13	1035.6	2.1
338.15	0.11	1033	2.1
348.15	0.16	1042	2.1
348.15	0.14	1032.6	2.1
348.15	0.13	1028.3	2.1
348.15	0.11	1025.6	2.1
358.15	0.16	1035	2.1
358.15	0.14	1025.3	2.1
358.15	0.13	1020.9	2.1
358.15	0.11	1018.1	2.1

System: choline chloride + 2-aminoethan-1-ol; phases: Liquid
Fixed: Pressure, kPa = 101.3
Property: Viscosity, Pa*s (Liquid); method: Capillary tube (Ostwald; Ubbelohde) method
Temperature, K	Mole fraction of choline chloride	Viscosity, Pa*s	uncertainty
298.15	0.16	0.0485	0.0049
298.15	0.14	0.0367	0.0037
298.15	0.13	0.0377	0.0038
298.15	0.11	0.0327	0.0033
308.15	0.16	0.0288	0.0029
308.15	0.14	0.025	0.0025
308.15	0.13	0.0255	0.0026
308.15	0.11	0.0226	0.0023
318.15	0.16	0.0201	0.002
318.15	0.14	0.0168	0.0017
318.15	0.13	0.0138	0.0014
318.15	0.11	0.015	0.0015
328.15	0.16	0.0135	0.0014
328.15	0.14	0.0112	0.0011
328.15	0.13	0.0101	0.001
328.15	0.11	0.0105	0.0011
338.15	0.16	0.0098	0.001
338.15	0.14	0.0088	0.0009
338.15	0.13	0.0079	0.0008
338.15	0.11	0.0071	0.0007
348.15	0.16	0.0075	0.0008
348.15	0.14	0.0066	0.0007
348.15	0.13	0.006	0.0006
348.15	0.11	0.0059	0.0006
358.15	0.16	0.0059	0.0006
358.15	0.14	0.0053	0.0005
358.15	0.13	0.0052	0.0005
358.15	0.11	0.0047	0.0005

System: choline chloride + 2-aminoethan-1-ol; phases: Liquid
Fixed: Pressure, kPa = 101.3
Property: Refractive index (Na D-line) (Liquid); method: Standard Abbe refractometry
Temperature, K	Mole fraction of choline chloride	Refractive index (Na D-line)	uncertainty
298.15	0.16	1.48388	0.00043
298.15	0.14	1.48117	0.00042
298.15	0.13	1.47875	0.00042
298.15	0.11	1.47733	0.00042
308.15	0.16	1.47998	0.00043
308.15	0.14	1.47797	0.00042
308.15	0.13	1.47541	0.00042
308.15	0.11	1.47404	0.00042
318.15	0.16	1.47623	0.00043
318.15	0.14	1.47445	0.00042
318.15	0.13	1.47217	0.00042
318.15	0.11	1.47092	0.00042
328.15	0.16	1.47257	0.00043
328.15	0.14	1.47101	0.00042
328.15	0.13	1.46908	0.00042
328.15	0.11	1.46759	0.00042
338.15	0.16	1.46842	0.00043
338.15	0.14	1.46761	0.00042
338.15	0.13	1.46539	0.00043
338.15	0.11	1.46419	0.00042
348.15	0.16	1.46421	0.00043
348.15	0.14	1.46444	0.00042
348.15	0.13	1.46171	0.00042
348.15	0.11	1.46095	0.00042
358.15	0.16	1.46031	0.00043
358.15	0.14	1.46049	0.00043
358.15	0.13	1.45833	0.00042
358.15	0.11	1.45742	0.00042

System: choline chloride + 2-aminoethan-1-ol; phases: Liquid, Air at 1 atmosphere
Property: Surface tension liquid-gas, N/m (Liquid); method: Ring tensiometer
Temperature, K	Mole fraction of choline chloride	Surface tension liquid-gas, N/m	uncertainty
298.15	0.16	0.0482	0.0007
298.15	0.14	0.0487	0.0007
298.15	0.13	0.0492	0.0007
298.15	0.11	0.0496	0.0007
308.15	0.16	0.0476	0.0007
308.15	0.14	0.048	0.0007
308.15	0.13	0.0485	0.0007
308.15	0.11	0.0488	0.0007
318.15	0.16	0.0469	0.0007
318.15	0.14	0.0474	0.0007
318.15	0.13	0.0478	0.0007
318.15	0.11	0.0479	0.0007
328.15	0.16	0.0462	0.0007
328.15	0.14	0.0467	0.0007
328.15	0.13	0.0471	0.0007
328.15	0.11	0.0472	0.0007
338.15	0.16	0.0456	0.0007
338.15	0.14	0.046	0.0007
338.15	0.13	0.0464	0.0007
338.15	0.11	0.0464	0.0007
348.15	0.16	0.045	0.0006
348.15	0.14	0.0453	0.0006
348.15	0.13	0.0458	0.0007
348.15	0.11	0.0458	0.0007
358.15	0.16	0.0444	0.0006
358.15	0.14	0.0447	0.0006
358.15	0.13	0.0449	0.0006
358.15	0.11	0.045	0.0006

System: 2-aminoethan-1-ol + tetrabutylammonium bromide; phases: Liquid, Crystal of intercomponent compound 1
Fixed: Pressure, kPa = 101
Property: Solid-liquid equilibrium temperature, K (Liquid); method: DTA
Amount ratio of solute to solvent of 2-aminoethan-1-ol	Solid-liquid equilibrium temperature, K	uncertainty
3	265.15	0.39
4	255.45	0.39
5	257.6	0.39
6	258.19	0.39

System: 2-aminoethan-1-ol + tetrabutylammonium bromide; phases: Liquid
Fixed: Pressure, kPa = 101.3
Property: Mass density, kg/m3 (Liquid); method: Vibrating tube method
Temperature, K	Mole fraction of tetrabutylammonium bromide	Mass density, kg/m3	uncertainty
298.15	0.25	1061.6	0.5
298.15	0.2	1060.9	1.2
298.15	0.16	1056.6	4
298.15	0.14	1048.1	8.5
308.15	0.25	1054.5	0.6
308.15	0.2	1053.6	1.4
308.15	0.16	1048	4.4
308.15	0.14	1038.7	9.4
318.15	0.25	1047.3	0.6
318.15	0.2	1046.4	1.3
318.15	0.16	1041.5	5
318.15	0.14	1028.9	12.8
328.15	0.25	1040.2	0.6
328.15	0.2	1039.2	1.4
328.15	0.16	1034.1	5.8
328.15	0.14	1018.5	14.9
338.15	0.25	1033.1	0.6
338.15	0.2	1032	1.4
338.15	0.16	1026.7	6.1
338.15	0.14	1010.2	16.8
348.15	0.25	1026.1	0.7
348.15	0.2	1024.7	1.5
348.15	0.16	1019.3	6.6
348.15	0.14	1001.1	18.2
358.15	0.25	1019	0.8
358.15	0.2	1017.4	1.6
358.15	0.16	1012	7.6
358.15	0.14	992.1	19.9

System: 2-aminoethan-1-ol + tetrabutylammonium bromide; phases: Liquid
Fixed: Pressure, kPa = 101.3
Property: Viscosity, Pa*s (Liquid); method: Capillary tube (Ostwald; Ubbelohde) method
Temperature, K	Mole fraction of tetrabutylammonium bromide	Viscosity, Pa*s	uncertainty
298.15	0.25	0.1068	0.0152
298.15	0.2	0.0802	0.0144
298.15	0.16	0.0529	0.0193
298.15	0.14	0.022	0.031
308.15	0.25	0.077	0.0125
308.15	0.2	0.0547	0.0115
308.15	0.16	0.031	0.0127
308.15	0.14	0.0155	0.0146
318.15	0.25	0.05357	0.00873
318.15	0.2	0.0382	0.0081
318.15	0.16	0.0211	0.0088
318.15	0.14	0.012	0.009
328.15	0.25	0.03529	0.00725
328.15	0.2	0.0201	0.0051
328.15	0.16	0.0144	0.0037
328.15	0.14	0.009	0.0052
338.15	0.25	0.0186	0.0041
338.15	0.2	0.0134	0.0025
338.15	0.16	0.009	0.0022
338.15	0.14	0.0068	0.002
348.15	0.25	0.0138	0.002
348.15	0.2	0.0105	0.0017
348.15	0.16	0.0075	0.0018
348.15	0.14	0.0057	0.0017
358.15	0.25	0.0102	0.0014
358.15	0.2	0.008	0.0014
358.15	0.16	0.0052	0.0011
358.15	0.14	0.0052	0.0005

System: 2-aminoethan-1-ol + tetrabutylammonium bromide; phases: Liquid
Fixed: Pressure, kPa = 101.3
Property: Refractive index (Na D-line) (Liquid); method: Standard Abbe refractometry
Temperature, K	Mole fraction of tetrabutylammonium bromide	Refractive index (Na D-line)	uncertainty
298.15	0.25	1.49229	0.00173
298.15	0.2	1.4881	0.0011
298.15	0.16	1.4877	0.0013
298.15	0.14	1.48383	0.00389
308.15	0.25	1.48876	0.00173
308.15	0.2	1.48464	0.00113
308.15	0.16	1.48423	0.00119
308.15	0.14	1.48033	0.00385
318.15	0.25	1.48547	0.0016
318.15	0.2	1.48169	0.00109
318.15	0.16	1.48115	0.00131
318.15	0.14	1.47704	0.00422
328.15	0.25	1.48242	0.00166
328.15	0.2	1.47851	0.00115
328.15	0.16	1.47778	0.00143
328.15	0.14	1.47349	0.00433
338.15	0.25	1.47966	0.0017
338.15	0.2	1.47541	0.00139
338.15	0.16	1.47385	0.00163
338.15	0.14	1.46989	0.0041
348.15	0.25	1.47651	0.00195
348.15	0.2	1.47164	0.00155
348.15	0.16	1.46989	0.00168
348.15	0.14	1.46595	0.00385
358.15	0.25	1.47303	0.00168
358.15	0.2	1.46897	0.00155
358.15	0.16	1.46632	0.00213
358.15	0.14	1.46234	0.004

System: 2-aminoethan-1-ol + tetrabutylammonium bromide; phases: Liquid, Air at 1 atmosphere
Property: Surface tension liquid-gas, N/m (Liquid); method: Ring tensiometer
Temperature, K	Mole fraction of tetrabutylammonium bromide	Surface tension liquid-gas, N/m	uncertainty
298.15	0.25	0.0357	0.0005
298.15	0.2	0.0358	0.0005
298.15	0.16	0.036	0.0005
298.15	0.14	0.0361	0.0005
308.15	0.25	0.0353	0.0005
308.15	0.2	0.0354	0.0005
308.15	0.16	0.0356	0.0005
308.15	0.14	0.0357	0.0005
318.15	0.25	0.0348	0.0005
318.15	0.2	0.035	0.0005
318.15	0.16	0.0352	0.0005
318.15	0.14	0.0354	0.0006
328.15	0.25	0.0345	0.0005
328.15	0.2	0.0346	0.0005
328.15	0.16	0.0349	0.0005
328.15	0.14	0.0351	0.0005
338.15	0.25	0.034	0.0005
338.15	0.2	0.0343	0.0005
338.15	0.16	0.0346	0.0005
338.15	0.14	0.0347	0.0005
348.15	0.25	0.0336	0.0005
348.15	0.2	0.0339	0.0005
348.15	0.16	0.0342	0.0005
348.15	0.14	0.0344	0.0005
358.15	0.25	0.0332	0.0005
358.15	0.2	0.0335	0.0005
358.15	0.16	0.0339	0.0005
358.15	0.14	0.0341	0.0005

System: 2-aminoethan-1-ol + methyltriphenylphosphonium bromide; phases: Liquid, Crystal of intercomponent compound 1
Fixed: Pressure, kPa = 101
Property: Solid-liquid equilibrium temperature, K (Liquid); method: DTA
Amount ratio of solute to solvent of 2-aminoethan-1-ol	Solid-liquid equilibrium temperature, K	uncertainty
6	277.67	0.39
7	272.81	0.39
8	272.21	0.39

System: 2-aminoethan-1-ol + methyltriphenylphosphonium bromide; phases: Liquid
Fixed: Pressure, kPa = 101.3
Property: Mass density, kg/m3 (Liquid); method: Vibrating tube method
Temperature, K	Mole fraction of methyltriphenylphosphonium bromide	Mass density, kg/m3	uncertainty
298.15	0.16	1195.8	2.4
298.15	0.14	1107.4	2.3
298.15	0.13	1099.8	2.2
298.15	0.11	1092.9	2.2
308.15	0.16	1187.9	2.4
308.15	0.14	1100	2.2
308.15	0.13	1091.9	2.2
308.15	0.11	1085	2.2
318.15	0.16	1180.1	2.4
318.15	0.14	1092.2	2.2
318.15	0.13	1083.8	2.2
318.15	0.11	1077.1	2.2
328.15	0.16	1172.3	2.4
328.15	0.14	1084.2	2.2
328.15	0.13	1075.8	2.2
328.15	0.11	1068.9	2.2
338.15	0.16	1164.5	2.4
338.15	0.14	1076.1	2.2
338.15	0.13	1067.6	2.2
338.15	0.11	1060.8	2.2
348.15	0.16	1156.6	2.4
348.15	0.14	1068	2.2
348.15	0.13	1059.4	2.2
348.15	0.11	1052.7	2.2
358.15	0.16	1148.8	2.3
358.15	0.14	1059.8	2.2
358.15	0.13	1051.1	2.2
358.15	0.11	1044.7	2.1

System: 2-aminoethan-1-ol + methyltriphenylphosphonium bromide; phases: Liquid
Fixed: Pressure, kPa = 101.3
Property: Viscosity, Pa*s (Liquid); method: Capillary tube (Ostwald; Ubbelohde) method
Temperature, K	Mole fraction of methyltriphenylphosphonium bromide	Viscosity, Pa*s	uncertainty
298.15	0.16	0.1289	0.0132
298.15	0.14	0.0355	0.0036
298.15	0.13	0.028	0.0028
298.15	0.11	0.0277	0.0028
308.15	0.16	0.0849	0.0087
308.15	0.14	0.0207	0.0021
308.15	0.13	0.02	0.002
308.15	0.11	0.02	0.002
318.15	0.16	0.0379	0.004
318.15	0.14	0.0136	0.0014
318.15	0.13	0.0131	0.0013
318.15	0.11	0.0136	0.0014
328.15	0.16	0.0254	0.0026
328.15	0.14	0.01	0.001
328.15	0.13	0.0091	0.0009
328.15	0.11	0.0095	0.001
338.15	0.16	0.0156	0.0016
338.15	0.14	0.0075	0.0008
338.15	0.13	0.0069	0.0007
338.15	0.11	0.007	0.0007
348.15	0.16	0.0107	0.0011
348.15	0.14	0.0056	0.0006
348.15	0.13	0.0054	0.0005
348.15	0.11	0.0054	0.0005
358.15	0.16	0.0091	0.0009
358.15	0.14	0.0049	0.0005
358.15	0.13	0.0048	0.0005
358.15	0.11	0.0047	0.0005

System: 2-aminoethan-1-ol + methyltriphenylphosphonium bromide; phases: Liquid
Fixed: Pressure, kPa = 101.3
Property: Refractive index (Na D-line) (Liquid); method: Standard Abbe refractometry
Temperature, K	Mole fraction of methyltriphenylphosphonium bromide	Refractive index (Na D-line)	uncertainty
298.15	0.16	1.56644	0.00043
298.15	0.14	1.51187	0.00043
298.15	0.13	1.50587	0.00043
298.15	0.11	1.50265	0.00042
308.15	0.16	1.56247	0.00043
308.15	0.14	1.50794	0.00042
308.15	0.13	1.50221	0.00042
308.15	0.11	1.49911	0.00043
318.15	0.16	1.55846	0.00043
318.15	0.14	1.50501	0.00043
318.15	0.13	1.49935	0.00042
318.15	0.11	1.49546	0.00042
328.15	0.16	1.55518	0.00042
328.15	0.14	1.50071	0.00043
328.15	0.13	1.49519	0.00044
328.15	0.11	1.49224	0.00043
338.15	0.16	1.55159	0.00043
338.15	0.14	1.49733	0.00043
338.15	0.13	1.49063	0.00044
338.15	0.11	1.48802	0.00043
348.15	0.16	1.54699	0.00044
348.15	0.14	1.49343	0.00042
348.15	0.13	1.48631	0.00043
348.15	0.11	1.48405	0.00043
358.15	0.16	1.54286	0.00043
358.15	0.14	1.49027	0.00042
358.15	0.13	1.48215	0.00043
358.15	0.11	1.47988	0.00043

System: 2-aminoethan-1-ol + methyltriphenylphosphonium bromide; phases: Liquid, Air at 1 atmosphere
Property: Surface tension liquid-gas, N/m (Liquid); method: Ring tensiometer
Temperature, K	Mole fraction of methyltriphenylphosphonium bromide	Surface tension liquid-gas, N/m	uncertainty
298.15	0.16	0.0489	0.0007
298.15	0.14	0.0493	0.0007
298.15	0.13	0.0502	0.0007
298.15	0.11	0.0503	0.0007
308.15	0.16	0.048	0.0007
308.15	0.14	0.0484	0.0007
308.15	0.13	0.0493	0.0007
308.15	0.11	0.0495	0.0007
318.15	0.16	0.0472	0.0007
318.15	0.14	0.0476	0.0007
318.15	0.13	0.0482	0.0007
318.15	0.11	0.0486	0.0007
328.15	0.16	0.0464	0.0007
328.15	0.14	0.0467	0.0007
328.15	0.13	0.0472	0.0007
328.15	0.11	0.0478	0.0007
338.15	0.16	0.0456	0.0007
338.15	0.14	0.0459	0.0007
338.15	0.13	0.0463	0.0007
338.15	0.11	0.0469	0.0007
348.15	0.16	0.0448	0.0006
348.15	0.14	0.0449	0.0006
348.15	0.13	0.0453	0.0006
348.15	0.11	0.0462	0.0007
358.15	0.16	0.044	0.0006
358.15	0.14	0.0442	0.0006
358.15	0.13	0.0444	0.0006
358.15	0.11	0.0453	0.0006
