Measured thermophysical data. Determination and correlation of solubilities of famotidine in  water + co-solvent mixed solvents
Source: Fluid Phase Equilib., 2011, 10.1016/j.fluid.2010.09.029
Compound 1: famotidine, C8H15N7O2S3, InChI=1S/C8H15N7O2S3/c9-6(15-20(12,16)17)1-2-18-3-5-4-19-8(13-5)14-7(10)11/h4H,1-3H2,(H2,9,15)(H2,12,16,17)(H4,10,11,13,14), purity 98%
Compound 2: water, H2O, InChI=1S/H2O/h1H2
Compound 3: ethanol, C2H6O, InChI=1S/C2H6O/c1-2-3/h3H,2H2,1H3, purity 99.5%

System: ethanol + water + famotidine; phases: Liquid, Crystal
Fixed: Temperature, K = 298.15
Fixed: Pressure, kPa = 101
Property: Mole fraction of famotidine (Liquid); method: Chromatography
Solvent: Mole fraction of ethanol	Mole fraction of famotidine	uncertainty
0	6e-05	6e-05
0.0328	8e-05	8e-05
0.0712	0.00011	0.00011
0.117	0.00018	0.00018
0.1696	0.0003	0.0002
0.2351	0.0005	0.0002
0.3163	0.00066	0.0002
0.3645	0.00078	0.0002
0.4171	0.00078	0.0002
0.4811	0.00079	0.0002
0.5514	0.00074	0.0002
0.7382	0.00047	0.0002
1	0.00023	0.0002
