Measured thermophysical data. Liquid liquid equilibrium in ternary systems N,N-dimethylformamide + 2-methylpentane + methanol and N,N-dimethylformamide + methylcyclohexane + methanol
Source: Fluid Phase Equilib., 2006, 10.1016/j.fluid.2005.09.025
Compound 1: methanol, CH4O, InChI=1S/CH4O/c1-2/h2H,1H3, purity 99.97%
Compound 2: methylcyclohexane, C7H14, InChI=1S/C7H14/c1-7-5-3-2-4-6-7/h7H,2-6H2,1H3, purity 99.64%
Compound 3: 2-methylpentane, C6H14, InChI=1S/C6H14/c1-4-5-6(2)3/h6H,4-5H2,1-3H3, purity 99.98%
Compound 4: dimethylformamide, C3H7NO, InChI=1S/C3H7NO/c1-4(2)3-5/h3H,1-2H3, purity 99.96%

System: methanol; phases: Liquid
Property: Mass density, kg/m3 (Liquid); method: Vibrating tube method
Temperature, K	Pressure, kPa	Mass density, kg/m3	uncertainty
298.15	101.325	786.55	0.16

System: methylcyclohexane; phases: Liquid
Property: Mass density, kg/m3 (Liquid); method: VIBTUB:UFactor:2
Temperature, K	Pressure, kPa	Mass density, kg/m3	uncertainty
298.15	101.325	764.96	0.35

System: 2-methylpentane; phases: Liquid
Property: Mass density, kg/m3 (Liquid); method: Vibrating tube method
Temperature, K	Pressure, kPa	Mass density, kg/m3	uncertainty
298.15	101.325	648.45	0.22

System: dimethylformamide; phases: Liquid
Property: Mass density, kg/m3 (Liquid); method: Vibrating tube method
Temperature, K	Pressure, kPa	Mass density, kg/m3	uncertainty
298.15	101.325	943.81	0.09

System: dimethylformamide + 2-methylpentane; phases: Liquid mixture 1, Liquid mixture 2
Fixed: Pressure, kPa = 101.325
Property: Mole fraction of dimethylformamide (Liquid mixture 1); method: Chromatography
Temperature, K	Mole fraction of dimethylformamide	uncertainty
298.15	0.066	0.011
303.15	0.083	0.013

System: dimethylformamide + 2-methylpentane; phases: Liquid mixture 2, Liquid mixture 1
Fixed: Pressure, kPa = 101.325
Property: Mole fraction of 2-methylpentane (Liquid mixture 2); method: Chromatography
Temperature, K	Mole fraction of 2-methylpentane	uncertainty
298.15	0.103	0.008
303.15	0.121	0.008

System: methanol + 2-methylpentane; phases: Liquid mixture 1, Liquid mixture 2
Property: Mole fraction of 2-methylpentane (Liquid mixture 1); method: Chromatography
Temperature, K	Pressure, kPa	Mole fraction of 2-methylpentane	uncertainty
298.15	101.325	0.607	0.008

System: methanol + 2-methylpentane; phases: Liquid mixture 2, Liquid mixture 1
Property: Mole fraction of 2-methylpentane (Liquid mixture 2); method: Chromatography
Temperature, K	Pressure, kPa	Mole fraction of 2-methylpentane	uncertainty
298.15	101.325	0.315	0.008

System: dimethylformamide + methylcyclohexane; phases: Liquid mixture 1, Liquid mixture 2
Fixed: Pressure, kPa = 101.325
Property: Mole fraction of methylcyclohexane (Liquid mixture 1); method: Chromatography
Temperature, K	Mole fraction of methylcyclohexane	uncertainty
298.15	0.901	0.008
303.15	0.882	0.009

System: dimethylformamide + methylcyclohexane; phases: Liquid mixture 2, Liquid mixture 1
Fixed: Pressure, kPa = 101.325
Property: Mole fraction of methylcyclohexane (Liquid mixture 2); method: Chromatography
Temperature, K	Mole fraction of methylcyclohexane	uncertainty
298.15	0.155	0.008
303.15	0.177	0.008

System: methanol + methylcyclohexane; phases: Liquid mixture 1, Liquid mixture 2
Fixed: Pressure, kPa = 101.325
Property: Mole fraction of methylcyclohexane (Liquid mixture 1); method: Chromatography
Temperature, K	Mole fraction of methylcyclohexane	uncertainty
298.15	0.813	0.008
303.15	0.786	0.008

System: methanol + methylcyclohexane; phases: Liquid mixture 2, Liquid mixture 1
Fixed: Pressure, kPa = 101.325
Property: Mole fraction of methylcyclohexane (Liquid mixture 2); method: Chromatography
Temperature, K	Mole fraction of methylcyclohexane	uncertainty
298.15	0.152	0.008
303.15	0.175	0.008

System: methanol + dimethylformamide + 2-methylpentane; phases: Liquid mixture 1, Liquid mixture 2
Fixed: Pressure, kPa = 101.325
Property: Mole fraction of dimethylformamide (Liquid mixture 1); method: Chromatography
Property: Mole fraction of 2-methylpentane (Liquid mixture 2); method: Chromatography
Property: Mole fraction of dimethylformamide (Liquid mixture 2); method: Chromatography
Temperature, K	Mole fraction of 2-methylpentane	Mole fraction of dimethylformamide	uncertainty	Mole fraction of 2-methylpentane	uncertainty	Mole fraction of dimethylformamide	uncertainty
298.15	0.607	0	0.001	0.315	0.008	0	
298.15	0.739	0.016	0.008	0.246	0.011	0.05	
298.15	0.811	0.028	0.008	0.187	0.009	0.133	
298.15	0.867	0.036	0.008	0.158	0.008	0.226	
298.15	0.906	0.045	0.008	0.122	0.008	0.405	
298.15	0.914	0.051	0.009	0.115	0.008	0.478	
298.15	0.923	0.055	0.01	0.111	0.008	0.616	
298.15	0.926	0.059	0.01	0.106	0.008	0.662	
298.15	0.928	0.066	0.012	0.105	0.008	0.803	
298.15	0.934	0.066	0.011	0.103	0.008	0.897	
303.15	0.453	0.017	0.008	0.453	0.017	0.017	
303.15	0.784	0.038	0.008	0.18	0.008	0.169	
303.15	0.803	0.042	0.008	0.17	0.008	0.203	
303.15	0.827	0.044	0.008	0.156	0.008	0.262	
303.15	0.847	0.048	0.008	0.149	0.008	0.289	
303.15	0.892	0.055	0.008	0.132	0.008	0.438	
303.15	0.898	0.059	0.008	0.128	0.008	0.497	
303.15	0.914	0.064	0.008	0.12	0.008	0.625	
303.15	0.916	0.075	0.011	0.123	0.008	0.768	
303.15	0.917	0.083	0.013	0.121	0.008	0.879	

System: methanol + dimethylformamide + 2-methylpentane; phases: Liquid mixture 2, Liquid mixture 1
Fixed: Pressure, kPa = 101.3
Property: Mole fraction of dimethylformamide (Liquid mixture 2); method: Chromatography
Temperature, K	Mole fraction of 2-methylpentane	Mole fraction of dimethylformamide	uncertainty
298.15	0.153	0.189	0.02
298.15	0.179	0.131	0.014
298.15	0.272	0.014	0.012
298.15	0.304	0.001	0.001
303.15	0.172	0.213	0.037
303.15	0.195	0.142	0.016
303.15	0.259	0.061	0.012
303.15	0.291	0.042	0.009
303.15	0.336	0.03	0.008
303.15	0.413	0.022	0.008
303.15	0.463	0.015	0.008
303.15	0.507	0.02	0.008
303.15	0.545	0.022	0.008
313.15	0.154	0.846	0.064
313.15	0.165	0.522	0.064
313.15	0.213	0.265	0.038
313.15	0.246	0.18	0.011
313.15	0.377	0.108	0.009
313.15	0.465	0.092	0.008
313.15	0.47	0.091	0.008
313.15	0.849	0.078	0.011
313.15	0.888	0.112	0.011
323.15	0.204	0.796	0.124
323.15	0.224	0.486	0.049
323.15	0.272	0.337	0.017
323.15	0.346	0.253	0.011
323.15	0.403	0.223	0.009
323.15	0.468	0.198	0.009
323.15	0.571	0.163	0.008
323.15	0.743	0.132	0.008
323.15	0.838	0.162	0.008
323.15	0.403	0.221	0.009

System: methanol + dimethylformamide + methylcyclohexane; phases: Liquid mixture 1, Liquid mixture 2
Fixed: Pressure, kPa = 101.3
Property: Mole fraction of dimethylformamide (Liquid mixture 1); method: Chromatography
Temperature, K	Mole fraction of methylcyclohexane	Mole fraction of dimethylformamide	uncertainty
316.15	0.256	0.485	0.188
316.15	0.265	0.696	0.124
316.15	0.268	0.732	0.103
316.15	0.279	0.178	0.175
316.15	0.299	0.0001	0.001
316.15	0.329	0.034	0.019
316.15	0.362	0.132	0.009
316.15	0.379	0.032	0.019
316.15	0.406	0.027	0.012
316.15	0.436	0.088	0.009
316.15	0.495	0.084	0.01
316.15	0.592	0.0001	0.001
316.15	0.77	0.146	0.045
316.15	0.783	0.218	0.045
316.15	0.786	0.203	0.03
316.15	0.379	0.107	0.021
318.15	0.279	0.47	0.147
318.15	0.29	0.672	0.059
318.15	0.293	0.707	0.058
318.15	0.325	0.223	0.044
318.15	0.378	0.208	0.009
318.15	0.454	0.186	0.008
318.15	0.738	0.167	0.047
318.15	0.75	0.236	0.047
318.15	0.751	0.249	0.051

System: methanol + dimethylformamide + methylcyclohexane; phases: Liquid mixture 1, Liquid mixture 2
Fixed: Pressure, kPa = 101.325
Property: Mole fraction of methylcyclohexane (Liquid mixture 1); method: Chromatography
Property: Mole fraction of methylcyclohexane (Liquid mixture 2); method: Chromatography
Property: Mole fraction of dimethylformamide (Liquid mixture 2); method: Chromatography
Temperature, K	Mole fraction of dimethylformamide	Mole fraction of methylcyclohexane	uncertainty	Mole fraction of methylcyclohexane	uncertainty	Mole fraction of dimethylformamide	uncertainty
298.15	0	0.813	0.008	0.152	0.008	0	
298.15	0.013	0.857	0.021	0.142	0.008	0.091	
298.15	0.022	0.866	0.01	0.137	0.008	0.177	
298.15	0.039	0.874	0.01	0.137	0.008	0.285	
298.15	0.049	0.887	0.011	0.141	0.008	0.358	
298.15	0.052	0.894	0.012	0.138	0.008	0.421	
298.15	0.062	0.897	0.008	0.137	0.008	0.504	
298.15	0.064	0.901	0.008	0.137	0.008	0.547	
298.15	0.068	0.902	0.008	0.13	0.008	0.603	
298.15	0.099	0.901	0.008	0.155	0.008	0.845	
303.15	0	0.786	0.008	0.175	0.008	0	
303.15	0.017	0.802	0.012	0.164	0.008	0.106	
303.15	0.028	0.817	0.013	0.165	0.008	0.159	
303.15	0.041	0.831	0.012	0.162	0.008	0.236	
303.15	0.048	0.84	0.012	0.162	0.008	0.276	
303.15	0.058	0.848	0.011	0.156	0.008	0.349	
303.15	0.073	0.865	0.012	0.16	0.008	0.443	
303.15	0.084	0.876	0.012	0.161	0.008	0.549	
303.15	0.095	0.89	0.008	0.168	0.008	0.707	
303.15	0.118	0.882	0.009	0.177	0.008	0.823	
