Measured thermophysical data. Liquid-liquid equilibria of water + lactic acid + methyl isobutyl ketone
Source: Fluid Phase Equilib., 2014, 10.1016/j.fluid.2014.06.010
Compound 1: water, H2O, InChI=1S/H2O/h1H2, purity 99.8%
Compound 2: 2-hydroxypropanoic acid, C3H6O3, InChI=1S/C3H6O3/c1-2(4)3(5)6/h2,4H,1H3,(H,5,6), purity 98%
Compound 3: 4-methylpentan-2-one, C6H12O, InChI=1S/C6H12O/c1-5(2)4-6(3)7/h5H,4H2,1-3H3, purity 98%

System: 2-hydroxypropanoic acid; phases: Liquid, Gas
Property: Normal boiling temperature, K (Liquid); method: Closed cell (Static) method
Normal boiling temperature, K	uncertainty
398.2	0.2

System: 4-methylpentan-2-one; phases: Liquid, Gas
Property: Normal boiling temperature, K (Liquid); method: Closed cell (Static) method
Normal boiling temperature, K	uncertainty
392.3	0.2

System: 2-hydroxypropanoic acid + 4-methylpentan-2-one + water; phases: Liquid mixture 1, Liquid mixture 2
Fixed: Pressure, kPa = 101
Property: Mass fraction of 2-hydroxypropanoic acid (Liquid mixture 1); method: Titration method
Temperature, K	Mass fraction of water	Mass fraction of 2-hydroxypropanoic acid	uncertainty
298.15	1	0	
298.15	0.9925	0	
298.15	0.9605	0.0285	0.0009
298.15	0.9525	0.035	0.0011
298.15	0.9125	0.0625	0.002
298.15	0.885	0.085	0.0026
298.15	0.86	0.0875	0.0027
298.15	0.8325	0.105	0.0033
298.15	0.745	0.105	0.0033
298.15	0.67	0.11	0.0035
298.15	0.58	0.115	0.0037
298.15	0.51	0.12	0.0038
298.15	0.165	0	
298.15	0.194	0.015	0.0005
298.15	0.221	0.026	0.0008
298.15	0.2315	0.031	0.001
298.15	0.244	0.04	0.0013
298.15	0.255	0.05	0.0016
298.15	0.29	0.07	0.0022
298.15	0.31	0.11	0.0034
298.15	0.365	0.115	0.0036
303.15	1	0	
303.15	0.9955	0	
303.15	0.9765	0.0165	0.0005
303.15	0.9325	0.0495	0.0015
303.15	0.905	0.058	0.0018
303.15	0.87	0.086	0.0027
303.15	0.85	0.098	0.003
303.15	0.824	0.096	0.003
303.15	0.769	0.116	0.0036
303.15	0.719	0.131	0.0041
303.15	0.616	0.144	0.0046
303.15	0.58	0.14	0.0044
303.15	0.15	0	
303.15	0.1865	0.01	0.0004
303.15	0.2255	0.024	0.0008
303.15	0.2425	0.03	0.001
303.15	0.268	0.055	0.0017
303.15	0.325	0.105	0.0034
308.15	1	0	
308.15	0.995	0	
308.15	0.97	0.021	0.0007
308.15	0.955	0.0325	0.001
308.15	0.9175	0.06	0.0019
308.15	0.844	0.0925	0.0029
308.15	0.792	0.108	0.0034
308.15	0.72	0.145	0.0045
308.15	0.635	0.1625	0.0051
308.15	0.548	0.16	0.005
308.15	0.49	0.155	0.005
308.15	0.14	0	
308.15	0.171	0.009	0.0004
308.15	0.202	0.018	0.0006
308.15	0.239	0.03	0.0009
308.15	0.257	0.038	0.0013
308.15	0.3	0.062	0.0022
308.15	0.3475	0.0955	0.0031

System: 2-hydroxypropanoic acid + 4-methylpentan-2-one + water; phases: Liquid mixture 1, Liquid mixture 2
Fixed: Pressure, kPa = 101
Property: Mass fraction of 2-hydroxypropanoic acid (Liquid mixture 1); method: Index of refraction calibration data
Property: Mass fraction of 2-hydroxypropanoic acid (Liquid mixture 2); method: Index of refraction calibration data
Property: Mass fraction of water (Liquid mixture 2); method: Index of refraction calibration data
Temperature, K	Mass fraction of water	Mass fraction of 2-hydroxypropanoic acid	uncertainty	Mass fraction of 2-hydroxypropanoic acid	uncertainty	Mass fraction of water	uncertainty
298.15	0.9655	0.0245	0.0006	0.015	0.0004	0.194	
298.15	0.9525	0.035	0.0008	0.02	0.0006	0.205	
298.15	0.935	0.0485	0.0011	0.026	0.0007	0.221	
298.15	0.9125	0.0625	0.0015	0.031	0.0008	0.2315	
298.15	0.8825	0.085	0.002	0.04	0.0012	0.244	
298.15	0.8325	0.105	0.0025	0.05	0.0016	0.255	
303.15	0.985	0.0095	0.0003	0.006	0.0003	0.174	
303.15	0.9765	0.0165	0.0004	0.01	0.0004	0.1865	
303.15	0.9655	0.024	0.0006	0.014	0.0005	0.203	
303.15	0.936	0.0465	0.0011	0.024	0.0006	0.2255	
303.15	0.9125	0.0595	0.0014	0.03	0.0008	0.2425	
303.15	0.878	0.079	0.0019	0.039	0.0011	0.2575	
308.15	0.955	0.0325	0.0008	0.016	0.0005	0.219	
308.15	0.941	0.0455	0.0011	0.023	0.0006	0.227	
308.15	0.923	0.0565	0.0013	0.03	0.0007	0.239	
308.15	0.8955	0.075	0.0018	0.038	0.0009	0.257	
308.15	0.834	0.095	0.0022	0.054	0.0013	0.281	
308.15	0.792	0.108	0.0025	0.062	0.0015	0.3	
