Measured thermophysical data. A quasi-ternary wet residue method applied to solid-liquid equilibrium systems
Source: Fluid Phase Equilib., 2018, 10.1016/j.fluid.2017.10.014
Compound 1: D-xylose, C5H10O5, InChI=1S/C5H10O5/c6-1-3(8)5(10)4(9)2-7/h1,3-5,7-10H,2H2/t3-,4+,5+/m0/s1, purity 99.5%
Compound 2: L-arabinose, C5H10O5, InChI=1S/C5H10O5/c6-1-3(8)5(10)4(9)2-7/h1,3-5,7-10H,2H2/t3-,4-,5+/m0/s1, purity 99.3%
Compound 3: water, H2O, InChI=1S/H2O/h1H2, purity 99.8%

System: D-xylose + L-arabinose + water; phases: Liquid, Crystal of intercomponent compound 1
Fixed: Pressure, kPa = 101
Property: Mass fraction of D-xylose (Liquid); method: Index of refraction calibration data
Temperature, K	Mass fraction of L-arabinose	Mass fraction of D-xylose	uncertainty
273.8	0.1769	0.3291	0.04
278.8	0.1908	0.3467	0.04
284.4	0.2082	0.3681	0.04
