Measured thermophysical data. Liquid-liquid phase equilibrium of (piperidinium-based ionic liquid + an alcohol)  binary systems and modelling with NRHB and PCP-SAFT
Source: Fluid Phase Equilib., 2011, 10.1016/j.fluid.2011.03.005
Compound 1: 1-methyl-1-propylpiperidinium bis(trifluoromethylsulfonyl)imide, C11H20F6N2O4S2, InChI=1S/C9H20N.C2F6NO4S2/c1-3-7-10(2)8-5-4-6-9-10;3-1(4,5)14(10,11)9-15(12,13)2(6,7)8/h3-9H2,1-2H3;/q+1;-1, purity 99%
Compound 2: pentan-1-ol, C5H12O, InChI=1S/C5H12O/c1-2-3-4-5-6/h6H,2-5H2,1H3, purity 99%
Compound 3: hexan-1-ol, C6H14O, InChI=1S/C6H14O/c1-2-3-4-5-6-7/h7H,2-6H2,1H3, purity 99%
Compound 4: heptan-1-ol, C7H16O, InChI=1S/C7H16O/c1-2-3-4-5-6-7-8/h8H,2-7H2,1H3, purity 99%
Compound 5: octan-1-ol, C8H18O, InChI=1S/C8H18O/c1-2-3-4-5-6-7-8-9/h9H,2-8H2,1H3, purity 99%
Compound 6: decan-1-ol, C10H22O, InChI=1S/C10H22O/c1-2-3-4-5-6-7-8-9-10-11/h11H,2-10H2,1H3, purity 99%
Compound 7: 1-undecanol, C11H24O, InChI=1S/C11H24O/c1-2-3-4-5-6-7-8-9-10-11-12/h12H,2-11H2,1H3, purity 99%
Compound 8: nonan-1-ol, C9H20O, InChI=1S/C9H20O/c1-2-3-4-5-6-7-8-9-10/h10H,2-9H2,1H3, purity 99%

System: 1-methyl-1-propylpiperidinium bis(trifluoromethylsulfonyl)imide; phases: Crystal, Liquid, Air at 1 atmosphere
Property: Normal melting temperature, K (Crystal); method: DTA
Normal melting temperature, K	uncertainty
285.7	0.4

System: 1-methyl-1-propylpiperidinium bis(trifluoromethylsulfonyl)imide; phases: Crystal, Liquid, Air at 1 atmosphere
Property: Molar enthalpy of transition or fusion, kJ/mol (Crystal); method: DSC
Molar enthalpy of transition or fusion, kJ/mol	uncertainty
25.6	0.7

System: 1-methyl-1-propylpiperidinium bis(trifluoromethylsulfonyl)imide; phases: Liquid
Fixed: Pressure, kPa = 101.325
Property: Mass density, kg/m3 (Liquid); method: Vibrating tube method
Temperature, K	Mass density, kg/m3	uncertainty
293.15	1414.1	0.6
298.15	1409.6	0.6
303.15	1405.3	0.6
308.15	1401	0.6
313.15	1396.6	0.6
318.15	1392.3	0.6
323.15	1388	0.6
328.15	1383.7	0.6
333.15	1379.4	0.6
338.15	1375.1	0.6
343.15	1370.9	0.6
348.15	1366.6	0.6
353.15	1362.3	0.5
358.15	1358.1	0.5
363.15	1353.9	0.5

System: pentan-1-ol + 1-methyl-1-propylpiperidinium bis(trifluoromethylsulfonyl)imide; phases: Liquid mixture 1, Liquid mixture 2
Fixed: Pressure, kPa = 101
Property: Liquid-liquid equilibrium temperature, K (Liquid mixture 1); method: VISOBS
Mole fraction of 1-methyl-1-propylpiperidinium bis(trifluoromethylsulfonyl)imide	Liquid-liquid equilibrium temperature, K	uncertainty
0.0004	292.4	0.6
0.0056	299.1	0.7
0.0075	305.4	1.1
0.0106	312.9	0.8
0.0145	318.4	0.6
0.0184	322.5	0.4
0.0258	327.3	0.3
0.0364	330.8	0.3
0.0476	333.1	0.3
0.059	334	0.3
0.0699	335	0.3
0.0918	335.6	0.3
0.1251	335.5	0.3
0.1608	335.2	0.3
0.1901	334.7	0.3
0.2616	332.2	0.3
0.3194	328.8	0.3
0.3698	324.8	0.3
0.4189	321	0.3
0.4643	316	0.3
0.5191	310	0.3
0.5502	305.1	0.3

System: hexan-1-ol + 1-methyl-1-propylpiperidinium bis(trifluoromethylsulfonyl)imide; phases: Liquid mixture 1, Liquid mixture 2
Fixed: Pressure, kPa = 101
Property: Liquid-liquid equilibrium temperature, K (Liquid mixture 1); method: VISOBS
Mole fraction of 1-methyl-1-propylpiperidinium bis(trifluoromethylsulfonyl)imide	Liquid-liquid equilibrium temperature, K	uncertainty
0.0071	320	0.7
0.0105	325.8	0.7
0.0168	335.1	0.6
0.021	340.9	0.4
0.0268	344.1	0.3
0.0372	347.3	0.3
0.0533	350.6	0.3
0.0867	352.7	0.3
0.1114	353.3	0.3
0.1632	353.1	0.3
0.1954	352.6	0.3
0.2354	351.4	0.3
0.2865	349.7	0.3
0.3284	347.8	0.3
0.3968	343	0.3
0.4244	340.3	0.3
0.4604	336.8	0.3
0.5144	332	0.3
0.5856	323.1	0.3
0.6256	318.8	0.3
0.6551	313.5	0.3

System: heptan-1-ol + 1-methyl-1-propylpiperidinium bis(trifluoromethylsulfonyl)imide; phases: Liquid mixture 1, Liquid mixture 2
Fixed: Pressure, kPa = 101
Property: Liquid-liquid equilibrium temperature, K (Liquid mixture 1); method: VISOBS
Mole fraction of 1-methyl-1-propylpiperidinium bis(trifluoromethylsulfonyl)imide	Liquid-liquid equilibrium temperature, K	uncertainty
0.0053	327.6	1.4
0.0081	337.1	0.8
0.0154	348.8	0.5
0.0325	362.3	0.4
0.0385	364.3	0.3
0.0449	366	0.3
0.0631	368.3	0.3
0.0899	369.7	0.3
0.1264	370.2	0.3
0.1585	370.1	0.3
0.1881	369.5	0.3
0.2476	368	0.3
0.3189	365	0.3
0.3852	361	0.3
0.4469	356	0.3
0.4639	354.9	0.3
0.4921	352.2	0.3
0.5229	349.1	0.3
0.5393	346.6	0.3
0.5594	344.4	0.3
0.6228	337.4	0.3
0.6402	334.8	0.3
0.6771	329.7	0.3
0.6998	325.5	0.3
0.7159	323.2	0.3
0.8035	305.3	0.3

System: octan-1-ol + 1-methyl-1-propylpiperidinium bis(trifluoromethylsulfonyl)imide; phases: Liquid mixture 1, Liquid mixture 2
Fixed: Pressure, kPa = 101
Property: Liquid-liquid equilibrium temperature, K (Liquid mixture 1); method: VISOBS
Mole fraction of 1-methyl-1-propylpiperidinium bis(trifluoromethylsulfonyl)imide	Liquid-liquid equilibrium temperature, K	uncertainty
0.0144	357.2	0.7
0.0199	366.5	0.6
0.0243	370.1	0.4
0.0268	372.4	0.5
0.0298	376.2	0.6
0.0427	380.2	0.3
0.0553	382.1	0.3
0.0602	383.7	0.3
0.0806	384.8	0.3
0.1062	385.7	0.3
0.1359	386	0.3
0.1686	385.7	0.3
0.2054	384.8	0.3
0.2453	383.9	0.3
0.2775	382	0.3
0.3108	381.2	0.3
0.343	379.9	0.3
0.3712	377.9	0.3
0.3997	376.4	0.3
0.419	375.2	0.3
0.4534	372.8	0.3
0.4822	369.7	0.3
0.545	363.3	0.3
0.5604	360.7	0.3
0.5799	358.2	0.3
0.5996	355.2	0.3
0.6477	348.3	0.3
0.7083	340.4	0.3
0.7685	332.4	0.3

System: decan-1-ol + 1-methyl-1-propylpiperidinium bis(trifluoromethylsulfonyl)imide; phases: Liquid mixture 1, Liquid mixture 2
Fixed: Pressure, kPa = 101
Property: Liquid-liquid equilibrium temperature, K (Liquid mixture 1); method: VISOBS
Mole fraction of 1-methyl-1-propylpiperidinium bis(trifluoromethylsulfonyl)imide	Liquid-liquid equilibrium temperature, K	uncertainty
0.4051	415.6	0.3
0.4331	411.6	0.3
0.4667	408.1	0.3
0.5127	402.5	0.3
0.5504	396.3	0.3
0.5974	386.4	0.3
0.6533	374	0.3
0.7226	361.9	0.3
0.8504	340.5	0.3

System: 1-undecanol + 1-methyl-1-propylpiperidinium bis(trifluoromethylsulfonyl)imide; phases: Liquid mixture 1, Liquid mixture 2
Fixed: Pressure, kPa = 101
Property: Liquid-liquid equilibrium temperature, K (Liquid mixture 1); method: VISOBS
Mole fraction of 1-methyl-1-propylpiperidinium bis(trifluoromethylsulfonyl)imide	Liquid-liquid equilibrium temperature, K	uncertainty
0.5535	417.6	0.3
0.6094	409.2	0.3
0.6445	401.8	0.3
0.676	394.1	0.3
0.699	387.2	0.3
0.7673	370.9	0.3
0.787	365.4	0.3

System: nonan-1-ol + 1-methyl-1-propylpiperidinium bis(trifluoromethylsulfonyl)imide; phases: Liquid mixture 1, Liquid mixture 2
Fixed: Pressure, kPa = 101
Property: Liquid-liquid equilibrium temperature, K (Liquid mixture 1); method: VISOBS
Mole fraction of 1-methyl-1-propylpiperidinium bis(trifluoromethylsulfonyl)imide	Liquid-liquid equilibrium temperature, K	uncertainty
0.0194	380.3	0.5
0.0194	380.3	0.5
0.0247	385.6	0.4
0.038	393.4	0.3
0.0563	398.1	0.3
0.0725	400	0.3
0.0858	400.9	0.3
0.1044	401.8	0.3
0.1224	402.3	0.3
0.1469	402.5	0.3
0.1792	402.4	0.3
0.2127	402.2	0.3
0.2472	401.6	0.3
0.2817	400.4	0.3
0.3067	399.4	0.3
0.3343	398.1	0.3
0.3632	395.6	0.3
0.4037	392.7	0.3
0.4449	389.1	0.3
0.4861	384.2	0.3
0.5608	373.4	0.3
0.6349	364.2	0.3
0.7124	352.7	0.3
0.7881	342.6	0.3
0.847	332.6	0.3
