Measured thermophysical data. Saturated pressure measurements of 3,3,3-trifluoroprop-1-ene (R1243zf) for reduced temperatures ranging from 0.62 to 0.98
Source: Fluid Phase Equilib., 2013, 10.1016/j.fluid.2012.09.036
Compound 1: 1,1,1-trifluoro-2-propene, C3H3F3, InChI=1S/C3H3F3/c1-2-3(4,5)6/h2H,1H2, purity 99.5%

System: 1,1,1-trifluoro-2-propene; phases: Liquid, Gas
Property: Vapor or sublimation pressure, kPa (Liquid); method: Closed cell (Static) method
Temperature, K	Vapor or sublimation pressure, kPa	uncertainty
247.15	99	2
248.15	103	2
249.15	108	2
251.15	117	2
253.15	127	2
255.15	138	2
257.15	149	2
259.15	161	2
261.15	174	2
263.15	188	2
265.15	202	2
267.15	217	2
269.15	234	2
271.15	251	2
273.15	269	2
275.15	288	2
277.15	308	2
279.15	329	2
281.15	351	2
283.15	374	2
285.15	399	2
287.15	424	2
289.15	451	2
291.15	479	2
293.15	509	2
295.15	539	2
297.15	572	2
299.15	606	2
301.15	641	3
303.15	677	3
305.15	715	3
307.15	755	3
309.15	796	3
311.15	839	3
313.15	883	3
315.15	930	3
317.15	978	3
319.15	1028	3
321.15	1080	3
323.15	1133	3
325.15	1189	3
327.15	1247	3
329.15	1306	3
331.16	1369	3
333.15	1432	4
335.15	1498	4
337.15	1567	4
339.15	1638	4
341.15	1711	4
343.15	1787	4
345.15	1865	4
347.15	1945	4
349.15	2030	4
351.15	2116	5
353.15	2205	4
233.8	53	2
238.36	67	2
243.3	84	2
248.26	104	2
253.29	128	2
258.19	156	2
263.27	189	2
268.16	225	2
273.12	269	2
277.88	316	2
282.84	371	2
287.82	434	2
298.16	589	2
303.15	678	3
308.15	776	3
313.15	884	3
318.15	1003	3
323.16	1133	3
328.17	1277	3
333.13	1432	4
338.03	1598	4
343.02	1782	4
348.08	1986	4
352.94	2197	4
357.94	2432	5
363.14	2697	5
367.9	2960	6
372.86	3255	6
