Measured thermophysical data. Excess molar enthalpy of 1-alkanol + 1-octene mixtures at 298.15K Experimental results and theoretical description by means of the ERAS and TB models
Source: Fluid Phase Equilib., 2007, 10.1016/j.fluid.2007.07.063
Compound 1: oct-1-ene, C8H16, InChI=1S/C8H16/c1-3-5-7-8-6-4-2/h3H,1,4-8H2,2H3
Compound 2: propan-1-ol, C3H8O, InChI=1S/C3H8O/c1-2-3-4/h4H,2-3H2,1H3
Compound 3: butan-1-ol, C4H10O, InChI=1S/C4H10O/c1-2-3-4-5/h5H,2-4H2,1H3
Compound 4: hexan-1-ol, C6H14O, InChI=1S/C6H14O/c1-2-3-4-5-6-7/h7H,2-6H2,1H3
Compound 5: octan-1-ol, C8H18O, InChI=1S/C8H18O/c1-2-3-4-5-6-7-8-9/h9H,2-8H2,1H3
Compound 6: decan-1-ol, C10H22O, InChI=1S/C10H22O/c1-2-3-4-5-6-7-8-9-10-11/h11H,2-10H2,1H3

System: oct-1-ene; phases: Liquid
Property: Mass density, kg/m3 (Liquid); method: Pycnometric method
Temperature, K	Pressure, kPa	Mass density, kg/m3	uncertainty
298.15	101.325	710.88	0.64

System: propan-1-ol; phases: Liquid
Property: Mass density, kg/m3 (Liquid); method: Pycnometric method
Temperature, K	Pressure, kPa	Mass density, kg/m3	uncertainty
298.15	101.325	799.65	0.72

System: butan-1-ol; phases: Liquid
Property: Mass density, kg/m3 (Liquid); method: Pycnometric method
Temperature, K	Pressure, kPa	Mass density, kg/m3	uncertainty
298.15	101.325	805.71	0.73

System: hexan-1-ol; phases: Liquid
Property: Mass density, kg/m3 (Liquid); method: Pycnometric method
Temperature, K	Pressure, kPa	Mass density, kg/m3	uncertainty
298.15	101.325	815.4	0.78

System: octan-1-ol; phases: Liquid
Property: Mass density, kg/m3 (Liquid); method: Pycnometric method
Temperature, K	Pressure, kPa	Mass density, kg/m3	uncertainty
298.15	101.325	822.47	0.83

System: decan-1-ol; phases: Liquid
Property: Mass density, kg/m3 (Liquid); method: Pycnometric method
Temperature, K	Pressure, kPa	Mass density, kg/m3	uncertainty
298.15	101.325	826.31	0.74

System: propan-1-ol + oct-1-ene; phases: Liquid
Fixed: Pressure, kPa = 101
Fixed: Temperature, K = 298.15
Property: Excess molar enthalpy (molar enthalpy of mixing), kJ/mol (Liquid); method: Flow calorimetry
Mole fraction of propan-1-ol	Excess molar enthalpy (molar enthalpy of mixing), kJ/mol	uncertainty
0.094	0.4365	0.0222
0.189	0.6458	0.0327
0.302	0.7653	0.0388
0.398	0.751	0.038
0.495	0.6806	0.0345
0.593	0.5967	0.0302
0.693	0.4884	0.0248
0.799	0.3406	0.0173
0.899	0.1818	0.0093

System: butan-1-ol + oct-1-ene; phases: Liquid
Fixed: Pressure, kPa = 101
Fixed: Temperature, K = 298.15
Property: Excess molar enthalpy (molar enthalpy of mixing), kJ/mol (Liquid); method: Flow calorimetry
Mole fraction of butan-1-ol	Excess molar enthalpy (molar enthalpy of mixing), kJ/mol	uncertainty
0.095	0.3972	0.0202
0.209	0.5864	0.0297
0.304	0.6447	0.0327
0.4	0.6249	0.0317
0.497	0.553	0.028
0.595	0.4574	0.0232
0.702	0.3481	0.0177
0.8	0.2362	0.012
0.899	0.1195	0.0062

System: hexan-1-ol + oct-1-ene; phases: Liquid
Fixed: Pressure, kPa = 101
Fixed: Temperature, K = 298.15
Property: Excess molar enthalpy (molar enthalpy of mixing), kJ/mol (Liquid); method: Flow calorimetry
Mole fraction of hexan-1-ol	Excess molar enthalpy (molar enthalpy of mixing), kJ/mol	uncertainty
0.096	0.3353	0.017
0.192	0.4399	0.0223
0.307	0.5019	0.0255
0.403	0.4919	0.0249
0.5	0.4439	0.0225
0.598	0.3814	0.0194
0.697	0.3029	0.0154
0.802	0.2056	0.0105
0.9	0.0973	0.0051

System: oct-1-ene + octan-1-ol; phases: Liquid
Fixed: Pressure, kPa = 101
Fixed: Temperature, K = 298.15
Property: Excess molar enthalpy (molar enthalpy of mixing), kJ/mol (Liquid); method: Flow calorimetry
Mole fraction of octan-1-ol	Excess molar enthalpy (molar enthalpy of mixing), kJ/mol	uncertainty
0.097	0.2924	0.0149
0.194	0.3914	0.0199
0.292	0.4348	0.0221
0.391	0.432	0.0219
0.49	0.3942	0.02
0.6	0.3406	0.0173
0.699	0.2639	0.0134
0.799	0.1795	0.0092
0.899	0.0788	0.0041

System: oct-1-ene + decan-1-ol; phases: Liquid
Fixed: Pressure, kPa = 101
Fixed: Temperature, K = 298.15
Property: Excess molar enthalpy (molar enthalpy of mixing), kJ/mol (Liquid); method: Flow calorimetry
Mole fraction of decan-1-ol	Excess molar enthalpy (molar enthalpy of mixing), kJ/mol	uncertainty
0.097	0.2691	0.0137
0.195	0.3659	0.0186
0.293	0.3998	0.0203
0.406	0.3864	0.0196
0.504	0.3491	0.0177
0.602	0.3012	0.0153
0.7	0.2418	0.0123
0.8	0.1659	0.0085
0.902	0.0761	0.004
