Measured thermophysical data. Acoustic investigation of choline chloride based ionic liquids analogues
Source: Fluid Phase Equilib., 2014, 10.1016/j.fluid.2014.08.017
Compound 1: urea, CH4N2O, InChI=1S/CH4N2O/c2-1(3)4/h(H4,2,3,4), purity 98%
Compound 2: choline chloride, C5H14ClNO, InChI=1S/C5H14NO.ClH/c1-6(2,3)4-5-7;/h7H,4-5H2,1-3H3;1H/q+1;/p-1, purity 98%
Compound 3: glycerol, C3H8O3, InChI=1S/C3H8O3/c4-1-3(6)2-5/h3-6H,1-2H2, purity 98%
Compound 4: 1,2-ethanediol, C2H6O2, InChI=1S/C2H6O2/c3-1-2-4/h3-4H,1-2H2, purity 98%
Compound 5: D-fructose, C6H12O6, InChI=1S/C6H12O6/c7-1-3(9)5(11)6(12)4(10)2-8/h3,5-9,11-12H,1-2H2/t3-,5-,6-/m1/s1, purity 98%
Compound 6: D-glucose, C6H12O6, InChI=1S/C6H12O6/c7-1-3(9)5(11)6(12)4(10)2-8/h1,3-6,8-12H,2H2/t3-,4+,5+,6+/m0/s1, purity 98%

System: urea + choline chloride; phases: Liquid, Crystal of unknown type
Property: Solid-liquid equilibrium temperature, K (Liquid); method: DTA
Mole fraction of choline chloride	Pressure, kPa	Solid-liquid equilibrium temperature, K	uncertainty
0.333	100	285.2	0.4

System: urea + choline chloride; phases: Liquid
Property: Viscosity, Pa*s (Liquid); method: Cone and plate viscometry
Mole fraction of choline chloride	Temperature, K	Pressure, kPa	Viscosity, Pa*s	uncertainty
0.333	298.15	100	0.75	0.04

System: urea + choline chloride; phases: Liquid
Fixed: Mole fraction of choline chloride = 0.333
Fixed: Pressure, kPa = 10
Property: Mass density, kg/m3 (Liquid); method: Vibrating tube method
Temperature, K	Mass density, kg/m3	uncertainty
293.15	1222	12
303.15	1216	12
313.15	1210	12
323.15	1205	12
333.15	1200	12
343.15	1194	12
353.15	1189	12
298.15	1212	12

System: urea + choline chloride; phases: Liquid, Air at 1 atmosphere
Fixed: Mole fraction of choline chloride = 0.333
Property: Surface tension liquid-gas, N/m (Liquid); method: Ring tensiometer
Temperature, K	Surface tension liquid-gas, N/m	uncertainty
293.15	0.0572	0.000974
303.15	0.0549	0.000943
313.15	0.0527	0.000914
323.15	0.0504	0.000885
333.15	0.0481	0.000855
343.15	0.0459	0.000827
353.15	0.0436	0.000798

System: urea + choline chloride; phases: Liquid
Fixed: Pressure, kPa = 100
Fixed: Mole fraction of choline chloride = 0.333
Property: Speed of sound, m/s (Liquid); method: Linear variable-path acoustic interferometer
Temperature, K	Speed of sound, m/s	uncertainty
293.15	2190	4
303.15	2138	4
313.15	2080	4
323.15	2030	4
333.15	1980	4
343.15	1930	3
353.15	1885	3

System: glycerol + choline chloride; phases: Liquid
Property: Viscosity, Pa*s (Liquid); method: Cone and plate viscometry
Mole fraction of choline chloride	Temperature, K	Pressure, kPa	Viscosity, Pa*s	uncertainty
0.333	298.15	100	0.259	0.009

System: glycerol + choline chloride; phases: Liquid
Fixed: Mole fraction of choline chloride = 0.333
Fixed: Pressure, kPa = 100
Property: Mass density, kg/m3 (Liquid); method: Vibrating tube method
Temperature, K	Mass density, kg/m3	uncertainty
293.15	1217	12
303.15	1211	12
313.15	1206	12
323.15	1201	12
333.15	1196	12
343.15	1190	12
353.15	1184	12
298.15	1181	12

System: glycerol + choline chloride; phases: Liquid, Air at 1 atmosphere
Fixed: Mole fraction of choline chloride = 0.333
Property: Surface tension liquid-gas, N/m (Liquid); method: Ring tensiometer
Temperature, K	Surface tension liquid-gas, N/m	uncertainty
293.15	0.0578	0.001
303.15	0.0569	0.001
313.15	0.0559	0.001
323.15	0.055	0.0009
333.15	0.0541	0.0009
343.15	0.0532	0.0009
353.15	0.0523	0.0009

System: glycerol + choline chloride; phases: Liquid
Fixed: Pressure, kPa = 100
Fixed: Mole fraction of choline chloride = 0.333
Property: Speed of sound, m/s (Liquid); method: Linear variable-path acoustic interferometer
Temperature, K	Speed of sound, m/s	uncertainty
293.15	2202	4
303.15	2080	4
313.15	1976	4
323.15	1872	4
333.15	1768	4
343.15	1663	4
353.15	1559	4

System: choline chloride + 1,2-ethanediol; phases: Liquid, Crystal
Property: Solid-liquid equilibrium temperature, K (Liquid); method: DTA
Mole fraction of choline chloride	Pressure, kPa	Solid-liquid equilibrium temperature, K	uncertainty
0.333	100	206.3	0.4

System: choline chloride + 1,2-ethanediol; phases: Liquid
Property: Viscosity, Pa*s (Liquid); method: Cone and plate viscometry
Mole fraction of choline chloride	Temperature, K	Pressure, kPa	Viscosity, Pa*s	uncertainty
0.333	298.15	100	0.041	0.001

System: choline chloride + 1,2-ethanediol; phases: Liquid
Fixed: Mole fraction of choline chloride = 0.333
Fixed: Pressure, kPa = 100
Property: Mass density, kg/m3 (Liquid); method: Vibrating tube method
Temperature, K	Mass density, kg/m3	uncertainty
293.15	1142	12
303.15	1136	12
313.15	1131	12
323.15	1125	12
333.15	1119	12
343.15	1113	12
353.15	1107	12
298.15	1138	12

System: choline chloride + 1,2-ethanediol; phases: Liquid, Air at 1 atmosphere
Fixed: Mole fraction of choline chloride = 0.333
Property: Surface tension liquid-gas, N/m (Liquid); method: Ring tensiometer
Temperature, K	Surface tension liquid-gas, N/m	uncertainty
293.15	0.0493	0.0009
303.15	0.0484	0.0009
313.15	0.0475	0.0008
323.15	0.0475	0.0008
333.15	0.0457	0.0008
343.15	0.045	0.0008
353.15	0.0438	0.0008

System: choline chloride + 1,2-ethanediol; phases: Liquid
Fixed: Pressure, kPa = 100
Fixed: Mole fraction of choline chloride = 0.333
Property: Speed of sound, m/s (Liquid); method: Linear variable-path acoustic interferometer
Temperature, K	Speed of sound, m/s	uncertainty
293.15	1970	4
303.15	1914	3
313.15	1882	3
323.15	1848	3
333.15	1809	3
343.15	1776	3
353.15	1746	3

System: D-fructose + choline chloride; phases: Liquid
Fixed: Pressure, kPa = 100
Fixed: Mole fraction of choline chloride = 0.667
Property: Speed of sound, m/s (Liquid); method: Linear variable-path acoustic interferometer
Temperature, K	Speed of sound, m/s	uncertainty
298.15	1953	3
308.15	1918	3
318.15	1883	3
328.15	1848	3
338.15	1813	3
348.15	1777	3
358.15	1742	3

System: D-glucose + choline chloride; phases: Liquid
Fixed: Pressure, kPa = 100
Fixed: Mole fraction of choline chloride = 0.667
Property: Speed of sound, m/s (Liquid); method: Linear variable-path acoustic interferometer
Temperature, K	Speed of sound, m/s	uncertainty
298.15	2932	5
308.15	2757	5
318.15	2581	5
328.15	2405	5
338.15	2229	5
348.15	2053	5
358.15	1877	5
