Measured thermophysical data. A systematic study on volumetric and transport properties of binary systems 1-propanol + n-hexadecane, 1-butanol + n-hexadecane and 1-propanol + ethyl oleate at different temperatures: Experimental and modeling
Source: Fluid Phase Equilib., 2018, 10.1016/j.fluid.2018.05.028
Compound 1: butan-1-ol, C4H10O, InChI=1S/C4H10O/c1-2-3-4-5/h5H,2-4H2,1H3, purity 99.5%
Compound 2: propan-1-ol, C3H8O, InChI=1S/C3H8O/c1-2-3-4/h4H,2-3H2,1H3, purity 99.5%
Compound 3: ethyl (Z)-9-octadeceneoate, C20H38O2, InChI=1S/C20H38O2/c1-3-5-6-7-8-9-10-11-12-13-14-15-16-17-18-19-20(21)22-4-2/h11-12H,3-10,13-19H2,1-2H3/b12-11-, purity 98%
Compound 4: hexadecane, C16H34, InChI=1S/C16H34/c1-3-5-7-9-11-13-15-16-14-12-10-8-6-4-2/h3-16H2,1-2H3, purity 99%

System: butan-1-ol; phases: Liquid
Fixed: Pressure, kPa = 101
Property: Mass density, kg/m3 (Liquid); method: Vibrating tube method
Temperature, K	Mass density, kg/m3	uncertainty
298.15	805.98	0.81
303.15	802.13	0.81
308.15	798.25	0.81

System: butan-1-ol; phases: Liquid
Fixed: Pressure, kPa = 101
Property: Viscosity, Pa*s (Liquid); method: Concentric cylinders viscometry
Temperature, K	Viscosity, Pa*s	uncertainty
298.15	0.0025306	1.43e-05
303.15	0.0022321	1.34e-05
308.15	0.0019745	1.26e-05

System: butan-1-ol; phases: Liquid
Fixed: Pressure, kPa = 101
Property: Speed of sound, m/s (Liquid); method: Single path-length method
Temperature, K	Speed of sound, m/s	uncertainty
298.15	1239.62	0.51
303.15	1222.76	0.51
308.15	1206.02	0.51

System: butan-1-ol; phases: Liquid
Fixed: Pressure, kPa = 101
Property: Refractive index (Na D-line) (Liquid); method: Standard Abbe refractometry
Temperature, K	Refractive index (Na D-line)	uncertainty
298.15	1.3979	0.0028
303.15	1.3959	0.0028
308.15	1.3938	0.0028

System: propan-1-ol; phases: Liquid
Fixed: Pressure, kPa = 101
Property: Mass density, kg/m3 (Liquid); method: Vibrating tube method
Temperature, K	Mass density, kg/m3	uncertainty
298.15	799.93	0.81
303.15	795.89	0.81
308.15	791.82	0.81

System: propan-1-ol; phases: Liquid
Fixed: Pressure, kPa = 101
Property: Viscosity, Pa*s (Liquid); method: Concentric cylinders viscometry
Temperature, K	Viscosity, Pa*s	uncertainty
298.15	0.0019262	1.24e-05
303.15	0.0017164	1.18e-05
308.15	0.0015325	1.12e-05

System: propan-1-ol; phases: Liquid
Fixed: Pressure, kPa = 101
Property: Speed of sound, m/s (Liquid); method: Single path-length method
Temperature, K	Speed of sound, m/s	uncertainty
298.15	1205.74	0.51
303.15	1188.64	0.51
308.15	1171.64	0.51

System: propan-1-ol; phases: Liquid
Fixed: Pressure, kPa = 101
Property: Refractive index (Na D-line) (Liquid); method: Standard Abbe refractometry
Temperature, K	Refractive index (Na D-line)	uncertainty
298.15	1.3831	0.0028
303.15	1.381	0.0028
308.15	1.3789	0.0028

System: ethyl (Z)-9-octadeceneoate; phases: Liquid
Fixed: Pressure, kPa = 101
Property: Mass density, kg/m3 (Liquid); method: Vibrating tube method
Temperature, K	Mass density, kg/m3	uncertainty
298.15	865.23	1.02
303.15	861.6	1.01
308.15	857.97	1.01

System: ethyl (Z)-9-octadeceneoate; phases: Liquid
Fixed: Pressure, kPa = 101
Property: Viscosity, Pa*s (Liquid); method: Concentric cylinders viscometry
Temperature, K	Viscosity, Pa*s	uncertainty
298.15	0.005674	6.07e-05
303.15	0.0049989	5.37e-05
308.15	0.0044351	4.78e-05

System: ethyl (Z)-9-octadeceneoate; phases: Liquid
Fixed: Pressure, kPa = 101
Property: Speed of sound, m/s (Liquid); method: Single path-length method
Temperature, K	Speed of sound, m/s	uncertainty
298.15	1376.24	2
303.15	1358.43	2
308.15	1340.81	2

System: ethyl (Z)-9-octadeceneoate; phases: Liquid
Fixed: Pressure, kPa = 101
Property: Refractive index (Na D-line) (Liquid); method: Standard Abbe refractometry
Temperature, K	Refractive index (Na D-line)	uncertainty
298.15	1.4481	0.0028
303.15	1.4461	0.0028
308.15	1.4441	0.0028

System: hexadecane; phases: Liquid
Fixed: Pressure, kPa = 101
Property: Mass density, kg/m3 (Liquid); method: Vibrating tube method
Temperature, K	Mass density, kg/m3	uncertainty
298.15	769.87	0.83
303.15	766.4	0.83
308.15	762.95	0.83

System: hexadecane; phases: Liquid
Fixed: Pressure, kPa = 101
Property: Viscosity, Pa*s (Liquid); method: Concentric cylinders viscometry
Temperature, K	Viscosity, Pa*s	uncertainty
298.15	0.0030355	2.07e-05
303.15	0.0027084	1.9e-05
308.15	0.0024319	1.75e-05

System: hexadecane; phases: Liquid
Fixed: Pressure, kPa = 101
Property: Speed of sound, m/s (Liquid); method: Single path-length method
Temperature, K	Speed of sound, m/s	uncertainty
298.15	1338.49	1.01
303.15	1319.81	1.01
308.15	1301.34	1.01

System: hexadecane; phases: Liquid
Fixed: Pressure, kPa = 101
Property: Refractive index (Na D-line) (Liquid); method: Standard Abbe refractometry
Temperature, K	Refractive index (Na D-line)	uncertainty
298.15	1.4318	0.0028
303.15	1.4296	0.0028
308.15	1.4275	0.0028

System: propan-1-ol + hexadecane; phases: Liquid
Fixed: Pressure, kPa = 101
Property: Mass density, kg/m3 (Liquid); method: Vibrating tube method
Temperature, K	Mole fraction of propan-1-ol	Mass density, kg/m3	uncertainty
293.15	0	773.35	0.83
293.15	0.1	773.48	0.83
293.15	0.2	774.05	0.82
293.15	0.3	774.88	0.82
293.15	0.4	776.01	0.82
293.15	0.5	777.51	0.82
293.15	0.6	779.56	0.82
293.15	0.7	782.34	0.81
293.15	0.8	786.35	0.81
293.15	0.9	792.43	0.81
293.15	1	803.95	0.81
298.15	0	769.87	0.83
298.15	0.1	769.92	0.83
298.15	0.2	770.46	0.82
298.15	0.3	771.25	0.82
298.15	0.4	772.34	0.82
298.15	0.5	773.81	0.82
298.15	0.6	775.81	0.82
298.15	0.7	778.55	0.81
298.15	0.8	782.5	0.81
298.15	0.9	788.52	0.81
298.15	1	799.93	0.81
303.15	0	766.4	0.83
303.15	0.1	766.38	0.83
303.15	0.2	766.87	0.82
303.15	0.3	767.62	0.82
303.15	0.4	768.67	0.82
303.15	0.5	770.09	0.82
303.15	0.6	772.04	0.82
303.15	0.7	774.73	0.81
303.15	0.8	778.64	0.81
303.15	0.9	784.59	0.81
303.15	1	795.89	0.81
308.15	0	762.95	0.83
308.15	0.1	762.83	0.83
308.15	0.2	763.27	0.82
308.15	0.3	763.98	0.82
308.15	0.4	764.98	0.82
308.15	0.5	766.36	0.82
308.15	0.6	768.26	0.82
308.15	0.7	770.89	0.82
308.15	0.8	774.74	0.81
308.15	0.9	780.63	0.81
308.15	1	791.82	0.81
313.15	0	759.49	0.83
313.15	0.1	759.29	0.83
313.15	0.2	759.67	0.82
313.15	0.3	760.33	0.82
313.15	0.4	761.29	0.82
313.15	0.5	762.61	0.82
313.15	0.6	764.45	0.82
313.15	0.7	767.03	0.82
313.15	0.8	770.82	0.81
313.15	0.9	776.63	0.81
313.15	1	787.71	0.81
318.15	0	756.05	0.83
318.15	0.1	755.74	0.83
318.15	0.2	756.07	0.82
318.15	0.3	756.67	0.82
318.15	0.4	757.58	0.82
318.15	0.5	758.84	0.82
318.15	0.6	760.62	0.82
318.15	0.7	763.14	0.82
318.15	0.8	766.85	0.81
318.15	0.9	772.59	0.81
318.15	1	783.56	0.81
323.15	0	752.61	0.83
323.15	0.1	752.19	0.83
323.15	0.2	752.45	0.82
323.15	0.3	753	0.82
323.15	0.4	753.84	0.82
323.15	0.5	755.05	0.82
323.15	0.6	756.76	0.82
323.15	0.7	759.22	0.82
323.15	0.8	762.85	0.81
323.15	0.9	768.51	0.81
323.15	1	779.36	0.81
328.15	0	749.18	0.83
328.15	0.1	748.64	0.83
328.15	0.2	748.83	0.82
328.15	0.3	749.32	0.82
328.15	0.4	750.09	0.82
328.15	0.5	751.23	0.82
328.15	0.6	752.86	0.82
328.15	0.7	755.25	0.82
328.15	0.8	758.8	0.81
328.15	0.9	764.37	0.81
328.15	1	775.1	0.81
333.15	0	745.74	0.83
333.15	0.1	745.09	0.83
333.15	0.2	745.2	0.82
333.15	0.3	745.61	0.82
333.15	0.4	746.31	0.82
333.15	0.5	747.38	0.82
333.15	0.6	748.93	0.82
333.15	0.7	751.24	0.82
333.15	0.8	754.7	0.81
333.15	0.9	760.17	0.81
333.15	1	770.78	0.81
338.15	0	742.31	0.83
338.15	0.1	741.53	0.83
338.15	0.2	741.55	0.82
338.15	0.3	741.89	0.82
338.15	0.4	742.52	0.82
338.15	0.5	743.5	0.82
338.15	0.6	744.97	0.82
338.15	0.7	747.19	0.82
338.15	0.8	750.55	0.81
338.15	0.9	755.91	0.81
338.15	1	766.4	0.81
343.15	0	738.88	0.83
343.15	0.1	737.98	0.83
343.15	0.2	737.89	0.83
343.15	0.3	738.15	0.82
343.15	0.4	738.69	0.82
343.15	0.5	739.59	0.82
343.15	0.6	740.96	0.82
343.15	0.7	743.08	0.82
343.15	0.8	746.33	0.82
343.15	0.9	751.58	0.81
343.15	1	761.93	0.81

System: propan-1-ol + hexadecane; phases: Liquid
Fixed: Pressure, kPa = 101
Property: Viscosity, Pa*s (Liquid); method: Concentric cylinders viscometry
Temperature, K	Mole fraction of propan-1-ol	Viscosity, Pa*s	uncertainty
293.15	0	0.0034079	2.27e-05
293.15	0.1	0.0032135	2.11e-05
293.15	0.2	0.0030929	1.99e-05
293.15	0.3	0.0029901	1.89e-05
293.15	0.4	0.0029165	1.8e-05
293.15	0.5	0.0028447	1.73e-05
293.15	0.6	0.0027755	1.66e-05
293.15	0.7	0.002671	1.58e-05
293.15	0.8	0.0025413	1.49e-05
293.15	0.9	0.0023881	1.41e-05
293.15	1	0.002147	1.31e-05
298.15	0	0.0030355	2.07e-05
298.15	0.1	0.002858	1.92e-05
298.15	0.2	0.0027538	1.82e-05
298.15	0.3	0.0026654	1.74e-05
298.15	0.4	0.0025965	1.66e-05
298.15	0.5	0.0025263	1.59e-05
298.15	0.6	0.0024635	1.53e-05
298.15	0.7	0.0023739	1.47e-05
298.15	0.8	0.0022641	1.4e-05
298.15	0.9	0.0021312	1.33e-05
298.15	1	0.0019262	1.24e-05
303.15	0	0.0027084	1.9e-05
303.15	0.1	0.0025496	1.77e-05
303.15	0.2	0.0024502	1.68e-05
303.15	0.3	0.002376	1.6e-05
303.15	0.4	0.0023136	1.54e-05
303.15	0.5	0.0022444	1.48e-05
303.15	0.6	0.0021869	1.43e-05
303.15	0.7	0.0021079	1.37e-05
303.15	0.8	0.0020121	1.31e-05
303.15	0.9	0.0018902	1.25e-05
303.15	1	0.0017164	1.18e-05
308.15	0	0.0024319	1.75e-05
308.15	0.1	0.0022876	1.64e-05
308.15	0.2	0.0022009	1.56e-05
308.15	0.3	0.0021304	1.49e-05
308.15	0.4	0.0020725	1.44e-05
308.15	0.5	0.0020099	1.38e-05
308.15	0.6	0.0019516	1.34e-05
308.15	0.7	0.0018804	1.29e-05
308.15	0.8	0.0017953	1.24e-05
308.15	0.9	0.0016873	1.18e-05
308.15	1	0.0015325	1.12e-05
313.15	0	0.0021994	1.63e-05
313.15	0.1	0.0020674	1.53e-05
313.15	0.2	0.0019888	1.46e-05
313.15	0.3	0.0019252	1.4e-05
313.15	0.4	0.0018707	1.35e-05
313.15	0.5	0.0018116	1.31e-05
313.15	0.6	0.0017561	1.26e-05
313.15	0.7	0.0016911	1.22e-05
313.15	0.8	0.001614	1.18e-05
313.15	0.9	0.0015155	1.13e-05
313.15	1	0.0013786	1.08e-05
318.15	0	0.0019964	1.53e-05
318.15	0.1	0.0018737	1.44e-05
318.15	0.2	0.0017999	1.38e-05
318.15	0.3	0.0017427	1.33e-05
318.15	0.4	0.00169	1.28e-05
318.15	0.5	0.0016339	1.24e-05
318.15	0.6	0.0015801	1.2e-05
318.15	0.7	0.0015192	1.16e-05
318.15	0.8	0.001448	1.12e-05
318.15	0.9	0.0013569	1.08e-05
318.15	1	0.0012337	1.04e-05
323.15	0	0.0018226	1.44e-05
323.15	0.1	0.0017083	1.36e-05
323.15	0.2	0.0016391	1.31e-05
323.15	0.3	0.0015871	1.26e-05
323.15	0.4	0.0015368	1.22e-05
323.15	0.5	0.0014835	1.18e-05
323.15	0.6	0.0014316	1.15e-05
323.15	0.7	0.0013747	1.12e-05
323.15	0.8	0.0013084	1.08e-05
323.15	0.9	0.001223	1.05e-05
323.15	1	0.0011118	1.01e-05
328.15	0	0.0016714	1.37e-05
328.15	0.1	0.0015652	1.3e-05
328.15	0.2	0.0014989	1.25e-05
328.15	0.3	0.0014515	1.21e-05
328.15	0.4	0.0014029	1.17e-05
328.15	0.5	0.0013523	1.14e-05
328.15	0.6	0.0013027	1.11e-05
328.15	0.7	0.0012484	1.08e-05
328.15	0.8	0.001186	1.05e-05
328.15	0.9	0.0011062	1.01e-05
328.15	1	0.0010045	9.8e-06
333.15	0	0.001537	1.31e-05
333.15	0.1	0.0014381	1.24e-05
333.15	0.2	0.0013746	1.19e-05
333.15	0.3	0.001331	1.16e-05
333.15	0.4	0.001284	1.13e-05
333.15	0.5	0.0012366	1.1e-05
333.15	0.6	0.0011898	1.07e-05
333.15	0.7	0.0011384	1.04e-05
333.15	0.8	0.0010792	1.02e-05
333.15	0.9	0.0010041	9.9e-06
333.15	1	0.0009109	9.6e-06
338.15	0	0.0014213	1.25e-05
338.15	0.1	0.0013285	1.19e-05
338.15	0.2	0.001266	1.15e-05
338.15	0.3	0.001226	1.12e-05
338.15	0.4	0.0011795	1.09e-05
338.15	0.5	0.0011344	1.06e-05
338.15	0.6	0.0010875	1.04e-05
338.15	0.7	0.0010388	1.01e-05
338.15	0.8	0.0009835	9.9e-06
338.15	0.9	0.0009119	9.6e-06
338.15	1	0.0008241	9.4e-06
343.15	0	0.0013164	1.21e-05
343.15	0.1	0.0012298	1.15e-05
343.15	0.2	0.0011679	1.11e-05
343.15	0.3	0.0011308	1.08e-05
343.15	0.4	0.001085	1.06e-05
343.15	0.5	0.0010423	1.03e-05
343.15	0.6	0.0009894	1.01e-05
343.15	0.7	0.0009461	9.9e-06
343.15	0.8	0.0008985	9.7e-06
343.15	0.9	0.0008305	9.4e-06
343.15	1	0.0007468	9.2e-06

System: propan-1-ol + hexadecane; phases: Liquid
Fixed: Pressure, kPa = 101
Property: Speed of sound, m/s (Liquid); method: Single path-length method
Temperature, K	Mole fraction of propan-1-ol	Speed of sound, m/s	uncertainty
293.15	0	1357.37	1.01
293.15	0.1	1349.29	0.96
293.15	0.2	1342.3	0.91
293.15	0.3	1334.87	0.86
293.15	0.4	1326.77	0.81
293.15	0.5	1317.53	0.76
293.15	0.6	1306.41	0.71
293.15	0.7	1293.15	0.66
293.15	0.8	1275.68	0.62
293.15	0.9	1252.77	0.57
293.15	1	1222.99	0.52
298.15	0	1338.49	1.01
298.15	0.1	1330.26	0.96
298.15	0.2	1323.21	0.91
298.15	0.3	1315.79	0.86
298.15	0.4	1307.7	0.81
298.15	0.5	1298.53	0.76
298.15	0.6	1287.54	0.71
298.15	0.7	1274.5	0.66
298.15	0.8	1257.38	0.62
298.15	0.9	1234.91	0.57
298.15	1	1205.74	0.52
303.15	0	1319.81	1.01
303.15	0.1	1311.41	0.96
303.15	0.2	1304.34	0.91
303.15	0.3	1296.87	0.86
303.15	0.4	1288.81	0.81
303.15	0.5	1279.7	0.76
303.15	0.6	1268.81	0.71
303.15	0.7	1255.99	0.66
303.15	0.8	1239.17	0.62
303.15	0.9	1217.15	0.57
303.15	1	1188.64	0.52
308.15	0	1301.34	1.01
308.15	0.1	1292.78	0.96
308.15	0.2	1285.63	0.91
308.15	0.3	1278.15	0.86
308.15	0.4	1270.08	0.81
308.15	0.5	1261.01	0.76
308.15	0.6	1250.21	0.71
308.15	0.7	1237.59	0.66
308.15	0.8	1221.09	0.62
308.15	0.9	1199.52	0.57
308.15	1	1171.64	0.52
313.15	0	1283.07	1.01
313.15	0.1	1274.33	0.96
313.15	0.2	1267.11	0.91
313.15	0.3	1259.58	0.86
313.15	0.4	1251.49	0.81
313.15	0.5	1242.44	0.76
313.15	0.6	1231.73	0.71
313.15	0.7	1219.29	0.66
313.15	0.8	1203.08	0.62
313.15	0.9	1181.95	0.57
313.15	1	1154.73	0.52
318.15	0	1264.98	1.01
318.15	0.1	1256.05	0.96
318.15	0.2	1248.73	0.91
318.15	0.3	1241.16	0.86
318.15	0.4	1233.04	0.81
318.15	0.5	1223.98	0.76
318.15	0.6	1213.34	0.71
318.15	0.7	1201.07	0.66
318.15	0.8	1185.14	0.62
318.15	0.9	1164.43	0.57
318.15	1	1137.89	0.52
323.15	0	1247.06	1.01
323.15	0.1	1237.94	0.96
323.15	0.2	1230.5	0.91
323.15	0.3	1222.86	0.86
323.15	0.4	1214.72	0.81
323.15	0.5	1205.63	0.76
323.15	0.6	1195.06	0.71
323.15	0.7	1182.93	0.66
323.15	0.8	1167.24	0.62
323.15	0.9	1146.96	0.57
323.15	1	1121.08	0.52
328.15	0	1229.32	1.01
328.15	0.1	1220	0.96
328.15	0.2	1212.42	0.91
328.15	0.3	1204.7	0.86
328.15	0.4	1196.53	0.81
328.15	0.5	1187.39	0.76
328.15	0.6	1176.85	0.71
328.15	0.7	1164.84	0.66
328.15	0.8	1149.39	0.62
328.15	0.9	1129.51	0.57
328.15	1	1104.3	0.52
333.15	0	1211.77	1.01
333.15	0.1	1202.23	0.96
333.15	0.2	1194.48	0.91
333.15	0.3	1186.67	0.86
333.15	0.4	1178.45	0.81
333.15	0.5	1169.24	0.76
333.15	0.6	1158.72	0.71
333.15	0.7	1146.81	0.66
333.15	0.8	1131.55	0.62
333.15	0.9	1112.06	0.57
333.15	1	1087.48	0.52
338.15	0	1194.43	1.01
338.15	0.1	1184.62	0.96
338.15	0.2	1176.7	0.91
338.15	0.3	1168.78	0.86
338.15	0.4	1160.49	0.81
338.15	0.5	1151.2	0.76
338.15	0.6	1140.65	0.71
338.15	0.7	1128.81	0.66
338.15	0.8	1113.72	0.62
338.15	0.9	1094.56	0.57
338.15	1	1070.64	0.52
343.15	0	1177.55	1.01
343.15	0.1	1167.25	0.96
343.15	0.2	1159.13	0.91
343.15	0.3	1151.08	0.86
343.15	0.4	1142.66	0.81
343.15	0.5	1133.33	0.76
343.15	0.6	1122.73	0.71
343.15	0.7	1110.9	0.66
343.15	0.8	1095.94	0.62
343.15	0.9	1077.07	0.57
343.15	1	1053.84	0.52

System: propan-1-ol + hexadecane; phases: Liquid
Fixed: Pressure, kPa = 101
Property: Refractive index (Na D-line) (Liquid); method: Standard Abbe refractometry
Temperature, K	Mole fraction of propan-1-ol	Refractive index (Na D-line)	uncertainty
293.15	0	1.434	0.0028
293.15	0.1	1.4327	0.0028
293.15	0.2	1.431	0.0028
293.15	0.3	1.4288	0.0028
293.15	0.4	1.4266	0.0028
293.15	0.5	1.4233	0.0028
293.15	0.6	1.4196	0.0028
293.15	0.7	1.4148	0.0028
293.15	0.8	1.4084	0.0028
293.15	0.9	1.3993	0.0028
293.15	1	1.3852	0.0028
298.15	0	1.4318	0.0028
298.15	0.1	1.4305	0.0028
298.15	0.2	1.4288	0.0028
298.15	0.3	1.4266	0.0028
298.15	0.4	1.4244	0.0028
298.15	0.5	1.4211	0.0028
298.15	0.6	1.4174	0.0028
298.15	0.7	1.4127	0.0028
298.15	0.8	1.4062	0.0028
298.15	0.9	1.3972	0.0028
298.15	1	1.3831	0.0028
303.15	0	1.4296	0.0028
303.15	0.1	1.4284	0.0028
303.15	0.2	1.4266	0.0028
303.15	0.3	1.4244	0.0028
303.15	0.4	1.4222	0.0028
303.15	0.5	1.4189	0.0028
303.15	0.6	1.4152	0.0028
303.15	0.7	1.4105	0.0028
303.15	0.8	1.4041	0.0028
303.15	0.9	1.3951	0.0028
303.15	1	1.381	0.0028
308.15	0	1.4275	0.0028
308.15	0.1	1.4262	0.0028
308.15	0.2	1.4245	0.0028
308.15	0.3	1.4223	0.0028
308.15	0.4	1.42	0.0028
308.15	0.5	1.4167	0.0028
308.15	0.6	1.4131	0.0028
308.15	0.7	1.4083	0.0028
308.15	0.8	1.4019	0.0028
308.15	0.9	1.3929	0.0028
308.15	1	1.3789	0.0028
313.15	0	1.4254	0.0028
313.15	0.1	1.4241	0.0028
313.15	0.2	1.4223	0.0028
313.15	0.3	1.4201	0.0028
313.15	0.4	1.4179	0.0028
313.15	0.5	1.4145	0.0028
313.15	0.6	1.4109	0.0028
313.15	0.7	1.4061	0.0028
313.15	0.8	1.3998	0.0028
313.15	0.9	1.3908	0.0028
313.15	1	1.3768	0.0028
318.15	0	1.4233	0.0028
318.15	0.1	1.4219	0.0028
318.15	0.2	1.4201	0.0028
318.15	0.3	1.4179	0.0028
318.15	0.4	1.4156	0.0028
318.15	0.5	1.4123	0.0028
318.15	0.6	1.4087	0.0028
318.15	0.7	1.4038	0.0028
318.15	0.8	1.3976	0.0028
318.15	0.9	1.3885	0.0028
318.15	1	1.3747	0.0028
323.15	0	1.4211	0.0028
323.15	0.1	1.4197	0.0028
323.15	0.2	1.4179	0.0028
323.15	0.3	1.4157	0.0028
323.15	0.4	1.4134	0.0028
323.15	0.5	1.41	0.0028
323.15	0.6	1.4064	0.0028
323.15	0.7	1.4016	0.0028
323.15	0.8	1.3952	0.0028
323.15	0.9	1.3863	0.0028
323.15	1	1.3726	0.0028
328.15	0	1.419	0.0028
328.15	0.1	1.4176	0.0028
328.15	0.2	1.4157	0.0028
328.15	0.3	1.4135	0.0028
328.15	0.4	1.4112	0.0028
328.15	0.5	1.4077	0.0028
328.15	0.6	1.4041	0.0028
328.15	0.7	1.3993	0.0028
328.15	0.8	1.393	0.0028
328.15	0.9	1.3841	0.0028
328.15	1	1.3704	0.0028
333.15	0	1.4169	0.0028
333.15	0.1	1.4154	0.0028
333.15	0.2	1.4135	0.0028
333.15	0.3	1.4113	0.0028
333.15	0.4	1.4089	0.0028
333.15	0.5	1.4054	0.0028
333.15	0.6	1.4018	0.0028
333.15	0.7	1.397	0.0028
333.15	0.8	1.3907	0.0028
333.15	0.9	1.3818	0.0028
333.15	1	1.3682	0.0028
338.15	0	1.4149	0.0028
338.15	0.1	1.4133	0.0028
338.15	0.2	1.4113	0.0028
338.15	0.3	1.4091	0.0028
338.15	0.4	1.4067	0.0028
338.15	0.5	1.4032	0.0028
338.15	0.6	1.3995	0.0028
338.15	0.7	1.3947	0.0028
338.15	0.8	1.3884	0.0028
338.15	0.9	1.3795	0.0028
338.15	1	1.366	0.0028
343.15	0	1.4129	0.0028
343.15	0.1	1.4111	0.0028
343.15	0.2	1.4092	0.0028
343.15	0.3	1.4069	0.0028
343.15	0.4	1.4044	0.0028
343.15	0.5	1.401	0.0028
343.15	0.6	1.3972	0.0028
343.15	0.7	1.3924	0.0028
343.15	0.8	1.386	0.0028
343.15	0.9	1.3771	0.0028
343.15	1	1.3635	0.0028

System: butan-1-ol + hexadecane; phases: Liquid
Fixed: Pressure, kPa = 101
Property: Mass density, kg/m3 (Liquid); method: Vibrating tube method
Temperature, K	Mole fraction of butan-1-ol	Mass density, kg/m3	uncertainty
293.15	0	773.35	0.83
293.15	0.1	773.9	0.83
293.15	0.2	774.92	0.82
293.15	0.3	776.24	0.82
293.15	0.4	777.91	0.82
293.15	0.5	780.07	0.82
293.15	0.6	782.88	0.82
293.15	0.7	786.53	0.81
293.15	0.8	791.49	0.81
293.15	0.9	798.54	0.81
293.15	1	809.8	0.81
298.15	0	769.87	0.83
298.15	0.1	770.35	0.83
298.15	0.2	771.34	0.82
298.15	0.3	772.63	0.82
298.15	0.4	774.28	0.82
298.15	0.5	776.41	0.82
298.15	0.6	779.18	0.82
298.15	0.7	782.81	0.81
298.15	0.8	787.73	0.81
298.15	0.9	794.77	0.81
298.15	1	805.98	0.81
303.15	0	766.4	0.83
303.15	0.1	766.82	0.83
303.15	0.2	767.77	0.82
303.15	0.3	769.03	0.82
303.15	0.4	770.64	0.82
303.15	0.5	772.74	0.82
303.15	0.6	775.47	0.82
303.15	0.7	779.07	0.81
303.15	0.8	783.97	0.81
303.15	0.9	790.97	0.81
303.15	1	802.13	0.81
308.15	0	762.95	0.83
308.15	0.1	763.28	0.83
308.15	0.2	764.19	0.82
308.15	0.3	765.42	0.82
308.15	0.4	766.99	0.82
308.15	0.5	769.05	0.82
308.15	0.6	771.75	0.82
308.15	0.7	775.31	0.81
308.15	0.8	780.17	0.81
308.15	0.9	787.14	0.81
308.15	1	798.25	0.81
313.15	0	759.49	0.83
313.15	0.1	759.74	0.83
313.15	0.2	760.61	0.82
313.15	0.3	761.8	0.82
313.15	0.4	763.33	0.82
313.15	0.5	765.35	0.82
313.15	0.6	768.01	0.82
313.15	0.7	771.52	0.82
313.15	0.8	776.34	0.81
313.15	0.9	783.27	0.81
313.15	1	794.35	0.81
318.15	0	756.05	0.83
318.15	0.1	756.2	0.83
318.15	0.2	757.02	0.82
318.15	0.3	758.17	0.82
318.15	0.4	759.66	0.82
318.15	0.5	761.63	0.82
318.15	0.6	764.24	0.82
318.15	0.7	767.71	0.82
318.15	0.8	772.49	0.81
318.15	0.9	779.38	0.81
318.15	1	790.41	0.81
323.15	0	752.61	0.83
323.15	0.1	752.66	0.83
323.15	0.2	753.42	0.82
323.15	0.3	754.53	0.82
323.15	0.4	755.97	0.82
323.15	0.5	757.89	0.82
323.15	0.6	760.45	0.82
323.15	0.7	763.86	0.82
323.15	0.8	768.59	0.81
323.15	0.9	775.44	0.81
323.15	1	786.42	0.81
328.15	0	749.18	0.83
328.15	0.1	749.13	0.83
328.15	0.2	749.82	0.82
328.15	0.3	750.87	0.82
328.15	0.4	752.26	0.82
328.15	0.5	754.13	0.82
328.15	0.6	756.63	0.82
328.15	0.7	759.99	0.82
328.15	0.8	764.66	0.81
328.15	0.9	771.46	0.81
328.15	1	782.39	0.81
333.15	0	745.74	0.83
333.15	0.1	745.58	0.83
333.15	0.2	746.2	0.82
333.15	0.3	747.19	0.82
333.15	0.4	748.53	0.82
333.15	0.5	750.34	0.82
333.15	0.6	752.78	0.82
333.15	0.7	756.08	0.82
333.15	0.8	760.69	0.81
333.15	0.9	767.42	0.81
333.15	1	778.3	0.81
338.15	0	742.31	0.83
338.15	0.1	742.04	0.83
338.15	0.2	742.57	0.82
338.15	0.3	743.51	0.82
338.15	0.4	744.78	0.82
338.15	0.5	746.53	0.82
338.15	0.6	748.9	0.82
338.15	0.7	752.13	0.82
338.15	0.8	756.66	0.81
338.15	0.9	763.33	0.81
338.15	1	774.15	0.81
343.15	0	738.88	0.83
343.15	0.1	738.5	0.83
343.15	0.2	738.94	0.83
343.15	0.3	739.8	0.82
343.15	0.4	741.01	0.82
343.15	0.5	742.68	0.82
343.15	0.6	744.98	0.82
343.15	0.7	748.13	0.82
343.15	0.8	752.59	0.81
343.15	0.9	759.19	0.81
343.15	1	769.94	0.81

System: butan-1-ol + hexadecane; phases: Liquid
Fixed: Pressure, kPa = 101
Property: Viscosity, Pa*s (Liquid); method: Concentric cylinders viscometry
Temperature, K	Mole fraction of butan-1-ol	Viscosity, Pa*s	uncertainty
293.15	0	0.0034079	2.27e-05
293.15	0.1	0.0032041	2.1e-05
293.15	0.2	0.0031088	2e-05
293.15	0.3	0.0029981	1.89e-05
293.15	0.4	0.002935	1.81e-05
293.15	0.5	0.0029004	1.75e-05
293.15	0.6	0.0028539	1.69e-05
293.15	0.7	0.0028739	1.66e-05
293.15	0.8	0.0028746	1.62e-05
293.15	0.9	0.0028558	1.57e-05
293.15	1	0.0028682	1.54e-05
298.15	0	0.0030355	2.07e-05
298.15	0.1	0.0028524	1.92e-05
298.15	0.2	0.0027699	1.83e-05
298.15	0.3	0.0026752	1.74e-05
298.15	0.4	0.0026156	1.67e-05
298.15	0.5	0.0025779	1.62e-05
298.15	0.6	0.0025354	1.56e-05
298.15	0.7	0.0025429	1.53e-05
298.15	0.8	0.0025412	1.5e-05
298.15	0.9	0.0025196	1.46e-05
298.15	1	0.0025306	1.43e-05
303.15	0	0.0027084	1.9e-05
303.15	0.1	0.0025441	1.77e-05
303.15	0.2	0.002471	1.7e-05
303.15	0.3	0.0023871	1.61e-05
303.15	0.4	0.0023322	1.55e-05
303.15	0.5	0.0022944	1.5e-05
303.15	0.6	0.0022492	1.45e-05
303.15	0.7	0.0022462	1.42e-05
303.15	0.8	0.0022439	1.39e-05
303.15	0.9	0.0022192	1.36e-05
303.15	1	0.0022321	1.34e-05
308.15	0	0.0024319	1.75e-05
308.15	0.1	0.0022831	1.64e-05
308.15	0.2	0.0022172	1.57e-05
308.15	0.3	0.0021439	1.5e-05
308.15	0.4	0.0020922	1.45e-05
308.15	0.5	0.0020527	1.4e-05
308.15	0.6	0.0020116	1.36e-05
308.15	0.7	0.0020009	1.33e-05
308.15	0.8	0.0019916	1.3e-05
308.15	0.9	0.0019674	1.27e-05
308.15	1	0.0019745	1.25e-05
313.15	0	0.0021994	1.63e-05
313.15	0.1	0.0020641	1.53e-05
313.15	0.2	0.0020041	1.47e-05
313.15	0.3	0.0019388	1.41e-05
313.15	0.4	0.0018903	1.36e-05
313.15	0.5	0.0018509	1.32e-05
313.15	0.6	0.0018107	1.28e-05
313.15	0.7	0.0017939	1.26e-05
313.15	0.8	0.0017811	1.23e-05
313.15	0.9	0.0017548	1.21e-05
313.15	1	0.0017579	1.19e-05
318.15	0	0.0019964	1.53e-05
318.15	0.1	0.0018708	1.44e-05
318.15	0.2	0.001815	1.38e-05
318.15	0.3	0.0017556	1.33e-05
318.15	0.4	0.0017089	1.29e-05
318.15	0.5	0.0016701	1.25e-05
318.15	0.6	0.0016309	1.22e-05
318.15	0.7	0.0016129	1.19e-05
318.15	0.8	0.0015931	1.17e-05
318.15	0.9	0.0015642	1.15e-05
318.15	1	0.0015634	1.13e-05
323.15	0	0.0018226	1.44e-05
323.15	0.1	0.0017067	1.36e-05
323.15	0.2	0.0016539	1.31e-05
323.15	0.3	0.0015997	1.27e-05
323.15	0.4	0.0015562	1.23e-05
323.15	0.5	0.0015171	1.2e-05
323.15	0.6	0.001479	1.17e-05
323.15	0.7	0.0014519	1.14e-05
323.15	0.8	0.0014347	1.12e-05
323.15	0.9	0.0014039	1.1e-05
323.15	1	0.001399	1.09e-05
328.15	0	0.0016714	1.37e-05
328.15	0.1	0.0015633	1.3e-05
328.15	0.2	0.0015135	1.25e-05
328.15	0.3	0.0014636	1.21e-05
328.15	0.4	0.0014219	1.18e-05
328.15	0.5	0.0013834	1.15e-05
328.15	0.6	0.001346	1.12e-05
328.15	0.7	0.001317	1.1e-05
328.15	0.8	0.0012969	1.08e-05
328.15	0.9	0.0012642	1.06e-05
328.15	1	0.0012559	1.05e-05
333.15	0	0.001537	1.31e-05
333.15	0.1	0.0014369	1.24e-05
333.15	0.2	0.0013891	1.2e-05
333.15	0.3	0.001343	1.16e-05
333.15	0.4	0.0013032	1.13e-05
333.15	0.5	0.0012658	1.11e-05
333.15	0.6	0.0012296	1.08e-05
333.15	0.7	0.0011991	1.06e-05
333.15	0.8	0.0011767	1.04e-05
333.15	0.9	0.0011429	1.02e-05
333.15	1	0.0011311	1.01e-05
338.15	0	0.0014213	1.25e-05
338.15	0.1	0.0013281	1.19e-05
338.15	0.2	0.0012819	1.16e-05
338.15	0.3	0.001238	1.12e-05
338.15	0.4	0.0011996	1.1e-05
338.15	0.5	0.0011631	1.07e-05
338.15	0.6	0.0011274	1.05e-05
338.15	0.7	0.0010955	1.03e-05
338.15	0.8	0.0010713	1.01e-05
338.15	0.9	0.0010362	1e-05
338.15	1	0.0010213	9.8e-06
343.15	0	0.0013164	1.21e-05
343.15	0.1	0.0012303	1.15e-05
343.15	0.2	0.0011854	1.12e-05
343.15	0.3	0.0011437	1.09e-05
343.15	0.4	0.0011067	1.06e-05
343.15	0.5	0.0010713	1.04e-05
343.15	0.6	0.0010366	1.02e-05
343.15	0.7	0.0010041	1e-05
343.15	0.8	0.0009782	9.9e-06
343.15	0.9	0.0009425	9.7e-06
343.15	1	0.000925	9.6e-06

System: butan-1-ol + hexadecane; phases: Liquid
Fixed: Pressure, kPa = 101
Property: Speed of sound, m/s (Liquid); method: Single path-length method
Temperature, K	Mole fraction of butan-1-ol	Speed of sound, m/s	uncertainty
293.15	0	1357.37	1.01
293.15	0.1	1349.59	0.96
293.15	0.2	1343.35	0.91
293.15	0.3	1336.82	0.86
293.15	0.4	1329.74	0.81
293.15	0.5	1322.05	0.76
293.15	0.6	1313.43	0.71
293.15	0.7	1303.11	0.66
293.15	0.8	1290.74	0.61
293.15	0.9	1275.37	0.57
293.15	1	1256.59	0.52
298.15	0	1338.49	1.01
298.15	0.1	1330.61	0.96
298.15	0.2	1324.36	0.91
298.15	0.3	1317.87	0.86
298.15	0.4	1310.82	0.81
298.15	0.5	1303.22	0.76
298.15	0.6	1294.74	0.71
298.15	0.7	1284.67	0.66
298.15	0.8	1272.65	0.62
298.15	0.9	1257.76	0.57
298.15	1	1239.62	0.52
303.15	0	1319.81	1.01
303.15	0.1	1311.82	0.96
303.15	0.2	1305.57	0.91
303.15	0.3	1299.09	0.86
303.15	0.4	1292.1	0.81
303.15	0.5	1284.57	0.76
303.15	0.6	1276.2	0.71
303.15	0.7	1266.36	0.66
303.15	0.8	1254.67	0.62
303.15	0.9	1240.25	0.57
303.15	1	1222.76	0.52
308.15	0	1301.34	1.01
308.15	0.1	1293.24	0.96
308.15	0.2	1286.97	0.91
308.15	0.3	1280.51	0.86
308.15	0.4	1273.53	0.81
308.15	0.5	1266.07	0.76
308.15	0.6	1257.82	0.71
308.15	0.7	1248.17	0.66
308.15	0.8	1236.79	0.62
308.15	0.9	1222.84	0.57
308.15	1	1206.02	0.52
313.15	0	1283.07	1.01
313.15	0.1	1274.86	0.96
313.15	0.2	1268.53	0.91
313.15	0.3	1262.08	0.86
313.15	0.4	1255.14	0.81
313.15	0.5	1247.71	0.76
313.15	0.6	1239.56	0.71
313.15	0.7	1230.08	0.66
313.15	0.8	1219	0.61
313.15	0.9	1205.51	0.57
313.15	1	1189.36	0.52
318.15	0	1264.98	1.01
318.15	0.1	1256.65	0.96
318.15	0.2	1250.26	0.91
318.15	0.3	1243.81	0.86
318.15	0.4	1236.88	0.81
318.15	0.5	1229.48	0.76
318.15	0.6	1221.41	0.71
318.15	0.7	1212.09	0.66
318.15	0.8	1201.29	0.61
318.15	0.9	1188.23	0.57
318.15	1	1172.77	0.52
323.15	0	1247.06	1.01
323.15	0.1	1238.61	0.96
323.15	0.2	1232.13	0.91
323.15	0.3	1225.68	0.86
323.15	0.4	1218.77	0.81
323.15	0.5	1211.39	0.76
323.15	0.6	1203.37	0.71
323.15	0.7	1194.2	0.7
323.15	0.8	1183.64	0.61
323.15	0.9	1171.01	0.57
323.15	1	1156.22	0.52
328.15	0	1229.32	1.01
328.15	0.1	1220.75	0.96
328.15	0.2	1214.16	0.91
328.15	0.3	1207.69	0.86
328.15	0.4	1200.79	0.81
328.15	0.5	1193.42	0.76
328.15	0.6	1185.43	0.71
328.15	0.7	1176.38	0.66
328.15	0.8	1166.03	0.61
328.15	0.9	1153.81	0.57
328.15	1	1139.68	0.52
333.15	0	1211.77	1.01
333.15	0.1	1203.06	0.96
333.15	0.2	1196.34	0.91
333.15	0.3	1189.84	0.86
333.15	0.4	1182.93	0.81
333.15	0.5	1175.58	0.76
333.15	0.6	1167.61	0.71
333.15	0.7	1158.65	0.66
333.15	0.8	1148.48	0.61
333.15	0.9	1136.64	0.57
333.15	1	1123.16	0.52
338.15	0	1194.43	1.01
338.15	0.1	1185.54	0.96
338.15	0.2	1178.69	0.91
338.15	0.3	1172.14	0.86
338.15	0.4	1165.22	0.81
338.15	0.5	1157.86	0.76
338.15	0.6	1149.88	0.71
338.15	0.7	1141.02	0.66
338.15	0.8	1130.98	0.61
338.15	0.9	1119.49	0.57
338.15	1	1106.63	0.52
343.15	0	1177.55	1.01
343.15	0.1	1168.27	0.96
343.15	0.2	1161.25	0.91
343.15	0.3	1154.64	0.86
343.15	0.4	1147.69	0.81
343.15	0.5	1140.32	0.76
343.15	0.6	1132.33	0.71
343.15	0.7	1123.53	0.66
343.15	0.8	1113.57	0.61
343.15	0.9	1102.4	0.57
343.15	1	1090.14	0.52

System: butan-1-ol + hexadecane; phases: Liquid
Fixed: Pressure, kPa = 101
Property: Refractive index (Na D-line) (Liquid); method: Standard Abbe refractometry
Temperature, K	Mole fraction of butan-1-ol	Refractive index (Na D-line)	uncertainty
293.15	0	1.434	0.0028
293.15	0.1	1.4329	0.0028
293.15	0.2	1.4315	0.0028
293.15	0.3	1.4295	0.0028
293.15	0.4	1.4274	0.0028
293.15	0.5	1.425	0.0028
293.15	0.6	1.422	0.0028
293.15	0.7	1.4184	0.0028
293.15	0.8	1.4139	0.0028
293.15	0.9	1.4078	0.0028
293.15	1	1.3999	0.0028
298.15	0	1.4318	0.0028
298.15	0.1	1.4307	0.0028
298.15	0.2	1.4293	0.0028
298.15	0.3	1.4274	0.0028
298.15	0.4	1.4252	0.0028
298.15	0.5	1.4228	0.0028
298.15	0.6	1.4199	0.0028
298.15	0.7	1.4162	0.0028
298.15	0.8	1.4118	0.0028
298.15	0.9	1.4057	0.0028
298.15	1	1.3979	0.0028
303.15	0	1.4296	0.0028
303.15	0.1	1.4286	0.0028
303.15	0.2	1.4271	0.0028
303.15	0.3	1.4252	0.0028
303.15	0.4	1.4231	0.0028
303.15	0.5	1.4206	0.0028
303.15	0.6	1.4177	0.0028
303.15	0.7	1.4141	0.0028
303.15	0.8	1.4096	0.0028
303.15	0.9	1.4036	0.0028
303.15	1	1.3959	0.0028
308.15	0	1.4275	0.0028
308.15	0.1	1.4264	0.0028
308.15	0.2	1.425	0.0028
308.15	0.3	1.423	0.0028
308.15	0.4	1.4209	0.0028
308.15	0.5	1.4185	0.0028
308.15	0.6	1.4155	0.0028
308.15	0.7	1.4119	0.0028
308.15	0.8	1.4075	0.0028
308.15	0.9	1.4015	0.0028
308.15	1	1.3938	0.0028
313.15	0	1.4254	0.0028
313.15	0.1	1.4242	0.0028
313.15	0.2	1.4228	0.0028
313.15	0.3	1.4208	0.0028
313.15	0.4	1.4187	0.0028
313.15	0.5	1.4163	0.0028
313.15	0.6	1.4134	0.0028
313.15	0.7	1.4097	0.0028
313.15	0.8	1.4053	0.0028
313.15	0.9	1.3994	0.0028
313.15	1	1.3918	0.0028
318.15	0	1.4233	0.0028
318.15	0.1	1.4221	0.0028
318.15	0.2	1.4206	0.0028
318.15	0.3	1.4186	0.0028
318.15	0.4	1.4165	0.0028
318.15	0.5	1.4141	0.0028
318.15	0.6	1.4111	0.0028
318.15	0.7	1.4075	0.0028
318.15	0.8	1.4031	0.0028
318.15	0.9	1.3973	0.0028
318.15	1	1.3897	0.0028
323.15	0	1.4211	0.0028
323.15	0.1	1.4199	0.0028
323.15	0.2	1.4184	0.0028
323.15	0.3	1.4164	0.0028
323.15	0.4	1.4143	0.0028
323.15	0.5	1.4119	0.0028
323.15	0.6	1.4089	0.0028
323.15	0.7	1.4053	0.0028
323.15	0.8	1.4009	0.0028
323.15	0.9	1.3951	0.0028
323.15	1	1.3876	0.0028
328.15	0	1.419	0.0028
328.15	0.1	1.4177	0.0028
328.15	0.2	1.4162	0.0028
328.15	0.3	1.4142	0.0028
328.15	0.4	1.4121	0.0028
328.15	0.5	1.4097	0.0028
328.15	0.6	1.4067	0.0028
328.15	0.7	1.4031	0.0028
328.15	0.8	1.3987	0.0028
328.15	0.9	1.3929	0.0028
328.15	1	1.3855	0.0028
333.15	0	1.4169	0.0028
333.15	0.1	1.4156	0.0028
333.15	0.2	1.4141	0.0028
333.15	0.3	1.4121	0.0028
333.15	0.4	1.4099	0.0028
333.15	0.5	1.4074	0.0028
333.15	0.6	1.4045	0.0028
333.15	0.7	1.4009	0.0028
333.15	0.8	1.3965	0.0028
333.15	0.9	1.3907	0.0028
333.15	1	1.3833	0.0028
338.15	0	1.4149	0.0028
338.15	0.1	1.4135	0.0028
338.15	0.2	1.4119	0.0028
338.15	0.3	1.4099	0.0028
338.15	0.4	1.4077	0.0028
338.15	0.5	1.4052	0.0028
338.15	0.6	1.4022	0.0028
338.15	0.7	1.3987	0.0028
338.15	0.8	1.3942	0.0028
338.15	0.9	1.3885	0.0028
338.15	1	1.381	0.0028
343.15	0	1.4129	0.0028
343.15	0.1	1.4114	0.0028
343.15	0.2	1.4097	0.0028
343.15	0.3	1.4076	0.0028
343.15	0.4	1.4056	0.0028
343.15	0.5	1.403	0.0028
343.15	0.6	1.4	0.0028
343.15	0.7	1.3964	0.0028
343.15	0.8	1.392	0.0028
343.15	0.9	1.3862	0.0028
343.15	1	1.3788	0.0028

System: propan-1-ol + ethyl (Z)-9-octadeceneoate; phases: Liquid
Fixed: Pressure, kPa = 101
Property: Mass density, kg/m3 (Liquid); method: Vibrating tube method
Temperature, K	Mole fraction of propan-1-ol	Mass density, kg/m3	uncertainty
293.15	0	868.91	1.02
293.15	0.1	867.29	0.97
293.15	0.2	865.42	0.93
293.15	0.3	863.2	0.9
293.15	0.4	860.5	0.87
293.15	0.5	857.13	0.85
293.15	0.6	852.82	0.84
293.15	0.7	846.96	0.82
293.15	0.8	838.72	0.82
293.15	0.9	826.05	0.81
293.15	1	803.95	0.81
298.15	0	865.27	1.02
298.15	0.1	863.62	0.97
298.15	0.2	861.71	0.93
298.15	0.3	859.46	0.9
298.15	0.4	856.73	0.87
298.15	0.5	853.33	0.85
298.15	0.6	848.98	0.84
298.15	0.7	843.08	0.82
298.15	0.8	834.8	0.82
298.15	0.9	822.08	0.81
298.15	1	799.93	0.81
303.15	0	861.63	1.01
303.15	0.1	859.95	0.97
303.15	0.2	858.01	0.93
303.15	0.3	855.72	0.89
303.15	0.4	852.96	0.87
303.15	0.5	849.52	0.85
303.15	0.6	845.14	0.84
303.15	0.7	839.19	0.82
303.15	0.8	830.87	0.82
303.15	0.9	818.09	0.81
303.15	1	795.89	0.81
308.15	0	858.01	1.01
308.15	0.1	856.28	0.97
308.15	0.2	854.3	0.93
308.15	0.3	851.98	0.89
308.15	0.4	849.18	0.87
308.15	0.5	845.71	0.85
308.15	0.6	841.28	0.84
308.15	0.7	835.29	0.83
308.15	0.8	826.92	0.82
308.15	0.9	814.08	0.81
308.15	1	791.82	0.81
313.15	0	854.39	1.01
313.15	0.1	852.62	0.96
313.15	0.2	850.61	0.93
313.15	0.3	848.24	0.89
313.15	0.4	845.4	0.87
313.15	0.5	841.89	0.85
313.15	0.6	837.41	0.84
313.15	0.7	831.37	0.83
313.15	0.8	822.94	0.82
313.15	0.9	810.04	0.81
313.15	1	787.71	0.81
318.15	0	850.78	1.01
318.15	0.1	848.97	0.96
318.15	0.2	846.91	0.92
318.15	0.3	844.5	0.89
318.15	0.4	841.62	0.87
318.15	0.5	838.06	0.85
318.15	0.6	833.53	0.84
318.15	0.7	827.44	0.83
318.15	0.8	818.94	0.82
318.15	0.9	805.97	0.81
318.15	1	783.56	0.81
323.15	0	847.17	1.01
323.15	0.1	845.32	0.96
323.15	0.2	843.22	0.92
323.15	0.3	840.76	0.89
323.15	0.4	837.83	0.87
323.15	0.5	834.21	0.85
323.15	0.6	829.63	0.84
323.15	0.7	823.48	0.83
323.15	0.8	814.91	0.82
323.15	0.9	801.87	0.81
323.15	1	779.36	0.81
328.15	0	843.58	1.01
328.15	0.1	841.67	0.96
328.15	0.2	839.52	0.92
328.15	0.3	837.01	0.89
328.15	0.4	834.04	0.87
328.15	0.5	830.37	0.85
328.15	0.6	825.72	0.84
328.15	0.7	819.5	0.83
328.15	0.8	810.86	0.82
328.15	0.9	797.72	0.81
328.15	1	775.1	0.81
333.15	0	839.98	1
333.15	0.1	838.03	0.96
333.15	0.2	835.83	0.92
333.15	0.3	833.26	0.89
333.15	0.4	830.24	0.87
333.15	0.5	826.5	0.85
333.15	0.6	821.79	0.84
333.15	0.7	815.49	0.83
333.15	0.8	806.76	0.82
333.15	0.9	793.52	0.81
333.15	1	770.78	0.81
338.15	0	836.39	1
338.15	0.1	834.39	0.96
338.15	0.2	832.14	0.92
338.15	0.3	829.51	0.89
338.15	0.4	826.42	0.87
338.15	0.5	822.62	0.85
338.15	0.6	817.84	0.84
338.15	0.7	811.45	0.83
338.15	0.8	802.63	0.82
338.15	0.9	789.27	0.82
338.15	1	766.4	0.81
343.15	0	832.81	1
343.15	0.1	830.76	0.96
343.15	0.2	828.45	0.92
343.15	0.3	825.76	0.89
343.15	0.4	822.6	0.87
343.15	0.5	818.73	0.85
343.15	0.6	813.87	0.84
343.15	0.7	807.39	0.83
343.15	0.8	798.46	0.82
343.15	0.9	784.97	0.82
343.15	1	761.93	0.81

System: propan-1-ol + ethyl (Z)-9-octadeceneoate; phases: Liquid
Fixed: Pressure, kPa = 101
Property: Viscosity, Pa*s (Liquid); method: Concentric cylinders viscometry
Temperature, K	Mole fraction of propan-1-ol	Viscosity, Pa*s	uncertainty
293.15	0	0.0064135	6.85e-05
293.15	0.1	0.0060277	6.02e-05
293.15	0.2	0.0056952	5.31e-05
293.15	0.3	0.0053679	4.65e-05
293.15	0.4	0.0050155	4.02e-05
293.15	0.5	0.004643	3.44e-05
293.15	0.6	0.0042384	2.89e-05
293.15	0.7	0.0037996	2.41e-05
293.15	0.8	0.0032988	1.98e-05
293.15	0.9	0.0027485	1.61e-05
293.15	1	0.002147	1.31e-05
298.15	0	0.0056534	6.05e-05
298.15	0.1	0.0053178	5.33e-05
298.15	0.2	0.0050279	4.7e-05
298.15	0.3	0.0047358	4.12e-05
298.15	0.4	0.0044273	3.57e-05
298.15	0.5	0.0041021	3.07e-05
298.15	0.6	0.0037422	2.6e-05
298.15	0.7	0.0033575	2.18e-05
298.15	0.8	0.0029299	1.81e-05
298.15	0.9	0.002455	1.5e-05
298.15	1	0.0019262	1.24e-05
303.15	0	0.0049859	5.35e-05
303.15	0.1	0.0046933	4.72e-05
303.15	0.2	0.0044354	4.17e-05
303.15	0.3	0.0041828	3.66e-05
303.15	0.4	0.0039155	3.19e-05
303.15	0.5	0.0036289	2.75e-05
303.15	0.6	0.0033118	2.35e-05
303.15	0.7	0.0029796	1.99e-05
303.15	0.8	0.0026028	1.67e-05
303.15	0.9	0.0021859	1.4e-05
303.15	1	0.0017164	1.18e-05
308.15	0	0.0044244	4.77e-05
308.15	0.1	0.0041671	4.21e-05
308.15	0.2	0.0039402	3.73e-05
308.15	0.3	0.0037193	3.29e-05
308.15	0.4	0.0034821	2.87e-05
308.15	0.5	0.0032304	2.49e-05
308.15	0.6	0.0029557	2.14e-05
308.15	0.7	0.0026573	1.82e-05
308.15	0.8	0.0023244	1.55e-05
308.15	0.9	0.001955	1.32e-05
308.15	1	0.0015325	1.12e-05
313.15	0	0.0039185	4.24e-05
313.15	0.1	0.0036974	3.76e-05
313.15	0.2	0.003497	3.34e-05
313.15	0.3	0.0033052	2.96e-05
313.15	0.4	0.0031001	2.6e-05
313.15	0.5	0.0028816	2.26e-05
313.15	0.6	0.0026451	1.96e-05
313.15	0.7	0.0023841	1.69e-05
313.15	0.8	0.0020895	1.45e-05
313.15	0.9	0.0017605	1.25e-05
313.15	1	0.0013786	1.08e-05
318.15	0	0.0035541	3.87e-05
318.15	0.1	0.003354	3.44e-05
318.15	0.2	0.0031715	3.06e-05
318.15	0.3	0.002996	2.71e-05
318.15	0.4	0.0028083	2.38e-05
318.15	0.5	0.002606	2.08e-05
318.15	0.6	0.0023881	1.81e-05
318.15	0.7	0.0021474	1.57e-05
318.15	0.8	0.0018821	1.36e-05
318.15	0.9	0.0015837	1.19e-05
318.15	1	0.0012337	1.04e-05
323.15	0	0.003214	3.53e-05
323.15	0.1	0.0030362	3.14e-05
323.15	0.2	0.0028707	2.8e-05
323.15	0.3	0.0027117	2.49e-05
323.15	0.4	0.002542	2.2e-05
323.15	0.5	0.0023599	1.93e-05
323.15	0.6	0.0021635	1.69e-05
323.15	0.7	0.0019445	1.47e-05
323.15	0.8	0.0017044	1.29e-05
323.15	0.9	0.0014333	1.14e-05
323.15	1	0.0011118	1.01e-05
328.15	0	0.0029215	3.23e-05
328.15	0.1	0.0027621	2.88e-05
328.15	0.2	0.0026118	2.57e-05
328.15	0.3	0.0024668	2.29e-05
328.15	0.4	0.0023121	2.03e-05
328.15	0.5	0.002146	1.79e-05
328.15	0.6	0.0019687	1.58e-05
328.15	0.7	0.0017681	1.39e-05
328.15	0.8	0.0015498	1.23e-05
328.15	0.9	0.0013012	1.09e-05
328.15	1	0.0010045	9.8e-06
333.15	0	0.0026432	2.95e-05
333.15	0.1	0.002502	2.64e-05
333.15	0.2	0.002366	2.36e-05
333.15	0.3	0.0022358	2.11e-05
333.15	0.4	0.002098	1.88e-05
333.15	0.5	0.0019485	1.67e-05
333.15	0.6	0.0017922	1.49e-05
333.15	0.7	0.0016114	1.32e-05
333.15	0.8	0.0014131	1.18e-05
333.15	0.9	0.0011848	1.06e-05
333.15	1	0.0009109	9.6e-06
338.15	0	0.0024476	2.75e-05
338.15	0.1	0.0023174	2.47e-05
338.15	0.2	0.002191	2.22e-05
338.15	0.3	0.0020686	1.99e-05
338.15	0.4	0.001938	1.77e-05
338.15	0.5	0.0017955	1.58e-05
338.15	0.6	0.0016486	1.41e-05
338.15	0.7	0.0014768	1.26e-05
338.15	0.8	0.0012939	1.13e-05
338.15	0.9	0.0010801	1.03e-05
338.15	1	0.0008241	9.4e-06
343.15	0	0.0022541	2.56e-05
343.15	0.1	0.0021353	2.31e-05
343.15	0.2	0.0020183	2.07e-05
343.15	0.3	0.0019051	1.86e-05
343.15	0.4	0.0017839	1.67e-05
343.15	0.5	0.0016499	1.49e-05
343.15	0.6	0.0015154	1.34e-05
343.15	0.7	0.0013541	1.2e-05
343.15	0.8	0.0011854	1.09e-05
343.15	0.9	0.0009873	1e-05
343.15	1	0.0007468	9.2e-06

System: propan-1-ol + ethyl (Z)-9-octadeceneoate; phases: Liquid
Fixed: Pressure, kPa = 101
Property: Speed of sound, m/s (Liquid); method: Single path-length method
Temperature, K	Mole fraction of propan-1-ol	Speed of sound, m/s	uncertainty
293.15	0	1394.21	2
293.15	0.1	1389.77	1.85
293.15	0.2	1384.07	1.71
293.15	0.3	1377.62	1.56
293.15	0.4	1370.01	1.41
293.15	0.5	1360.65	1.26
293.15	0.6	1349.2	1.11
293.15	0.7	1333.75	0.96
293.15	0.8	1312.39	0.81
293.15	0.9	1278.95	0.67
293.15	1	1222.99	0.52
298.15	0	1376.24	2
298.15	0.1	1371.76	1.85
298.15	0.2	1366.09	1.71
298.15	0.3	1359.65	1.56
298.15	0.4	1352.05	1.41
298.15	0.5	1342.67	1.26
298.15	0.6	1331.25	1.11
298.15	0.7	1315.86	0.96
298.15	0.8	1294.59	0.81
298.15	0.9	1261.31	0.67
298.15	1	1205.74	0.52
303.15	0	1358.43	2
303.15	0.1	1353.93	1.85
303.15	0.2	1348.26	1.71
303.15	0.3	1341.83	1.56
303.15	0.4	1334.22	1.41
303.15	0.5	1324.84	1.26
303.15	0.6	1313.44	1.11
303.15	0.7	1298.07	0.96
303.15	0.8	1276.92	0.81
303.15	0.9	1243.85	0.67
303.15	1	1188.64	0.52
308.15	0	1340.81	2
308.15	0.1	1336.28	1.85
308.15	0.2	1330.6	1.71
308.15	0.3	1324.16	1.56
308.15	0.4	1316.54	1.41
308.15	0.5	1307.15	1.26
308.15	0.6	1295.74	1.11
308.15	0.7	1280.44	0.96
308.15	0.8	1259.36	0.81
308.15	0.9	1226.45	0.67
308.15	1	1171.64	0.52
313.15	0	1323.34	2
313.15	0.1	1318.76	1.85
313.15	0.2	1313.09	1.71
313.15	0.3	1306.62	1.56
313.15	0.4	1298.98	1.41
313.15	0.5	1289.6	1.26
313.15	0.6	1278.17	1.11
313.15	0.7	1262.92	0.96
313.15	0.8	1241.9	0.81
313.15	0.9	1209.16	0.67
313.15	1	1154.73	0.52
318.15	0	1306.04	2
318.15	0.1	1301.38	1.85
318.15	0.2	1295.68	1.71
318.15	0.3	1289.23	1.56
318.15	0.4	1281.56	1.41
318.15	0.5	1272.14	1.26
318.15	0.6	1260.71	1.11
318.15	0.7	1245.48	0.96
318.15	0.8	1224.51	0.81
318.15	0.9	1191.92	0.67
318.15	1	1137.89	0.52
323.15	0	1288.91	2
323.15	0.1	1284.17	1.85
323.15	0.2	1278.43	1.71
323.15	0.3	1271.95	1.56
323.15	0.4	1264.25	1.41
323.15	0.5	1254.8	1.26
323.15	0.6	1243.35	1.11
323.15	0.7	1228.11	0.96
323.15	0.8	1207.21	0.81
323.15	0.9	1174.78	0.67
323.15	1	1121.08	0.52
328.15	0	1271.94	2
328.15	0.1	1267.11	1.85
328.15	0.2	1261.32	1.71
328.15	0.3	1254.79	1.56
328.15	0.4	1247.06	1.41
328.15	0.5	1237.58	1.26
328.15	0.6	1226.08	1.11
328.15	0.7	1210.84	0.96
328.15	0.8	1189.96	0.81
328.15	0.9	1157.67	0.67
328.15	1	1104.3	0.52
333.15	0	1255.15	2
333.15	0.1	1250.18	1.85
333.15	0.2	1244.35	1.71
333.15	0.3	1237.75	1.56
333.15	0.4	1229.97	1.41
333.15	0.5	1220.46	1.26
333.15	0.6	1208.89	1.11
333.15	0.7	1193.63	0.96
333.15	0.8	1172.77	0.81
333.15	0.9	1140.56	0.67
333.15	1	1087.48	0.52
338.15	0	1238.56	2
338.15	0.1	1233.42	1.85
338.15	0.2	1227.53	1.71
338.15	0.3	1220.86	1.56
338.15	0.4	1213.01	1.41
338.15	0.5	1203.46	1.26
338.15	0.6	1191.8	1.11
338.15	0.7	1176.49	0.96
338.15	0.8	1155.6	0.81
338.15	0.9	1123.45	0.67
338.15	1	1070.64	0.52
343.15	0	1222.46	2
343.15	0.1	1216.89	1.85
343.15	0.2	1210.93	1.71
343.15	0.3	1204.15	1.56
343.15	0.4	1196.23	1.41
343.15	0.5	1186.63	1.26
343.15	0.6	1174.87	1.11
343.15	0.7	1159.45	0.96
343.15	0.8	1138.5	0.81
343.15	0.9	1106.35	0.67
343.15	1	1053.84	0.52

System: propan-1-ol + ethyl (Z)-9-octadeceneoate; phases: Liquid
Fixed: Pressure, kPa = 101
Property: Refractive index (Na D-line) (Liquid); method: Standard Abbe refractometry
Temperature, K	Mole fraction of propan-1-ol	Refractive index (Na D-line)	uncertainty
293.15	0	1.4494	0.0028
293.15	0.1	1.4484	0.0028
293.15	0.2	1.4468	0.0028
293.15	0.3	1.4448	0.0028
293.15	0.4	1.4422	0.0028
293.15	0.5	1.4388	0.0028
293.15	0.6	1.4346	0.0028
293.15	0.7	1.4287	0.0028
293.15	0.8	1.4205	0.0028
293.15	0.9	1.408	0.0028
293.15	1	1.3852	0.0028
298.15	0	1.4474	0.0028
298.15	0.1	1.4464	0.0028
298.15	0.2	1.4448	0.0028
298.15	0.3	1.4427	0.0028
298.15	0.4	1.4401	0.0028
298.15	0.5	1.4367	0.0028
298.15	0.6	1.4325	0.0028
298.15	0.7	1.4267	0.0028
298.15	0.8	1.4184	0.0028
298.15	0.9	1.4058	0.0028
298.15	1	1.3831	0.0028
303.15	0	1.4454	0.0028
303.15	0.1	1.4444	0.0028
303.15	0.2	1.4427	0.0028
303.15	0.3	1.4406	0.0028
303.15	0.4	1.4381	0.0028
303.15	0.5	1.4347	0.0028
303.15	0.6	1.4305	0.0028
303.15	0.7	1.4246	0.0028
303.15	0.8	1.4163	0.0028
303.15	0.9	1.4037	0.0028
303.15	1	1.381	0.0028
308.15	0	1.4433	0.0028
308.15	0.1	1.4423	0.0028
308.15	0.2	1.4407	0.0028
308.15	0.3	1.4386	0.0028
308.15	0.4	1.436	0.0028
308.15	0.5	1.4326	0.0028
308.15	0.6	1.4284	0.0028
308.15	0.7	1.4225	0.0028
308.15	0.8	1.4142	0.0028
308.15	0.9	1.4016	0.0028
308.15	1	1.3789	0.0028
313.15	0	1.4414	0.0028
313.15	0.1	1.4403	0.0028
313.15	0.2	1.4386	0.0028
313.15	0.3	1.4365	0.0028
313.15	0.4	1.4339	0.0028
313.15	0.5	1.4305	0.0028
313.15	0.6	1.4262	0.0028
313.15	0.7	1.4204	0.0028
313.15	0.8	1.4121	0.0028
313.15	0.9	1.3994	0.0028
313.15	1	1.3768	0.0028
318.15	0	1.4395	0.0028
318.15	0.1	1.4382	0.0028
318.15	0.2	1.4366	0.0028
318.15	0.3	1.4344	0.0028
318.15	0.4	1.4318	0.0028
318.15	0.5	1.4284	0.0028
318.15	0.6	1.4241	0.0028
318.15	0.7	1.4183	0.0028
318.15	0.8	1.4099	0.0028
318.15	0.9	1.3973	0.0028
318.15	1	1.3747	0.0028
323.15	0	1.4375	0.0028
323.15	0.1	1.4362	0.0028
323.15	0.2	1.4345	0.0028
323.15	0.3	1.4323	0.0028
323.15	0.4	1.4297	0.0028
323.15	0.5	1.4263	0.0028
323.15	0.6	1.422	0.0028
323.15	0.7	1.4161	0.0028
323.15	0.8	1.4078	0.0028
323.15	0.9	1.3952	0.0028
323.15	1	1.3726	0.0028
328.15	0	1.4355	0.0028
328.15	0.1	1.4341	0.0028
328.15	0.2	1.4325	0.0028
328.15	0.3	1.4303	0.0028
328.15	0.4	1.4276	0.0028
328.15	0.5	1.4242	0.0028
328.15	0.6	1.4199	0.0028
328.15	0.7	1.4139	0.0028
328.15	0.8	1.4057	0.0028
328.15	0.9	1.393	0.0028
328.15	1	1.3704	0.0028
333.15	0	1.4335	0.0028
333.15	0.1	1.4321	0.0028
333.15	0.2	1.4304	0.0028
333.15	0.3	1.4282	0.0028
333.15	0.4	1.4255	0.0028
333.15	0.5	1.422	0.0028
333.15	0.6	1.4178	0.0028
333.15	0.7	1.4118	0.0028
333.15	0.8	1.4035	0.0028
333.15	0.9	1.3907	0.0028
333.15	1	1.3682	0.0028
338.15	0	1.4315	0.0028
338.15	0.1	1.4301	0.0028
338.15	0.2	1.4284	0.0028
338.15	0.3	1.4261	0.0028
338.15	0.4	1.4234	0.0028
338.15	0.5	1.4199	0.0028
338.15	0.6	1.4156	0.0028
338.15	0.7	1.4096	0.0028
338.15	0.8	1.4013	0.0028
338.15	0.9	1.3884	0.0028
338.15	1	1.366	0.0028
343.15	0	1.4296	0.0028
343.15	0.1	1.4281	0.0028
343.15	0.2	1.4264	0.0028
343.15	0.3	1.4241	0.0028
343.15	0.4	1.4213	0.0028
343.15	0.5	1.4178	0.0028
343.15	0.6	1.4134	0.0028
343.15	0.7	1.4074	0.0028
343.15	0.8	1.3991	0.0028
343.15	0.9	1.3861	0.0028
343.15	1	1.3635	0.0028
