Measured thermophysical data. Determination of related systems' solubility data (I) in the preparation process of K2SO4 or KH2PO4 by the solvent extraction method
Source: Fluid Phase Equilib., 2017, 10.1016/j.fluid.2017.04.010
Compound 1: potassium chloride, ClK, InChI=1S/ClH.K/h1H;/q;+1/p-1
Compound 2: monopotassium phosphate, H2KO4P, InChI=1S/K.H3O4P/c;1-5(2,3)4/h;(H3,1,2,3,4)/q+1;/p-1
Compound 3: phosphoric acid, H3O4P, InChI=1S/H3O4P/c1-5(2,3)4/h(H3,1,2,3,4), purity 85%
Compound 4: potassium sulfate, K2O4S, InChI=1S/2K.H2O4S/c;;1-5(2,3)4/h;;(H2,1,2,3,4)/q2*+1;/p-2
Compound 5: sulfuric acid, H2O4S, InChI=1S/H2O4S/c1-5(2,3)4/h(H2,1,2,3,4), purity 98%
Compound 6: water, H2O, InChI=1S/H2O/h1H2, purity 99.8%

System: potassium chloride + water; phases: Liquid
Fixed: Pressure, kPa = 88.35
Property: Mass density, kg/m3 (Liquid); method: Weighing bottle method
Temperature, K	Mass fraction of potassium chloride	Mass density, kg/m3	uncertainty
298.15	0.2672	1180	11.8
313.15	0.29	1192	11.9

System: potassium chloride + water; phases: Liquid
Fixed: Pressure, kPa = 88.35
Property: Viscosity, Pa*s (Liquid); method: Capillary tube (Ostwald; Ubbelohde) method
Temperature, K	Mass fraction of potassium chloride	Viscosity, Pa*s	uncertainty
298.15	0.2672	0.0008122	8.14e-05
313.15	0.29	0.0006778	6.79e-05

System: water + monopotassium phosphate; phases: Liquid
Fixed: Pressure, kPa = 88.35
Property: Mass density, kg/m3 (Liquid); method: Weighing bottle method
Temperature, K	Mass fraction of monopotassium phosphate	Mass density, kg/m3	uncertainty
298.15	0.2075	1144	11.4
313.15	0.2579	1187.2	11.9

System: water + monopotassium phosphate; phases: Liquid
Fixed: Pressure, kPa = 88.35
Property: Viscosity, Pa*s (Liquid); method: Capillary tube (Ostwald; Ubbelohde) method
Temperature, K	Mass fraction of monopotassium phosphate	Viscosity, Pa*s	uncertainty
298.15	0.2075	0.0011981	0.0001201
313.15	0.2579	0.0010131	0.0001015

System: water + potassium sulfate; phases: Liquid
Fixed: Pressure, kPa = 88.35
Property: Mass density, kg/m3 (Liquid); method: weighing bottle method
Temperature, K	Mass fraction of potassium sulfate	Mass density, kg/m3	uncertainty
298.15	0.1156	1084.3	10.8
313.15	0.1337	1097.7	11

System: water + potassium sulfate; phases: Liquid
Fixed: Pressure, kPa = 88.35
Property: Viscosity, Pa*s (Liquid); method: Capillary tube (Ostwald; Ubbelohde) method
Temperature, K	Mass fraction of potassium sulfate	Viscosity, Pa*s	uncertainty
298.15	0.1156	0.0010153	0.0001018
313.15	0.1337	0.0007917	7.95e-05

System: potassium chloride + phosphoric acid + water; phases: Liquid
Fixed: Pressure, kPa = 88.35
Property: Mass density, kg/m3 (Liquid); method: Weighing bottle method
Temperature, K	Mass fraction of phosphoric acid	Mass fraction of potassium chloride	Mass density, kg/m3	uncertainty
298.15	0	0.2672	1180	12.2
298.15	0.0367	0.2533	1194	51.2
298.15	0.0603	0.2464	1199	13.2
298.15	0.0756	0.2434	1205	13.3
298.15	0.1154	0.2215	1223.8	12.4
298.15	0.2167	0.1847	1271	14.6
298.15	0.2997	0.1676	1305.5	23.6
298.15	0.3375	0.1556	1325.8	70.5
298.15	0.3848	0.1425	1359.5	34.8
298.15	0.4343	0.1317	1388.8	23.8
313.15	0	0.29	1192	12.4
313.15	0.0413	0.2703	1206.3	30
313.15	0.0744	0.2579	1221.2	25.2
313.15	0.1131	0.2415	1237	108.9
313.15	0.1524	0.2264	1260	37.5
313.15	0.194	0.2125	1281.1	90.8
313.15	0.2384	0.1969	1300.4	27.3
313.15	0.2823	0.1837	1322.1	19.7
313.15	0.3286	0.1719	1343.5	34.8
313.15	0.3799	0.1576	1369.4	35.5
313.15	0.4287	0.1475	1400.5	39.4

System: potassium chloride + phosphoric acid + water; phases: Liquid
Fixed: Pressure, kPa = 88.35
Property: Viscosity, Pa*s (Liquid); method: Capillary tube (Ostwald; Ubbelohde) method
Temperature, K	Mass fraction of phosphoric acid	Mass fraction of potassium chloride	Viscosity, Pa*s	uncertainty
298.15	0	0.2672	0.0008122	8.14e-05
298.15	0.0367	0.2533	0.0009128	0.0001239
298.15	0.0603	0.2464	0.0009842	0.0001049
298.15	0.0756	0.2434	0.0010309	0.0001093
298.15	0.1154	0.2215	0.0011324	0.0003324
298.15	0.2167	0.1847	0.0016569	0.0001703
298.15	0.2997	0.1676	0.0020789	0.0006661
298.15	0.3375	0.1556	0.0024296	0.0011067
298.15	0.3848	0.1425	0.0029986	0.0003478
298.15	0.4343	0.1317	0.0035671	0.0004111
313.15	0	0.29	0.0006778	6.79e-05
313.15	0.0413	0.2703	0.00072	0.0003061
313.15	0.0744	0.2579	0.0007911	0.0003018
313.15	0.1131	0.2415	0.0008957	0.0004615
313.15	0.1524	0.2264	0.0009728	0.0006142
313.15	0.194	0.2125	0.0011101	0.0007266
313.15	0.2384	0.1969	0.0012309	0.0011981
313.15	0.2823	0.1837	0.0014843	0.0003614
313.15	0.3286	0.1719	0.0017137	0.0008603
313.15	0.3799	0.1576	0.0020278	0.0006961
313.15	0.4287	0.1475	0.0024709	0.0007822

System: phosphoric acid + water + monopotassium phosphate; phases: Liquid
Fixed: Pressure, kPa = 88.35
Property: Mass density, kg/m3 (Liquid); method: Weighing bottle method
Temperature, K	Mass fraction of phosphoric acid	Mass fraction of monopotassium phosphate	Mass density, kg/m3	uncertainty
298.15	0	0.2075	1144	11.5
298.15	0.0362	0.2295	1187.9	11.9
298.15	0.0801	0.2553	1239.8	12.6
298.15	0.1163	0.2716	1283.3	13.2
298.15	0.156	0.2815	1328.5	14.1
298.15	0.1843	0.3054	1369.8	14.8
298.15	0.2125	0.3103	1407.2	15.8
298.15	0.2267	0.3241	1435.8	16.8
298.15	0.2343	0.3332	1448	16.8
298.15	0.2448	0.3383	1461.8	17.7
298.15	0.2688	0.3428	1485.6	21.3
298.15	0.2918	0.3509	1525.6	20.9
298.15	0.3012	0.3787	1561.8	22
298.15	0.3218	0.3821	1600.2	23.6
313.15	0	0.2579	1187.2	12
313.15	0.0155	0.278	1209.8	12.2
313.15	0.0431	0.2952	1252	14
313.15	0.0707	0.3029	1276.7	13.8
313.15	0.0955	0.313	1300.9	14.3
313.15	0.1173	0.3289	1324.2	15.6
313.15	0.1311	0.3535	1359.1	15.5
313.15	0.1696	0.3949	1424.7	15.7
313.15	0.1878	0.3979	1454.6	16.5
313.15	0.207	0.4104	1486.9	17.7
313.15	0.2233	0.428	1520.9	19.3
313.15	0.2471	0.4352	1551.6	23.9
313.15	0.2955	0.4398	1573.6	51.6
313.15	0.3089	0.4471	1611.6	52.8

System: phosphoric acid + water + monopotassium phosphate; phases: Liquid
Fixed: Pressure, kPa = 88.35
Property: Viscosity, Pa*s (Liquid); method: Capillary tube (Ostwald; Ubbelohde) method
Temperature, K	Mass fraction of phosphoric acid	Mass fraction of monopotassium phosphate	Viscosity, Pa*s	uncertainty
298.15	0	0.2075	0.0011981	0.0001201
298.15	0.0362	0.2295	0.0014802	0.0001485
298.15	0.0801	0.2553	0.0018389	0.0002343
298.15	0.1163	0.2716	0.0022738	0.0002756
298.15	0.156	0.2815	0.0029564	0.0003016
298.15	0.1843	0.3054	0.0036673	0.0003792
298.15	0.2125	0.3103	0.00457	0.0005064
298.15	0.2267	0.3241	0.0053104	0.0005528
298.15	0.2343	0.3332	0.0057032	0.0009694
298.15	0.2448	0.3383	0.0066356	0.0008532
298.15	0.2688	0.3428	0.0078872	0.0016492
298.15	0.2918	0.3509	0.0097468	0.0013761
298.15	0.3012	0.3787	0.012421	0.0016681
298.15	0.3218	0.3821	0.0163054	0.0020089
313.15	0	0.2579	0.0010131	0.0001015
313.15	0.0155	0.278	0.0011213	0.0001124
313.15	0.0431	0.2952	0.0013234	0.0001329
313.15	0.0707	0.3029	0.0015242	0.000161
313.15	0.0955	0.313	0.0015839	0.0002104
313.15	0.1173	0.3289	0.0019002	0.0002104
313.15	0.1311	0.3535	0.0022335	0.0002466
313.15	0.1696	0.3949	0.0030035	0.0003477
313.15	0.1878	0.3979	0.0036095	0.0003986
313.15	0.207	0.4104	0.0041964	0.0004992
313.15	0.2233	0.428	0.005016	0.0006027
313.15	0.2471	0.4352	0.0064385	0.0007995
313.15	0.2955	0.4398	0.0072542	0.0036937
313.15	0.3089	0.4471	0.0098489	0.0038107

System: potassium chloride + sulfuric acid + water; phases: Liquid
Fixed: Pressure, kPa = 88.35
Property: Mass density, kg/m3 (Liquid); method: Weighing bottle method
Temperature, K	Mass fraction of sulfuric acid	Mass fraction of potassium chloride	Mass density, kg/m3	uncertainty
298.15	0	0.2672	1180	14.5
298.15	0.0072	0.2572	1181.6	14.3
298.15	0.0283	0.2528	1194.1	14.3
298.15	0.0402	0.2488	1202.8	32.1
298.15	0.0584	0.2414	1204.5	244.5
298.15	0.0733	0.2344	1219.8	20.6
298.15	0.0808	0.2303	1224.4	17
298.15	0.0917	0.2248	1233.4	30.5
298.15	0.1128	0.2185	1240.5	45
298.15	0.1293	0.2134	1247.5	44.1
298.15	0.1325	0.2095	1255.1	12.6
298.15	0.1518	0.2058	1266.9	13.3
298.15	0.1613	0.1999	1273.4	23.8
298.15	0.1746	0.1981	1285.1	28.9
298.15	0.1771	0.1959	1289.9	28.7
313.15	0	0.29	1192	31.2
313.15	0.0095	0.2825	1199	30.5
313.15	0.0238	0.2789	1201.9	30.2
313.15	0.0435	0.2715	1208.7	13.3
313.15	0.0566	0.2671	1216.3	13.4
313.15	0.0735	0.258	1225.4	17.4
313.15	0.0878	0.2545	1231.1	19.2
313.15	0.1033	0.2467	1239.6	21.9
313.15	0.118	0.2428	1245.1	57
313.15	0.1291	0.238	1253.5	27
313.15	0.1504	0.2316	1266.8	35.5
313.15	0.1514	0.2272	1273.3	35.2
313.15	0.17	0.2226	1281.9	14.8
313.15	0.1732	0.2225	1283.3	14.9
313.15	0.1845	0.2157	1290.4	16

System: potassium chloride + sulfuric acid + water; phases: Liquid
Fixed: Pressure, kPa = 88.35
Property: Viscosity, Pa*s (Liquid); method: Capillary tube (Ostwald; Ubbelohde) method
Temperature, K	Mass fraction of sulfuric acid	Mass fraction of potassium chloride	Viscosity, Pa*s	uncertainty
298.15	0	0.2672	0.0008122	0.000558
298.15	0.0072	0.2572	0.0009986	0.0005407
298.15	0.0283	0.2528	0.0010303	0.0005324
298.15	0.0402	0.2488	0.0010448	0.0010468
298.15	0.0584	0.2414	0.0010985	0.0011012
298.15	0.0733	0.2344	0.0011331	0.0011923
298.15	0.0808	0.2303	0.0012036	0.000584
298.15	0.0917	0.2248	0.0012334	0.0004045
298.15	0.1128	0.2185	0.0012833	0.0002428
298.15	0.1293	0.2134	0.0013479	0.0002423
298.15	0.1325	0.2095	0.0013911	0.0002425
298.15	0.1518	0.2058	0.0014314	0.0002408
298.15	0.1613	0.1999	0.0014795	0.0001804
298.15	0.1746	0.1981	0.0015552	0.0001985
298.15	0.1771	0.1959	0.0015719	0.000199
313.15	0	0.29	0.0006778	0.0005869
313.15	0.0095	0.2825	0.0007884	0.0005734
313.15	0.0238	0.2789	0.0008003	0.0005664
313.15	0.0435	0.2715	0.0008264	0.0001879
313.15	0.0566	0.2671	0.0008627	0.0001871
313.15	0.0735	0.258	0.0009308	0.000472
313.15	0.0878	0.2545	0.0009131	0.0004839
313.15	0.1033	0.2467	0.0009687	0.0001066
313.15	0.118	0.2428	0.0010152	0.0003168
313.15	0.1291	0.238	0.0010274	0.0001081
313.15	0.1504	0.2316	0.0010547	0.000306
313.15	0.1514	0.2272	0.0011068	0.0002873
313.15	0.17	0.2226	0.0011253	0.0004964
313.15	0.1732	0.2225	0.0011784	0.0004975
313.15	0.1845	0.2157	0.0012263	0.0001341

System: sulfuric acid + water + potassium sulfate; phases: Liquid
Fixed: Pressure, kPa = 88.35
Property: Mass density, kg/m3 (Liquid); method: Weighing bottle method
Temperature, K	Mass fraction of sulfuric acid	Mass fraction of potassium sulfate	Mass density, kg/m3	uncertainty
298.15	0	0.1156	1084.3	10.8
298.15	0.0133	0.1253	1114.9	11.2
298.15	0.0241	0.1481	1137.9	11.4
298.15	0.0519	0.1622	1170.1	12.2
298.15	0.0647	0.1715	1197.7	12.7
298.15	0.0832	0.1893	1222	12.3
298.15	0.0954	0.2011	1246.9	12.5
298.15	0.1013	0.2239	1269.4	12.8
298.15	0.12	0.2274	1294.7	13
298.15	0.1284	0.222	1286.8	12.9
298.15	0.1388	0.2274	1310.2	13.2
298.15	0.1545	0.2199	1306.5	13.2
313.15	0	0.1337	1097.7	11
313.15	0.0146	0.1551	1127.1	11.3
313.15	0.0241	0.1715	1145.2	11.5
313.15	0.0419	0.1802	1166.1	11.7
313.15	0.0341	0.1935	1175.3	11.8
313.15	0.0554	0.2066	1214.8	12.2
313.15	0.0756	0.2328	1234.9	12.5
313.15	0.0874	0.2507	1270.5	12.9
313.15	0.1339	0.2621	1305	13.3
313.15	0.1607	0.27	1333.9	14
313.15	0.1662	0.2658	1351.4	14.5
313.15	0.1798	0.2771	1376.3	14.5

System: sulfuric acid + water + potassium sulfate; phases: Liquid
Fixed: Pressure, kPa = 88.35
Property: Viscosity, Pa*s (Liquid); method: Capillary tube (Ostwald; Ubbelohde) method
Temperature, K	Mass fraction of sulfuric acid	Mass fraction of potassium sulfate	Viscosity, Pa*s	uncertainty
298.15	0	0.1156	0.0010153	0.0001018
298.15	0.0133	0.1253	0.0010422	0.0001045
298.15	0.0241	0.1481	0.0011044	0.0001107
298.15	0.0519	0.1622	0.0011732	0.0001191
298.15	0.0647	0.1715	0.0012712	0.0001284
298.15	0.0832	0.1893	0.0013445	0.0001348
298.15	0.0954	0.2011	0.0013907	0.0001394
298.15	0.1013	0.2239	0.0014786	0.0001483
298.15	0.12	0.2274	0.0016028	0.0001608
298.15	0.1284	0.222	0.0015519	0.0001556
298.15	0.1388	0.2274	0.001681	0.0001686
298.15	0.1545	0.2199	0.001657	0.0001662
313.15	0	0.1337	0.0007917	7.95e-05
313.15	0.0146	0.1551	0.0008419	8.44e-05
313.15	0.0241	0.1715	0.0008609	8.63e-05
313.15	0.0419	0.1802	0.0008695	8.72e-05
313.15	0.0341	0.1935	0.0009	9.04e-05
313.15	0.0554	0.2066	0.0009807	9.85e-05
313.15	0.0756	0.2328	0.0010292	0.0001034
313.15	0.0874	0.2507	0.0011302	0.0001136
313.15	0.1339	0.2621	0.0012529	0.0001262
313.15	0.1607	0.27	0.0013853	0.0001415
313.15	0.1662	0.2658	0.0014951	0.000152
313.15	0.1798	0.2771	0.0016157	0.0001646
