Measured thermophysical data. Phase behavior of binary mixture for the isoalkyl acetate in supercritical carbon dioxide
Source: Fluid Phase Equilib., 2014, 10.1016/j.fluid.2013.12.026
Compound 1: carbon dioxide, CO2, InChI=1S/CO2/c2-1-3, purity 99.9%
Compound 2: 2-methylpropyl ethanoate, C6H12O2, InChI=1S/C6H12O2/c1-5(2)4-8-6(3)7/h5H,4H2,1-3H3, purity 98%
Compound 3: 3-methylbutyl ethanoate, C7H14O2, InChI=1S/C7H14O2/c1-6(2)4-5-9-7(3)8/h6H,4-5H2,1-3H3, purity 98%
Compound 4: 2-ethylhexyl acetate, C10H20O2, InChI=1S/C10H20O2/c1-4-6-7-10(5-2)8-12-9(3)11/h10H,4-8H2,1-3H3, purity 98%

System: 2-methylpropyl ethanoate + carbon dioxide; phases: Liquid, Gas
Property: Critical pressure, kPa (Liquid); method: Direct measurement
Mole fraction of 2-methylpropyl ethanoate	Critical pressure, kPa	uncertainty
0.05	8310	40

System: 2-methylpropyl ethanoate + carbon dioxide; phases: Gas, Liquid
Property: Vapor or sublimation pressure, kPa (Gas); method: Closed cell (Static) method
Temperature, K	Mole fraction of 2-methylpropyl ethanoate	Vapor or sublimation pressure, kPa	uncertainty
313.2	0.034	8280	110

System: 2-methylpropyl ethanoate + carbon dioxide; phases: Liquid, Gas
Property: Vapor or sublimation pressure, kPa (Liquid); method: Closed cell (Static) method
Temperature, K	Mole fraction of 2-methylpropyl ethanoate	Vapor or sublimation pressure, kPa	uncertainty
313.2	0.067	7930	540
313.2	0.104	7480	440
313.2	0.112	7320	460
313.2	0.137	7100	410
313.2	0.167	6790	320
313.2	0.198	6590	320
313.2	0.206	6450	330
313.2	0.232	6350	350
313.2	0.265	6070	350
313.2	0.333	5350	360
313.2	0.415	4720	300
313.2	0.481	4240	320
313.2	0.551	3620	340
313.2	0.616	3100	320
313.2	0.639	2970	300
333.2	0.067	10790	720
333.2	0.104	10000	740
333.2	0.112	9930	730
333.2	0.137	9480	670
333.2	0.167	9000	610
333.2	0.198	8620	510
333.2	0.206	8410	510
333.2	0.232	8100	540
333.2	0.265	7860	510
333.2	0.333	6810	530
333.2	0.415	5850	440
333.2	0.481	5160	440
333.2	0.551	4350	400
333.2	0.616	3830	320
333.2	0.639	3590	350
353.2	0.104	13020	960
353.2	0.112	12690	900
353.2	0.137	12030	810
353.2	0.167	11310	780
353.2	0.198	10810	680
353.2	0.206	10620	690
353.2	0.232	10330	730
353.2	0.265	9830	740
353.2	0.333	8280	670
353.2	0.415	7280	560
353.2	0.481	6210	610
353.2	0.551	5210	490
353.2	0.616	4560	460
353.2	0.639	4170	480
373.2	0.112	15170	1180
373.2	0.137	14630	1230
373.2	0.167	13550	1020
373.2	0.198	12760	1010
373.2	0.232	12100	790
373.2	0.265	11380	740
373.2	0.333	10280	760
373.2	0.415	8520	820
373.2	0.481	7240	750
373.2	0.551	5970	670
373.2	0.616	5000	530
373.2	0.639	4720	560
393.2	0.167	15720	940
393.2	0.198	14830	1180
393.2	0.232	14190	990
393.2	0.265	12860	950
393.2	0.333	11620	810
393.2	0.415	9830	900
393.2	0.481	8280	890
393.2	0.551	6790	750
393.2	0.616	5750	640
393.2	0.639	5350	650

System: 3-methylbutyl ethanoate + carbon dioxide; phases: Liquid, Gas
Property: Critical pressure, kPa (Liquid); method: Direct measurement
Mole fraction of 3-methylbutyl ethanoate	Critical pressure, kPa	uncertainty
0.034	13970	40

System: 3-methylbutyl ethanoate + carbon dioxide; phases: Liquid, Gas
Property: Vapor or sublimation pressure, kPa (Liquid); method: Closed cell (Static) method
Temperature, K	Mole fraction of 3-methylbutyl ethanoate	Vapor or sublimation pressure, kPa	uncertainty
313.2	0.034	8660	410
313.2	0.058	8170	400
313.2	0.087	8030	500
313.2	0.128	7480	430
313.2	0.152	7220	400
313.2	0.183	7000	340
313.2	0.225	6660	400
313.2	0.279	6050	400
313.2	0.341	5500	350
313.2	0.382	5140	270
313.2	0.461	4690	260
313.2	0.541	4120	340
313.2	0.617	3360	400
333.2	0.034	11550	450
333.2	0.058	11210	520
333.2	0.087	10790	590
333.2	0.128	10170	600
333.2	0.152	9690	620
333.2	0.183	9350	620
333.2	0.225	8660	600
333.2	0.279	7900	600
333.2	0.341	6930	550
333.2	0.382	6520	420
333.2	0.461	5690	410
333.2	0.541	4910	460
333.2	0.617	3900	500
353.2	0.058	13860	680
353.2	0.087	13590	810
353.2	0.128	12660	780
353.2	0.152	12170	830
353.2	0.183	11690	800
353.2	0.225	10720	770
353.2	0.279	9830	790
353.2	0.341	8450	770
353.2	0.382	7910	560
353.2	0.461	6790	560
353.2	0.541	5690	560
353.2	0.617	4600	580
373.2	0.058	16450	830
373.2	0.087	16100	780
373.2	0.128	15000	910
373.2	0.152	14030	960
373.2	0.183	13860	910
373.2	0.225	12780	830
373.2	0.279	11830	970
373.2	0.341	10000	1010
373.2	0.382	9310	720
373.2	0.461	7850	690
373.2	0.541	6580	660
373.2	0.617	5280	690
393.2	0.087	17690	950
393.2	0.128	16720	740
393.2	0.152	16310	900
393.2	0.183	15900	870
393.2	0.225	14590	940
393.2	0.279	13620	1070
393.2	0.341	11520	1170
393.2	0.382	10660	840
393.2	0.461	9000	770
393.2	0.541	7590	790
393.2	0.617	5930	870

System: 2-ethylhexyl acetate + carbon dioxide; phases: Liquid, Gas
Property: Critical pressure, kPa (Liquid); method: Direct measurement
Mole fraction of 2-ethylhexyl acetate	Critical pressure, kPa	uncertainty
0.023	8190	330
0.044	11590	310
0.064	14480	280
0.08	16580	250
0.095	18240	230

System: 2-ethylhexyl acetate + carbon dioxide; phases: Gas, Liquid
Property: Vapor or sublimation pressure, kPa (Gas); method: Closed cell (Static) method
Temperature, K	Mole fraction of 2-ethylhexyl acetate	Vapor or sublimation pressure, kPa	uncertainty
333.2	0.023	11450	70
353.2	0.023	14000	90
353.2	0.044	14260	70
373.2	0.023	15370	140
373.2	0.044	16200	80
373.2	0.064	16410	70
373.2	0.076	16520	70
393.2	0.023	15310	170
393.2	0.044	17030	140
393.2	0.064	17840	90
393.2	0.076	18070	80
393.2	0.08	18110	70
393.2	0.094	18230	70

System: 2-ethylhexyl acetate + carbon dioxide; phases: Liquid, Gas
Property: Vapor or sublimation pressure, kPa (Liquid); method: Closed cell (Static) method
Temperature, K	Mole fraction of 2-ethylhexyl acetate	Vapor or sublimation pressure, kPa	uncertainty
313.2	0.044	8140	250
313.2	0.064	8080	350
313.2	0.076	8010	290
313.2	0.08	7920	250
313.2	0.094	7830	320
313.2	0.095	7810	320
313.2	0.104	7730	350
313.2	0.119	7700	370
313.2	0.13	7610	390
313.2	0.162	7220	440
313.2	0.198	6790	450
313.2	0.252	6240	300
313.2	0.279	6100	250
313.2	0.294	6080	160
313.2	0.324	6030	340
313.2	0.36	5830	340
313.2	0.401	5130	390
313.2	0.469	4720	240
313.2	0.498	4420	290
333.2	0.064	11590	580
333.2	0.076	11350	460
333.2	0.08	11310	420
333.2	0.094	10950	600
333.2	0.095	10910	600
333.2	0.104	10890	670
333.2	0.119	10750	650
333.2	0.13	10680	760
333.2	0.162	9950	670
333.2	0.198	9170	720
333.2	0.252	8500	520
333.2	0.279	8060	450
333.2	0.294	7930	430
333.2	0.324	7840	580
333.2	0.36	7310	530
333.2	0.401	6410	440
333.2	0.469	6030	260
333.2	0.498	5460	380
353.2	0.076	14470	170
353.2	0.08	14410	290
353.2	0.094	14380	660
353.2	0.095	14310	650
353.2	0.104	14140	620
353.2	0.119	14060	700
353.2	0.13	13810	840
353.2	0.162	12810	990
353.2	0.198	11900	1040
353.2	0.252	10680	930
353.2	0.279	10160	780
353.2	0.294	9690	600
353.2	0.324	9560	750
353.2	0.36	8970	620
353.2	0.401	7950	630
353.2	0.469	7140	520
353.2	0.498	6590	590
373.2	0.094	16540	570
373.2	0.095	16590	570
373.2	0.104	16460	610
373.2	0.119	16240	550
373.2	0.13	15930	890
373.2	0.162	15360	1120
373.2	0.198	14310	1090
373.2	0.252	12590	1100
373.2	0.279	12030	990
373.2	0.294	11710	840
373.2	0.324	11260	940
373.2	0.36	10380	910
373.2	0.401	9220	830
373.2	0.469	8040	680
373.2	0.498	7520	710
393.2	0.104	18100	470
393.2	0.119	18000	530
393.2	0.13	17820	810
393.2	0.162	17430	1020
393.2	0.198	16450	1010
393.2	0.252	14730	1160
393.2	0.279	14160	1150
393.2	0.294	13690	1110
393.2	0.324	12840	1200
393.2	0.36	11760	1180
393.2	0.401	10520	1000
393.2	0.469	9000	890
393.2	0.498	8390	880
