Measured thermophysical data. Thermodynamics of mixtures with strongly negative deviations from Raoult s law Part 9. Vapor liquid equilibria for the system 1-propanol + di-n-propylamine at six temperatures between 293.15 and 318.15K
Source: Fluid Phase Equilib., 2005, 10.1016/j.fluid.2005.01.013
Compound 1: propan-1-ol, C3H8O, InChI=1S/C3H8O/c1-2-3-4/h4H,2-3H2,1H3
Compound 2: dipropylamine, C6H15N, InChI=1S/C6H15N/c1-3-5-7-6-4-2/h7H,3-6H2,1-2H3

System: propan-1-ol; phases: Liquid, Gas
Property: Vapor or sublimation pressure, kPa (Liquid); method: CCELL:UFactor:4
Temperature, K	Vapor or sublimation pressure, kPa	uncertainty
293.15	2.03	0.087
298.15	2.814	0.097
303.15	3.881	0.11
308.15	5.25	0.128
313.15	7.034	0.15
318.15	9.306	0.179

System: propan-1-ol; phases: Liquid
Fixed: Pressure, kPa = 101.325
Property: Molar volume, m3/mol (Liquid); method: VIBTUB:UFactor:8
Temperature, K	Molar volume, m3/mol	uncertainty
293.15	7.48e-05	1.1e-07
298.15	7.52e-05	1.1e-07
303.15	7.55e-05	1.2e-07
308.15	7.59e-05	1.2e-07
313.15	7.63e-05	1.2e-07
318.15	7.67e-05	1.3e-07

System: dipropylamine; phases: Liquid, Gas
Property: Vapor or sublimation pressure, kPa (Liquid); method: CCELL:UFactor:4
Temperature, K	Vapor or sublimation pressure, kPa	uncertainty
293.15	2.722	0.096
298.15	3.597	0.107
303.15	4.712	0.121
308.15	6.118	0.138
313.15	7.798	0.16
318.15	9.887	0.186

System: dipropylamine; phases: Liquid
Fixed: Pressure, kPa = 101.325
Property: Molar volume, m3/mol (Liquid); method: VIBTUB:UFactor:8
Temperature, K	Molar volume, m3/mol	uncertainty
293.15	0.00013694	2.7e-07
298.15	0.00013799	2.8e-07
303.15	0.00013897	2.8e-07
308.15	0.00013978	2.9e-07
313.15	0.00014048	3e-07
318.15	0.00014153	3e-07

System: propan-1-ol + dipropylamine; phases: Liquid, Gas
Property: Azeotropic pressure, kPa (Liquid); method: By P(X) extreme
Temperature, K	Azeotropic pressure, kPa	uncertainty
293.15	1.883	0.211
298.15	2.622	0.216
303.15	3.612	0.222
308.15	4.9	0.229
313.15	6.554	0.239
318.15	8.668	0.252

System: propan-1-ol + dipropylamine; phases: Liquid, Gas
Property: Azeotropic composition: mole fraction of propan-1-ol (Liquid); method: By T or P extreme
Temperature, K	Azeotropic composition: mole fraction of propan-1-ol	uncertainty
293.15	0.7646	0.0038
298.15	0.762	0.0039
303.15	0.7504	0.004
308.15	0.7342	0.0042
313.15	0.7194	0.0044
318.15	0.6995	0.0046

System: propan-1-ol + dipropylamine; phases: Gas, Liquid
Property: Vapor or sublimation pressure, kPa (Gas); method: CCELL:UFactor:4
Temperature, K	Mole fraction of propan-1-ol	Vapor or sublimation pressure, kPa	uncertainty
293.15	0	2.722	0.096
293.15	0.05	2.656	0.095
293.15	0.1566	2.502	0.093
293.15	0.2332	2.432	0.092
293.15	0.3517	2.289	0.091
293.15	0.4317	2.185	0.089
293.15	0.5191	2.073	0.088
293.15	0.5816	1.965	0.086
293.15	0.6292	1.935	0.086
293.15	0.7172	1.884	0.085
293.15	0.7512	1.877	0.085
293.15	0.7725	1.887	0.085
293.15	0.8619	1.917	0.086
293.15	0.953	1.981	0.087
293.15	1	2.03	0.087
298.15	0	3.597	0.107
298.15	0.05	3.532	0.106
298.15	0.1566	3.357	0.104
298.15	0.2332	3.264	0.103
298.15	0.3517	3.096	0.101
298.15	0.4317	2.984	0.099
298.15	0.5191	2.825	0.097
298.15	0.5816	2.737	0.096
298.15	0.6292	2.694	0.096
298.15	0.7172	2.616	0.095
298.15	0.7512	2.61	0.095
298.15	0.7725	2.626	0.095
298.15	0.8619	2.665	0.095
298.15	0.953	2.756	0.096
298.15	1	2.814	0.097
303.15	0	4.712	0.121
303.15	0.05	4.608	0.12
303.15	0.1566	4.48	0.118
303.15	0.2332	4.341	0.116
303.15	0.3517	4.14	0.114
303.15	0.4317	4.014	0.112
303.15	0.5191	3.841	0.11
303.15	0.5816	3.734	0.109
303.15	0.6292	3.67	0.108
303.15	0.7172	3.609	0.107
303.15	0.7512	3.605	0.107
303.15	0.7725	3.61	0.107
303.15	0.8619	3.688	0.108
303.15	0.953	3.81	0.11
303.15	1	3.881	0.11
308.15	0	6.118	0.138
308.15	0.05	5.969	0.137
308.15	0.1566	5.785	0.134
308.15	0.2332	5.676	0.133
308.15	0.3517	5.474	0.13
308.15	0.4317	5.306	0.128
308.15	0.5191	5.156	0.126
308.15	0.5816	5.012	0.125
308.15	0.6292	4.942	0.124
308.15	0.7172	4.884	0.123
308.15	0.7512	4.882	0.123
308.15	0.7725	4.886	0.123
308.15	0.8619	5.006	0.125
308.15	0.953	5.162	0.127
308.15	1	5.25	0.128
313.15	0	7.798	0.16
313.15	0.05	7.665	0.158
313.15	0.1566	7.458	0.155
313.15	0.2332	7.361	0.154
313.15	0.3517	7.158	0.152
313.15	0.4317	7.01	0.15
313.15	0.5191	6.795	0.147
313.15	0.5816	6.661	0.145
313.15	0.6292	6.566	0.144
313.15	0.7172	6.543	0.144
313.15	0.7512	6.538	0.144
313.15	0.7725	6.557	0.144
313.15	0.8619	6.706	0.146
313.15	0.953	6.922	0.149
313.15	1	7.034	0.15
318.15	0	9.887	0.186
318.15	0.05	9.729	0.184
318.15	0.1566	9.545	0.181
318.15	0.2332	9.481	0.181
318.15	0.3517	9.294	0.178
318.15	0.4317	9.083	0.176
318.15	0.5191	8.869	0.173
318.15	0.5816	8.747	0.171
318.15	0.6292	8.674	0.171
318.15	0.7172	8.657	0.17
318.15	0.7512	8.667	0.17
318.15	0.7725	8.702	0.171
318.15	0.8619	8.875	0.173
318.15	0.953	9.15	0.177
318.15	1	9.306	0.179
