Measured thermophysical data. Vapor-liquid equilibria of NH3 in (NH3 + H2O) and (NH3 + PZ + H2O) system
Source: Fluid Phase Equilib., 2011, 10.1016/j.fluid.2011.08.017
Compound 1: piperazine, C4H10N2, InChI=1S/C4H10N2/c1-2-6-4-3-5-1/h5-6H,1-4H2
Compound 2: ammonia, H3N, InChI=1S/H3N/h1H3, purity 99.9%
Compound 3: water, H2O, InChI=1S/H2O/h1H2, purity 99.8%

System: piperazine + ammonia + water; phases: Gas, Liquid
Property: Partial pressure, kPa of ammonia (Gas); method: infrared spectroscopy of acid wash
Temperature, K	Mole fraction of ammonia	Mole fraction of piperazine	Partial pressure, kPa of ammonia	uncertainty
293.65	0.1083	0	10.42	1.07
293.75	0.1063	0.00718	10.77	1.1
294.15	0.0269	0.0072	2.35	0.26
294.75	0.027	0	2.25	0.25
295.05	0.0552	0.00733	5.02	0.53
295.65	0.0556	0	4.94	0.52
295.65	0.1568	0.00712	20.72	2.12
295.65	0.1571	0	19.61	2
303.65	0.0267	0.00722	3.49	0.39
303.65	0.027	0	3.4	0.37
303.75	0.0541	0.00724	8.07	0.84
303.85	0.055	0	7.43	0.77
304.35	0.1066	0.00721	17.28	1.84
304.35	0.108	0	16.49	1.69
304.35	0.1583	0	30.08	3.07
304.55	0.156	0.00709	33.03	3.41
313.15	0.0265	0.00723	5.17	0.57
313.15	0.027	0	5	0.55
313.15	0.0531	0.00726	11.31	1.19
313.15	0.0538	0	10.98	1.14
313.15	0.104	0	24.38	2.5
313.15	0.105	0.00719	27.01	2.81
313.45	0.1536	0.00708	46.16	4.69
313.75	0.1532	0	45.29	4.61
