Measured thermophysical data. Measurement and correlation of aqueous biphasic systems composed of alcohol (1-propanol/ 2-propanol/tert-butanol) + (NH4)2SO4 + H2O at 298 K and a textile dye partition.
Source: Fluid Phase Equilib., 2018, 10.1016/j.fluid.2018.03.009
Compound 1: ammonium sulfate, H8N2O4S, InChI=1S/2H3N.H2O4S/c;;1-5(2,3)4/h2*1H3;(H2,1,2,3,4), purity 99.4%
Compound 2: propan-1-ol, C3H8O, InChI=1S/C3H8O/c1-2-3-4/h4H,2-3H2,1H3, purity 99.98%
Compound 3: propan-2-ol, C3H8O, InChI=1S/C3H8O/c1-3(2)4/h3-4H,1-2H3, purity 99.5%
Compound 4: 2-methylpropan-2-ol, C4H10O, InChI=1S/C4H10O/c1-4(2,3)5/h5H,1-3H3, purity 99%
Compound 5: water, H2O, InChI=1S/H2O/h1H2, purity 99.8%

System: ammonium sulfate + propan-1-ol + water; phases: Liquid mixture 1, Liquid mixture 2
Fixed: Pressure, kPa = 101
Fixed: Temperature, K = 298.15
Property: Mass fraction of propan-1-ol (Liquid mixture 1); method: Titration method
Mass fraction of ammonium sulfate	Mass fraction of propan-1-ol	uncertainty
0.0081	0.6855	0.0097
0.0118	0.6136	0.012
0.0133	0.5815	0.013
0.017	0.5553	0.0138
0.02	0.5102	0.0152
0.0231	0.4715	0.0146
0.0234	0.4859	0.0151
0.0254	0.4563	0.0141
0.0267	0.4551	0.0141
0.0293	0.4399	0.0136
0.0298	0.4287	0.0133
0.0303	0.4268	0.0132
0.0314	0.4195	0.013
0.0328	0.4059	0.0126
0.033	0.4119	0.0128
0.035	0.3864	0.012
0.036	0.3981	0.0123
0.0364	0.3839	0.0119
0.0375	0.3749	0.0116
0.0387	0.3667	0.0114
0.0389	0.368	0.0114
0.0398	0.3581	0.0111
0.0406	0.3526	0.0109
0.0416	0.3503	0.0109
0.0417	0.3468	0.0107
0.0422	0.3415	0.0106
0.0452	0.3295	0.0102
0.0467	0.3323	0.0103
0.0475	0.3123	0.0097
0.0476	0.316	0.0098
0.0488	0.3069	0.0095
0.0493	0.2993	0.0093
0.0502	0.2989	0.0093
0.0509	0.2926	0.0091
0.0514	0.2863	0.0089
0.0526	0.2849	0.0088
0.0527	0.2819	0.0087
0.0535	0.2743	0.0085
0.0553	0.2691	0.0083
0.0554	0.2668	0.0083
0.0572	0.2582	0.008
0.0578	0.2573	0.008
0.059	0.2497	0.0077
0.0596	0.2497	0.0077
0.0616	0.241	0.0075
0.0621	0.2407	0.0075
0.0633	0.2331	0.0072
0.064	0.228	0.0071
0.065	0.2266	0.007
0.0673	0.2201	0.0068
0.0681	0.2162	0.0067
0.0691	0.2118	0.0066
0.0707	0.2043	0.0063
0.0711	0.2057	0.0064
0.0724	0.2007	0.0062
0.0742	0.1929	0.006
0.0747	0.1941	0.006
0.0773	0.1888	0.0059
0.0799	0.1825	0.0057
0.0804	0.1761	0.0055
0.0822	0.1752	0.0054
0.0853	0.1682	0.0052
0.0861	0.1655	0.0051
0.0883	0.1617	0.005
0.0924	0.1542	0.0048
0.0967	0.1471	0.0046
0.1013	0.1409	0.0045
0.1048	0.1348	0.0043
0.1075	0.1307	0.0042
0.1084	0.1293	0.0042
0.112	0.1219	0.004
0.1143	0.1216	0.004
0.1186	0.114	0.0038
0.1213	0.1145	0.0038
0.139	0.1035	0.0035
0.1517	0.0917	0.0033
0.1672	0.0803	0.003
0.1862	0.0686	0.0028
0.2008	0.0607	0.0026
0.2152	0.0438	0.0024
0.2246	0.0422	0.0023
0.2418	0.0381	0.0023
0.2823	0.0291	0.0022
0.2964	0.0257	0.0021
0.3262	0.0196	0.0021
0.3483	0.016	0.0021
0.3563	0.0151	0.002
0.3625	0.0146	0.002

System: ammonium sulfate + propan-1-ol + water; phases: Liquid mixture 1, Liquid mixture 2
Fixed: Temperature, K = 298.15
Fixed: Pressure, kPa = 91
Property: Mass fraction of ammonium sulfate (Liquid mixture 1); method: Gravimetric
Property: Mass fraction of propan-1-ol (Liquid mixture 2); method: Gravimetric
Property: Mass fraction of ammonium sulfate (Liquid mixture 2); method: Gravimetric
Mass fraction of propan-1-ol	Mass fraction of ammonium sulfate	uncertainty	Mass fraction of propan-1-ol	uncertainty	Mass fraction of ammonium sulfate	uncertainty
0.5918	0.0145	0.0003	0.1061	0.0025	0.1333	
0.649	0.0114	0.0003	0.1005	0.0024	0.1385	
0.6729	0.0103	0.0002	0.0951	0.0022	0.1437	
0.7047	0.0089	0.0002	0.0861	0.002	0.1532	
0.7331	0.0079	0.0002	0.0771	0.0018	0.1638	
0.7879	0.0061	0.0002	0.0704	0.0016	0.1726	

System: ammonium sulfate + propan-2-ol + water; phases: Liquid mixture 1, Liquid mixture 2
Fixed: Pressure, kPa = 101
Fixed: Temperature, K = 298.15
Property: Mass fraction of propan-2-ol (Liquid mixture 1); method: Titration method
Mass fraction of ammonium sulfate	Mass fraction of propan-2-ol	uncertainty
0.0073	0.6743	0.0101
0.0109	0.6283	0.0115
0.0134	0.5867	0.0128
0.0186	0.5452	0.0141
0.026	0.5079	0.0152
0.0346	0.4677	0.0145
0.0538	0.3813	0.0118
0.0595	0.3592	0.0111
0.0655	0.3308	0.0102
0.072	0.3116	0.0097
0.0797	0.2886	0.0089
0.0886	0.2681	0.0083
0.0954	0.2511	0.0078
0.1011	0.2367	0.0073
0.1071	0.2208	0.0068
0.115	0.202	0.0063
0.1252	0.1815	0.0056
0.1376	0.1616	0.005
0.1508	0.1333	0.0043
0.1593	0.1254	0.0041
0.1676	0.1118	0.0037
0.1784	0.1082	0.0037
0.179	0.1039	0.0036
0.1911	0.0889	0.0032
0.2007	0.0856	0.0031
0.2141	0.0785	0.003
0.2202	0.0732	0.0029
0.2252	0.0723	0.0029
0.2357	0.0679	0.0028
0.2363	0.0668	0.0028
0.2488	0.0577	0.0026
0.2654	0.0527	0.0025
0.2765	0.05	0.0025
0.2864	0.0455	0.0024
0.3016	0.0406	0.0023
0.32	0.0381	0.0023
0.3735	0.0284	0.0022

System: ammonium sulfate + propan-2-ol + water; phases: Liquid mixture 1, Liquid mixture 2
Fixed: Temperature, K = 298.15
Fixed: Pressure, kPa = 91
Property: Mass fraction of ammonium sulfate (Liquid mixture 1); method: Gravimetric
Property: Mass fraction of propan-2-ol (Liquid mixture 2); method: Gravimetric
Property: Mass fraction of ammonium sulfate (Liquid mixture 2); method: Gravimetric
Mass fraction of propan-2-ol	Mass fraction of ammonium sulfate	uncertainty	Mass fraction of propan-2-ol	uncertainty	Mass fraction of ammonium sulfate	uncertainty
0.6026	0.0133	0.0003	0.072	0.0017	0.2233	
0.6402	0.0103	0.0003	0.0605	0.0015	0.237	
0.6714	0.0082	0.0002	0.0503	0.0012	0.2507	
0.4974	0.0254	0.0006	0.125	0.0029	0.1731	
0.5319	0.0208	0.0005	0.1034	0.0024	0.1916	
0.5699	0.0166	0.0004	0.0865	0.0021	0.2078	

System: ammonium sulfate + 2-methylpropan-2-ol + water; phases: Liquid mixture 1, Liquid mixture 2
Fixed: Pressure, kPa = 101
Fixed: Temperature, K = 298.15
Property: Mass fraction of 2-methylpropan-2-ol (Liquid mixture 1); method: Titration method
Mass fraction of ammonium sulfate	Mass fraction of 2-methylpropan-2-ol	uncertainty
0.0016	0.6966	0.0094
0.0039	0.6765	0.01
0.008	0.6009	0.0124
0.0087	0.5671	0.0134
0.0093	0.552	0.0139
0.0108	0.534	0.0144
0.0123	0.5159	0.015
0.0138	0.4932	0.0153
0.0149	0.4772	0.0148
0.017	0.4615	0.0143
0.0182	0.4485	0.0139
0.0193	0.4339	0.0134
0.0209	0.4173	0.0129
0.0231	0.4009	0.0124
0.0254	0.381	0.0118
0.0278	0.3632	0.0113
0.0301	0.3447	0.0107
0.0413	0.3008	0.0093
0.0427	0.2963	0.0092
0.0434	0.2865	0.0089
0.0437	0.2863	0.0089
0.0444	0.2827	0.0088
0.0452	0.2778	0.0086
0.0458	0.273	0.0085
0.0464	0.2687	0.0083
0.0472	0.2653	0.0082
0.0483	0.2621	0.0081
0.0489	0.2575	0.008
0.0494	0.2534	0.0079
0.0501	0.2501	0.0077
0.0507	0.2517	0.0078
0.0515	0.2455	0.0076
0.0525	0.24	0.0074
0.0538	0.2359	0.0073
0.0546	0.2344	0.0073
0.0556	0.2299	0.0071
0.0572	0.2237	0.0069
0.0576	0.2214	0.0069
0.0587	0.2187	0.0068
0.0593	0.2138	0.0066
0.0616	0.2092	0.0065
0.0616	0.209	0.0065
0.0634	0.2023	0.0063
0.0649	0.1987	0.0062
0.0656	0.1966	0.0061
0.0673	0.1904	0.0059
0.0692	0.1847	0.0057
0.0697	0.1845	0.0057
0.0707	0.1803	0.0056
0.0731	0.1752	0.0054
0.0753	0.1719	0.0053
0.0789	0.1622	0.005
0.0818	0.1591	0.0049
0.0845	0.1516	0.0047
0.0897	0.1466	0.0046
0.0904	0.1418	0.0045
0.1007	0.131	0.0042
0.1083	0.1178	0.0039
0.1199	0.109	0.0037
0.1208	0.1058	0.0036
0.1407	0.088	0.0032
0.146	0.086	0.0031
0.1739	0.0666	0.0027
0.1801	0.0628	0.0027
0.1912	0.0575	0.0026
0.2014	0.0542	0.0025
0.2086	0.0499	0.0024
0.2176	0.0465	0.0024
0.2258	0.0446	0.0024
0.2335	0.0421	0.0023
0.2941	0.0351	0.0022
0.3006	0.0348	0.0022
0.3216	0.0272	0.0021
0.3475	0.0218	0.0021
0.3624	0.0158	0.0021
0.3904	0.0109	0.002
0.3908	0.0065	0.002
0.3961	0.0039	0.002

System: ammonium sulfate + 2-methylpropan-2-ol + water; phases: Liquid mixture 1, Liquid mixture 2
Fixed: Temperature, K = 298.15
Fixed: Pressure, kPa = 91
Property: Mass fraction of ammonium sulfate (Liquid mixture 1); method: Gravimetric
Property: Mass fraction of 2-methylpropan-2-ol (Liquid mixture 2); method: Gravimetric
Property: Mass fraction of ammonium sulfate (Liquid mixture 2); method: Gravimetric
Mass fraction of 2-methylpropan-2-ol	Mass fraction of ammonium sulfate	uncertainty	Mass fraction of 2-methylpropan-2-ol	uncertainty	Mass fraction of ammonium sulfate	uncertainty
0.516	0.0112	0.0003	0.1106	0.0026	0.1243	
0.5475	0.0093	0.0002	0.1038	0.0024	0.131	
0.5966	0.0068	0.0002	0.093	0.0022	0.1428	
0.644	0.0049	0.0001	0.0841	0.002	0.1539	
0.6711	0.004	0.0001	0.076	0.0018	0.1652	
0.6896	0.0035	0.0001	0.0682	0.0016	0.1772	
