Measured thermophysical data. Thermodynamics of binary mixtures containing N-methyl-2-pyrrolidinone VLE measurements for systems with ethers Comparison with the Mod. UNIFAC (Do) and DISQUAC models Predictions for VLE, GE m, HEm and SLE?
Source: Fluid Phase Equilib., 2005, 10.1016/j.fluid.2005.06.017
Compound 1: N-methylpyrrolidone, C5H9NO, InChI=1S/C5H9NO/c1-6-4-2-3-5(6)7/h2-4H2,1H3, purity 99.5%
Compound 2: dipropyl ether, C6H14O, InChI=1S/C6H14O/c1-3-5-7-6-4-2/h3-6H2,1-2H3, purity 99%
Compound 3: dibutyl ether, C8H18O, InChI=1S/C8H18O/c1-3-5-7-9-8-6-4-2/h3-8H2,1-2H3, purity 99%
Compound 4: 2-methoxy-2-methylpropane, C5H12O, InChI=1S/C5H12O/c1-5(2,3)6-4/h1-4H3, purity 99.5%
Compound 5: 2-methoxy-2-methylbutane, C6H14O, InChI=1S/C6H14O/c1-5-6(2,3)7-4/h5H2,1-4H3, purity 99%

System: N-methylpyrrolidone; phases: Liquid, Gas
Property: Vapor or sublimation pressure, kPa (Liquid); method: Ebulliometric method (Recirculating still)
Temperature, K	Vapor or sublimation pressure, kPa	uncertainty
333.15	0.5	3
353.15	1.3	3
373.15	3.6	3

System: dipropyl ether; phases: Liquid, Gas
Property: Vapor or sublimation pressure, kPa (Liquid); method: Ebulliometric method (Recirculating still)
Temperature, K	Vapor or sublimation pressure, kPa	uncertainty
353.15	74.1	3.1
373.15	135.5	3.1

System: dibutyl ether; phases: Liquid, Gas
Property: Vapor or sublimation pressure, kPa (Liquid); method: Ebulliometric method (Recirculating still)
Temperature, K	Vapor or sublimation pressure, kPa	uncertainty
373.15	28.4	3

System: 2-methoxy-2-methylpropane; phases: Liquid, Gas
Property: Vapor or sublimation pressure, kPa (Liquid); method: Ebulliometric method (Recirculating still)
Temperature, K	Vapor or sublimation pressure, kPa	uncertainty
333.15	120.4	3.2

System: 2-methoxy-2-methylbutane; phases: Liquid, Gas
Property: Vapor or sublimation pressure, kPa (Liquid); method: Ebulliometric method (Recirculating still)
Temperature, K	Vapor or sublimation pressure, kPa	uncertainty
353.15	86.7	3.1

System: dipropyl ether + N-methylpyrrolidone; phases: Liquid, Gas
Property: Vapor or sublimation pressure, kPa (Liquid); method: Ebulliometric method (Recirculating still)
Temperature, K	Mole fraction of N-methylpyrrolidone	Vapor or sublimation pressure, kPa	uncertainty
353.15	0	74.1	3.1
353.15	0.1171	68.3	3
353.15	0.1988	64.6	3
353.15	0.2774	61.6	3
353.15	0.3552	59.3	3
353.15	0.4323	56.2	3
353.15	0.5543	50.3	3
353.15	0.6672	42.8	3
353.15	0.8271	27	3
353.15	1	1.3	3
373.15	0	135.5	3.1
373.15	0.2186	116.6	3.1
373.15	0.2851	112.6	3
373.15	0.3617	106.7	3
373.15	0.4323	99.5	3
373.15	0.5543	84.7	3
373.15	0.6737	67.3	3
373.15	0.7731	50.5	3
373.15	1	3.6	3

System: dibutyl ether + N-methylpyrrolidone; phases: Liquid, Gas
Fixed: Temperature, K = 373.15
Property: Vapor or sublimation pressure, kPa (Liquid); method: Ebulliometric method (Recirculating still)
Mole fraction of N-methylpyrrolidone	Vapor or sublimation pressure, kPa	uncertainty
0	28.4	3
0.102	27.9	3
0.2082	26.5	3
0.2987	25.5	3
0.377	24.5	3
0.4799	23.1	3
0.5699	21.6	3
0.6406	19.8	3
0.719	18.6	3
0.811	16.4	3
0.8733	14.1	3
0.8954	12.8	3
0.9185	11.3	3
1	3.6	3

System: N-methylpyrrolidone + 2-methoxy-2-methylpropane; phases: Liquid, Gas
Fixed: Temperature, K = 333.15
Property: Vapor or sublimation pressure, kPa (Liquid); method: Ebulliometric method (Recirculating still)
Mole fraction of N-methylpyrrolidone	Vapor or sublimation pressure, kPa	uncertainty
0	120.4	3.2
0.0469	112.8	3.2
0.1141	108.4	3.2
0.2073	102.2	3.2
0.2742	97.5	3.2
0.3747	92.1	3.1
0.443	87.1	3.1
0.5144	80.6	3.1
0.6762	68.3	3.1
0.7683	60.2	3.1
0.9235	38.2	3
1	0.5	3

System: N-methylpyrrolidone + 2-methoxy-2-methylbutane; phases: Liquid, Gas
Fixed: Temperature, K = 353.15
Property: Vapor or sublimation pressure, kPa (Liquid); method: Ebulliometric method (Recirculating still)
Mole fraction of N-methylpyrrolidone	Vapor or sublimation pressure, kPa	uncertainty
0	86.7	3.1
0.0586	84.3	3.1
0.1421	80	3.1
0.2512	74.2	3.1
0.3191	70	3.1
0.4396	62.8	3.1
0.6197	52.3	3
0.734	42.9	3
0.827	33.5	3
1	1.3	3
