Measured thermophysical data. Volumetric properties and phase behavior of sulfur dioxide, carbon disulfide and oxygen in high-pressure carbon dioxide fluid
Source: Fluid Phase Equilib., 2018, 10.1016/j.fluid.2018.08.012
Compound 1: carbon dioxide, CO2, InChI=1S/CO2/c2-1-3, purity 99.9995%
Compound 2: carbon disulfide, CS2, InChI=1S/CS2/c2-1-3, purity 99.9%
Compound 3: sulfur dioxide, O2S, InChI=1S/O2S/c1-3-2, purity 99.98%
Compound 4: oxygen, O2, InChI=1S/O2/c1-2, purity 99.993%

System: carbon dioxide + sulfur dioxide; phases: Fluid (supercritical or subcritical phases)
Fixed: Molality, mol/kg of sulfur dioxide = 0.2392
Property: Mass density, kg/m3 (Fluid (supercritical or subcritical phases)); method: Vibrating tube method
Temperature, K	Pressure, kPa	Mass density, kg/m3	uncertainty
324.067	2523.7	45.99	0.08
324.067	2524.8	46.06	0.08
324.067	5037.9	106.08	0.2
324.067	5047.5	106.41	0.2
324.067	7550.3	197.25	0.56
324.067	7549.5	197.2	0.56
324.067	10068.5	396.72	1.23
324.067	10079.6	398.55	1.23
324.067	12568.4	620.49	1.4
324.067	12567.6	620.47	1.4
324.067	15086.2	705.24	1.13
324.067	15086.6	705.32	1.13
324.067	17614.8	754.18	0.94
324.067	17615	754.18	0.94
324.067	20140.1	788.89	0.83
324.067	20139.8	788.93	0.83
324.067	22664.4	816.05	0.76
324.067	22661.6	816.06	0.76
324.067	25185.3	838.49	0.72
324.067	25179.4	838.47	0.72
324.067	27705.3	857.68	0.69
324.067	27695.2	857.63	0.69
324.067	30220.1	874.51	0.66
324.067	30187.2	874.31	0.66
324.067	32728.9	889.51	0.66
324.067	32689	889.28	0.66
324.067	35177.5	902.77	0.69
324.067	35212.5	902.97	0.69
349.39	2532.7	41.96	0.08
349.39	2537.9	42.01	0.08
349.39	5046.4	91.91	0.15
349.39	5043.8	91.74	0.15
349.39	7555.2	154.4	1.64
349.39	7518.6	153.18	1.62
349.39	10069	236.57	0.65
349.39	10075	236.62	0.65
349.39	12579.8	346.19	1.1
349.39	12586.2	346.44	1.11
349.39	15085.3	467.39	1.33
349.39	15089	467.53	1.33
349.39	17621.5	564.12	1.28
349.39	17618.6	564.01	1.28
349.39	20146.1	630.67	1.15
349.39	20144.4	630.6	1.15
349.39	22670.8	678.72	1.05
349.39	22668.7	678.62	1.05
349.39	25190.1	715.6	0.99
349.39	25189.2	715.52	0.99
349.39	27707.4	745.51	0.95
349.39	27706.3	745.39	0.95
349.39	30210.6	770.4	0.92
349.39	30215.8	770.37	0.92
349.39	32707	791.84	0.9
349.39	32707.6	791.77	0.9
349.39	35201.9	810.71	0.91
349.39	35199.6	810.62	0.91
375.059	2549.7	38.37	0.07
375.059	2555.7	38.44	0.07
375.059	5068.6	81.91	0.13
375.059	5060.6	81.6	0.13
375.059	7579.7	132.31	0.23
375.059	7564.3	131.73	0.23
375.059	10049.2	189.67	0.39
375.059	10080.3	190.27	0.39
375.059	12612.1	259	0.62
375.059	12594.9	258.2	0.62
375.059	15093.2	333.81	0.88
375.059	15080.5	333.08	0.88
375.059	17617.2	411.4	1.11
375.059	17623	411.26	1.11
375.059	20142.5	482.1	1.27
375.059	20147.8	481.92	1.27
375.059	22667.1	541.64	1.29
375.059	22671.7	541.46	1.29
375.059	25185.2	590.31	1.26
375.059	25191	590.18	1.26
375.059	27702.5	630.33	1.22
375.059	27708	630.2	1.22
375.059	30214.2	663.73	1.19
375.059	30222.4	663.67	1.19
375.059	32713.6	692.09	1.17
375.059	35222.9	717.02	1.23
375.059	35205.9	716.75	1.23
375.059	32726.3	692.34	1.17
399.99	2564.5	35.68	0.07
399.99	2560.5	35.13	0.07
399.99	5074.4	74.46	0.12
399.99	5079.5	74.06	0.12
399.99	7584.9	117.53	0.2
399.99	7580.3	116.91	0.2
399.99	10090.5	164.56	0.32
399.99	10112.1	164.41	0.32
399.99	12607.6	216.99	0.48
399.99	12593.5	215.96	0.47
399.99	15089.5	272.1	0.66
399.99	15080.8	271.09	0.66
399.99	17616.6	330.16	0.86
399.99	17615.4	329.58	0.86
399.99	20141.3	387.34	1.05
399.99	20140.6	386.76	1.05
399.99	22664.6	441.02	1.21
399.99	22663.4	440.42	1.21
399.99	25183.6	489.39	1.35
399.99	25182.6	488.79	1.35
399.99	27700	532.13	1.39
399.99	27700.6	531.53	1.39
399.99	30210.9	569.48	1.39
399.99	30211.9	568.87	1.39
399.99	32703.2	601.95	1.39
399.99	32723.1	601.61	1.39
399.99	35198.7	630.66	1.43
399.99	35209.6	630.23	1.42

System: carbon dioxide + oxygen; phases: Fluid (supercritical or subcritical phases)
Fixed: Molality, mol/kg of oxygen = 0.2867
Property: Mass density, kg/m3 (Fluid (supercritical or subcritical phases)); method: Vibrating tube method
Temperature, K	Pressure, kPa	Mass density, kg/m3	uncertainty
324.139	2522.5	45.49	0.08
324.139	2531.8	45.7	0.08
324.139	4992.7	102.94	0.19
324.139	4998.9	103.15	0.19
324.139	7573.3	191.05	0.49
324.139	7566.1	190.74	0.49
324.139	10098.5	356.14	1.11
324.139	10066.3	353.17	1.1
324.139	12475.2	568.33	1.45
324.139	12571.7	574.14	1.45
324.139	15029.1	672.53	1.18
324.139	15098.5	674.53	1.19
324.139	17552.8	728.46	0.99
324.139	17623	729.72	0.99
324.139	20076.5	766.9	0.87
324.139	20148.1	767.83	0.87
324.139	22596.7	796.51	0.79
324.139	22667.4	797.24	0.8
324.139	25116.1	820.6	0.74
324.139	25186.2	821.19	0.74
324.139	27630.6	841.02	0.72
324.139	27693.5	841.49	0.72
324.139	30138.3	858.75	0.71
324.139	30190.7	859.1	0.71
324.139	32647.2	874.55	0.67
324.139	32683.3	874.75	0.67
324.139	35202.6	889.04	0.72
324.139	35166.9	888.83	0.72
349.643	2302.3	37.34	0.07
349.643	2512.6	41.14	0.07
349.643	4999.4	89.28	0.15
349.643	5056.2	90.61	0.16
349.643	7587.3	151.35	0.29
349.643	7565.3	151.08	0.29
349.643	10131.5	230.46	0.59
349.643	10124.3	230.35	0.59
349.643	12654.4	331.87	1.01
349.643	12648.3	331.76	1.01
349.643	15183.6	445.19	1.27
349.643	15178.8	445.16	1.27
349.643	17709.1	539.82	1.3
349.643	17705.3	539.74	1.3
349.643	20234.1	608.3	1.19
349.643	20232.3	608.22	1.19
349.643	22753.7	658.22	1.1
349.643	22753.3	658.24	1.1
349.643	25271.5	696.75	1.03
349.643	25272.6	696.87	1.03
349.643	27781	727.9	0.99
349.643	27786.7	728.07	0.99
349.643	30280.4	753.96	0.96
349.643	30284	754.07	0.96
349.643	32783.4	776.37	0.94
349.643	32787.9	776.48	0.94
349.643	35276.1	795.97	0.96
349.643	35282.4	796.06	0.96
375.026	2546.2	38.31	0.07
375.026	2543.1	38.14	0.07
375.026	5060.3	80.97	0.13
375.026	5059.3	80.85	0.13
375.026	7545.1	129.65	0.23
375.026	7540.3	129.17	0.23
375.026	10091.3	186.78	0.38
375.026	10092.9	186.66	0.38
375.026	12606.3	251.89	0.59
375.026	12614.7	252.03	0.59
375.026	15137.8	324.48	0.84
375.026	15155.7	324.83	0.84
375.026	17663.3	398.41	1.07
375.026	17683.3	398.81	1.07
375.026	20185.4	466.78	1.23
375.026	20208.8	467.22	1.24
375.026	22704.2	525.43	1.3
375.026	22730.2	525.92	1.3
375.026	25225.3	574.34	1.28
375.026	25248.9	574.81	1.28
375.026	27741.7	614.94	1.25
375.026	27764	615.3	1.25
375.026	30256.6	648.94	1.22
375.026	30265.4	649.12	1.22
375.026	32768.6	678.04	1.2
375.026	32764	678.12	1.2
375.026	35260.5	703.21	1.3
375.026	35257.1	703.36	1.3
400.186	2574.8	35.31	0.07
400.186	2573.8	35.12	0.07
400.186	5072.3	73.3	0.12
400.186	5100.4	73.64	0.12
400.186	7612.6	115.55	0.2
400.186	7616.5	115.71	0.2
400.186	10138.1	162.47	0.31
400.186	10126.8	162.27	0.31
400.186	12599.6	212.51	0.46
400.186	12592.4	211.79	0.46
400.186	15133.8	266.82	0.64
400.186	15121	265.98	0.64
400.186	17660.8	322.66	0.83
400.186	17648.3	321.85	0.83
400.186	20186.2	377.95	1.02
400.186	20173.2	377.08	1.02
400.186	22706.8	430.08	1.18
400.186	22692.7	429.17	1.18
400.186	25227.7	477.53	1.32
400.186	25211.7	476.61	1.32
400.186	27742.6	519.82	1.39
400.186	27727.9	518.93	1.39
400.186	30253.1	557.1	1.4
400.186	30240.8	556.24	1.4
400.186	32756.9	589.89	1.4
400.186	32738.9	588.97	1.4
400.186	35247	618.78	1.44
400.186	35235.2	617.97	1.42

System: carbon dioxide + carbon disulfide; phases: Fluid (supercritical or subcritical phases)
Fixed: Molality, mol/kg of carbon disulfide = 0.2322
Property: Mass density, kg/m3 (Fluid (supercritical or subcritical phases)); method: Vibrating tube method
Temperature, K	Pressure, kPa	Mass density, kg/m3	uncertainty
324.091	5037.7	107.14	0.2
324.091	5020	107.03	0.2
324.091	7551.5	199.54	0.58
324.091	7541	199.79	0.58
324.091	10059.7	402.21	1.24
324.091	10053.1	403.53	1.24
324.091	12603.8	625.07	1.28
324.091	12569.9	624.02	1.28
324.091	15142.1	707.56	1.11
324.091	15125.3	707.48	1.11
324.091	17668.8	755.21	0.93
324.091	17652.7	755.16	0.93
324.091	20196.9	789.34	0.82
324.091	20181.5	789.28	0.82
324.091	22711.6	815.94	0.75
324.091	22698.8	815.92	0.75
324.091	25226.5	837.97	0.71
324.091	25212.1	837.95	0.71
324.091	27741.3	856.86	0.68
324.091	27727.5	856.85	0.68
324.091	30252.1	873.43	0.67
324.091	30237.1	873.42	0.67
324.091	32750.4	888.17	0.66
324.091	32734.2	888.17	0.66
324.091	35227.1	901.44	0.67
324.091	35218.6	901.47	0.67
349.43	5049.6	92.26	0.16
349.43	5059.9	92.17	0.16
349.43	7565.2	155.4	0.3
349.43	7561.3	154.46	0.3
349.43	10071.7	237.91	0.66
349.43	10079.4	236.77	0.66
349.43	12659.1	351.82	1.13
349.43	12682.2	350.77	1.13
349.43	15193.6	474.54	1.33
349.43	15210.4	471.73	1.33
349.43	17723.6	568.76	1.28
349.43	17737.7	565.77	1.28
349.43	20244.9	633.49	1.15
349.43	20259.8	630.9	1.16
349.43	22769.3	680.4	1.06
349.43	22782.9	678.14	1.06
349.43	25280	716.41	1
349.43	25300	714.54	1
349.43	27790.1	745.77	0.96
349.43	27805.1	744.03	0.96
349.43	30301.4	770.42	0.93
349.43	30313	768.82	0.93
349.43	32807.4	791.68	0.9
349.43	32815.1	790.19	0.9
349.43	35295.8	810.28	0.96
349.43	35293.7	808.86	0.94
374.782	5070.7	82.42	0.14
374.782	5066.1	82.47	0.14
374.782	7585	133.32	0.24
374.782	7581.5	133.35	0.24
374.782	10087.7	191.92	0.41
374.782	10086.5	191.97	0.41
374.782	15061.8	335.78	0.89
374.782	15039.9	335.44	0.88
374.782	17587.2	413.86	1.12
374.782	17567.7	413.55	1.11
374.782	20110.9	484.48	1.27
374.782	20094.3	484.4	1.27
374.782	22633.8	543.72	1.28
374.782	22614.7	543.66	1.28
374.782	25152.8	592	1.25
374.782	25138	592.09	1.25
374.782	27672.3	631.68	1.21
374.782	27657	631.81	1.21
374.782	30185.4	664.78	1.18
374.782	30175.5	665.02	1.18
374.782	32689.4	693.03	1.16
374.782	32690.5	693.42	1.16
374.782	35184.2	717.46	1.22
374.782	35192.5	717.92	1.22
400.503	5080.3	74.8	0.13
400.503	5077	75.32	0.12
400.503	7594.6	118.07	0.2
400.503	7594.6	118.35	0.2
400.503	10099.9	165.54	0.33
400.503	10098.9	166.1	0.33
400.503	15048.4	272.65	0.65
400.503	15073.5	273.42	0.65
400.503	17569.7	330.78	0.98
400.503	17601.7	331.7	0.99
400.503	20095.5	388.17	1.23
400.503	20129.4	389.15	1.23
400.503	22617.3	441.87	1.39
400.503	22653.9	442.82	1.39
400.503	25138.8	490.19	1.58
400.503	25175.7	491.09	1.58
400.503	27660.1	532.79	1.38
400.503	27688.5	533.55	1.38
400.503	30177.4	569.95	1.37
400.503	30206.1	570.64	1.37
400.503	32685.9	602.4	1.37
400.503	32711.6	602.99	1.37
400.503	35191.7	631.01	1.4
400.503	35204.9	631.44	1.41
