Measured thermophysical data. Vapor liquid equilibrium for the ternary carbon dioxide ethanol nonane and  decane systems
Source: Fluid Phase Equilib., 2013, 10.1016/j.fluid.2012.10.012
Compound 1: carbon dioxide, CO2, InChI=1S/CO2/c2-1-3, purity 99.99%
Compound 2: ethanol, C2H6O, InChI=1S/C2H6O/c1-2-3/h3H,2H2,1H3, purity 99.8%
Compound 3: nonane, C9H20, InChI=1S/C9H20/c1-3-5-7-9-8-6-4-2/h3-9H2,1-2H3, purity 99.1%
Compound 4: decane, C10H22, InChI=1S/C10H22/c1-3-5-7-9-10-8-6-4-2/h3-10H2,1-2H3, purity 99.7%

System: ethanol + nonane + carbon dioxide; phases: Liquid, Gas
Property: Mole fraction of ethanol (Liquid); method: Chromatography
Property: Mole fraction of nonane (Liquid); method: Chromatography
Property: Mole fraction of ethanol (Gas); method: Chromatography
Property: Mole fraction of carbon dioxide (Gas); method: Chromatography
Property: Mole fraction of nonane (Gas); method: Chromatography
Temperature, K	Pressure, kPa	Mole fraction of carbon dioxide	Mole fraction of ethanol	uncertainty	Mole fraction of nonane	uncertainty	Mole fraction of ethanol	uncertainty	Mole fraction of carbon dioxide	uncertainty	Mole fraction of nonane	uncertainty
313.33	2041	0.176	0.5263	0.0048	0.2977	0.003	0.0105	0.0001	0.9863		0.0032	0.0001
313.33	2867	0.2497	0.4853	0.0049	0.265	0.0027	0.0089	0.0001	0.9887		0.0024	0.0001
313.33	3516	0.3072	0.444	0.0045	0.2488	0.0025	0.0078	0.0001	0.9903		0.0019	0.0001
313.33	4563	0.4098	0.3767	0.0038	0.2135	0.0021	0.0068	0.0001	0.9916		0.0016	0.0001
313.33	5517	0.5106	0.3106	0.0031	0.1788	0.0018	0.0065	0.0001	0.9917		0.0018	0.0001
313.33	6391	0.6592	0.2136	0.0021	0.1272	0.0013	0.0072	0.0001	0.9907		0.0021	0.0001
313.33	6569	0.6804	0.2002	0.002	0.1194	0.0012	0.0074	0.0001	0.9904		0.0022	0.0001
313.33	7187	0.8258	0.1062	0.0011	0.068	0.0007	0.0086	0.0001	0.9888		0.0026	0.0001
313.33	7463	0.8832	0.0704	0.0007	0.0464	0.0005	0.0093	0.0001	0.9876		0.0031	0.0001
313.33	7730	0.9222	0.0476	0.0005	0.0302	0.0003	0.0102	0.0001	0.9861		0.0037	0.0001
344.61	2079	0.16	0.5454	0.0046	0.2946	0.003	0.0342	0.0004	0.961		0.0048	0.0001
344.61	2922	0.2049	0.5207	0.0049	0.2744	0.0028	0.0264	0.0003	0.9696		0.004	0.0001
344.61	4016	0.2697	0.4751	0.0048	0.2552	0.0026	0.0232	0.0003	0.973		0.0038	0.0001
344.61	5002	0.3138	0.4442	0.0045	0.242	0.0024	0.0218	0.0003	0.9741		0.0041	0.0001
344.61	5654	0.3504	0.4258	0.0043	0.2238	0.0022	0.0219	0.0003	0.9737		0.0044	0.0001
344.61	6568	0.4021	0.3961	0.004	0.2018	0.002	0.022	0.0003	0.9732		0.0048	0.0001
344.61	7609	0.463	0.3602	0.0036	0.1768	0.0018	0.0226	0.0003	0.9719		0.0055	0.0001
344.61	8598	0.5408	0.307	0.0031	0.1522	0.0015	0.0243	0.0003	0.9689		0.0068	0.0001
344.61	9565	0.6711	0.206	0.0021	0.1229	0.0012	0.0266	0.0003	0.9629		0.0105	0.0001
344.61	10597	0.7826	0.1345	0.0013	0.0829	0.0008	0.0367	0.0004	0.9465		0.0168	0.0002
344.61	11044	0.8291	0.1117	0.0011	0.0592	0.0006	0.0513	0.0006	0.9233		0.0254	0.0003
373.94	1974	0.1233	0.6249	0.0038	0.2518	0.0025	0.1173	0.0014	0.8692		0.0135	0.0002
373.94	3030	0.1786	0.5861	0.0042	0.2353	0.0024	0.0833	0.001	0.9057		0.011	0.0001
373.94	4021	0.2271	0.5489	0.0046	0.224	0.0022	0.0643	0.0008	0.926		0.0097	0.0001
373.94	4974	0.2723	0.5182	0.0049	0.2095	0.0021	0.0498	0.0006	0.9422		0.008	0.0001
373.94	6049	0.3171	0.4869	0.0049	0.196	0.002	0.0426	0.0005	0.95		0.0074	0.0001
373.94	6925	0.3596	0.4528	0.0046	0.1876	0.0019	0.0356	0.0004	0.9571		0.0073	0.0001
373.94	7975	0.412	0.4112	0.0041	0.1768	0.0018	0.0291	0.0004	0.9639		0.007	0.0001
373.94	9071	0.4588	0.3841	0.0039	0.1571	0.0016	0.0306	0.0004	0.962		0.0074	0.0001
373.94	10041	0.5098	0.3411	0.0034	0.1491	0.0015	0.0324	0.0004	0.9591		0.0085	0.0001
373.94	11051	0.5807	0.2829	0.0028	0.1364	0.0014	0.0355	0.0004	0.9537		0.0108	0.0001
373.94	12063	0.6555	0.2332	0.0023	0.1113	0.0011	0.0416	0.0005	0.944		0.0144	0.0002
373.94	12984	0.735	0.1836	0.0018	0.0814	0.0008	0.0603	0.0007	0.9143		0.0254	0.0003
373.94	13059	0.7933	0.1432	0.0014	0.0635	0.0006	0.1053	0.0013	0.8505		0.0442	0.0005

System: ethanol + decane + carbon dioxide; phases: Liquid, Gas
Property: Mole fraction of ethanol (Liquid); method: Chromatography
Property: Mole fraction of decane (Liquid); method: Chromatography
Property: Mole fraction of ethanol (Gas); method: Chromatography
Property: Mole fraction of carbon dioxide (Gas); method: Chromatography
Property: Mole fraction of decane (Gas); method: Chromatography
Temperature, K	Pressure, kPa	Mole fraction of carbon dioxide	Mole fraction of ethanol	uncertainty	Mole fraction of decane	uncertainty	Mole fraction of ethanol	uncertainty	Mole fraction of carbon dioxide	uncertainty	Mole fraction of decane	uncertainty
314.98	2072	0.1972	0.4619	0.0046	0.3409	0.0034	0.0078	0.0001	0.9914		0.0008	0.0001
314.98	3039	0.263	0.4299	0.0043	0.3071	0.0031	0.0067	0.0001	0.9926		0.0007	0.0001
314.98	4112	0.3974	0.3471	0.0035	0.2555	0.0026	0.0062	0.0001	0.9931		0.0007	0.0001
314.98	5063	0.4915	0.2905	0.0029	0.218	0.0022	0.0067	0.0001	0.9925		0.0008	0.0001
314.98	6234	0.6019	0.2278	0.0023	0.1703	0.0017	0.0074	0.0001	0.9915		0.0011	0.0001
314.98	7039	0.7407	0.1411	0.0014	0.1182	0.0012	0.0081	0.0001	0.9899		0.002	0.0001
314.98	7413	0.8333	0.0886	0.0009	0.0781	0.0008	0.0093	0.0001	0.9878		0.0029	0.0001
314.98	7770	0.8992	0.056	0.0006	0.0448	0.0005	0.01	0.0001	0.9869		0.0031	0.0001
344.77	2117	0.1417	0.527	0.0048	0.3313	0.0033	0.0349	0.0004	0.9621		0.003	0.0001
344.77	3259	0.2118	0.4825	0.0048	0.3057	0.0031	0.0283	0.0003	0.969		0.0027	0.0001
344.77	4194	0.2568	0.4586	0.0046	0.2846	0.0029	0.0247	0.0003	0.9728		0.0025	0.0001
344.77	5204	0.2949	0.4405	0.0044	0.2646	0.0026	0.0212	0.0003	0.9765		0.0023	0.0001
344.77	6033	0.3486	0.4126	0.0041	0.2388	0.0024	0.0217	0.0003	0.9759		0.0024	0.0001
344.77	7011	0.417	0.3661	0.0037	0.2169	0.0022	0.0218	0.0003	0.9754		0.0028	0.0001
344.77	8075	0.4926	0.3281	0.0033	0.1793	0.0018	0.022	0.0003	0.975		0.003	0.0001
344.77	9074	0.5829	0.2791	0.0028	0.138	0.0014	0.0262	0.0003	0.9697		0.0041	0.0001
344.77	10067	0.7097	0.1808	0.0018	0.1095	0.0011	0.0301	0.0004	0.9629		0.007	0.0001
344.77	10544	0.7805	0.1272	0.0013	0.0923	0.0009	0.0318	0.0004	0.9582		0.01	0.0001
344.77	11104	0.8478	0.0885	0.0009	0.0637	0.0006	0.0389	0.0005	0.9442		0.0169	0.0002
344.77	11407	0.8883	0.0644	0.0006	0.0473	0.0005	0.0472	0.0006	0.9275		0.0253	0.0003
373.98	1917	0.1007	0.616	0.0039	0.2833	0.0028	0.1295	0.0016	0.8637		0.0068	0.0001
373.98	3233	0.1688	0.5651	0.0044	0.2661	0.0027	0.0991	0.0012	0.8953		0.0056	0.0001
373.98	4785	0.2407	0.5182	0.0048	0.2411	0.0024	0.0669	0.0008	0.9281		0.005	0.0001
373.98	5996	0.3085	0.4647	0.0047	0.2268	0.0023	0.0501	0.0006	0.9453		0.0046	0.0001
373.98	7016	0.3472	0.4339	0.0043	0.2189	0.0022	0.0478	0.0006	0.9472		0.005	0.0001
373.98	8457	0.4199	0.3888	0.0039	0.1913	0.0019	0.048	0.0006	0.946		0.006	0.0001
373.98	9840	0.4872	0.3541	0.0035	0.1587	0.0016	0.0525	0.0006	0.94		0.0075	0.0001
373.98	11174	0.5541	0.3084	0.0031	0.1375	0.0014	0.0579	0.0007	0.9318		0.0103	0.0001
373.98	12075	0.6086	0.2849	0.0029	0.1065	0.0011	0.07	0.0008	0.9152		0.0148	0.0002
373.98	12882	0.6663	0.2416	0.0024	0.0921	0.0009	0.0786	0.0009	0.9014		0.02	0.0002
373.98	13255	0.73	0.1897	0.0019	0.0803	0.0008	0.0892	0.0011	0.8826		0.0282	0.0003
373.98	13541	0.7944	0.1384	0.0014	0.0672	0.0007	0.0989	0.0012	0.8648		0.0363	0.0004
373.98	13650	0.8035	0.1356	0.0014	0.0609	0.0006	0.1165	0.0014	0.836		0.0475	0.0006
