Measured thermophysical data. Vapor-liquid equilibrium in the ternary systems acetic acid + water + (xylose or glucose)
Source: Fluid Phase Equilib., 2018, 10.1016/j.fluid.2018.06.011
Compound 1: acetic acid, C2H4O2, InChI=1S/C2H4O2/c1-2(3)4/h1H3,(H,3,4), purity 99.9%
Compound 2: D-xylose, C5H10O5, InChI=1S/C5H10O5/c6-1-3(8)5(10)4(9)2-7/h1,3-5,7-10H,2H2/t3-,4+,5+/m0/s1, purity 98%
Compound 3: D-glucose, C6H12O6, InChI=1S/C6H12O6/c7-1-3(9)5(11)6(12)4(10)2-8/h1,3-6,8-12H,2H2/t3-,4+,5+,6+/m0/s1, purity 99.9%
Compound 4: water, H2O, InChI=1S/H2O/h1H2, purity 99.8%

System: acetic acid + water; phases: Liquid, Gas
Property: Boiling temperature at pressure P, K (Liquid); method: Ebulliometric method (Recirculating still)
Pressure, kPa	Mole fraction of acetic acid	Boiling temperature at pressure P, K	uncertainty
20	0.0052	333.24	0.25
20	0.0063	333.26	0.25
20	0.0122	333.26	0.25
20	0.0179	333.35	0.25
20	0.0199	333.36	0.25
20	0.0255	333.47	0.25
20	0.0348	333.51	0.25
20	0.0478	333.58	0.25
20	0.0695	333.66	0.25
20	0.0974	333.76	0.25
20	0.147	334.2	0.24
20	0.1948	334.34	0.24
20	0.2948	335.03	0.25
20	0.3408	335.38	0.24
20	0.4016	335.61	0.24
20	0.6098	337.43	0.25
20	0.8103	339.46	0.24
20	0.8826	340.64	0.24
53.3	0.1951	357.359	0.273
53.3	0.3837	358.962	0.284
53.3	0.6088	361.275	0.288
53.3	0.695	362.226	0.267
53.3	0.8107	364.109	0.291
53.3	0.8873	366.032	0.289

System: acetic acid + water; phases: Gas, Liquid
Property: Mole fraction of acetic acid (Gas); method: Chromatography
Pressure, kPa	Mole fraction of acetic acid	Mole fraction of acetic acid	uncertainty
20	0.0052	0.0035	0.0001
20	0.0063	0.0036	0.0001
20	0.0122	0.0062	0.0002
20	0.0179	0.0122	0.0004
20	0.0199	0.0122	0.0004
20	0.0255	0.0149	0.0004
20	0.0348	0.0207	0.0007
20	0.0478	0.0337	0.001
20	0.0695	0.0491	0.0014
20	0.0974	0.0661	0.002
20	0.147	0.103	0.0031
20	0.1948	0.1366	0.0041
20	0.2948	0.2125	0.0063
20	0.3408	0.2457	0.0076
20	0.4016	0.2976	0.0101
20	0.6098	0.5041	0.0134
20	0.8103	0.7184	0.0075
20	0.8826	0.8133	0.0051
53.3	0.1951	0.1335	0.0041
53.3	0.3837	0.2753	0.0089
53.3	0.6088	0.4853	0.0128
53.3	0.695	0.5656	0.0115
53.3	0.8107	0.701	0.008
53.3	0.8873	0.8052	0.0052

System: acetic acid + water + D-xylose; phases: Liquid, Gas
Fixed: Pressure, kPa = 20
Property: Boiling temperature at pressure P, K (Liquid); method: Ebulliometric method (Recirculating still)
Mole fraction of acetic acid	Mole fraction of water	Boiling temperature at pressure P, K	uncertainty
0.0536	0.9394	333.58	0.28
0.0537	0.9396	334.04	0.25
0.0985	0.8935	334.34	0.26
0.1452	0.846	334.54	0.27
0.1938	0.7968	334.69	0.33
0.2396	0.7503	334.97	0.32
0.2948	0.6947	335.25	0.44
0.3371	0.6513	335.6	0.49
0.385	0.6027	335.92	0.25
0.0429	0.9442	333.72	0.25
0.0535	0.9319	334.26	0.26
0.0965	0.8875	334.55	0.26
0.1421	0.8405	334.81	0.27
0.191	0.7903	335.07	0.33
0.2369	0.743	335.28	0.33
0.2861	0.6928	335.68	0.43
0.0083	0.9653	333.94	0.25
0.0214	0.9539	334.03	0.25
0.0527	0.9185	334.57	0.25
0.0982	0.8717	334.91	0.26
0.1392	0.8265	335.28	0.28
0.1875	0.776	335.61	0.3

System: acetic acid + water + D-xylose; phases: Gas, Liquid
Fixed: Pressure, kPa = 20
Property: Mole fraction of acetic acid (Gas); method: Chromatography
Mole fraction of acetic acid	Mole fraction of water	Mole fraction of acetic acid	uncertainty
0.0536	0.9394	0.0165	0.004
0.0537	0.9396	0.0385	0.0023
0.0985	0.8935	0.0737	0.0021
0.1452	0.846	0.1066	0.003
0.1938	0.7968	0.1425	0.0046
0.2396	0.7503	0.1762	0.0071
0.2948	0.6947	0.2216	0.0085
0.3371	0.6513	0.2562	0.0097
0.385	0.6027	0.3006	0.0097
0.0429	0.9442	0.0167	0.0017
0.0535	0.9319	0.0393	0.0017
0.0965	0.8875	0.0724	0.002
0.1421	0.8405	0.1083	0.0031
0.191	0.7903	0.1478	0.0047
0.2369	0.743	0.1854	0.0073
0.2861	0.6928	0.2264	0.0087
0.0083	0.9653	0.004	0.0017
0.0214	0.9539	0.0169	0.0012
0.0527	0.9185	0.0417	0.0011
0.0982	0.8717	0.0805	0.0022
0.1392	0.8265	0.1164	0.0033
0.1875	0.776	0.1585	0.0048

System: acetic acid + water + D-xylose; phases: Gas, Liquid
Fixed: Pressure, kPa = 20
Property: Mole fraction of water (Gas); method: Titration method
Mole fraction of acetic acid	Mole fraction of water	Mole fraction of water	uncertainty
0.0536	0.9394	0.9835	0.004
0.0537	0.9396	0.9615	0.0023
0.0985	0.8935	0.9263	0.0024
0.1452	0.846	0.8934	0.0034
0.1938	0.7968	0.8575	0.005
0.2396	0.7503	0.8238	0.0075
0.2948	0.6947	0.7784	0.009
0.3371	0.6513	0.7438	0.0103
0.385	0.6027	0.6994	0.0105
0.0429	0.9442	0.9833	0.0017
0.0535	0.9319	0.9607	0.0018
0.0965	0.8875	0.9276	0.0023
0.1421	0.8405	0.8917	0.0035
0.191	0.7903	0.8522	0.0052
0.2369	0.743	0.8146	0.0078
0.2861	0.6928	0.7736	0.0092
0.0083	0.9653	0.996	0.0017
0.0214	0.9539	0.9831	0.0012
0.0527	0.9185	0.9583	0.0013
0.0982	0.8717	0.9195	0.0025
0.1392	0.8265	0.8836	0.0037
0.1875	0.776	0.8415	0.0053

System: acetic acid + water + D-glucose; phases: Liquid, Gas
Fixed: Pressure, kPa = 20
Property: Boiling temperature at pressure P, K (Liquid); method: Ebulliometric method (Recirculating still)
Mole fraction of acetic acid	Mole fraction of water	Boiling temperature at pressure P, K	uncertainty
0	0.9948	333.74	0.25
0.0277	0.9664	333.85	0.25
0.0538	0.9401	334.08	0.25
0.0941	0.8992	334.34	0.25
0.1438	0.8488	334.55	0.26
0.1899	0.8024	334.62	0.28
0.2365	0.7552	334.89	0.27
0.2784	0.7128	335.36	0.32
0.3223	0.6682	335.62	0.36
0.3649	0.6252	336	0.26
0	0.9896	333.52	0.25
0.0259	0.9621	334.01	0.25
0.0507	0.9373	334.24	0.25
0.0954	0.8923	334.45	0.25
0.1383	0.8481	334.63	0.26
0.1911	0.7945	334.81	0.29
0.2308	0.7537	334.98	0.27
0.2772	0.7063	335.18	2.73
0.2773	0.7054	335.48	2.74
0	0.9801	333.73	0.25
0.0268	0.9506	334.21	0.25
0.0525	0.9256	334.33	0.25
0.09	0.8868	334.52	0.25
0.1364	0.8372	334.84	0.26
0.1783	0.7932	335.13	0.28

System: acetic acid + water + D-glucose; phases: Gas, Liquid
Fixed: Pressure, kPa = 20
Property: Mole fraction of acetic acid (Gas); method: Chromatography
Mole fraction of acetic acid	Mole fraction of water	Mole fraction of acetic acid	uncertainty
0	0.9948	0	
0.0277	0.9664	0.0167	0.0005
0.0538	0.9401	0.038	0.0011
0.0941	0.8992	0.0695	0.0019
0.1438	0.8488	0.1046	0.0029
0.1899	0.8024	0.1386	0.0053
0.2365	0.7552	0.1765	0.0051
0.2784	0.7128	0.2102	0.0074
0.3223	0.6682	0.2539	0.0203
0.3649	0.6252	0.2844	0.0081
0	0.9896	0	
0.0259	0.9621	0.0193	0.0005
0.0507	0.9373	0.0357	0.0014
0.0954	0.8923	0.0711	0.0018
0.1383	0.8481	0.1048	0.0029
0.1911	0.7945	0.1472	0.0055
0.2308	0.7537	0.1779	0.0056
0.2772	0.7063	0.2169	0.0904
0.2773	0.7054	0.2075	0.0905
0	0.9801	0	
0.0268	0.9506	0.0201	0.0006
0.0525	0.9256	0.0413	0.0012
0.09	0.8868	0.0745	0.0018
0.1364	0.8372	0.111	0.0031
0.1783	0.7932	0.1492	0.0048

System: acetic acid + water + D-glucose; phases: Gas, Liquid
Fixed: Pressure, kPa = 20
Property: Mole fraction of water (Gas); method: Titration method
Mole fraction of acetic acid	Mole fraction of water	Mole fraction of water	uncertainty
0	0.9948	1	
0.0277	0.9664	0.9833	0.0005
0.0538	0.9401	0.962	0.0012
0.0941	0.8992	0.9305	0.0021
0.1438	0.8488	0.8954	0.0032
0.1899	0.8024	0.8614	0.0056
0.2365	0.7552	0.8235	0.0055
0.2784	0.7128	0.7898	0.0078
0.3223	0.6682	0.7461	0.0205
0.3649	0.6252	0.7156	0.0088
0	0.9896	1	
0.0259	0.9621	0.9807	0.0006
0.0507	0.9373	0.9643	0.0014
0.0954	0.8923	0.9289	0.002
0.1383	0.8481	0.8952	0.0032
0.1911	0.7945	0.8528	0.0058
0.2308	0.7537	0.8221	0.006
0.2772	0.7063	0.7831	0.0904
0.2773	0.7054	0.7925	0.0906
0	0.9801	1	
0.0268	0.9506	0.9799	0.0006
0.0525	0.9256	0.9587	0.0013
0.09	0.8868	0.9255	0.0021
0.1364	0.8372	0.889	0.0034
0.1783	0.7932	0.8508	0.0051
