Measured thermophysical data. Phase equilibria in the ternary system isobutyl alcohol + isobutyl acetate + 1-hexanol and the binary systems isobutyl alcohol + 1-hexanol, isobutyl acetate + 1-hexanol at 101.3 kPa
Source: Fluid Phase Equilib., 2005, 10.1016/j.fluid.2005.06.019
Compound 1: 2-methyl-1-propanol, C4H10O, InChI=1S/C4H10O/c1-4(2)3-5/h4-5H,3H2,1-2H3, purity 99.5%
Compound 2: 2-methylpropyl ethanoate, C6H12O2, InChI=1S/C6H12O2/c1-5(2)4-8-6(3)7/h5H,4H2,1-3H3, purity 99%
Compound 3: hexan-1-ol, C6H14O, InChI=1S/C6H14O/c1-2-3-4-5-6-7/h7H,2-6H2,1H3, purity 99%

System: 2-methyl-1-propanol; phases: Liquid
Property: Refractive index (Na D-line) (Liquid); method: Standard Abbe refractometry
Temperature, K	Pressure, kPa	Refractive index (Na D-line)	uncertainty
298.15	101.325	1.3937	0.0007

System: 2-methyl-1-propanol; phases: Liquid
Property: Mass density, kg/m3 (Liquid); method: VIBTUB:UFactor:4
Temperature, K	Pressure, kPa	Mass density, kg/m3	uncertainty
298.15	101.325	797.83	0.61

System: 2-methyl-1-propanol; phases: Liquid, Gas
Property: Vapor or sublimation pressure, kPa (Liquid); method: EBULLIO:UFactor:8
Temperature, K	Vapor or sublimation pressure, kPa	uncertainty
381.09	101.3	0.3

System: 2-methylpropyl ethanoate; phases: Liquid
Property: Refractive index (Na D-line) (Liquid); method: Standard Abbe refractometry
Temperature, K	Pressure, kPa	Refractive index (Na D-line)	uncertainty
298.15	101.325	1.3876	0.0008

System: 2-methylpropyl ethanoate; phases: Liquid
Property: Mass density, kg/m3 (Liquid); method: VIBTUB:UFactor:4
Temperature, K	Pressure, kPa	Mass density, kg/m3	uncertainty
293.15	101.325	866.12	0.62

System: 2-methylpropyl ethanoate; phases: Liquid, Gas
Property: Vapor or sublimation pressure, kPa (Liquid); method: EBULLIO:UFactor:16
Temperature, K	Vapor or sublimation pressure, kPa	uncertainty
389.9	101.3	0.3

System: hexan-1-ol; phases: Liquid
Property: Refractive index (Na D-line) (Liquid); method: Standard Abbe refractometry
Temperature, K	Pressure, kPa	Refractive index (Na D-line)	uncertainty
298.15	101.325	1.4162	0.0008

System: hexan-1-ol; phases: Liquid
Property: Mass density, kg/m3 (Liquid); method: VIBTUB:UFactor:4
Temperature, K	Pressure, kPa	Mass density, kg/m3	uncertainty
298.15	101.325	814.85	0.68

System: hexan-1-ol; phases: Liquid, Gas
Property: Vapor or sublimation pressure, kPa (Liquid); method: EBULLIO:UFactor:16
Temperature, K	Vapor or sublimation pressure, kPa	uncertainty
356.39	5	0.2
364.42	7.5	0.2
368.04	8.9	0.3
372.23	10.9	0.3
376.68	13.4	0.4
379.61	15.3	0.4
384.92	19.3	0.5
384.93	19.3	0.5
390.31	24.2	0.5
394.34	28.5	0.6
398.14	33.1	0.7
401.57	37.8	0.8
404.56	42.3	0.8
407.43	47.1	0.9
410.27	52.2	1
412.75	57	1
414.93	61.5	1.1
417.18	66.4	1.2
417.28	66.7	1.2
419.52	71.9	1.2
421.96	78	1.3
424.54	84.8	1.4
426.31	89.8	1.5
428.2	95.3	1.5
429.97	100.8	1.6
430	101.5	1.8
430.06	101.3	1.6
430.26	101.7	1.6

System: 2-methyl-1-propanol + hexan-1-ol; phases: Liquid, Gas
Fixed: Pressure, kPa = 101.3
Property: Boiling temperature at pressure P, K (Liquid); method: EBULLIO:UFactor:8
Mole fraction of 2-methyl-1-propanol	Boiling temperature at pressure P, K	uncertainty
0	430.06	0.25
0.008	429.13	0.34
0.05	424.7	0.33
0.054	424.27	0.33
0.079	422.16	0.31
0.101	419.8	0.32
0.116	418.49	0.31
0.145	415.88	0.29
0.205	411.53	0.29
0.229	409.73	0.28
0.312	404.53	0.28
0.351	402.58	0.27
0.412	399.65	0.26
0.47	397.38	0.26
0.521	395.03	0.26
0.575	392.85	0.26
0.629	390.97	0.26
0.686	389.01	0.26
0.743	387.29	0.25
0.792	385.82	0.25
0.847	384.3	0.25
0.896	383.13	0.25
0.941	382.04	0.25
1	381.09	0.25

System: 2-methyl-1-propanol + hexan-1-ol; phases: Gas, Liquid
Fixed: Pressure, kPa = 101.3
Property: Mole fraction of 2-methyl-1-propanol (Gas); method: CHROM:UFactor:6
Mole fraction of 2-methyl-1-propanol	Mole fraction of 2-methyl-1-propanol	uncertainty
0	0	0.0001
0.008	0.037	0.0096
0.05	0.207	0.0117
0.054	0.211	0.012
0.079	0.288	0.0173
0.101	0.36	0.0209
0.116	0.39	0.0223
0.145	0.463	0.0262
0.205	0.569	0.0245
0.229	0.618	0.0216
0.312	0.716	0.0161
0.351	0.749	0.0142
0.412	0.8	0.0113
0.47	0.833	0.0095
0.521	0.865	0.0077
0.575	0.895	0.006
0.629	0.916	0.0048
0.686	0.934	0.004
0.743	0.95	0.0033
0.792	0.963	0.0028
0.847	0.975	0.0024
0.896	0.984	0.0022
0.941	0.991	0.0021
1	1	0.0001

System: 2-methylpropyl ethanoate + hexan-1-ol; phases: Liquid, Gas
Fixed: Pressure, kPa = 101.3
Property: Boiling temperature at pressure P, K (Liquid); method: EBULLIO:UFactor:16
Mole fraction of 2-methylpropyl ethanoate	Boiling temperature at pressure P, K	uncertainty
0	430.06	0.49
0.041	427.08	0.52
0.078	424.37	0.51
0.135	420.74	0.51
0.191	417.06	0.51
0.265	413.15	0.5
0.321	410.38	0.5
0.372	408.49	0.5
0.427	406.08	0.5
0.475	404.05	0.5
0.536	402.1	0.5
0.596	400.38	0.5
0.657	398.44	0.5
0.699	397.06	0.5
0.753	395.71	0.5
0.806	394.29	0.5
0.853	393.17	0.5
0.9	392.06	0.5
0.94	391.09	0.5
0.974	390.35	0.5
1	389.9	0.49

System: 2-methylpropyl ethanoate + hexan-1-ol; phases: Gas, Liquid
Fixed: Pressure, kPa = 101.3
Property: Mole fraction of 2-methylpropyl ethanoate (Gas); method: CHROM:UFactor:6
Mole fraction of 2-methylpropyl ethanoate	Mole fraction of 2-methylpropyl ethanoate	uncertainty
0	0	0.001
0.041	0.129	0.01
0.078	0.241	0.014
0.135	0.366	0.021
0.191	0.484	0.027
0.265	0.584	0.024
0.321	0.655	0.02
0.372	0.698	0.017
0.427	0.74	0.015
0.475	0.784	0.012
0.536	0.818	0.01
0.596	0.844	0.009
0.657	0.881	0.007
0.699	0.895	0.006
0.753	0.917	0.005
0.806	0.937	0.004
0.853	0.955	0.003
0.9	0.969	0.003
0.94	0.982	0.002
0.974	0.992	0.002
1	1	0.001

System: 2-methyl-1-propanol + 2-methylpropyl ethanoate + hexan-1-ol; phases: Liquid, Gas
Fixed: Pressure, kPa = 101.3
Property: Mole fraction of 2-methylpropyl ethanoate (Liquid); method: CHROM:UFactor:6
Property: Mole fraction of 2-methylpropyl ethanoate (Gas); method: CHROM:UFactor:6
Property: Mole fraction of 2-methyl-1-propanol (Gas); method: CHROM:UFactor:6
Temperature, K	Mole fraction of 2-methyl-1-propanol	Mole fraction of 2-methylpropyl ethanoate	uncertainty	Mole fraction of 2-methylpropyl ethanoate	uncertainty	Mole fraction of 2-methyl-1-propanol	uncertainty
381.73	0.907	0.048	0.003	0.052	0.003	0.941	
382.35	0.603	0.349	0.016	0.322	0.018	0.67	
383	0.807	0.101	0.005	0.108	0.006	0.877	
383.39	0.694	0.2	0.009	0.206	0.012	0.777	
383.66	0.387	0.577	0.02	0.509	0.028	0.484	
384.21	0.497	0.401	0.019	0.383	0.021	0.599	
385.97	0.298	0.607	0.018	0.572	0.024	0.408	
386.19	0.197	0.762	0.011	0.701	0.017	0.288	
386.2	0.597	0.202	0.009	0.225	0.013	0.738	
387.38	0.702	0.052	0.003	0.065	0.004	0.89	
387.51	0.481	0.29	0.013	0.321	0.018	0.634	
388.21	0.198	0.671	0.015	0.668	0.019	0.3	
388.43	0.373	0.401	0.019	0.435	0.024	0.515	
388.57	0.293	0.5	0.023	0.529	0.026	0.426	
388.74	0.237	0.587	0.019	0.605	0.022	0.354	
389.12	0.056	0.905	0.005	0.892	0.006	0.096	
389.33	0.593	0.097	0.005	0.124	0.007	0.811	
389.5	0.098	0.81	0.009	0.816	0.01	0.159	
390.56	0.478	0.188	0.009	0.238	0.013	0.691	
390.65	0.387	0.3	0.014	0.36	0.02	0.567	
391.61	0.288	0.396	0.018	0.473	0.027	0.448	
391.79	0.205	0.511	0.023	0.594	0.023	0.33	
391.95	0.1	0.713	0.013	0.78	0.013	0.167	
393.1	0.207	0.472	0.022	0.571	0.024	0.344	
393.79	0.39	0.191	0.009	0.265	0.015	0.632	
394.89	0.286	0.29	0.014	0.397	0.022	0.487	
394.96	0.211	0.402	0.019	0.525	0.027	0.362	
395.2	0.044	0.682	0.015	0.831	0.01	0.083	
395.3	0.483	0.042	0.003	0.066	0.004	0.808	
397.39	0.388	0.092	0.004	0.146	0.008	0.701	
398.19	0.216	0.297	0.014	0.439	0.025	0.401	
398.5	0.283	0.188	0.009	0.299	0.017	0.539	
398.88	0.173	0.338	0.016	0.502	0.028	0.335	
401.28	0.168	0.271	0.013	0.444	0.025	0.353	
401.65	0.045	0.47	0.022	0.711	0.016	0.096	
401.97	0.215	0.188	0.009	0.327	0.018	0.455	
405.18	0.27	0.043	0.003	0.088	0.005	0.642	
407.03	0.216	0.089	0.004	0.177	0.01	0.515	
407.54	0.139	0.173	0.008	0.341	0.019	0.345	
411.27	0.042	0.241	0.011	0.499	0.028	0.114	
414.17	0.111	0.082	0.004	0.198	0.011	0.336	
422.41	0.043	0.046	0.003	0.132	0.007	0.158	
