Measured thermophysical data. Vapor liquid equilibrium measurements and correlations for an azeotropic system of ethane + hexafluoroethane
Source: Fluid Phase Equilib., 2006, 10.1016/j.fluid.2005.12.004
Compound 1: ethane, C2H6, InChI=1S/C2H6/c1-2/h1-2H3, purity 99.95%
Compound 2: hexafluoroethane, C2F6, InChI=1S/C2F6/c3-1(4,5)2(6,7)8, purity 99.99%

System: hexafluoroethane; phases: Liquid, Gas
Property: Vapor or sublimation pressure, kPa (Liquid); method: Closed cell (Static) method
Temperature, K	Vapor or sublimation pressure, kPa	uncertainty
189.31	73.9	4
192.63	88.5	4
247.63	883	4.8
252.8	1038.2	5

System: ethane + hexafluoroethane; phases: Liquid, Gas
Property: Vapor or sublimation pressure, kPa (Liquid); method: Closed cell (Static) method
Mole fraction of ethane	Temperature, K	Vapor or sublimation pressure, kPa	uncertainty
0	189.31	73.9	4
0	192.63	88.5	4
0	247.63	883	4.8
0	252.8	1038.2	5
0.1264	252.8	1269.5	6.1
0.1572	247.63	1135.5	5.9
0.2352	192.63	166.5	4.1
0.2547	189.31	143.8	4.1
0.2834	247.63	1291.2	5.8
0.3627	252.8	1571.2	6.4
0.3812	192.63	183.3	4.1
0.4189	247.63	1395	5.8
0.4445	189.31	159.4	4
0.4853	252.8	1649.5	6.3
0.4898	192.63	189.2	4.1
0.5418	247.63	1445.2	5.9
0.5782	252.8	1682.7	6.3
0.5836	189.31	162.9	4
0.5856	192.63	191.7	4
0.6024	247.63	1459.5	5.8
0.6319	247.63	1462.5	5.8
0.6556	252.8	1690.5	6.3
0.6583	192.63	192.7	4
0.6647	252.8	1691	6.3
0.6651	189.31	163.5	4
0.6802	247.63	1463.4	5.8
0.6853	192.63	192.9	4
0.6897	189.31	163.6	4
0.7062	192.63	192.9	4
0.7064	189.31	163.7	4
0.734	247.63	1457	5.8
0.7402	189.31	163.2	4
0.7432	252.8	1680.6	6.3
0.7518	192.63	192.3	4
0.7874	189.31	162.4	4

System: ethane + hexafluoroethane; phases: Gas, Liquid
Property: Mole fraction of ethane (Gas); method: CHROM:UFactor:6
Mole fraction of ethane	Temperature, K	Mole fraction of ethane	uncertainty
0	189.31	0	0.0001
0	192.63	0	0.0001
0	247.63	0	0.0001
0	252.8	0	0.0001
0.1264	252.8	0.2379	0.0135
0.1572	247.63	0.2853	0.0162
0.2352	192.63	0.5351	0.0262
0.2547	189.31	0.5623	0.0247
0.2834	247.63	0.4232	0.0237
0.3627	252.8	0.4729	0.0264
0.3812	192.63	0.6216	0.0211
0.4189	247.63	0.5249	0.0265
0.4445	189.31	0.6445	0.0198
0.4853	252.8	0.5643	0.0243
0.4898	192.63	0.648	0.0196
0.5418	247.63	0.5976	0.0225
0.5782	252.8	0.6133	0.0216
0.5836	189.31	0.6775	0.018
0.5856	192.63	0.6716	0.0183
0.6024	247.63	0.6304	0.0206
0.6319	247.63	0.6473	0.0197
0.6556	252.8	0.6582	0.0191
0.6583	192.63	0.6856	0.0175
0.6647	252.8	0.6633	0.0188
0.6651	189.31	0.6925	0.0172
0.6802	247.63	0.6745	0.0182
0.6853	192.63	0.6955	0.017
0.6897	189.31	0.6972	0.0169
0.7062	192.63	0.6994	0.0168
0.7064	189.31	0.7015	0.0167
0.734	247.63	0.7056	0.0165
0.7402	189.31	0.7192	0.0157
0.7432	252.8	0.7128	0.0161
0.7518	192.63	0.7124	0.0161
0.7874	189.31	0.7293	0.0151
