Measured thermophysical data. Properties of saturated fluorocarbons: Experimental data and modeling using perturbed-chain-SAFT
Source: Fluid Phase Equilib., 2010, 10.1016/j.fluid.2010.01.027
Compound 1: perfluorohexane, C6F14, InChI=1S/C6F14/c7-1(8,3(11,12)5(15,16)17)2(9,10)4(13,14)6(18,19)20
Compound 2: hexadecafluoroheptane, C7F16, InChI=1S/C7F16/c8-1(9,2(10,11)4(14,15)6(18,19)20)3(12,13)5(16,17)7(21,22)23
Compound 3: octadecafluorooctane, C8F18, InChI=1S/C8F18/c9-1(10,3(13,14)5(17,18)7(21,22)23)2(11,12)4(15,16)6(19,20)8(24,25)26
Compound 4: decafluorobutane, C4F10, InChI=1S/C4F10/c5-1(6,3(9,10)11)2(7,8)4(12,13)14
Compound 5: octafluoropropane, C3F8, InChI=1S/C3F8/c4-1(5,2(6,7)8)3(9,10)11

System: perfluorohexane; phases: Liquid
Fixed: Pressure, kPa = 101.325
Property: Speed of sound, m/s (Liquid); method: sound analyzer
Temperature, K	Speed of sound, m/s	uncertainty
278.15	571.89	1.32
288.15	540.31	1.32
298.15	510.7	1.31

System: perfluorohexane; phases: Liquid
Fixed: Pressure, kPa = 101.325
Property: Mass density, kg/m3 (Liquid); method: Vibrating tube method
Temperature, K	Mass density, kg/m3	uncertainty
278.15	1739.8	1
288.15	1712.7	0.9
298.15	1682.8	0.9
308.15	1651.9	0.9

System: hexadecafluoroheptane; phases: Liquid
Fixed: Pressure, kPa = 101.325
Property: Speed of sound, m/s (Liquid); method: sound analyzer
Temperature, K	Speed of sound, m/s	uncertainty
278.15	608.3	1.32
288.15	578.42	1.31
298.15	548.73	1.32
308.15	517.47	1.3
318.15	500.56	1.3
328.15	470.6	1.31
333.15	457.24	1.31

System: hexadecafluoroheptane; phases: Liquid
Fixed: Pressure, kPa = 101.325
Property: Mass density, kg/m3 (Liquid); method: Vibrating tube method
Temperature, K	Mass density, kg/m3	uncertainty
278.15	1769.3	1
288.15	1751	1
298.15	1728.4	0.9
308.15	1700.8	0.9
318.15	1672.7	0.9
328.15	1641.9	0.9
333.15	1629.4	0.8

System: octadecafluorooctane; phases: Liquid
Fixed: Pressure, kPa = 101.325
Property: Speed of sound, m/s (Liquid); method: sound analyzer
Temperature, K	Speed of sound, m/s	uncertainty
278.15	640.32	1.32
288.15	610.05	1.31
298.15	581.94	1.31
308.15	552.33	1.31
318.15	524.1	1.3
328.15	508.43	1.3
338.15	479.24	1.31

System: octadecafluorooctane; phases: Liquid
Fixed: Pressure, kPa = 101.325
Property: Mass density, kg/m3 (Liquid); method: Vibrating tube method
Temperature, K	Mass density, kg/m3	uncertainty
278.15	1810	1
288.15	1786.7	1
298.15	1760.6	1
308.15	1735	1
318.15	1708.6	0.9
328.15	1681.6	0.9
338.15	1656.4	0.9

System: decafluorobutane; phases: Gas
Property: Speed of sound, m/s (Gas); method: sonar gas analyzer
Temperature, K	Pressure, kPa	Speed of sound, m/s	uncertainty
248.7	10	95.1	1.17
248.7	20	94.56	1.17
248.7	30	93.98	1.17
257.7	10	96.57	1.17
257.7	20	96.22	1.17
257.7	30	95.7	1.17
257.7	50	94.78	1.17
271.3	10	99.26	1.17
271.3	20	98.71	1.17
271.3	30	98.33	1.17
271.3	50	97.39	1.17
271.3	70	96.39	1.17
271.3	100	94.79	1.17
281.5	10	101.05	1.17
281.5	20	100.64	1.17
281.5	30	100.23	1.17
281.5	50	99.38	1.17
281.5	70	98.4	1.17
281.5	100	97.04	1.17
281.5	150	95.08	1.17
293.1	10	103.02	1.17
293.1	20	102.7	1.17
293.1	30	102.37	1.17
293.1	50	101.71	1.17
293.1	70	100.86	1.17
293.1	100	99.66	1.17
293.1	150	97.68	1.17
293.1	200	95.63	1.17
303.1	10	104.78	1.17
303.1	20	104.57	1.17
303.1	30	104.25	1.17
303.1	50	103.35	1.17
303.1	70	103.06	1.17
303.1	100	103.05	1.17
303.1	150	99.91	1.17
303.1	200	98.41	1.17
303.1	250	96.5	1.17
303.1	300	94.89	1.17

System: octafluoropropane; phases: Gas
Property: Speed of sound, m/s (Gas); method: sonar gas analyzer
Temperature, K	Pressure, kPa	Speed of sound, m/s	uncertainty
248.2	10	107.9	1.17
248.2	20	107.6	1.17
248.2	30	107.25	1.17
248.2	50	106.56	1.17
248.2	70	105.77	1.17
248.2	100	104.62	1.17
248.2	150	102.76	1.17
259.8	20	110	1.17
259.8	30	109.59	1.17
259.8	50	108.88	1.17
259.8	70	108.23	1.17
259.8	100	107.27	1.17
259.8	150	105.51	1.17
259.8	200	103.72	1.17
259.8	250	101.83	1.17
270.2	10	112.31	1.17
270.2	20	111.99	1.17
270.2	30	111.77	1.17
270.2	50	111.27	1.17
270.2	70	110.9	1.17
272.6	100	110.29	1.17
272.6	150	108.59	1.17
272.6	200	106.9	1.17
272.6	250	105.22	1.17
272.6	300	103.59	1.17
272.6	350	101.9	1.17
272.6	400	100.27	1.17
283.2	20	114.63	1.17
283.2	30	114.12	1.17
283.2	50	113.84	1.17
283.2	70	113.1	1.17
283.2	100	112.46	1.17
283.2	150	111.28	1.17
283.2	200	109.88	1.17
283.2	250	108.56	1.17
283.2	300	107.1	1.17
283.2	350	105.61	1.17
283.2	400	103.99	1.17
296.1	50	116.81	1.17
296.1	70	116.31	1.17
296.1	100	115.55	1.17
296.1	150	114.42	1.17
296.1	200	113.23	1.17
296.1	250	111.94	1.17
296.1	300	110.7	1.17
296.1	350	109.43	1.17
296.1	400	108.12	1.17
303.9	10	119.13	1.17
303.9	20	118.98	1.17
303.9	30	118.79	1.17
303.9	50	118.42	1.17
303.9	70	118.04	1.17
303.9	100	117.43	1.17
303.9	150	116.26	1.17
303.9	200	115.36	1.17
303.9	250	114.31	1.17
303.9	300	113.14	1.17
303.9	350	112	1.17
303.9	400	110.63	1.17

System: octafluoropropane + decafluorobutane; phases: Gas
Fixed: Mass fraction of octafluoropropane = 0.83
Property: Speed of sound, m/s (Gas); method: sonar gas analyzer
Temperature, K	Pressure, kPa	Speed of sound, m/s	uncertainty
248.2	10	105.12	1.17
248.2	13	105.03	1.17
248.2	20	104.84	1.17
248.2	27	104.58	1.17
248.2	30	104.45	1.17
248.2	33	104.36	1.17
248.2	40	104.12	1.17
248.2	47	103.84	1.17
248.2	50	103.75	1.17
248.2	53	103.57	1.17
248.2	60	103.27	1.17
248.2	67	103.07	1.17
259.2	10	107.4	1.17
259.2	20	107.18	1.17
259.2	30	106.95	1.17
259.2	50	106.3	1.17
259.2	70	105.81	1.17
259.2	100	104.56	1.17
259.2	150	102.68	1.17
259.2	200	101.95	1.17
271.3	10	109.58	1.17
271.3	20	109.17	1.17
271.3	30	108.68	1.17
271.3	50	107.95	1.17
271.3	70	107.66	1.17
271.3	100	106.4	1.17
271.3	150	104.9	1.17
271.3	200	103.44	1.17
271.3	250	102.59	1.17
283.1	10	112.12	1.17
283.1	20	111.72	1.17
283.1	30	111.47	1.17
283.1	50	111.19	1.17
283.1	70	110.59	1.17
283.1	100	109.75	1.17
283.1	150	108.4	1.17
283.1	200	106.92	1.17
283.1	250	105.34	1.17
283.1	297	103.72	1.17
283.1	350	101.99	1.17
283.1	400	100.1	1.17
294.1	10	114.96	1.17
294.1	20	114.62	1.17
294.1	30	114.35	1.17
294.1	50	113.75	1.17
294.1	70	113.21	1.17
294.1	100	112.3	1.17
294.1	150	111	1.17
294.1	200	109.85	1.17
301.4	10	116.15	1.17
301.4	20	116.05	1.17
301.4	30	115.78	1.17
301.4	50	115.29	1.17
301.4	70	114.72	1.17
301.4	100	114.03	1.17
301.4	150	112.72	1.17
301.4	200	111.59	1.17

System: octafluoropropane + decafluorobutane; phases: Gas
Fixed: Mass fraction of octafluoropropane = 0.397
Property: Speed of sound, m/s (Gas); method: sonar gas analyzer
Temperature, K	Pressure, kPa	Speed of sound, m/s	uncertainty
259.2	10	102.59	1.17
259.2	20	102.16	1.17
259.2	30	101.68	1.17
259.2	50	101.06	1.17
259.2	70	100.12	1.17
271.4	10	104.64	1.17
271.4	20	104.3	1.17
271.4	30	103.82	1.17
271.4	50	103.1	1.17
271.4	70	102.4	1.17
271.4	100	101.14	1.17
271.4	150	99.12	1.17
283.1	10	106.56	1.17
283.1	20	106.36	1.17
283.1	30	105.98	1.17
283.1	50	105.5	1.17
283.1	70	104.76	1.17
283.1	100	103.71	1.17
283.1	150	101.86	1.17
283.1	200	100.08	1.17
294	10	109.01	1.17
294	20	108.7	1.17
294	30	108.4	1.17
294	50	107.67	1.17
294	70	107.07	1.17
294	100	106.22	1.17
294	150	104.61	1.17
294	200	103.01	1.17
302.1	10	110.14	1.17
302.1	20	109.74	1.17
302.1	30	109.67	1.17
302.1	50	109.29	1.17
302.1	70	108.73	1.17
302.1	100	107.89	1.17
