Measured thermophysical data. Solubility, density and viscosity of mixtures of isobutane (R-600a) and a linear alkylbenzene lubricant oil
Source: Fluid Phase Equilib., 2010, 10.1016/j.fluid.2009.12.029
Compound 1: 2-phenyldodecane, C18H30, InChI=1S/C18H30/c1-3-4-5-6-7-8-9-11-14-17(2)18-15-12-10-13-16-18/h10,12-13,15-17H,3-9,11,14H2,1-2H3, purity 98%
Compound 2: 2-methylpropane, C4H10, InChI=1S/C4H10/c1-4(2)3/h4H,1-3H3

System: 2-methylpropane; phases: Liquid, Gas
Property: Vapor or sublimation pressure, kPa (Liquid); method: Pressure Transducer
Temperature, K	Vapor or sublimation pressure, kPa	uncertainty
353.15	1321	11
332.65	868	10
313.15	529	9
296.15	330	8

System: 2-methylpropane; phases: Liquid
Property: Mass density, kg/m3 (Liquid); method: Coriolis effect densimeter
Temperature, K	Pressure, kPa	Mass density, kg/m3	uncertainty
353.15	1321	469.3	4
332.65	868	503.4	2.4
313.15	529	553.4	3.7
296.15	330	553.4	1.5

System: 2-methylpropane; phases: Liquid, Gas
Property: Viscosity, Pa*s (Liquid); method: Oscillating piston viscometer
Temperature, K	Viscosity, Pa*s	uncertainty
353.15	0.00011	0.0002
332.65	0.00012	0.0002
313.15	0.00016	0.0002
296.15	0.00016	0.0002

System: 2-methylpropane; phases: Liquid, Gas
Property: Mass density, kg/m3 (Liquid); method: Coriolis effect densimeter
Temperature, K	Mass density, kg/m3	uncertainty
353.15	469.3	
332.65	503.4	
313.15	553.4	
296.15	553.4	

System: 2-methylpropane + 2-phenyldodecane; phases: Gas, Liquid
Property: Vapor or sublimation pressure, kPa (Gas); method: Pressure Transducer
Temperature, K	Mass fraction of 2-methylpropane	Vapor or sublimation pressure, kPa	uncertainty
352.95	0.054	184	7
352.95	0.073	246	7
352.75	0.1197	382	7
352.75	0.1672	490	7
352.55	0.2204	622	7
353.15	0.315	781	8
352.65	0.4926	947	8
352.45	0.6758	1120	10
353.15	0.9219	1276	12
353.15	1	1321	11
332.45	0.0495	118	6
333.05	0.1243	272	7
333.35	0.1535	345	7
332.65	0.2244	469	7
333.05	0.3179	543	7
332.65	0.4669	652	8
332.75	0.598	717	8
333.35	0.7091	752	9
333.25	0.7922	772	8
333.05	0.8448	786	8
333.05	0.9433	820	10
332.65	1	868	10
313.15	0.118	203	6
313.25	0.1661	250	6
313.15	0.2111	298	7
313.15	0.2642	331	7
313.45	0.3268	375	7
313.15	0.4025	395	7
312.85	0.4732	413	7
313.05	0.5236	433	7
313.05	0.6043	450	8
313.15	0.6409	464	8
313.05	0.7094	478	8
313.05	0.777	497	8
313.05	0.8579	525	8
313.25	0.9203	530	9
313.25	0.9872	531	9
313.15	1	529	9
296.35	0.0193	42	6
296.25	0.0473	76	6
296.45	0.0793	114	6
296.35	0.1116	140	6
296.25	0.1437	159	6
296.15	0.1868	188	6
296.25	0.2767	210	7
296.35	0.3197	230	7
296.35	0.3611	240	7
296.05	0.487	270	7
296.05	0.5138	280	7
295.95	0.5661	290	7
296.35	0.6079	295	7
296.35	0.7169	310	7
296.35	0.8139	320	7
296.15	1	330	8

System: 2-methylpropane + 2-phenyldodecane; phases: Liquid, Gas
Property: Viscosity, Pa*s (Liquid); method: Oscillating piston viscometer
Temperature, K	Mass fraction of 2-methylpropane	Viscosity, Pa*s	uncertainty
352.95	0.054	0.00132	0.0002
352.95	0.073	0.00117	0.0002
352.75	0.1197	0.00095	0.0002
352.75	0.1672	0.00082	0.0002
352.55	0.2204	0.00066	0.0002
353.15	0.315	0.00051	0.0002
352.65	0.4926	0.00031	0.0002
352.45	0.6758	0.00019	0.0002
353.15	0.9219	0.00015	0.0002
353.15	1	0.00011	0.0002
332.45	0.0495	0.0018	0.00021
333.05	0.1243	0.00121	0.0002
333.35	0.1535	0.00101	0.0002
332.65	0.2244	0.00078	0.0002
333.05	0.3179	0.00055	0.0002
332.65	0.4669	0.00034	0.0002
332.75	0.598	0.00024	0.0002
333.35	0.7091	0.0002	0.0002
333.25	0.7922	0.00018	0.0002
333.05	0.8448	0.00016	0.0002
333.05	0.9433	0.00017	0.0002
332.65	1	0.00012	0.0002
313.15	0.118	0.00203	0.00021
313.25	0.1661	0.00132	0.0002
313.15	0.2111	0.00105	0.0002
313.15	0.2642	0.0008	0.0002
313.45	0.3268	0.00061	0.0002
313.15	0.4025	0.00049	0.0002
312.85	0.4732	0.0004	0.0002
313.05	0.5236	0.00031	0.0002
313.05	0.6043	0.00025	0.0002
313.15	0.6409	0.00024	0.0002
313.05	0.7094	0.00023	0.0002
313.05	0.777	0.0002	0.0002
313.05	0.8579	0.00018	0.0002
313.25	0.9203	0.00017	0.0002
313.25	0.9872	0.00016	0.0002
313.15	1	0.00016	0.0002
296.35	0.0193	0.00521	0.00025
296.25	0.0473	0.00434	0.00023
296.45	0.0793	0.00342	0.00022
296.35	0.1116	0.00259	0.00021
296.25	0.1437	0.00209	0.00021
296.15	0.1868	0.00161	0.00021
296.25	0.2767	0.00096	0.0002
296.35	0.3197	0.00081	0.0002
296.35	0.3611	0.00073	0.0002
296.05	0.487	0.00045	0.0002
296.05	0.5138	0.00043	0.0002
295.95	0.5661	0.00036	0.0002
296.35	0.6079	0.00033	0.0002
296.35	0.7169	0.00027	0.0002
296.35	0.8139	0.00026	0.0002
296.15	1	0.00016	0.0002

System: 2-methylpropane + 2-phenyldodecane; phases: Liquid, Gas
Property: Mass density, kg/m3 (Liquid); method: Coriolis effect densimeter
Temperature, K	Mass fraction of 2-methylpropane	Mass density, kg/m3	uncertainty
352.95	0.054	810.9	
352.95	0.073	803.5	
352.75	0.1197	786.4	
352.75	0.1672	770.5	
352.55	0.2204	747.7	
353.15	0.315	718.1	
352.65	0.4926	676.1	
352.45	0.6758	593	
353.15	0.9219	515.4	
353.15	1	469.3	
332.45	0.0495	826	
333.05	0.1243	799.1	
333.35	0.1535	785.4	
332.65	0.2244	760.6	
333.05	0.3179	726.3	
332.65	0.4669	674.5	
332.75	0.598	631.8	
333.35	0.7091	599.3	
333.25	0.7922	575.1	
333.05	0.8448	558.6	
333.05	0.9433	545.9	
332.65	1	503.4	
313.15	0.118	807.8	
313.25	0.1661	792.7	
313.15	0.2111	773.3	
313.15	0.2642	758.2	
313.45	0.3268	734.1	
313.15	0.4025	709.9	
312.85	0.4732	696.4	
313.05	0.5236	694.5	
313.05	0.6043	673.8	
313.15	0.6409	658.4	
313.05	0.7094	638.6	
313.05	0.777	619.2	
313.05	0.8579	593.4	
313.25	0.9203	577.5	
313.25	0.9872	558.5	
313.15	1	553.4	
296.35	0.0193	859.5	
296.25	0.0473	851.9	
296.45	0.0793	839.3	
296.35	0.1116	827.7	
296.25	0.1437	817.2	
296.15	0.1868	800.4	
296.25	0.2767	770.4	
296.35	0.3197	757.7	
296.35	0.3611	748	
296.05	0.487	709.2	
296.05	0.5138	700	
295.95	0.5661	688.5	
296.35	0.6079	664.9	
296.35	0.7169	634.8	
296.35	0.8139	612	
296.15	1	553.4	
