Measured thermophysical data. Isobaric vapor-liquid equilibrium for binary systems containing benzothiophene
Source: Fluid Phase Equilib., 2011, 10.1016/j.fluid.2011.04.024
Compound 1: benzo[b]thiophene, C8H6S, InChI=1S/C8H6S/c1-2-4-8-7(3-1)5-6-9-8/h1-6H, purity 99.4%
Compound 2: dodecane, C12H26, InChI=1S/C12H26/c1-3-5-7-9-11-12-10-8-6-4-2/h3-12H2,1-2H3, purity 99.5%
Compound 3: 1-dodecene, C12H24, InChI=1S/C12H24/c1-3-5-7-9-11-12-10-8-6-4-2/h3H,1,4-12H2,2H3, purity 99.4%
Compound 4: octan-1-ol, C8H18O, InChI=1S/C8H18O/c1-2-3-4-5-6-7-8-9/h9H,2-8H2,1H3, purity 99.2%

System: benzo[b]thiophene; phases: Liquid, Gas
Property: Vapor or sublimation pressure, kPa (Liquid); method: Closed cell (Static) method
Temperature, K	Vapor or sublimation pressure, kPa	uncertainty
434.26	21.3	0.4
446.75	30.3	0.4
457.64	41.1	0.4
465.61	50.8	0.4
472.44	60.5	0.4
479.15	71.5	0.4
484.01	80.5	0.4
489.09	90.9	0.4
493.8	101.5	0.4

System: dodecane; phases: Liquid, Gas
Property: Vapor or sublimation pressure, kPa (Liquid); method: Closed cell (Static) method
Temperature, K	Vapor or sublimation pressure, kPa	uncertainty
432.23	20.9	0.4
444.86	31	0.4
455.87	42.7	0.4
462.05	50.8	0.4
469.67	62.3	0.4
474.19	70.2	0.4
479.82	81	0.4
484.34	90.8	0.4
488.5	100.6	0.4

System: 1-dodecene; phases: Liquid, Gas
Property: Vapor or sublimation pressure, kPa (Liquid); method: Closed cell (Static) method
Temperature, K	Vapor or sublimation pressure, kPa	uncertainty
430.38	21.7	0.4
443.18	33.6	0.4
453.99	44	0.4
459.86	52.6	0.4
464.81	61.6	0.4
470.91	70.7	0.4
476.45	80.8	0.4
480.78	90.2	0.5
484.11	100.7	0.5

System: octan-1-ol; phases: Liquid, Gas
Property: Vapor or sublimation pressure, kPa (Liquid); method: Closed cell (Static) method
Temperature, K	Vapor or sublimation pressure, kPa	uncertainty
417.83	20.5	0.4
428.6	30.4	0.4
437.35	41.5	0.4
443.9	50.5	0.4
449.55	60.7	0.4
454.52	71	0.4
459.23	81	0.4
463.21	91.1	0.5
466.61	100.3	0.5

System: benzo[b]thiophene + dodecane; phases: Liquid, Gas
Property: Azeotropic composition: mole fraction of benzo[b]thiophene (Liquid); method: By X=Y
Temperature, K	Azeotropic composition: mole fraction of benzo[b]thiophene	uncertainty
484.72	0.491	0.008

System: benzo[b]thiophene + dodecane; phases: Liquid, Gas
Property: Azeotropic composition: mole fraction of benzo[b]thiophene (Liquid); method: By X=Y
Pressure, kPa	Azeotropic composition: mole fraction of benzo[b]thiophene	uncertainty
99.6	0.491	0.008

System: benzo[b]thiophene + dodecane; phases: Liquid, Gas
Property: Boiling temperature at pressure P, K (Liquid); method: Ebulliometric method (Recirculating still)
Mole fraction of benzo[b]thiophene	Pressure, kPa	Boiling temperature at pressure P, K	uncertainty
0	99.6	488.25	0.15
0.059	99.6	487.62	0.16
0.167	99.6	486.44	0.15
0.324	99.6	485.24	0.15
0.451	99.6	484.78	0.15
0.571	99.6	484.81	0.15
0.681	99.7	485.35	0.15
0.805	99.6	486.62	0.19
0.907	99.6	488.75	0.25
1	99.6	493.39	0.15

System: benzo[b]thiophene + dodecane; phases: Gas, Liquid
Property: Mole fraction of benzo[b]thiophene (Gas); method: Chromatography
Mole fraction of benzo[b]thiophene	Pressure, kPa	Mole fraction of benzo[b]thiophene	uncertainty
0	99.6	0	
0.059	99.6	0.075	0.009
0.167	99.6	0.198	0.009
0.324	99.6	0.353	0.009
0.451	99.6	0.46	0.009
0.571	99.6	0.551	0.009
0.681	99.7	0.63	0.008
0.805	99.6	0.729	0.009
0.907	99.6	0.832	0.01
1	99.6	1	

System: benzo[b]thiophene + 1-dodecene; phases: Liquid, Gas
Property: Azeotropic composition: mole fraction of benzo[b]thiophene (Liquid); method: By X=Y
Temperature, K	Azeotropic composition: mole fraction of benzo[b]thiophene	uncertainty
484.45	0.185	0.006

System: benzo[b]thiophene + 1-dodecene; phases: Liquid, Gas
Property: Azeotropic composition: mole fraction of benzo[b]thiophene (Liquid); method: By X=Y
Pressure, kPa	Azeotropic composition: mole fraction of benzo[b]thiophene	uncertainty
100.1	0.185	0.006

System: benzo[b]thiophene + 1-dodecene; phases: Liquid, Gas
Property: Boiling temperature at pressure P, K (Liquid); method: Ebulliometric method (Recirculating still)
Mole fraction of benzo[b]thiophene	Pressure, kPa	Boiling temperature at pressure P, K	uncertainty
0	100.2	484.8	0.15
0.142	100.2	484.51	0.15
0.318	100.1	484.53	0.15
0.478	100.1	485.31	0.15
0.618	100.1	486.02	0.15
0.735	100.1	487.14	0.16
0.832	100	488.59	0.2
0.925	100	490.75	0.2
1	100.2	493.39	0.15

System: benzo[b]thiophene + 1-dodecene; phases: Gas, Liquid
Property: Mole fraction of benzo[b]thiophene (Gas); method: Chromatography
Mole fraction of benzo[b]thiophene	Pressure, kPa	Mole fraction of benzo[b]thiophene	uncertainty
0	100.2	0	
0.142	100.2	0.144	0.009
0.318	100.1	0.307	0.008
0.478	100.1	0.444	0.009
0.618	100.1	0.567	0.009
0.735	100.1	0.663	0.009
0.832	100	0.766	0.01
0.925	100	0.877	0.009
1	100.2	1	

System: benzo[b]thiophene + octan-1-ol; phases: Liquid, Gas
Property: Boiling temperature at pressure P, K (Liquid); method: Ebulliometric method (Recirculating still)
Mole fraction of benzo[b]thiophene	Pressure, kPa	Boiling temperature at pressure P, K	uncertainty
0	99.9	466.28	0.15
0.113	99.9	467.44	0.16
0.228	99.9	468.7	0.2
0.373	99.9	471.01	0.17
0.502	99.9	472.87	0.17
0.715	100.4	478.72	0.29
0.887	100.4	485.78	0.29
1	100.5	493.39	0.15

System: benzo[b]thiophene + octan-1-ol; phases: Gas, Liquid
Property: Mole fraction of benzo[b]thiophene (Gas); method: Chromatography
Mole fraction of benzo[b]thiophene	Pressure, kPa	Mole fraction of benzo[b]thiophene	uncertainty
0	99.9	0	
0.113	99.9	0.084	0.007
0.228	99.9	0.166	0.007
0.373	99.9	0.258	0.008
0.502	99.9	0.348	0.008
0.715	100.4	0.529	0.011
0.887	100.4	0.749	0.01
1	100.5	1	
