Measured thermophysical data. Measurements for the solid solubilities of antipyrine, 4-aminoantipyrine and 4-dimethylaminoantipyrine in supercritical carbon dioxide
Source: Fluid Phase Equilib., 2009, 10.1016/j.fluid.2009.04.019
Compound 1: carbon dioxide, CO2, InChI=1S/CO2/c2-1-3, purity 99.8%
Compound 2: 1,2-dihydro-1,5-dimethyl-2-phenyl-3H-pyrazol-3-one, C11H12N2O, InChI=1S/C11H12N2O/c1-9-8-11(14)13(12(9)2)10-6-4-3-5-7-10/h3-8H,1-2H3
Compound 3: antipyrine, 4-amino-, C11H13N3O, InChI=1S/C11H13N3O/c1-8-10(12)11(15)14(13(8)2)9-6-4-3-5-7-9/h3-7H,12H2,1-2H3
Compound 4: 4-N,N-dimethylaminoantipyrine, C13H17N3O, InChI=1S/C13H17N3O/c1-10-12(14(2)3)13(17)16(15(10)4)11-8-6-5-7-9-11/h5-9H,1-4H3

System: 1,2-dihydro-1,5-dimethyl-2-phenyl-3H-pyrazol-3-one + carbon dioxide; phases: Gas, Crystal
Property: Mole fraction of 1,2-dihydro-1,5-dimethyl-2-phenyl-3H-pyrazol-3-one (Gas); method: UV-vis detector
Temperature, K	Pressure, kPa	Mole fraction of 1,2-dihydro-1,5-dimethyl-2-phenyl-3H-pyrazol-3-one	uncertainty
308.2	10040	0.000209	2.1e-05
308.2	12040	0.000311	3.1e-05
308.2	14040	0.000359	3.6e-05
308.2	16030	0.000414	4.1e-05
308.2	18030	0.000448	4.5e-05
308.2	20030	0.000465	4.7e-05
308.2	22040	0.000492	4.9e-05
318.2	10020	6.3e-05	7.4e-06
318.2	12010	0.000211	2.2e-05
318.2	14020	0.000306	3.1e-05
318.2	16030	0.000426	4.3e-05
318.2	18020	0.000522	5.2e-05
318.2	20010	0.000569	5.7e-05
318.2	22020	0.000622	6.2e-05
328.2	10020	1.92e-05	3.4e-06
328.2	12020	0.000106	1.1e-05
328.2	14020	0.000262	2.7e-05
328.2	16030	0.000426	4.3e-05
328.2	18030	0.000547	5.5e-05
328.2	20010	0.000633	6.3e-05
328.2	22030	0.000717	7.2e-05

System: antipyrine, 4-amino- + carbon dioxide; phases: Gas, Crystal
Property: Mole fraction of antipyrine, 4-amino- (Gas); method: UV-vis detector
Temperature, K	Pressure, kPa	Mole fraction of antipyrine, 4-amino-	uncertainty
308.2	10050	0.000116	1.2e-05
308.2	12050	0.000151	1.5e-05
308.2	14050	0.000176	1.8e-05
308.2	16050	0.00019	1.9e-05
308.2	18060	0.000207	2.1e-05
308.2	20040	0.000218	2.2e-05
308.2	22040	0.000231	2.3e-05
318.2	10040	3.05e-05	3.7e-06
318.2	12030	0.000114	1.2e-05
318.2	14050	0.000166	1.7e-05
318.2	16050	0.000191	1.9e-05
318.2	18030	0.000253	2.5e-05
318.2	20020	0.000269	2.7e-05
318.2	22030	0.0003	3e-05
328.2	10030	1.04e-05	1.6e-06
328.2	12040	4.82e-05	5.2e-06
328.2	14030	0.00012	1.2e-05
328.2	16030	0.000194	2e-05
328.2	18030	0.000259	2.6e-05
328.2	20020	0.00029	2.9e-05
328.2	22030	0.000367	3.7e-05

System: 4-N,N-dimethylaminoantipyrine + carbon dioxide; phases: Gas, Crystal 1
Property: Mole fraction of 4-N,N-dimethylaminoantipyrine (Gas); method: UV-vis detector
Temperature, K	Pressure, kPa	Mole fraction of 4-N,N-dimethylaminoantipyrine	uncertainty
308.2	10030	0.000525	5.4e-05
308.2	12020	0.000807	8.1e-05
308.2	14020	0.000988	9.9e-05
308.2	16030	0.00109	0.00011
308.2	18040	0.00124	0.00012
308.2	20040	0.00131	0.00013
308.2	22030	0.00144	0.00014
318.2	10020	0.000187	2.2e-05
318.2	12030	0.000647	6.6e-05
318.2	14030	0.000969	9.7e-05
318.2	16030	0.00133	0.00013
318.2	18030	0.00153	0.00015
318.2	20010	0.00166	0.00017
318.2	22030	0.00182	0.00018
328.2	10020	6.51e-05	1.13e-05
328.2	12020	0.000362	3.8e-05
328.2	14020	0.000861	8.7e-05
328.2	16040	0.00135	0.00014
328.2	18010	0.00175	0.00018
328.2	20030	0.002	0.0002
328.2	22020	0.00255	0.00026
