Measured thermophysical data. Solubility measurements and thermodynamic modeling of pyrazinamide in five different solvent-antisolvent mixtures
Source: Fluid Phase Equilib., 2019, 10.1016/j.fluid.2019.06.004
Compound 1: pyrazinecarboxamide, C5H5N3O, InChI=1S/C5H5N3O/c6-5(9)4-3-7-1-2-8-4/h1-3H,(H2,6,9), purity 98%
Compound 2: acetone, C3H6O, InChI=1S/C3H6O/c1-3(2)4/h1-2H3, purity 99%
Compound 3: 1,4-dioxane, C4H8O2, InChI=1S/C4H8O2/c1-2-6-4-3-5-1/h1-4H2, purity 99%
Compound 4: methanol, CH4O, InChI=1S/CH4O/c1-2/h2H,1H3, purity 99.5%
Compound 5: cyclohexane, C6H12, InChI=1S/C6H12/c1-2-4-6-5-3-1/h1-6H2, purity 99.7%
Compound 6: toluene, C7H8, InChI=1S/C7H8/c1-7-5-3-2-4-6-7/h2-6H,1H3, purity 99.5%

System: pyrazinecarboxamide; phases: Crystal, Liquid, Air at 1 atmosphere
Property: Normal melting temperature, K (Crystal); method: ADIACA:corrimp
Normal melting temperature, K	uncertainty
462.11	2.24

System: pyrazinecarboxamide; phases: Crystal, Liquid, Air at 1 atmosphere
Property: Molar enthalpy of transition or fusion, kJ/mol (Crystal); method: DSC
Molar enthalpy of transition or fusion, kJ/mol	uncertainty
25.472042458	2.105229222

System: pyrazinecarboxamide; phases: Crystal 2, Crystal 1, Air at 1 atmosphere
Property: Triple point temperature, K (Crystal 2); method: DSC
Triple point temperature, K	uncertainty
421.11	1.22

System: pyrazinecarboxamide; phases: Crystal 2, Crystal 1, Air at 1 atmosphere
Property: Molar enthalpy of transition or fusion, kJ/mol (Crystal 2); method: DSC
Molar enthalpy of transition or fusion, kJ/mol	uncertainty
1.5192121988	0.18466923

System: pyrazinecarboxamide + acetone + toluene; phases: Liquid, Crystal
Fixed: Pressure, kPa = 101
Property: Mole fraction of pyrazinecarboxamide (Liquid); method: gravimetric
Temperature, K	Solvent: Mass fraction of toluene	Mole fraction of pyrazinecarboxamide	uncertainty
283.15	0	0.002436	0.000204
293.15	0	0.003863	0.000287
303.15	0	0.00583	0.000399
313.15	0	0.007683	0.000543
323.15	0	0.011569	0.000796
283.15	0.1	0.0023	0.000175
293.15	0.1	0.003388	0.000247
303.15	0.1	0.00512	0.000363
313.15	0.1	0.007252	0.000514
323.15	0.1	0.010591	0.000718
283.15	0.2	0.002194	0.000169
293.15	0.2	0.003241	0.000223
303.15	0.2	0.004377	0.000313
313.15	0.2	0.006657	0.000477
323.15	0.2	0.009601	0.000652
283.15	0.3	0.002033	0.00015
293.15	0.3	0.002786	0.000198
303.15	0.3	0.004161	0.000307
313.15	0.3	0.006357	0.000449
323.15	0.3	0.008893	0.000592
283.15	0.4	0.00149	0.000121
293.15	0.4	0.002428	0.000183
303.15	0.4	0.003688	0.000265
313.15	0.4	0.005336	0.000393
323.15	0.4	0.008239	0.000561
283.15	0.5	0.001317	0.000106
293.15	0.5	0.001972	0.000141
303.15	0.5	0.002866	0.00021
313.15	0.5	0.004385	0.00033
323.15	0.5	0.006842	0.000482
283.15	0.6	0.000997	7.7e-05
293.15	0.6	0.001458	0.00011
303.15	0.6	0.002337	0.000184
313.15	0.6	0.003854	0.000285
323.15	0.6	0.005661	0.000375
283.15	0.7	0.000604	5e-05
293.15	0.7	0.000947	7.1e-05
303.15	0.7	0.001462	0.00013
313.15	0.7	0.002875	0.00021
323.15	0.7	0.003848	0.000251

System: pyrazinecarboxamide + acetone + cyclohexane; phases: Liquid, Crystal
Fixed: Pressure, kPa = 101
Property: Mole fraction of pyrazinecarboxamide (Liquid); method: gravimetric
Temperature, K	Solvent: Mass fraction of cyclohexane	Mole fraction of pyrazinecarboxamide	uncertainty
283.15	0	0.002436	0.000204
293.15	0	0.003863	0.000287
303.15	0	0.00583	0.000399
313.15	0	0.007683	0.000543
323.15	0	0.011569	0.000796
283.15	0.1	0.002222	0.000181
293.15	0.1	0.003432	0.00024
303.15	0.1	0.004673	0.000333
313.15	0.1	0.007008	0.000486
323.15	0.1	0.009556	0.000641
283.15	0.2	0.001969	0.000171
293.15	0.2	0.003155	0.000215
303.15	0.2	0.004014	0.000279
313.15	0.2	0.005968	0.000422
323.15	0.2	0.008482	0.000565
283.15	0.3	0.001574	0.000132
293.15	0.3	0.002527	0.000174
303.15	0.3	0.003274	0.000239
313.15	0.3	0.005233	0.000371
323.15	0.3	0.007237	0.000472
283.15	0.4	0.00126	9.8e-05
293.15	0.4	0.001843	0.000133
303.15	0.4	0.002737	0.000195
313.15	0.4	0.003947	0.000275
323.15	0.4	0.005521	0.000366
283.15	0.5	0.000814	7.2e-05
293.15	0.5	0.001408	0.000107
303.15	0.5	0.002134	0.000146
313.15	0.5	0.002816	0.000187
323.15	0.5	0.003746	0.000248
283.15	0.6	0.000566	5.1e-05
293.15	0.6	0.000896	6e-05
303.15	0.6	0.001109	7.7e-05
313.15	0.6	0.001662	0.000116
323.15	0.6	0.00229	0.000161
283.15	0.7	0.000164	2.1e-05
293.15	0.7	0.000349	2.8e-05
303.15	0.7	0.000531	4.2e-05
313.15	0.7	0.00089	7e-05
323.15	0.7	0.001437	0.000102

System: pyrazinecarboxamide + 1,4-dioxane + toluene; phases: Liquid, Crystal
Fixed: Pressure, kPa = 101
Property: Mole fraction of pyrazinecarboxamide (Liquid); method: gravimetric
Temperature, K	Solvent: Mass fraction of toluene	Mole fraction of pyrazinecarboxamide	uncertainty
293.15	0	0.007195	0.000559
303.15	0	0.010743	0.000725
313.15	0	0.01382	0.000956
323.15	0	0.020229	0.00142
333.15	0	0.028531	0.001904
293.15	0.1	0.005092	0.000388
303.15	0.1	0.007692	0.000519
313.15	0.1	0.009812	0.000675
323.15	0.1	0.014274	0.000997
333.15	0.1	0.020016	0.00137
293.15	0.2	0.003634	0.000269
303.15	0.2	0.005323	0.000356
313.15	0.2	0.006759	0.000484
323.15	0.2	0.010596	0.000732
333.15	0.2	0.013997	0.000949
293.15	0.3	0.00252	0.000174
303.15	0.3	0.003572	0.000253
313.15	0.3	0.005204	0.000358
323.15	0.3	0.007052	0.000513
333.15	0.3	0.011012	0.000767
293.15	0.4	0.001955	0.000143
303.15	0.4	0.002779	0.000198
313.15	0.4	0.004091	0.00028
323.15	0.4	0.005456	0.000377
333.15	0.4	0.007816	0.000547
293.15	0.5	0.001424	0.000108
303.15	0.5	0.00209	0.000151
313.15	0.5	0.003107	0.00021
323.15	0.5	0.004005	0.000279
333.15	0.5	0.005951	0.000407
293.15	0.6	0.000912	7.5e-05
303.15	0.6	0.001461	0.00011
313.15	0.6	0.002249	0.000155
323.15	0.6	0.002987	0.000202
333.15	0.6	0.004126	0.000284
293.15	0.7	0.000518	4.2e-05
303.15	0.7	0.000803	6.9e-05
313.15	0.7	0.001505	0.000102
323.15	0.7	0.001762	0.000131
333.15	0.7	0.003057	0.000225

System: pyrazinecarboxamide + 1,4-dioxane + cyclohexane; phases: Liquid, Crystal
Fixed: Pressure, kPa = 101
Property: Mole fraction of pyrazinecarboxamide (Liquid); method: gravimetric
Temperature, K	Solvent: Mass fraction of cyclohexane	Mole fraction of pyrazinecarboxamide	uncertainty
293.15	0	0.007195	0.000559
303.15	0	0.010743	0.000725
313.15	0	0.01382	0.000956
323.15	0	0.020229	0.00142
333.15	0	0.028531	0.001904
293.15	0.1	0.005047	0.000359
303.15	0.1	0.007202	0.000492
313.15	0.1	0.009721	0.000653
323.15	0.1	0.013038	0.000932
333.15	0.1	0.019839	0.001404
293.15	0.2	0.003569	0.000235
303.15	0.2	0.004645	0.000318
313.15	0.2	0.006638	0.000455
323.15	0.2	0.009017	0.000629
333.15	0.2	0.013039	0.000932
293.15	0.3	0.002453	0.000171
303.15	0.3	0.003323	0.000221
313.15	0.3	0.004366	0.000289
323.15	0.3	0.005749	0.000425
333.15	0.3	0.009337	0.000683
293.15	0.4	0.001321	9.4e-05
303.15	0.4	0.002019	0.000143
313.15	0.4	0.002829	0.000193
323.15	0.4	0.003871	0.000298
333.15	0.4	0.00657	0.000488
293.15	0.5	0.000752	6.2e-05
303.15	0.5	0.001289	9.7e-05
313.15	0.5	0.001926	0.000136
323.15	0.5	0.002734	0.000203
333.15	0.5	0.004305	0.000311
293.15	0.6	0.000516	3.6e-05
303.15	0.6	0.000689	5.6e-05
313.15	0.6	0.001258	8.4e-05
323.15	0.6	0.001444	0.000107
333.15	0.6	0.002525	0.000202
293.15	0.7	0.000243	2.8e-05
303.15	0.7	0.000477	3.3e-05
313.15	0.7	0.000571	4.2e-05
323.15	0.7	0.000963	7.4e-05
333.15	0.7	0.001489	0.000104

System: pyrazinecarboxamide + methanol + toluene; phases: Liquid, Crystal
Fixed: Pressure, kPa = 101
Property: Mole fraction of pyrazinecarboxamide (Liquid); method: gravimetric
Temperature, K	Solvent: Mass fraction of toluene	Mole fraction of pyrazinecarboxamide	uncertainty
283.15	0	0.002677	0.000207
293.15	0	0.003981	0.000287
303.15	0	0.005864	0.000421
313.15	0	0.0086	0.000607
323.15	0	0.012248	0.000821
283.15	0.1	0.003078	0.000233
293.15	0.1	0.004515	0.000319
303.15	0.1	0.006428	0.000466
313.15	0.1	0.009722	0.000684
323.15	0.1	0.013573	0.000901
283.15	0.2	0.00353	0.000252
293.15	0.2	0.004794	0.000341
303.15	0.2	0.007176	0.000507
313.15	0.2	0.010127	0.00072
323.15	0.2	0.014889	0.001003
283.15	0.3	0.003709	0.000263
293.15	0.3	0.005083	0.000365
303.15	0.3	0.007707	0.000551
313.15	0.3	0.011064	0.000771
323.15	0.3	0.015546	0.001039
283.15	0.4	0.003789	0.000285
293.15	0.4	0.005484	0.000392
303.15	0.4	0.00804	0.000564
313.15	0.4	0.011317	0.000798
323.15	0.4	0.016422	0.001092
283.15	0.5	0.003806	0.000278
293.15	0.5	0.005497	0.000393
303.15	0.5	0.008082	0.000565
313.15	0.5	0.01127	0.000786
323.15	0.5	0.016079	0.001077
283.15	0.6	0.004131	0.000292
293.15	0.6	0.005309	0.000364
303.15	0.6	0.007653	0.000539
313.15	0.6	0.010946	0.000769
323.15	0.6	0.015652	0.001048
283.15	0.7	0.003365	0.00027
293.15	0.7	0.005158	0.000361
303.15	0.7	0.00709	0.000504
313.15	0.7	0.010552	0.000748
323.15	0.7	0.015054	0.00101
