Measured thermophysical data. Group contribution and parachor analysis of experimental data on density and surface tension for members of the homologous series of 1-Cn-3-methylimidazolium chlorides
Source: Fluid Phase Equilib., 2017, 10.1016/j.fluid.2017.08.022
Compound 1: 1-methylimidazolium chloride, C4H7ClN2, InChI=1S/C4H6N2.ClH/c1-6-3-2-5-4-6;/h2-4H,1H3;1H, purity 99.9%
Compound 2: 1-ethyl-3-methylimidazolium chloride, C6H11ClN2, InChI=1S/C6H11N2.ClH/c1-3-8-5-4-7(2)6-8;/h4-6H,3H2,1-2H3;1H/q+1;/p-1, purity 98%
Compound 3: 1-methyl-3-propylimidazolium chloride, C7H13ClN2, InChI=1S/C7H13N2.ClH/c1-3-4-9-6-5-8(2)7-9;/h5-7H,3-4H2,1-2H3;1H/q+1;/p-1, purity 99.8%
Compound 4: 1-butyl-3-methylimidazolium chloride, C8H15ClN2, InChI=1S/C8H15N2.ClH/c1-3-4-5-10-7-6-9(2)8-10;/h6-8H,3-5H2,1-2H3;1H/q+1;/p-1, purity 99.6%
Compound 5: 1-hexyl-3-methylimidazolium chloride, C10H19ClN2, InChI=1S/C10H19N2.ClH/c1-3-4-5-6-7-12-9-8-11(2)10-12;/h8-10H,3-7H2,1-2H3;1H/q+1;/p-1, purity 99.4%
Compound 6: 1-decyl-3-methylimidazolium chloride, C14H27ClN2, InChI=1S/C14H27N2.ClH/c1-3-4-5-6-7-8-9-10-11-16-13-12-15(2)14-16;/h12-14H,3-11H2,1-2H3;1H/q+1;/p-1, purity 99.1%

System: 1-methylimidazolium chloride; phases: Liquid
Fixed: Pressure, kPa = 100
Property: Mass density, kg/m3 (Liquid); method: Buoyancy - hydrostatic balance with magnetic suspension - one sinker
Temperature, K	Mass density, kg/m3	uncertainty
333.65	1195.33	1.01
338.68	1192.04	1.01
343.7	1187.98	1.01
347.72	1186.51	1.01
353.06	1184.13	1.01
359.06	1180.78	1.01
363.86	1177.41	1.01

System: 1-methylimidazolium chloride; phases: Liquid, Air at 1 atmosphere
Property: Surface tension liquid-gas, N/m (Liquid); method: Wilhelmy Plate
Temperature, K	Surface tension liquid-gas, N/m	uncertainty
333.67	0.06684	7e-05
338.7	0.0665	7e-05
343.19	0.06613	7e-05
348.11	0.06578	7e-05
352.35	0.0654	7e-05
359.17	0.06487	7e-05
364	0.06458	7e-05

System: 1-methylimidazolium chloride; phases: Liquid, Air at 1 atmosphere
Property: Surface tension liquid-gas, N/m (Liquid); method: Ring tensiometer
Temperature, K	Surface tension liquid-gas, N/m	uncertainty
333.66	0.06702	0.00108
338.7	0.06637	0.00107
343.24	0.06648	0.00107
348.1	0.06618	0.00107
352.38	0.06596	0.00107
359.12	0.06547	0.00106
363.94	0.06512	0.00106

System: 1-ethyl-3-methylimidazolium chloride; phases: Liquid
Fixed: Pressure, kPa = 100
Property: Mass density, kg/m3 (Liquid); method: Buoyancy - hydrostatic balance with magnetic suspension - one sinker
Temperature, K	Mass density, kg/m3	uncertainty
313.38	1134.76	1.17
318.3	1132.06	1.17
323.25	1129.33	1.16
328.1	1126.5	1.16
333.15	1124.02	1.15
338.1	1120.96	1.15
342.86	1118.28	1.14
347.66	1115.32	1.14
353.21	1112.21	1.13
359.06	1109.07	1.12
364.85	1106.29	1.12

System: 1-ethyl-3-methylimidazolium chloride; phases: Liquid, Air at 1 atmosphere
Property: Surface tension liquid-gas, N/m (Liquid); method: Wilhelmy Plate
Temperature, K	Surface tension liquid-gas, N/m	uncertainty
333.2	0.0626	0.00063
338.24	0.06226	0.00063
343.38	0.06182	0.00062
348.57	0.06151	0.00062
353.32	0.0611	0.00061
358.5	0.06064	0.00061
364.96	0.0602	0.00061

System: 1-ethyl-3-methylimidazolium chloride; phases: Liquid, Air at 1 atmosphere
Property: Surface tension liquid-gas, N/m (Liquid); method: Ring tensiometer
Temperature, K	Surface tension liquid-gas, N/m	uncertainty
333.2	0.06256	0.00102
338.15	0.06212	0.00101
343.38	0.06216	0.00101
348.58	0.06159	0.001
353.3	0.06145	0.001
358.44	0.0608	0.00099
364.76	0.06005	0.00098

System: 1-methyl-3-propylimidazolium chloride; phases: Liquid
Fixed: Pressure, kPa = 100
Property: Mass density, kg/m3 (Liquid); method: Buoyancy - hydrostatic balance with magnetic suspension - one sinker
Temperature, K	Mass density, kg/m3	uncertainty
308.26	1103.45	0.44
313.1	1100.71	0.44
318.25	1097.5	0.44
323.58	1094.84	0.44
328.52	1091.95	0.44
333.54	1089.17	0.44
338.03	1086.64	0.44
343.46	1083.12	0.44
348.39	1080.73	0.44
353.12	1078.37	0.44
358.51	1075.69	0.44
363.89	1071.76	0.44

System: 1-methyl-3-propylimidazolium chloride; phases: Liquid, Air at 1 atmosphere
Property: Surface tension liquid-gas, N/m (Liquid); method: Wilhelmy Plate
Temperature, K	Surface tension liquid-gas, N/m	uncertainty
313.04	0.05561	8e-05
318.34	0.05541	8e-05
323.54	0.05498	8e-05
328.41	0.0547	8e-05
333.49	0.05442	8e-05
337.95	0.05409	8e-05
343.39	0.0538	8e-05
348.34	0.05359	8e-05
353.07	0.05329	8e-05
358.45	0.05295	8e-05
364.37	0.05257	8e-05

System: 1-methyl-3-propylimidazolium chloride; phases: Liquid, Air at 1 atmosphere
Property: Surface tension liquid-gas, N/m (Liquid); method: Ring tensiometer
Temperature, K	Surface tension liquid-gas, N/m	uncertainty
308.21	0.0567	0.00121
313.07	0.05645	0.0012
318.32	0.05627	0.0012
323.54	0.05592	0.0012
328.46	0.05549	0.0012
333.5	0.05537	0.0012
338	0.05498	0.0012
343.45	0.05458	0.00119
348.39	0.0543	0.00119
353.11	0.05407	0.00119
358.5	0.05369	0.00119
363.91	0.05327	0.00119

System: 1-butyl-3-methylimidazolium chloride; phases: Liquid
Fixed: Pressure, kPa = 100
Property: Mass density, kg/m3 (Liquid); method: Buoyancy - hydrostatic balance with magnetic suspension - one sinker
Temperature, K	Mass density, kg/m3	uncertainty
313.05	1073.4	0.52
318.21	1070.57	0.52
323.11	1067.9	0.52
328.37	1065.5	0.52
334.27	1062.01	0.52
338.89	1059.46	0.52
343.88	1056.78	0.52
349.01	1054.21	0.52
353.91	1051.34	0.52
357.34	1049.12	0.52
364.78	1044.98	0.52

System: 1-butyl-3-methylimidazolium chloride; phases: Liquid, Air at 1 atmosphere
Property: Surface tension liquid-gas, N/m (Liquid); method: Wilhelmy Plate
Temperature, K	Surface tension liquid-gas, N/m	uncertainty
308.23	0.04964	0.00012
313.06	0.04926	0.00012
318.07	0.04897	0.00012
323.1	0.04858	0.00012
327.9	0.04824	0.00012
333.82	0.04781	0.00012
338.28	0.04755	0.00012
343.23	0.04716	0.00012
348.85	0.0469	0.00012
353.81	0.0465	0.00012
357.26	0.04629	0.00012
364.9	0.04576	0.00012

System: 1-butyl-3-methylimidazolium chloride; phases: Liquid, Air at 1 atmosphere
Property: Surface tension liquid-gas, N/m (Liquid); method: Ring tensiometer
Temperature, K	Surface tension liquid-gas, N/m	uncertainty
303.11	0.05032	0.00117
308.27	0.0503	0.00117
313.07	0.04973	0.00117
318.04	0.04968	0.00117
323.1	0.04923	0.00117
327.96	0.0488	0.00116
333.85	0.04835	0.00116
338.23	0.04824	0.00116
342.85	0.04776	0.00116
348.79	0.04738	0.00116
353.87	0.04716	0.00116
357.34	0.04688	0.00115
364.83	0.04646	0.00115

System: 1-hexyl-3-methylimidazolium chloride; phases: Liquid
Fixed: Pressure, kPa = 100
Property: Mass density, kg/m3 (Liquid); method: Buoyancy - hydrostatic balance with magnetic suspension - one sinker
Temperature, K	Mass density, kg/m3	uncertainty
303.22	1035.05	0.29
308.25	1032.18	0.29
313	1029.5	0.29
318.38	1026.54	0.29
323.18	1023.64	0.29
328.31	1020.97	0.29
333.34	1017.64	0.29
338.73	1014.46	0.29
343.06	1011.76	0.29
348.19	1009.28	0.29
353.71	1006.44	0.29
358.14	1004	0.29
363.17	1001.49	0.29

System: 1-hexyl-3-methylimidazolium chloride; phases: Liquid, Air at 1 atmosphere
Property: Surface tension liquid-gas, N/m (Liquid); method: Wilhelmy Plate
Temperature, K	Surface tension liquid-gas, N/m	uncertainty
303.22	0.03937	0.00012
308.21	0.03915	0.00012
312.93	0.03895	0.00012
318.33	0.03869	0.00012
323.1	0.03845	0.00012
328.18	0.03817	0.00012
333.27	0.03794	0.00012
338.68	0.03766	0.00012
343.01	0.03744	0.00012
348.1	0.03716	0.00012
353.53	0.03693	0.00012
358.12	0.03668	0.00012
363.07	0.03642	0.00012

System: 1-hexyl-3-methylimidazolium chloride; phases: Liquid, Air at 1 atmosphere
Property: Surface tension liquid-gas, N/m (Liquid); method: Ring tensiometer
Temperature, K	Surface tension liquid-gas, N/m	uncertainty
303.19	0.03983	0.00073
308.22	0.03958	0.00072
312.95	0.03937	0.00072
318.33	0.0391	0.00072
323.12	0.03884	0.00072
328.2	0.03854	0.00072
333.31	0.0383	0.00071
338.71	0.03797	0.00071
343.06	0.03774	0.00071
348.15	0.03752	0.00071
353.63	0.03719	0.00071
358.24	0.037	0.00071
363.17	0.03672	0.0007

System: 1-decyl-3-methylimidazolium chloride; phases: Liquid
Fixed: Pressure, kPa = 100
Property: Mass density, kg/m3 (Liquid); method: Buoyancy - hydrostatic balance with magnetic suspension - one sinker
Temperature, K	Mass density, kg/m3	uncertainty
317.88	973.64	0.36
323.19	970.69	0.36
328.33	968.07	0.36
333.2	964.94	0.35
338.44	962.23	0.35
343.26	958.59	0.35
348.19	956.59	0.35
353.38	953.42	0.35
358.17	950.62	0.35
363.44	947.62	0.35

System: 1-decyl-3-methylimidazolium chloride; phases: Liquid, Air at 1 atmosphere
Property: Surface tension liquid-gas, N/m (Liquid); method: Wilhelmy Plate
Temperature, K	Surface tension liquid-gas, N/m	uncertainty
323.12	0.02644	0.00013
328.25	0.02612	0.00013
333.1	0.02587	0.00013
338.32	0.02557	0.00013
342.9	0.02537	0.00013
348.09	0.02515	0.00013
353.32	0.02485	0.00013
358.44	0.02459	0.00012

System: 1-decyl-3-methylimidazolium chloride; phases: Liquid, Air at 1 atmosphere
Property: Surface tension liquid-gas, N/m (Liquid); method: Ring tensiometer
Temperature, K	Surface tension liquid-gas, N/m	uncertainty
317.84	0.02709	0.00068
323.14	0.02685	0.00067
328.26	0.02645	0.00067
333.13	0.02614	0.00067
338.37	0.02554	0.00067
342.95	0.0257	0.00067
348.13	0.02561	0.00067
353.33	0.02476	0.00066
358.57	0.0245	0.00066
