Measured thermophysical data. Liquid liquid equilibria in the ternary systems {hexadecane + BTX aromatics + 2-methoxyethanol or acetonitrile} at 298.15 K
Source: Fluid Phase Equilib., 2015, 10.1016/j.fluid.2015.01.002
Compound 1: hexadecane, C16H34, InChI=1S/C16H34/c1-3-5-7-9-11-13-15-16-14-12-10-8-6-4-2/h3-16H2,1-2H3, purity 99.7%
Compound 2: benzene, C6H6, InChI=1S/C6H6/c1-2-4-6-5-3-1/h1-6H, purity 99.6%
Compound 3: toluene, C7H8, InChI=1S/C7H8/c1-7-5-3-2-4-6-7/h2-6H,1H3, purity 99.6%
Compound 4: 1,4-dimethylbenzene, C8H10, InChI=1S/C8H10/c1-7-3-5-8(2)6-4-7/h3-6H,1-2H3, purity 99.7%
Compound 5: 2-methoxyethan-1-ol, C3H8O2, InChI=1S/C3H8O2/c1-5-3-2-4/h4H,2-3H2,1H3, purity 99.5%
Compound 6: acetonitrile, C2H3N, InChI=1S/C2H3N/c1-2-3/h1H3, purity 99.7%

System: hexadecane; phases: Liquid
Property: Mass density, kg/m3 (Liquid); method: Vibrating tube method
Temperature, K	Pressure, kPa	Mass density, kg/m3	uncertainty
298.15	101.325	770.3	0.16

System: hexadecane; phases: Liquid
Property: Refractive index (Na D-line) (Liquid); method: Standard Abbe refractometry
Temperature, K	Pressure, kPa	Refractive index (Na D-line)	uncertainty
298.15	101.325	1.43225	0.00104

System: benzene; phases: Liquid
Property: Mass density, kg/m3 (Liquid); method: Vibrating tube method
Temperature, K	Pressure, kPa	Mass density, kg/m3	uncertainty
298.15	101.325	873.73	0.14

System: benzene; phases: Liquid
Property: Refractive index (Na D-line) (Liquid); method: Standard Abbe refractometry
Temperature, K	Pressure, kPa	Refractive index (Na D-line)	uncertainty
298.15	101.325	1.49749	0.00104

System: toluene; phases: Liquid
Property: Mass density, kg/m3 (Liquid); method: Vibrating tube method
Temperature, K	Pressure, kPa	Mass density, kg/m3	uncertainty
298.15	101.325	862.34	0.14

System: toluene; phases: Liquid
Property: Refractive index (Na D-line) (Liquid); method: Standard Abbe refractometry
Temperature, K	Pressure, kPa	Refractive index (Na D-line)	uncertainty
298.15	101.325	1.49367	0.00104

System: 1,4-dimethylbenzene; phases: Liquid
Property: Mass density, kg/m3 (Liquid); method: Vibrating tube method
Temperature, K	Pressure, kPa	Mass density, kg/m3	uncertainty
298.15	101.325	856.78	0.14

System: 1,4-dimethylbenzene; phases: Liquid
Property: Refractive index (Na D-line) (Liquid); method: Standard Abbe refractometry
Temperature, K	Pressure, kPa	Refractive index (Na D-line)	uncertainty
298.15	101.325	1.49281	0.00104

System: 2-methoxyethan-1-ol; phases: Liquid
Property: Mass density, kg/m3 (Liquid); method: Vibrating tube method
Temperature, K	Pressure, kPa	Mass density, kg/m3	uncertainty
298.15	101.325	959.73	0.13

System: 2-methoxyethan-1-ol; phases: Liquid
Property: Refractive index (Na D-line) (Liquid); method: Standard Abbe refractometry
Temperature, K	Pressure, kPa	Refractive index (Na D-line)	uncertainty
298.15	101.325	1.39981	0.00033

System: acetonitrile; phases: Liquid
Property: Mass density, kg/m3 (Liquid); method: Vibrating tube method
Temperature, K	Pressure, kPa	Mass density, kg/m3	uncertainty
298.15	101.325	776.64	0.16

System: acetonitrile; phases: Liquid
Property: Refractive index (Na D-line) (Liquid); method: Standard Abbe refractometry
Temperature, K	Pressure, kPa	Refractive index (Na D-line)	uncertainty
298.15	101.325	1.34143	0.00032

System: benzene + 2-methoxyethan-1-ol + hexadecane; phases: Liquid mixture 2, Liquid mixture 1
Fixed: Temperature, K = 298.15
Fixed: Pressure, kPa = 101
Property: Mole fraction of hexadecane (Liquid mixture 2); method: Chromatography
Property: Mole fraction of benzene (Liquid mixture 1); method: Chromatography
Property: Mole fraction of hexadecane (Liquid mixture 1); method: Chromatography
Mole fraction of benzene	Mole fraction of hexadecane	uncertainty	Mole fraction of benzene	uncertainty	Mole fraction of hexadecane	uncertainty
0	0		0		1	
0.0367	0.0025	0.0002	0.0688	0.0006	0.905	
0.1053	0.0071	0.0002	0.1857	0.0014	0.745	
0.1607	0.0075	0.0002	0.2831	0.0022	0.605	
0.2518	0.013	0.0002	0.3857	0.003	0.4379	
0.2767	0.0161	0.0002	0.4145	0.0032	0.3799	
0.2936	0.0191	0.0003	0.426	0.0033	0.3655	
0.3107	0.0231	0.0003	0.4368	0.0034	0.3422	
0.3582	0.0273	0.0003	0.4587	0.0036	0.2964	
0.3956	0.0408	0.0004	0.475	0.0037	0.2506	

System: toluene + 2-methoxyethan-1-ol + hexadecane; phases: Liquid mixture 2, Liquid mixture 1
Fixed: Temperature, K = 298.15
Fixed: Pressure, kPa = 101
Property: Mole fraction of hexadecane (Liquid mixture 2); method: Chromatography
Property: Mole fraction of toluene (Liquid mixture 1); method: Chromatography
Property: Mole fraction of hexadecane (Liquid mixture 1); method: Chromatography
Mole fraction of toluene	Mole fraction of hexadecane	uncertainty	Mole fraction of toluene	uncertainty	Mole fraction of hexadecane	uncertainty
0	0		0		1	
0.033	0.0063	0.0002	0.0387	0.0004	0.9518	
0.0965	0.0078	0.0002	0.187	0.0015	0.8023	
0.1323	0.009	0.0002	0.2636	0.002	0.715	
0.1587	0.0131	0.0002	0.3485	0.0027	0.6116	
0.1981	0.0186	0.0002	0.4069	0.0032	0.5222	
0.2269	0.0217	0.0003	0.4418	0.0034	0.4784	
0.2457	0.0236	0.0003	0.4754	0.0037	0.4106	
0.3352	0.0619	0.0005	0.4972	0.0039	0.2407	

System: 1,4-dimethylbenzene + 2-methoxyethan-1-ol + hexadecane; phases: Liquid mixture 2, Liquid mixture 1
Fixed: Temperature, K = 298.15
Fixed: Pressure, kPa = 101
Property: Mole fraction of hexadecane (Liquid mixture 2); method: Chromatography
Property: Mole fraction of 1,4-dimethylbenzene (Liquid mixture 1); method: Chromatography
Property: Mole fraction of hexadecane (Liquid mixture 1); method: Chromatography
Mole fraction of 1,4-dimethylbenzene	Mole fraction of hexadecane	uncertainty	Mole fraction of 1,4-dimethylbenzene	uncertainty	Mole fraction of hexadecane	uncertainty
0	0		0		1	
0.0713	0.0063	0.0002	0.2203	0.0017	0.7531	
0.113	0.0126	0.0002	0.3353	0.0026	0.6225	
0.1458	0.0168	0.0002	0.4024	0.0031	0.5434	
0.1797	0.0193	0.0002	0.4485	0.0035	0.4856	
0.213	0.024	0.0003	0.4995	0.0039	0.4052	
0.3033	0.0375	0.0003	0.54	0.0036	0.294	
0.3513	0.0534	0.0004	0.542	0.0035	0.2205	

System: benzene + acetonitrile + hexadecane; phases: Liquid mixture 2, Liquid mixture 1
Fixed: Temperature, K = 298.15
Fixed: Pressure, kPa = 101
Property: Mole fraction of hexadecane (Liquid mixture 2); method: Chromatography
Property: Mole fraction of benzene (Liquid mixture 1); method: Chromatography
Property: Mole fraction of hexadecane (Liquid mixture 1); method: Chromatography
Mole fraction of benzene	Mole fraction of hexadecane	uncertainty	Mole fraction of benzene	uncertainty	Mole fraction of hexadecane	uncertainty
0	0		0		0.96	
0.0464	0		0.1385	0.0011	0.8183	
0.11	0		0.2483	0.0019	0.702	
0.1803	0.0021	0.0002	0.3436	0.0027	0.5845	
0.2071	0.0047	0.0002	0.3976	0.0031	0.5087	
0.2792	0.0039	0.0002	0.45	0.0035	0.443	
0.3232	0.0069	0.0002	0.4813	0.0037	0.3962	
0.3608	0.0126	0.0002	0.509	0.0038	0.3444	
0.4147	0.0203	0.0003	0.5271	0.0037	0.3034	
0.4296	0.0245	0.0003	0.5561	0.0034	0.248	
0.4463	0.0297	0.0003	0.5609	0.0034	0.2302	

System: acetonitrile + toluene + hexadecane; phases: Liquid mixture 2, Liquid mixture 1
Fixed: Temperature, K = 298.15
Fixed: Pressure, kPa = 101
Property: Mole fraction of hexadecane (Liquid mixture 2); method: Chromatography
Property: Mole fraction of toluene (Liquid mixture 1); method: Chromatography
Property: Mole fraction of hexadecane (Liquid mixture 1); method: Chromatography
Mole fraction of toluene	Mole fraction of hexadecane	uncertainty	Mole fraction of toluene	uncertainty	Mole fraction of hexadecane	uncertainty
0	0		0		0.96	
0.0314	0		0.0396	0.0004	0.9116	
0.0598	0		0.0942	0.0008	0.8463	
0.0922	0		0.1544	0.0012	0.7841	
0.1207	0		0.2548	0.002	0.6735	
0.168	0		0.3158	0.0025	0.5993	
0.2337	0.0054	0.0002	0.4012	0.0031	0.4852	
0.2695	0.0093	0.0002	0.445	0.0035	0.4273	
0.291	0.0116	0.0002	0.4951	0.0038	0.3528	
0.3389	0.0158	0.0002	0.521	0.0037	0.2973	
0.3941	0.0233	0.0003	0.5552	0.0034	0.2111	

System: acetonitrile + 1,4-dimethylbenzene + hexadecane; phases: Liquid mixture 2, Liquid mixture 1
Fixed: Temperature, K = 298.15
Fixed: Pressure, kPa = 101
Property: Mole fraction of hexadecane (Liquid mixture 2); method: Chromatography
Property: Mole fraction of 1,4-dimethylbenzene (Liquid mixture 1); method: Chromatography
Property: Mole fraction of hexadecane (Liquid mixture 1); method: Chromatography
Mole fraction of 1,4-dimethylbenzene	Mole fraction of hexadecane	uncertainty	Mole fraction of 1,4-dimethylbenzene	uncertainty	Mole fraction of hexadecane	uncertainty
0	0		0		0.96	
0.0984	0.0029	0.0002	0.159	0.0012	0.8013	
0.1115	0.0042	0.0002	0.2438	0.0019	0.7019	
0.1373	0.0051	0.0002	0.2931	0.0023	0.6415	
0.167	0.0069	0.0002	0.3698	0.0029	0.5497	
0.1796	0.007	0.0002	0.4594	0.0036	0.4202	
0.2586	0.0124	0.0002	0.5681	0.0033	0.2642	
0.3304	0.0218	0.0003	0.6002	0.0031	0.1942	

System: benzene + 2-methoxyethan-1-ol; phases: Liquid
Fixed: Pressure, kPa = 101
Fixed: Temperature, K = 298.15
Property: Mass density, kg/m3 (Liquid); method: Vibrating tube method
Mole fraction of benzene	Mass density, kg/m3	uncertainty
0.05	955.11	0.13
0.0998	950.35	0.13
0.2001	940.54	0.14
0.2998	930.95	0.14
0.4	921.55	0.14
0.4999	912.55	0.14
0.5999	903.8	0.14
0.7	895.3	0.14
0.8	887.18	0.14
0.8998	879.76	0.14
0.95	876.36	0.14

System: benzene + 2-methoxyethan-1-ol; phases: Liquid
Fixed: Pressure, kPa = 101
Fixed: Temperature, K = 298.15
Property: Refractive index (Na D-line) (Liquid); method: Standard Abbe refractometry
Mole fraction of benzene	Refractive index (Na D-line)	uncertainty
0.05	1.4054	0.0004
0.0998	1.4105	0.0004
0.2001	1.4193	0.0004
0.2998	1.4286	0.0004
0.4	1.4385	0.0004
0.4999	1.4486	0.0004
0.5999	1.4586	0.0004
0.7	1.4679	0.0004
0.8	1.477	0.0004
0.8998	1.4864	0.0004
0.95	1.4916	0.0004

System: toluene + 2-methoxyethan-1-ol; phases: Liquid
Fixed: Pressure, kPa = 101
Fixed: Temperature, K = 298.15
Property: Mass density, kg/m3 (Liquid); method: Vibrating tube method
Mole fraction of toluene	Mass density, kg/m3	uncertainty
0.05	953.61	0.13
0.0998	947.42	0.13
0.1999	935.21	0.14
0.3001	923.65	0.14
0.4	912.84	0.14
0.4999	902.65	0.15
0.6	893.14	0.14
0.7001	884.22	0.14
0.8	875.94	0.14
0.9	868.48	0.14
0.9498	865.12	0.14

System: toluene + 2-methoxyethan-1-ol; phases: Liquid
Fixed: Pressure, kPa = 101
Fixed: Temperature, K = 298.15
Property: Refractive index (Na D-line) (Liquid); method: Standard Abbe refractometry
Mole fraction of toluene	Refractive index (Na D-line)	uncertainty
0.05	1.4048	0.0004
0.0998	1.4113	0.0004
0.1999	1.4233	0.0004
0.3001	1.434	0.0004
0.4	1.4437	0.0004
0.4999	1.453	0.0004
0.6	1.4616	0.0004
0.7001	1.4701	0.0004
0.8	1.4782	0.0004
0.9	1.486	0.0004
0.9498	1.4899	0.0004

System: 1,4-dimethylbenzene + 2-methoxyethan-1-ol; phases: Liquid
Fixed: Pressure, kPa = 101
Fixed: Temperature, K = 298.15
Property: Mass density, kg/m3 (Liquid); method: Vibrating tube method
Mole fraction of 1,4-dimethylbenzene	Mass density, kg/m3	uncertainty
0.0499	952.02	0.13
0.0999	944.39	0.13
0.1999	930.07	0.14
0.3	917.28	0.14
0.3999	905.75	0.14
0.5001	895.38	0.14
0.6	885.92	0.14
0.6999	877.19	0.14
0.7999	869.23	0.14
0.8999	862.2	0.14
0.9499	859.28	0.14

System: 1,4-dimethylbenzene + 2-methoxyethan-1-ol; phases: Liquid
Fixed: Pressure, kPa = 101
Fixed: Temperature, K = 298.15
Property: Refractive index (Na D-line) (Liquid); method: Standard Abbe refractometry
Mole fraction of 1,4-dimethylbenzene	Refractive index (Na D-line)	uncertainty
0.0499	1.4069	0.0004
0.0999	1.4136	0.0004
0.1999	1.4253	0.0004
0.3	1.4367	0.0004
0.3999	1.4462	0.0004
0.5001	1.4557	0.0004
0.6	1.4641	0.0004
0.6999	1.4717	0.0004
0.7999	1.4793	0.0004
0.8999	1.4862	0.0004
0.9499	1.4895	0.0004

System: benzene + acetonitrile; phases: Liquid
Fixed: Pressure, kPa = 101
Fixed: Temperature, K = 298.15
Property: Mass density, kg/m3 (Liquid); method: Vibrating tube method
Mole fraction of benzene	Mass density, kg/m3	uncertainty
0.05	784.35	0.15
0.1	791.68	0.15
0.2	805.24	0.15
0.2998	817.45	0.15
0.4001	828.54	0.15
0.4999	838.46	0.15
0.6002	847.41	0.15
0.7004	855.36	0.14
0.7997	862.34	0.14
0.9002	868.48	0.14
0.9506	871.14	0.14

System: benzene + acetonitrile; phases: Liquid
Fixed: Pressure, kPa = 101
Fixed: Temperature, K = 298.15
Property: Refractive index (Na D-line) (Liquid); method: Standard Abbe refractometry
Mole fraction of benzene	Refractive index (Na D-line)	uncertainty
0.05	1.3523	0.0003
0.1	1.3638	0.0003
0.2	1.3823	0.0003
0.2998	1.402	0.0004
0.4001	1.4217	0.0004
0.4999	1.4378	0.0004
0.6002	1.4531	0.0004
0.7004	1.466	0.0004
0.7997	1.4789	0.0004
0.9002	1.4892	0.0004
0.9506	1.4929	0.0004

System: acetonitrile + toluene; phases: Liquid
Fixed: Pressure, kPa = 101
Fixed: Temperature, K = 298.15
Property: Mass density, kg/m3 (Liquid); method: Vibrating tube method
Mole fraction of toluene	Mass density, kg/m3	uncertainty
0.0499	784.94	0.15
0.1	792.57	0.15
0.2	806.07	0.15
0.3	817.61	0.15
0.4	827.52	0.15
0.4999	835.99	0.15
0.6	843.26	0.15
0.6999	849.43	0.14
0.8001	854.74	0.14
0.9	858.99	0.14
0.9498	860.78	0.14

System: acetonitrile + toluene; phases: Liquid
Fixed: Pressure, kPa = 101
Fixed: Temperature, K = 298.15
Property: Refractive index (Na D-line) (Liquid); method: Standard Abbe refractometry
Mole fraction of toluene	Refractive index (Na D-line)	uncertainty
0.0499	1.3557	0.0003
0.1	1.3686	0.0003
0.2	1.3917	0.0003
0.3	1.412	0.0004
0.4	1.4308	0.0004
0.4999	1.4457	0.0004
0.6	1.458	0.0004
0.6999	1.4683	0.0004
0.8001	1.4785	0.0004
0.9	1.487	0.0004
0.9498	1.4907	0.0004

System: acetonitrile + 1,4-dimethylbenzene; phases: Liquid
Fixed: Pressure, kPa = 101
Fixed: Temperature, K = 298.15
Property: Mass density, kg/m3 (Liquid); method: Vibrating tube method
Mole fraction of 1,4-dimethylbenzene	Mass density, kg/m3	uncertainty
0.05	785.5	0.15
0.1	793.4	0.15
0.2	806.77	0.15
0.3	817.69	0.15
0.4	826.78	0.15
0.5	834.35	0.15
0.6	840.73	0.14
0.7	846.09	0.14
0.8001	850.43	0.14
0.9001	854.1	0.14
0.9503	855.52	0.14

System: acetonitrile + 1,4-dimethylbenzene; phases: Liquid
Fixed: Pressure, kPa = 101
Fixed: Temperature, K = 298.15
Property: Refractive index (Na D-line) (Liquid); method: Standard Abbe refractometry
Mole fraction of 1,4-dimethylbenzene	Refractive index (Na D-line)	uncertainty
0.05	1.3575	0.0003
0.1	1.3717	0.0003
0.2	1.3975	0.0003
0.3	1.4181	0.0004
0.4	1.4353	0.0004
0.5	1.4498	0.0004
0.6	1.4642	0.0004
0.7	1.4757	0.0004
0.8001	1.4835	0.0004
0.9001	1.4889	0.0004
0.9503	1.4913	0.0004
