Measured thermophysical data. Solid-liquid equilibria of eicosane, tetracosane or biphenyl + 1- octadecanol, or + 1-eicosanol mixtures
Source: Fluid Phase Equilib., 2017, 10.1016/j.fluid.2017.03.012
Compound 1: eicosane, C20H42, InChI=1S/C20H42/c1-3-5-7-9-11-13-15-17-19-20-18-16-14-12-10-8-6-4-2/h3-20H2,1-2H3, purity 99%
Compound 2: tetracosane, C24H50, InChI=1S/C24H50/c1-3-5-7-9-11-13-15-17-19-21-23-24-22-20-18-16-14-12-10-8-6-4-2/h3-24H2,1-2H3, purity 99%
Compound 3: biphenyl, C12H10, InChI=1S/C12H10/c1-3-7-11(8-4-1)12-9-5-2-6-10-12/h1-10H, purity 99%
Compound 4: 1-octadecanol, C18H38O, InChI=1S/C18H38O/c1-2-3-4-5-6-7-8-9-10-11-12-13-14-15-16-17-18-19/h19H,2-18H2,1H3, purity 98%
Compound 5: 1-eicosanol, C20H42O, InChI=1S/C20H42O/c1-2-3-4-5-6-7-8-9-10-11-12-13-14-15-16-17-18-19-20-21/h21H,2-20H2,1H3, purity 98%

System: eicosane; phases: Crystal, Liquid, Air at 1 atmosphere
Property: Normal melting temperature, K (Crystal); method: DTA
Normal melting temperature, K	uncertainty
308.18	0.53

System: eicosane; phases: Crystal, Liquid, Air at 1 atmosphere
Property: Molar enthalpy of transition or fusion, kJ/mol (Crystal); method: DSC
Molar enthalpy of transition or fusion, kJ/mol	uncertainty
72.49	8.8

System: tetracosane; phases: Crystal 1, Liquid, Air at 1 atmosphere
Property: Normal melting temperature, K (Crystal 1); method: DTA
Normal melting temperature, K	uncertainty
321.21	0.53

System: tetracosane; phases: Crystal 2, Crystal 1, Air at 1 atmosphere
Property: Triple point temperature, K (Crystal 2); method: DSC
Triple point temperature, K	uncertainty
319.35	0.81

System: tetracosane; phases: Crystal 1, Liquid, Air at 1 atmosphere
Property: Molar enthalpy of transition or fusion, kJ/mol (Crystal 1); method: DSC
Molar enthalpy of transition or fusion, kJ/mol	uncertainty
60.98	7.41

System: tetracosane; phases: Crystal 2, Crystal 1, Air at 1 atmosphere
Property: Molar enthalpy of transition or fusion, kJ/mol (Crystal 2); method: DSC
Molar enthalpy of transition or fusion, kJ/mol	uncertainty
33.82	4.11

System: biphenyl; phases: Crystal, Liquid, Air at 1 atmosphere
Property: Normal melting temperature, K (Crystal); method: DTA
Normal melting temperature, K	uncertainty
341.1	0.53

System: biphenyl; phases: Crystal, Liquid, Air at 1 atmosphere
Property: Molar enthalpy of transition or fusion, kJ/mol (Crystal); method: DSC
Molar enthalpy of transition or fusion, kJ/mol	uncertainty
19.51	2.38

System: 1-octadecanol; phases: Crystal 1, Liquid, Air at 1 atmosphere
Property: Normal melting temperature, K (Crystal 1); method: DTA
Normal melting temperature, K	uncertainty
329.3	0.53

System: 1-octadecanol; phases: Crystal 2, Crystal 1, Air at 1 atmosphere
Property: Triple point temperature, K (Crystal 2); method: DSC
Triple point temperature, K	uncertainty
319.35	0.81

System: 1-octadecanol; phases: Crystal 1, Liquid, Air at 1 atmosphere
Property: Molar enthalpy of transition or fusion, kJ/mol (Crystal 1); method: DSC
Molar enthalpy of transition or fusion, kJ/mol	uncertainty
51.8	6.29

System: 1-octadecanol; phases: Crystal 2, Crystal 1, Air at 1 atmosphere
Property: Molar enthalpy of transition or fusion, kJ/mol (Crystal 2); method: DSC
Molar enthalpy of transition or fusion, kJ/mol	uncertainty
27.35	3.33

System: 1-eicosanol; phases: Crystal, Liquid, Air at 1 atmosphere
Property: Normal melting temperature, K (Crystal); method: DTA
Normal melting temperature, K	uncertainty
336.9	0.53

System: 1-eicosanol; phases: Crystal, Liquid, Air at 1 atmosphere
Property: Molar enthalpy of transition or fusion, kJ/mol (Crystal); method: DSC
Molar enthalpy of transition or fusion, kJ/mol	uncertainty
71.24	8.65

System: 1-octadecanol + eicosane; phases: Liquid, Crystal 2
Fixed: Pressure, kPa = 100
Property: Solid-liquid equilibrium temperature, K (Liquid); method: DTA
Mole fraction of eicosane	Solid-liquid equilibrium temperature, K	uncertainty
0.1021	328.4	0.4
0.1967	327.5	0.4
0.299	325.9	0.4
0.401	324.9	0.4
0.5016	322.8	0.4
0.6028	322	0.4
0.7036	320.5	0.4
0.8066	317.7	0.4
0.8978	314.2	0.4
0.9576	308.9	0.4

System: 1-octadecanol + tetracosane; phases: Liquid, Crystal 2
Fixed: Pressure, kPa = 100
Property: Solid-liquid equilibrium temperature, K (Liquid); method: DTA
Mole fraction of tetracosane	Solid-liquid equilibrium temperature, K	uncertainty
0.0992	328.6	0.4
0.2009	327.9	0.4
0.3107	326.4	0.4
0.3952	324.7	0.4
0.4411	323.1	0.4

System: 1-octadecanol + tetracosane; phases: Liquid, Crystal 1
Fixed: Pressure, kPa = 100
Property: Solid-liquid equilibrium temperature, K (Liquid); method: DTA
Mole fraction of tetracosane	Solid-liquid equilibrium temperature, K	uncertainty
0.5542	319.6	0.4
0.5995	320	0.4
0.6833	320.5	0.4
0.7902	320.7	0.4
0.8902	320.7	0.4

System: biphenyl + 1-octadecanol; phases: Liquid, Crystal 2
Fixed: Pressure, kPa = 100
Property: Solid-liquid equilibrium temperature, K (Liquid); method: DTA
Mole fraction of biphenyl	Solid-liquid equilibrium temperature, K	uncertainty
0.1054	328.6	0.4
0.3054	324.8	0.4
0.4049	322.5	0.4

System: biphenyl + 1-octadecanol; phases: Liquid, Crystal
Fixed: Pressure, kPa = 100
Property: Solid-liquid equilibrium temperature, K (Liquid); method: DTA
Mole fraction of biphenyl	Solid-liquid equilibrium temperature, K	uncertainty
0.5052	325	0.4
0.555	326.2	0.4
0.6048	329	0.4
0.705	332.7	0.4
0.8052	335.4	0.4
0.9047	337.6	0.4

System: eicosane + 1-eicosanol; phases: Liquid, Crystal
Fixed: Pressure, kPa = 100
Property: Solid-liquid equilibrium temperature, K (Liquid); method: DTA
Mole fraction of eicosane	Solid-liquid equilibrium temperature, K	uncertainty
0.1021	335.6	0.4
0.1981	333.2	0.4
0.288	330.8	0.4
0.401	329.3	0.4
0.4929	327.5	0.4
0.6027	325.2	0.4
0.7034	322.9	0.4
0.8056	320.4	0.4
0.8976	316.9	0.4
0.9341	313.2	0.4

System: 1-eicosanol + tetracosane; phases: Liquid, Crystal
Fixed: Pressure, kPa = 100
Property: Solid-liquid equilibrium temperature, K (Liquid); method: DTA
Mole fraction of tetracosane	Solid-liquid equilibrium temperature, K	uncertainty
0.0975	336.3	0.4
0.1906	334.5	0.4
0.2949	333.2	0.4
0.4046	331.5	0.4
0.5009	330.1	0.4
0.6009	328.2	0.4
0.7071	326.2	0.4
0.8033	324.3	0.4
0.8439	322.7	0.4

System: biphenyl + 1-eicosanol; phases: Liquid, Crystal
Fixed: Pressure, kPa = 100
Property: Solid-liquid equilibrium temperature, K (Liquid); method: DTA
Mole fraction of biphenyl	Solid-liquid equilibrium temperature, K	uncertainty
0.1055	335.8	0.4
0.305	333	0.4
0.4051	331.8	0.4
0.4553	331.3	0.4
0.5051	330.9	0.4
0.5552	329.9	0.4

System: biphenyl + 1-eicosanol; phases: Liquid, Crystal
Fixed: Pressure, kPa = 100
Property: Solid-liquid equilibrium temperature, K (Liquid); method: DTA
Mole fraction of biphenyl	Solid-liquid equilibrium temperature, K	uncertainty
0.6552	330.2	0.4
0.7051	331.8	0.4
0.8048	334.4	0.4
0.9049	336.9	0.4
