Measured thermophysical data. Measurement and correlation of the solubility of N-(phosphonomethyl)iminodiacetic acid in different organic solvents
Source: Fluid Phase Equilib., 2014, 10.1016/j.fluid.2014.08.036
Compound 1: N-(carboxymethyl)-N-(phosphonomethyl)glycine, C5H10NO7P, InChI=1S/C5H10NO7P/c7-4(8)1-6(2-5(9)10)3-14(11,12)13/h1-3H2,(H,7,8)(H,9,10)(H2,11,12,13), purity 98.5%
Compound 2: methanol, CH4O, InChI=1S/CH4O/c1-2/h2H,1H3, purity 99.8%
Compound 3: ethanol, C2H6O, InChI=1S/C2H6O/c1-2-3/h3H,2H2,1H3, purity 99.5%
Compound 4: propan-2-ol, C3H8O, InChI=1S/C3H8O/c1-3(2)4/h3-4H,1-2H3, purity 99.5%
Compound 5: butan-1-ol, C4H10O, InChI=1S/C4H10O/c1-2-3-4-5/h5H,2-4H2,1H3, purity 99.5%
Compound 6: pentan-1-ol, C5H12O, InChI=1S/C5H12O/c1-2-3-4-5-6/h6H,2-5H2,1H3, purity 99.5%
Compound 7: hexan-1-ol, C6H14O, InChI=1S/C6H14O/c1-2-3-4-5-6-7/h7H,2-6H2,1H3, purity 99.5%
Compound 8: ethyl acetate, C4H8O2, InChI=1S/C4H8O2/c1-3-6-4(2)5/h3H2,1-2H3, purity 99.5%
Compound 9: toluene, C7H8, InChI=1S/C7H8/c1-7-5-3-2-4-6-7/h2-6H,1H3, purity 99.5%
Compound 10: acetone, C3H6O, InChI=1S/C3H6O/c1-3(2)4/h1-2H3, purity 99.5%

System: methanol + N-(carboxymethyl)-N-(phosphonomethyl)glycine; phases: Liquid, Crystal
Fixed: Pressure, kPa = 100
Property: Mole fraction of N-(carboxymethyl)-N-(phosphonomethyl)glycine (Liquid); method: Gravimetric Method
Temperature, K	Mole fraction of N-(carboxymethyl)-N-(phosphonomethyl)glycine	uncertainty
298.15	2.72e-05	7e-07
303.15	6.27e-05	6e-07
308.15	8.57e-05	6e-07
313.15	0.0001182	9e-07
318.15	0.0001684	1.3e-06
323.15	0.000243	2.4e-06
328.15	0.0004065	3.6e-06
333.15	0.0005879	3.9e-06

System: ethanol + N-(carboxymethyl)-N-(phosphonomethyl)glycine; phases: Liquid, Crystal
Fixed: Pressure, kPa = 100
Property: Mole fraction of N-(carboxymethyl)-N-(phosphonomethyl)glycine (Liquid); method: Gravimetric Method
Temperature, K	Mole fraction of N-(carboxymethyl)-N-(phosphonomethyl)glycine	uncertainty
298.15	3.2e-05	9e-07
303.15	7.85e-05	7e-07
308.15	0.0001017	6e-07
313.15	0.0001387	1e-06
318.15	0.0001964	2.2e-06
323.15	0.0003586	3.7e-06
333.15	0.0007334	7.2e-06
343.15	0.0017649	1.11e-05

System: propan-2-ol + N-(carboxymethyl)-N-(phosphonomethyl)glycine; phases: Liquid, Crystal
Fixed: Pressure, kPa = 100
Property: Mole fraction of N-(carboxymethyl)-N-(phosphonomethyl)glycine (Liquid); method: Gravimetric Method
Temperature, K	Mole fraction of N-(carboxymethyl)-N-(phosphonomethyl)glycine	uncertainty
298.15	4.94e-05	7e-07
303.15	8.19e-05	8e-07
308.15	0.0001275	1.7e-06
313.15	0.0002481	2.2e-06
318.15	0.0003438	4.1e-06
323.15	0.0006481	5.7e-06
328.15	0.0008985	7e-06
333.15	0.0013148	1.38e-05
343.15	0.0028643	1.69e-05

System: butan-1-ol + N-(carboxymethyl)-N-(phosphonomethyl)glycine; phases: Liquid, Crystal
Fixed: Pressure, kPa = 100
Property: Mole fraction of N-(carboxymethyl)-N-(phosphonomethyl)glycine (Liquid); method: Gravimetric Method
Temperature, K	Mole fraction of N-(carboxymethyl)-N-(phosphonomethyl)glycine	uncertainty
293.15	0.0001126	8e-07
298.15	0.0001482	8e-07
303.15	0.0001858	1.1e-06
308.15	0.0002464	1.3e-06
313.15	0.0002994	1.6e-06
318.15	0.0003875	5.4e-06
323.15	0.000831	8.2e-06
333.15	0.0015865	1.35e-05
343.15	0.0034198	2e-05

System: pentan-1-ol + N-(carboxymethyl)-N-(phosphonomethyl)glycine; phases: Liquid, Crystal
Fixed: Pressure, kPa = 100
Property: Mole fraction of N-(carboxymethyl)-N-(phosphonomethyl)glycine (Liquid); method: Gravimetric Method
Temperature, K	Mole fraction of N-(carboxymethyl)-N-(phosphonomethyl)glycine	uncertainty
293.15	0.0001247	6e-07
298.15	0.0001488	7e-07
303.15	0.0001862	9e-07
308.15	0.0002297	2e-06
313.15	0.0003767	3.6e-06
318.15	0.0005829	6.9e-06
323.15	0.0010539	9.4e-06
333.15	0.0019467	1.5e-05
343.15	0.0039203	2.17e-05

System: hexan-1-ol + N-(carboxymethyl)-N-(phosphonomethyl)glycine; phases: Liquid, Crystal
Fixed: Pressure, kPa = 100
Property: Mole fraction of N-(carboxymethyl)-N-(phosphonomethyl)glycine (Liquid); method: Gravimetric Method
Temperature, K	Mole fraction of N-(carboxymethyl)-N-(phosphonomethyl)glycine	uncertainty
293.15	0.0009661	3e-06
298.15	0.0010667	3.1e-06
303.15	0.001156	4e-06
308.15	0.0013671	5.1e-06
313.15	0.0015507	7.1e-06
318.15	0.001974	9e-06
323.15	0.0023308	1.09e-05
333.15	0.0033692	1.54e-05
343.15	0.0049851	1.99e-05

System: ethyl acetate + N-(carboxymethyl)-N-(phosphonomethyl)glycine; phases: Liquid, Crystal
Fixed: Pressure, kPa = 100
Property: Mole fraction of N-(carboxymethyl)-N-(phosphonomethyl)glycine (Liquid); method: Gravimetric Method
Temperature, K	Mole fraction of N-(carboxymethyl)-N-(phosphonomethyl)glycine	uncertainty
293.15	0.0005284	2.3e-06
298.15	0.000627	3e-06
303.15	0.0007908	3.3e-06
308.15	0.0009056	6.3e-06
313.15	0.0013814	7e-06
318.15	0.0015287	5.2e-06
323.15	0.0017576	8.6e-06
333.15	0.0026277	1.36e-05
343.15	0.0041897	1.84e-05

System: toluene + N-(carboxymethyl)-N-(phosphonomethyl)glycine; phases: Liquid, Crystal
Fixed: Pressure, kPa = 100
Property: Mole fraction of N-(carboxymethyl)-N-(phosphonomethyl)glycine (Liquid); method: Gravimetric Method
Temperature, K	Mole fraction of N-(carboxymethyl)-N-(phosphonomethyl)glycine	uncertainty
293.15	0.0003504	1.1e-06
298.15	0.000386	1.2e-06
303.15	0.0004268	2.8e-06
308.15	0.0006454	4.4e-06
313.15	0.0008398	4e-06
318.15	0.0009913	7.7e-06
323.15	0.0015732	1.04e-05
333.15	0.0024752	1.3e-05
343.15	0.0039021	1.69e-05

System: acetone + N-(carboxymethyl)-N-(phosphonomethyl)glycine; phases: Liquid, Crystal
Fixed: Pressure, kPa = 100
Property: Mole fraction of N-(carboxymethyl)-N-(phosphonomethyl)glycine (Liquid); method: Gravimetric Method
Temperature, K	Mole fraction of N-(carboxymethyl)-N-(phosphonomethyl)glycine	uncertainty
293.15	0.0001763	1.1e-06
298.15	0.0002273	1.1e-06
303.15	0.0002729	1.4e-06
308.15	0.0003517	1.9e-06
313.15	0.0004445	2.2e-06
318.15	0.0005431	2.3e-06
