Measured thermophysical data. Effect of different variables in the solubility of ampicillin and corresponding solid phase
Source: Fluid Phase Equilib., 2018, 10.1016/j.fluid.2017.11.033
Compound 1: 6-[D-(2-amino-2-phenylacetyl)amino]-3,3-dimethyl-7-oxo-4-thia-1-azabicyclo[3.2.0]heptane-2-carboxylic acid, C16H19N3O4S, InChI=1S/C16H19N3O4S/c1-16(2)11(15(22)23)19-13(21)10(14(19)24-16)18-12(20)9(17)8-6-4-3-5-7-8/h3-7,9-11,14H,17H2,1-2H3,(H,18,20)(H,22,23), purity 90%
Compound 2: ethanol, C2H6O, InChI=1S/C2H6O/c1-2-3/h3H,2H2,1H3, purity 99.9%
Compound 3: water, H2O, InChI=1S/H2O/h1H2, purity 99.8%

System: 6-[D-(2-amino-2-phenylacetyl)amino]-3,3-dimethyl-7-oxo-4-thia-1-azabicyclo[3.2.0]heptane-2-carboxylic acid + ethanol + water; phases: Liquid, Crystal
Fixed: Pressure, kPa = 101.3
Property: Molality, mol/kg of 6-[D-(2-amino-2-phenylacetyl)amino]-3,3-dimethyl-7-oxo-4-thia-1-azabicyclo[3.2.0]heptane-2-carboxylic acid (Liquid); method: UV-Vis spectrophotometry
Temperature, K	Solvent: Mass fraction of ethanol	Molality, mol/kg of 6-[D-(2-amino-2-phenylacetyl)amino]-3,3-dimethyl-7-oxo-4-thia-1-azabicyclo[3.2.0]heptane-2-carboxylic acid	uncertainty
298.15	0	0.03416	0.00131
298.15	0	0.02434	0.0004
298.15	0	0.02165	0.00045
298.15	0	0.01927	0.00063
298.15	0	0.01736	0.0008
298.15	0	0.01619	0.00089
298.15	0	0.01675	0.00088
298.15	0	0.01906	0.00066
298.15	0	0.02642	0.00015
298.15	0	0.03947	0.00103
298.15	0.1	0.02832	0.00031
298.15	0.1	0.02654	0.00024
298.15	0.1	0.02526	0.00048
298.15	0.1	0.02452	0.00021
298.15	0.1	0.02424	0.00017
298.15	0.1	0.02387	0.00017
298.15	0.1	0.02302	0.00017
298.15	0.1	0.02306	0.00016
298.15	0.1	0.0228	0.00015
298.15	0.1	0.01901	0.00032
298.15	0.1	0.01659	0.00018
298.15	0.1	0.01512	0.00019
298.15	0.1	0.01481	0.00033
298.15	0.1	0.01443	0.00024
298.15	0.1	0.01475	0.00018
298.15	0.1	0.01752	0.00033
298.15	0.1	0.02059	0.00015
298.15	0.1	0.02585	0.00031
298.15	0.1	0.02972	0.00034
298.15	0.3	0.02978	0.00098
298.15	0.3	0.02545	0.00087
298.15	0.3	0.02073	0.00083
298.15	0.3	0.01767	0.00068
298.15	0.3	0.01704	0.00066
298.15	0.3	0.01781	0.00064
298.15	0.3	0.01848	0.00068
298.15	0.3	0.02087	0.00074
298.15	0.3	0.02968	0.00093
298.15	0.3	0.0476	0.00145
298.15	0.5	0.04968	0.0022
298.15	0.5	0.02648	0.00151
298.15	0.5	0.02071	0.00135
298.15	0.5	0.02039	0.00135
298.15	0.5	0.01779	0.00129
298.15	0.5	0.01769	0.0013
298.15	0.5	0.01798	0.0013
298.15	0.5	0.02375	0.00146
298.15	0.5	0.03117	0.00163
298.15	0.5	0.07639	0.00281
298.15	0.7	0.10833	0.00406
298.15	0.7	0.05526	0.00037
298.15	0.7	0.02341	0.00282
298.15	0.7	0.01378	0.0036
298.15	0.7	0.0109	0.00383
298.15	0.7	0.01135	0.00379
298.15	0.7	0.01457	0.00355
298.15	0.7	0.01727	0.00331
298.15	0.7	0.02046	0.00305
298.15	0.7	0.07504	0.00147
293.15	0	0.02717	0.00076
293.15	0	0.02264	0.00079
293.15	0	0.01609	0.0008
293.15	0	0.01596	0.00079
293.15	0	0.01667	0.00077
293.15	0	0.01581	0.00088
293.15	0	0.01615	0.00077
293.15	0	0.01438	0.00081
293.15	0	0.01432	0.00084
293.15	0	0.01427	0.00078
293.15	0	0.01412	0.0008
293.15	0	0.01514	0.00079
293.15	0	0.01692	0.00081
293.15	0	0.01932	0.00086
293.15	0	0.02007	0.00078
293.15	0	0.02358	0.00079
293.15	0	0.026	0.00092
293.15	0.1	0.0279	0.00077
293.15	0.1	0.02519	0.00072
293.15	0.1	0.0181	0.00061
293.15	0.1	0.01495	0.00058
293.15	0.1	0.01397	0.00064
293.15	0.1	0.01389	0.0006
293.15	0.1	0.01376	0.00069
293.15	0.1	0.01183	0.00058
293.15	0.1	0.01145	0.00061
293.15	0.1	0.01199	0.00066
293.15	0.1	0.01229	0.00059
293.15	0.1	0.01229	0.00059
293.15	0.1	0.01309	0.00059
293.15	0.1	0.01397	0.00064
293.15	0.1	0.01564	0.00062
293.15	0.1	0.01572	0.00069
293.15	0.1	0.02264	0.00069
293.15	0.3	0.02442	0.00049
293.15	0.3	0.01966	0.00018
293.15	0.3	0.01635	0.0004
293.15	0.3	0.01577	0.0002
293.15	0.3	0.0163	0.00042
293.15	0.3	0.01724	0.00033
293.15	0.3	0.02149	0.00055
293.15	0.3	0.02359	0.00021
293.15	0.3	0.02614	0.00032
293.15	0.5	0.03693	0.00134
293.15	0.5	0.02275	0.00131
293.15	0.5	0.01703	0.0013
293.15	0.5	0.01573	0.00129
293.15	0.5	0.01575	0.0013
293.15	0.5	0.01598	0.00133
293.15	0.5	0.0176	0.00134
293.15	0.5	0.02242	0.00134
293.15	0.5	0.03492	0.00132
293.15	0.7	0.05841	0.00336
293.15	0.7	0.02847	0.00337
293.15	0.7	0.01622	0.00334
293.15	0.7	0.01322	0.00335
293.15	0.7	0.00999	0.00335
293.15	0.7	0.0099	0.00335
293.15	0.7	0.0104	0.00335
293.15	0.7	0.01339	0.00335
293.15	0.7	0.01866	0.00336
288.15	0	0.01525	0.00056
288.15	0	0.01245	0.00047
288.15	0	0.01251	0.00042
288.15	0	0.01208	0.00049
288.15	0	0.01188	0.00055
288.15	0	0.0122	0.00046
288.15	0	0.01241	0.00053
288.15	0	0.01265	0.00065
288.15	0	0.01473	0.00044
288.15	0	0.02866	0.00088
288.15	0.1	0.01418	0.00066
288.15	0.1	0.01169	0.00068
288.15	0.1	0.01106	0.0006
288.15	0.1	0.01083	0.00064
288.15	0.1	0.01063	0.00056
288.15	0.1	0.00997	0.00077
288.15	0.1	0.00968	0.00059
288.15	0.1	0.00949	0.00083
288.15	0.1	0.00965	0.00073
288.15	0.1	0.00967	0.00062
288.15	0.1	0.00978	0.00063
288.15	0.1	0.00999	0.00059
288.15	0.1	0.00994	0.00057
288.15	0.1	0.01099	0.00056
288.15	0.1	0.01124	0.00055
288.15	0.1	0.01169	0.00061
288.15	0.1	0.01283	0.00057
288.15	0.1	0.01414	0.0006
288.15	0.1	0.01412	0.00057
288.15	0.3	0.0257	0.00079
288.15	0.3	0.01827	0.00037
288.15	0.3	0.01719	0.00039
288.15	0.3	0.01481	0.00047
288.15	0.3	0.01398	0.00047
288.15	0.3	0.01359	0.00034
288.15	0.3	0.01373	0.00047
288.15	0.3	0.01353	0.00058
288.15	0.3	0.01373	0.00036
288.15	0.3	0.01346	0.00042
288.15	0.3	0.01123	0.00044
288.15	0.3	0.00984	0.00035
288.15	0.3	0.00962	0.00053
288.15	0.3	0.01088	0.00047
288.15	0.3	0.01091	0.00055
288.15	0.3	0.01206	0.00034
288.15	0.3	0.0121	0.00044
288.15	0.3	0.01344	0.00075
288.15	0.5	0.0177	0.00022
288.15	0.5	0.03028	0.00022
288.15	0.5	0.02507	0.00021
288.15	0.5	0.0174	0.00035
288.15	0.5	0.01533	0.00033
288.15	0.5	0.01462	0.00036
288.15	0.5	0.01442	0.00022
288.15	0.5	0.0145	0.00021
288.15	0.5	0.01481	0.00036
288.15	0.5	0.01706	0.00028
288.15	0.7	0.0248	0.00034
288.15	0.7	0.04239	0.00054
288.15	0.7	0.0263	0.00049
288.15	0.7	0.0156	0.00047
288.15	0.7	0.01048	0.00047
288.15	0.7	0.00995	0.00032
288.15	0.7	0.01053	0.00049
288.15	0.7	0.01228	0.00031
288.15	0.7	0.01624	0.00035
283.15	0	0.01694	0.00028
283.15	0	0.01426	0.00031
283.15	0	0.01214	0.00033
283.15	0	0.01192	0.0006
283.15	0	0.01142	0.00049
283.15	0	0.01165	0.0004
283.15	0	0.01169	0.00043
283.15	0	0.01147	0.00044
283.15	0	0.01197	0.0003
283.15	0	0.01212	0.00035
283.15	0	0.01298	0.0003
283.15	0	0.01491	0.00011
283.15	0	0.01709	0.00041
283.15	0.1	0.01431	0.00026
283.15	0.1	0.01197	0.00037
283.15	0.1	0.01179	0.00035
283.15	0.1	0.0099	0.00034
283.15	0.1	0.00956	3e-05
283.15	0.1	0.0094	0.00042
283.15	0.1	0.00886	0.0004
283.15	0.1	0.00869	0.00016
283.15	0.1	0.00869	0.0004
283.15	0.1	0.00863	0.00054
283.15	0.1	0.00869	0.00038
283.15	0.1	0.00941	0.00022
283.15	0.1	0.0117	0.00021
283.15	0.1	0.01449	0.00041
283.15	0.3	0.0163	0.00048
283.15	0.3	0.01524	0.00042
283.15	0.3	0.01292	0.00052
283.15	0.3	0.01284	0.00075
283.15	0.3	0.01256	0.00057
283.15	0.3	0.01178	0.00057
283.15	0.3	0.01172	0.00053
283.15	0.3	0.01138	0.00051
283.15	0.3	0.01123	0.00063
283.15	0.3	0.01085	0.00065
283.15	0.3	0.0076	0.00064
283.15	0.3	0.00752	0.00065
283.15	0.3	0.00759	0.00062
283.15	0.3	0.00707	0.00064
283.15	0.3	0.00696	0.00069
283.15	0.3	0.0086	0.00062
283.15	0.3	0.01006	0.00054
283.15	0.5	0.0327	0.00143
283.15	0.5	0.02028	0.00104
283.15	0.5	0.01609	0.00092
283.15	0.5	0.01365	0.00091
283.15	0.5	0.01346	0.00086
283.15	0.5	0.01337	0.00087
283.15	0.5	0.01383	0.00089
283.15	0.5	0.0164	0.00097
283.15	0.5	0.02292	0.00111
283.15	0.7	0.05439	0.00242
283.15	0.7	0.02568	0.00034
283.15	0.7	0.01643	0.0007
283.15	0.7	0.0124	0.00101
283.15	0.7	0.01069	0.00118
283.15	0.7	0.00974	0.00123
283.15	0.7	0.0097	0.00129
283.15	0.7	0.01105	0.00114
283.15	0.7	0.01401	0.00092

System: 6-[D-(2-amino-2-phenylacetyl)amino]-3,3-dimethyl-7-oxo-4-thia-1-azabicyclo[3.2.0]heptane-2-carboxylic acid + water; phases: Liquid, Crystal
Fixed: Pressure, kPa = 101.3
Property: Molality, mol/kg of 6-[D-(2-amino-2-phenylacetyl)amino]-3,3-dimethyl-7-oxo-4-thia-1-azabicyclo[3.2.0]heptane-2-carboxylic acid (Liquid); method: UV-Vis spectrophotometry
Temperature, K	Molality, mol/kg of 6-[D-(2-amino-2-phenylacetyl)amino]-3,3-dimethyl-7-oxo-4-thia-1-azabicyclo[3.2.0]heptane-2-carboxylic acid	uncertainty
298.15	0.03416	0.00131
298.15	0.02434	0.0004
298.15	0.02165	0.00045
298.15	0.01927	0.00063
298.15	0.01736	0.0008
298.15	0.01619	0.00089
298.15	0.01675	0.00088
298.15	0.01906	0.00066
298.15	0.02642	0.00015
298.15	0.03947	0.00103
293.15	0.02717	0.00076
293.15	0.02264	0.00079
293.15	0.01609	0.0008
293.15	0.01596	0.00079
293.15	0.01667	0.00077
293.15	0.01581	0.00088
293.15	0.01615	0.00077
293.15	0.01438	0.00081
293.15	0.01432	0.00084
293.15	0.01427	0.00078
293.15	0.01412	0.0008
293.15	0.01514	0.00079
293.15	0.01692	0.00081
293.15	0.01932	0.00086
293.15	0.02007	0.00078
293.15	0.02358	0.00079
293.15	0.026	0.00092
288.15	0.01525	0.00056
288.15	0.01245	0.00047
288.15	0.01251	0.00042
288.15	0.01208	0.00049
288.15	0.01188	0.00055
288.15	0.0122	0.00046
288.15	0.01241	0.00053
288.15	0.01265	0.00065
288.15	0.01473	0.00044
288.15	0.02866	0.00088
283.15	0.01694	0.00028
283.15	0.01426	0.00031
283.15	0.01214	0.00033
283.15	0.01192	0.0006
283.15	0.01142	0.00049
283.15	0.01165	0.0004
283.15	0.01169	0.00043
283.15	0.01147	0.00044
283.15	0.01197	0.0003
283.15	0.01212	0.00035
283.15	0.01298	0.0003
283.15	0.01491	0.00011
283.15	0.01709	0.00041
