Measured thermophysical data. Solubility measurement of an antihistamine drug (Loratadine) in supercritical carbon dioxide: Assessment of qCPA and PCP-SAFT equations of state
Source: Fluid Phase Equilib., 2018, 10.1016/j.fluid.2018.05.018
Compound 1: carbon dioxide, CO2, InChI=1S/CO2/c2-1-3
Compound 2: claritine, C22H23ClN2O2, InChI=1S/C22H23ClN2O2/c1-2-27-22(26)25-12-9-15(10-13-25)20-19-8-7-18(23)14-17(19)6-5-16-4-3-11-24-21(16)20/h3-4,7-8,11,14H,2,5-6,9-10,12-13H2,1H3

System: claritine; phases: Crystal, Liquid, Air at 1 atmosphere
Property: Normal melting temperature, K (Crystal); method: VISOBS
Normal melting temperature, K	uncertainty
407	4

System: claritine + carbon dioxide; phases: Fluid (supercritical or subcritical phases), Crystal
Property: Mole fraction of claritine (Fluid (supercritical or subcritical phases)); method: UV-Vis Spectrophotometry
Temperature, K	Pressure, kPa	Mole fraction of claritine	uncertainty
308.15	12000	8.25e-05	9.5e-06
308.15	15000	0.000153	1.6e-05
308.15	18000	0.000252	2.6e-05
308.15	21000	0.000332	3.5e-05
308.15	24000	0.000619	6.3e-05
308.15	27000	0.000727	7.3e-05
318.15	12000	4.1e-05	6e-06
318.15	15000	0.000122	1.4e-05
318.15	18000	0.000228	2.6e-05
318.15	21000	0.000477	5.1e-05
318.15	24000	0.000762	7.8e-05
318.15	27000	0.00099	0.0001
328.15	12000	2.1e-05	6e-06
328.15	15000	0.000106	1.2e-05
328.15	18000	0.000175	2.2e-05
328.15	21000	0.00051	5.6e-05
328.15	24000	0.000834	8.5e-05
328.15	27000	0.001057	0.000107
338.15	12000	4.5e-06	4.2e-06
338.15	15000	6.7e-05	9e-06
338.15	18000	0.000165	2.2e-05
338.15	21000	0.000513	5.7e-05
338.15	24000	0.000918	9.6e-05
338.15	27000	0.0013016	0.0001328
