Measured thermophysical data. Interfacial tensions of (H2O + H2) and (H2O + CO2 + H2) systems at temperatures of (298-448) K and pressures up to 45 MPa
Source: Fluid Phase Equilib., 2018, 10.1016/j.fluid.2018.07.022
Compound 1: water, H2O, InChI=1S/H2O/h1H2, purity 99.9%
Compound 2: hydrogen, H2, InChI=1S/H2/h1H, purity 99.99%
Compound 3: carbon dioxide, CO2, InChI=1S/CO2/c2-1-3, purity 99.99%

System: water + hydrogen; phases: Liquid, Gas
Property: Interfacial tension, N/m (Liquid); method: Pendant drop shape
Pressure, kPa	Temperature, K	Interfacial tension, N/m	uncertainty
500	298.03	0.0723	0.0012
1000	298.03	0.0729	0.0012
2000	298.04	0.073	0.0012
3500	298.05	0.0728	0.0012
5000	298.04	0.0726	0.0012
7500	298.04	0.0722	0.0012
10100	298.04	0.0719	0.0012
15000	298.06	0.0713	0.0012
20100	298.06	0.0708	0.0012
25000	298.04	0.0703	0.0012
30100	298.06	0.0698	0.0012
39900	298.09	0.0691	0.0012
45200	298.05	0.0687	0.0012
500	323.02	0.0689	0.0012
1000	322.9	0.0693	0.0012
2000	322.98	0.0693	0.0012
3500	323	0.0691	0.0012
5000	322.99	0.0689	0.0012
10000	323	0.0683	0.0012
15000	323	0.0678	0.0012
20000	323.01	0.0672	0.0011
25000	323.01	0.0668	0.0011
30100	323.02	0.0665	0.0011
40100	323	0.0658	0.0011
500	372.74	0.0598	0.001
1000	372.77	0.0597	0.001
2000	372.78	0.0597	0.001
5000	372.87	0.0595	0.001
10000	372.81	0.0593	0.001
15000	372.73	0.059	0.001
20100	372.85	0.0587	0.001
25200	372.77	0.0585	0.001
29800	372.77	0.0581	0.001
40100	372.78	0.0576	0.001
1500	448.04	0.044	0.0008
2000	448.02	0.0441	0.0008
5000	448.24	0.0438	0.0007
10000	448.29	0.0437	0.0007
15000	448.28	0.0434	0.0007
20000	448.33	0.0433	0.0007
25000	448.31	0.0432	0.0007
30100	448.31	0.0429	0.0007
40100	448.35	0.0432	0.0007

System: carbon dioxide + water + hydrogen; phases: Liquid, Gas
Property: Interfacial tension, N/m (Liquid); method: Pendant drop shape
Mole fraction of carbon dioxide	Pressure, kPa	Temperature, K	Interfacial tension, N/m	uncertainty
0.0009	500	298.03	0.072	0.0014
0.0017	1000	298.04	0.0717	0.0012
0.0033	2000	298.03	0.0697	0.0012
0.0072	5000	298.07	0.0645	0.0011
0.0118	10000	298.05	0.0575	0.001
0.0148	15000	298.07	0.0528	0.0009
0.0167	20000	298.05	0.0495	0.0008
0.018	25000	298.05	0.0469	0.0008
0.0188	30100	298.04	0.0453	0.0008
0.0199	40000	298.06	0.0436	0.0007
0.001	1000	322.96	0.0674	0.0011
0.002	2000	322.86	0.0668	0.0011
0.0044	5000	322.97	0.063	0.0011
0.0075	10000	322.96	0.0578	0.001
0.0097	15000	322.96	0.0539	0.0009
0.0113	20000	322.96	0.0509	0.0009
0.0134	29900	322.97	0.0466	0.0008
0.0146	39800	322.96	0.0445	0.0008
0.0151	45100	322.98	0.0438	0.0007
0.0005	1000	373.41	0.0589	0.001
0.001	2000	373.43	0.0582	0.001
0.0024	5000	373.41	0.0564	0.001
0.0044	10000	373.44	0.0532	0.0009
0.0059	15000	373.44	0.0503	0.0009
0.0072	20000	373.32	0.0483	0.0008
0.0092	30000	373.32	0.045	0.0008
0.0106	40100	373.33	0.0431	0.0007
0.0005	2000	448.25	0.0434	0.0013
0.0017	5000	448.21	0.0428	0.0007
0.0034	10000	448.29	0.041	0.0007
0.0049	15000	448.47	0.0393	0.0007
0.0062	20000	448.58	0.0379	0.0006
0.0074	25100	448.67	0.0368	0.0006
0.0084	30000	448.78	0.0359	0.0006
0.0102	40100	448.79	0.034	0.0006
0.0109	44700	448.87	0.0333	0.0006

System: carbon dioxide + water + hydrogen; phases: Liquid, Gas
Property: Interfacial tension, N/m (Liquid); method: Pendant drop shape
Mole fraction of water	Pressure, kPa	Temperature, K	Interfacial tension, N/m	uncertainty
0.9991	500	298.03	0.072	0.0015
0.9982	1000	298.04	0.0717	0.0012
0.9965	2000	298.03	0.0697	0.0012
0.9923	5000	298.07	0.0645	0.0011
0.9872	10000	298.05	0.0575	0.001
0.9838	15000	298.07	0.0528	0.0009
0.9814	20000	298.05	0.0495	0.0008
0.9797	25000	298.05	0.0469	0.0008
0.9784	30100	298.04	0.0453	0.0008
0.9767	40000	298.06	0.0436	0.0007
0.9989	1000	322.96	0.0674	0.0011
0.9979	2000	322.86	0.0668	0.0011
0.9952	5000	322.97	0.063	0.0011
0.9916	10000	322.96	0.0578	0.001
0.989	15000	322.96	0.0539	0.0009
0.987	20000	322.96	0.0509	0.0009
0.9841	29900	322.97	0.0466	0.0008
0.9822	39800	322.96	0.0445	0.0008
0.9813	45100	322.98	0.0438	0.0007
0.9994	1000	373.41	0.0589	0.0011
0.9988	2000	373.43	0.0582	0.001
0.9971	5000	373.41	0.0564	0.001
0.9947	10000	373.44	0.0532	0.0009
0.9927	15000	373.44	0.0503	0.0009
0.9909	20000	373.32	0.0483	0.0027
0.9881	30000	373.32	0.045	0.0008
0.9859	40100	373.33	0.0431	0.0007
0.9993	2000	448.25	0.0434	0.0013
0.9977	5000	448.21	0.0428	0.0011
0.9952	10000	448.29	0.041	0.0007
0.9929	15000	448.47	0.0393	0.0007
0.9908	20000	448.58	0.0379	0.0006
0.9889	25100	448.67	0.0368	0.0006
0.9872	30000	448.78	0.0359	0.0007
0.9841	40100	448.79	0.034	0.0006
0.9828	44700	448.87	0.0333	0.0006

System: carbon dioxide + water + hydrogen; phases: Liquid, Gas
Property: Interfacial tension, N/m (Liquid); method: Pendant drop shape
Mole fraction of carbon dioxide	Pressure, kPa	Temperature, K	Interfacial tension, N/m	uncertainty
0.2979	500	298.03	0.072	0.0012
0.2988	1000	298.04	0.0717	0.0012
0.2991	2000	298.03	0.0697	0.0012
0.299	5000	298.07	0.0645	0.0011
0.2985	10000	298.05	0.0575	0.001
0.2982	15000	298.07	0.0528	0.0009
0.298	20000	298.05	0.0495	0.0008
0.2979	25000	298.05	0.0469	0.0008
0.2978	30100	298.04	0.0453	0.0008
0.2976	40000	298.06	0.0436	0.0007
0.296	1000	322.96	0.0674	0.0011
0.2977	2000	322.86	0.0668	0.0011
0.2985	5000	322.97	0.063	0.0011
0.2985	10000	322.96	0.0578	0.001
0.2984	15000	322.96	0.0539	0.0009
0.2982	20000	322.96	0.0509	0.0009
0.298	29900	322.97	0.0466	0.0008
0.2978	39800	322.96	0.0445	0.0008
0.2978	45100	322.98	0.0438	0.0007
0.2681	1000	373.41	0.0589	0.001
0.2835	2000	373.43	0.0582	0.001
0.2923	5000	373.41	0.0564	0.001
0.2951	10000	373.44	0.0532	0.0009
0.2959	15000	373.44	0.0503	0.0009
0.2962	20000	373.32	0.0483	0.0008
0.2964	30000	373.32	0.045	0.0008
0.2964	40100	373.33	0.0431	0.0007
0.1645	2000	448.25	0.0434	0.0008
0.2413	5000	448.21	0.0428	0.0007
0.2676	10000	448.29	0.041	0.0007
0.2762	15000	448.47	0.0393	0.0007
0.2805	20000	448.58	0.0379	0.0006
0.283	25100	448.67	0.0368	0.0006
0.2847	30000	448.78	0.0359	0.0006
0.2868	40100	448.79	0.034	0.0006
0.2875	44700	448.87	0.0333	0.0006

System: carbon dioxide + water + hydrogen; phases: Liquid, Gas
Property: Interfacial tension, N/m (Liquid); method: Pendant drop shape
Mole fraction of water	Pressure, kPa	Temperature, K	Interfacial tension, N/m	uncertainty
0.0066	500	298.03	0.072	0.0012
0.0034	1000	298.04	0.0717	0.0012
0.0019	2000	298.03	0.0697	0.0012
0.001	5000	298.07	0.0645	0.0011
0.0007	10000	298.05	0.0575	0.001
0.0007	15000	298.07	0.0528	0.0009
0.0008	20000	298.05	0.0495	0.0008
0.0009	25000	298.05	0.0469	0.0008
0.001	30100	298.04	0.0453	0.0008
0.0011	40000	298.06	0.0436	0.0008
0.013	1000	322.96	0.0674	0.0012
0.0069	2000	322.86	0.0668	0.0011
0.0034	5000	322.97	0.063	0.0011
0.0024	10000	322.96	0.0578	0.001
0.0021	15000	322.96	0.0539	0.0009
0.0021	20000	322.96	0.0509	0.0009
0.0022	29900	322.97	0.0466	0.0008
0.0024	39800	322.96	0.0445	0.0008
0.0025	45100	322.98	0.0438	0.0007
0.1062	1000	373.41	0.0589	0.001
0.0549	2000	373.43	0.0582	0.001
0.0249	5000	373.41	0.0564	0.001
0.0151	10000	373.44	0.0532	0.0009
0.012	15000	373.44	0.0503	0.0009
0.0105	20000	373.32	0.0483	0.0008
0.0094	30000	373.32	0.045	0.0008
0.0089	40100	373.33	0.0431	0.0007
0.4515	2000	448.25	0.0434	0.0008
0.1954	5000	448.21	0.0428	0.0007
0.108	10000	448.29	0.041	0.0007
0.0789	15000	448.47	0.0393	0.0007
0.0642	20000	448.58	0.0379	0.0006
0.0553	25100	448.67	0.0368	0.0006
0.0496	30000	448.78	0.0359	0.0006
0.0419	40100	448.79	0.034	0.0006
0.0396	44700	448.87	0.0333	0.0006
