Measured thermophysical data. Thermodynamic analysis for solid liquid equilibrium of mercaptosuccinic acid in a binary solvent of methanol and ethyl acetate at temperatures between (278.15 and 333.15) K
Source: Fluid Phase Equilib., 2015, 10.1016/j.fluid.2015.02.008
Compound 1: butanedioic acid, mercapto-, C4H6O4S, InChI=1S/C4H6O4S/c5-3(6)1-2(9)4(7)8/h2,9H,1H2,(H,5,6)(H,7,8), purity 98%
Compound 2: methanol, CH4O, InChI=1S/CH4O/c1-2/h2H,1H3, purity 99.7%
Compound 3: ethyl acetate, C4H8O2, InChI=1S/C4H8O2/c1-3-6-4(2)5/h3H2,1-2H3, purity 99.7%

System: methanol + butanedioic acid, mercapto- + ethyl acetate; phases: Liquid, Crystal
Fixed: Pressure, kPa = 100
Property: Mole fraction of butanedioic acid, mercapto- (Liquid); method: Phase equilibration
Temperature, K	Solvent: Mole fraction of methanol	Mole fraction of butanedioic acid, mercapto-	uncertainty
278.15	0	0.0452	0.02
278.15	0.299	0.054	0.02
278.15	0.508	0.0657	0.02
278.15	0.664	0.0801	0.02
278.15	0.784	0.0904	0.02
278.15	0.879	0.0987	0.02
278.15	0.956	0.1076	0.02
278.15	1	0.1182	0.02
283.15	0	0.0479	0.02
283.15	0.299	0.0581	0.02
283.15	0.508	0.0731	0.02
283.15	0.664	0.0884	0.02
283.15	0.784	0.1005	0.02
283.15	0.879	0.1119	0.02
283.15	0.956	0.1252	0.02
283.15	1	0.1356	0.02
288.15	0	0.0511	0.02
288.15	0.299	0.0636	0.02
288.15	0.508	0.0809	0.02
288.15	0.664	0.1005	0.02
288.15	0.784	0.113	0.02
288.15	0.879	0.1263	0.02
288.15	0.956	0.1425	0.02
288.15	1	0.1573	0.02
293.15	0	0.0549	0.02
293.15	0.299	0.0699	0.02
293.15	0.508	0.0901	0.02
293.15	0.664	0.1127	0.02
293.15	0.784	0.1275	0.02
293.15	0.879	0.1425	0.02
293.15	0.956	0.1617	0.02
293.15	1	0.1788	0.02
298.15	0	0.0598	0.02
298.15	0.299	0.0767	0.02
298.15	0.508	0.0985	0.02
298.15	0.664	0.1243	0.02
298.15	0.784	0.1414	0.02
298.15	0.879	0.1615	0.02
298.15	0.956	0.1807	0.02
298.15	1	0.2043	0.02
303.15	0	0.0634	0.02
303.15	0.299	0.0835	0.02
303.15	0.508	0.1098	0.02
303.15	0.664	0.1387	0.02
303.15	0.784	0.1584	0.02
303.15	0.879	0.1806	0.02
303.15	0.956	0.2046	0.02
303.15	1	0.2286	0.02
308.15	0	0.0673	0.02
308.15	0.299	0.0919	0.02
308.15	0.508	0.1215	0.02
308.15	0.664	0.1524	0.02
308.15	0.784	0.175	0.02
308.15	0.879	0.2041	0.02
308.15	0.956	0.23	0.02
308.15	1	0.2556	0.02
313.15	0	0.0736	0.02
313.15	0.299	0.1009	0.02
313.15	0.508	0.1369	0.02
313.15	0.664	0.1684	0.02
313.15	0.784	0.1937	0.02
313.15	0.879	0.2283	0.02
313.15	0.956	0.256	0.02
313.15	1	0.2857	0.02
318.15	0	0.0782	0.02
318.15	0.299	0.111	0.02
318.15	0.508	0.1531	0.02
318.15	0.664	0.1867	0.02
318.15	0.784	0.2165	0.02
318.15	0.879	0.2519	0.02
318.15	0.956	0.283	0.02
318.15	1	0.3154	0.02
323.15	0	0.0845	0.02
323.15	0.299	0.124	0.02
323.15	0.508	0.1736	0.02
323.15	0.664	0.2093	0.02
323.15	0.784	0.2407	0.02
323.15	0.879	0.2784	0.02
323.15	0.956	0.3113	0.02
323.15	1	0.3448	0.0201
328.15	0	0.0917	0.02
328.15	0.299	0.1369	0.02
328.15	0.508	0.197	0.02
328.15	0.664	0.2369	0.02
328.15	0.784	0.2667	0.02
328.15	0.879	0.3053	0.02
328.15	0.956	0.342	0.0201
328.15	1	0.3795	0.0201
333.15	0	0.0994	0.02
333.15	0.299	0.1524	0.02
333.15	0.508	0.2226	0.02
333.15	0.664	0.2651	0.02
333.15	0.784	0.301	0.0201
333.15	0.879	0.3372	0.0201
333.15	0.956	0.3775	0.0201
333.15	1	0.4133	0.0201
