Measured thermophysical data. Thermodynamic investigation of RbF + Rb2SO4 + H2O and CsF + Cs2SO4 + H2O ternary systems by potentiometric method at 298.2 K
Source: Fluid Phase Equilib., 2017, 10.1016/j.fluid.2016.11.006
Compound 1: rubidium fluoride (RbF), FRb, InChI=1S/FH.Rb/h1H;/q;+1/p-1, purity 99%
Compound 2: rubidium sulfate, O4Rb2S, InChI=1S/H2O4S.2Rb/c1-5(2,3)4;;/h(H2,1,2,3,4);;/q;2*+1/p-2, purity 99%
Compound 3: cesium fluoride (CsF), CsF, InChI=1S/Cs.FH/h;1H/q+1;/p-1, purity 99%
Compound 4: cesium sulfate, Cs2O4S, InChI=1S/2Cs.H2O4S/c;;1-5(2,3)4/h;;(H2,1,2,3,4)/q2*+1;/p-2, purity 99%
Compound 5: water, H2O, InChI=1S/H2O/h1H2, purity 99.9%

System: rubidium sulfate + water + rubidium fluoride (RbF); phases: Liquid
Fixed: Temperature, K = 298.15
Fixed: Pressure, kPa = 101
Property: Osmotic coefficient (Liquid); method: potentiometric in an electrochemical cell
Molality, mol/kg of rubidium fluoride (RbF)	Molality, mol/kg of rubidium sulfate	Osmotic coefficient	uncertainty
0.0016	0	0.986	0.02
0.0031	0	0.981	0.02
0.0047	0	0.977	0.02
0.0103	0	0.968	0.02
0.0159	0	0.962	0.02
0.0215	0	0.958	0.02
0.031	0	0.953	0.02
0.0405	0	0.949	0.02
0.0596	0	0.943	0.02
0.1204	0	0.935	0.02
0.2001	0	0.932	0.02
0.3004	0	0.932	0.02
0.4003	0	0.935	0.02
0.4997	0	0.939	0.02
0.5997	0	0.944	0.02
0.7004	0	0.948	0.02
0.0073	0.001	0.96	0.02
0.0212	0.003	0.938	0.02
0.0423	0.006	0.921	0.02
0.0843	0.012	0.902	0.02
0.1395	0.0199	0.886	0.02
0.2097	0.03	0.872	0.021
0.2801	0.04	0.861	0.021
0.3502	0.05	0.852	0.021
0.4201	0.06	0.844	0.021
0.4898	0.07	0.836	0.021
0.0039	0.0019	0.951	0.02
0.0123	0.0061	0.921	0.02
0.0243	0.0121	0.898	0.02
0.0482	0.0241	0.87	0.021
0.0801	0.04	0.845	0.021
0.1202	0.0601	0.822	0.021
0.1599	0.08	0.803	0.021
0.2002	0.1001	0.786	0.021
0.2401	0.1201	0.77	0.022
0.2799	0.14	0.755	0.022
0.001	0.0031	0.937	0.02
0.003	0.0089	0.904	0.02
0.006	0.0179	0.875	0.02
0.012	0.0359	0.842	0.021
0.02	0.0601	0.815	0.021
0.03	0.0901	0.791	0.021
0.04	0.12	0.773	0.022
0.05	0.15	0.757	0.022
0.06	0.18	0.744	0.022
0.07	0.21	0.732	0.022

System: water + cesium sulfate + cesium fluoride (CsF); phases: Liquid
Fixed: Temperature, K = 298.15
Fixed: Pressure, kPa = 101
Property: Osmotic coefficient (Liquid); method: potentiometric in an electrochemical cell
Molality, mol/kg of cesium fluoride (CsF)	Molality, mol/kg of cesium sulfate	Osmotic coefficient	uncertainty
0.003	0	0.981	0.02
0.0045	0	0.977	0.02
0.0062	0	0.974	0.02
0.0096	0	0.969	0.02
0.0149	0	0.963	0.02
0.0202	0	0.959	0.02
0.0307	0	0.953	0.02
0.0414	0	0.948	0.02
0.0605	0	0.943	0.02
0.1199	0	0.935	0.02
0.2006	0	0.933	0.02
0.3005	0	0.935	0.02
0.3999	0	0.94	0.02
0.4996	0	0.946	0.02
0.6003	0	0.952	0.02
0.7005	0	0.959	0.02
0.0066	0.0009	0.962	0.02
0.0214	0.0031	0.94	0.02
0.0424	0.0061	0.924	0.02
0.0842	0.012	0.909	0.02
0.1397	0.02	0.899	0.02
0.21	0.03	0.892	0.02
0.2796	0.0399	0.888	0.02
0.3503	0.05	0.887	0.02
0.4198	0.06	0.886	0.02
0.4899	0.07	0.886	0.02
0.0037	0.0019	0.953	0.02
0.0119	0.0059	0.925	0.02
0.0241	0.0121	0.903	0.02
0.0479	0.024	0.88	0.02
0.08	0.04	0.862	0.021
0.1201	0.06	0.849	0.021
0.1601	0.0801	0.839	0.021
0.2	0.1	0.832	0.021
0.24	0.12	0.825	0.021
0.2799	0.1399	0.82	0.021
0.0011	0.0032	0.937	0.02
0.003	0.0089	0.905	0.02
0.0059	0.0178	0.878	0.02
0.012	0.0361	0.847	0.021
0.02	0.0599	0.824	0.021
0.0301	0.0901	0.805	0.021
0.04	0.12	0.792	0.021
0.05	0.1499	0.782	0.021
0.06	0.1799	0.774	0.022
0.07	0.2099	0.768	0.022
