Measured thermophysical data. High pressure phase equilibria of binary mixtures of light hydrocarbons in the ionic liquid 1-hexyl-3-methylimidazoliumtetracyanoborate
Source: Fluid Phase Equilib., 2014, 10.1016/j.fluid.2013.09.015
Compound 1: methane, CH4, InChI=1S/CH4/h1H4, purity 99.995%
Compound 2: 1-hexyl-3-methylimidazolium tetracyanoborate, C14H19BN6, InChI=1S/C10H19N2.C4BN4/c1-3-4-5-6-7-12-9-8-11(2)10-12;6-1-5(2-7,3-8)4-9/h8-10H,3-7H2,1-2H3;/q+1;-1, purity 98%
Compound 3: ethane, C2H6, InChI=1S/C2H6/c1-2/h1-2H3, purity 99.95%
Compound 4: propane, C3H8, InChI=1S/C3H8/c1-3-2/h3H2,1-2H3, purity 99.95%

System: methane + 1-hexyl-3-methylimidazolium tetracyanoborate; phases: Liquid, Gas
Property: Vapor or sublimation pressure, kPa (Liquid); method: cailletet apparatus
Mole fraction of methane	Temperature, K	Vapor or sublimation pressure, kPa	uncertainty
0.051	293.17	2515	635
0.051	303.18	2600	658
0.051	313.15	2688	678
0.051	323.11	2770	693
0.051	333.18	2845	708
0.051	343.19	2910	717
0.051	353.17	2965	730
0.051	363.18	3015	736
0.0747	293.18	3948	753
0.0747	303.15	4086	773
0.0747	313.16	4214	790
0.0747	323.18	4329	804
0.0747	333.11	4435	817
0.0747	343.17	4520	828
0.0747	353.12	4605	836
0.0747	363.15	4670	842
0.1002	293.22	5896	871
0.1002	303.23	6062	889
0.1002	313.22	6218	906
0.1002	323.23	6358	920
0.1002	333.13	6483	934
0.1002	343.18	6594	947
0.1002	353.13	6679	955
0.1002	363.14	6749	962
0.1249	293.18	7670	1028
0.1249	303.19	7875	1044
0.1249	313.13	8064	1057
0.1249	323.15	8230	1069
0.1249	333.15	8385	1080
0.1249	343.12	8520	1091
0.1249	353.19	8634	1100
0.1249	363.16	8724	1106
0.1503	292.96	10097	1237
0.1503	303.16	10297	1243
0.1503	313.13	10481	1249
0.1503	323.12	10646	1259
0.1503	333.16	10802	1266
0.1503	343.14	10937	1272
0.1503	353.15	11048	1277
0.1503	363.12	11133	1283

System: ethane + 1-hexyl-3-methylimidazolium tetracyanoborate; phases: Liquid, Gas
Property: Vapor or sublimation pressure, kPa (Liquid); method: cailletet apparatus
Mole fraction of ethane	Temperature, K	Vapor or sublimation pressure, kPa	uncertainty
0.0998	283.07	865	67
0.0998	291.33	990	77
0.0998	303.06	1171	91
0.0998	312.85	1331	103
0.0998	322.97	1491	116
0.0998	332.99	1651	128
0.0998	343	1816	141
0.0998	353.06	1977	153
0.0998	362.99	2137	166
0.1999	282.76	2141	166
0.1999	293.08	2527	196
0.1999	303.09	2902	225
0.1999	312.99	3297	256
0.1999	323.02	3714	288
0.1999	332.96	4119	319
0.1999	342.96	4534	352
0.1999	353.06	4940	383
0.1999	363.87	5405	419
0.2507	283	2717	211
0.2507	293.01	3382	262
0.2507	293.24	3342	259
0.2507	303.02	3943	306
0.2507	313.02	4588	356
0.2507	322.97	5269	408
0.2507	333.11	5929	460
0.2507	343.01	6590	511
0.2507	353.02	7215	559
0.275	307.9	5862	454
0.275	312.98	6033	468
0.275	323.04	6793	527
0.275	332.96	7578	587
0.275	343	8334	646
0.275	353.19	9064	703
0.275	363.11	9719	753
0.2814	312.99	6982	541
0.2814	323.04	7422	575
0.2814	332.94	8063	625
0.2814	343.25	8868	687
0.2814	352.79	9490	736
0.2814	363.38	10165	788
0.2899	325	9442	732
0.2899	329.95	9553	741
0.2899	333.05	9667	749
0.2899	343.08	10147	787
0.2899	352.99	10702	830
0.2899	363.24	11303	876

System: ethane + 1-hexyl-3-methylimidazolium tetracyanoborate; phases: Liquid mixture 1, Liquid mixture 2
Property: Vapor or sublimation pressure, kPa (Liquid mixture 1); method: cailletet apparatus
Mole fraction of ethane	Temperature, K	Vapor or sublimation pressure, kPa	uncertainty
0.2814	282.98	11605	85
0.2814	287.9	10054	74
0.2814	293.06	8462	62
0.2814	297.97	7728	57
0.2814	302.99	7246	54
0.2814	305.24	7131	53
0.2899	295.09	12858	93
0.2899	298.27	11568	84
0.2899	303.09	10658	77
0.2899	307.96	10023	73
0.2899	313.04	9643	70
0.2899	315.46	9537	69
0.2899	320.5	9417	68
0.275	283.18	8552	64
0.275	284.58	8203	61
0.275	290.05	6892	52
0.275	293.02	6597	49
0.275	298.94	5892	44
0.275	302.97	5781	43
0.2814	306.3	7086	52

System: ethane + 1-hexyl-3-methylimidazolium tetracyanoborate; phases: Liquid mixture 1, Liquid mixture 2, Gas
Property: Vapor or sublimation pressure, kPa (Liquid mixture 1); method: cailletet apparatus
Temperature, K	Vapor or sublimation pressure, kPa	uncertainty
292.98	3781	293
297.92	4201	326
303.14	4687	363

System: propane + 1-hexyl-3-methylimidazolium tetracyanoborate; phases: Liquid mixture 1, Liquid mixture 2
Property: Vapor or sublimation pressure, kPa (Liquid mixture 1); method: cailletet apparatus
Mole fraction of propane	Temperature, K	Vapor or sublimation pressure, kPa	uncertainty
0.2251	289.85	3301	28
0.2251	293.05	2721	24
0.2251	298.16	1940	18
0.2251	302.98	1600	16
0.2251	307.08	1400	15
0.2251	309	1350	15
0.25	325.8	9605	74
0.25	328.58	8354	64
0.25	333.79	6503	51
0.25	337.68	5328	42
0.25	342.88	4452	35
0.25	348.75	3747	30
0.25	352.99	3517	28
0.25	357.17	3441	28
0.25	362.94	3698	30
0.25	360.34	3532	29
0.2719	365.59	11936	89
0.2719	367.29	10960	82
0.2719	368.47	10585	79
0.2719	369.47	10436	77
0.2719	371.05	10270	76

System: propane + 1-hexyl-3-methylimidazolium tetracyanoborate; phases: Liquid mixture 1, Gas
Property: Vapor or sublimation pressure, kPa (Liquid mixture 1); method: cailletet apparatus
Mole fraction of propane	Temperature, K	Vapor or sublimation pressure, kPa	uncertainty
0.0996	298	406	31
0.0996	302.99	445	35
0.0996	313.01	533	41
0.0996	322.97	628	49
0.0996	332.98	733	57
0.0996	342.97	843	65
0.0996	353.01	964	75
0.0996	362.98	1084	84
0.1513	292.97	624	48
0.1513	303	757	59
0.1513	313.03	896	69
0.1513	323.03	1051	81
0.1513	332.95	1223	95
0.1513	342.98	1410	109
0.1513	352.88	1605	124
0.1513	362.97	1810	140
0.1914	283	611	47
0.1914	292.98	765	59
0.1914	303.03	950	74
0.1914	312.99	1157	90
0.1914	323	1392	108
0.1914	333	1649	128
0.1914	343.01	1940	150
0.1914	352.95	2241	174
0.1914	362.96	2578	200
0.2251	312.96	1340	104
0.2251	317.98	1445	112
0.2251	322.92	1600	124
0.2251	333	1916	149
0.2251	338.01	2095	162
0.2251	342.96	2270	176
0.2251	353.02	2656	206
0.2251	362.97	3071	238
0.25	366.43	3903	303
0.25	368.8	4047	314
0.25	371.74	4217	327
0.25	378.19	4607	357
0.25	381.07	4792	372
0.2719	374.73	10250	795
0.2719	379.48	10936	848
0.2719	384.46	12712	985

System: propane + 1-hexyl-3-methylimidazolium tetracyanoborate; phases: Liquid mixture 1, Liquid mixture 2, Gas
Property: Vapor or sublimation pressure, kPa (Liquid mixture 1); method: cailletet apparatus
Temperature, K	Vapor or sublimation pressure, kPa	uncertainty
293.1	839	65
303	1079	84
313	1368	106
323	1712	133
333	2117	164
343	2583	200
366.6	4016	311
