Measured thermophysical data. Vapor pressure of selected aliphatic alcohols by ebulliometry. Part 2
Source: Fluid Phase Equilib., 2010, 10.1016/j.fluid.2010.06.020
Compound 1: 2-methyl-1-butanol, C5H12O, InChI=1S/C5H12O/c1-3-5(2)4-6/h5-6H,3-4H2,1-2H3, purity 99%
Compound 2: 2-methylbutan-2-ol, C5H12O, InChI=1S/C5H12O/c1-4-5(2,3)6/h6H,4H2,1-3H3, purity 99%
Compound 3: 3-methylbutan-1-ol, C5H12O, InChI=1S/C5H12O/c1-5(2)3-4-6/h5-6H,3-4H2,1-2H3, purity 99%
Compound 4: 3-methyl-2-butanol, C5H12O, InChI=1S/C5H12O/c1-4(2)5(3)6/h4-6H,1-3H3, purity 99%
Compound 5: pentan-2-ol, C5H12O, InChI=1S/C5H12O/c1-3-4-5(2)6/h5-6H,3-4H2,1-2H3, purity 99%
Compound 6: 3-pentanol, C5H12O, InChI=1S/C5H12O/c1-3-5(6)4-2/h5-6H,3-4H2,1-2H3, purity 99%

System: 2-methyl-1-butanol; phases: Liquid, Gas
Property: Vapor or sublimation pressure, kPa (Liquid); method: Ebulliometric method (Recirculating still)
Temperature, K	Vapor or sublimation pressure, kPa	uncertainty
345.513	9.333	0.027
350.438	11.999	0.029
354.514	14.665	0.032
358.017	17.332	0.037
361.804	20.665	0.041
365.119	23.998	0.046
368.625	27.998	0.051
371.744	31.997	0.056
374.559	35.997	0.062
377.129	39.997	0.067
379.495	43.996	0.073
382.046	48.663	0.078
384.411	53.329	0.084
386.915	58.662	0.09
389.233	63.995	0.097
391.396	69.328	0.103
393.43	74.661	0.11
395.347	79.993	0.116
397.168	85.326	0.122
398.901	90.659	0.128
400.961	97.325	0.131

System: 2-methylbutan-2-ol; phases: Liquid, Gas
Property: Vapor or sublimation pressure, kPa (Liquid); method: Ebulliometric method (Recirculating still)
Temperature, K	Vapor or sublimation pressure, kPa	uncertainty
335.746	19.332	0.044
339.033	22.665	0.046
341.928	25.998	0.051
344.537	29.331	0.056
346.913	32.664	0.061
349.102	35.997	0.066
351.522	39.997	0.071
353.755	43.996	0.076
355.831	47.996	0.082
357.777	51.996	0.087
359.899	56.662	0.093
361.885	61.328	0.099
364.015	66.661	0.105
366.015	71.994	0.112
367.898	77.327	0.118
369.688	82.66	0.125
371.799	89.326	0.132
373.789	95.992	0.137
374.555	98.659	0.141

System: 3-methylbutan-1-ol; phases: Liquid, Gas
Property: Vapor or sublimation pressure, kPa (Liquid); method: Ebulliometric method (Recirculating still)
Temperature, K	Vapor or sublimation pressure, kPa	uncertainty
366.27	22.665	0.047
369.951	26.664	0.049
373.239	30.664	0.055
376.142	34.664	0.061
379.646	39.997	0.067
382.783	45.33	0.074
385.624	50.663	0.081
388.228	55.995	0.088
390.638	61.328	0.095
392.878	66.661	0.102
395.482	73.327	0.109
397.904	79.993	0.117
400.182	86.66	0.124
402.324	93.326	0.13
403.772	97.992	0.133

System: 3-methyl-2-butanol; phases: Liquid, Gas
Property: Vapor or sublimation pressure, kPa (Liquid); method: Ebulliometric method (Recirculating still)
Temperature, K	Vapor or sublimation pressure, kPa	uncertainty
352.837	28.664	0.057
355.334	31.997	0.06
357.628	35.33	0.064
359.756	38.663	0.069
361.737	41.997	0.073
363.598	45.33	0.078
365.688	49.329	0.083
367.648	53.329	0.088
369.495	57.329	0.094
371.243	61.328	0.099
372.899	65.328	0.105
374.987	70.661	0.11
376.954	75.994	0.117
378.813	81.327	0.124
380.579	86.66	0.13
382.262	91.992	0.136
383.868	97.325	0.141
384.452	99.325	0.144

System: pentan-2-ol; phases: Liquid, Gas
Property: Vapor or sublimation pressure, kPa (Liquid); method: Ebulliometric method (Recirculating still)
Temperature, K	Vapor or sublimation pressure, kPa	uncertainty
350.909	18.665	0.041
353.738	21.332	0.043
356.287	23.998	0.047
358.613	26.664	0.051
361.264	29.998	0.055
363.691	33.331	0.06
365.922	36.664	0.064
367.996	39.997	0.069
370.31	43.996	0.074
372.452	47.996	0.079
374.459	51.996	0.084
376.348	55.995	0.089
378.128	59.995	0.095
380.36	65.328	0.1
382.451	70.661	0.107
384.418	75.994	0.113
386.275	81.327	0.12
388.471	87.993	0.127
390.53	94.659	0.132
391.32	97.325	0.137

System: 3-pentanol; phases: Liquid, Gas
Property: Vapor or sublimation pressure, kPa (Liquid); method: Ebulliometric method (Recirculating still)
Temperature, K	Vapor or sublimation pressure, kPa	uncertainty
342.025	14.665	0.035
345.414	17.332	0.037
348.396	19.998	0.041
351.069	22.665	0.046
354.068	25.998	0.05
356.772	29.331	0.054
359.235	32.664	0.058
360.619	34.664	0.063
362.786	37.997	0.066
364.807	41.33	0.071
367.063	45.33	0.076
369.163	49.329	0.081
371.135	53.329	0.086
372.992	57.329	0.091
374.746	61.328	0.096
376.95	66.661	0.102
379.019	71.994	0.108
380.972	77.327	0.114
382.818	82.66	0.121
385.001	89.326	0.128
387.057	95.992	0.132
387.651	97.992	0.136
