Measured thermophysical data. SLE and LLE for tri-butylphosphate or tri-octylamine contained systems; extractive solvents of Molybdenum
Source: Fluid Phase Equilib., 2010, 10.1016/j.fluid.2010.04.016
Compound 1: octan-1-ol, C8H18O, InChI=1S/C8H18O/c1-2-3-4-5-6-7-8-9/h9H,2-8H2,1H3
Compound 2: tributyl phosphate, C12H27O4P, InChI=1S/C12H27O4P/c1-4-7-10-14-17(13,15-11-8-5-2)16-12-9-6-3/h4-12H2,1-3H3
Compound 3: decan-1-ol, C10H22O, InChI=1S/C10H22O/c1-2-3-4-5-6-7-8-9-10-11/h11H,2-10H2,1H3
Compound 4: decane, C10H22, InChI=1S/C10H22/c1-3-5-7-9-10-8-6-4-2/h3-10H2,1-2H3
Compound 5: water, H2O, InChI=1S/H2O/h1H2, purity 99.8%
Compound 6: trioctylamine, C24H51N, InChI=1S/C24H51N/c1-4-7-10-13-16-19-22-25(23-20-17-14-11-8-5-2)24-21-18-15-12-9-6-3/h4-24H2,1-3H3

System: octan-1-ol; phases: Crystal, Liquid, Air at 1 atmosphere
Property: Normal melting temperature, K (Crystal); method: VISOBS
Normal melting temperature, K	uncertainty
257.7	0.16

System: tributyl phosphate; phases: Crystal, Liquid, Air at 1 atmosphere
Property: Normal melting temperature, K (Crystal); method: VISOBS
Normal melting temperature, K	uncertainty
194.2	0.16

System: tributyl phosphate; phases: Crystal, Liquid, Air at 1 atmosphere
Property: Normal melting temperature, K (Crystal); method: VISOBS
Normal melting temperature, K	uncertainty
194.31	0.2

System: decan-1-ol; phases: Crystal, Liquid, Air at 1 atmosphere
Property: Normal melting temperature, K (Crystal); method: VISOBS
Normal melting temperature, K	uncertainty
280.19	0.16

System: octan-1-ol + tributyl phosphate; phases: Liquid, Crystal
Fixed: Pressure, kPa = 101
Property: Solid-liquid equilibrium temperature, K (Liquid); method: VISOBS
Mole fraction of tributyl phosphate	Solid-liquid equilibrium temperature, K	uncertainty
0	257.7	0.16
0.0522	256.33	0.16
0.0997	255.02	0.16
0.2	252.18	0.16
0.302	248.54	0.16
0.3988	244.08	0.16
0.5114	238.61	0.16
0.5999	232.71	0.16
0.6997	224.05	0.16
0.7999	212.92	0.16
0.8998	194.59	0.16

System: octan-1-ol + tributyl phosphate; phases: Liquid, Crystal
Fixed: Pressure, kPa = 101
Property: Solid-liquid equilibrium temperature, K (Liquid); method: VISOBS
Mole fraction of tributyl phosphate	Solid-liquid equilibrium temperature, K	uncertainty
0.91	191.76	0.16
0.95	192.97	0.16
1	194.2	0.16

System: decan-1-ol + tributyl phosphate; phases: Liquid, Crystal
Fixed: Pressure, kPa = 101
Property: Solid-liquid equilibrium temperature, K (Liquid); method: VISOBS
Mole fraction of tributyl phosphate	Solid-liquid equilibrium temperature, K	uncertainty
0	280.19	0.16
0.0501	278.91	0.16
0.1	278.3	0.16
0.2	275.67	0.16
0.3	272.78	0.16
0.4	269.98	0.16
0.5	263.71	0.16
0.6	256.46	0.16
0.7001	247.24	0.16
0.8	231.9	0.16
0.9	206.31	0.16

System: decan-1-ol + tributyl phosphate; phases: Liquid, Crystal
Fixed: Pressure, kPa = 101
Property: Solid-liquid equilibrium temperature, K (Liquid); method: VISOBS
Mole fraction of tributyl phosphate	Solid-liquid equilibrium temperature, K	uncertainty
0.9501	192.07	0.2
1	194.31	0.2

System: octan-1-ol + decan-1-ol; phases: Liquid, Crystal
Fixed: Pressure, kPa = 101
Property: Solid-liquid equilibrium temperature, K (Liquid); method: VISOBS
Mole fraction of octan-1-ol	Solid-liquid equilibrium temperature, K	uncertainty
0	280.19	0.16
0.0503	278.93	0.16
0.1	278.28	0.16
0.1999	275.79	0.16
0.2999	272.39	0.16
0.4005	269.24	0.16
0.5001	265.24	0.16
0.5999	260.79	0.16
0.7008	255.15	0.16
0.7599	251.03	0.16

System: octan-1-ol + decan-1-ol; phases: Liquid, Crystal
Fixed: Pressure, kPa = 101
Property: Solid-liquid equilibrium temperature, K (Liquid); method: VISOBS
Mole fraction of octan-1-ol	Solid-liquid equilibrium temperature, K	uncertainty
0.7599	251.03	0.16
0.7801	251.73	0.16
0.7999	252.08	0.16
0.9	255.19	0.16
0.95	256.42	0.16
1	257.7	0.16

System: decane + tributyl phosphate + water; phases: Liquid mixture 2, Liquid mixture 1
Fixed: Pressure, kPa = 101.3
Fixed: Temperature, K = 298.15
Property: Mole fraction of water (Liquid mixture 2); method: Chromatography
Property: Mole fraction of water (Liquid mixture 1); method: Chromatography
Property: Mole fraction of tributyl phosphate (Liquid mixture 1); method: Chromatography
Mole fraction of tributyl phosphate	Mole fraction of water	uncertainty	Mole fraction of water	uncertainty	Mole fraction of tributyl phosphate	uncertainty
0	0.0113	0.0002	0.9987	0.0002	0	
0.066	0.0147	0.0002	0.9982	0.0003	0.0005	
0.1242	0.0237	0.0003	0.9979	0.0003	0.001	
0.2065	0.0276	0.0003	0.9973	0.0003	0.0017	
0.2897	0.0303	0.0003	0.9968	0.0003	0.0022	
0.4209	0.033	0.0003	0.9962	0.0003	0.0029	
0.5209	0.0307	0.0003	0.9956	0.0003	0.0036	
0.5909	0.0274	0.0003	0.995	0.0003	0.0046	
0.6709	0.0244	0.0003	0.9943	0.0005	0.0053	
0.779	0.0198	0.0003	0.9915	0.0003	0.0061	
0.8907	0.0144	0.0002	0.9928	0.0004	0.0069	
0.99	0.0099	0.0002	0.9984	0.0003	0.0006	

System: decane + trioctylamine + water; phases: Liquid mixture 1, Liquid mixture 2
Fixed: Temperature, K = 298.15
Fixed: Pressure, kPa = 101.3
Property: Mole fraction of trioctylamine (Liquid mixture 1); method: Chromatography
Property: Mole fraction of water (Liquid mixture 2); method: Chromatography
Property: Mole fraction of trioctylamine (Liquid mixture 2); method: Chromatography
Mole fraction of water	Mole fraction of trioctylamine	uncertainty	Mole fraction of water	uncertainty	Mole fraction of trioctylamine	uncertainty
0.9987	0		0.0113	0.0002	0	
0.9984	0.0009	0.0003	0.025	0.0003	0.0432	
0.9976	0.0015	0.0003	0.0568	0.0005	0.1177	
0.9961	0.0028	0.0002	0.059	0.0005	0.2553	
0.9935	0.0036	0.0002	0.0679	0.0005	0.3661	
0.9909	0.0041	0.0002	0.069	0.0005	0.4698	
0.989	0.0056	0.0003	0.0683	0.0005	0.5866	
0.9917	0.0049	0.0002	0.0641	0.0005	0.7277	
0.9939	0.0038	0.0002	0.0607	0.0005	0.8194	
0.9958	0.0027	0.0002	0.0497	0.0004	0.9094	
0.9961	0.0039	0.0008	0.0259	0.0003	0.9741	

System: decane + water; phases: Liquid mixture 2, Liquid mixture 1
Property: Mole fraction of water (Liquid mixture 2); method: Chromatography
Pressure, kPa	Temperature, K	Mole fraction of water	uncertainty
101.3	298.15	0.0113	0.0002

System: decane + water; phases: Liquid mixture 1, Liquid mixture 2
Property: Mole fraction of water (Liquid mixture 1); method: Chromatography
Temperature, K	Pressure, kPa	Mole fraction of water	uncertainty
298.15	101.3	0.9987	0.0002

System: trioctylamine + water; phases: Liquid mixture 1, Liquid mixture 2
Property: Mole fraction of trioctylamine (Liquid mixture 1); method: Chromatography
Temperature, K	Pressure, kPa	Mole fraction of trioctylamine	uncertainty
298.15	101.3	0.0039	0.0008

System: trioctylamine + water; phases: Liquid mixture 2, Liquid mixture 1
Property: Mole fraction of water (Liquid mixture 2); method: Chromatography
Temperature, K	Pressure, kPa	Mole fraction of water	uncertainty
298.15	101.3	0.0259	0.0003
