Measured thermophysical data. Removal of aromatic hydrocarbons from hydrocarbon mixture using glycols at 303.15 K and 333.15 K and atmospheric pressure: Experimental and calculated data by NRTL and UNIQUAC models
Source: Fluid Phase Equilib., 2015, 10.1016/j.fluid.2014.12.027
Compound 1: decane, C10H22, InChI=1S/C10H22/c1-3-5-7-9-10-8-6-4-2/h3-10H2,1-2H3, purity 99%
Compound 2: toluene, C7H8, InChI=1S/C7H8/c1-7-5-3-2-4-6-7/h2-6H,1H3, purity 99.8%
Compound 3: diethylene glycol, C4H10O3, InChI=1S/C4H10O3/c5-1-3-7-4-2-6/h5-6H,1-4H2, purity 99%
Compound 4: triethylene glycol, C6H14O4, InChI=1S/C6H14O4/c7-1-3-9-5-6-10-4-2-8/h7-8H,1-6H2, purity 99%

System: decane; phases: Liquid
Property: Mass density, kg/m3 (Liquid); method: Vibrating tube method
Temperature, K	Pressure, kPa	Mass density, kg/m3	uncertainty
298	101.325	722.439	0.277

System: toluene; phases: Liquid
Property: Mass density, kg/m3 (Liquid); method: Vibrating tube method
Temperature, K	Pressure, kPa	Mass density, kg/m3	uncertainty
298	101.325	857.606	0.186

System: diethylene glycol; phases: Liquid
Property: Mass density, kg/m3 (Liquid); method: Vibrating tube method
Temperature, K	Pressure, kPa	Mass density, kg/m3	uncertainty
298	101.325	1109.165	0.335

System: triethylene glycol; phases: Liquid
Property: Mass density, kg/m3 (Liquid); method: Vibrating tube method
Temperature, K	Pressure, kPa	Mass density, kg/m3	uncertainty
298	101.325	1116.052	0.34

System: toluene + diethylene glycol + decane; phases: Liquid mixture 1, Liquid mixture 2
Fixed: Pressure, kPa = 101
Property: Mass fraction of toluene (Liquid mixture 1); method: Density calibration data
Temperature, K	Mass fraction of decane	Mass fraction of toluene	uncertainty
303.15	0.007	0.0206	0.0093
303.15	0.0305	0.1267	0.0059
303.15	0.0893	0.2279	0.0062
303.15	0.1408	0.3043	0.0079
303.15	0.0751	0.1948	0.0057
303.15	0.1846	0.3931	0.0095
303.15	0.2675	0.4693	0.0109
303.15	0.4418	0.4477	0.0105
303.15	0.58	0.3566	0.0084
303.15	0.7298	0.2463	0.006
303.15	0.8501	0.1309	0.004
303.15	0.9455	0.0279	0.0021
333.15	0.0112	0.1386	0.0052
333.15	0.7833	0.1963	0.0049
333.15	0.6694	0.2872	0.0069
333.15	0.5647	0.3765	0.0088
333.15	0.1953	0.4028	0.0099
333.15	0.285	0.4234	0.0098
333.15	0.1917	0.4087	0.0122
333.15	0.1323	0.3515	0.0085
333.15	0.1882	0.43	0.0158
333.15	0.1066	0.3374	0.0085
333.15	0.0454	0.2018	0.006
333.15	0.0856	0.2753	0.0077
333.15	0.0092	0	

System: toluene + diethylene glycol + decane; phases: Liquid
Fixed: Pressure, kPa = 101
Property: Mass density, kg/m3 (Liquid); method: Vibrating tube method
Temperature, K	Mass fraction of decane	Mass fraction of toluene	Mass density, kg/m3	uncertainty
303.15	0.007	0.0206	1100.44	0.912
303.15	0.0305	0.1267	1074.578	1.021
303.15	0.0893	0.2279	1072.891	1.024
303.15	0.1408	0.3043	1011.921	1.09
303.15	0.0751	0.1948	1065.057	1.403
303.15	0.1846	0.3931	867.165	3.294
303.15	0.2675	0.4693	800.938	1.181
303.15	0.4418	0.4477	783.812	1.141
303.15	0.58	0.3566	766.984	0.75
303.15	0.7298	0.2463	750.984	0.942
303.15	0.8501	0.1309	737.565	0.941
303.15	0.9455	0.0279	725.737	0.981
333.15	0.0112	0.1386	714.27	1.299
333.15	0.7833	0.1963	720.99	1.261
333.15	0.6694	0.2872	732.598	1.476
333.15	0.5647	0.3765	744.407	0.296
333.15	0.1953	0.4028	757.69	6.666
333.15	0.285	0.4234	769.354	2.303
333.15	0.1917	0.4087	779.227	7.671
333.15	0.1323	0.3515	794.267	6.875
333.15	0.1882	0.43	864.175	8.192
333.15	0.1066	0.3374	1019.718	1.3
333.15	0.0454	0.2018	1046.286	10.972
333.15	0.0856	0.2753	1048.992	1.244
333.15	0.0092	0	1084.783	370.514

System: toluene + diethylene glycol + decane; phases: Liquid mixture 2, Liquid mixture 1
Fixed: Pressure, kPa = 101
Property: Mass fraction of decane (Liquid mixture 2); method: Density calibration data
Property: Mass fraction of toluene (Liquid mixture 1); method: Density calibration data
Property: Mass fraction of decane (Liquid mixture 1); method: Density calibration data
Temperature, K	Mass fraction of toluene	Mass fraction of decane	uncertainty	Mass fraction of toluene	uncertainty	Mass fraction of decane	uncertainty
303.15	0.0354	0.0077	0.0023	0.1676	0.0044	0.7982	
303.15	0.0506	0.0162	0.0023	0.2699	0.0065	0.6744	
303.15	0.0607	0.0218	0.0023	0.3475	0.0083	0.5829	
303.15	0.0744	0.0292	0.0024	0.433	0.0102	0.4838	
303.15	0.0808	0.0326	0.00237	0.4838	0.0114	0.4259	
333.15	0.0301	0.0222	0.0021	0.1942	0.0049	0.7786	
333.15	0.0447	0.0195	0.0021	0.2404	0.0059	0.7257	
333.15	0.0592	0.0172	0.0021	0.2992	0.0072	0.6584	
333.15	0.0791	0.0148	0.002	0.3692	0.0088	0.5784	
333.15	0.0909	0.0138	0.002	0.4136	0.0098	0.5278	

System: toluene + triethylene glycol + decane; phases: Liquid mixture 1, Liquid mixture 2
Fixed: Pressure, kPa = 101
Property: Mass fraction of toluene (Liquid mixture 1); method: Density calibration data
Temperature, K	Mass fraction of decane	Mass fraction of toluene	uncertainty
303.15	0.995	0	
303.15	0.8624	0.1238	0.0038
303.15	0.7295	0.2442	0.006
303.15	0.5978	0.3828	0.0091
303.15	0.4907	0.4895	0.0115
303.15	0.3494	0.5837	0.0097
303.15	0.2162	0.6008	0.0093
303.15	0.1517	0.5294	0.0112
303.15	0.0982	0.4511	0.0115
303.15	0.0788	0.3454	0.0101
303.15	0.0322	0.2384	0.0316
303.15	0.025	0.1264	0.0199
303.15	0.0088	0	
333.15	0.9968	0	
333.15	0.8611	0.1339	0.004
333.15	0.738	0.2502	0.0061
333.15	0.6123	0.3726	0.0089
333.15	0.4902	0.4927	0.0116
333.15	0.3614	0.6008	0.0093
333.15	0.2269	0.6239	0.0088
333.15	0.1349	0.5399	0.011
333.15	0.0915	0.4548	0.1077
333.15	0.0645	0.3534	0.0087
333.15	0.0894	0.3423	0.1075
333.15	0.0275	0.2099	0.0342
333.15	0.0748	0.2369	0.0055
333.15	0.0233	0.1388	0.0185
333.15	0.0126	0.0663	0.0174
333.15	0.0078	0	

System: toluene + triethylene glycol + decane; phases: Liquid
Fixed: Pressure, kPa = 101
Property: Mass density, kg/m3 (Liquid); method: Vibrating tube method
Temperature, K	Mass fraction of decane	Mass fraction of toluene	Mass density, kg/m3	uncertainty
303.15	0.995	0	722.552	0.839
303.15	0.8624	0.1238	736.542	1.062
303.15	0.7295	0.2442	751.658	1.102
303.15	0.5978	0.3828	768.236	1.344
303.15	0.4907	0.4895	783.347	1.264
303.15	0.3494	0.5837	800.741	0.329
303.15	0.2162	0.6008	817.495	2.94
303.15	0.1517	0.5294	939.834	1.904
303.15	0.0982	0.4511	948.86	2.091
303.15	0.0788	0.3454	1059.489	1.047
303.15	0.0322	0.2384	1063.08	0.935
303.15	0.025	0.1264	1074.016	0.983
303.15	0.0088	0	1113.572	0.874
333.15	0.9968	0	699.772	0.834
333.15	0.8611	0.1339	713.634	1.054
333.15	0.738	0.2502	726.818	1.186
333.15	0.6123	0.3726	742.44	1.35
333.15	0.4902	0.4927	757.545	0.328
333.15	0.3614	0.6008	776.492	0.311
333.15	0.2269	0.6239	790.666	0.297
333.15	0.1349	0.5399	800.413	1.546
333.15	0.0915	0.4548	860.413	3.017
333.15	0.0645	0.3534	1005.218	2.045
333.15	0.0894	0.3423	1029.363	1.795
333.15	0.0275	0.2099	1036.933	0.714
333.15	0.0748	0.2369	1038.833	0.97
333.15	0.0233	0.1388	1049.873	0.969
333.15	0.0126	0.0663	1071.123	0.978
333.15	0.0078	0	1088.977	0.865

System: toluene + triethylene glycol + decane; phases: Liquid mixture 2, Liquid mixture 1
Fixed: Pressure, kPa = 101
Property: Mass fraction of decane (Liquid mixture 2); method: Density calibration data
Property: Mass fraction of toluene (Liquid mixture 1); method: Density calibration data
Property: Mass fraction of decane (Liquid mixture 1); method: Density calibration data
Temperature, K	Mass fraction of toluene	Mass fraction of decane	uncertainty	Mass fraction of toluene	uncertainty	Mass fraction of decane	uncertainty
303.15	0.0466	0.0025	0.0025	0.1427	0.0041	0.8418	
303.15	0.059	0.0124	0.0025	0.2107	0.0052	0.7672	
303.15	0.0682	0.0192	0.0025	0.2636	0.0064	0.7099	
303.15	0.0817	0.0288	0.0025	0.3395	0.0081	0.6292	
303.15	0.0931	0.0362	0.0025	0.4029	0.0096	0.5628	
333.15	0.023	0.0164	0.002	0.135	0.0039	0.853	
333.15	0.0599	0.0122	0.002	0.215	0.0053	0.766	
333.15	0.0689	0.0115	0.002	0.2855	0.0069	0.6916	
333.15	0.0875	0.0103	0.002	0.3622	0.0086	0.6134	
333.15	0.1137	0.0096	0.002	0.4496	0.0106	0.5269	
