Measured thermophysical data. Excess volumes and excess enthalpies of N-methyl-2-pyrrolidone with branched alcohols
Source: Fluid Phase Equilib., 2007, 10.1016/j.fluid.2006.12.012
Compound 1: propan-2-ol, C3H8O, InChI=1S/C3H8O/c1-3(2)4/h3-4H,1-2H3, purity 99%
Compound 2: butan-2-ol, C4H10O, InChI=1S/C4H10O/c1-3-4(2)5/h4-5H,3H2,1-2H3, purity 99%
Compound 3: 2-methyl-1-propanol, C4H10O, InChI=1S/C4H10O/c1-4(2)3-5/h4-5H,3H2,1-2H3, purity 99%
Compound 4: 2-methylpropan-2-ol, C4H10O, InChI=1S/C4H10O/c1-4(2,3)5/h5H,1-3H3, purity 99%
Compound 5: 3-methylbutan-1-ol, C5H12O, InChI=1S/C5H12O/c1-5(2)3-4-6/h5-6H,3-4H2,1-2H3, purity 99%
Compound 6: N-methylpyrrolidone, C5H9NO, InChI=1S/C5H9NO/c1-6-4-2-3-5(6)7/h2-4H2,1H3

System: propan-2-ol; phases: Liquid
Property: Refractive index (Na D-line) (Liquid); method: Standard Abbe refractometry
Temperature, K	Pressure, kPa	Refractive index (Na D-line)	uncertainty
298.15	101.325	1.375	0.0008

System: propan-2-ol; phases: Liquid
Property: Mass density, kg/m3 (Liquid); method: Pycnometric method
Temperature, K	Pressure, kPa	Mass density, kg/m3	uncertainty
298.15	101.325	776.88	0.76

System: butan-2-ol; phases: Liquid
Property: Refractive index (Na D-line) (Liquid); method: Standard Abbe refractometry
Temperature, K	Pressure, kPa	Refractive index (Na D-line)	uncertainty
298.15	101.325	1.3954	0.0008

System: butan-2-ol; phases: Liquid
Property: Mass density, kg/m3 (Liquid); method: Pycnometric method
Temperature, K	Pressure, kPa	Mass density, kg/m3	uncertainty
298.15	101.325	798.92	0.79

System: 2-methyl-1-propanol; phases: Liquid
Property: Refractive index (Na D-line) (Liquid); method: Standard Abbe refractometry
Temperature, K	Pressure, kPa	Refractive index (Na D-line)	uncertainty
298.15	101.325	1.3939	0.0008

System: 2-methyl-1-propanol; phases: Liquid
Property: Mass density, kg/m3 (Liquid); method: Pycnometric method
Temperature, K	Pressure, kPa	Mass density, kg/m3	uncertainty
298.15	101.325	794.34	0.78

System: 2-methylpropan-2-ol; phases: Liquid
Property: Refractive index (Na D-line) (Liquid); method: Standard Abbe refractometry
Temperature, K	Pressure, kPa	Refractive index (Na D-line)	uncertainty
298.15	101.325	1.3851	0.0008

System: 2-methylpropan-2-ol; phases: Liquid
Property: Mass density, kg/m3 (Liquid); method: Pycnometric method
Temperature, K	Pressure, kPa	Mass density, kg/m3	uncertainty
298.15	101.325	776.16	0.76

System: 3-methylbutan-1-ol; phases: Liquid
Property: Refractive index (Na D-line) (Liquid); method: Standard Abbe refractometry
Temperature, K	Pressure, kPa	Refractive index (Na D-line)	uncertainty
298.15	101.325	1.4053	0.0008

System: 3-methylbutan-1-ol; phases: Liquid
Property: Mass density, kg/m3 (Liquid); method: Pycnometric method
Temperature, K	Pressure, kPa	Mass density, kg/m3	uncertainty
298.15	101.325	801.76	0.79

System: N-methylpyrrolidone; phases: Liquid
Property: Refractive index (Na D-line) (Liquid); method: Standard Abbe refractometry
Temperature, K	Pressure, kPa	Refractive index (Na D-line)	uncertainty
298.15	101.325	1.4674	0.0008

System: N-methylpyrrolidone; phases: Liquid
Property: Mass density, kg/m3 (Liquid); method: Pycnometric method
Temperature, K	Pressure, kPa	Mass density, kg/m3	uncertainty
298.15	101.325	1023.4	1.05

System: propan-2-ol + N-methylpyrrolidone; phases: Liquid
Fixed: Pressure, kPa = 101
Fixed: Temperature, K = 298.15
Property: Excess molar enthalpy (molar enthalpy of mixing), kJ/mol (Liquid); method: CALVET:UFactor:4
Mole fraction of N-methylpyrrolidone	Excess molar enthalpy (molar enthalpy of mixing), kJ/mol	uncertainty
0.0516	0.2965	0.0127
0.1082	0.5727	0.0222
0.1702	0.7968	0.03
0.2279	0.9323	0.0346
0.2894	1.0036	0.0371
0.3471	1.0393	0.0383
0.4059	1.0289	0.038
0.4562	0.9944	0.0368
0.595	0.7296	0.0276
0.6888	0.6137	0.0236
0.7874	0.4743	0.0188
0.892	0.2711	0.0118

System: propan-2-ol + N-methylpyrrolidone; phases: Liquid
Fixed: Pressure, kPa = 101
Fixed: Temperature, K = 303.15
Property: Excess molar volume, m3/mol (Liquid); method: Direct dilatometry
Mole fraction of N-methylpyrrolidone	Excess molar volume, m3/mol	uncertainty
0.1498	-5.2e-08	6e-09
0.2066	-7.8e-08	6e-09
0.3202	-1.29e-07	6e-09
0.4317	-1.57e-07	6e-09
0.5027	-1.62e-07	6e-09
0.5854	-1.66e-07	6e-09
0.7216	-1.42e-07	6e-09
0.8148	-1.06e-07	6e-09
0.9062	-5.8e-08	6e-09

System: butan-2-ol + N-methylpyrrolidone; phases: Liquid
Fixed: Pressure, kPa = 101
Fixed: Temperature, K = 298.15
Property: Excess molar enthalpy (molar enthalpy of mixing), kJ/mol (Liquid); method: CALVET:UFactor:4
Mole fraction of N-methylpyrrolidone	Excess molar enthalpy (molar enthalpy of mixing), kJ/mol	uncertainty
0.0691	0.1726	0.0084
0.1595	0.3921	0.016
0.2388	0.5167	0.0203
0.3106	0.5606	0.0218
0.3733	0.5838	0.0226
0.4822	0.5706	0.0221
0.5305	0.5496	0.0214
0.5614	0.5175	0.0203
0.6341	0.4571	0.0182
0.7217	0.365	0.015
0.8176	0.2501	0.0111
0.9067	0.1369	0.0073

System: butan-2-ol + N-methylpyrrolidone; phases: Liquid
Fixed: Pressure, kPa = 101
Fixed: Temperature, K = 303.15
Property: Excess molar volume, m3/mol (Liquid); method: Direct dilatometry
Mole fraction of N-methylpyrrolidone	Excess molar volume, m3/mol	uncertainty
0.1046	-6.5e-08	6e-09
0.1831	-1.26e-07	6e-09
0.249	-1.62e-07	6e-09
0.3096	-1.93e-07	6e-09
0.3777	-2.19e-07	6e-09
0.4817	-2.38e-07	6e-09
0.5739	-2.3e-07	6e-09
0.6355	-2.16e-07	6e-09
0.7494	-1.64e-07	6e-09
0.8086	-1.36e-07	6e-09
0.9142	-6.4e-08	6e-09

System: 2-methyl-1-propanol + N-methylpyrrolidone; phases: Liquid
Fixed: Pressure, kPa = 101
Fixed: Temperature, K = 298.15
Property: Excess molar enthalpy (molar enthalpy of mixing), kJ/mol (Liquid); method: CALVET:UFactor:4
Mole fraction of N-methylpyrrolidone	Excess molar enthalpy (molar enthalpy of mixing), kJ/mol	uncertainty
0.051	0.1533	0.0078
0.1288	0.2737	0.0119
0.2035	0.3556	0.0147
0.2736	0.393	0.016
0.3385	0.4003	0.0163
0.3939	0.3925	0.016
0.4477	0.3774	0.0155
0.4974	0.361	0.0149
0.543	0.3419	0.0142
0.6198	0.27	0.0118
0.6816	0.2446	0.0109
0.748	0.2192	0.01
0.8179	0.1985	0.0093
0.8911	0.1481	0.0077
0.9686	0.0938	0.006

System: 2-methyl-1-propanol + N-methylpyrrolidone; phases: Liquid
Fixed: Pressure, kPa = 101
Fixed: Temperature, K = 303.15
Property: Excess molar volume, m3/mol (Liquid); method: Direct dilatometry
Mole fraction of N-methylpyrrolidone	Excess molar volume, m3/mol	uncertainty
0.1356	-9.8e-08	6e-09
0.2201	-1.47e-07	6e-09
0.2921	-1.74e-07	6e-09
0.4102	-2.06e-07	6e-09
0.5144	-2.26e-07	6e-09
0.5994	-2.32e-07	6e-09
0.6915	-2.21e-07	6e-09
0.8044	-1.86e-07	6e-09
0.9237	-9.6e-08	6e-09

System: 2-methylpropan-2-ol + N-methylpyrrolidone; phases: Liquid
Fixed: Pressure, kPa = 101
Fixed: Temperature, K = 298.15
Property: Excess molar enthalpy (molar enthalpy of mixing), kJ/mol (Liquid); method: CALVET:UFactor:4
Mole fraction of N-methylpyrrolidone	Excess molar enthalpy (molar enthalpy of mixing), kJ/mol	uncertainty
0.0634	0.0932	0.006
0.1313	0.2497	0.0111
0.2034	0.3933	0.016
0.2666	0.4886	0.0193
0.3319	0.5652	0.0219
0.3942	0.6072	0.0234
0.4382	0.5947	0.023
0.4828	0.5874	0.0227
0.5381	0.574	0.0223
0.6026	0.5339	0.0209
0.6733	0.4706	0.0187
0.7442	0.4063	0.0165
0.829	0.277	0.012
0.9194	0.1431	0.0075

System: 2-methylpropan-2-ol + N-methylpyrrolidone; phases: Liquid
Fixed: Pressure, kPa = 101
Fixed: Temperature, K = 303.15
Property: Excess molar volume, m3/mol (Liquid); method: Direct dilatometry
Mole fraction of N-methylpyrrolidone	Excess molar volume, m3/mol	uncertainty
0.1121	-3.2e-08	6e-09
0.2423	-8.4e-08	6e-09
0.3215	-1.16e-07	6e-09
0.4128	-1.36e-07	6e-09
0.4601	-1.52e-07	6e-09
0.5403	-1.48e-07	6e-09
0.6359	-1.42e-07	6e-09
0.7246	-1.18e-07	6e-09
0.8032	-9e-08	6e-09
0.8404	-6.4e-08	6e-09
0.9238	-2.6e-08	6e-09

System: 3-methylbutan-1-ol + N-methylpyrrolidone; phases: Liquid
Fixed: Pressure, kPa = 101
Fixed: Temperature, K = 298.15
Property: Excess molar enthalpy (molar enthalpy of mixing), kJ/mol (Liquid); method: CALVET:UFactor:4
Mole fraction of N-methylpyrrolidone	Excess molar enthalpy (molar enthalpy of mixing), kJ/mol	uncertainty
0.0777	0.1647	0.0082
0.149	0.3041	0.0129
0.2286	0.4207	0.017
0.3011	0.4684	0.0186
0.3692	0.5016	0.0198
0.4301	0.4968	0.0196
0.4847	0.4846	0.0192
0.5348	0.4708	0.0187
0.5484	0.4789	0.019
0.5792	0.4508	0.018
0.6031	0.4317	0.0173
0.6712	0.3781	0.0155
0.744	0.3255	0.0137
0.8153	0.2574	0.0113
0.8821	0.1739	0.0085
0.9444	0.0886	0.0058

System: 3-methylbutan-1-ol + N-methylpyrrolidone; phases: Liquid
Fixed: Pressure, kPa = 101
Fixed: Temperature, K = 303.15
Property: Excess molar volume, m3/mol (Liquid); method: Direct dilatometry
Mole fraction of N-methylpyrrolidone	Excess molar volume, m3/mol	uncertainty
0.0999	-7.8e-08	6e-09
0.2737	-1.69e-07	6e-09
0.3718	-1.97e-07	6e-09
0.4155	-2.09e-07	6e-09
0.5254	-2.01e-07	6e-09
0.6399	-1.76e-07	6e-09
0.7034	-1.49e-07	6e-09
0.8699	-7.3e-08	6e-09
0.9384	-3.6e-08	6e-09
