Measured thermophysical data. (Liquid + liquid) equilibria for the quaternary system water + methyl tert-butyl ether + ethanol + benzene at 303.15K
Source: Fluid Phase Equilib., 2006, 10.1016/j.fluid.2006.09.011
Compound 1: water, H2O, InChI=1S/H2O/h1H2
Compound 2: 2-methoxy-2-methylpropane, C5H12O, InChI=1S/C5H12O/c1-5(2,3)6-4/h1-4H3
Compound 3: ethanol, C2H6O, InChI=1S/C2H6O/c1-2-3/h3H,2H2,1H3

System: ethanol + 2-methoxy-2-methylpropane + water; phases: Liquid mixture 1, Liquid mixture 2
Fixed: Pressure, kPa = 101.3
Fixed: Temperature, K = 303.15
Property: Mass fraction of 2-methoxy-2-methylpropane (Liquid mixture 1); method: Chromatography
Property: Mass fraction of water (Liquid mixture 2); method: Chromatography
Property: Mass fraction of 2-methoxy-2-methylpropane (Liquid mixture 2); method: Chromatography
Mass fraction of water	Mass fraction of 2-methoxy-2-methylpropane	uncertainty	Mass fraction of water	uncertainty	Mass fraction of 2-methoxy-2-methylpropane	uncertainty
0.921	0.038	0.006	0.017	0.006	0.967	
0.907	0.041	0.006	0.019	0.006	0.96	
0.878	0.043	0.006	0.022	0.006	0.941	
0.851	0.045	0.006	0.035	0.006	0.913	
0.823	0.049	0.006	0.042	0.006	0.884	
0.814	0.049	0.006	0.047	0.006	0.86	
0.792	0.052	0.006	0.059	0.006	0.829	
0.773	0.059	0.006	0.08	0.006	0.773	
0.752	0.063	0.006	0.096	0.006	0.738	
0.694	0.086	0.006	0.161	0.007	0.609	
0.407	0.272	0.006	0.407	0.023	0.272	
0.42	0.273	0.006	0.42	0.023	0.273	
