Measured thermophysical data. Quaternary phase equilibrium of water-carboxylic acid mixture (formic-propionic acid or acetic-propionic acid)-solvent liquid systems at 298.15 K
Source: Fluid Phase Equilib., 2011, 10.1016/j.fluid.2011.09.014
Compound 1: water, H2O, InChI=1S/H2O/h1H2
Compound 2: 2,6-dimethyl-4-heptanone, C9H18O, InChI=1S/C9H18O/c1-7(2)5-9(10)6-8(3)4/h7-8H,5-6H2,1-4H3
Compound 3: 4,6-dimethyl-2-heptanone, C9H18O, InChI=1S/C9H18O/c1-7(2)5-8(3)6-9(4)10/h7-8H,5-6H2,1-4H3
Compound 4: formic acid, CH2O2, InChI=1S/CH2O2/c2-1-3/h1H,(H,2,3)
Compound 5: acetic acid, C2H4O2, InChI=1S/C2H4O2/c1-2(3)4/h1H3,(H,3,4)
Compound 6: propanoic acid, C3H6O2, InChI=1S/C3H6O2/c1-2-3(4)5/h2H2,1H3,(H,4,5)
Compound 7: pentyl ethanoate, C7H14O2, InChI=1S/C7H14O2/c1-3-4-5-6-9-7(2)8/h3-6H2,1-2H3
Compound 8: diisopropyl ether, C6H14O, InChI=1S/C6H14O/c1-5(2)7-6(3)4/h5-6H,1-4H3

System: formic acid; phases: Liquid, Gas
Property: Normal boiling temperature, K (Liquid); method: Closed cell (Static) method
Normal boiling temperature, K	uncertainty
374.05	0.2

System: formic acid; phases: Liquid
Property: Refractive index (Na D-line) (Liquid); method: Standard Abbe refractometry
Temperature, K	Pressure, kPa	Refractive index (Na D-line)	uncertainty
293.15	101.325	1.3711	0.0006

System: formic acid; phases: Liquid
Property: Mass density, kg/m3 (Liquid); method: Vibrating tube method
Temperature, K	Pressure, kPa	Mass density, kg/m3	uncertainty
293.15	101.325	1218.5	1.4

System: acetic acid; phases: Liquid, Gas
Property: Normal boiling temperature, K (Liquid); method: Closed cell (Static) method
Normal boiling temperature, K	uncertainty
391.05	0.2

System: acetic acid; phases: Liquid
Property: Refractive index (Na D-line) (Liquid); method: Standard Abbe refractometry
Temperature, K	Pressure, kPa	Refractive index (Na D-line)	uncertainty
293.15	101.325	1.3721	0.0004

System: acetic acid; phases: Liquid
Property: Mass density, kg/m3 (Liquid); method: Vibrating tube method
Temperature, K	Pressure, kPa	Mass density, kg/m3	uncertainty
298.15	101.325	1044.5	0.6

System: propanoic acid; phases: Liquid, Gas
Property: Normal boiling temperature, K (Liquid); method: Closed cell (Static) method
Normal boiling temperature, K	uncertainty
414.25	0.2

System: propanoic acid; phases: Liquid
Property: Refractive index (Na D-line) (Liquid); method: Standard Abbe refractometry
Temperature, K	Pressure, kPa	Refractive index (Na D-line)	uncertainty
293.15	101.325	1.3808	0.0004

System: propanoic acid; phases: Liquid
Property: Mass density, kg/m3 (Liquid); method: Vibrating tube method
Temperature, K	Pressure, kPa	Mass density, kg/m3	uncertainty
298.15	101.325	988.1	0.5

System: pentyl ethanoate; phases: Liquid, Gas
Property: Normal boiling temperature, K (Liquid); method: Closed cell (Static) method
Normal boiling temperature, K	uncertainty
422.25	0.2

System: pentyl ethanoate; phases: Liquid
Property: Refractive index (Na D-line) (Liquid); method: Standard Abbe refractometry
Temperature, K	Pressure, kPa	Refractive index (Na D-line)	uncertainty
293.15	101.325	1.4025	0.0006

System: pentyl ethanoate; phases: Liquid
Property: Mass density, kg/m3 (Liquid); method: Vibrating tube method
Temperature, K	Pressure, kPa	Mass density, kg/m3	uncertainty
293.15	101.325	875.9	0.8

System: diisopropyl ether; phases: Liquid, Gas
Property: Normal boiling temperature, K (Liquid); method: Closed cell (Static) method
Normal boiling temperature, K	uncertainty
341.35	0.2

System: diisopropyl ether; phases: Liquid
Property: Refractive index (Na D-line) (Liquid); method: Standard Abbe refractometry
Temperature, K	Pressure, kPa	Refractive index (Na D-line)	uncertainty
298.15	101.325	1.3655	0.0004

System: diisopropyl ether; phases: Liquid
Property: Mass density, kg/m3 (Liquid); method: Vibrating tube method
Temperature, K	Pressure, kPa	Mass density, kg/m3	uncertainty
298.15	101.325	719	0.4

System: pentyl ethanoate + water; phases: Liquid mixture 1, Liquid mixture 2
Fixed: Temperature, K = 298.15
Fixed: Pressure, kPa = 101
Property: Mass fraction of pentyl ethanoate (Liquid mixture 1); method: Chromatography
Mass fraction of pentyl ethanoate	uncertainty
0.005	0.001
0.9895	0.0001

System: 2,6-dimethyl-4-heptanone + 4,6-dimethyl-2-heptanone; phases: Liquid
Property: Refractive index (Na D-line) (Liquid); method: Standard Abbe refractometry
Temperature, K	Pressure, kPa	Mole fraction of 2,6-dimethyl-4-heptanone	Refractive index (Na D-line)	uncertainty
294.15	101	0.75	1.4118	0.0005

System: 2,6-dimethyl-4-heptanone + 4,6-dimethyl-2-heptanone; phases: Liquid
Property: Mass density, kg/m3 (Liquid); method: Vibrating tube method
Temperature, K	Pressure, kPa	Mole fraction of 2,6-dimethyl-4-heptanone	Mass density, kg/m3	uncertainty
293.15	101	0.75	806.5	0.5

System: 2,6-dimethyl-4-heptanone + 4,6-dimethyl-2-heptanone; phases: Liquid, Gas
Property: Boiling temperature at pressure P, K (Liquid); method: Closed cell (Static) method
Mole fraction of 2,6-dimethyl-4-heptanone	Pressure, kPa	Boiling temperature at pressure P, K	uncertainty
0.75	101	442.75	0.2
