Measured thermophysical data. Density and phase equilibrium of the binary system methane + n-decane under high temperatures and pressures
Source: Fluid Phase Equilib., 2016, 10.1016/j.fluid.2016.08.004
Compound 1: methane, CH4, InChI=1S/CH4/h1H4, purity 99.9995%
Compound 2: decane, C10H22, InChI=1S/C10H22/c1-3-5-7-9-10-8-6-4-2/h3-10H2,1-2H3, purity 99%

System: methane + decane; phases: Liquid
Property: Mass density, kg/m3 (Liquid); method: Vibrating tube method
Mole fraction of methane	Temperature, K	Pressure, kPa	Mass density, kg/m3	uncertainty
0	278.15	100	741.6	0.7
0	278.15	1000	742.3	0.7
0	278.15	5000	745.1	0.8
0	278.15	10000	748.3	0.8
0	278.15	20000	754.3	0.8
0	278.15	40000	765.6	0.9
0	278.15	60000	775.3	1
0	278.15	80000	783.4	1.1
0	278.15	100000	791.2	1.2
0	278.15	120000	798.9	1.3
0	278.15	140000	805.6	1.4
0	298.15	100	726.8	0.8
0	298.15	1000	727.5	0.7
0	298.15	5000	730.6	0.8
0	298.15	10000	734.3	0.8
0	298.15	20000	740.9	0.8
0	298.15	40000	753.2	0.9
0	298.15	60000	763.6	1
0	298.15	80000	772.1	1.1
0	298.15	100000	780.4	1.2
0	298.15	120000	788.4	1.3
0	298.15	140000	795.4	1.4
0	323.15	100	707.8	0.8
0	323.15	1000	708.6	0.7
0	323.15	5000	712.3	0.8
0	323.15	10000	716.5	0.8
0	323.15	20000	724.3	0.8
0	323.15	40000	738.1	0.9
0	323.15	60000	749.6	1
0	323.15	80000	758.8	1.1
0	323.15	100000	767.7	1.3
0	323.15	120000	776.3	1.4
0	323.15	140000	783.9	1.5
0	348.15	100	688.2	0.8
0	348.15	1000	689.3	0.8
0	348.15	5000	693.5	0.8
0	348.15	10000	698.4	0.8
0	348.15	20000	707.3	0.8
0	348.15	40000	722.8	0.9
0	348.15	60000	735.4	1.1
0	348.15	80000	745.6	1.2
0	348.15	100000	755.1	1.3
0	348.15	120000	764.3	1.4
0	348.15	140000	772.5	1.5
0	373.15	100	668.6	5
0	373.15	1000	669.3	3
0	373.15	5000	674.3	3
0	373.15	10000	680	3
0	373.15	20000	690.2	3
0	373.15	40000	707.4	3.1
0	373.15	60000	721.3	3.1
0	373.15	80000	732.5	3.2
0	373.15	100000	742.8	3.2
0	373.15	120000	752.5	3.3
0	373.15	140000	761.1	3.3
0	423.15	100	626.1	5
0	423.15	1000	627.5	5
0	423.15	5000	634.7	3
0	423.15	10000	642.8	3
0	423.15	20000	656.2	3
0	423.15	40000	677.5	3.1
0	423.15	60000	694.1	3.1
0	423.15	80000	707.5	3.2
0	423.15	100000	719.3	3.2
0	423.15	120000	730	3.3
0	423.15	140000	739.4	3.4
0	463.15	1000	591	3
0	463.15	5000	600.5	3
0	463.15	10000	611.3	3
0	463.15	20000	628.5	3.1
0	463.15	40000	653.8	3.1
0	463.15	60000	672.8	3.1
0	463.15	80000	688	3.2
0	463.15	100000	701.1	3.3
0	463.15	120000	712.7	3.3
0	463.15	140000	723.3	3.4
0.2272	278.15	10000	719.7	0.8
0.2272	278.15	20000	726.6	0.8
0.2272	278.15	40000	739.1	0.9
0.2272	278.15	60000	749.9	1
0.2272	278.15	80000	758.7	1.1
0.2272	278.15	100000	767.1	1.2
0.2272	278.15	120000	775.3	1.3
0.2272	278.15	140000	782.5	1.4
0.2272	298.15	10000	704.5	0.8
0.2272	298.15	20000	712.2	0.8
0.2272	298.15	40000	726	0.9
0.2272	298.15	60000	737.5	1
0.2272	298.15	80000	746.9	1.1
0.2272	298.15	100000	755.8	1.3
0.2272	298.15	120000	764.4	1.4
0.2272	298.15	140000	771.9	1.5
0.2272	323.15	10000	685.3	0.8
0.2272	323.15	20000	694.5	0.8
0.2272	323.15	40000	710.2	0.9
0.2272	323.15	60000	723	1.1
0.2272	323.15	80000	733.2	1.2
0.2272	323.15	100000	742.8	1.3
0.2272	323.15	120000	752.1	1.4
0.2272	323.15	140000	760.2	1.5
0.2272	348.15	10000	665.4	0.8
0.2272	348.15	20000	676.2	0.8
0.2272	348.15	40000	694	1
0.2272	348.15	60000	708.1	1.1
0.2272	348.15	80000	719.4	1.2
0.2272	348.15	100000	729.8	1.3
0.2272	348.15	120000	739.6	1.5
0.2272	348.15	140000	748.3	1.6
0.2272	373.15	10000	645	3
0.2272	373.15	20000	657.6	3
0.2272	373.15	40000	677.7	3.1
0.2272	373.15	60000	693.3	3.1
0.2272	373.15	80000	705.7	3.2
0.2272	373.15	100000	716.9	3.2
0.2272	373.15	120000	727.4	3.3
0.2272	373.15	140000	736.6	3.3
0.2272	423.15	10000	602.7	3
0.2272	423.15	20000	620.2	3.1
0.2272	423.15	40000	645.8	3.1
0.2272	423.15	60000	664.8	3.1
0.2272	423.15	80000	679.8	3.2
0.2272	423.15	100000	692.9	3.3
0.2272	423.15	120000	704.4	3.3
0.2272	423.15	140000	714.7	3.4
0.2272	463.15	10000	565.5	3.1
0.2272	463.15	20000	589.1	3.1
0.2272	463.15	40000	620.5	3.1
0.2272	463.15	60000	642.6	3.2
0.2272	463.15	80000	659.7	3.2
0.2272	463.15	100000	674.2	3.3
0.2272	463.15	120000	686.9	3.4
0.2272	463.15	140000	698.5	3.4
0.452	278.15	20000	679.8	0.8
0.452	278.15	40000	695.9	0.9
0.452	278.15	60000	708.4	1.1
0.452	278.15	80000	718.5	1.2
0.452	278.15	100000	727.9	1.3
0.452	278.15	120000	736.9	1.5
0.452	278.15	140000	744.7	1.6
0.452	298.15	20000	663.8	0.8
0.452	298.15	40000	681.7	1
0.452	298.15	60000	695.3	1.1
0.452	298.15	80000	706.1	1.2
0.452	298.15	100000	716.2	1.4
0.452	298.15	120000	725.7	1.5
0.452	298.15	140000	733.9	1.6
0.452	323.15	20000	643.7	0.9
0.452	323.15	40000	664.3	1
0.452	323.15	60000	679.6	1.1
0.452	323.15	80000	691.5	1.3
0.452	323.15	100000	702.4	1.4
0.452	323.15	120000	712.6	1.6
0.452	323.15	140000	721.5	1.7
0.452	348.15	20000	622.7	0.9
0.452	348.15	40000	646.6	1
0.452	348.15	60000	663.7	1.1
0.452	348.15	80000	676.9	1.3
0.452	348.15	100000	688.7	1.5
0.452	348.15	120000	699.7	1.6
0.452	348.15	140000	709.2	1.8
0.452	373.15	20000	600.8	3
0.452	373.15	40000	628.4	3.1
0.452	373.15	60000	647.6	3.1
0.452	373.15	80000	662.3	3.2
0.452	373.15	100000	675.1	3.3
0.452	373.15	120000	686.7	3.4
0.452	373.15	140000	696.9	3.4
0.452	423.15	20000	556.5	3.1
0.452	423.15	40000	593.1	3.1
0.452	423.15	60000	616.9	3.2
0.452	423.15	80000	634.7	3.2
0.452	423.15	100000	649.7	3.3
0.452	423.15	120000	662.7	3.4
0.452	423.15	140000	674	3.5
0.452	463.15	20000	520.4	3.1
0.452	463.15	40000	565.6	3.1
0.452	463.15	60000	593.5	3.2
0.452	463.15	80000	614	3.3
0.452	463.15	100000	630.7	3.4
0.452	463.15	120000	645.1	3.5
0.452	463.15	140000	657.9	3.5
0.6017	278.15	40000	653.1	3.1
0.6017	278.15	60000	667.8	1.1
0.6017	278.15	80000	679.6	1.3
0.6017	278.15	100000	689.7	1.4
0.6017	278.15	120000	699.1	1.6
0.6017	278.15	140000	707.6	1.8
0.6017	298.15	40000	635.8	1
0.6017	298.15	60000	652	1.2
0.6017	298.15	80000	664.9	1.3
0.6017	298.15	100000	676	1.5
0.6017	298.15	120000	686.2	1.7
0.6017	298.15	140000	695.4	1.8
0.6017	323.15	40000	616.1	1
0.6017	323.15	60000	634.5	1.2
0.6017	323.15	80000	648.8	1.4
0.6017	323.15	100000	661.1	1.5
0.6017	323.15	120000	672.4	1.7
0.6017	323.15	140000	682.6	1.9
0.6017	348.15	40000	597	1.1
0.6017	348.15	60000	617.7	1.2
0.6017	348.15	80000	633.6	1.4
0.6017	348.15	100000	647	1.6
0.6017	348.15	120000	659.2	1.8
0.6017	348.15	140000	670.3	2
0.6017	373.15	40000	577.7	1.1
0.6017	373.15	60000	601	3.2
0.6017	373.15	80000	618.6	3.3
0.6017	373.15	100000	633.2	3.3
0.6017	373.15	120000	646.2	3.4
0.6017	373.15	140000	658.1	3.5
0.6017	423.15	40000	539.9	3.1
0.6017	423.15	60000	568.8	3.2
0.6017	423.15	80000	590.1	3.3
0.6017	423.15	100000	607	3.4
0.6017	423.15	120000	621.6	3.5
0.6017	423.15	140000	634.8	3.6
0.6017	463.15	40000	510.3	3.2
0.6017	463.15	60000	544.1	3.2
0.6017	463.15	80000	568.3	3.3
0.6017	463.15	100000	587.3	3.4
0.6017	463.15	120000	603.3	3.5
0.6017	463.15	140000	618.1	3.7
0.7085	278.15	40000	598.1	1.1
0.7085	278.15	60000	616.3	1.3
0.7085	278.15	80000	630.1	1.4
0.7085	278.15	100000	642.1	1.6
0.7085	278.15	120000	653	1.8
0.7085	278.15	140000	662.4	2
0.7085	298.15	40000	582.2	1.1
0.7085	298.15	60000	602.4	1.3
0.7085	298.15	80000	617.4	1.5
0.7085	298.15	100000	630.4	1.7
0.7085	298.15	120000	642.1	1.9
0.7085	298.15	140000	652.1	2.1
0.7085	323.15	40000	560.5	1.2
0.7085	323.15	60000	583.9	1.3
0.7085	323.15	80000	600.7	1.5
0.7085	323.15	100000	615	1.7
0.7085	323.15	120000	627.8	1.9
0.7085	323.15	140000	638.7	2.2
0.7085	348.15	40000	538.2	1.2
0.7085	348.15	60000	565.2	1.4
0.7085	348.15	80000	584.2	1.6
0.7085	348.15	100000	599.9	1.8
0.7085	348.15	120000	613.7	2
0.7085	348.15	140000	625.5	2.2
0.7085	373.15	40000	515.7	3.2
0.7085	373.15	60000	546.7	3.2
0.7085	373.15	80000	568.1	3.3
0.7085	373.15	100000	585.3	3.4
0.7085	373.15	120000	600.1	3.6
0.7085	373.15	140000	612.7	3.7
0.7085	423.15	40000	473	3.2
0.7085	423.15	60000	512.3	3.3
0.7085	423.15	80000	538.5	3.4
0.7085	423.15	100000	558.7	3.5
0.7085	423.15	120000	575.4	3.6
0.7085	423.15	140000	589.4	3.7
0.7085	463.15	40000	443.2	3.2
0.7085	463.15	60000	488.3	3.3
0.7085	463.15	80000	517.9	3.4
0.7085	463.15	100000	540.3	3.5
0.7085	463.15	120000	558.4	3.7
0.7085	463.15	140000	573.7	3.8
0.8496	278.15	40000	494.9	1.2
0.8496	278.15	60000	521.2	1.5
0.8496	278.15	80000	539.4	1.7
0.8496	278.15	100000	554	2
0.8496	278.15	120000	566.9	2.2
0.8496	278.15	140000	577.9	2.5
0.8496	298.15	40000	472.4	1.2
0.8496	298.15	60000	504.8	1.5
0.8496	298.15	80000	524.4	1.7
0.8496	298.15	100000	540.3	2
0.8496	298.15	120000	553.9	2.3
0.8496	298.15	140000	565.3	2.6
0.8496	323.15	40000	450.8	1.2
0.8496	323.15	60000	485.2	1.5
0.8496	323.15	80000	507.5	1.8
0.8496	323.15	100000	525.2	2.1
0.8496	323.15	120000	540.4	2.4
0.8496	323.15	140000	552.9	2.7
0.8496	348.15	40000	427.3	1.2
0.8496	348.15	60000	465.1	1.5
0.8496	348.15	80000	490.2	1.8
0.8496	348.15	100000	509.5	2.2
0.8496	348.15	120000	525.8	2.5
0.8496	348.15	140000	539.4	2.7
0.8496	373.15	40000	405	3.1
0.8496	373.15	60000	448.6	3.3
0.8496	373.15	80000	476.2	3.4
0.8496	373.15	100000	497.1	3.6
0.8496	373.15	120000	514	3.8
0.8496	373.15	140000	527.3	3.9
0.8496	423.15	40000	364.7	3.1
0.8496	423.15	60000	412.4	3.2
0.8496	423.15	80000	444.6	3.4
0.8496	423.15	100000	468.8	3.6
0.8496	423.15	120000	488.3	3.8
0.8496	423.15	140000	503.7	4
0.8496	463.15	40000	334.5	3.1
0.8496	463.15	60000	390.1	3.2
0.8496	463.15	80000	425.2	3.3
0.8496	463.15	100000	451.1	3.5
0.8496	463.15	120000	470.8	3.7
0.8496	463.15	140000	487.1	4

System: methane + decane; phases: Gas, Liquid
Property: Vapor or sublimation pressure, kPa (Gas); method: visual observation
Mole fraction of methane	Temperature, K	Vapor or sublimation pressure, kPa	uncertainty
0.4031	303.18	11300	880
0.4031	310.94	11660	900
0.4031	323.08	12130	940
0.4031	338.01	12660	980
0.4031	347.96	12920	1000
0.4031	377.27	13490	1050
0.4031	398	13700	1060
0.4031	410.66	13770	1070
0.4031	422.89	13780	1070
0.4031	443.75	13700	1060
0.4031	472.14	13420	1040
0.6021	294.12	21150	1640
0.6021	303.19	21650	1680
0.6021	311.04	22030	1710
0.6021	323.17	22550	1750
0.6021	344.22	23220	1800
0.6021	348.09	23290	1800
0.6021	373.1	23590	1830
0.6021	377.3	23610	1830
0.6021	394.17	23570	1830
0.6021	410.85	23360	1810
0.6021	423.09	23110	1790
0.6021	444.4	22450	1740
0.6021	448.11	22310	1730
0.6021	472.47	21140	1640
0.8496	293.15	35940	2780
0.8496	298.21	35980	2790
0.8496	303.19	35960	2790
0.8496	310.92	35900	2780
0.8496	320.7	35780	2770
0.8496	333.42	35520	2750
0.8496	349.99	35040	2710
0.8496	377.14	33660	2610
0.8496	397.96	32210	2500

System: methane + decane; phases: Gas, Liquid
Fixed: Mole fraction of methane = 0.8496
Property: Vapor or sublimation pressure, kPa (Gas); method: visual observation
Temperature, K	Vapor or sublimation pressure, kPa	uncertainty
410.66	31160	2410
422.85	30060	2330
443.7	27810	2150
472.12	24410	1890
