Measured thermophysical data. Experimental and predicted vapour-liquid equilibrium of the binary mixtures n-heptane + chlorobutane isomers
Source: Fluid Phase Equilib., 2016, 10.1016/j.fluid.2015.09.031
Compound 1: heptane, C7H16, InChI=1S/C7H16/c1-3-5-7-6-4-2/h3-7H2,1-2H3, purity 99%
Compound 2: 1-chlorobutane, C4H9Cl, InChI=1S/C4H9Cl/c1-2-3-4-5/h2-4H2,1H3, purity 99%
Compound 3: 2-chlorobutane, C4H9Cl, InChI=1S/C4H9Cl/c1-3-4(2)5/h4H,3H2,1-2H3, purity 99%
Compound 4: 1-chloro-2-methylpropane, C4H9Cl, InChI=1S/C4H9Cl/c1-4(2)3-5/h4H,3H2,1-2H3, purity 99%
Compound 5: 2-chloro-2-methylpropane, C4H9Cl, InChI=1S/C4H9Cl/c1-4(2,3)5/h1-3H3, purity 99%

System: heptane; phases: Liquid, Gas
Property: Vapor or sublimation pressure, kPa (Liquid); method: Ebulliometric method (Recirculating still)
Temperature, K	Vapor or sublimation pressure, kPa	uncertainty
288.15	3.63	0.1
298.15	6.095	0.101
308.15	9.865	0.101

System: 1-chlorobutane; phases: Liquid, Gas
Property: Vapor or sublimation pressure, kPa (Liquid); method: Ebulliometric method (Recirculating still)
Temperature, K	Vapor or sublimation pressure, kPa	uncertainty
288.15	8.4	0.101
298.15	13.515	0.102
308.15	21.035	0.104

System: 2-chlorobutane; phases: Liquid, Gas
Property: Vapor or sublimation pressure, kPa (Liquid); method: Ebulliometric method (Recirculating still)
Temperature, K	Vapor or sublimation pressure, kPa	uncertainty
288.15	13.36	0.102
298.15	20.905	0.104
308.15	31.55	0.107

System: 1-chloro-2-methylpropane; phases: Liquid, Gas
Property: Vapor or sublimation pressure, kPa (Liquid); method: Ebulliometric method (Recirculating still)
Temperature, K	Vapor or sublimation pressure, kPa	uncertainty
288.15	13	0.102
298.15	20.35	0.104
308.15	30.45	0.107

System: 2-chloro-2-methylpropane; phases: Liquid, Gas
Property: Vapor or sublimation pressure, kPa (Liquid); method: Ebulliometric method (Recirculating still)
Temperature, K	Vapor or sublimation pressure, kPa	uncertainty
288.15	26.42	0.107
298.15	40.13	0.113
308.15	59.52	0.123

System: 1-chlorobutane + heptane; phases: Liquid, Gas
Property: Vapor or sublimation pressure, kPa (Liquid); method: Ebulliometric method (Recirculating still)
Mole fraction of heptane	Temperature, K	Vapor or sublimation pressure, kPa	uncertainty
0	288.15	8.4	0.121
0.0565	288.15	8.265	0.121
0.0845	288.15	8.17	0.121
0.1126	288.15	8.12	0.12
0.1488	288.15	8.01	0.12
0.1934	288.15	7.85	0.12
0.2463	288.15	7.695	0.119
0.306	288.15	7.51	0.119
0.3805	288.15	7.27	0.119
0.4912	288.15	6.845	0.118
0.5628	288.15	6.535	0.117
0.6153	288.15	6.32	0.117
0.6532	288.15	6.13	0.117
0.7486	288.15	5.565	0.115
0.8086	288.15	5.23	0.115
0.8562	288.15	4.88	0.115
0.932	288.15	4.29	0.114
1	288.15	3.63	0.111
0	298.15	13.515	0.133
0.0557	298.15	13.315	0.133
0.0837	298.15	13.2	0.133
0.1115	298.15	13.105	0.133
0.1469	298.15	12.91	0.132
0.19	298.15	12.73	0.132
0.2409	298.15	12.5	0.131
0.2981	298.15	12.185	0.13
0.3699	298.15	11.815	0.13
0.4782	298.15	11.195	0.128
0.5496	298.15	10.745	0.127
0.6026	298.15	10.33	0.125
0.6413	298.15	10.06	0.126
0.7395	298.15	9.245	0.123
0.8015	298.15	8.63	0.122
0.8504	298.15	8.095	0.123
0.9269	298.15	7.185	0.121
1	298.15	6.095	0.116
0	308.15	21.035	0.155
0.0553	308.15	20.775	0.155
0.0831	308.15	20.555	0.154
0.1107	308.15	20.41	0.154
0.1459	308.15	20.17	0.153
0.1888	308.15	19.85	0.152
0.2395	308.15	19.55	0.151
0.2967	308.15	19.065	0.15
0.3689	308.15	18.455	0.148
0.4794	308.15	17.515	0.145
0.5538	308.15	16.83	0.144
0.6101	308.15	16.19	0.142
0.6518	308.15	15.7	0.141
0.7609	308.15	14.385	0.138
0.8326	308.15	13.325	0.137
0.891	308.15	12.295	0.135
0.923	308.15	11.615	0.136
1	308.15	9.865	0.124

System: 1-chlorobutane + heptane; phases: Gas, Liquid
Property: Mole fraction of heptane (Gas); method: Density calibration data
Mole fraction of heptane	Temperature, K	Mole fraction of heptane	uncertainty
0	288.15	0	
0.0565	288.15	0.0364	0.0364
0.0845	288.15	0.0527	0.0527
0.1126	288.15	0.0694	0.0694
0.1488	288.15	0.0912	0.0912
0.1934	288.15	0.1183	0.1
0.2463	288.15	0.1502	0.1
0.306	288.15	0.1854	0.1
0.3805	288.15	0.2283	0.1
0.4912	288.15	0.2924	0.1
0.5628	288.15	0.3375	0.1
0.6153	288.15	0.3747	0.1
0.6532	288.15	0.4048	0.1
0.7486	288.15	0.4984	0.1001
0.8086	288.15	0.5752	0.1001
0.8562	288.15	0.6495	0.1001
0.932	288.15	0.798	0.1001
1	288.15	1	
0	298.15	0	
0.0557	298.15	0.0375	0.0375
0.0837	298.15	0.0548	0.0548
0.1115	298.15	0.0723	0.0723
0.1469	298.15	0.0947	0.0947
0.19	298.15	0.1221	0.1
0.2409	298.15	0.1542	0.1
0.2981	298.15	0.1897	0.1
0.3699	298.15	0.2334	0.1
0.4782	298.15	0.2995	0.1
0.5496	298.15	0.3462	0.1
0.6026	298.15	0.3845	0.1
0.6413	298.15	0.4155	0.1
0.7395	298.15	0.5111	0.1001
0.8015	298.15	0.5889	0.1001
0.8504	298.15	0.663	0.1001
0.9269	298.15	0.8075	0.1001
1	298.15	1	
0	308.15	0	
0.0553	308.15	0.0388	0.0388
0.0831	308.15	0.057	0.057
0.1107	308.15	0.075	0.075
0.1459	308.15	0.0977	0.0977
0.1888	308.15	0.125	0.1
0.2395	308.15	0.1567	0.1
0.2967	308.15	0.1919	0.1
0.3689	308.15	0.236	0.1
0.4794	308.15	0.3058	0.1
0.5538	308.15	0.3573	0.1
0.6101	308.15	0.4008	0.1
0.6518	308.15	0.4365	0.1001
0.7609	308.15	0.5494	0.1001
0.8326	308.15	0.6443	0.1001
0.891	308.15	0.7207	0.1001
0.923	308.15	0.79	0.1002
1	308.15	1	

System: 2-chlorobutane + heptane; phases: Liquid, Gas
Property: Vapor or sublimation pressure, kPa (Liquid); method: Ebulliometric method (Recirculating still)
Mole fraction of heptane	Temperature, K	Vapor or sublimation pressure, kPa	uncertainty
0	288.15	13.36	0.133
0.088	288.15	12.595	0.132
0.1353	288.15	12.295	0.131
0.2543	288.15	11.415	0.129
0.2945	288.15	11.005	0.128
0.3495	288.15	10.755	0.127
0.3874	288.15	10.35	0.127
0.4133	288.15	10.145	0.126
0.4457	288.15	9.89	0.125
0.5298	288.15	9.285	0.124
0.5794	288.15	8.79	0.123
0.6343	288.15	8.375	0.122
0.694	288.15	7.75	0.122
0.7275	288.15	7.275	0.12
0.7862	288.15	6.85	0.119
0.8377	288.15	6.14	0.119
0.8694	288.15	5.75	0.118
0.9236	288.15	4.995	0.118
0.9533	288.15	4.505	0.118
1	288.15	3.63	0.111
0	298.15	20.905	0.155
0.0867	298.15	19.765	0.153
0.1306	298.15	19.33	0.153
0.2456	298.15	17.98	0.147
0.294	298.15	17.41	0.146
0.3355	298.15	16.965	0.144
0.3749	298.15	16.395	0.142
0.4199	298.15	16.085	0.142
0.4386	298.15	15.68	0.151
0.5156	298.15	14.735	0.138
0.5711	298.15	13.955	0.137
0.6237	298.15	13.275	0.135
0.6774	298.15	12.46	0.132
0.715	298.15	11.97	0.133
0.7709	298.15	10.95	0.131
0.8209	298.15	10.005	0.128
0.8649	298.15	9.26	0.13
0.9207	298.15	8.025	0.125
0.9451	298.15	7.49	0.13
1	298.15	6.095	0.116
0	308.15	31.55	0.19
0.0867	308.15	30.02	0.188
0.1302	308.15	29.305	0.185
0.2488	308.15	27.33	0.179
0.2916	308.15	26.555	0.176
0.337	308.15	25.805	0.174
0.3811	308.15	24.995	0.171
0.4133	308.15	24.445	0.17
0.4382	308.15	23.975	0.169
0.5196	308.15	22.41	0.164
0.5746	308.15	21.35	0.161
0.6223	308.15	20.42	0.159
0.6759	308.15	19.22	0.156
0.7278	308.15	18.095	0.153
0.7672	308.15	17.125	0.153
0.8322	308.15	15.365	0.149
0.8612	308.15	14.525	0.149
0.9252	308.15	12.575	0.145
0.9448	308.15	11.855	0.148
1	308.15	9.865	0.124

System: 2-chlorobutane + heptane; phases: Gas, Liquid
Property: Mole fraction of heptane (Gas); method: Density calibration data
Mole fraction of heptane	Temperature, K	Mole fraction of heptane	uncertainty
0	288.15	0	
0.088	288.15	0.0381	0.0381
0.1353	288.15	0.0561	0.0561
0.2543	288.15	0.1112	0.1
0.2945	288.15	0.1264	0.1
0.3495	288.15	0.1431	0.1
0.3874	288.15	0.1509	0.1
0.4133	288.15	0.1799	0.1
0.4457	288.15	0.1876	0.1
0.5298	288.15	0.2315	0.1
0.5794	288.15	0.2492	0.1
0.6343	288.15	0.2932	0.1
0.694	288.15	0.3403	0.1
0.7275	288.15	0.3623	0.1
0.7862	288.15	0.4331	0.1001
0.8377	288.15	0.4959	0.1001
0.8694	288.15	0.5503	0.1002
0.9236	288.15	0.6759	0.1002
0.9533	288.15	0.77	0.1004
1	288.15	1	
0	298.15	0	
0.0867	298.15	0.0399	0.0399
0.1306	298.15	0.059	0.059
0.2456	298.15	0.1123	0.1
0.294	298.15	0.1322	0.1
0.3355	298.15	0.152	0.1
0.3749	298.15	0.1787	0.1
0.4199	298.15	0.1888	0.1
0.4386	298.15	0.2058	0.1
0.5156	298.15	0.2497	0.1
0.5711	298.15	0.2975	0.1
0.6237	298.15	0.3183	0.1
0.6774	298.15	0.3666	0.1
0.715	298.15	0.4054	0.1
0.7709	298.15	0.4495	0.1001
0.8209	298.15	0.5167	0.1001
0.8649	298.15	0.5739	0.1001
0.9207	298.15	0.7028	0.1002
0.9451	298.15	0.7856	0.1003
1	298.15	1	
0	308.15	0	
0.0867	308.15	0.0413	0.0413
0.1302	308.15	0.0606	0.0606
0.2488	308.15	0.1167	0.1
0.2916	308.15	0.1359	0.1
0.337	308.15	0.1571	0.1
0.3811	308.15	0.1747	0.1
0.4133	308.15	0.1916	0.1
0.4382	308.15	0.2036	0.1
0.5196	308.15	0.2537	0.1
0.5746	308.15	0.2891	0.1
0.6223	308.15	0.3253	0.1
0.6759	308.15	0.3534	0.1
0.7278	308.15	0.4287	0.1001
0.7672	308.15	0.4633	0.1001
0.8322	308.15	0.541	0.1001
0.8612	308.15	0.601	0.1001
0.9252	308.15	0.7277	0.1001
0.9448	308.15	0.7858	0.1003
1	308.15	1	

System: heptane + 1-chloro-2-methylpropane; phases: Liquid, Gas
Property: Vapor or sublimation pressure, kPa (Liquid); method: Ebulliometric method (Recirculating still)
Mole fraction of heptane	Temperature, K	Vapor or sublimation pressure, kPa	uncertainty
0	288.15	13	0.132
0.0196	288.15	12.755	0.133
0.0706	288.15	12.375	0.132
0.1194	288.15	11.975	0.131
0.1481	288.15	11.785	0.13
0.2341	288.15	11.18	0.128
0.3021	288.15	10.68	0.127
0.3756	288.15	10.11	0.126
0.4283	288.15	9.79	0.125
0.522	288.15	9.01	0.123
0.6199	288.15	8.205	0.122
0.703	288.15	7.4	0.12
0.7913	288.15	6.53	0.119
0.8587	288.15	5.705	0.118
0.9303	288.15	4.755	0.117
0.9792	288.15	3.97	0.116
1	288.15	3.63	0.111
0	298.15	20.35	0.153
0.0191	298.15	20.26	0.158
0.0691	298.15	19.415	0.153
0.1147	298.15	18.945	0.149
0.1431	298.15	18.585	0.151
0.2238	298.15	17.66	0.147
0.2927	298.15	16.84	0.144
0.3651	298.15	16.035	0.141
0.4148	298.15	15.51	0.141
0.503	298.15	14.32	0.137
0.5966	298.15	13.225	0.135
0.6894	298.15	11.93	0.132
0.7816	298.15	10.535	0.129
0.843	298.15	9.3	0.128
0.9183	298.15	7.95	0.125
0.9758	298.15	6.625	0.123
1	298.15	6.095	0.116
0	308.15	30.45	0.186
0.0188	308.15	30.215	0.188
0.0686	308.15	29.405	0.185
0.1153	308.15	28.615	0.183
0.1439	308.15	28.205	0.181
0.2223	308.15	26.885	0.177
0.2926	308.15	25.725	0.173
0.3665	308.15	24.5	0.169
0.4166	308.15	23.605	0.167
0.5133	308.15	21.89	0.162
0.5971	308.15	20.155	0.158
0.6876	308.15	18.35	0.153
0.7809	308.15	16.225	0.149
0.8438	308.15	14.595	0.147
0.9194	308.15	12.47	0.143
0.9765	308.15	10.63	0.141
1	308.15	9.865	0.124

System: heptane + 1-chloro-2-methylpropane; phases: Gas, Liquid
Property: Mole fraction of heptane (Gas); method: Density calibration data
Mole fraction of heptane	Temperature, K	Mole fraction of heptane	uncertainty
0	288.15	0	
0.0196	288.15	0.0073	0.0073
0.0706	288.15	0.0293	0.0293
0.1194	288.15	0.0488	0.0488
0.1481	288.15	0.061	0.061
0.2341	288.15	0.0953	0.0953
0.3021	288.15	0.1248	0.1
0.3756	288.15	0.1616	0.1
0.4283	288.15	0.1868	0.1
0.522	288.15	0.2262	0.1
0.6199	288.15	0.2792	0.1
0.703	288.15	0.3404	0.1
0.7913	288.15	0.4384	0.1001
0.8587	288.15	0.5723	0.1001
0.9303	288.15	0.6877	0.1002
0.9792	288.15	0.8941	0.1004
1	288.15	1	
0	298.15	0	
0.0191	298.15	0.0083	0.0083
0.0691	298.15	0.0312	0.0312
0.1147	298.15	0.0524	0.0524
0.1431	298.15	0.0645	0.0645
0.2238	298.15	0.0994	0.0994
0.2927	298.15	0.1352	0.1
0.3651	298.15	0.1694	0.1
0.4148	298.15	0.1913	0.1
0.503	298.15	0.235	0.1
0.5966	298.15	0.3037	0.1
0.6894	298.15	0.3764	0.1
0.7816	298.15	0.4797	0.1001
0.843	298.15	0.5834	0.1001
0.9183	298.15	0.7293	0.1001
0.9758	298.15	0.9079	0.0921
1	298.15	1	
0	308.15	0	
0.0188	308.15	0.0084	0.0084
0.0686	308.15	0.0316	0.0316
0.1153	308.15	0.0533	0.0533
0.1439	308.15	0.0663	0.0663
0.2223	308.15	0.1052	0.1
0.2926	308.15	0.1376	0.1
0.3665	308.15	0.1752	0.1
0.4166	308.15	0.1978	0.1
0.5133	308.15	0.254	0.1
0.5971	308.15	0.3206	0.1
0.6876	308.15	0.3949	0.1
0.7809	308.15	0.5033	0.1001
0.8438	308.15	0.5989	0.1001
0.9194	308.15	0.737	0.1001
0.9765	308.15	0.911	0.089
1	308.15	1	

System: heptane + 2-chloro-2-methylpropane; phases: Liquid, Gas
Property: Vapor or sublimation pressure, kPa (Liquid); method: Ebulliometric method (Recirculating still)
Mole fraction of heptane	Temperature, K	Vapor or sublimation pressure, kPa	uncertainty
0	288.15	26.42	0.174
0.0556	288.15	25.285	0.175
0.0785	288.15	24.805	0.172
0.101	288.15	24.455	0.171
0.1317	288.15	23.845	0.169
0.2025	288.15	22.53	0.165
0.2478	288.15	21.685	0.163
0.2973	288.15	20.66	0.16
0.3567	288.15	19.555	0.156
0.4474	288.15	17.835	0.151
0.5455	288.15	15.96	0.146
0.5738	288.15	15.29	0.145
0.62	288.15	14.395	0.142
0.6632	288.15	13.43	0.141
0.7266	288.15	11.925	0.139
0.8009	288.15	9.92	0.136
0.8369	288.15	8.895	0.136
0.9442	288.15	5.575	0.134
0.9687	288.15	4.72	0.133
1	288.15	3.63	0.111
0	298.15	40.13	0.221
0.0539	298.15	38.57	0.219
0.076	298.15	37.825	0.22
0.0978	298.15	37.185	0.219
0.1274	298.15	36.425	0.219
0.1955	298.15	34.495	0.206
0.2391	298.15	33.28	0.203
0.2867	298.15	31.925	0.199
0.344	298.15	30.26	0.195
0.4321	298.15	27.83	0.186
0.5283	298.15	24.895	0.174
0.5563	298.15	24.11	0.183
0.6023	298.15	22.575	0.169
0.6456	298.15	21.24	0.169
0.7098	298.15	18.96	0.166
0.786	298.15	16.01	0.156
0.8234	298.15	14.58	0.165
0.9364	298.15	9.455	0.185
0.9625	298.15	8.145	0.16
1	298.15	6.095	0.116
0	308.15	59.52	0.297
0.0536	308.15	57.22	0.3
0.0754	308.15	56.2	0.296
0.097	308.15	55.305	0.291
0.1266	308.15	54.055	0.285
0.1953	308.15	51.2	0.274
0.2396	308.15	49.46	0.267
0.288	308.15	47.495	0.261
0.3462	308.15	45.035	0.253
0.4352	308.15	41.315	0.24
0.5315	308.15	37.18	0.227
0.5593	308.15	35.93	0.226
0.6048	308.15	33.74	0.22
0.6475	308.15	31.645	0.215
0.7107	308.15	28.425	0.209
0.7857	308.15	24.265	0.2
0.8228	308.15	22.145	0.204
0.9367	308.15	14.67	0.2
0.9637	308.15	12.685	0.201
1	308.15	9.865	0.124

System: heptane + 2-chloro-2-methylpropane; phases: Gas, Liquid
Property: Mole fraction of heptane (Gas); method: Density calibration data
Mole fraction of heptane	Temperature, K	Mole fraction of heptane	uncertainty
0	288.15	0	
0.0556	288.15	0.0209	0.0209
0.0785	288.15	0.0267	0.0267
0.101	288.15	0.0299	0.0299
0.1317	288.15	0.0304	0.0304
0.2025	288.15	0.0497	0.0497
0.2478	288.15	0.0642	0.0642
0.2973	288.15	0.0749	0.0749
0.3567	288.15	0.0888	0.0888
0.4474	288.15	0.1095	0.1
0.5455	288.15	0.1393	0.1
0.5738	288.15	0.1508	0.1
0.62	288.15	0.1704	0.1
0.6632	288.15	0.1905	0.1
0.7266	288.15	0.23	0.1
0.8009	288.15	0.2915	0.1
0.8369	288.15	0.3309	0.1001
0.9442	288.15	0.5833	0.1005
0.9687	288.15	0.6972	0.1012
1	288.15	1	
0	298.15	0	
0.0539	298.15	0.0225	0.0225
0.076	298.15	0.0284	0.0284
0.0978	298.15	0.0317	0.0317
0.1274	298.15	0.0322	0.0322
0.1955	298.15	0.052	0.052
0.2391	298.15	0.067	0.067
0.2867	298.15	0.0782	0.0782
0.344	298.15	0.0929	0.0929
0.4321	298.15	0.1149	0.1
0.5283	298.15	0.1469	0.1
0.5563	298.15	0.1593	0.1
0.6023	298.15	0.1807	0.1
0.6456	298.15	0.2026	0.1
0.7098	298.15	0.2458	0.1
0.786	298.15	0.3132	0.1
0.8234	298.15	0.356	0.1001
0.9364	298.15	0.6173	0.1005
0.9625	298.15	0.7272	0.1008
1	298.15	1	
0	308.15	0	
0.0536	308.15	0.0229	0.0229
0.0754	308.15	0.0289	0.0289
0.097	308.15	0.0322	0.0322
0.1266	308.15	0.0327	0.0327
0.1953	308.15	0.0529	0.0529
0.2396	308.15	0.0684	0.0684
0.288	308.15	0.0801	0.0801
0.3462	308.15	0.0955	0.0955
0.4352	308.15	0.1188	0.1
0.5315	308.15	0.153	0.1
0.5593	308.15	0.1663	0.1
0.6048	308.15	0.1893	0.1
0.6475	308.15	0.2129	0.1
0.7107	308.15	0.2594	0.1
0.7857	308.15	0.3312	0.1
0.8228	308.15	0.376	0.1001
0.9367	308.15	0.6324	0.1003
0.9637	308.15	0.7344	0.1007
1	308.15	1	
