Measured thermophysical data. Measurement of critical properties for binary and ternary mixtures containing potential gasoline additive diethyl carbonate (DEC)
Source: Fluid Phase Equilib., 2018, 10.1016/j.fluid.2018.04.021
Compound 1: diethyl carbonate, C5H10O3, InChI=1S/C5H10O3/c1-3-7-5(6)8-4-2/h3-4H2,1-2H3, purity 99%
Compound 2: hexane, C6H14, InChI=1S/C6H14/c1-3-5-6-4-2/h3-6H2,1-2H3, purity 99.5%
Compound 3: heptane, C7H16, InChI=1S/C7H16/c1-3-5-7-6-4-2/h3-7H2,1-2H3, purity 99.5%
Compound 4: octane, C8H18, InChI=1S/C8H18/c1-3-5-7-8-6-4-2/h3-8H2,1-2H3, purity 99%
Compound 5: cyclohexane, C6H12, InChI=1S/C6H12/c1-2-4-6-5-3-1/h1-6H2, purity 99%
Compound 6: ethanol, C2H6O, InChI=1S/C2H6O/c1-2-3/h3H,2H2,1H3, purity 99.7%

System: diethyl carbonate; phases: Liquid, Gas
Property: Critical temperature, K (Liquid); method: flow method with low residence time
Critical temperature, K	uncertainty
578.1	0.4

System: diethyl carbonate; phases: Liquid, Gas
Property: Critical pressure, kPa (Liquid); method: flow method with low residence time
Critical pressure, kPa	uncertainty
3346	30

System: hexane; phases: Liquid, Gas
Property: Critical temperature, K (Liquid); method: flow method with low residence time
Critical temperature, K	uncertainty
507.8	0.4

System: hexane; phases: Liquid, Gas
Property: Critical pressure, kPa (Liquid); method: flow method with low residence time
Critical pressure, kPa	uncertainty
3033	27

System: heptane; phases: Liquid, Gas
Property: Critical temperature, K (Liquid); method: flow method with low residence time
Critical temperature, K	uncertainty
540.1	0.4

System: heptane; phases: Liquid, Gas
Property: Critical pressure, kPa (Liquid); method: flow method with low residence time
Critical pressure, kPa	uncertainty
2736	25

System: octane; phases: Liquid, Gas
Property: Critical temperature, K (Liquid); method: flow method with low residence time
Critical temperature, K	uncertainty
568.9	0.4

System: octane; phases: Liquid, Gas
Property: Critical pressure, kPa (Liquid); method: flow method with low residence time
Critical pressure, kPa	uncertainty
2496	24

System: cyclohexane; phases: Liquid, Gas
Property: Critical temperature, K (Liquid); method: flow method with low residence time
Critical temperature, K	uncertainty
553.6	0.4

System: cyclohexane; phases: Liquid, Gas
Property: Critical pressure, kPa (Liquid); method: flow method with low residence time
Critical pressure, kPa	uncertainty
4074	36

System: ethanol; phases: Liquid, Gas
Property: Critical temperature, K (Liquid); method: flow method with low residence time
Critical temperature, K	uncertainty
514	0.4

System: ethanol; phases: Liquid, Gas
Property: Critical pressure, kPa (Liquid); method: flow method with low residence time
Critical pressure, kPa	uncertainty
6141	51

System: diethyl carbonate + hexane; phases: Liquid, Gas
Property: Critical temperature, K (Liquid); method: flow method with low residence time
Mole fraction of diethyl carbonate	Critical temperature, K	uncertainty
0.075	510.1	0.8
0.1542	514.8	0.9
0.2382	520.8	0.9
0.3272	526.5	0.9
0.4218	532.3	1
0.5225	540.5	1.1
0.6299	549.2	1.1
0.7448	559.1	1.1
0.8678	568.6	1

System: diethyl carbonate + hexane; phases: Liquid, Gas
Property: Critical pressure, kPa (Liquid); method: flow method with low residence time
Mole fraction of diethyl carbonate	Critical pressure, kPa	uncertainty
0.075	3058	13
0.1542	3094	13
0.2382	3127	13
0.3272	3186	14
0.4218	3227	13
0.5225	3272	13
0.6299	3306	12
0.7448	3337	12
0.8678	3351	12

System: diethyl carbonate + heptane; phases: Liquid, Gas
Property: Critical temperature, K (Liquid); method: flow method with low residence time
Mole fraction of diethyl carbonate	Critical temperature, K	uncertainty
0.0861	539.3	0.4
0.175	540.2	0.4
0.2666	542.1	0.5
0.3612	544.6	0.5
0.4589	548	0.6
0.5599	552.7	0.7
0.6643	558.5	0.8
0.7724	564.3	0.8
0.8842	572	0.9

System: diethyl carbonate + heptane; phases: Liquid, Gas
Property: Critical pressure, kPa (Liquid); method: flow method with low residence time
Mole fraction of diethyl carbonate	Critical pressure, kPa	uncertainty
0.0861	2768	13
0.175	2805	13
0.2666	2854	13
0.3612	2897	14
0.4589	2962	14
0.5599	3015	14
0.6643	3088	15
0.7724	3166	15
0.8842	3252	15

System: diethyl carbonate + octane; phases: Liquid, Gas
Property: Critical temperature, K (Liquid); method: flow method with low residence time
Mole fraction of diethyl carbonate	Critical temperature, K	uncertainty
0.097	565.5	0.5
0.1947	563.8	0.4
0.293	562.3	0.4
0.392	561.9	0.4
0.4916	562	0.4
0.5919	563.8	0.5
0.6929	565.9	0.5
0.7946	568.9	0.6
0.8969	572.9	0.6

System: diethyl carbonate + octane; phases: Liquid, Gas
Property: Critical pressure, kPa (Liquid); method: flow method with low residence time
Mole fraction of diethyl carbonate	Critical pressure, kPa	uncertainty
0.097	2571	13
0.1947	2619	13
0.293	2668	14
0.392	2736	14
0.4916	2801	14
0.5919	2874	15
0.6929	2956	16
0.7946	3057	18
0.8969	3187	19

System: diethyl carbonate + cyclohexane; phases: Liquid, Gas
Property: Critical temperature, K (Liquid); method: flow method with low residence time
Mole fraction of diethyl carbonate	Critical temperature, K	uncertainty
0.0734	552.7	0.4
0.1512	552.5	0.4
0.2339	553.3	0.4
0.322	553.6	0.5
0.416	556.7	0.6
0.5166	559.7	0.6
0.6244	564.2	0.6
0.7402	568.7	0.7
0.8651	574.9	0.7

System: diethyl carbonate + cyclohexane; phases: Liquid, Gas
Property: Critical pressure, kPa (Liquid); method: flow method with low residence time
Mole fraction of diethyl carbonate	Critical pressure, kPa	uncertainty
0.0734	3968	17
0.1512	3891	16
0.2339	3832	14
0.322	3782	13
0.416	3736	13
0.5166	3678	14
0.6244	3609	15
0.7402	3513	15
0.8651	3414	15

System: diethyl carbonate + ethanol; phases: Liquid, Gas
Property: Critical temperature, K (Liquid); method: flow method with low residence time
Mole fraction of diethyl carbonate	Critical temperature, K	uncertainty
0.0415	519	0.9
0.0888	522.3	1
0.1432	526.9	1
0.2063	531	1
0.2806	537.1	0.9
0.3691	541.7	0.7
0.4764	547.3	0.8
0.6094	555.3	0.9
0.7783	566.5	0.9

System: diethyl carbonate + ethanol; phases: Liquid, Gas
Property: Critical pressure, kPa (Liquid); method: flow method with low residence time
Mole fraction of diethyl carbonate	Critical pressure, kPa	uncertainty
0.0415	6053	25
0.0888	5965	27
0.1432	5852	27
0.2063	5732	30
0.2806	5538	33
0.3691	5319	35
0.4764	5004	40
0.6094	4546	50
0.7783	3787	55

System: diethyl carbonate + ethanol + heptane; phases: Liquid, Gas
Property: Critical temperature, K (Liquid); method: flow method with low residence time
Mole fraction of diethyl carbonate	Mole fraction of ethanol	Critical temperature, K	uncertainty
0.0769	0.1973	529.3	1.1
0.0695	0.3566	521.1	1
0.0634	0.4879	516.6	0.9
0.0583	0.598	512.9	1.1
0.0539	0.6917	511.1	1.3
0.0502	0.7723	512.8	1.4
0.0469	0.8424	515.9	1.4
0.0441	0.904	520.9	1.6
0.156	0.2001	532	1.1
0.1408	0.3611	524.1	1.2
0.1283	0.4935	517.5	1.1
0.1178	0.6043	516.7	1.2
0.1089	0.6984	517	1.3
0.1013	0.7793	518.4	1.5
0.0947	0.8495	520.3	1.4
0.2374	0.2029	534.9	1
0.2139	0.3657	528.9	1
0.1947	0.4993	524.4	1.3
0.1786	0.6108	522.3	1.4
0.165	0.7053	521	1.3
0.1533	0.7864	523.9	1.6
0.3211	0.2058	537.5	1
0.2889	0.3704	530.2	1
0.2626	0.5051	528.3	0.9
0.2407	0.6173	527.8	1.3
0.2222	0.7123	527.1	1.5
0.4072	0.2088	539.4	1
0.3659	0.3753	535.2	1.4
0.3322	0.5111	523	1.5
0.3042	0.6241	532.9	1.7
0.4958	0.2119	546.1	1.2
0.4449	0.3803	539.4	1.3
0.4035	0.5173	542.1	3.3
0.5871	0.2151	552.9	1.1
0.526	0.3854	548.1	1.5
0.6812	0.2184	558.5	1.1

System: diethyl carbonate + ethanol + heptane; phases: Liquid, Gas
Property: Critical pressure, kPa (Liquid); method: flow method with low residence time
Mole fraction of diethyl carbonate	Mole fraction of ethanol	Critical pressure, kPa	uncertainty
0.0769	0.1973	3455	46
0.0695	0.3566	3966	44
0.0634	0.4879	4362	42
0.0583	0.598	4684	39
0.0539	0.6917	4903	43
0.0502	0.7723	5186	58
0.0469	0.8424	5495	57
0.0441	0.904	5764	56
0.156	0.2001	3538	44
0.1408	0.3611	4016	41
0.1283	0.4935	4403	42
0.1178	0.6043	4707	44
0.1089	0.6984	5017	56
0.1013	0.7793	5346	58
0.0947	0.8495	5505	34
0.2374	0.2029	3556	34
0.2139	0.3657	3912	42
0.1947	0.4993	4486	54
0.1786	0.6108	4836	47
0.165	0.7053	5171	66
0.1533	0.7864	5526	70
0.3211	0.2058	3586	36
0.2889	0.3704	3979	62
0.2626	0.5051	4596	41
0.2407	0.6173	4864	70
0.2222	0.7123	5407	89
0.4072	0.2088	3685	46
0.3659	0.3753	4246	58
0.3322	0.5111	4675	58
0.3042	0.6241	5146	80
0.4958	0.2119	3774	53
0.4449	0.3803	4286	57
0.4035	0.5173	4876	58
0.5871	0.2151	3805	53
0.526	0.3854	4471	54
0.6812	0.2184	3953	59
