Measured thermophysical data. Vapor liquid equilibria for nitrogen with 2-propanol, 2-butanol, or 2-pentanol binary systems
Source: Fluid Phase Equilib., 2006, 10.1016/j.fluid.2005.11.023
Compound 1: nitrogen, N2, InChI=1S/N2/c1-2
Compound 2: propan-2-ol, C3H8O, InChI=1S/C3H8O/c1-3(2)4/h3-4H,1-2H3
Compound 3: butan-2-ol, C4H10O, InChI=1S/C4H10O/c1-3-4(2)5/h4-5H,3H2,1-2H3
Compound 4: pentan-2-ol, C5H12O, InChI=1S/C5H12O/c1-3-4-5(2)6/h5-6H,3-4H2,1-2H3

System: propan-2-ol + nitrogen; phases: Liquid, Gas
Property: Vapor or sublimation pressure, kPa (Liquid); method: Closed cell (Static) method
Mole fraction of nitrogen	Temperature, K	Vapor or sublimation pressure, kPa	uncertainty
0.00909	333.15	2000	100
0.00972	363.15	2000	100
0.00982	393.15	2000	100
0.0137	333.15	3000	100
0.0149	363.15	3000	100
0.0162	393.15	3000	100
0.0182	333.15	4000	200
0.0203	363.15	4000	200
0.0228	333.15	5000	200
0.0228	393.15	4000	200
0.0254	363.15	5000	200
0.027	333.15	6000	300
0.0284	393.15	5000	200
0.03	363.15	6000	200
0.0314	333.15	7000	300
0.0333	393.15	6000	200
0.0354	363.15	7000	300
0.0356	333.15	8000	400
0.0389	333.15	9000	400
0.0399	363.15	8000	400
0.0403	393.15	7000	200
0.0435	333.15	10000	400
0.0441	363.15	9000	400
0.0471	393.15	8000	300
0.0488	363.15	10000	400
0.0529	393.15	9000	400
0.0588	393.15	10000	400

System: propan-2-ol + nitrogen; phases: Gas, Liquid
Property: Mole fraction of nitrogen (Gas); method: Chromatography
Mole fraction of nitrogen	Temperature, K	Mole fraction of nitrogen	uncertainty
0.00909	333.15	0.9662	0.0097
0.00972	363.15	0.9087	0.0101
0.00982	393.15	0.755	0.0089
0.0137	333.15	0.9725	0.0097
0.0149	363.15	0.9329	0.0096
0.0162	393.15	0.824	0.0098
0.0182	333.15	0.9752	0.0098
0.0203	363.15	0.9459	0.0096
0.0228	333.15	0.9772	0.0098
0.0228	393.15	0.858	0.0096
0.0254	363.15	0.9523	0.0096
0.027	333.15	0.978	0.0098
0.0284	393.15	0.88	0.0097
0.03	363.15	0.9563	0.0096
0.0314	333.15	0.9782	0.0098
0.0333	393.15	0.894	0.0093
0.0354	363.15	0.9595	0.0097
0.0356	333.15	0.9782	0.0098
0.0389	333.15	0.9783	0.0098
0.0399	363.15	0.9619	0.0097
0.0403	393.15	0.9009	0.0092
0.0435	333.15	0.9783	0.0098
0.0441	363.15	0.9628	0.0097
0.0471	393.15	0.9066	0.0093
0.0488	363.15	0.9635	0.0096
0.0529	393.15	0.9131	0.0094
0.0588	393.15	0.9173	0.0094

System: butan-2-ol + nitrogen; phases: Liquid, Gas
Property: Vapor or sublimation pressure, kPa (Liquid); method: Closed cell (Static) method
Mole fraction of nitrogen	Temperature, K	Vapor or sublimation pressure, kPa	uncertainty
0.00992	333.15	2000	100
0.011	363.15	2000	100
0.0122	393.15	2000	100
0.0149	333.15	3000	100
0.0167	363.15	3000	100
0.019	393.15	3000	100
0.0194	333.15	4000	200
0.0221	363.15	4000	200
0.0246	333.15	5000	200
0.0258	393.15	4000	200
0.0277	363.15	5000	200
0.0294	333.15	6000	300
0.0319	393.15	5000	200
0.033	363.15	6000	300
0.034	333.15	7000	300
0.0381	363.15	7000	300
0.0385	333.15	8000	300
0.039	393.15	6000	200
0.0431	333.15	9000	400
0.0437	363.15	8000	300
0.0449	393.15	7000	300
0.0473	333.15	10000	500
0.0496	363.15	9000	400
0.0514	393.15	8000	300
0.0539	363.15	10000	500
0.0576	393.15	9000	400
0.0638	393.15	10000	400

System: butan-2-ol + nitrogen; phases: Gas, Liquid
Property: Mole fraction of nitrogen (Gas); method: Chromatography
Mole fraction of nitrogen	Temperature, K	Mole fraction of nitrogen	uncertainty
0.00992	333.15	0.9852	0.00986
0.011	363.15	0.9533	0.00983
0.0122	393.15	0.868	0.00917
0.0149	333.15	0.9881	0.00989
0.0167	363.15	0.966	0.00973
0.019	393.15	0.906	0.00962
0.0194	333.15	0.9895	0.0099
0.0221	363.15	0.9727	0.00977
0.0246	333.15	0.99027	0.00973
0.0258	393.15	0.9241	0.00955
0.0277	363.15	0.9758	0.00978
0.0294	333.15	0.99081	0.00919
0.0319	393.15	0.9347	0.00952
0.033	363.15	0.9784	0.0098
0.034	333.15	0.99115	0.00885
0.0381	363.15	0.9799	0.0098
0.0385	333.15	0.99133	0.00867
0.039	393.15	0.9418	0.00954
0.0431	333.15	0.99147	0.00853
0.0437	363.15	0.9806	0.00981
0.0449	393.15	0.9468	0.00956
0.0473	333.15	0.99158	0.00842
0.0496	363.15	0.9814	0.00982
0.0514	393.15	0.9505	0.00957
0.0539	363.15	0.9821	0.00983
0.0576	393.15	0.9532	0.00959
0.0638	393.15	0.9559	0.00963

System: pentan-2-ol + nitrogen; phases: Liquid, Gas
Property: Vapor or sublimation pressure, kPa (Liquid); method: Closed cell (Static) method
Mole fraction of nitrogen	Temperature, K	Vapor or sublimation pressure, kPa	uncertainty
0.0116	333.15	2000	100
0.0128	363.15	2000	100
0.0139	393.15	2000	100
0.0173	333.15	3000	100
0.0193	363.15	3000	100
0.0215	393.15	3000	100
0.0224	333.15	4000	200
0.0256	363.15	4000	200
0.0281	333.15	5000	200
0.0301	393.15	4000	200
0.0313	363.15	5000	200
0.0331	333.15	6000	300
0.0362	393.15	5000	200
0.037	333.15	7000	300
0.038	363.15	6000	200
0.042	333.15	8000	300
0.0438	363.15	7000	300
0.0441	393.15	6000	200
0.0474	333.15	9000	300
0.0506	363.15	8000	300
0.052	393.15	7000	400
0.0532	333.15	10000	400
0.0549	393.15	8000	300
0.0557	363.15	9000	400
0.0616	363.15	10000	400
0.0638	393.15	9000	400
0.0687	393.15	10000	600

System: pentan-2-ol + nitrogen; phases: Gas, Liquid
Property: Mole fraction of nitrogen (Gas); method: Chromatography
Mole fraction of nitrogen	Temperature, K	Mole fraction of nitrogen	uncertainty
0.0116	333.15	0.9943	0.0057
0.0128	363.15	0.9797	0.00988
0.0139	393.15	0.9349	0.00946
0.0173	333.15	0.99559	0.00441
0.0193	363.15	0.9852	0.00986
0.0215	393.15	0.953	0.00965
0.0224	333.15	0.99633	0.00367
0.0256	363.15	0.9878	0.00989
0.0281	333.15	0.99645	0.00355
0.0301	393.15	0.9626	0.00971
0.0313	363.15	0.9893	0.0099
0.0331	333.15	0.99662	0.00338
0.0362	393.15	0.9682	0.00973
0.037	333.15	0.9968	0.0032
0.038	363.15	0.9907	0.0093
0.042	333.15	0.99688	0.00312
0.0438	363.15	0.9911	0.0089
0.0441	393.15	0.9717	0.00974
0.0474	333.15	0.99687	0.00313
0.0506	363.15	0.99129	0.00871
0.052	393.15	0.9742	0.00978
0.0532	333.15	0.99705	0.00295
0.0549	393.15	0.9761	0.00977
0.0557	363.15	0.99163	0.00837
0.0616	363.15	0.99195	0.00805
0.0638	393.15	0.9764	0.00977
0.0687	393.15	0.9771	0.00978
