Measured thermophysical data. Liquid liquid equilibria for the ternary systems water + 1-propanol + methyl methacrylate, +butyl methacrylate, and +isobutyl methacrylate
Source: Fluid Phase Equilib., 2007, 10.1016/j.fluid.2007.05.018
Compound 1: propan-1-ol, C3H8O, InChI=1S/C3H8O/c1-2-3-4/h4H,2-3H2,1H3
Compound 2: methyl methacrylate, C5H8O2, InChI=1S/C5H8O2/c1-4(2)5(6)7-3/h1H2,2-3H3
Compound 3: butyl 2-methyl-2-propenoate, C8H14O2, InChI=1S/C8H14O2/c1-4-5-6-10-8(9)7(2)3/h2,4-6H2,1,3H3
Compound 4: isobutyl methacrylate, C8H14O2, InChI=1S/C8H14O2/c1-6(2)5-10-8(9)7(3)4/h6H,3,5H2,1-2,4H3
Compound 5: water, H2O, InChI=1S/H2O/h1H2

System: methyl methacrylate + water; phases: Liquid mixture 2, Liquid mixture 1
Fixed: Pressure, kPa = 101
Property: Mole fraction of water (Liquid mixture 2); method: CHROM:UFactor:12
Temperature, K	Mole fraction of water	uncertainty
288.15	0.9969	0.0004
318.15	0.9972	0.0003

System: methyl methacrylate + water; phases: Liquid mixture 1, Liquid mixture 2
Fixed: Pressure, kPa = 101
Property: Mole fraction of water (Liquid mixture 1); method: CHROM:UFactor:12
Temperature, K	Mole fraction of water	uncertainty
288.15	0.0558	0.0067
318.15	0.0778	0.0093

System: butyl 2-methyl-2-propenoate + water; phases: Liquid mixture 1, Liquid mixture 2
Fixed: Pressure, kPa = 101
Property: Mole fraction of water (Liquid mixture 1); method: CHROM:UFactor:12
Temperature, K	Mole fraction of water	uncertainty
288.15	0.0513	0.0062
318.15	0.0641	0.0077

System: isobutyl methacrylate + water; phases: Liquid mixture 1, Liquid mixture 2
Fixed: Pressure, kPa = 101
Property: Mole fraction of water (Liquid mixture 1); method: CHROM:UFactor:12
Temperature, K	Mole fraction of water	uncertainty
288.15	0.048	0.0058
318.15	0.0741	0.0089

System: propan-1-ol + methyl methacrylate + water; phases: Liquid mixture 1, Liquid mixture 2
Fixed: Pressure, kPa = 101
Property: Mole fraction of propan-1-ol (Liquid mixture 1); method: CHROM:UFactor:12
Property: Mole fraction of propan-1-ol (Liquid mixture 2); method: CHROM:UFactor:12
Property: Mole fraction of water (Liquid mixture 2); method: CHROM:UFactor:12
Temperature, K	Mole fraction of water	Mole fraction of propan-1-ol	uncertainty	Mole fraction of propan-1-ol	uncertainty	Mole fraction of water	uncertainty
288.15	0.0558	0	0.0001	0	0.0001	0.9969	
288.15	0.0724	0.0215	0.0026	0.0059	0.0007	0.991	
288.15	0.1147	0.0996	0.012	0.0201	0.0024	0.9765	
288.15	0.1625	0.1591	0.0191	0.0257	0.0031	0.9708	
288.15	0.2453	0.2296	0.0276	0.0324	0.0039	0.9642	
288.15	0.3078	0.2624	0.0315	0.0361	0.0043	0.9603	
288.15	0.3572	0.2805	0.0337	0.039	0.0047	0.9574	
288.15	0.3814	0.2899	0.0348	0.0411	0.0049	0.955	
288.15	0.4551	0.3029	0.0363	0.0455	0.0055	0.9507	
288.15	0.5107	0.3064	0.0368	0.0517	0.0062	0.9439	
318.15	0.0778	0	0.0001	0	0.0001	0.9972	
318.15	0.089	0.0238	0.0029	0.0039	0.0005	0.9932	
318.15	0.1731	0.1032	0.0124	0.0132	0.0016	0.9836	
318.15	0.2527	0.1561	0.0187	0.0188	0.0023	0.978	
318.15	0.3128	0.2154	0.0259	0.0251	0.003	0.9714	
318.15	0.3535	0.2338	0.0281	0.0272	0.0033	0.9692	
318.15	0.3927	0.2674	0.0321	0.0313	0.0038	0.9649	
318.15	0.428	0.2784	0.0334	0.0331	0.004	0.963	
318.15	0.5024	0.2878	0.0345	0.0397	0.0048	0.9558	
318.15	0.5382	0.2947	0.0354	0.0449	0.0054	0.9504	

System: propan-1-ol + butyl 2-methyl-2-propenoate + water; phases: Liquid mixture 1, Liquid mixture 2
Fixed: Pressure, kPa = 101
Property: Mole fraction of propan-1-ol (Liquid mixture 1); method: CHROM:UFactor:12
Property: Mole fraction of propan-1-ol (Liquid mixture 2); method: CHROM:UFactor:12
Property: Mole fraction of water (Liquid mixture 2); method: CHROM:UFactor:12
Temperature, K	Mole fraction of water	Mole fraction of propan-1-ol	uncertainty	Mole fraction of propan-1-ol	uncertainty	Mole fraction of water	uncertainty
288.15	0.0513	0	0.0001	0	0.0001	1	
288.15	0.0961	0.0959	0.0129	0.021	0.0025	0.979	
288.15	0.163	0.1649	0.0172	0.0325	0.0039	0.9675	
288.15	0.1966	0.2195	0.0211	0.0388	0.0047	0.9612	
288.15	0.2214	0.2516	0.0236	0.0396	0.0048	0.9604	
288.15	0.2499	0.3061	0.0285	0.0441	0.0053	0.9559	
288.15	0.3124	0.3805	0.0354	0.0522	0.0063	0.9478	
288.15	0.3506	0.4043	0.0376	0.0544	0.0065	0.9456	
288.15	0.3885	0.4273	0.0397	0.073	0.0088	0.927	
288.15	0.506	0.4081	0.0379	0.073	0.0088	0.927	
318.15	0.0641	0	0.0001	0	0.0001	1	
318.15	0.1129	0.1068	0.0135	0.0161	0.0019	0.9839	
318.15	0.169	0.1759	0.018	0.0231	0.0028	0.9769	
318.15	0.2145	0.2338	0.0222	0.0286	0.0034	0.9714	
318.15	0.2487	0.2616	0.0243	0.0319	0.0038	0.9681	
318.15	0.2674	0.2977	0.0277	0.0331	0.004	0.9669	
318.15	0.3164	0.3768	0.035	0.0404	0.0048	0.9596	
318.15	0.3554	0.406	0.0377	0.0464	0.0056	0.9537	
318.15	0.4063	0.4147	0.0385	0.0502	0.006	0.9498	
318.15	0.5331	0.3879	0.0361	0.073	0.0088	0.927	

System: propan-1-ol + isobutyl methacrylate + water; phases: Liquid mixture 2, Liquid mixture 1
Fixed: Pressure, kPa = 101
Property: Mole fraction of propan-1-ol (Liquid mixture 2); method: CHROM:UFactor:12
Property: Mole fraction of propan-1-ol (Liquid mixture 1); method: CHROM:UFactor:12
Property: Mole fraction of water (Liquid mixture 1); method: CHROM:UFactor:12
Temperature, K	Mole fraction of water	Mole fraction of propan-1-ol	uncertainty	Mole fraction of propan-1-ol	uncertainty	Mole fraction of water	uncertainty
288.15	1	0	0.0001	0	0.0001	0.048	
288.15	0.978	0.022	0.0026	0.1057	0.0127	0.107	
288.15	0.9674	0.0326	0.0039	0.1556	0.0187	0.1527	
288.15	0.959	0.041	0.0049	0.2264	0.0272	0.2063	
288.15	0.9515	0.0485	0.0058	0.3126	0.0375	0.2575	
288.15	0.9494	0.0506	0.0061	0.3304	0.0396	0.2704	
288.15	0.9445	0.0555	0.0067	0.3826	0.0459	0.3249	
288.15	0.9397	0.0603	0.0072	0.4105	0.0493	0.348	
288.15	0.9381	0.0619	0.0074	0.4202	0.0504	0.3653	
288.15	0.9358	0.0642	0.0077	0.4215	0.0506	0.4005	
318.15	1	0	0.0001	0	0.0001	0.0741	
318.15	0.9861	0.0139	0.0017	0.1031	0.0124	0.1075	
318.15	0.9757	0.0243	0.0029	0.1792	0.0215	0.1671	
318.15	0.9703	0.0297	0.0036	0.2396	0.0288	0.2102	
318.15	0.9635	0.0366	0.0044	0.3138	0.0377	0.2633	
318.15	0.9615	0.0385	0.0046	0.3279	0.0393	0.277	
318.15	0.9571	0.0429	0.0051	0.3873	0.0465	0.3272	
318.15	0.9524	0.0476	0.0057	0.404	0.0485	0.3556	
318.15	0.95	0.05	0.006	0.412	0.0494	0.3876	
318.15	0.9473	0.0527	0.0063	0.415	0.0498	0.406	
