Measured thermophysical data. Experimental determination and prediction of the vapor pressure of some binary and quaternary aqueous solutions of alkaline nitrites and nitrates
Source: Fluid Phase Equilib., 2010, 10.1016/j.fluid.2009.12.028
Compound 1: sodium nitrate, NNaO3, InChI=1S/NO3.Na/c2-1(3)4;/q-1;+1
Compound 2: sodium nitrite, NNaO2, InChI=1S/HNO2.Na/c2-1-3;/h(H,2,3);/q;+1/p-1
Compound 3: water, H2O, InChI=1S/H2O/h1H2, purity 99.8%

System: sodium nitrate + water; phases: Liquid, Gas
Property: Vapor or sublimation pressure, kPa (Liquid); method: Closed cell (Static) method
Temperature, K	Mass fraction of sodium nitrate	Vapor or sublimation pressure, kPa	uncertainty
298.1	0.05	3.03	0.07
298.1	0.1	2.99	0.07
298.1	0.202	2.86	0.07
298.1	0.297	2.73	0.07
298.1	0.402	2.52	0.07
298.1	0.501	2.39	0.07
303.1	0.05	4.11	0.07
303.1	0.1	3.98	0.07
303.1	0.202	3.89	0.07
303.1	0.297	3.74	0.07
303.1	0.402	3.43	0.07
303.1	0.501	3.24	0.07
313.1	0.05	7.25	0.08
313.1	0.1	7.01	0.08
313.1	0.202	6.74	0.08
313.1	0.297	6.36	0.08
313.1	0.402	6.04	0.08
313.1	0.501	5.43	0.07
323.1	0.05	12.13	0.1
323.1	0.1	11.78	0.1
323.1	0.202	11.28	0.1
323.1	0.297	10.65	0.09
323.1	0.402	9.94	0.09
323.1	0.501	8.73	0.09
333.1	0.05	19.7	0.13
333.1	0.1	19.03	0.13
333.1	0.202	18.22	0.12
333.1	0.297	17.16	0.12
333.1	0.402	15.93	0.11
333.1	0.501	14.36	0.11
343.1	0.05	30.36	0.18
343.1	0.1	29.75	0.18
343.1	0.202	28.5	0.17
343.1	0.297	26.76	0.16
343.1	0.402	24.83	0.15
343.1	0.501	22.21	0.14
353.1	0.05	46.22	0.23
353.1	0.1	45.18	0.22
353.1	0.202	43.23	0.21
353.1	0.297	40.57	0.2
353.1	0.402	37.48	0.19
353.1	0.501	33.58	0.18

System: sodium nitrite + water; phases: Liquid, Gas
Property: Vapor or sublimation pressure, kPa (Liquid); method: Closed cell (Static) method
Temperature, K	Mass fraction of sodium nitrite	Vapor or sublimation pressure, kPa	uncertainty
298.1	0.05	3.11	0.07
298.1	0.1	3.06	0.07
298.1	0.2	2.81	0.07
298.1	0.301	2.58	0.07
298.1	0.4	2.26	0.07
303.1	0.05	4.16	0.07
303.1	0.1	4.09	0.07
303.1	0.2	3.87	0.07
303.1	0.301	3.46	0.07
303.1	0.4	3.05	0.07
313.1	0.05	7.25	0.08
313.1	0.1	7.09	0.08
313.1	0.2	6.64	0.08
313.1	0.301	6.01	0.08
313.1	0.4	5.32	0.07
323.1	0.05	12.08	0.1
323.1	0.1	11.92	0.1
323.1	0.2	11.09	0.09
323.1	0.301	10.08	0.09
323.1	0.4	8.89	0.09
333.1	0.05	19.5	0.13
333.1	0.1	19.23	0.13
333.1	0.2	17.82	0.12
333.1	0.301	16.21	0.12
333.1	0.4	14.28	0.11
343.1	0.05	30.46	0.18
343.1	0.1	29.93	0.17
343.1	0.2	27.82	0.17
343.1	0.301	25.33	0.15
343.1	0.4	22.4	0.13
353.1	0.05	46.08	0.22
353.1	0.1	45.04	0.22
353.1	0.2	42.42	0.21
353.1	0.301	38.44	0.2
353.1	0.5	33.91	0.16
