Measured thermophysical data. Experimental measurement and thermodynamic modeling of phase equilibria of {CO2 + tetralin + n-alkanes (with n = 6, 16)} and its binary systems
Source: Fluid Phase Equilib., 2018, 10.1016/j.fluid.2018.08.019
Compound 1: hexane, C6H14, InChI=1S/C6H14/c1-3-5-6-4-2/h3-6H2,1-2H3, purity 99%
Compound 2: 1,2,3,4-tetrahydronaphthalene, C10H12, InChI=1S/C10H12/c1-2-6-10-8-4-3-7-9(10)5-1/h1-2,5-6H,3-4,7-8H2, purity 98%
Compound 3: hexadecane, C16H34, InChI=1S/C16H34/c1-3-5-7-9-11-13-15-16-14-12-10-8-6-4-2/h3-16H2,1-2H3, purity 99%
Compound 4: carbon dioxide, CO2, InChI=1S/CO2/c2-1-3, purity 99.99%

System: hexane + carbon dioxide; phases: Liquid, Gas
Property: Vapor or sublimation pressure, kPa (Liquid); method: Closed cell (Static) method
Temperature, K	Mole fraction of carbon dioxide	Vapor or sublimation pressure, kPa	uncertainty
313.2	0.2007	1710	20
313.2	0.3979	3390	30
313.2	0.599	4930	30
313.2	0.7998	6300	40
333.2	0.2003	2120	20
333.2	0.3967	4140	30
333.2	0.5988	6450	30
333.2	0.7996	8490	40
353.2	0.2007	2550	20
353.2	0.3979	5130	30
353.2	0.599	7800	30
353.2	0.7998	10540	40
373.2	0.2003	2980	20
373.2	0.3967	5780	30
373.2	0.5988	9230	40
373.2	0.7996	11310	40
393.2	0.2007	3400	30
393.2	0.3979	6750	30
393.2	0.599	10310	40

System: hexane + carbon dioxide; phases: Gas, Liquid
Property: Vapor or sublimation pressure, kPa (Gas); method: Closed cell (Static) method
Temperature, K	Mole fraction of carbon dioxide	Vapor or sublimation pressure, kPa	uncertainty
393.2	0.7998	11450	120

System: 1,2,3,4-tetrahydronaphthalene + carbon dioxide; phases: Liquid, Gas
Property: Vapor or sublimation pressure, kPa (Liquid); method: Closed cell (Static) method
Temperature, K	Mole fraction of carbon dioxide	Vapor or sublimation pressure, kPa	uncertainty
313.2	0.1037	1370	20
313.2	0.3029	4280	30
313.2	0.3495	5010	30
313.2	0.7002	11600	50
333.2	0.1037	1710	30
333.2	0.3029	5450	30
333.2	0.3495	6440	40
333.2	0.7002	14240	60
353.2	0.1037	2040	30
353.2	0.3495	7820	40
353.2	0.7002	17710	70
373.2	0.1037	2340	30
373.2	0.1348	3020	30
373.2	0.3021	7690	40
373.2	0.3495	9030	50
373.2	0.7002	20510	80
373.2	0.7478	22060	80
393.2	0.1037	2620	30
393.2	0.3021	8670	50
393.2	0.7002	22870	80

System: 1,2,3,4-tetrahydronaphthalene + carbon dioxide; phases: Gas, Liquid
Fixed: Mole fraction of carbon dioxide = 0.9
Property: Vapor or sublimation pressure, kPa (Gas); method: Closed cell (Static) method
Temperature, K	Vapor or sublimation pressure, kPa	uncertainty
313.2	15850	60
333.2	18120	70
353.2	21220	80
373.2	24090	90
393.2	26340	100

System: hexadecane + carbon dioxide; phases: Liquid, Gas
Property: Vapor or sublimation pressure, kPa (Liquid); method: Closed cell (Static) method
Temperature, K	Mole fraction of carbon dioxide	Vapor or sublimation pressure, kPa	uncertainty
313.2	0.3081	2420	20
313.2	0.5415	5140	30
313.2	0.7461	8120	40
333.2	0.3081	2980	30
333.2	0.5415	6460	30
333.2	0.7461	11140	40
353.2	0.311	3660	30
353.2	0.5027	6890	30
353.2	0.7	11650	50
373.2	0.311	4160	30
373.2	0.5027	7940	40
373.2	0.7	13510	50

System: hexadecane + 1,2,3,4-tetrahydronaphthalene; phases: Liquid, Gas
Fixed: Pressure, kPa = 10
Property: Boiling temperature at pressure P, K (Liquid); method: Ebulliometric method (Recirculating still)
Mole fraction of 1,2,3,4-tetrahydronaphthalene	Boiling temperature at pressure P, K	uncertainty
0	473.5	0.8
0.0697	471.7	0.8
0.0791	460.7	1.4
0.0636	456.8	2.1
0.0819	454.4	2
0.1435	445.6	0.8
0.2097	431.6	0.8
0.2723	429.3	0.8
0.3256	423.3	0.8
0.4444	414.7	0.8
0.5887	409.5	0.8
0.6398	406.4	0.8
0.8587	402.6	0.8
1	400.9	0.8

System: hexadecane + 1,2,3,4-tetrahydronaphthalene; phases: Gas, Liquid
Fixed: Pressure, kPa = 10
Property: Mole fraction of 1,2,3,4-tetrahydronaphthalene (Gas); method: Index of refraction calibration data
Mole fraction of 1,2,3,4-tetrahydronaphthalene	Mole fraction of 1,2,3,4-tetrahydronaphthalene	uncertainty
0	0	
0.0697	0.5137	0.4863
0.0791	0.5273	0.4727
0.0636	0.5738	0.4262
0.0819	0.599	0.401
0.1435	0.7188	0.2812
0.2097	0.8361	0.1639
0.2723	0.8504	0.1496
0.3256	0.9039	0.0961
0.4444	0.9249	0.0751
0.5887	0.9753	0.0247
0.6398	0.9837	0.0163
0.8587	0.994	0.006
1	1	

System: carbon dioxide + hexane + 1,2,3,4-tetrahydronaphthalene; phases: Liquid, Gas
Property: Vapor or sublimation pressure, kPa (Liquid); method: Closed cell (Static) method
Temperature, K	Mole fraction of carbon dioxide	Mole fraction of hexane	Vapor or sublimation pressure, kPa	uncertainty
313.2	0.1076	0.7638	870	20
313.2	0.1117	0.6832	870	20
313.2	0.1141	0.6081	1080	20
313.2	0.1092	0.4717	1040	20
313.2	0.123	0.3912	1330	20
313.2	0.1358	0.3185	1440	20
313.2	0.1501	0.1908	1690	20
313.2	0.099	0.1573	1160	20
313.2	0.1985	0.5935	1840	20
313.2	0.1996	0.236	2340	20
313.2	0.2001	0.4787	1940	20
313.2	0.2009	0.7019	1810	20
313.2	0.2092	0.513	2020	20
313.2	0.2075	0.3232	2230	20
313.2	0.2077	0.1193	2650	30
313.2	0.2996	0.6105	2740	20
313.2	0.2979	0.5063	2740	20
313.2	0.3065	0.3962	3080	30
313.2	0.3009	0.3037	3310	30
313.2	0.4026	0.4856	3600	30
313.2	0.4024	0.3968	3910	30
313.2	0.3977	0.2986	4120	30
313.2	0.4015	0.2333	4500	30
313.2	0.4998	0.3836	4620	30
313.2	0.5009	0.2061	5310	30
313.2	0.5002	0.1443	5770	40
313.2	0.6014	0.3029	5500	30
313.2	0.5983	0.2246	5880	30
313.2	0.5999	0.1052	6710	40
313.2	0.6992	0.2081	6230	40
313.2	0.7019	0.0937	7230	40
313.2	0.7995	0.1247	7230	50
333.2	0.1076	0.7638	1090	20
333.2	0.1117	0.6832	1110	20
333.2	0.1141	0.6081	1360	20
333.2	0.1092	0.4717	1310	20
333.2	0.123	0.3912	1660	20
333.2	0.1358	0.3185	1820	20
333.2	0.1501	0.1908	2150	20
333.2	0.099	0.1573	1440	20
333.2	0.1985	0.5935	2300	20
333.2	0.1996	0.236	2960	30
333.2	0.2001	0.4787	2470	20
333.2	0.2009	0.7019	2250	20
333.2	0.2092	0.513	2580	20
333.2	0.2075	0.3232	2800	30
333.2	0.2077	0.1193	3350	30
333.2	0.2996	0.6105	3460	30
333.2	0.2979	0.5063	3490	30
333.2	0.3065	0.3962	3910	30
333.2	0.3009	0.3037	4230	30
333.2	0.4026	0.4856	4640	30
333.2	0.4024	0.3968	5070	30
333.2	0.3977	0.2986	5330	30
333.2	0.4015	0.2333	5840	30
333.2	0.4998	0.3836	6030	30
333.2	0.5009	0.2061	7060	40
333.2	0.5002	0.1443	7690	40
333.2	0.6014	0.3029	7370	40
333.2	0.5983	0.2246	7880	40
333.2	0.5999	0.1052	9300	40
333.2	0.6992	0.2081	8470	40
333.2	0.7019	0.0937	10430	50
333.2	0.7995	0.1247	10660	50
353.2	0.1076	0.7638	1330	20
353.2	0.1117	0.6832	1360	20
353.2	0.1141	0.6081	1650	20
353.2	0.1092	0.4717	1570	20
353.2	0.123	0.3912	2010	20
353.2	0.1358	0.3185	2160	20
353.2	0.1501	0.1908	2600	30
353.2	0.099	0.1573	1730	30
353.2	0.1985	0.5935	2790	20
353.2	0.1996	0.236	3550	30
353.2	0.2001	0.4787	2990	30
353.2	0.2009	0.7019	2690	20
353.2	0.2092	0.513	3130	30
353.2	0.2075	0.3232	3390	30
353.2	0.2077	0.1193	4030	30
353.2	0.2996	0.6105	4190	30
353.2	0.2979	0.5063	4250	30
353.2	0.3065	0.3962	4780	30
353.2	0.3009	0.3037	5140	30
353.2	0.4026	0.4856	5650	30
353.2	0.4024	0.3968	6190	30
353.2	0.3977	0.2986	6550	30
353.2	0.4015	0.2333	7200	30
353.2	0.4998	0.3836	7450	30
353.2	0.5009	0.2061	8790	40
353.2	0.5002	0.1443	9640	40
353.2	0.6014	0.3029	9240	40
353.2	0.5983	0.2246	10020	40
353.2	0.5999	0.1052	11790	50
353.2	0.6992	0.2081	10810	40
353.2	0.7019	0.0937	13820	50
353.2	0.7995	0.1247	14220	50
393.2	0.1076	0.7638	1590	20
393.2	0.1117	0.6832	1610	20
393.2	0.1141	0.6081	1940	20
393.2	0.1092	0.4717	1800	20
393.2	0.123	0.3912	2360	30
393.2	0.1358	0.3185	2560	30
393.2	0.1501	0.1908	2870	30
393.2	0.099	0.1573	2030	30
393.2	0.1985	0.5935	3270	30
393.2	0.1996	0.236	4170	30
393.2	0.2001	0.4787	3310	30
393.2	0.2009	0.7019	3170	30
393.2	0.2092	0.513	3640	30
393.2	0.2075	0.3232	3960	30
393.2	0.2077	0.1193	4710	30
393.2	0.2996	0.6105	4880	30
393.2	0.2979	0.5063	4990	30
393.2	0.3065	0.3962	5660	30
393.2	0.3009	0.3037	6060	30
393.2	0.4026	0.4856	6630	30
393.2	0.4024	0.3968	7280	30
393.2	0.3977	0.2986	7690	40
393.2	0.4015	0.2333	8400	40
393.2	0.4998	0.3836	8780	40
393.2	0.5009	0.2061	10450	40
393.2	0.5002	0.1443	11460	50
393.2	0.6014	0.3029	10960	40
393.2	0.5983	0.2246	11970	40
393.2	0.5999	0.1052	14290	50
393.2	0.6992	0.2081	13180	50
393.2	0.7019	0.0937	16840	60
393.2	0.7995	0.1247	17120	60

System: carbon dioxide + hexadecane + 1,2,3,4-tetrahydronaphthalene; phases: Liquid, Gas
Property: Vapor or sublimation pressure, kPa (Liquid); method: Closed cell (Static) method
Temperature, K	Mole fraction of carbon dioxide	Mole fraction of hexadecane	Vapor or sublimation pressure, kPa	uncertainty
313.2	0.1032	0.5116	960	20
313.2	0.1091	0.6942	1060	20
313.2	0.0987	0.2245	750	20
313.2	0.2025	0.4139	1840	20
313.2	0.2018	0.6972	2480	20
313.2	0.2036	0.1073	1510	20
313.2	0.3002	0.4489	3360	30
313.2	0.302	0.13	2580	20
313.2	0.4019	0.4002	4450	30
313.2	0.4007	0.2043	3750	30
313.2	0.4999	0.4009	6030	30
313.2	0.5002	0.3063	5580	30
313.2	0.6001	0.2966	7060	40
313.2	0.601	0.1991	6610	40
313.2	0.5989	0.1018	6190	30
313.2	0.6999	0.1015	7690	40
313.2	0.7999	0.1004	10410	50
333.2	0.1032	0.5116	1160	20
333.2	0.1091	0.6942	1330	20
333.2	0.0987	0.2245	890	20
333.2	0.2025	0.4139	2230	30
333.2	0.2018	0.6972	3100	30
333.2	0.2036	0.1073	1830	20
333.2	0.3002	0.4489	4170	30
333.2	0.302	0.13	3170	30
333.2	0.4019	0.4002	5640	30
333.2	0.4007	0.2043	4600	30
333.2	0.4999	0.4009	7850	40
333.2	0.5002	0.3063	7200	40
333.2	0.6001	0.2966	9560	50
333.2	0.601	0.1991	8740	40
333.2	0.5989	0.1018	8090	40
333.2	0.6999	0.1015	10570	50
333.2	0.7999	0.1004	13620	60
353.2	0.1032	0.5116	1370	20
353.2	0.1091	0.6942	1600	30
353.2	0.0987	0.2245	1030	20
353.2	0.2025	0.4139	2610	30
353.2	0.2018	0.6972	3700	30
353.2	0.2036	0.1073	2150	20
353.2	0.3002	0.4489	4990	30
353.2	0.302	0.13	3760	30
353.2	0.4019	0.4002	6870	40
353.2	0.4007	0.2043	5480	30
353.2	0.4999	0.4009	9710	40
353.2	0.5002	0.3063	8790	40
353.2	0.6001	0.2966	12000	50
353.2	0.601	0.1991	10810	50
353.2	0.5989	0.1018	9890	40
353.2	0.6999	0.1015	13250	60
353.2	0.7999	0.1004	17060	70
373.2	0.1032	0.5116	1530	30
373.2	0.1091	0.6942	1840	30
373.2	0.0987	0.2245	1180	20
373.2	0.2025	0.4139	2960	30
373.2	0.2018	0.6972	4310	30
373.2	0.2036	0.1073	2440	30
373.2	0.3002	0.4489	5770	30
373.2	0.302	0.13	4260	30
373.2	0.4019	0.4002	8020	40
373.2	0.4007	0.2043	6230	40
373.2	0.4999	0.4009	11450	50
373.2	0.5002	0.3063	10280	50
373.2	0.6001	0.2966	14140	60
373.2	0.601	0.1991	12730	50
373.2	0.5989	0.1018	11520	50
373.2	0.6999	0.1015	15380	60
373.2	0.7999	0.1004	19920	80
