Measured thermophysical data. Excess molar volume and viscosity study for the ternary system tetrahydrofuran (1) + 1-chlorobutane (2) + 2-butanol (3) at 283.15, 298.15 and 313.15 K
Source: Fluid Phase Equilib., 2006, 10.1016/j.fluid.2005.11.018
Compound 1: butan-2-ol, C4H10O, InChI=1S/C4H10O/c1-3-4(2)5/h4-5H,3H2,1-2H3
Compound 2: tetrahydrofuran, C4H8O, InChI=1S/C4H8O/c1-2-4-5-3-1/h1-4H2
Compound 3: 1-chlorobutane, C4H9Cl, InChI=1S/C4H9Cl/c1-2-3-4-5/h2-4H2,1H3

System: butan-2-ol; phases: Liquid
Fixed: Pressure, kPa = 101.325
Property: Viscosity, Pa*s (Liquid); method: CAPTUB:UFactor:2
Temperature, K	Viscosity, Pa*s	uncertainty
283.15	0.004923	5.5e-05
298.15	0.003004	3.4e-05
313.15	0.001788	2.1e-05

System: butan-2-ol; phases: Liquid
Fixed: Pressure, kPa = 101.325
Property: Mass density, kg/m3 (Liquid); method: VIBTUB:UFactor:2
Temperature, K	Mass density, kg/m3	uncertainty
283.15	814.52	0.29
298.15	802.72	0.3
313.15	789.54	0.31

System: butan-2-ol + 1-chlorobutane + tetrahydrofuran; phases: Liquid
Fixed: Pressure, kPa = 101.32
Property: Viscosity, Pa*s (Liquid); method: CAPTUB:UFactor:2
Temperature, K	Mole fraction of tetrahydrofuran	Mole fraction of 1-chlorobutane	Viscosity, Pa*s	uncertainty
283.15	0.0447	0.853	0.000536	9e-06
283.15	0.0493	0.0478	0.003443	4e-05
283.15	0.0495	0.9035	0.000514	9e-06
283.15	0.0498	0.0988	0.002746	3.2e-05
283.15	0.0933	0.7091	0.00056	9e-06
283.15	0.0954	0.8019	0.00048	9e-06
283.15	0.0966	0.6054	0.000654	1e-05
283.15	0.097	0.5041	0.000782	1.1e-05
283.15	0.0973	0.1016	0.00226	2.7e-05
283.15	0.0978	0.2072	0.001578	1.9e-05
283.15	0.0985	0.8537	0.000458	9e-06
283.15	0.0986	0.4052	0.000946	1.3e-05
283.15	0.0993	0.3073	0.001173	1.5e-05
283.15	0.1001	0.0489	0.002732	3.2e-05
283.15	0.1983	0.603	0.000571	9e-06
283.15	0.1987	0.0994	0.001608	1.9e-05
283.15	0.1987	0.2015	0.001219	1.5e-05
283.15	0.1995	0.3041	0.000964	1.3e-05
283.15	0.1997	0.4015	0.000801	1.1e-05
283.15	0.2008	0.701	0.000499	9e-06
283.15	0.2018	0.5014	0.000675	1e-05
283.15	0.2919	0.6055	0.000511	9e-06
283.15	0.2973	0.1025	0.00122	1.5e-05
283.15	0.2975	0.2019	0.000973	1.3e-05
283.15	0.301	0.2995	0.000817	1.1e-05
283.15	0.301	0.4947	0.000586	9e-06
283.15	0.3018	0.4025	0.000684	1e-05
283.15	0.3946	0.5002	0.000516	9e-06
283.15	0.3967	0.4078	0.000591	1e-05
283.15	0.3989	0.1005	0.000994	1.3e-05
283.15	0.3996	0.2026	0.000823	1.1e-05
283.15	0.4013	0.3005	0.000698	1e-05
283.15	0.497	0.3032	0.000601	1e-05
283.15	0.4978	0.1011	0.000837	1.2e-05
283.15	0.4986	0.2035	0.000715	1e-05
283.15	0.4987	0.4033	0.00052	9e-06
283.15	0.5955	0.2996	0.000533	9e-06
283.15	0.5964	0.1013	0.000731	1.1e-05
283.15	0.603	0.2024	0.000607	1e-05
283.15	0.6951	0.1035	0.000627	1e-05
283.15	0.7005	0.2026	0.000551	9e-06
283.15	0.7988	0.1022	0.000554	9e-06
283.15	0.8466	0.1036	0.000517	9e-06
283.15	0.8503	0.05	0.000557	9e-06
283.15	0.8976	0.0509	0.00052	9e-06
298.15	0.0447	0.853	0.00042	8e-06
298.15	0.0493	0.0478	0.002067	2.5e-05
298.15	0.0495	0.9035	0.000405	8e-06
298.15	0.0498	0.0988	0.001701	2.1e-05
298.15	0.0933	0.7091	0.000469	9e-06
298.15	0.0954	0.8019	0.000423	8e-06
298.15	0.0966	0.6054	0.000513	9e-06
298.15	0.097	0.5041	0.000591	1e-05
298.15	0.0973	0.1016	0.001466	1.8e-05
298.15	0.0978	0.2072	0.00108	1.4e-05
298.15	0.0985	0.8537	0.000408	8e-06
298.15	0.0986	0.4052	0.000716	1.1e-05
298.15	0.0993	0.3073	0.000854	1.2e-05
298.15	0.1001	0.0489	0.001724	2.1e-05
298.15	0.1983	0.603	0.00047	9e-06
298.15	0.1987	0.0994	0.001122	1.4e-05
298.15	0.1987	0.2015	0.000882	1.2e-05
298.15	0.1995	0.3041	0.000719	1.1e-05
298.15	0.1997	0.4015	0.000611	1e-05
298.15	0.2008	0.701	0.000431	8e-06
298.15	0.2018	0.5014	0.000528	9e-06
298.15	0.2919	0.6055	0.000437	8e-06
298.15	0.2973	0.1025	0.000891	1.2e-05
298.15	0.2975	0.2019	0.000729	1.1e-05
298.15	0.301	0.2995	0.000623	1e-05
298.15	0.301	0.4947	0.000479	9e-06
298.15	0.3018	0.4025	0.000537	9e-06
298.15	0.3946	0.5002	0.000443	8e-06
298.15	0.3967	0.4078	0.000482	9e-06
298.15	0.3989	0.1005	0.000748	1.1e-05
298.15	0.3996	0.2026	0.000632	1e-05
298.15	0.4013	0.3005	0.000544	9e-06
298.15	0.497	0.3032	0.000491	9e-06
298.15	0.4978	0.1011	0.000646	1e-05
298.15	0.4986	0.2035	0.000558	9e-06
298.15	0.4987	0.4033	0.000448	8e-06
298.15	0.5955	0.2996	0.000455	8e-06
298.15	0.5964	0.1013	0.000571	9e-06
298.15	0.603	0.2024	0.000499	9e-06
298.15	0.6951	0.1035	0.000509	9e-06
298.15	0.7005	0.2026	0.000465	9e-06
298.15	0.7988	0.1022	0.000465	9e-06
298.15	0.8466	0.1036	0.000445	8e-06
298.15	0.8503	0.05	0.000467	9e-06
298.15	0.8976	0.0509	0.000449	8e-06
313.15	0.0447	0.853	0.000378	8e-06
313.15	0.0493	0.0478	0.001315	1.6e-05
313.15	0.0495	0.9035	0.000369	8e-06
313.15	0.0498	0.0988	0.001124	1.4e-05
313.15	0.0933	0.7091	0.000398	8e-06
313.15	0.0954	0.8019	0.00038	8e-06
313.15	0.0966	0.6054	0.000438	8e-06
313.15	0.097	0.5041	0.000488	9e-06
313.15	0.0973	0.1016	0.001007	1.3e-05
313.15	0.0978	0.2072	0.000784	1.1e-05
313.15	0.0985	0.8537	0.000371	8e-06
313.15	0.0986	0.4052	0.000556	9e-06
313.15	0.0993	0.3073	0.000644	1e-05
313.15	0.1001	0.0489	0.00115	1.4e-05
313.15	0.1983	0.603	0.000412	8e-06
313.15	0.1987	0.0994	0.000822	1.1e-05
313.15	0.1987	0.2015	0.000665	1e-05
313.15	0.1995	0.3041	0.000573	9e-06
313.15	0.1997	0.4015	0.000504	9e-06
313.15	0.2008	0.701	0.000385	8e-06
313.15	0.2018	0.5014	0.000449	8e-06
313.15	0.2919	0.6055	0.000393	8e-06
313.15	0.2973	0.1025	0.000688	1e-05
313.15	0.2975	0.2019	0.000585	9e-06
313.15	0.301	0.2995	0.000503	9e-06
313.15	0.301	0.4947	0.00042	8e-06
313.15	0.3018	0.4025	0.00046	9e-06
313.15	0.3946	0.5002	0.000397	8e-06
313.15	0.3967	0.4078	0.000423	8e-06
313.15	0.3989	0.1005	0.000601	1e-05
313.15	0.3996	0.2026	0.000524	9e-06
313.15	0.4013	0.3005	0.000465	9e-06
313.15	0.497	0.3032	0.000433	8e-06
313.15	0.4978	0.1011	0.000535	9e-06
313.15	0.4986	0.2035	0.000476	9e-06
313.15	0.4987	0.4033	0.000402	8e-06
313.15	0.5955	0.2996	0.000408	8e-06
313.15	0.5964	0.1013	0.000487	9e-06
313.15	0.603	0.2024	0.000437	8e-06
313.15	0.6951	0.1035	0.000445	8e-06
313.15	0.7005	0.2026	0.000411	8e-06
313.15	0.7988	0.1022	0.000414	8e-06
313.15	0.8466	0.1036	0.000403	8e-06
313.15	0.8503	0.05	0.000435	8e-06
313.15	0.8976	0.0509	0.000404	8e-06

System: butan-2-ol + 1-chlorobutane + tetrahydrofuran; phases: Liquid
Fixed: Pressure, kPa = 10266
Property: Mass density, kg/m3 (Liquid); method: VIBTUB:UFactor:2
Temperature, K	Mole fraction of tetrahydrofuran	Mole fraction of 1-chlorobutane	Mass density, kg/m3	uncertainty
283.15	0.0447	0.853	888.36	0.33
283.15	0.0493	0.0478	822	0.4
283.15	0.0495	0.9035	893.08	0.32
283.15	0.0498	0.0988	826.68	0.39
283.15	0.0933	0.7091	880.62	0.33
283.15	0.0954	0.8019	888.46	0.32
283.15	0.0966	0.6054	872.28	0.34
283.15	0.097	0.5041	864.05	0.35
283.15	0.0973	0.1016	830.2	0.39
283.15	0.0978	0.2072	839.28	0.38
283.15	0.0985	0.8537	893.25	0.32
283.15	0.0986	0.4052	855.95	0.36
283.15	0.0993	0.3073	847.9	0.37
283.15	0.1001	0.0489	825.62	0.39
283.15	0.1983	0.603	880.58	0.32
283.15	0.1987	0.0994	837.29	0.37
283.15	0.1987	0.2015	846.31	0.36
283.15	0.1995	0.3041	855.23	0.35
283.15	0.1997	0.4015	863.55	0.34
283.15	0.2008	0.701	889.12	0.31
283.15	0.2018	0.5014	872.26	0.33
283.15	0.2919	0.6055	888.8	0.31
283.15	0.2973	0.1025	845.13	0.36
283.15	0.2975	0.2019	854.02	0.35
283.15	0.301	0.2995	862.85	0.34
283.15	0.301	0.4947	880.08	0.32
283.15	0.3018	0.4025	871.97	0.33
283.15	0.3946	0.5002	888.61	0.3
283.15	0.3967	0.4078	880.42	0.31
283.15	0.3989	0.1005	852.74	0.34
283.15	0.3996	0.2026	862.18	0.33
283.15	0.4013	0.3005	871.26	0.32
283.15	0.497	0.3032	879.6	0.3
283.15	0.4978	0.1011	860.85	0.33
283.15	0.4986	0.2035	870.58	0.31
283.15	0.4987	0.4033	889.19	0.29
283.15	0.5955	0.2996	888.47	0.29
283.15	0.5964	0.1013	869.38	0.31
283.15	0.603	0.2024	879.86	0.3
283.15	0.6951	0.1035	878.7	0.29
283.15	0.7005	0.2026	889.02	0.28
283.15	0.7988	0.1022	888.54	0.27
283.15	0.8466	0.1036	893.57	0.27
283.15	0.8503	0.05	888.35	0.27
283.15	0.8976	0.0509	893.27	0.26
298.15	0.0447	0.853	871.84	0.35
298.15	0.0493	0.0478	809.36	0.42
298.15	0.0495	0.9035	876.59	0.34
298.15	0.0498	0.0988	813.59	0.41
298.15	0.0933	0.7091	864.36	0.35
298.15	0.0954	0.8019	872.05	0.34
298.15	0.0966	0.6054	856.49	0.36
298.15	0.097	0.5041	848.56	0.37
298.15	0.0973	0.1016	816.93	0.4
298.15	0.0978	0.2072	825.45	0.39
298.15	0.0985	0.8537	876.73	0.34
298.15	0.0986	0.4052	841.01	0.38
298.15	0.0993	0.3073	833.41	0.38
298.15	0.1001	0.0489	812.79	0.41
298.15	0.1983	0.603	864.45	0.34
298.15	0.1987	0.0994	823.73	0.39
298.15	0.1987	0.2015	832.11	0.38
298.15	0.1995	0.3041	840.51	0.37
298.15	0.1997	0.4015	848.31	0.36
298.15	0.2008	0.701	872.79	0.33
298.15	0.2018	0.5014	856.61	0.35
298.15	0.2919	0.6055	872.57	0.33
298.15	0.2973	0.1025	830.9	0.37
298.15	0.2975	0.2019	839.33	0.36
298.15	0.301	0.2995	847.8	0.35
298.15	0.301	0.4947	864.24	0.33
298.15	0.3018	0.4025	856.48	0.34
298.15	0.3946	0.5002	872.42	0.32
298.15	0.3967	0.4078	864.69	0.33
298.15	0.3989	0.1005	838.32	0.36
298.15	0.3996	0.2026	847.32	0.35
298.15	0.4013	0.3005	855.85	0.34
298.15	0.497	0.3032	863.96	0.32
298.15	0.4978	0.1011	846.13	0.34
298.15	0.4986	0.2035	855.29	0.33
298.15	0.4987	0.4033	873	0.31
298.15	0.5955	0.2996	872.42	0.31
298.15	0.5964	0.1013	854.27	0.33
298.15	0.603	0.2024	864.09	0.32
298.15	0.6951	0.1035	863	0.31
298.15	0.7005	0.2026	872.95	0.3
298.15	0.7988	0.1022	872.42	0.3
298.15	0.8466	0.1036	877.3	0.29
298.15	0.8503	0.05	872.34	0.29
298.15	0.8976	0.0509	877.02	0.28
313.15	0.0447	0.853	855.26	0.36
313.15	0.0493	0.0478	795.92	0.43
313.15	0.0495	0.9035	859.75	0.36
313.15	0.0498	0.0988	799.81	0.43
313.15	0.0933	0.7091	848.18	0.37
313.15	0.0954	0.8019	855.51	0.36
313.15	0.0966	0.6054	840.42	0.38
313.15	0.097	0.5041	832.82	0.39
313.15	0.0973	0.1016	803.12	0.42
313.15	0.0978	0.2072	811.04	0.41
313.15	0.0985	0.8537	859.86	0.35
313.15	0.0986	0.4052	825.56	0.39
313.15	0.0993	0.3073	818.57	0.4
313.15	0.1001	0.0489	799.3	0.43
313.15	0.1983	0.603	848.06	0.36
313.15	0.1987	0.0994	809.71	0.41
313.15	0.1987	0.2015	817.52	0.4
313.15	0.1995	0.3041	825.48	0.39
313.15	0.1997	0.4015	832.93	0.38
313.15	0.2008	0.701	856	0.35
313.15	0.2018	0.5014	840.72	0.37
313.15	0.2919	0.6055	856.19	0.35
313.15	0.2973	0.1025	816.46	0.39
313.15	0.2975	0.2019	824.44	0.38
313.15	0.301	0.2995	832.49	0.37
313.15	0.301	0.4947	848.1	0.35
313.15	0.3018	0.4025	840.78	0.36
313.15	0.3946	0.5002	856.04	0.34
313.15	0.3967	0.4078	848.66	0.35
313.15	0.3989	0.1005	823.67	0.38
313.15	0.3996	0.2026	832.14	0.37
313.15	0.4013	0.3005	840.28	0.36
313.15	0.497	0.3032	848.04	0.34
313.15	0.4978	0.1011	831.15	0.36
313.15	0.4986	0.2035	839.78	0.35
313.15	0.4987	0.4033	856.6	0.33
313.15	0.5955	0.2996	856.12	0.33
313.15	0.5964	0.1013	838.92	0.35
313.15	0.603	0.2024	848.19	0.34
313.15	0.6951	0.1035	847.21	0.33
313.15	0.7005	0.2026	856.7	0.32
313.15	0.7988	0.1022	856.25	0.32
313.15	0.8466	0.1036	860.98	0.31
313.15	0.8503	0.05	856.21	0.32
313.15	0.8976	0.0509	860.79	0.31
