Measured thermophysical data. Effect of impurities in captured CO2 on liquid-vapor equilibrium
Source: Fluid Phase Equilib., 2014, 10.1016/j.fluid.2013.11.009
Compound 1: carbon dioxide, CO2, InChI=1S/CO2/c2-1-3, purity 99%
Compound 2: nitrogen, N2, InChI=1S/N2/c1-2, purity 99%
Compound 3: oxygen, O2, InChI=1S/O2/c1-2, purity 98%
Compound 4: argon, Ar, InChI=1S/Ar, purity 98%
Compound 5: methane, CH4, InChI=1S/CH4/h1H4, purity 98%

System: carbon dioxide + nitrogen; phases: Gas, Liquid
Property: Vapor or sublimation pressure, kPa (Gas); method: Closed cell (Static) method
Mole fraction of nitrogen	Temperature, K	Vapor or sublimation pressure, kPa	uncertainty
0.054	278.15	4600	200
0.054	283.15	5500	200
0.054	288.15	6300	200
0.054	293.15	7000	200
0.054	298.15	7800	200
0.025	278.15	4100	100
0.025	283.15	4700	100
0.025	288.15	5300	100
0.025	293.15	6010	170
0.025	298.15	6930	190

System: carbon dioxide + nitrogen; phases: Liquid, Gas
Property: Vapor or sublimation pressure, kPa (Liquid); method: Closed cell (Static) method
Mole fraction of nitrogen	Temperature, K	Vapor or sublimation pressure, kPa	uncertainty
0.055	278.15	7340	90
0.055	283.15	7750	80
0.055	288.15	8110	80
0.055	293.15	8410	40
0.055	298.15	8160	60
0.0248	278.15	5040	110
0.0248	283.15	5600	100
0.0248	288.15	6210	140
0.0248	293.15	6930	130
0.0248	298.15	7490	120

System: carbon dioxide + oxygen; phases: Gas, Liquid
Property: Vapor or sublimation pressure, kPa (Gas); method: Closed cell (Static) method
Mole fraction of oxygen	Temperature, K	Vapor or sublimation pressure, kPa	uncertainty
0.0507	277.65	4410	160
0.0507	284.05	5400	200
0.0507	288.45	6010	150
0.0507	292.95	6670	160
0.0507	297.65	7450	170
0.0255	277.35	4100	100
0.0255	283.35	4740	130
0.0255	288.45	5500	200
0.0255	292.65	6160	160
0.0255	297.35	6930	170
0.0255	298.35	7120	150

System: carbon dioxide + oxygen; phases: Liquid, Gas
Property: Vapor or sublimation pressure, kPa (Liquid); method: Closed cell (Static) method
Mole fraction of oxygen	Temperature, K	Vapor or sublimation pressure, kPa	uncertainty
0.0494	277.65	6320	110
0.0494	283.65	6980	110
0.0494	288.15	7440	110
0.0494	293.15	7950	80
0.0494	297.65	8100	100
0.0249	277.35	4990	90
0.0249	283.35	5525	99
0.0249	288.45	6060	130
0.0249	292.95	6720	130
0.0249	297.65	7230	110
0.0249	298.15	7220	100

System: carbon dioxide + argon; phases: Gas, Liquid
Property: Vapor or sublimation pressure, kPa (Gas); method: Closed cell (Static) method
Mole fraction of argon	Temperature, K	Vapor or sublimation pressure, kPa	uncertainty
0.0552	278.35	4550	160
0.0552	283.35	5350	130
0.0552	288.05	5810	140
0.0552	292.45	6480	150
0.0552	296.25	7150	150
0.0252	278.95	4200	200
0.0252	283.25	4810	120
0.0252	288.75	5370	130
0.0252	293.35	6130	150
0.0252	299.15	7120	150

System: carbon dioxide + argon; phases: Liquid, Gas
Property: Vapor or sublimation pressure, kPa (Liquid); method: Closed cell (Static) method
Mole fraction of argon	Temperature, K	Vapor or sublimation pressure, kPa	uncertainty
0.056	278.65	6260	110
0.056	283.45	6760	110
0.056	288.45	7330	110
0.056	292.95	7740	80
0.056	296.65	7930	60
0.0255	278.35	4700	100
0.0255	283.45	5320	130
0.0255	288.15	5920	130
0.0255	292.65	6510	130
0.0255	297.05	7090	140
0.0255	300.35	7590	130

System: methane + carbon dioxide; phases: Gas, Liquid
Property: Vapor or sublimation pressure, kPa (Gas); method: Closed cell (Static) method
Mole fraction of carbon dioxide	Temperature, K	Vapor or sublimation pressure, kPa	uncertainty
0.053	277.95	4230	140
0.053	282.95	4900	100
0.053	288.05	5520	140
0.053	293.65	6310	140
0.053	298.85	7130	140
0.0253	277.75	4110	120
0.0253	283.25	4750	120
0.0253	288.45	5370	130
0.0253	292.85	5960	130
0.0253	297.65	6630	140
0.0253	301.65	7420	140

System: methane + carbon dioxide; phases: Liquid, Gas
Property: Vapor or sublimation pressure, kPa (Liquid); method: Closed cell (Static) method
Mole fraction of carbon dioxide	Temperature, K	Vapor or sublimation pressure, kPa	uncertainty
0.0527	278.25	5190	100
0.0527	283.65	5730	110
0.0527	288.35	6210	110
0.0527	292.95	6690	110
0.0527	298.95	7260	110
0.026	278.15	4590	100
0.026	283.65	5140	110
0.026	288.35	5690	120
0.026	293.35	6270	140
0.026	297.85	6950	130
0.026	302.15	7540	130
