Measured thermophysical data. Densities, viscosities and refractive indices of binary mixtures containing methyl ethyl ketone. Friction theory. New UNIFAC-VISCO and ASOG-VISCO parameter determination
Source: Fluid Phase Equilib., 2016, 10.1016/j.fluid.2016.02.031
Compound 1: butanone, C4H8O, InChI=1S/C4H8O/c1-3-4(2)5/h3H2,1-2H3, purity 99.5%
Compound 2: propan-1,3-diol, C3H8O2, InChI=1S/C3H8O2/c4-2-1-3-5/h4-5H,1-3H2, purity 99.5%
Compound 3: pyridine, C5H5N, InChI=1S/C5H5N/c1-2-4-6-5-3-1/h1-5H, purity 99.5%

System: butanone + propan-1,3-diol; phases: Liquid
Fixed: Pressure, kPa = 100
Property: Mass density, kg/m3 (Liquid); method: Vibrating tube method
Temperature, K	Mole fraction of propan-1,3-diol	Mass density, kg/m3	uncertainty
288.15	0	810.067	0.204
288.15	0.1052	834.263	0.205
288.15	0.2004	855.981	0.202
288.15	0.3002	879.545	0.199
288.15	0.4003	904.311	0.196
288.15	0.4999	929.443	0.192
288.15	0.5992	954.483	0.189
288.15	0.6992	979.932	0.185
288.15	0.7989	1003.764	0.184
288.15	0.8998	1028.392	0.19
288.15	1	1055.961	0.188
293.15	0	804.863	0.205
293.15	0.1052	829.229	0.206
293.15	0.2004	851.106	0.203
293.15	0.3002	874.858	0.2
293.15	0.4003	899.864	0.196
293.15	0.4999	925.2	0.193
293.15	0.5992	950.438	0.19
293.15	0.6992	976.1	0.186
293.15	0.7989	1000.116	0.183
293.15	0.8998	1024.963	0.189
293.15	1	1052.867	0.187
298.15	0	799.632	0.206
298.15	0.1052	824.172	0.207
298.15	0.2004	846.22	0.204
298.15	0.3002	870.166	0.2
298.15	0.4003	895.391	0.197
298.15	0.4999	920.936	0.193
298.15	0.5992	946.376	0.19
298.15	0.6992	972.256	0.187
298.15	0.7989	996.448	0.184
298.15	0.8998	1021.515	0.188
298.15	1	1049.756	0.187
303.15	0	794.371	0.207
303.15	0.1052	819.09	0.208
303.15	0.2004	841.328	0.205
303.15	0.3002	865.461	0.201
303.15	0.4003	890.9	0.198
303.15	0.4999	916.653	0.194
303.15	0.5992	942.296	0.191
303.15	0.6992	968.392	0.187
303.15	0.7989	992.685	0.184
303.15	0.8998	1017.997	0.188
303.15	1	1046.636	0.186
308.15	0	789.078	0.208
308.15	0.1052	813.976	0.209
308.15	0.2004	836.391	0.205
308.15	0.3002	860.732	0.202
308.15	0.4003	886.382	0.198
308.15	0.4999	912.346	0.195
308.15	0.5992	938.196	0.191
308.15	0.6992	964.512	0.188
308.15	0.7989	989.056	0.185
308.15	0.8998	1014.589	0.187
308.15	1	1043.499	0.185
313.15	0	783.752	0.209
313.15	0.1052	808.832	0.21
313.15	0.2004	831.418	0.206
313.15	0.3002	855.978	0.203
313.15	0.4003	881.838	0.199
313.15	0.4999	908.015	0.196
313.15	0.5992	934.073	0.192
313.15	0.6992	960.613	0.188
313.15	0.7989	985.317	0.185
313.15	0.8998	1011.058	0.187
313.15	1	1040.345	0.185
318.15	0	778.389	0.21
318.15	0.1052	803.661	0.211
318.15	0.2004	826.427	0.207
318.15	0.3002	851.191	0.204
318.15	0.4003	877.271	0.2
318.15	0.4999	903.664	0.196
318.15	0.5992	929.93	0.193
318.15	0.6992	956.69	0.189
318.15	0.7989	981.556	0.186
318.15	0.8998	1007.511	0.186
318.15	1	1037.176	0.184
323.15	0	772.985	0.211
323.15	0.1052	798.453	0.212
323.15	0.2004	821.409	0.208
323.15	0.3002	846.386	0.205
323.15	0.4003	872.674	0.201
323.15	0.4999	899.282	0.197
323.15	0.5992	925.759	0.193
323.15	0.6992	952.744	0.19
323.15	0.7989	977.808	0.186
323.15	0.8998	1004.006	0.186
323.15	1	1033.984	0.183
328.15	0	767.539	0.212
328.15	0.1052	793.206	0.213
328.15	0.2004	816.363	0.209
328.15	0.3002	841.54	0.205
328.15	0.4003	868.041	0.202
328.15	0.4999	894.87	0.198
328.15	0.5992	921.56	0.194
328.15	0.6992	948.774	0.19
328.15	0.7989	974.119	0.187
328.15	0.8998	1000.586	0.185
328.15	1	1030.771	0.182
333.15	0	762.048	0.213
333.15	0.1052	787.917	0.214
333.15	0.2004	811.298	0.21
333.15	0.3002	836.659	0.206
333.15	0.4003	863.375	0.203
333.15	0.4999	890.43	0.199
333.15	0.5992	917.332	0.195
333.15	0.6992	944.777	0.191
333.15	0.7989	970.698	0.187
333.15	0.8998	997.503	0.185
333.15	1	1027.529	0.182

System: butanone + propan-1,3-diol; phases: Liquid
Fixed: Pressure, kPa = 100
Property: Viscosity, Pa*s (Liquid); method: Concentric cylinders viscometry
Temperature, K	Mole fraction of propan-1,3-diol	Viscosity, Pa*s	uncertainty
288.15	0	0.00043081	6.51e-06
288.15	0.1052	0.0005783	7.91e-06
288.15	0.2004	0.0008238	1.035e-05
288.15	0.3002	0.0012578	1.49e-05
288.15	0.4003	0.002132	2.42e-05
288.15	0.4999	0.0036328	4.03e-05
288.15	0.5992	0.006313	6.92e-05
288.15	0.6992	0.011176	0.000122
288.15	0.7989	0.02031	0.000221
288.15	0.8998	0.037457	0.000407
288.15	1	0.068056	0.000751
293.15	0	0.00041517	6.36e-06
293.15	0.1052	0.00055128	7.64e-06
293.15	0.2004	0.0007652	9.75e-06
293.15	0.3002	0.001144	1.37e-05
293.15	0.4003	0.0018893	2.15e-05
293.15	0.4999	0.0031434	3.49e-05
293.15	0.5992	0.0053499	5.86e-05
293.15	0.6992	0.0092907	0.0001011
293.15	0.7989	0.016477	0.000179
293.15	0.8998	0.029802	0.000323
293.15	1	0.052754	0.000547
298.15	0	0.00039918	6.22e-06
298.15	0.1052	0.00051845	7.33e-06
298.15	0.2004	0.00071401	9.24e-06
298.15	0.3002	0.0010464	1.26e-05
298.15	0.4003	0.0016877	1.94e-05
298.15	0.4999	0.0027438	3.06e-05
298.15	0.5992	0.0045779	5.03e-05
298.15	0.6992	0.0078045	8.51e-05
298.15	0.7989	0.013565	0.000147
298.15	0.8998	0.02401	0.00026
298.15	1	0.041972	0.000451
303.15	0	0.00038265	6.07e-06
303.15	0.1052	0.00048906	7.05e-06
303.15	0.2004	0.00066741	8.78e-06
303.15	0.3002	0.00096041	1.174e-05
303.15	0.4003	0.0015169	1.76e-05
303.15	0.4999	0.0024137	2.71e-05
303.15	0.5992	0.003957	4.36e-05
303.15	0.6992	0.0066237	7.23e-05
303.15	0.7989	0.011299	0.000123
303.15	0.8998	0.019672	0.000213
303.15	1	0.033561	0.000361
308.15	0	0.00036655	5.93e-06
308.15	0.1052	0.00046331	6.81e-06
308.15	0.2004	0.00062465	8.35e-06
308.15	0.3002	0.00088415	1.096e-05
308.15	0.4003	0.0013792	1.61e-05
308.15	0.4999	0.0021408	2.42e-05
308.15	0.5992	0.0034474	3.81e-05
308.15	0.6992	0.005663	6.2e-05
308.15	0.7989	0.009517	0.0001035
308.15	0.8998	0.016208	0.000176
308.15	1	0.027153	0.000292
313.15	0	0.00034994	5.79e-06
313.15	0.1052	0.00043823	6.58e-06
313.15	0.2004	0.00058472	7.96e-06
313.15	0.3002	0.0008163	1.027e-05
313.15	0.4003	0.0012371	1.46e-05
313.15	0.4999	0.0019089	2.17e-05
313.15	0.5992	0.0030247	3.36e-05
313.15	0.6992	0.0048792	5.35e-05
313.15	0.7989	0.0080638	8.78e-05
313.15	0.8998	0.013491	0.000146
313.15	1	0.02222	0.000239
318.15	0	0.00033362	5.65e-06
318.15	0.1052	0.00041414	6.36e-06
318.15	0.2004	0.000548	7.61e-06
318.15	0.3002	0.00075566	9.66e-06
318.15	0.4003	0.001127	1.35e-05
318.15	0.4999	0.0017107	1.96e-05
318.15	0.5992	0.0026707	2.98e-05
318.15	0.6992	0.0042366	4.66e-05
318.15	0.7989	0.0068854	7.51e-05
318.15	0.8998	0.011334	0.000123
318.15	1	0.018354	0.000198
323.15	0	0.00031744	5.51e-06
323.15	0.1052	0.00039077	6.15e-06
323.15	0.2004	0.00051654	7.31e-06
323.15	0.3002	0.00070081	9.11e-06
323.15	0.4003	0.0010302	1.25e-05
323.15	0.4999	0.0015417	1.78e-05
323.15	0.5992	0.0023716	2.66e-05
323.15	0.6992	0.0037021	4.09e-05
323.15	0.7989	0.0059388	6.49e-05
323.15	0.8998	0.0096034	0.0001042
323.15	1	0.015292	0.000165
328.15	0	0.00030013	5.37e-06
328.15	0.1052	0.00036823	5.95e-06
328.15	0.2004	0.000484	7e-06
328.15	0.3002	0.00065075	8.61e-06
328.15	0.4003	0.00094376	1.157e-05
328.15	0.4999	0.0013929	1.62e-05
328.15	0.5992	0.0021209	2.39e-05
328.15	0.6992	0.0032567	3.61e-05
328.15	0.7989	0.0051646	5.65e-05
328.15	0.8998	0.0082174	8.93e-05
328.15	1	0.012843	0.000139
333.15	0	0.00028288	5.23e-06
333.15	0.1052	0.00034612	5.76e-06
333.15	0.2004	0.00044562	6.65e-06
333.15	0.3002	0.00060584	8.17e-06
333.15	0.4003	0.00086709	1.078e-05
333.15	0.4999	0.0012709	1.5e-05
333.15	0.5992	0.0019108	2.17e-05
333.15	0.6992	0.0028938	3.22e-05
333.15	0.7989	0.0045815	5.02e-05
333.15	0.8998	0.0071284	7.75e-05
333.15	1	0.01096	0.000118

System: butanone + propan-1,3-diol; phases: Liquid
Fixed: Pressure, kPa = 100
Property: Refractive index (Na D-line) (Liquid); method: Standard Abbe refractometry
Temperature, K	Mole fraction of propan-1,3-diol	Refractive index (Na D-line)	uncertainty
288.15	0	1.38157	0.00035
288.15	0.1052	1.38816	0.00035
288.15	0.2004	1.39411	0.00035
288.15	0.3002	1.40019	0.00035
288.15	0.4003	1.40646	0.00035
288.15	0.4999	1.41261	0.00035
288.15	0.5992	1.41868	0.00035
288.15	0.6992	1.42474	0.00035
288.15	0.7989	1.43046	0.00035
288.15	0.8998	1.43588	0.00035
288.15	1	1.44073	0.00035
293.15	0	1.37901	0.00035
293.15	0.1052	1.3857	0.00035
293.15	0.2004	1.39177	0.00035
293.15	0.3002	1.39791	0.00035
293.15	0.4003	1.4043	0.00035
293.15	0.4999	1.41059	0.00035
293.15	0.5992	1.4168	0.00035
293.15	0.6992	1.42295	0.00035
293.15	0.7989	1.42881	0.00035
293.15	0.8998	1.43434	0.00035
293.15	1	1.43932	0.00035
298.15	0	1.37642	0.00035
298.15	0.1052	1.38318	0.00035
298.15	0.2004	1.38937	0.00035
298.15	0.3002	1.39561	0.00035
298.15	0.4003	1.40216	0.00035
298.15	0.4999	1.40857	0.00035
298.15	0.5992	1.4149	0.00035
298.15	0.6992	1.42116	0.00035
298.15	0.7989	1.42712	0.00035
298.15	0.8998	1.43277	0.00035
298.15	1	1.43792	0.00035
303.15	0	1.37386	0.00035
303.15	0.1052	1.38072	0.00035
303.15	0.2004	1.38701	0.00035
303.15	0.3002	1.39336	0.00035
303.15	0.4003	1.40002	0.00035
303.15	0.4999	1.40654	0.00035
303.15	0.5992	1.41298	0.00035
303.15	0.6992	1.41936	0.00035
303.15	0.7989	1.42544	0.00035
303.15	0.8998	1.43123	0.00035
303.15	1	1.43654	0.00035
308.15	0	1.37125	0.00035
308.15	0.1052	1.3783	0.00035
308.15	0.2004	1.38469	0.00035
308.15	0.3002	1.39119	0.00035
308.15	0.4003	1.39791	0.00035
308.15	0.4999	1.40452	0.00035
308.15	0.5992	1.41104	0.00035
308.15	0.6992	1.41754	0.00035
308.15	0.7989	1.42374	0.00035
308.15	0.8998	1.42967	0.00035
308.15	1	1.43513	0.00035
313.15	0	1.36857	0.00035
313.15	0.1052	1.37575	0.00035
313.15	0.2004	1.38226	0.00035
313.15	0.3002	1.38891	0.00035
313.15	0.4003	1.39575	0.00035
313.15	0.4999	1.40246	0.00035
313.15	0.5992	1.4091	0.00035
313.15	0.6992	1.41566	0.00035
313.15	0.7989	1.42201	0.00035
313.15	0.8998	1.42812	0.00035
313.15	1	1.43375	0.00035
318.15	0	1.36589	0.00035
318.15	0.1052	1.37324	0.00035
318.15	0.2004	1.37988	0.00035
318.15	0.3002	1.38656	0.00035
318.15	0.4003	1.39357	0.00035
318.15	0.4999	1.40036	0.00035
318.15	0.5992	1.40712	0.00035
318.15	0.6992	1.41382	0.00035
318.15	0.7989	1.4203	0.00035
318.15	0.8998	1.42654	0.00035
318.15	1	1.43232	0.00035
323.15	0	1.36315	0.00035
323.15	0.1052	1.3706	0.00035
323.15	0.2004	1.37728	0.00035
323.15	0.3002	1.38422	0.00035
323.15	0.4003	1.39132	0.00035
323.15	0.4999	1.39822	0.00035
323.15	0.5992	1.40508	0.00035
323.15	0.6992	1.41196	0.00035
323.15	0.7989	1.41857	0.00035
323.15	0.8998	1.42496	0.00035
323.15	1	1.43087	0.00035
328.15	0	1.36042	0.00035
328.15	0.1052	1.36798	0.00035
328.15	0.2004	1.37479	0.00035
328.15	0.3002	1.38186	0.00035
328.15	0.4003	1.38903	0.00035
328.15	0.4999	1.39608	0.00035
328.15	0.5992	1.40306	0.00035
328.15	0.6992	1.41006	0.00035
328.15	0.7989	1.4168	0.00035
328.15	0.8998	1.42335	0.00035
328.15	1	1.42945	0.00035
333.15	0	1.35746	0.00035
333.15	0.1052	1.36512	0.00035
333.15	0.2004	1.37205	0.00035
333.15	0.3002	1.3793	0.00035
333.15	0.4003	1.38657	0.00035
333.15	0.4999	1.3938	0.00035
333.15	0.5992	1.40096	0.00035
333.15	0.6992	1.4081	0.00035
333.15	0.7989	1.41497	0.00035
333.15	0.8998	1.42166	0.00035
333.15	1	1.42803	0.00035

System: butanone + pyridine; phases: Liquid
Fixed: Pressure, kPa = 100
Property: Mass density, kg/m3 (Liquid); method: Vibrating tube method
Temperature, K	Mole fraction of pyridine	Mass density, kg/m3	uncertainty
288.15	0	810.067	0.204
288.15	0.1006	827.262	0.204
288.15	0.2019	844.704	0.201
288.15	0.3002	861.833	0.199
288.15	0.4004	879.307	0.196
288.15	0.4999	896.875	0.194
288.15	0.597	914.2	0.191
288.15	0.6998	932.635	0.189
288.15	0.7945	949.796	0.187
288.15	0.8962	968.632	0.184
288.15	1	988.077	0.178
293.15	0	804.863	0.205
293.15	0.1006	822.086	0.205
293.15	0.2019	839.557	0.202
293.15	0.3002	856.714	0.2
293.15	0.4004	874.211	0.197
293.15	0.4999	891.802	0.194
293.15	0.597	909.146	0.192
293.15	0.6998	927.59	0.189
293.15	0.7945	944.768	0.187
293.15	0.8962	963.61	0.185
293.15	1	983.053	0.179
298.15	0	799.632	0.206
298.15	0.1006	816.889	0.206
298.15	0.2019	834.388	0.203
298.15	0.3002	851.571	0.2
298.15	0.4004	869.094	0.198
298.15	0.4999	886.708	0.195
298.15	0.597	904.074	0.193
298.15	0.6998	922.541	0.19
298.15	0.7945	939.726	0.188
298.15	0.8962	958.58	0.186
298.15	1	978.02	0.18
303.15	0	794.371	0.207
303.15	0.1006	811.664	0.207
303.15	0.2019	829.195	0.204
303.15	0.3002	846.407	0.201
303.15	0.4004	863.96	0.199
303.15	0.4999	881.597	0.196
303.15	0.597	898.986	0.193
303.15	0.6998	917.474	0.191
303.15	0.7945	934.676	0.189
303.15	0.8962	953.536	0.186
303.15	1	972.979	0.18
308.15	0	789.078	0.208
308.15	0.1006	806.406	0.208
308.15	0.2019	823.972	0.205
308.15	0.3002	841.216	0.202
308.15	0.4004	858.797	0.199
308.15	0.4999	876.465	0.197
308.15	0.597	893.873	0.194
308.15	0.6998	912.381	0.192
308.15	0.7945	929.606	0.189
308.15	0.8962	948.477	0.187
308.15	1	967.923	0.181
313.15	0	783.752	0.209
313.15	0.1006	801.119	0.209
313.15	0.2019	818.72	0.206
313.15	0.3002	835.996	0.203
313.15	0.4004	853.612	0.2
313.15	0.4999	871.309	0.197
313.15	0.597	888.742	0.195
313.15	0.6998	907.282	0.192
313.15	0.7945	924.517	0.19
313.15	0.8962	943.403	0.188
313.15	1	962.857	0.181
318.15	0	778.389	0.21
318.15	0.1006	795.798	0.21
318.15	0.2019	813.436	0.207
318.15	0.3002	830.749	0.204
318.15	0.4004	848.397	0.201
318.15	0.4999	866.128	0.198
318.15	0.597	883.587	0.196
318.15	0.6998	902.151	0.193
318.15	0.7945	919.408	0.191
318.15	0.8962	938.312	0.188
318.15	1	957.777	0.182
323.15	0	772.985	0.211
323.15	0.1006	790.436	0.211
323.15	0.2019	808.12	0.208
323.15	0.3002	825.467	0.205
323.15	0.4004	843.151	0.202
323.15	0.4999	860.918	0.199
323.15	0.597	878.406	0.196
323.15	0.6998	896.999	0.194
323.15	0.7945	914.28	0.191
323.15	0.8962	933.202	0.189
323.15	1	952.682	0.183
328.15	0	767.539	0.212
328.15	0.1006	785.039	0.212
328.15	0.2019	802.762	0.209
328.15	0.3002	820.152	0.206
328.15	0.4004	837.875	0.203
328.15	0.4999	855.68	0.2
328.15	0.597	873.198	0.197
328.15	0.6998	891.821	0.195
328.15	0.7945	909.127	0.192
328.15	0.8962	928.07	0.19
328.15	1	947.564	0.183
333.15	0	762.048	0.213
333.15	0.1006	779.596	0.213
333.15	0.2019	797.367	0.21
333.15	0.3002	814.798	0.207
333.15	0.4004	832.563	0.204
333.15	0.4999	850.405	0.201
333.15	0.597	867.959	0.198
333.15	0.6998	886.618	0.195
333.15	0.7945	903.947	0.193
333.15	0.8962	922.92	0.19
333.15	1	942.433	0.184

System: butanone + pyridine; phases: Liquid
Fixed: Pressure, kPa = 100
Property: Viscosity, Pa*s (Liquid); method: Concentric cylinders viscometry
Temperature, K	Mole fraction of pyridine	Viscosity, Pa*s	uncertainty
288.15	0	0.00043081	6.51e-06
288.15	0.1006	0.00045551	6.73e-06
288.15	0.2019	0.00049278	7.08e-06
288.15	0.3002	0.00053087	7.44e-06
288.15	0.4004	0.00057706	7.88e-06
288.15	0.4999	0.00062898	8.39e-06
288.15	0.597	0.00068595	8.95e-06
288.15	0.6998	0.00076031	9.69e-06
288.15	0.7945	0.00083745	1.046e-05
288.15	0.8962	0.00092693	1.137e-05
288.15	1	0.0010528	1.27e-05
293.15	0	0.00041517	6.36e-06
293.15	0.1006	0.00043809	6.57e-06
293.15	0.2019	0.00047185	6.88e-06
293.15	0.3002	0.00050878	7.23e-06
293.15	0.4004	0.00055013	7.62e-06
293.15	0.4999	0.00059826	8.09e-06
293.15	0.597	0.00065052	8.6e-06
293.15	0.6998	0.0007177	9.26e-06
293.15	0.7945	0.00078757	9.96e-06
293.15	0.8962	0.00086831	1.077e-05
293.15	1	0.0009801	1.191e-05
298.15	0	0.00039918	6.22e-06
298.15	0.1006	0.00042027	6.41e-06
298.15	0.2019	0.00045164	6.7e-06
298.15	0.3002	0.00048674	7.02e-06
298.15	0.4004	0.00052432	7.38e-06
298.15	0.4999	0.00056887	7.8e-06
298.15	0.597	0.00061642	8.26e-06
298.15	0.6998	0.00067792	8.87e-06
298.15	0.7945	0.00074183	9.5e-06
298.15	0.8962	0.00081473	1.023e-05
298.15	1	0.00091551	1.125e-05
303.15	0	0.00038265	6.07e-06
303.15	0.1006	0.00040188	6.24e-06
303.15	0.2019	0.00043169	6.51e-06
303.15	0.3002	0.00046495	6.82e-06
303.15	0.4004	0.0005	7.15e-06
303.15	0.4999	0.00054087	7.53e-06
303.15	0.597	0.00058505	7.96e-06
303.15	0.6998	0.00064023	8.5e-06
303.15	0.7945	0.00069953	9.08e-06
303.15	0.8962	0.0007669	9.75e-06
303.15	1	0.00085676	1.066e-05
308.15	0	0.00036655	5.93e-06
308.15	0.1006	0.00038354	6.08e-06
308.15	0.2019	0.00041167	6.33e-06
308.15	0.3002	0.00044321	6.62e-06
308.15	0.4004	0.00047585	6.92e-06
308.15	0.4999	0.00051422	7.28e-06
308.15	0.597	0.00055495	7.67e-06
308.15	0.6998	0.00060629	8.16e-06
308.15	0.7945	0.00065877	8.68e-06
308.15	0.8962	0.00072195	9.3e-06
308.15	1	0.00080323	1.012e-05
313.15	0	0.00034994	5.79e-06
313.15	0.1006	0.0003653	5.92e-06
313.15	0.2019	0.00039197	6.16e-06
313.15	0.3002	0.00042194	6.43e-06
313.15	0.4004	0.0004528	6.71e-06
313.15	0.4999	0.0004887	7.04e-06
313.15	0.597	0.00052652	7.4e-06
313.15	0.6998	0.00057412	7.85e-06
313.15	0.7945	0.00062257	8.32e-06
313.15	0.8962	0.0006809	8.9e-06
313.15	1	0.00075461	9.63e-06
318.15	0	0.00033362	5.65e-06
318.15	0.1006	0.00035021	5.79e-06
318.15	0.2019	0.00037284	5.99e-06
318.15	0.3002	0.00040101	6.24e-06
318.15	0.4004	0.00043083	6.51e-06
318.15	0.4999	0.00046425	6.81e-06
318.15	0.597	0.00049962	7.14e-06
318.15	0.6998	0.00054401	7.56e-06
318.15	0.7945	0.00058934	8e-06
318.15	0.8962	0.00064175	8.51e-06
318.15	1	0.00071031	9.19e-06
323.15	0	0.00031744	5.51e-06
323.15	0.1006	0.00033282	5.64e-06
323.15	0.2019	0.00035389	5.82e-06
323.15	0.3002	0.00038073	6.06e-06
323.15	0.4004	0.00040954	6.31e-06
323.15	0.4999	0.00044087	6.6e-06
323.15	0.597	0.00047424	6.91e-06
323.15	0.6998	0.00051588	7.3e-06
323.15	0.7945	0.00055861	7.7e-06
323.15	0.8962	0.0006072	8.17e-06
323.15	1	0.00066981	8.79e-06
328.15	0	0.00030013	5.37e-06
328.15	0.1006	0.0003157	5.5e-06
328.15	0.2019	0.00033536	5.66e-06
328.15	0.3002	0.00036097	5.88e-06
328.15	0.4004	0.00038876	6.13e-06
328.15	0.4999	0.00041853	6.39e-06
328.15	0.597	0.00045022	6.68e-06
328.15	0.6998	0.00048988	7.05e-06
328.15	0.7945	0.00052974	7.43e-06
328.15	0.8962	0.00057711	7.88e-06
328.15	1	0.00063288	8.42e-06
333.15	0	0.00028288	5.23e-06
333.15	0.1006	0.00029889	5.36e-06
333.15	0.2019	0.00031887	5.52e-06
333.15	0.3002	0.00034225	5.72e-06
333.15	0.4004	0.00036961	5.96e-06
333.15	0.4999	0.00039848	6.21e-06
333.15	0.597	0.00042906	6.49e-06
333.15	0.6998	0.00046676	6.84e-06
333.15	0.7945	0.00050385	7.18e-06
333.15	0.8962	0.000549	7.61e-06
333.15	1	0.00059974	8.1e-06

System: butanone + pyridine; phases: Liquid
Fixed: Pressure, kPa = 100
Property: Refractive index (Na D-line) (Liquid); method: Standard Abbe refractometry
Temperature, K	Mole fraction of pyridine	Refractive index (Na D-line)	uncertainty
288.15	0	1.38157	0.00035
288.15	0.1006	1.39357	0.00035
288.15	0.2019	1.40586	0.00035
288.15	0.3002	1.41813	0.00035
288.15	0.4004	1.43104	0.00035
288.15	0.4999	1.44407	0.00035
288.15	0.597	1.45674	0.00035
288.15	0.6998	1.4705	0.00035
288.15	0.7945	1.48331	0.00035
288.15	0.8962	1.49734	0.00035
288.15	1	1.51204	0.00035
293.15	0	1.37901	0.00035
293.15	0.1006	1.39094	0.00035
293.15	0.2019	1.40321	0.00035
293.15	0.3002	1.41548	0.00035
293.15	0.4004	1.42836	0.00035
293.15	0.4999	1.44138	0.00035
293.15	0.597	1.45401	0.00035
293.15	0.6998	1.46776	0.00035
293.15	0.7945	1.48055	0.00035
293.15	0.8962	1.49455	0.00035
293.15	1	1.50923	0.00035
298.15	0	1.37642	0.00035
298.15	0.1006	1.3883	0.00035
298.15	0.2019	1.40056	0.00035
298.15	0.3002	1.41282	0.00035
298.15	0.4004	1.42568	0.00035
298.15	0.4999	1.43868	0.00035
298.15	0.597	1.4513	0.00035
298.15	0.6998	1.46502	0.00035
298.15	0.7945	1.47779	0.00035
298.15	0.8962	1.49176	0.00035
298.15	1	1.50636	0.00035
303.15	0	1.37386	0.00035
303.15	0.1006	1.38577	0.00035
303.15	0.2019	1.39791	0.00035
303.15	0.3002	1.41015	0.00035
303.15	0.4004	1.42298	0.00035
303.15	0.4999	1.43597	0.00035
303.15	0.597	1.44857	0.00035
303.15	0.6998	1.46227	0.00035
303.15	0.7945	1.47504	0.00035
303.15	0.8962	1.48899	0.00035
303.15	1	1.50355	0.00035
308.15	0	1.37125	0.00035
308.15	0.1006	1.38311	0.00035
308.15	0.2019	1.39527	0.00035
308.15	0.3002	1.40751	0.00035
308.15	0.4004	1.4203	0.00035
308.15	0.4999	1.43325	0.00035
308.15	0.597	1.44585	0.00035
308.15	0.6998	1.45952	0.00035
308.15	0.7945	1.47226	0.00035
308.15	0.8962	1.4862	0.00035
308.15	1	1.50076	0.00035
313.15	0	1.36857	0.00035
313.15	0.1006	1.38031	0.00035
313.15	0.2019	1.3926	0.00035
313.15	0.3002	1.40483	0.00035
313.15	0.4004	1.4176	0.00035
313.15	0.4999	1.43052	0.00035
313.15	0.597	1.44311	0.00035
313.15	0.6998	1.45678	0.00035
313.15	0.7945	1.4695	0.00035
313.15	0.8962	1.48343	0.00035
313.15	1	1.49796	0.00035
318.15	0	1.36589	0.00035
318.15	0.1006	1.37775	0.00035
318.15	0.2019	1.38992	0.00035
318.15	0.3002	1.40214	0.00035
318.15	0.4004	1.41489	0.00035
318.15	0.4999	1.42779	0.00035
318.15	0.597	1.44039	0.00035
318.15	0.6998	1.45404	0.00035
318.15	0.7945	1.46675	0.00035
318.15	0.8962	1.48066	0.00035
318.15	1	1.49522	0.00035
323.15	0	1.36315	0.00035
323.15	0.1006	1.37505	0.00035
323.15	0.2019	1.38721	0.00035
323.15	0.3002	1.39946	0.00035
323.15	0.4004	1.41218	0.00035
323.15	0.4999	1.42502	0.00035
323.15	0.597	1.43765	0.00035
323.15	0.6998	1.4513	0.00035
323.15	0.7945	1.46402	0.00035
323.15	0.8962	1.47793	0.00035
323.15	1	1.49245	0.00035
328.15	0	1.36042	0.00035
328.15	0.1006	1.37234	0.00035
328.15	0.2019	1.38453	0.00035
328.15	0.3002	1.39666	0.00035
328.15	0.4004	1.40942	0.00035
328.15	0.4999	1.42228	0.00035
328.15	0.597	1.43488	0.00035
328.15	0.6998	1.44853	0.00035
328.15	0.7945	1.46124	0.00035
328.15	0.8962	1.47513	0.00035
328.15	1	1.48962	0.00035
333.15	0	1.35746	0.00035
333.15	0.1006	1.36942	0.00035
333.15	0.2019	1.38158	0.00035
333.15	0.3002	1.39394	0.00035
333.15	0.4004	1.40669	0.00035
333.15	0.4999	1.41944	0.00035
333.15	0.597	1.43213	0.00035
333.15	0.6998	1.44586	0.00035
333.15	0.7945	1.45866	0.00035
333.15	0.8962	1.4726	0.00035
333.15	1	1.48708	0.00035
