Measured thermophysical data. Benchmarks for the fifth industrial fluid properties simulation challenge
Source: Fluid Phase Equilib., 2009, 10.1016/j.fluid.2009.07.004
Compound 1: water, H2O, InChI=1S/H2O/h1H2, purity 99.9%
Compound 2: 1-ethylpropylamine, C5H13N, InChI=1S/C5H13N/c1-3-5(6)4-2/h5H,3-4,6H2,1-2H3, purity 99.8%
Compound 3: octan-1-ol, C8H18O, InChI=1S/C8H18O/c1-2-3-4-5-6-7-8-9/h9H,2-8H2,1H3, purity 99.8%
Compound 4: 3-methyl-1-pentanol, C6H14O, InChI=1S/C6H14O/c1-3-6(2)4-5-7/h6-7H,3-5H2,1-2H3, purity 99.8%

System: 3-methyl-1-pentanol + water; phases: Liquid mixture 1, Liquid mixture 2
Property: (Relative) activity of 3-methyl-1-pentanol (Liquid mixture 1); method: Dilute Solution Ebulliometry
Temperature, K	Mole fraction of 3-methyl-1-pentanol	(Relative) activity of 3-methyl-1-pentanol	uncertainty
325	0	245	24.5

System: 1-ethylpropylamine + water; phases: Liquid mixture 1, Liquid mixture 2
Property: (Relative) activity of 1-ethylpropylamine (Liquid mixture 1); method: Dilute Solution Ebulliometry
Temperature, K	Mole fraction of 1-ethylpropylamine	(Relative) activity of 1-ethylpropylamine	uncertainty
325	0	25	2.5

System: octan-1-ol + 1-ethylpropylamine + water; phases: Liquid mixture 1, Liquid mixture 2
Property: Mole fraction of 1-ethylpropylamine (Liquid mixture 1); method: Chromatography
Property: Mole fraction of 1-ethylpropylamine (Liquid mixture 2); method: Chromatography
Property: Mole fraction of octan-1-ol (Liquid mixture 2); method: Chromatography
Temperature, K	Pressure, kPa	Mole fraction of octan-1-ol	Mole fraction of 1-ethylpropylamine	uncertainty	Mole fraction of 1-ethylpropylamine	uncertainty	Mole fraction of octan-1-ol	uncertainty
300	101.325	0.694	0.03125	0.00031	0.0001981	2e-06	2.9e-05	

System: octan-1-ol + 3-methyl-1-pentanol + water; phases: Liquid mixture 1, Liquid mixture 2
Property: Mole fraction of 3-methyl-1-pentanol (Liquid mixture 1); method: Chromatography
Property: Mole fraction of 3-methyl-1-pentanol (Liquid mixture 2); method: Chromatography
Property: Mole fraction of octan-1-ol (Liquid mixture 2); method: Chromatography
Temperature, K	Pressure, kPa	Mole fraction of octan-1-ol	Mole fraction of 3-methyl-1-pentanol	uncertainty	Mole fraction of 3-methyl-1-pentanol	uncertainty	Mole fraction of octan-1-ol	uncertainty
300	101.325	0.7078	0.02173	0.00022	6.97e-05	7e-07	0.000144	
