Measured thermophysical data. Solid liquid equilibria for binary mixtures of N-phenylacetamide with 4-aminoacetophenone, 3-hydroxyacetophenone and 4-hydroxyacetophenone
Source: Fluid Phase Equilib., 2005, 10.1016/j.fluid.2005.03.023
Compound 1: N-phenylethanamide, C8H9NO, InChI=1S/C8H9NO/c1-7(10)9-8-5-3-2-4-6-8/h2-6H,1H3,(H,9,10)
Compound 2: 1-(3-hydroxyphenyl)ethanone, C8H8O2, InChI=1S/C8H8O2/c1-6(9)7-3-2-4-8(10)5-7/h2-5,10H,1H3
Compound 3: 4'-hydroxyacetophenone, C8H8O2, InChI=1S/C8H8O2/c1-6(9)7-2-4-8(10)5-3-7/h2-5,10H,1H3
Compound 4: 4-acetylaniline, C8H9NO, InChI=1S/C8H9NO/c1-6(10)7-2-4-8(9)5-3-7/h2-5H,9H2,1H3

System: N-phenylethanamide; phases: Crystal, Liquid, Air at 1 atmosphere
Property: Molar enthalpy of transition or fusion, kJ/mol (Crystal); method: DSC
Molar enthalpy of transition or fusion, kJ/mol	uncertainty
21.44	0.64

System: N-phenylethanamide; phases: Crystal, Liquid, Air at 1 atmosphere
Property: Normal melting temperature, K (Crystal); method: DTA
Normal melting temperature, K	uncertainty
386.9	0.5

System: 1-(3-hydroxyphenyl)ethanone; phases: Crystal, Liquid, Air at 1 atmosphere
Property: Molar enthalpy of transition or fusion, kJ/mol (Crystal); method: DSC
Molar enthalpy of transition or fusion, kJ/mol	uncertainty
23.36	0.69

System: 1-(3-hydroxyphenyl)ethanone; phases: Crystal, Liquid, Air at 1 atmosphere
Property: Normal melting temperature, K (Crystal); method: DTA
Normal melting temperature, K	uncertainty
366.7	0.5

System: 4'-hydroxyacetophenone; phases: Crystal, Liquid, Air at 1 atmosphere
Property: Molar enthalpy of transition or fusion, kJ/mol (Crystal); method: DSC
Molar enthalpy of transition or fusion, kJ/mol	uncertainty
17.03	0.53

System: 4'-hydroxyacetophenone; phases: Crystal, Liquid, Air at 1 atmosphere
Property: Normal melting temperature, K (Crystal); method: DTA
Normal melting temperature, K	uncertainty
381.3	0.5

System: 4-acetylaniline; phases: Crystal, Liquid, Air at 1 atmosphere
Property: Molar enthalpy of transition or fusion, kJ/mol (Crystal); method: DSC
Molar enthalpy of transition or fusion, kJ/mol	uncertainty
19.56	0.59

System: 4-acetylaniline; phases: Crystal, Liquid, Air at 1 atmosphere
Property: Normal melting temperature, K (Crystal); method: DTA
Normal melting temperature, K	uncertainty
378.2	0.5

System: 4-acetylaniline + N-phenylethanamide; phases: Liquid, Crystal
Fixed: Pressure, kPa = 101.3
Property: Solid-liquid equilibrium temperature, K (Liquid); method: DTA:UFactor:4
Mole fraction of N-phenylethanamide	Solid-liquid equilibrium temperature, K	uncertainty
0	378.2	1.6
0.05	375.8	1.6
0.1	371.6	1.6
0.15	367.3	1.6
0.2	365.3	1.6
0.25	360.6	1.6
0.3	357.4	1.6
0.35	353.8	1.6

System: 4-acetylaniline + N-phenylethanamide; phases: Liquid, Crystal
Fixed: Pressure, kPa = 101.3
Property: Solid-liquid equilibrium temperature, K (Liquid); method: DTA:UFactor:4
Mole fraction of N-phenylethanamide	Solid-liquid equilibrium temperature, K	uncertainty
0.55	353.7	1.6
0.6	358.7	1.6
0.65	360.6	1.6
0.7	365.5	1.6
0.75	368.3	1.6
0.8	373.1	1.6
0.85	376.2	1.6
0.9	380.8	1.6
0.95	384.3	1.6
1	386.9	1.6

System: N-phenylethanamide + 1-(3-hydroxyphenyl)ethanone; phases: Liquid, Crystal
Fixed: Pressure, kPa = 101.3
Property: Solid-liquid equilibrium temperature, K (Liquid); method: DTA:UFactor:4
Mole fraction of N-phenylethanamide	Solid-liquid equilibrium temperature, K	uncertainty
0	366.7	1.6
0.05	364.5	1.6
0.1	361.6	1.6
0.15	358.3	1.6
0.2	355.5	1.6
0.25	350.5	1.6
0.3	346.2	1.6
0.35	342.6	1.6
0.4	338	1.6

System: N-phenylethanamide + 1-(3-hydroxyphenyl)ethanone; phases: Liquid, Crystal
Fixed: Pressure, kPa = 101.3
Property: Solid-liquid equilibrium temperature, K (Liquid); method: DTA:UFactor:4
Mole fraction of N-phenylethanamide	Solid-liquid equilibrium temperature, K	uncertainty
0.55	345.1	1.6
0.6	350.1	1.6
0.65	355.8	1.6
0.7	361.5	1.6
0.75	365.4	1.6
0.8	370.7	1.6
0.85	375.4	1.6
0.9	380.6	1.6
0.95	383.6	1.6
1	386.9	1.6

System: 4'-hydroxyacetophenone + N-phenylethanamide; phases: Liquid, Crystal
Fixed: Pressure, kPa = 101.3
Property: Solid-liquid equilibrium temperature, K (Liquid); method: DTA:UFactor:4
Mole fraction of N-phenylethanamide	Solid-liquid equilibrium temperature, K	uncertainty
0	381.3	1.6
0.05	378.1	1.6
0.1	373.2	1.6
0.15	369	1.6
0.2	363.4	1.6
0.25	358.1	1.6
0.3	353	1.6
0.35	347.2	1.6

System: 4'-hydroxyacetophenone + N-phenylethanamide; phases: Liquid, Crystal
Fixed: Pressure, kPa = 101.3
Property: Solid-liquid equilibrium temperature, K (Liquid); method: DTA:UFactor:4
Mole fraction of N-phenylethanamide	Solid-liquid equilibrium temperature, K	uncertainty
0.55	346.3	1.6
0.6	351.9	1.6
0.65	356.4	1.6
0.7	361.6	1.6
0.75	365.8	1.6
0.8	371.3	1.6
0.85	375.4	1.6
0.9	379.7	1.6
0.95	384.3	1.6
1	386.9	1.6
