Measured thermophysical data. Solution thermodynamics near the liquid liquid critical point I. First-order excess derivatives
Source: Fluid Phase Equilib., 2007, 10.1016/j.fluid.2007.05.017
Compound 1: 1-nitropropane, C3H7NO2, InChI=1S/C3H7NO2/c1-2-3-4(5)6/h2-3H2,1H3
Compound 2: nitrobenzene, C6H5NO2, InChI=1S/C6H5NO2/c8-7(9)6-4-2-1-3-5-6/h1-5H
Compound 3: dodecane, C12H26, InChI=1S/C12H26/c1-3-5-7-9-11-12-10-8-6-4-2/h3-12H2,1-2H3
Compound 4: tridecane, C13H28, InChI=1S/C13H28/c1-3-5-7-9-11-13-12-10-8-6-4-2/h3-13H2,1-2H3
Compound 5: tetradecane, C14H30, InChI=1S/C14H30/c1-3-5-7-9-11-13-14-12-10-8-6-4-2/h3-14H2,1-2H3
Compound 6: octane, C8H18, InChI=1S/C8H18/c1-3-5-7-8-6-4-2/h3-8H2,1-2H3
Compound 7: decane, C10H22, InChI=1S/C10H22/c1-3-5-7-9-10-8-6-4-2/h3-10H2,1-2H3
Compound 8: hexane, C6H14, InChI=1S/C6H14/c1-3-5-6-4-2/h3-6H2,1-2H3

System: 1-nitropropane + decane; phases: Liquid
Fixed: Pressure, kPa = 101
Fixed: Temperature, K = 298.15
Property: Excess molar enthalpy (molar enthalpy of mixing), kJ/mol (Liquid); method: Flow calorimetry
Mole fraction of 1-nitropropane	Excess molar enthalpy (molar enthalpy of mixing), kJ/mol	uncertainty
0.5521	1.716	0.037
0.5615	1.744	0.037
0.5661	1.748	0.037
0.5664	1.748	0.037
0.5746	1.745	0.037
0.5825	1.744	0.037
0.5915	1.738	0.037
0.5915	1.726	0.037

System: 1-nitropropane + decane; phases: Liquid mixture 1, Liquid mixture 2
Fixed: Mole fraction of 1-nitropropane = 0.571
Property: Liquid-liquid equilibrium temperature, K (Liquid mixture 1); method: VISOBS
Pressure, kPa	Liquid-liquid equilibrium temperature, K	uncertainty
316	281.685	0.155
605	281.713	0.155
811	281.729	0.155
1198	281.776	0.155
1424	281.795	0.155
1897	281.837	0.155
2505	281.893	0.155
3121	281.96	0.155
4226	282.072	0.155

System: 1-nitropropane + decane; phases: Liquid, Gas
Fixed: Pressure, kPa = 101
Property: Excess molar volume, m3/mol (Liquid); method: Calculated with densities of this investigation
Mole fraction of 1-nitropropane	Excess molar volume, m3/mol	uncertainty
0.5803	5.52e-07	9e-09
0.5901	5.5e-07	9e-09
0.6003	5.47e-07	9e-09

System: 1-nitropropane + dodecane; phases: Liquid
Fixed: Pressure, kPa = 101
Fixed: Temperature, K = 298.15
Property: Excess molar enthalpy (molar enthalpy of mixing), kJ/mol (Liquid); method: Flow calorimetry
Mole fraction of 1-nitropropane	Excess molar enthalpy (molar enthalpy of mixing), kJ/mol	uncertainty
0.6231	1.794	0.038
0.6281	1.783	0.038
0.6502	1.759	0.038
0.6574	1.748	0.037
0.6689	1.73	0.037
0.6726	1.714	0.037
0.6759	1.706	0.036

System: 1-nitropropane + dodecane; phases: Liquid mixture 1, Liquid mixture 2
Fixed: Mole fraction of 1-nitropropane = 0.661
Property: Liquid-liquid equilibrium temperature, K (Liquid mixture 1); method: VISOBS
Pressure, kPa	Liquid-liquid equilibrium temperature, K	uncertainty
340	292.068	0.155
444	292.562	0.155
523	292.094	0.155
789	292.128	0.155
947	292.145	0.155
1383	292.202	0.155
1754	292.245	0.155
2284	292.31	0.155
2851	292.378	0.155
3480	292.443	0.155
3867	292.496	0.155

System: 1-nitropropane + dodecane; phases: Liquid, Gas
Fixed: Pressure, kPa = 101
Property: Excess molar volume, m3/mol (Liquid); method: Calculated with densities of this investigation
Mole fraction of 1-nitropropane	Excess molar volume, m3/mol	uncertainty
0.6503	6.84e-07	9e-09
0.6606	6.69e-07	9e-09
0.6704	6.73e-07	9e-09

System: 1-nitropropane + tridecane; phases: Liquid
Fixed: Pressure, kPa = 101
Fixed: Temperature, K = 308.15
Property: Excess molar enthalpy (molar enthalpy of mixing), kJ/mol (Liquid); method: Flow calorimetry
Mole fraction of 1-nitropropane	Excess molar enthalpy (molar enthalpy of mixing), kJ/mol	uncertainty
0.6743	1.817	0.039
0.6796	1.811	0.039
0.683	1.792	0.038
0.6867	1.785	0.038
0.6873	1.781	0.038
0.6889	1.775	0.038
0.6902	1.767	0.038
0.697	1.75	0.037

System: 1-nitropropane + tridecane; phases: Liquid mixture 1, Liquid mixture 2
Fixed: Mole fraction of 1-nitropropane = 0.69
Property: Liquid-liquid equilibrium temperature, K (Liquid mixture 1); method: VISOBS
Pressure, kPa	Liquid-liquid equilibrium temperature, K	uncertainty
393	296.244	0.155
709	296.283	0.155
964	296.317	0.155
1288	296.355	0.155
1708	296.412	0.155
2280	296.485	0.155
3243	296.605	0.155
3808	296.679	0.155
4810	296.816	0.155

System: 1-nitropropane + tridecane; phases: Liquid, Gas
Fixed: Pressure, kPa = 101
Property: Excess molar volume, m3/mol (Liquid); method: Calculated with densities of this investigation
Mole fraction of 1-nitropropane	Excess molar volume, m3/mol	uncertainty
0.6792	7.36e-07	9e-09
0.6902	7.53e-07	1e-08
0.7001	7.73e-07	1e-08

System: 1-nitropropane + tetradecane; phases: Liquid
Fixed: Pressure, kPa = 101
Fixed: Temperature, K = 308.15
Property: Excess molar enthalpy (molar enthalpy of mixing), kJ/mol (Liquid); method: Flow calorimetry
Mole fraction of 1-nitropropane	Excess molar enthalpy (molar enthalpy of mixing), kJ/mol	uncertainty
0.6886	1.83	0.039
0.6918	1.831	0.039
0.6924	1.831	0.039
0.7024	1.806	0.039
0.7032	1.814	0.039
0.7058	1.787	0.038
0.7083	1.778	0.038
0.7117	1.762	0.038

System: 1-nitropropane + tetradecane; phases: Liquid mixture 1, Liquid mixture 2
Fixed: Mole fraction of 1-nitropropane = 0.7
Property: Liquid-liquid equilibrium temperature, K (Liquid mixture 1); method: VISOBS
Pressure, kPa	Liquid-liquid equilibrium temperature, K	uncertainty
485	300.814	0.155
831	300.86	0.155
1157	300.9	0.155
1552	300.958	0.155
2151	301.038	0.155
2513	301.09	0.155
3929	301.284	0.155
4677	301.384	0.155

System: 1-nitropropane + tetradecane; phases: Liquid, Gas
Property: Excess molar volume, m3/mol (Liquid); method: Calculated with densities of this investigation
Mole fraction of 1-nitropropane	Pressure, kPa	Excess molar volume, m3/mol	uncertainty
0.7089	101	7.73e-07	1e-08

System: nitrobenzene + hexane; phases: Liquid
Fixed: Pressure, kPa = 101
Fixed: Temperature, K = 303.15
Property: Excess molar enthalpy (molar enthalpy of mixing), kJ/mol (Liquid); method: Flow calorimetry
Mole fraction of nitrobenzene	Excess molar enthalpy (molar enthalpy of mixing), kJ/mol	uncertainty
0.4158	1.412	0.03
0.4193	1.419	0.03
0.4199	1.417	0.03
0.4225	1.414	0.03
0.4315	1.413	0.03

System: nitrobenzene + octane; phases: Liquid
Fixed: Pressure, kPa = 101
Fixed: Temperature, K = 303.15
Property: Excess molar enthalpy (molar enthalpy of mixing), kJ/mol (Liquid); method: Flow calorimetry
Mole fraction of nitrobenzene	Excess molar enthalpy (molar enthalpy of mixing), kJ/mol	uncertainty
0.4905	1.582	0.034
0.4962	1.56	0.033
0.5102	1.571	0.034
0.5255	1.552	0.033
0.5388	1.536	0.033

System: nitrobenzene + decane; phases: Liquid
Fixed: Pressure, kPa = 101
Fixed: Temperature, K = 303.15
Property: Excess molar enthalpy (molar enthalpy of mixing), kJ/mol (Liquid); method: Flow calorimetry
Mole fraction of nitrobenzene	Excess molar enthalpy (molar enthalpy of mixing), kJ/mol	uncertainty
0.5567	1.659	0.035
0.5628	1.688	0.036
0.5733	1.671	0.036
0.5753	1.679	0.036

System: nitrobenzene + dodecane; phases: Liquid
Fixed: Pressure, kPa = 101
Fixed: Temperature, K = 308.15
Property: Excess molar enthalpy (molar enthalpy of mixing), kJ/mol (Liquid); method: Flow calorimetry
Mole fraction of nitrobenzene	Excess molar enthalpy (molar enthalpy of mixing), kJ/mol	uncertainty
0.6172	1.756	0.037
0.6223	1.75	0.037
0.6267	1.747	0.038
0.6275	1.714	0.038
0.6692	1.672	0.036
0.675	1.635	0.035
