Measured thermophysical data. Solubility of carbamazepine, nicotinamide and carbamazepine-nicotinamide cocrystal in ethanol-water mixtures
Source: Fluid Phase Equilib., 2014, 10.1016/j.fluid.2013.11.024
Compound 1: 3-pyridinecarboxamide, C6H6N2O, InChI=1S/C6H6N2O/c7-6(9)5-2-1-3-8-4-5/h1-4H,(H2,7,9)
Compound 2: water, H2O, InChI=1S/H2O/h1H2

System: 3-pyridinecarboxamide + water; phases: Liquid, Crystal
Property: Amount concentration (molarity), mol/dm3 of 3-pyridinecarboxamide (Liquid); method: ?
Temperature, K	Pressure, kPa	Amount concentration (molarity), mol/dm3 of 3-pyridinecarboxamide	uncertainty
298.2	101	4.06	
