Measured thermophysical data. Measurement of the thermodynamic properties for the reactive system ethylene glycol acetic acid
Source: Fluid Phase Equilib., 2007, 10.1016/j.fluid.2007.05.030
Compound 1: acetic acid, C2H4O2, InChI=1S/C2H4O2/c1-2(3)4/h1H3,(H,3,4)
Compound 2: 2-hydroxyethyl acetate, C4H8O3, InChI=1S/C4H8O3/c1-4(6)7-3-2-5/h5H,2-3H2,1H3
Compound 3: ethylene diacetate, C6H10O4, InChI=1S/C6H10O4/c1-5(7)9-3-4-10-6(2)8/h3-4H2,1-2H3
Compound 4: 1,2-ethanediol, C2H6O2, InChI=1S/C2H6O2/c3-1-2-4/h3-4H,1-2H2
Compound 5: water, H2O, InChI=1S/H2O/h1H2

System: acetic acid; phases: Liquid, Gas
Fixed: Temperature, K = 363.15
Property: Vapor or sublimation pressure, kPa (Liquid); method: CCELL::UFactor:4
Vapor or sublimation pressure, kPa	uncertainty
39.679	0.716
39.675	0.716
39.661	0.716

System: 2-hydroxyethyl acetate; phases: Liquid, Gas
Property: Vapor or sublimation pressure, kPa (Liquid); method: EBULLIO:UFactor:16
Temperature, K	Vapor or sublimation pressure, kPa	uncertainty
363.15	2.22	0.15
374.42	3.79	0.19
403.66	13.81	0.57
417.65	23.64	0.96
427.41	33.46	1.35
434.9	43.3	1.74
440.57	53.13	2.13
444.25	62.95	2.53
448.78	72.79	2.92

System: 2-hydroxyethyl acetate; phases: Liquid, Gas
Fixed: Temperature, K = 363.15
Property: Vapor or sublimation pressure, kPa (Liquid); method: CCELL:UFactor:4
Vapor or sublimation pressure, kPa	uncertainty
2.252	0.116
2.201	0.115
2.228	0.116

System: 2-hydroxyethyl acetate; phases: Liquid
Fixed: Pressure, kPa = 101.325
Property: Mass density, kg/m3 (Liquid); method: VIBTUB:UFactor:8
Temperature, K	Mass density, kg/m3	uncertainty
283.16	1118.6	0.9
288.14	1113.8	0.9
293.14	1108.9	0.8
298.14	1104.1	0.8
303.14	1099.2	0.8
308.14	1094.4	0.8
313.14	1089.5	0.8
318.14	1084.6	0.8
323.14	1079.7	0.7
328.14	1074.8	0.7
333.14	1069.9	0.7
338.14	1064.9	0.7
343.14	1059.9	0.7

System: ethylene diacetate; phases: Liquid, Gas
Fixed: Temperature, K = 363.15
Property: Vapor or sublimation pressure, kPa (Liquid); method: CCELL::UFactor:4
Vapor or sublimation pressure, kPa	uncertainty
2.766	0.124
2.736	0.124
2.545	0.121
2.744	0.124

System: 1,2-ethanediol; phases: Liquid, Gas
Fixed: Temperature, K = 363.15
Property: Vapor or sublimation pressure, kPa (Liquid); method: CCELL:UFactor:4
Vapor or sublimation pressure, kPa	uncertainty
1.202	0.107
1.28	0.113
1.38	0.102

System: water; phases: Liquid, Gas
Fixed: Temperature, K = 363.15
Property: Vapor or sublimation pressure, kPa (Liquid); method: CCELL::UFactor:4
Vapor or sublimation pressure, kPa	uncertainty
70.089	1.206
69.933	1.203

System: 1,2-ethanediol + ethylene diacetate; phases: Liquid
Fixed: Temperature, K = 323.15
Fixed: Pressure, kPa = 101
Property: Excess molar enthalpy (molar enthalpy of mixing), kJ/mol (Liquid); method: Flow calorimetry
Mole fraction of ethylene diacetate	Excess molar enthalpy (molar enthalpy of mixing), kJ/mol	uncertainty
0.0219	0.202	0.003
0.0451	0.404	0.005
0.0698	0.594	0.007
0.096	0.795	0.009
0.1241	0.969	0.011
0.1541	1.123	0.012
0.1862	1.265	0.014
0.2208	1.389	0.015
0.258	1.513	0.016
0.2982	1.626	0.017
0.3419	1.725	0.018
0.3893	1.817	0.019
0.4411	1.907	0.02
0.4979	1.95	0.021
0.5604	1.943	0.02
0.6296	1.892	0.02
0.7066	1.748	0.018
0.7927	1.445	0.015
0.8898	0.905	0.01

System: 1,2-ethanediol + ethylene diacetate; phases: Liquid, Gas
Fixed: Temperature, K = 363.15
Property: Vapor or sublimation pressure, kPa (Liquid); method: CCELL:UFactor:4
Mole fraction of ethylene diacetate	Vapor or sublimation pressure, kPa	uncertainty
0	1.202	0.107
0.0012	1.237	0.109
0.0024	1.272	0.112
0.0035	1.307	0.101
0.0063	1.384	0.102
0.0121	1.521	0.104
0.0257	1.781	0.109
0.0431	2.035	0.113
0.0665	2.275	0.116
0.0978	2.471	0.12
0.1389	2.622	0.122
0.1871	2.72	0.124
0.2394	2.781	0.125
0.2933	2.826	0.125
0.3469	2.859	0.126
0.3608	2.87	0.126
0.4353	2.898	0.126
0.5232	2.923	0.127
0.6194	2.942	0.127
0.7111	2.951	0.127
0.7934	2.945	0.127
0.8652	2.922	0.127
0.9275	2.879	0.126
0.9575	2.854	0.126
0.9766	2.814	0.125
0.988	2.778	0.124
0.9939	2.772	0.124
1	2.766	0.124

System: ethylene diacetate + water; phases: Liquid
Fixed: Temperature, K = 323.15
Fixed: Pressure, kPa = 101
Property: Excess molar enthalpy (molar enthalpy of mixing), kJ/mol (Liquid); method: Flow calorimetry
Mole fraction of water	Excess molar enthalpy (molar enthalpy of mixing), kJ/mol	uncertainty
0.0844	0.629	0.007
0.1574	1.004	0.011
0.2211	1.252	0.014
0.2771	1.383	0.015
0.3713	1.505	0.016
0.4473	1.51	0.016
0.5624	1.271	0.014
0.6455	1.025	0.011
0.7342	0.76	0.009
0.8138	0.524	0.006
0.8793	0.334	0.004
0.9161	0.224	0.003
0.9444	0.144	0.003
0.9668	0.0791	0.0018
0.9808	0.0338	0.0013

System: ethylene diacetate + water; phases: Liquid, Gas
Fixed: Temperature, K = 363.15
Property: Vapor or sublimation pressure, kPa (Liquid); method: CCELL:UFactor:4
Mole fraction of water	Vapor or sublimation pressure, kPa	uncertainty
0	2.736	0.124
0.0178	7.229	0.196
0.0307	10.319	0.245
0.0462	13.972	0.304
0.0927	23.851	0.462
0.1666	37.257	0.677
0.3013	54.661	0.956
0.4285	64.052	1.107
0.5445	68.502	1.179
0.9909	70.6	1.214
0.9954	70.421	1.211
0.9975	70.288	1.209
0.9986	70.204	1.207
0.9991	70.157	1.207
0.9995	70.153	1.207
1	70.089	1.206

System: acetic acid + ethylene diacetate; phases: Liquid
Fixed: Temperature, K = 323.15
Fixed: Pressure, kPa = 101
Property: Excess molar enthalpy (molar enthalpy of mixing), kJ/mol (Liquid); method: Flow calorimetry
Mole fraction of acetic acid	Excess molar enthalpy (molar enthalpy of mixing), kJ/mol	uncertainty
0.1086	0.175	0.003
0.2045	0.275	0.004
0.2899	0.331	0.004
0.3665	0.361	0.005
0.4354	0.374	0.005
0.4979	0.374	0.005
0.5547	0.367	0.005
0.6067	0.349	0.005
0.6544	0.328	0.004
0.6982	0.308	0.004
0.7388	0.28	0.004
0.7763	0.251	0.004
0.8112	0.22	0.003
0.8437	0.187	0.003
0.8741	0.157	0.003
0.9025	0.122	0.002
0.9291	0.0912	0.0019
0.9542	0.0585	0.0016
0.9778	0.028	0.0013

System: acetic acid + ethylene diacetate; phases: Liquid, Gas
Fixed: Temperature, K = 363.15
Property: Vapor or sublimation pressure, kPa (Liquid); method: CCELL:UFactor:4
Mole fraction of acetic acid	Vapor or sublimation pressure, kPa	uncertainty
0	2.545	0.121
0.0097	2.703	0.123
0.0191	2.857	0.126
0.0419	3.225	0.132
0.1171	4.538	0.153
0.2685	7.799	0.205
0.4025	11.366	0.262
0.5159	15.015	0.321
0.6112	18.589	0.378
0.6868	21.858	0.43
0.708	22.83	0.446
0.7719	25.967	0.496
0.8332	29.274	0.549
0.8879	32.481	0.601
0.9359	35.472	0.649
0.9764	38.053	0.69
0.9929	39.146	0.707
0.9967	39.395	0.711
0.9984	39.501	0.713
1	39.679	0.716

System: 2-hydroxyethyl acetate + water; phases: Liquid
Fixed: Temperature, K = 323.15
Fixed: Pressure, kPa = 101
Property: Excess molar enthalpy (molar enthalpy of mixing), kJ/mol (Liquid); method: Flow calorimetry
Mole fraction of water	Excess molar enthalpy (molar enthalpy of mixing), kJ/mol	uncertainty
0.1179	-0.803	0.009
0.2578	-0.738	0.008
0.3978	-0.489	0.006
0.546	-0.304	0.004
0.6907	-0.156	0.003
0.825	-0.0706	0.0017
0.9399	-0.02	0.001

System: 2-hydroxyethyl acetate + water; phases: Liquid, Gas
Fixed: Temperature, K = 363.15
Property: Vapor or sublimation pressure, kPa (Liquid); method: CCELL:UFactor:4
Mole fraction of water	Vapor or sublimation pressure, kPa	uncertainty
0	2.252	0.116
0.0235	4.684	0.155
0.0589	8.242	0.213
0.0795	10.251	0.245
0.1277	14.851	0.319
0.3086	30.214	0.567
0.4058	38.294	0.696
0.5049	45.538	0.813
0.5986	51.633	0.91
0.6831	56.335	0.986
0.7509	59.642	1.039
0.8033	61.874	1.074
0.8054	62.111	1.078
0.8409	63.529	1.101
0.8419	63.431	1.099
0.8712	64.572	1.117
0.8743	64.828	1.122
0.9051	65.972	1.14
0.9314	67.007	1.156
0.9527	67.892	1.17
0.9683	68.578	1.181
0.9795	69.105	1.19
0.9878	69.48	1.196
0.9941	69.874	1.202
0.9969	69.977	1.204
0.9982	70.001	1.204
0.9988	70	1.204
0.9994	69.953	1.203
1	69.933	1.203

System: 1,2-ethanediol + 2-hydroxyethyl acetate; phases: Liquid
Fixed: Temperature, K = 323.15
Fixed: Pressure, kPa = 101
Property: Excess molar enthalpy (molar enthalpy of mixing), kJ/mol (Liquid); method: Flow calorimetry
Mole fraction of 2-hydroxyethyl acetate	Excess molar enthalpy (molar enthalpy of mixing), kJ/mol	uncertainty
0.0784	0.182	0.003
0.1656	0.338	0.004
0.2632	0.465	0.006
0.3732	0.551	0.007
0.4718	0.581	0.007
0.5815	0.57	0.007
0.7043	0.491	0.006
0.8065	0.374	0.005
0.9188	0.18	0.003

System: 1,2-ethanediol + 2-hydroxyethyl acetate; phases: Liquid, Gas
Fixed: Temperature, K = 363.15
Property: Vapor or sublimation pressure, kPa (Liquid); method: CCELL:UFactor:4
Mole fraction of 2-hydroxyethyl acetate	Vapor or sublimation pressure, kPa	uncertainty
0	1.28	0.113
0.0017	1.291	0.114
0.0033	1.299	0.114
0.005	1.309	0.101
0.0105	1.325	0.101
0.0199	1.349	0.102
0.0382	1.411	0.103
0.0618	1.479	0.104
0.0928	1.553	0.105
0.1335	1.636	0.106
0.1856	1.724	0.108
0.2446	1.81	0.109
0.3073	1.884	0.11
0.3217	1.899	0.11
0.3685	1.947	0.111
0.3774	1.953	0.111
0.4271	2	0.112
0.4439	2.011	0.112
0.5211	2.076	0.113
0.6069	2.138	0.114
0.6949	2.177	0.115
0.7733	2.198	0.115
0.8398	2.207	0.115
0.8948	2.215	0.116
0.9406	2.22	0.116
0.9668	2.217	0.116
0.9853	2.215	0.116
0.993	2.213	0.116
0.9966	2.207	0.115
1	2.201	0.115

System: ethylene diacetate + 2-hydroxyethyl acetate; phases: Liquid
Fixed: Temperature, K = 323.15
Fixed: Pressure, kPa = 101
Property: Excess molar enthalpy (molar enthalpy of mixing), kJ/mol (Liquid); method: Flow calorimetry
Mole fraction of 2-hydroxyethyl acetate	Excess molar enthalpy (molar enthalpy of mixing), kJ/mol	uncertainty
0.103	0.288	0.004
0.231	0.545	0.006
0.3777	0.683	0.008
0.5367	0.699	0.008
0.7024	0.596	0.007
0.8299	0.41	0.005
0.9272	0.207	0.003

System: ethylene diacetate + 2-hydroxyethyl acetate; phases: Liquid, Gas
Fixed: Temperature, K = 363.15
Property: Vapor or sublimation pressure, kPa (Liquid); method: CCELL:UFactor:4
Mole fraction of ethylene diacetate	Vapor or sublimation pressure, kPa	uncertainty
0	2.228	0.116
0.0019	2.238	0.116
0.004	2.243	0.116
0.0059	2.257	0.116
0.0107	2.271	0.116
0.0199	2.293	0.117
0.0421	2.352	0.118
0.0703	2.397	0.118
0.1068	2.452	0.119
0.1541	2.51	0.12
0.2134	2.578	0.121
0.2789	2.629	0.122
0.3461	2.672	0.123
0.4174	2.702	0.123
0.4852	2.731	0.124
0.5624	2.758	0.124
0.6458	2.778	0.125
0.7293	2.792	0.125
0.8023	2.796	0.125
0.8631	2.794	0.125
0.9131	2.79	0.125
0.9545	2.788	0.125
0.9748	2.781	0.125
0.9852	2.772	0.124
0.9901	2.768	0.124
0.995	2.76	0.124
1	2.744	0.124

System: acetic acid + 2-hydroxyethyl acetate; phases: Liquid
Fixed: Temperature, K = 323.15
Fixed: Pressure, kPa = 101
Property: Excess molar enthalpy (molar enthalpy of mixing), kJ/mol (Liquid); method: Flow calorimetry
Mole fraction of acetic acid	Excess molar enthalpy (molar enthalpy of mixing), kJ/mol	uncertainty
0.0798	-0.101	0.002
0.1906	-0.21	0.003
0.2919	-0.266	0.004
0.414	-0.278	0.004
0.5236	-0.241	0.003
0.6224	-0.183	0.003
0.7332	-0.0931	0.0019
0.8318	-0.0135	0.0011
0.9203	0.0286	0.0013

System: acetic acid + 2-hydroxyethyl acetate; phases: Liquid, Gas
Fixed: Temperature, K = 363.15
Property: Vapor or sublimation pressure, kPa (Liquid); method: CCELL:UFactor:4
Mole fraction of acetic acid	Vapor or sublimation pressure, kPa	uncertainty
0	2.228	0.116
0.0069	2.292	0.117
0.0137	2.355	0.118
0.0302	2.511	0.12
0.0888	3.158	0.131
0.2101	4.977	0.16
0.3269	7.526	0.201
0.4338	10.699	0.252
0.5302	14.307	0.31
0.6112	17.88	0.367
0.6761	21.102	0.418
0.7092	22.775	0.445
0.7831	26.704	0.508
0.8516	30.596	0.571
0.9139	34.304	0.63
0.968	37.621	0.683
0.9912	39.075	0.706
0.9953	39.322	0.71
0.9976	39.454	0.712
1	39.675	0.716

System: acetic acid + 1,2-ethanediol; phases: Liquid, Gas
Fixed: Temperature, K = 363.15
Property: Vapor or sublimation pressure, kPa (Liquid); method: CCELL:UFactor:4
Mole fraction of acetic acid	Vapor or sublimation pressure, kPa	uncertainty
0	1.38	0.102
0.0081	1.494	0.104
0.0494	2.099	0.114
0.1308	3.511	0.136
0.2188	5.412	0.167
0.3084	7.793	0.205
0.3975	10.666	0.251
0.4797	13.818	0.301
0.5509	16.935	0.351
0.6812	23.302	0.453
0.7728	27.646	0.523
0.8634	32.147	0.595
0.9484	36.666	0.668
0.9913	39.095	0.707
1	39.661	0.716

System: acetic acid + 1,2-ethanediol; phases: Liquid
Fixed: Pressure, kPa = 101
Property: Excess molar enthalpy (molar enthalpy of mixing), kJ/mol (Liquid); method: FLOW:UFactor:2
Mole fraction of acetic acid	Temperature, K	Excess molar enthalpy (molar enthalpy of mixing), kJ/mol	uncertainty
0.0489	298.15	0.00662	0.00213
0.049	323.15	0.0203	0.0024
0.098	298.15	0.00415	0.00208
0.098	323.15	0.0293	0.0026
0.1472	298.15	-0.00204	0.00204
0.1472	323.15	0.0264	0.0025
0.1964	298.15	-0.0113	0.0022
0.1965	323.15	0.0217	0.0024
0.2458	298.15	-0.0249	0.0025
0.2459	323.15	0.0127	0.0023
0.2953	298.15	-0.035	0.003
0.2954	323.15	0.0072	0.0021
0.3449	298.15	-0.0459	0.0029
0.345	323.15	-0.00086	0.00202
0.3946	298.15	-0.056	0.003
0.3947	323.15	-0.0063	0.0021
0.4444	298.15	-0.0617	0.0032
0.4445	323.15	-0.0096	0.0022
0.4944	298.15	-0.0633	0.0033
0.4945	323.15	-0.007	0.002
0.5444	298.15	-0.057	0.003
0.5445	323.15	-0.0011	0.002
0.5946	298.15	-0.0446	0.0029
0.5947	323.15	0.0118	0.0022
0.6449	298.15	-0.026	0.003
0.645	323.15	0.0307	0.0026
0.6953	298.15	0.00134	0.00203
0.6953	323.15	0.0526	0.0031
0.7458	298.15	0.0279	0.0026
0.7458	323.15	0.0792	0.0036
0.7964	298.15	0.0579	0.0032
0.7964	323.15	0.102	0.004
0.8471	298.15	0.0821	0.0036
0.8472	323.15	0.121	0.004
0.898	298.15	0.0938	0.0039
0.898	323.15	0.124	0.005
0.9489	298.15	0.077	0.004
0.9489	323.15	0.0942	0.0039
