Measured thermophysical data. Isobaric vapor liquid equilibria for acetone + methanol + lithium nitrate at 100 kPa
Source: Fluid Phase Equilib., 2006, 10.1016/j.fluid.2006.09.007
Compound 1: methanol, CH4O, InChI=1S/CH4O/c1-2/h2H,1H3, purity 99.8%
Compound 2: acetone, C3H6O, InChI=1S/C3H6O/c1-3(2)4/h1-2H3, purity 99.5%
Compound 3: lithium nitrate, LiNO3, InChI=1S/Li.NO3/c;2-1(3)4/q+1;-1, purity 98%

System: methanol; phases: Liquid, Gas
Property: Vapor or sublimation pressure, kPa (Liquid); method: Ebulliometric method (Recirculating still)
Temperature, K	Vapor or sublimation pressure, kPa	uncertainty
315	38.33	0.38
318	43.97	0.4
321	50.29	0.45
324	57.36	0.5
327	65.25	0.56
330	74.02	0.62
333	83.76	0.68
336	94.55	0.76
339	106.47	0.84
342	119.61	0.92
345	134.07	0.96

System: acetone; phases: Liquid, Gas
Property: Vapor or sublimation pressure, kPa (Liquid); method: Ebulliometric method (Recirculating still)
Temperature, K	Vapor or sublimation pressure, kPa	uncertainty
314	57.96	0.47
317	64.95	0.49
320	72.6	0.54
323	80.96	0.58
326	90.08	0.64
329	100	0.69
332	110.78	0.75
335	122.47	0.81
338	135.11	0.85

System: methanol + acetone; phases: Liquid, Gas
Fixed: Pressure, kPa = 100
Property: Boiling temperature at pressure P, K (Liquid); method: Ebulliometric method (Recirculating still)
Mole fraction of acetone	Boiling temperature at pressure P, K	uncertainty
0	337.45	0.21
0.015	336.95	0.23
0.029	336.45	0.22
0.057	335.65	0.22
0.097	334.55	0.22
0.137	333.55	0.22
0.176	332.75	0.22
0.214	332.05	0.22
0.254	331.45	0.22
0.292	330.95	0.22
0.331	330.45	0.22
0.372	330.05	0.22
0.412	329.75	0.22
0.449	329.35	0.22
0.491	329.15	0.22
0.531	328.85	0.22
0.574	328.65	0.22
0.617	328.45	0.22
0.659	328.35	0.22
0.697	328.25	0.22
0.727	328.15	0.22
0.743	328.15	0.22
0.76	328.15	0.22
0.781	328.15	0.22
0.8	328.15	0.22
0.82	328.15	0.22
0.841	328.15	0.22
0.862	328.25	0.22
0.883	328.25	0.22
0.93	328.45	0.22
0.972	328.75	0.22
1	329.05	0.22

System: methanol + acetone; phases: Gas, Liquid
Fixed: Pressure, kPa = 100
Property: Mole fraction of acetone (Gas); method: Chromatography
Mole fraction of acetone	Mole fraction of acetone	uncertainty
0	0	0.001
0.015	0.034	0.005
0.029	0.063	0.005
0.057	0.119	0.004
0.097	0.188	0.004
0.137	0.247	0.004
0.176	0.303	0.004
0.214	0.348	0.004
0.254	0.388	0.004
0.292	0.423	0.005
0.331	0.456	0.005
0.372	0.489	0.005
0.412	0.518	0.005
0.449	0.546	0.005
0.491	0.576	0.005
0.531	0.603	0.004
0.574	0.63	0.004
0.617	0.662	0.004
0.659	0.69	0.004
0.697	0.718	0.004
0.727	0.739	0.004
0.743	0.751	0.004
0.76	0.765	0.003
0.781	0.781	0.003
0.8	0.797	0.003
0.82	0.813	0.003
0.841	0.83	0.003
0.862	0.85	0.003
0.883	0.87	0.003
0.93	0.918	0.003
0.972	0.964	0.003
1	1	0.001

System: methanol + lithium nitrate; phases: Liquid, Gas
Fixed: Pressure, kPa = 100
Property: Boiling temperature at pressure P, K (Liquid); method: Ebulliometric method (Recirculating still)
Mole fraction of lithium nitrate	Boiling temperature at pressure P, K	uncertainty
0	337.35	0.21
0.0094	337.95	0.24
0.0147	338.15	0.23
0.0206	338.45	0.23
0.0265	338.65	0.24
0.0333	339.05	0.24
0.0408	339.45	0.24
0.049	339.95	0.25
0.058	340.55	0.25
0.0682	341.15	0.25
0.0736	341.55	0.27
0.0823	342.25	0.27
0.0903	342.85	0.27
0.0957	343.35	0.28
0.1011	343.85	0.27
0.1066	344.25	0.27
0.1119	344.75	0.29
0.1194	345.45	0.29
0.1242	345.95	0.29
0.1289	346.35	0.27
0.134	346.75	0.29
0.139	347.35	0.31
0.1424	347.65	0.29
0.1475	348.15	0.3
0.1508	348.55	0.29
0.1564	349.05	0.3
0.161	349.65	0.3
0.167	350.15	0.27
0.1724	350.55	0.3
0.1764	351.15	0.33
0.1813	351.65	0.3
0.1825	351.75	0.3
0.1849	352.05	0.31
0.1862	352.05	0.31
0.1897	352.55	0.35
0.1917	352.65	0.34
0.1936	353.05	0.33
0.1977	353.55	0.32
0.2011	353.95	0.33
0.2051	354.45	0.28
0.2119	354.95	0.29
0.2155	355.45	0.33
0.2183	355.75	0.31
0.2228	356.25	0.32
0.2278	356.85	0.3
0.2322	357.25	0.31
0.2378	357.95	0.34
0.2446	358.85	0.34

System: methanol + acetone + lithium nitrate; phases: Liquid, Gas
Fixed: Pressure, kPa = 100
Property: Boiling temperature at pressure P, K (Liquid); method: Ebulliometric method (Recirculating still)
Mole fraction of lithium nitrate	Solvent: Mole fraction of acetone	Boiling temperature at pressure P, K	uncertainty
0.021	0	338.45	0.24
0.021	0.139	334.05	0.23
0.021	0.19	332.95	0.23
0.022	0.038	336.55	0.25
0.022	0.087	335.35	0.24
0.022	0.238	332.15	0.22
0.022	0.295	331.25	0.22
0.022	0.342	330.65	0.22
0.022	0.452	329.65	0.22
0.022	0.503	329.25	0.22
0.022	0.575	328.95	0.22
0.022	0.65	328.75	0.22
0.022	0.724	328.65	0.22
0.022	0.8	328.55	0.22
0.022	0.881	328.75	0.22
0.022	0.946	328.95	0.22
0.022	0.981	329.15	0.22
0.022	1	329.35	0.22
0.023	0.396	330.15	0.22
0.043	0.93	329.25	0.22
0.043	0.951	329.35	0.22
0.044	0	339.65	0.25
0.044	0.045	337.65	0.26
0.044	0.093	336.05	0.24
0.044	0.717	329.05	0.22
0.044	0.867	329.15	0.22
0.045	0.14	334.75	0.23
0.045	0.502	329.75	0.22
0.045	0.571	329.45	0.22
0.045	0.646	329.15	0.22
0.045	0.79	329.05	0.22
0.046	0.191	333.55	0.23
0.046	0.239	332.65	0.23
0.046	0.446	330.15	0.22
0.047	0.288	331.75	0.22
0.047	0.338	331.25	0.22
0.047	0.39	330.65	0.22
0.065	0.95	329.75	0.22
0.066	0.93	329.65	0.22
0.067	0.707	329.65	0.22
0.068	0	341.15	0.26
0.068	0.177	334.75	0.24
0.068	0.489	330.35	0.22
0.068	0.634	329.75	0.22
0.068	0.784	329.55	0.22
0.068	0.865	329.65	0.22
0.069	0.08	337.35	0.25
0.069	0.127	335.85	0.25
0.07	0.22	333.75	0.23
0.07	0.556	330.05	0.22
0.071	0.269	332.75	0.23
0.071	0.32	331.95	0.22
0.071	0.374	331.35	0.22
0.071	0.424	330.95	0.23
0.08	0.897	329.75	0.22
0.082	0.862	329.75	0.22
0.083	0.785	329.85	0.22
0.086	0.557	330.35	0.22
0.087	0.485	330.85	0.23
0.087	0.707	329.95	0.22
0.088	0.429	331.45	0.23
0.089	0.082	338.85	0.28
0.089	0.13	337.35	0.27
0.089	0.179	335.75	0.25
0.089	0.228	334.55	0.25
0.09	0	342.85	0.28
0.09	0.035	340.75	0.27
0.091	0.628	330.15	0.22
0.092	0.269	333.35	0.25
0.092	0.368	331.95	0.23
0.093	0.318	332.45	0.24
0.117	0.858	330.35	0.22
0.117	0.895	330.25	0.22
0.118	0.779	330.45	0.22
0.119	0.625	331.05	0.23
0.119	0.706	330.65	0.22
0.122	0.554	331.45	0.23
0.123	0.376	333.45	0.24
0.123	0.425	332.85	0.23
0.123	0.479	332.15	0.23
0.124	0	345.95	0.29
0.124	0.226	336.75	0.26
0.124	0.325	334.45	0.26
0.125	0.039	343.15	0.31
0.125	0.128	339.95	0.27
0.125	0.275	335.55	0.26
0.127	0.084	341.75	0.29
0.127	0.174	338.15	0.27
0.143	0.701	331.25	0.23
0.145	0.623	331.75	0.23
0.146	0.841	330.95	0.22
0.147	0.551	332.35	0.23
0.149	0.473	333.35	0.24
0.149	0.768	331.15	0.22
0.151	0	348.55	0.29
0.151	0.373	334.95	0.25
0.151	0.421	334.15	0.24
0.152	0.322	336.35	0.26
0.153	0.272	337.55	0.26
0.156	0.216	339.25	0.27
0.157	0.17	341.05	0.29
0.158	0.099	344.15	0.31
0.158	0.133	342.45	0.29
0.16	0.043	346.15	0.29

System: methanol + acetone + lithium nitrate; phases: Gas, Liquid
Fixed: Pressure, kPa = 100
Property: Mole fraction of acetone (Gas); method: Chromatography
Mole fraction of lithium nitrate	Solvent: Mole fraction of acetone	Mole fraction of acetone	uncertainty
0.021	0	0	0.001
0.021	0.139	0.271	0.004
0.021	0.19	0.34	0.004
0.022	0.038	0.092	0.005
0.022	0.087	0.187	0.004
0.022	0.238	0.395	0.005
0.022	0.295	0.45	0.005
0.022	0.342	0.496	0.005
0.022	0.452	0.579	0.005
0.022	0.503	0.617	0.005
0.022	0.575	0.667	0.004
0.022	0.65	0.719	0.004
0.022	0.724	0.775	0.004
0.022	0.8	0.831	0.004
0.022	0.881	0.894	0.003
0.022	0.946	0.949	0.003
0.022	0.981	0.981	0.003
0.022	1	1	0.001
0.023	0.396	0.539	0.005
0.043	0.93	0.945	0.003
0.043	0.951	0.961	0.003
0.044	0	0	0.001
0.044	0.045	0.11	0.005
0.044	0.093	0.206	0.005
0.044	0.717	0.797	0.004
0.044	0.867	0.899	0.003
0.045	0.14	0.289	0.004
0.045	0.502	0.647	0.004
0.045	0.571	0.695	0.004
0.045	0.646	0.745	0.004
0.045	0.79	0.848	0.003
0.046	0.191	0.361	0.005
0.046	0.239	0.421	0.005
0.046	0.446	0.606	0.005
0.047	0.288	0.474	0.005
0.047	0.338	0.521	0.005
0.047	0.39	0.565	0.005
0.065	0.95	0.967	0.003
0.066	0.93	0.954	0.003
0.067	0.707	0.814	0.003
0.068	0	0	0.001
0.068	0.177	0.36	0.004
0.068	0.489	0.666	0.004
0.068	0.634	0.766	0.004
0.068	0.784	0.863	0.003
0.068	0.865	0.913	0.003
0.069	0.08	0.194	0.005
0.069	0.127	0.28	0.005
0.07	0.22	0.418	0.005
0.07	0.556	0.714	0.004
0.071	0.269	0.476	0.005
0.071	0.32	0.53	0.005
0.071	0.374	0.579	0.005
0.071	0.424	0.619	0.004
0.08	0.897	0.938	0.003
0.082	0.862	0.917	0.003
0.083	0.785	0.874	0.003
0.086	0.557	0.731	0.004
0.087	0.485	0.683	0.004
0.087	0.707	0.83	0.003
0.088	0.429	0.642	0.004
0.089	0.082	0.204	0.005
0.089	0.13	0.297	0.005
0.089	0.179	0.378	0.005
0.089	0.228	0.445	0.005
0.09	0	0	0.001
0.09	0.035	0.095	0.005
0.091	0.628	0.785	0.003
0.092	0.269	0.497	0.005
0.092	0.368	0.596	0.004
0.093	0.318	0.549	0.005
0.117	0.858	0.93	0.002
0.117	0.895	0.948	0.002
0.118	0.779	0.891	0.003
0.119	0.625	0.807	0.003
0.119	0.706	0.852	0.003
0.122	0.554	0.763	0.003
0.123	0.376	0.628	0.004
0.123	0.425	0.669	0.004
0.123	0.479	0.709	0.004
0.124	0	0	0.001
0.124	0.226	0.459	0.005
0.124	0.325	0.58	0.004
0.125	0.039	0.107	0.005
0.125	0.128	0.305	0.005
0.125	0.275	0.525	0.005
0.127	0.084	0.213	0.005
0.127	0.174	0.39	0.005
0.143	0.701	0.862	0.003
0.145	0.623	0.821	0.003
0.146	0.841	0.93	0.002
0.147	0.551	0.778	0.003
0.149	0.473	0.724	0.004
0.149	0.768	0.898	0.003
0.151	0	0	0.001
0.151	0.373	0.644	0.004
0.151	0.421	0.685	0.004
0.152	0.322	0.588	0.004
0.153	0.272	0.533	0.005
0.156	0.216	0.466	0.006
0.157	0.17	0.385	0.005
0.158	0.099	0.248	0.005
0.158	0.133	0.326	0.005
0.16	0.043	0.119	0.005
