Measured thermophysical data. Gas-liquid chromatography measurements of activity coefficients at infinite dilution of hydrocarbons and alkanols in 1-alkyl-3-methylimidazolium bis(oxalato)borate
Source: Fluid Phase Equilib., 2010, 10.1016/j.fluid.2010.08.016
Compound 1: 1-butyl-3-methylimidazolium bis(oxalato)borate, C12H15BN2O8, InChI=1S/C8H15N2.C4BO8/c1-3-4-5-10-7-6-9(2)8-10;6-1-2(7)11-5(10-1)12-3(8)4(9)13-5/h6-8H,3-5H2,1-2H3;/q+1;-1, purity 98%
Compound 2: 1-hexyl-3-methylimidazolium bis(oxalato)borate, C14H19BN2O8, InChI=1S/C10H19N2.C4BO8/c1-3-4-5-6-7-12-9-8-11(2)10-12;6-1-2(7)11-5(10-1)12-3(8)4(9)13-5/h8-10H,3-7H2,1-2H3;/q+1;-1, purity 98%
Compound 3: pentane, C5H12, InChI=1S/C5H12/c1-3-5-4-2/h3-5H2,1-2H3, purity 99%
Compound 4: hexane, C6H14, InChI=1S/C6H14/c1-3-5-6-4-2/h3-6H2,1-2H3, purity 99%
Compound 5: heptane, C7H16, InChI=1S/C7H16/c1-3-5-7-6-4-2/h3-7H2,1-2H3, purity 99%
Compound 6: octane, C8H18, InChI=1S/C8H18/c1-3-5-7-8-6-4-2/h3-8H2,1-2H3, purity 99%
Compound 7: nonane, C9H20, InChI=1S/C9H20/c1-3-5-7-9-8-6-4-2/h3-9H2,1-2H3, purity 99%
Compound 8: cyclohexane, C6H12, InChI=1S/C6H12/c1-2-4-6-5-3-1/h1-6H2, purity 99%
Compound 9: methylcyclohexane, C7H14, InChI=1S/C7H14/c1-7-5-3-2-4-6-7/h7H,2-6H2,1H3, purity 99%
Compound 10: hex-1-ene, C6H12, InChI=1S/C6H12/c1-3-5-6-4-2/h3H,1,4-6H2,2H3, purity 99%
Compound 11: oct-1-ene, C8H16, InChI=1S/C8H16/c1-3-5-7-8-6-4-2/h3H,1,4-8H2,2H3, purity 99%
Compound 12: 1-decene, C10H20, InChI=1S/C10H20/c1-3-5-7-9-10-8-6-4-2/h3H,1,4-10H2,2H3, purity 99%
Compound 13: 1-pentyne, C5H8, InChI=1S/C5H8/c1-3-5-4-2/h1H,4-5H2,2H3, purity 99%
Compound 14: 1-hexyne, C6H10, InChI=1S/C6H10/c1-3-5-6-4-2/h1H,4-6H2,2H3, purity 99%
Compound 15: 1-heptyne, C7H12, InChI=1S/C7H12/c1-3-5-7-6-4-2/h1H,4-7H2,2H3, purity 99%
Compound 16: 1-octyne, C8H14, InChI=1S/C8H14/c1-3-5-7-8-6-4-2/h1H,4-8H2,2H3, purity 99%
Compound 17: benzene, C6H6, InChI=1S/C6H6/c1-2-4-6-5-3-1/h1-6H, purity 99%
Compound 18: toluene, C7H8, InChI=1S/C7H8/c1-7-5-3-2-4-6-7/h2-6H,1H3, purity 99%
Compound 19: ethylbenzene, C8H10, InChI=1S/C8H10/c1-2-8-6-4-3-5-7-8/h3-7H,2H2,1H3, purity 99%
Compound 20: 1,2-dimethylbenzene, C8H10, InChI=1S/C8H10/c1-7-5-3-4-6-8(7)2/h3-6H,1-2H3, purity 99%
Compound 21: 1,3-dimethylbenzene, C8H10, InChI=1S/C8H10/c1-7-4-3-5-8(2)6-7/h3-6H,1-2H3, purity 99%
Compound 22: 1,4-dimethylbenzene, C8H10, InChI=1S/C8H10/c1-7-3-5-8(2)6-4-7/h3-6H,1-2H3, purity 99%
Compound 23: methanol, CH4O, InChI=1S/CH4O/c1-2/h2H,1H3, purity 99%
Compound 24: ethanol, C2H6O, InChI=1S/C2H6O/c1-2-3/h3H,2H2,1H3, purity 99%
Compound 25: propan-1-ol, C3H8O, InChI=1S/C3H8O/c1-2-3-4/h4H,2-3H2,1H3, purity 99%

System: pentane + 1-butyl-3-methylimidazolium bis(oxalato)borate; phases: Liquid
Fixed: Pressure, kPa = 101.3
Fixed: Mole fraction of pentane = 0
Property: Activity coefficient of pentane (Liquid); method: Chromatography
Temperature, K	Activity coefficient of pentane	uncertainty
307.8	9.11	0.79
317.6	6.63	0.58
328.2	5.12	0.44
338.5	4.02	0.35
347.7	3.23	0.28

System: hexane + 1-butyl-3-methylimidazolium bis(oxalato)borate; phases: Liquid
Fixed: Pressure, kPa = 101.3
Fixed: Mole fraction of hexane = 0
Property: Activity coefficient of hexane (Liquid); method: Chromatography
Temperature, K	Activity coefficient of hexane	uncertainty
307.8	27.6	2.41
317.7	19.18	1.68
328.3	12.93	1.13
338.5	9.61	0.84
347.7	7.55	0.66

System: heptane + 1-butyl-3-methylimidazolium bis(oxalato)borate; phases: Liquid
Fixed: Pressure, kPa = 101.3
Fixed: Mole fraction of heptane = 0
Property: Activity coefficient of heptane (Liquid); method: Chromatography
Temperature, K	Activity coefficient of heptane	uncertainty
307.9	57.79	5.05
317.6	41.52	3.63
328.3	30.05	2.63
338.5	21.99	1.92
347.7	17.08	1.49

System: octane + 1-butyl-3-methylimidazolium bis(oxalato)borate; phases: Liquid
Fixed: Pressure, kPa = 101.3
Fixed: Mole fraction of octane = 0
Property: Activity coefficient of octane (Liquid); method: Chromatography
Temperature, K	Activity coefficient of octane	uncertainty
307.9	116.45	10.17
317.6	85.74	7.5
328.2	62.78	5.49
338.5	45.7	3.99
347.7	35.48	3.1

System: nonane + 1-butyl-3-methylimidazolium bis(oxalato)borate; phases: Liquid
Fixed: Pressure, kPa = 101.3
Fixed: Mole fraction of nonane = 0
Property: Activity coefficient of nonane (Liquid); method: Chromatography
Temperature, K	Activity coefficient of nonane	uncertainty
307.9	194.07	16.91
317.6	151.69	13.23
328.3	116	10.12
338.5	87.18	7.62
347.7	67.62	5.91

System: cyclohexane + 1-butyl-3-methylimidazolium bis(oxalato)borate; phases: Liquid
Fixed: Pressure, kPa = 101.3
Fixed: Mole fraction of cyclohexane = 0
Property: Activity coefficient of cyclohexane (Liquid); method: Chromatography
Temperature, K	Activity coefficient of cyclohexane	uncertainty
307.8	25.44	2.22
317.8	18.52	1.62
328.3	13.93	1.21
338.6	10.63	0.92
347.6	8.52	0.74

System: methylcyclohexane + 1-butyl-3-methylimidazolium bis(oxalato)borate; phases: Liquid
Fixed: Pressure, kPa = 101.3
Fixed: Mole fraction of methylcyclohexane = 0
Property: Activity coefficient of methylcyclohexane (Liquid); method: Chromatography
Temperature, K	Activity coefficient of methylcyclohexane	uncertainty
307.9	42.37	3.69
317.7	31.05	2.71
328.3	23.24	2.02
338.6	17.76	1.55
347.6	14.05	1.22

System: hex-1-ene + 1-butyl-3-methylimidazolium bis(oxalato)borate; phases: Liquid
Fixed: Pressure, kPa = 101.3
Fixed: Mole fraction of hex-1-ene = 0
Property: Activity coefficient of hex-1-ene (Liquid); method: Chromatography
Temperature, K	Activity coefficient of hex-1-ene	uncertainty
307.6	17.21	1.5
317.6	12.74	1.11
327.8	9.42	0.82
337.7	7.8	0.68
347.8	6.03	0.53

System: oct-1-ene + 1-butyl-3-methylimidazolium bis(oxalato)borate; phases: Liquid
Fixed: Pressure, kPa = 101.3
Fixed: Mole fraction of oct-1-ene = 0
Property: Activity coefficient of oct-1-ene (Liquid); method: Chromatography
Temperature, K	Activity coefficient of oct-1-ene	uncertainty
307.6	65.85	5.73
317.7	50.1	4.37
327.8	39	3.39
337.7	32.23	2.8
347.8	24.95	2.18

System: 1-decene + 1-butyl-3-methylimidazolium bis(oxalato)borate; phases: Liquid
Fixed: Pressure, kPa = 101.3
Fixed: Mole fraction of 1-decene = 0
Property: Activity coefficient of 1-decene (Liquid); method: Chromatography
Temperature, K	Activity coefficient of 1-decene	uncertainty
307.6	144.01	12.52
317.7	119.05	10.35
327.7	100.48	8.72
337.8	87.99	7.64
347.9	72.49	6.31

System: 1-pentyne + 1-butyl-3-methylimidazolium bis(oxalato)borate; phases: Liquid
Fixed: Pressure, kPa = 101.3
Fixed: Mole fraction of 1-pentyne = 0
Property: Activity coefficient of 1-pentyne (Liquid); method: Chromatography
Temperature, K	Activity coefficient of 1-pentyne	uncertainty
307.8	5.49	0.48
317.5	4.36	0.38
327.6	3.55	0.31
337.7	2.96	0.26
347.8	2.47	0.21

System: 1-hexyne + 1-butyl-3-methylimidazolium bis(oxalato)borate; phases: Liquid
Fixed: Pressure, kPa = 101.3
Fixed: Mole fraction of 1-hexyne = 0
Property: Activity coefficient of 1-hexyne (Liquid); method: Chromatography
Temperature, K	Activity coefficient of 1-hexyne	uncertainty
307.8	9.3	0.81
317.5	7.73	0.67
327.6	6.38	0.55
337.7	5.43	0.47
347.8	4.71	0.41

System: 1-heptyne + 1-butyl-3-methylimidazolium bis(oxalato)borate; phases: Liquid
Fixed: Pressure, kPa = 101.3
Fixed: Mole fraction of 1-heptyne = 0
Property: Activity coefficient of 1-heptyne (Liquid); method: Chromatography
Temperature, K	Activity coefficient of 1-heptyne	uncertainty
307.8	14.34	1.24
317.5	12.29	1.06
327.7	10.52	0.91
337.7	9.17	0.79
347.8	7.96	0.69

System: 1-octyne + 1-butyl-3-methylimidazolium bis(oxalato)borate; phases: Liquid
Fixed: Pressure, kPa = 101.3
Fixed: Mole fraction of 1-octyne = 0
Property: Activity coefficient of 1-octyne (Liquid); method: Chromatography
Temperature, K	Activity coefficient of 1-octyne	uncertainty
307.8	21.35	1.85
317.5	18.74	1.62
327.7	16.31	1.41
337.7	14.49	1.25
347.8	12.71	1.1

System: benzene + 1-butyl-3-methylimidazolium bis(oxalato)borate; phases: Liquid
Fixed: Pressure, kPa = 101.3
Fixed: Mole fraction of benzene = 0
Property: Activity coefficient of benzene (Liquid); method: Chromatography
Temperature, K	Activity coefficient of benzene	uncertainty
307.8	3.29	0.28
317.5	3.06	0.26
328.2	2.7	0.23
338.5	2.48	0.21
348.5	2.29	0.2

System: toluene + 1-butyl-3-methylimidazolium bis(oxalato)borate; phases: Liquid
Fixed: Pressure, kPa = 101.3
Fixed: Mole fraction of toluene = 0
Property: Activity coefficient of toluene (Liquid); method: Chromatography
Temperature, K	Activity coefficient of toluene	uncertainty
307.8	5.31	0.46
317.5	4.71	0.41
328.2	4.36	0.38
338.4	3.93	0.34
348.5	3.68	0.32

System: ethylbenzene + 1-butyl-3-methylimidazolium bis(oxalato)borate; phases: Liquid
Fixed: Pressure, kPa = 101.3
Fixed: Mole fraction of ethylbenzene = 0
Property: Activity coefficient of ethylbenzene (Liquid); method: Chromatography
Temperature, K	Activity coefficient of ethylbenzene	uncertainty
307.7	8.4	0.73
317.5	7.49	0.65
328.2	6.89	0.6
338.4	6.22	0.54
348.5	5.85	0.51

System: 1,2-dimethylbenzene + 1-butyl-3-methylimidazolium bis(oxalato)borate; phases: Liquid
Fixed: Pressure, kPa = 101.3
Fixed: Mole fraction of 1,2-dimethylbenzene = 0
Property: Activity coefficient of 1,2-dimethylbenzene (Liquid); method: Chromatography
Temperature, K	Activity coefficient of 1,2-dimethylbenzene	uncertainty
307.8	7.08	0.61
317.5	6.43	0.56
328.3	5.94	0.51
338.4	5.5	0.47
348.5	5.09	0.44

System: 1,3-dimethylbenzene + 1-butyl-3-methylimidazolium bis(oxalato)borate; phases: Liquid
Fixed: Pressure, kPa = 101.3
Fixed: Mole fraction of 1,3-dimethylbenzene = 0
Property: Activity coefficient of 1,3-dimethylbenzene (Liquid); method: Chromatography
Temperature, K	Activity coefficient of 1,3-dimethylbenzene	uncertainty
307.8	8.35	0.72
317.6	7.56	0.65
328.4	6.96	0.6
338.4	6.33	0.55
348.4	5.91	0.51

System: 1,4-dimethylbenzene + 1-butyl-3-methylimidazolium bis(oxalato)borate; phases: Liquid
Fixed: Pressure, kPa = 101.3
Fixed: Mole fraction of 1,4-dimethylbenzene = 0
Property: Activity coefficient of 1,4-dimethylbenzene (Liquid); method: Chromatography
Temperature, K	Activity coefficient of 1,4-dimethylbenzene	uncertainty
307.8	8.4	0.73
317.6	7.48	0.65
328.4	6.81	0.59
338.4	6.33	0.55
348.4	5.86	0.51

System: methanol + 1-butyl-3-methylimidazolium bis(oxalato)borate; phases: Liquid
Fixed: Pressure, kPa = 101.3
Fixed: Mole fraction of methanol = 0
Property: Activity coefficient of methanol (Liquid); method: Chromatography
Temperature, K	Activity coefficient of methanol	uncertainty
307.7	1.94	0.17
317.5	1.73	0.15
327.5	1.51	0.13
337.7	1.34	0.11
347.8	1.18	0.1

System: ethanol + 1-butyl-3-methylimidazolium bis(oxalato)borate; phases: Liquid
Fixed: Pressure, kPa = 101.3
Fixed: Mole fraction of ethanol = 0
Property: Activity coefficient of ethanol (Liquid); method: Chromatography
Temperature, K	Activity coefficient of ethanol	uncertainty
307.7	3.4	0.29
317.5	2.9	0.25
327.6	2.48	0.21
337.7	2.14	0.18
347.8	1.83	0.16

System: propan-1-ol + 1-butyl-3-methylimidazolium bis(oxalato)borate; phases: Liquid
Fixed: Pressure, kPa = 101.3
Fixed: Mole fraction of propan-1-ol = 0
Property: Activity coefficient of propan-1-ol (Liquid); method: Chromatography
Temperature, K	Activity coefficient of propan-1-ol	uncertainty
307.8	4.75	0.41
317.5	4.03	0.35
327.6	3.4	0.29
337.7	2.93	0.25
347.8	2.5	0.22

System: pentane + 1-hexyl-3-methylimidazolium bis(oxalato)borate; phases: Liquid
Fixed: Pressure, kPa = 101.3
Fixed: Mole fraction of pentane = 0
Property: Activity coefficient of pentane (Liquid); method: Chromatography
Temperature, K	Activity coefficient of pentane	uncertainty
308	8.31	0.72
318.2	6.89	0.6
328.2	5.46	0.47
338.4	4.52	0.39
348.4	3.88	0.34

System: hexane + 1-hexyl-3-methylimidazolium bis(oxalato)borate; phases: Liquid
Fixed: Pressure, kPa = 101.3
Fixed: Mole fraction of hexane = 0
Property: Activity coefficient of hexane (Liquid); method: Chromatography
Temperature, K	Activity coefficient of hexane	uncertainty
308.3	19.1	1.66
318.1	15.72	1.36
328.2	12.35	1.07
338.3	10.18	0.88
348.4	8.58	0.74

System: heptane + 1-hexyl-3-methylimidazolium bis(oxalato)borate; phases: Liquid
Fixed: Pressure, kPa = 101.3
Fixed: Mole fraction of heptane = 0
Property: Activity coefficient of heptane (Liquid); method: Chromatography
Temperature, K	Activity coefficient of heptane	uncertainty
308.6	36.2	3.14
318.2	30.89	2.68
328.3	24.46	2.12
338.5	20.42	1.77
348.5	17.39	1.51

System: octane + 1-hexyl-3-methylimidazolium bis(oxalato)borate; phases: Liquid
Fixed: Pressure, kPa = 101.3
Fixed: Mole fraction of octane = 0
Property: Activity coefficient of octane (Liquid); method: Chromatography
Temperature, K	Activity coefficient of octane	uncertainty
308.5	59.37	5.15
318.1	51.87	4.5
328.2	43.48	3.77
338.4	37.22	3.23
348.6	31.84	2.76

System: nonane + 1-hexyl-3-methylimidazolium bis(oxalato)borate; phases: Liquid
Fixed: Pressure, kPa = 101.3
Fixed: Mole fraction of nonane = 0
Property: Activity coefficient of nonane (Liquid); method: Chromatography
Temperature, K	Activity coefficient of nonane	uncertainty
308.3	89.28	7.74
318.1	79.96	6.94
328.2	69.05	5.99
338.4	60.6	5.25
348.4	53.04	4.6

System: cyclohexane + 1-hexyl-3-methylimidazolium bis(oxalato)borate; phases: Liquid
Fixed: Pressure, kPa = 101.3
Fixed: Mole fraction of cyclohexane = 0
Property: Activity coefficient of cyclohexane (Liquid); method: Chromatography
Temperature, K	Activity coefficient of cyclohexane	uncertainty
308.4	15.64	1.36
318.1	13.18	1.14
328.2	11.28	0.98
338.5	9.52	0.82
348.5	8.41	0.73

System: methylcyclohexane + 1-hexyl-3-methylimidazolium bis(oxalato)borate; phases: Liquid
Fixed: Pressure, kPa = 101.3
Fixed: Mole fraction of methylcyclohexane = 0
Property: Activity coefficient of methylcyclohexane (Liquid); method: Chromatography
Temperature, K	Activity coefficient of methylcyclohexane	uncertainty
308.4	23.43	2.03
318.1	19.9	1.72
328.2	17.12	1.48
338.4	15.07	1.3
348.5	13.03	1.13

System: hex-1-ene + 1-hexyl-3-methylimidazolium bis(oxalato)borate; phases: Liquid
Fixed: Pressure, kPa = 101.3
Fixed: Mole fraction of hex-1-ene = 0
Property: Activity coefficient of hex-1-ene (Liquid); method: Chromatography
Temperature, K	Activity coefficient of hex-1-ene	uncertainty
308.3	11.35	0.98
318.2	8.97	0.78
328.3	7.21	0.63
338.3	5.91	0.51
348.6	4.91	0.43

System: oct-1-ene + 1-hexyl-3-methylimidazolium bis(oxalato)borate; phases: Liquid
Fixed: Pressure, kPa = 101.3
Fixed: Mole fraction of oct-1-ene = 0
Property: Activity coefficient of oct-1-ene (Liquid); method: Chromatography
Temperature, K	Activity coefficient of oct-1-ene	uncertainty
308.3	30.22	2.62
318.2	25.63	2.22
328.3	21.88	1.9
338.3	18.7	1.62
348.4	16.01	1.39

System: 1-decene + 1-hexyl-3-methylimidazolium bis(oxalato)borate; phases: Liquid
Fixed: Pressure, kPa = 101.3
Fixed: Mole fraction of 1-decene = 0
Property: Activity coefficient of 1-decene (Liquid); method: Chromatography
Temperature, K	Activity coefficient of 1-decene	uncertainty
308.3	57.09	4.95
318.1	51.64	4.47
328.2	46.15	4
338.4	40.86	3.54
348.3	37.03	3.21

System: 1-pentyne + 1-hexyl-3-methylimidazolium bis(oxalato)borate; phases: Liquid
Fixed: Pressure, kPa = 101.3
Fixed: Mole fraction of 1-pentyne = 0
Property: Activity coefficient of 1-pentyne (Liquid); method: Chromatography
Temperature, K	Activity coefficient of 1-pentyne	uncertainty
308.4	5.17	0.45
318.3	4.67	0.4
328.2	4.14	0.36
338.3	3.73	0.32
348.3	3.28	0.28

System: 1-hexyne + 1-hexyl-3-methylimidazolium bis(oxalato)borate; phases: Liquid
Fixed: Pressure, kPa = 101.3
Fixed: Mole fraction of 1-hexyne = 0
Property: Activity coefficient of 1-hexyne (Liquid); method: Chromatography
Temperature, K	Activity coefficient of 1-hexyne	uncertainty
308.4	7.87	0.68
318.3	7.27	0.63
328.3	6.61	0.57
338.3	6.1	0.53
348.3	5.52	0.48

System: 1-heptyne + 1-hexyl-3-methylimidazolium bis(oxalato)borate; phases: Liquid
Fixed: Pressure, kPa = 101.3
Fixed: Mole fraction of 1-heptyne = 0
Property: Activity coefficient of 1-heptyne (Liquid); method: Chromatography
Temperature, K	Activity coefficient of 1-heptyne	uncertainty
308.4	11.49	0.99
318.3	10.86	0.94
328.2	10.13	0.88
338.4	9.41	0.81
348.3	8.96	0.77

System: 1-octyne + 1-hexyl-3-methylimidazolium bis(oxalato)borate; phases: Liquid
Fixed: Pressure, kPa = 101.3
Fixed: Mole fraction of 1-octyne = 0
Property: Activity coefficient of 1-octyne (Liquid); method: Chromatography
Temperature, K	Activity coefficient of 1-octyne	uncertainty
308.6	16.18	1.4
318.3	15.41	1.33
328.3	14.58	1.26
338.5	13.75	1.19
348.3	13.01	1.12

System: benzene + 1-hexyl-3-methylimidazolium bis(oxalato)borate; phases: Liquid
Fixed: Pressure, kPa = 101.3
Fixed: Mole fraction of benzene = 0
Property: Activity coefficient of benzene (Liquid); method: Chromatography
Temperature, K	Activity coefficient of benzene	uncertainty
308	2.2	0.19
318.2	1.98	0.17
328.4	1.87	0.16
338.5	1.73	0.15
348.5	1.63	0.14

System: toluene + 1-hexyl-3-methylimidazolium bis(oxalato)borate; phases: Liquid
Fixed: Pressure, kPa = 101.3
Fixed: Mole fraction of toluene = 0
Property: Activity coefficient of toluene (Liquid); method: Chromatography
Temperature, K	Activity coefficient of toluene	uncertainty
308.1	3.15	0.27
318.1	2.99	0.26
328.4	2.79	0.24
338.5	2.65	0.23
348.5	2.48	0.21

System: ethylbenzene + 1-hexyl-3-methylimidazolium bis(oxalato)borate; phases: Liquid
Fixed: Pressure, kPa = 101.3
Fixed: Mole fraction of ethylbenzene = 0
Property: Activity coefficient of ethylbenzene (Liquid); method: Chromatography
Temperature, K	Activity coefficient of ethylbenzene	uncertainty
308.2	4.75	0.41
318.2	4.42	0.38
328.4	4.18	0.36
338.5	3.9	0.34
348.5	3.65	0.31

System: 1,2-dimethylbenzene + 1-hexyl-3-methylimidazolium bis(oxalato)borate; phases: Liquid
Fixed: Pressure, kPa = 101.3
Fixed: Mole fraction of 1,2-dimethylbenzene = 0
Property: Activity coefficient of 1,2-dimethylbenzene (Liquid); method: Chromatography
Temperature, K	Activity coefficient of 1,2-dimethylbenzene	uncertainty
308.3	4.14	0.36
318.3	3.91	0.34
328.4	3.71	0.32
338.4	3.49	0.3
348.6	3.27	0.28

System: 1,3-dimethylbenzene + 1-hexyl-3-methylimidazolium bis(oxalato)borate; phases: Liquid
Fixed: Pressure, kPa = 101.3
Fixed: Mole fraction of 1,3-dimethylbenzene = 0
Property: Activity coefficient of 1,3-dimethylbenzene (Liquid); method: Chromatography
Temperature, K	Activity coefficient of 1,3-dimethylbenzene	uncertainty
308.4	4.69	0.4
318.3	4.44	0.38
328.5	4.17	0.36
338.4	3.95	0.34
348.6	3.69	0.32

System: 1,4-dimethylbenzene + 1-hexyl-3-methylimidazolium bis(oxalato)borate; phases: Liquid
Fixed: Pressure, kPa = 101.3
Fixed: Mole fraction of 1,4-dimethylbenzene = 0
Property: Activity coefficient of 1,4-dimethylbenzene (Liquid); method: Chromatography
Temperature, K	Activity coefficient of 1,4-dimethylbenzene	uncertainty
308.4	4.71	0.41
318.3	4.43	0.38
328.5	4.23	0.37
338.4	3.95	0.34
348.6	3.71	0.32

System: methanol + 1-hexyl-3-methylimidazolium bis(oxalato)borate; phases: Liquid
Fixed: Pressure, kPa = 101.3
Fixed: Mole fraction of methanol = 0
Property: Activity coefficient of methanol (Liquid); method: Chromatography
Temperature, K	Activity coefficient of methanol	uncertainty
308.3	1.59	0.14
318.1	1.43	0.12
328.5	1.26	0.11
337.5	1.14	0.09
347.6	1.01	0.08

System: ethanol + 1-hexyl-3-methylimidazolium bis(oxalato)borate; phases: Liquid
Fixed: Pressure, kPa = 101.3
Fixed: Mole fraction of ethanol = 0
Property: Activity coefficient of ethanol (Liquid); method: Chromatography
Temperature, K	Activity coefficient of ethanol	uncertainty
308.3	2.43	0.21
318.1	2.15	0.19
328.5	1.85	0.16
337.5	1.64	0.14
347.7	1.41	0.12

System: propan-1-ol + 1-hexyl-3-methylimidazolium bis(oxalato)borate; phases: Liquid
Fixed: Pressure, kPa = 101.3
Fixed: Mole fraction of propan-1-ol = 0
Property: Activity coefficient of propan-1-ol (Liquid); method: Chromatography
Temperature, K	Activity coefficient of propan-1-ol	uncertainty
308.3	3.08	0.27
318.1	2.7	0.23
328.5	2.27	0.2
337.5	1.99	0.17
347.7	1.7	0.15
