Measured thermophysical data. Experimental measurement and modeling study on CO2 equilibrium solubility, density and viscosity for 1-dimethylamino-2-propanol (1DMA2P) solution
Source: Fluid Phase Equilib., 2018, 10.1016/j.fluid.2017.09.019
Compound 1: 1-(dimethylamino)-2-propanol, C5H13NO, InChI=1S/C5H13NO/c1-5(7)4-6(2)3/h5,7H,4H2,1-3H3, purity 99%
Compound 2: N-methyldiethanolamine, C5H13NO2, InChI=1S/C5H13NO2/c1-6(2-4-7)3-5-8/h7-8H,2-5H2,1H3, purity 99%
Compound 3: water, H2O, InChI=1S/H2O/h1H2, purity 99.8%
Compound 4: carbon dioxide, CO2, InChI=1S/CO2/c2-1-3, purity 99.99%

System: 1-(dimethylamino)-2-propanol; phases: Liquid, Gas
Property: Vapor or sublimation pressure, kPa (Liquid); method: Closed cell (Static) method
Temperature, K	Vapor or sublimation pressure, kPa	uncertainty
298.49	4.13	2
303.88	6.59	2
308.43	8.03	2
313.34	10.34	2
318.26	12.51	2
323.6	15.84	2
328.26	18.73	2.01
333.04	23.06	2.01

System: 1-(dimethylamino)-2-propanol; phases: Liquid
Fixed: Pressure, kPa = 101
Property: Mass density, kg/m3 (Liquid); method: Vibrating tube method
Temperature, K	Mass density, kg/m3	uncertainty
298.15	845.4	2.4
303.15	840.3	2.4
308.15	835.5	2.4
313.15	830.7	2.4
318.15	825.8	2.4
323.15	820.9	2.4
328.15	816	2.4
333.15	811.1	2.4

System: 1-(dimethylamino)-2-propanol; phases: Liquid
Fixed: Pressure, kPa = 101
Property: Viscosity, Pa*s (Liquid); method: Concentric cylinders viscometry
Temperature, K	Viscosity, Pa*s	uncertainty
298.15	0.001332	0.000101
303.15	0.001183	0.000101
308.15	0.001059	0.0001
313.15	0.000955	0.0001
318.15	0.000866	0.0001
323.15	0.000788	0.0001
328.15	0.00072	0.0001
333.15	0.000662	0.0001

System: N-methyldiethanolamine; phases: Liquid
Fixed: Pressure, kPa = 101
Property: Mass density, kg/m3 (Liquid); method: Vibrating tube method
Temperature, K	Mass density, kg/m3	uncertainty
298.15	1036.9	2.4
308.15	1029.8	2.4
323.15	1018.3	2.4

System: N-methyldiethanolamine; phases: Liquid
Fixed: Pressure, kPa = 101
Property: Viscosity, Pa*s (Liquid); method: Concentric cylinders viscometry
Temperature, K	Viscosity, Pa*s	uncertainty
298.15	0.077294	0.000883
308.15	0.044987	0.00051
323.15	0.022597	0.000341

System: N-methyldiethanolamine + water; phases: Liquid
Fixed: Pressure, kPa = 101
Property: Mass density, kg/m3 (Liquid); method: Vibrating tube method
Temperature, K	Mass fraction of N-methyldiethanolamine	Mass density, kg/m3	uncertainty
298.15	1	1036.9	2.4
308.15	1	1029.8	2.4
323.15	1	1018.3	2.4
298.15	0.2	1014.8	2.4
308.15	0.2	1010.6	2.4
323.15	0.2	1002.9	2.4
298.15	0.3	1025.2	2.4
308.15	0.3	1021.1	2.4
323.15	0.3	1013.2	2.4

System: N-methyldiethanolamine + water; phases: Liquid
Fixed: Pressure, kPa = 101
Property: Viscosity, Pa*s (Liquid); method: Concentric cylinders viscometry
Temperature, K	Mass fraction of N-methyldiethanolamine	Viscosity, Pa*s	uncertainty
298.15	1	0.077294	0.000883
308.15	1	0.044987	0.00051
323.15	1	0.022597	0.000341
298.15	0.2	0.001932	0.000101
308.15	0.2	0.00151	0.000101
323.15	0.2	0.001061	0.0001
298.15	0.3	0.003081	0.000102
308.15	0.3	0.002263	0.000101
323.15	0.3	0.001521	0.000101

System: 1-(dimethylamino)-2-propanol + water; phases: Liquid
Fixed: Pressure, kPa = 101
Property: Mass density, kg/m3 (Liquid); method: Vibrating tube method
Temperature, K	Mass fraction of 1-(dimethylamino)-2-propanol	Mass density, kg/m3	uncertainty
298.15	0.25	986.5	2.4
303.15	0.25	983.5	2.4
308.15	0.25	980.6	2.4
313.15	0.25	977.5	2.4
318.15	0.25	974.3	2.4
323.15	0.25	971	2.4
328.15	0.25	967.6	2.4
333.15	0.25	964.2	2.4
298.15	0.3	984.4	2.4
303.15	0.3	981	2.4
308.15	0.3	977.8	2.4
313.15	0.3	973.6	2.4
318.15	0.3	969.8	2.4
323.15	0.3	966.2	2.4
328.15	0.3	962.4	2.4
333.15	0.3	958.4	2.4
298.15	0.2	988.2	2.4
303.15	0.2	985.7	2.4
308.15	0.2	983	2.4
313.15	0.2	980.4	2.4
318.15	0.2	977.5	2.4
323.15	0.2	974.2	2.4
328.15	0.2	971.2	2.4
333.15	0.2	967.8	2.4
298.15	0.35	979.5	2.4
303.15	0.35	976.1	2.4
308.15	0.35	972.4	2.4
313.15	0.35	968.4	2.4
318.15	0.35	964.1	2.4
323.15	0.35	960.2	2.4
328.15	0.35	955.6	2.4
333.15	0.35	950.9	2.4
298.15	0.4	976.4	2.4
303.15	0.4	972.1	2.4
308.15	0.4	968.3	2.4
313.15	0.4	964.1	2.4
318.15	0.4	959.9	2.4
323.15	0.4	955.5	2.4
328.15	0.4	951.3	2.4
333.15	0.4	946.7	2.4
298.15	0.45	970.3	2.4
303.15	0.45	966.4	2.4
308.15	0.45	961.8	2.4
313.15	0.45	957.8	2.4
318.15	0.45	953.6	2.4
323.15	0.45	949.4	2.4
328.15	0.45	944.2	2.4
333.15	0.45	939.2	2.4
298.15	0.5	966.2	2.4
303.15	0.5	962.1	2.4
308.15	0.5	957.7	2.4
313.15	0.5	953.4	2.4
318.15	0.5	949	2.4
323.15	0.5	944.5	2.4
328.15	0.5	940.1	2.4
333.15	0.5	936.1	2.4
298.15	0.6	949.4	2.4
303.15	0.6	944.6	2.4
308.15	0.6	940	2.4
313.15	0.6	935.4	2.4
318.15	0.6	930.7	2.4
323.15	0.6	925.9	2.4
328.15	0.6	921.2	2.4
333.15	0.6	916	2.4
298.15	0.7	930.9	2.4
303.15	0.7	925.3	2.4
308.15	0.7	919.8	2.4
313.15	0.7	915.8	2.4
318.15	0.7	910.9	2.4
323.15	0.7	906.8	2.4
328.15	0.7	901.7	2.4
333.15	0.7	897.1	2.4
298.15	0.8	908.8	2.4
303.15	0.8	903.5	2.4
308.15	0.8	899.1	2.4
313.15	0.8	894.1	2.4
318.15	0.8	889.4	2.4
323.15	0.8	884.6	2.4
328.15	0.8	880	2.4
333.15	0.8	875.3	2.4
298.15	0.9	879.8	2.4
303.15	0.9	875	2.4
308.15	0.9	870.1	2.4
313.15	0.9	865.3	2.4
318.15	0.9	860.5	2.4
323.15	0.9	855.9	2.4
328.15	0.9	850.6	2.4
333.15	0.9	845	2.4
298.15	0.95	863.9	2.4
303.15	0.95	858.9	2.4
308.15	0.95	854.1	2.4
313.15	0.95	849.3	2.4
318.15	0.95	844.4	2.4
323.15	0.95	839.5	2.4
328.15	0.95	834.6	2.4
333.15	0.95	830.9	2.4
298.15	0.96	858.1	2.4
303.15	0.96	853.1	2.4
308.15	0.96	848.4	2.4
313.15	0.96	843.6	2.4
318.15	0.96	838.7	2.4
323.15	0.96	833.8	2.4
328.15	0.96	828.8	2.4
333.15	0.96	823.8	2.4
298.15	0.98	852.4	2.4
303.15	0.98	847.3	2.4
308.15	0.98	842.4	2.4
313.15	0.98	837.6	2.4
318.15	0.98	832.6	2.4
323.15	0.98	827.7	2.4
328.15	0.98	822.8	2.4
333.15	0.98	817.9	2.4
298.15	1	845.4	2.4
303.15	1	840.3	2.4
308.15	1	835.5	2.4
313.15	1	830.7	2.4
318.15	1	825.8	2.4
323.15	1	820.9	2.4
328.15	1	816	2.4
333.15	1	811.1	2.4

System: 1-(dimethylamino)-2-propanol + water; phases: Liquid
Fixed: Pressure, kPa = 101
Property: Viscosity, Pa*s (Liquid); method: Concentric cylinders viscometry
Temperature, K	Mass fraction of 1-(dimethylamino)-2-propanol	Viscosity, Pa*s	uncertainty
298.15	0.25	0.002995	0.000104
303.15	0.25	0.00251	0.000102
308.15	0.25	0.002115	0.000102
313.15	0.25	0.001803	0.000101
318.15	0.25	0.001562	0.000101
323.15	0.25	0.001363	0.000101
328.15	0.25	0.001201	0.0001
333.15	0.25	0.001067	0.0001
298.15	0.3	0.003886	0.000106
303.15	0.3	0.003097	0.000104
308.15	0.3	0.002559	0.000102
313.15	0.3	0.002161	0.000102
318.15	0.3	0.001852	0.000101
323.15	0.3	0.001598	0.000101
328.15	0.3	0.001402	0.000101
333.15	0.3	0.001236	0.0001
298.15	0.2	0.002407	0.000102
303.15	0.2	0.002018	0.000101
308.15	0.2	0.001738	0.000101
313.15	0.2	0.001509	0.000101
318.15	0.2	0.001325	0.000101
323.15	0.2	0.001179	0.0001
328.15	0.2	0.00105	0.0001
333.15	0.2	0.000934	0.0001
298.15	0.35	0.004735	0.000109
303.15	0.35	0.003805	0.000106
308.15	0.35	0.003115	0.000104
313.15	0.35	0.002587	0.000102
318.15	0.35	0.002194	0.000102
323.15	0.35	0.001868	0.000101
328.15	0.35	0.00162	0.000101
333.15	0.35	0.001483	0.000101
298.15	0.4	0.00567	0.000112
303.15	0.4	0.00454	0.00011
308.15	0.4	0.003647	0.000106
313.15	0.4	0.003016	0.000104
318.15	0.4	0.002523	0.000102
323.15	0.4	0.002129	0.000102
328.15	0.4	0.001821	0.000101
333.15	0.4	0.001577	0.000101
298.15	0.45	0.006602	0.000119
303.15	0.45	0.005187	0.000114
308.15	0.45	0.004156	0.000108
313.15	0.45	0.003375	0.000105
318.15	0.45	0.002808	0.000103
323.15	0.45	0.00236	0.000102
328.15	0.45	0.002008	0.000101
333.15	0.45	0.001724	0.000101
298.15	0.5	0.007632	0.000122
303.15	0.5	0.005965	0.000119
308.15	0.5	0.00475	0.000111
313.15	0.5	0.003851	0.000106
318.15	0.5	0.003178	0.000104
323.15	0.5	0.002652	0.000103
328.15	0.5	0.002239	0.000102
333.15	0.5	0.001911	0.000102
298.15	0.6	0.008956	0.000132
303.15	0.6	0.006964	0.000126
308.15	0.6	0.005487	0.000116
313.15	0.6	0.004387	0.000109
318.15	0.6	0.003577	0.000106
323.15	0.6	0.002974	0.000104
328.15	0.6	0.002486	0.000102
333.15	0.6	0.002106	0.000102
298.15	0.7	0.009925	0.000126
303.15	0.7	0.007654	0.000133
308.15	0.7	0.00602	0.000119
313.15	0.7	0.004853	0.000111
318.15	0.7	0.003973	0.000107
323.15	0.7	0.003301	0.000104
328.15	0.7	0.002781	0.000103
333.15	0.7	0.002374	0.000103
298.15	0.8	0.008482	0.00012
303.15	0.8	0.006762	0.000126
308.15	0.8	0.005106	0.000116
313.15	0.8	0.004197	0.000107
318.15	0.8	0.003577	0.000105
323.15	0.8	0.002909	0.000104
328.15	0.8	0.002471	0.000102
333.15	0.8	0.002182	0.000102
298.15	0.9	0.005585	0.000107
303.15	0.9	0.004935	0.000113
308.15	0.9	0.003396	0.00011
313.15	0.9	0.002909	0.000103
318.15	0.9	0.002629	0.000103
323.15	0.9	0.001929	0.000102
328.15	0.9	0.001824	0.000101
333.15	0.9	0.001687	0.000101
298.15	0.95	0.00379	0.000105
303.15	0.95	0.003199	0.000105
308.15	0.95	0.002463	0.000104
313.15	0.95	0.002048	0.000101
318.15	0.95	0.001921	0.000102
323.15	0.95	0.001357	0.000101
328.15	0.95	0.001348	0.000101
333.15	0.95	0.001236	0.000101
298.15	0.96	0.003282	0.000104
303.15	0.96	0.002783	0.000104
308.15	0.96	0.002211	0.000103
313.15	0.96	0.001835	0.000101
318.15	0.96	0.001735	0.000102
323.15	0.96	0.001192	0.000101
328.15	0.96	0.001208	0.0001
333.15	0.96	0.001102	0.0001
298.15	0.98	0.002094	0.000102
303.15	0.98	0.001875	0.000102
308.15	0.98	0.001499	0.000101
313.15	0.98	0.001322	0.000101
318.15	0.98	0.0012	0.000101
323.15	0.98	0.001003	0.0001
328.15	0.98	0.000983	0.0001
333.15	0.98	0.000853	0.0001
298.15	1	0.001332	0.000101
303.15	1	0.001183	0.000101
308.15	1	0.001059	0.0001
313.15	1	0.000955	0.0001
318.15	1	0.000866	0.0001
323.15	1	0.000788	0.0001
328.15	1	0.00072	0.0001
333.15	1	0.000662	0.0001

System: carbon dioxide + 1-(dimethylamino)-2-propanol + water; phases: Liquid, Gas
Property: Mole fraction of carbon dioxide (Liquid); method: static analytic
Temperature, K	Solvent: Mass fraction of 1-(dimethylamino)-2-propanol	Pressure, kPa of carbon dioxide	Mole fraction of carbon dioxide	uncertainty
298.15	0.208	3.03	0.534	0.171
298.15	0.208	7.51	0.703	0.058
298.15	0.208	13	0.746	0.117
298.15	0.208	18.78	0.783	0.035
298.15	0.208	22.57	0.818	0.029
298.15	0.208	40.31	0.847	0.016
298.15	0.208	106.13	0.968	0.013
298.15	0.208	138.65	1.008	0.007
298.15	0.208	162.31	1.012	0.002
313.15	0.208	4.11	0.467	0.149
313.15	0.208	16.24	0.685	0.043
313.15	0.208	43.21	0.711	0.024
313.15	0.208	68.94	0.826	0.032
313.15	0.208	89.35	0.889	0.025
313.15	0.208	100.12	0.919	0.01
313.15	0.208	131.37	0.941	0.006
333.15	0.208	6.09	0.37	0.08
333.15	0.208	33.13	0.641	0.053
333.15	0.208	68.47	0.77	0.02
333.15	0.208	117.98	0.845	0.012
333.15	0.208	164.15	0.883	0.009
298.15	0.3108	4.87	0.461	0.18
298.15	0.3108	11.37	0.68	0.06
298.15	0.3108	14.72	0.709	0.097
298.15	0.3108	30.72	0.806	0.033
298.15	0.3108	50.18	0.85	0.02
298.15	0.3108	51.82	0.851	0.019
298.15	0.3108	56.3	0.884	0.018
298.15	0.3108	76.91	0.901	0.008
298.15	0.3108	108	0.928	0.007
298.15	0.3108	147	0.951	0.007
313.15	0.3108	2.93	0.163	0.083
313.15	0.3108	8.66	0.476	0.071
313.15	0.3108	46.16	0.756	0.042
313.15	0.3108	78.31	0.829	0.016
313.15	0.3108	103.22	0.854	0.01
313.15	0.3108	141.17	0.891	0.008
313.15	0.3108	161.98	0.901	0.006
333.15	0.3108	12.28	0.347	0.041
333.15	0.3108	14.69	0.371	0.041
333.15	0.3108	19.17	0.425	0.042
333.15	0.3108	88.2	0.701	0.031
333.15	0.3108	111.74	0.739	0.018
298.15	0.4144	6.71	0.47	0.062
298.15	0.4144	14.1	0.609	0.044
298.15	0.4144	52.51	0.801	0.03
298.15	0.4144	84.32	0.857	0.013
298.15	0.4144	111.1	0.882	0.008
298.15	0.4144	159.63	0.918	0.007
313.15	0.4144	9.1	0.376	0.08
313.15	0.4144	30.14	0.582	0.051
313.15	0.4144	58.93	0.701	0.03
313.15	0.4144	86.47	0.769	0.018
313.15	0.4144	115.18	0.801	0.011
333.15	0.4144	16.09	0.289	0.048
333.15	0.4144	52.16	0.498	0.035
333.15	0.4144	59.14	0.528	0.035
333.15	0.4144	121.44	0.659	0.021
333.15	0.4144	168.09	0.712	0.016
