Measured thermophysical data. Isothermal vapor-liquid equilibrium at T = 333.15 K and excess volumes and  molar refractivity deviation at T = 298.15 K for the ternary mixtures {di-methyl carbonate (DMC) + ethanol + benzene} and {DMC+ ethanol + toluene}
Source: Fluid Phase Equilib., 2011, 10.1016/j.fluid.2011.01.007
Compound 1: dimethyl carbonate, C3H6O3, InChI=1S/C3H6O3/c1-5-3(4)6-2/h1-2H3
Compound 2: ethanol, C2H6O, InChI=1S/C2H6O/c1-2-3/h3H,2H2,1H3
Compound 3: benzene, C6H6, InChI=1S/C6H6/c1-2-4-6-5-3-1/h1-6H
Compound 4: toluene, C7H8, InChI=1S/C7H8/c1-7-5-3-2-4-6-7/h2-6H,1H3

System: dimethyl carbonate; phases: Liquid
Property: Refractive index (Na D-line) (Liquid); method: Standard Abbe refractometry
Temperature, K	Pressure, kPa	Refractive index (Na D-line)	uncertainty
298.15	101.325	1.36654	0.00033

System: dimethyl carbonate; phases: Liquid
Property: Mass density, kg/m3 (Liquid); method: Vibrating tube method
Temperature, K	Pressure, kPa	Mass density, kg/m3	uncertainty
298.15	101.325	1063.04	0.51

System: ethanol; phases: Liquid
Property: Refractive index (Na D-line) (Liquid); method: Standard Abbe refractometry
Temperature, K	Pressure, kPa	Refractive index (Na D-line)	uncertainty
298.15	101.325	1.35928	0.00033

System: ethanol; phases: Liquid
Property: Mass density, kg/m3 (Liquid); method: Vibrating tube method
Temperature, K	Pressure, kPa	Mass density, kg/m3	uncertainty
298.15	101.325	785.33	0.39

System: benzene; phases: Liquid
Property: Refractive index (Na D-line) (Liquid); method: Standard Abbe refractometry
Temperature, K	Pressure, kPa	Refractive index (Na D-line)	uncertainty
298.15	101.325	1.49764	0.00037

System: benzene; phases: Liquid
Property: Mass density, kg/m3 (Liquid); method: Vibrating tube method
Temperature, K	Pressure, kPa	Mass density, kg/m3	uncertainty
298.15	101.325	873.57	0.43

System: toluene; phases: Liquid
Property: Refractive index (Na D-line) (Liquid); method: Standard Abbe refractometry
Temperature, K	Pressure, kPa	Refractive index (Na D-line)	uncertainty
298.15	101.325	1.49397	0.00037

System: toluene; phases: Liquid
Property: Mass density, kg/m3 (Liquid); method: Vibrating tube method
Temperature, K	Pressure, kPa	Mass density, kg/m3	uncertainty
298.15	101.325	862.19	0.42

System: benzene + dimethyl carbonate; phases: Liquid
Fixed: Temperature, K = 298.15
Fixed: Pressure, kPa = 101
Property: Refractive index (Na D-line) (Liquid); method: Standard Abbe refractometry
Mole fraction of dimethyl carbonate	Refractive index (Na D-line)	uncertainty
0.0518	1.4902	0.0004
0.0988	1.4836	0.0004
0.1995	1.4699	0.0004
0.2994	1.4565	0.0004
0.401	1.4431	0.0004
0.5002	1.4301	0.0004
0.6003	1.417	0.0004
0.699	1.4044	0.0004
0.7981	1.3918	0.0003
0.9	1.3789	0.0003
0.9497	1.3727	0.0003

System: benzene + dimethyl carbonate; phases: Liquid
Fixed: Temperature, K = 298.15
Fixed: Pressure, kPa = 101
Property: Mass density, kg/m3 (Liquid); method: Vibrating tube method
Mole fraction of dimethyl carbonate	Mass density, kg/m3	uncertainty
0.0518	882.09	0.1
0.0988	889.99	0.09
0.1995	907.42	0.09
0.2994	925.15	0.08
0.401	943.6	0.08
0.5002	962.07	0.08
0.6003	981.15	0.07
0.699	1000.51	0.07
0.7981	1020.48	0.08
0.9	1041.49	0.08
0.9497	1052	0.09

System: benzene + dimethyl carbonate; phases: Liquid
Fixed: Temperature, K = 298.15
Fixed: Pressure, kPa = 101
Property: Excess molar volume, m3/mol (Liquid); method: Calculated with densities of this investigation
Mole fraction of dimethyl carbonate	Excess molar volume, m3/mol	uncertainty
0.0518	8.06e-08	7.9e-09
0.0988	1.405e-07	8.1e-09
0.1995	2.281e-07	8.3e-09
0.2994	2.889e-07	8.4e-09
0.401	3.257e-07	8.5e-09
0.5002	3.364e-07	8.5e-09
0.6003	3.27e-07	8.5e-09
0.699	2.859e-07	8.4e-09
0.7981	2.212e-07	8.3e-09
0.9	1.36e-07	8.1e-09
0.9497	8.15e-08	7.9e-09

System: toluene + dimethyl carbonate; phases: Liquid
Fixed: Temperature, K = 298.15
Fixed: Pressure, kPa = 101
Property: Refractive index (Na D-line) (Liquid); method: Standard Abbe refractometry
Mole fraction of dimethyl carbonate	Refractive index (Na D-line)	uncertainty
0.0496	1.4883	0.0004
0.0998	1.4827	0.0004
0.2001	1.4715	0.0004
0.3003	1.4597	0.0004
0.3998	1.4475	0.0004
0.5002	1.4352	0.0004
0.5999	1.4224	0.0004
0.6999	1.4091	0.0004
0.7998	1.3954	0.0003
0.8988	1.3814	0.0003
0.9487	1.3741	0.0003

System: toluene + dimethyl carbonate; phases: Liquid
Fixed: Temperature, K = 298.15
Fixed: Pressure, kPa = 101
Property: Mass density, kg/m3 (Liquid); method: Vibrating tube method
Mole fraction of dimethyl carbonate	Mass density, kg/m3	uncertainty
0.0496	869.6	0.1
0.0998	877.39	0.1
0.2001	893.69	0.09
0.3003	910.85	0.09
0.3998	928.88	0.08
0.5002	948	0.08
0.5999	968.16	0.08
0.6999	989.62	0.07
0.7998	1012.35	0.08
0.8988	1036.61	0.08
0.9487	1049.29	0.09

System: toluene + dimethyl carbonate; phases: Liquid
Fixed: Temperature, K = 298.15
Fixed: Pressure, kPa = 101
Property: Excess molar volume, m3/mol (Liquid); method: Calculated with densities of this investigation
Mole fraction of dimethyl carbonate	Excess molar volume, m3/mol	uncertainty
0.0496	7.01e-08	7.9e-09
0.0998	1.225e-07	8e-09
0.2001	2.008e-07	8.2e-09
0.3003	2.561e-07	8.3e-09
0.3998	2.887e-07	8.4e-09
0.5002	3.087e-07	8.5e-09
0.5999	3.011e-07	8.4e-09
0.6999	2.704e-07	8.4e-09
0.7998	2.207e-07	8.3e-09
0.8988	1.226e-07	8e-09
0.9487	7.63e-08	7.9e-09

System: ethanol + benzene + dimethyl carbonate; phases: Liquid
Fixed: Temperature, K = 298.15
Fixed: Pressure, kPa = 101
Property: Refractive index (Na D-line) (Liquid); method: Standard Abbe refractometry
Mole fraction of dimethyl carbonate	Mole fraction of ethanol	Refractive index (Na D-line)	uncertainty
0.0195	0.1806	1.477	0.0004
0.0203	0.7998	1.3926	0.0003
0.0294	0.0718	1.4877	0.0004
0.0297	0.6998	1.4078	0.0004
0.0299	0.9001	1.373	0.0003
0.0309	0.271	1.4641	0.0004
0.0395	0.6	1.4199	0.0004
0.0403	0.3597	1.4517	0.0004
0.0503	0.4511	1.438	0.0004
0.0605	0.5386	1.4245	0.0004
0.0698	0.0298	1.485	0.0004
0.0699	0.9008	1.366	0.0003
0.0903	0.6997	1.3959	0.0003
0.0911	0.2098	1.4619	0.0004
0.0998	0.1001	1.473	0.0004
0.1	0.7994	1.3781	0.0003
0.1199	0.5989	1.4059	0.0004
0.12	0.2789	1.4479	0.0004
0.15	0.1486	1.4597	0.0004
0.15	0.3507	1.4339	0.0004
0.1502	0.6998	1.386	0.0003
0.1512	0.4996	1.4146	0.0004
0.1798	0.4185	1.4212	0.0004
0.1799	0.0194	1.4709	0.0004
0.1799	0.8003	1.3647	0.0003
0.1991	0.2027	1.445	0.0004
0.2002	0.5999	1.393	0.0003
0.21	0.6998	1.3762	0.0003
0.211	0.0892	1.4577	0.0004
0.2497	0.2494	1.4319	0.0004
0.2498	0.4995	1.3995	0.0003
0.2697	0.031	1.4568	0.0004
0.2701	0.7002	1.367	0.0003
0.2804	0.5995	1.3801	0.0003
0.2819	0.1198	1.4438	0.0004
0.3001	0.2998	1.4178	0.0004
0.3008	0.4003	1.4046	0.0004
0.3495	0.1505	1.43	0.0004
0.3502	0.4996	1.3844	0.0003
0.3598	0.0402	1.4438	0.0004
0.3608	0.5991	1.3685	0.0003
0.3996	0.1806	1.4194	0.0004
0.4	0.3001	1.4039	0.0004
0.4004	0.0589	1.4351	0.0004
0.4209	0.3986	1.3879	0.0003
0.4505	0.5	1.37	0.0003
0.5	0.0496	1.4234	0.0004
0.5005	0.1497	1.4116	0.0004
0.5005	0.3493	1.3846	0.0003
0.5007	0.2503	1.3969	0.0003
0.54	0.4011	1.3717	0.0003
0.5988	0.3617	1.3695	0.0003
0.5995	0.281	1.3807	0.0003
0.6001	0.1995	1.3908	0.0003
0.6002	0.0395	1.4117	0.0004
0.6002	0.1196	1.4014	0.0004
0.6999	0.1493	1.3846	0.0003
0.7	0.2091	1.3766	0.0003
0.7001	0.0298	1.4003	0.0004
0.7009	0.2688	1.3687	0.0003
0.7991	0.1803	1.3679	0.0003
0.7992	0.0203	1.3895	0.0003
0.8986	0.0314	1.3758	0.0003
0.9008	0.0691	1.3698	0.0003

System: ethanol + benzene + dimethyl carbonate; phases: Liquid
Fixed: Temperature, K = 298.15
Fixed: Pressure, kPa = 101
Property: Mass density, kg/m3 (Liquid); method: Vibrating tube method
Mole fraction of dimethyl carbonate	Mole fraction of ethanol	Mass density, kg/m3	uncertainty
0.0195	0.1806	865.06	0.1
0.0203	0.7998	815.01	0.12
0.0294	0.0718	873.76	0.1
0.0297	0.6998	827.28	0.12
0.0299	0.9001	806.08	0.13
0.0309	0.271	861.47	0.1
0.0395	0.6	838.41	0.11
0.0403	0.3597	857.25	0.11
0.0503	0.4511	852.97	0.11
0.0605	0.5386	847.95	0.11
0.0698	0.0298	883.24	0.1
0.0699	0.9008	815.71	0.12
0.0903	0.6997	841.05	0.11
0.0911	0.2098	876.58	0.1
0.0998	0.1001	884.39	0.1
0.1	0.7994	833.98	0.12
0.1199	0.5989	856.02	0.11
0.12	0.2789	878.2	0.1
0.15	0.1486	890.95	0.09
0.15	0.3507	879.99	0.1
0.1502	0.6998	854.8	0.11
0.1512	0.4996	871.13	0.1
0.1798	0.4185	882.16	0.1
0.1799	0.0194	902.95	0.09
0.1799	0.8003	853.14	0.11
0.1991	0.2027	897.41	0.09
0.2002	0.5999	874.96	0.1
0.21	0.6998	869.49	0.11
0.211	0.0892	905.04	0.09
0.2497	0.2494	905	0.09
0.2498	0.4995	892.43	0.1
0.2697	0.031	918.37	0.09
0.2701	0.7002	883.03	0.1
0.2804	0.5995	892.81	0.1
0.2819	0.1198	916.66	0.09
0.3001	0.2998	912.84	0.09
0.3008	0.4003	908.51	0.09
0.3495	0.1505	928.41	0.09
0.3502	0.4996	914.27	0.09
0.3598	0.0402	934.51	0.08
0.3608	0.5991	911.04	0.09
0.3996	0.1806	937.04	0.08
0.4	0.3001	933.2	0.09
0.4004	0.0589	941.32	0.08
0.4209	0.3986	934.06	0.09
0.4505	0.5	936.45	0.09
0.5	0.0496	960.53	0.08
0.5005	0.1497	957.99	0.08
0.5005	0.3493	952.77	0.08
0.5007	0.2503	955.46	0.08
0.54	0.4011	960	0.08
0.5988	0.3617	974.06	0.08
0.5995	0.281	975.76	0.08
0.6001	0.1995	977.3	0.08
0.6002	0.0395	980.24	0.07
0.6002	0.1196	978.63	0.08
0.6999	0.1493	998.88	0.07
0.7	0.2091	998.54	0.07
0.7001	0.0298	1000.23	0.07
0.7009	0.2688	998.24	0.07
0.7991	0.1803	1020.29	0.08
0.7992	0.0203	1020.5	0.08
0.8986	0.0314	1041.4	0.08
0.9008	0.0691	1042.19	0.08

System: ethanol + benzene + dimethyl carbonate; phases: Liquid
Fixed: Temperature, K = 298.15
Fixed: Pressure, kPa = 101
Property: Excess molar volume, m3/mol (Liquid); method: Calculated with densities of this investigation
Mole fraction of dimethyl carbonate	Mole fraction of ethanol	Excess molar volume, m3/mol	uncertainty
0.0195	0.1806	1.054e-07	8e-09
0.0203	0.7998	-3.24e-08	7.8e-09
0.0294	0.0718	9.55e-08	8e-09
0.0297	0.6998	-1.43e-08	7.8e-09
0.0299	0.9001	-3.11e-08	7.8e-09
0.0309	0.271	8.31e-08	7.9e-09
0.0395	0.6	1.72e-08	7.8e-09
0.0403	0.3597	6.93e-08	7.9e-09
0.0503	0.4511	2.66e-08	7.8e-09
0.0605	0.5386	4.85e-08	7.9e-09
0.0698	0.0298	1.281e-07	8e-09
0.0699	0.9008	9.7e-09	7.8e-09
0.0903	0.6997	2.22e-08	7.8e-09
0.0911	0.2098	1.449e-07	8.1e-09
0.0998	0.1001	1.747e-07	8.2e-09
0.1	0.7994	1.45e-08	7.8e-09
0.1199	0.5989	7.01e-08	7.9e-09
0.12	0.2789	1.257e-07	8e-09
0.15	0.1486	1.983e-07	8.2e-09
0.15	0.3507	1.042e-07	8e-09
0.1502	0.6998	5.6e-08	7.9e-09
0.1512	0.4996	2.13e-08	7.8e-09
0.1798	0.4185	7.66e-08	7.9e-09
0.1799	0.0194	2.246e-07	8.3e-09
0.1799	0.8003	5.9e-08	7.9e-09
0.1991	0.2027	2.06e-07	8.2e-09
0.2002	0.5999	1.16e-08	7.8e-09
0.21	0.6998	2.25e-08	7.8e-09
0.211	0.0892	2.526e-07	8.3e-09
0.2497	0.2494	2.032e-07	8.2e-09
0.2498	0.4995	5.4e-08	7.9e-09
0.2697	0.031	2.849e-07	8.4e-09
0.2701	0.7002	8.93e-08	8e-09
0.2804	0.5995	6.31e-08	7.9e-09
0.2819	0.1198	2.918e-07	8.4e-09
0.3001	0.2998	1.868e-07	8.2e-09
0.3008	0.4003	1.22e-07	8e-09
0.3495	0.1505	2.93e-07	8.4e-09
0.3502	0.4996	9.58e-08	8e-09
0.3598	0.0402	3.19e-07	8.5e-09
0.3608	0.5991	1.016e-07	8e-09
0.3996	0.1806	2.937e-07	8.4e-09
0.4	0.3001	2.109e-07	8.2e-09
0.4004	0.0589	3.345e-07	8.5e-09
0.4209	0.3986	1.554e-07	8.1e-09
0.4505	0.5	1.28e-07	8e-09
0.5	0.0496	3.441e-07	8.5e-09
0.5005	0.1497	3.106e-07	8.5e-09
0.5005	0.3493	1.893e-07	8.2e-09
0.5007	0.2503	2.53e-07	8.3e-09
0.54	0.4011	1.536e-07	8.1e-09
0.5988	0.3617	1.588e-07	8.1e-09
0.5995	0.281	2.059e-07	8.2e-09
0.6001	0.1995	2.596e-07	8.4e-09
0.6002	0.0395	3.292e-07	8.5e-09
0.6002	0.1196	3.112e-07	8.5e-09
0.6999	0.1493	2.448e-07	8.3e-09
0.7	0.2091	1.938e-07	8.2e-09
0.7001	0.0298	2.905e-07	8.4e-09
0.7009	0.2688	1.517e-07	8.1e-09
0.7991	0.1803	1.352e-07	8.1e-09
0.7992	0.0203	2.25e-07	8.3e-09
0.8986	0.0314	1.196e-07	8e-09
0.9008	0.0691	9.11e-08	8e-09

System: ethanol + benzene + dimethyl carbonate; phases: Liquid, Gas
Fixed: Temperature, K = 333.15
Property: Mole fraction of ethanol (Liquid); method: Chromatography
Property: Mole fraction of ethanol (Gas); method: Chromatography
Property: Mole fraction of dimethyl carbonate (Gas); method: Chromatography
Pressure, kPa	Mole fraction of dimethyl carbonate	Mole fraction of ethanol	uncertainty	Mole fraction of ethanol	uncertainty	Mole fraction of dimethyl carbonate	uncertainty
70.61	0.0598	0.5393	0.0036	0.463	0.0043	0.0459	
71.32	0.0503	0.4498	0.0035	0.4333	0.004	0.0381	
71.4	0.0407	0.3597	0.0028	0.3983	0.0037	0.0282	
70.88	0.0304	0.27	0.0021	0.3678	0.0034	0.0199	
69.44	0.0196	0.1797	0.0014	0.3306	0.0031	0.0126	
69.85	0.181	0.4192	0.0033	0.4319	0.004	0.1263	
70.24	0.1497	0.3498	0.0027	0.4001	0.0037	0.0998	
70.09	0.1204	0.2801	0.0022	0.371	0.0035	0.078	
69.37	0.0895	0.2102	0.0016	0.3407	0.0032	0.0569	
63.51	0.0298	0.0699	0.0005	0.2266	0.0021	0.0213	
67.59	0.3	0.3002	0.0023	0.3862	0.0036	0.1969	
67.86	0.2501	0.2488	0.0019	0.3558	0.0033	0.1607	
67.63	0.2003	0.1989	0.0015	0.3281	0.0031	0.128	
66.77	0.1503	0.1488	0.0012	0.2939	0.0027	0.0983	
64.94	0.1001	0.0995	0.0008	0.2545	0.0024	0.0681	
63.4	0.3503	0.1493	0.0012	0.2861	0.0027	0.2274	
63.36	0.2799	0.1197	0.0009	0.2632	0.0024	0.1827	
62.64	0.2104	0.0892	0.0007	0.2276	0.0021	0.1442	
58.09	0.0696	0.0297	0.0003	0.1321	0.0012	0.0551	
55.82	0.3606	0.0388	0.0003	0.1278	0.0012	0.2636	
55.99	0.2703	0.0291	0.0003	0.1088	0.001	0.2053	
70	0.04	0.6005	0.0031	0.4773	0.0045	0.0335	
67.8	0.0305	0.6996	0.0023	0.5213	0.0045	0.0303	
63.92	0.0199	0.7995	0.0016	0.6208	0.0035	0.0247	
69.78	0.1506	0.5003	0.0039	0.4588	0.0043	0.1171	
68.77	0.1203	0.5997	0.0031	0.5005	0.0047	0.1046	
66.59	0.0903	0.6993	0.0023	0.5562	0.0041	0.0923	
56.54	0.0301	0.9003	0.0008	0.746	0.0024	0.0513	
67.75	0.3011	0.3993	0.0031	0.4297	0.004	0.2159	
67.91	0.2499	0.5001	0.0039	0.4755	0.0044	0.1935	
67.06	0.1997	0.5999	0.0031	0.5221	0.0045	0.1754	
65.04	0.1497	0.6994	0.0023	0.5755	0.004	0.1538	
61.46	0.0996	0.7994	0.0016	0.6507	0.0033	0.127	
64.78	0.4201	0.3991	0.0031	0.4548	0.0042	0.3071	
65.3	0.3503	0.5	0.0039	0.5026	0.0046	0.2804	
64.76	0.2803	0.6001	0.0031	0.5517	0.0042	0.2522	
63.03	0.2095	0.7006	0.0023	0.6096	0.0036	0.2199	
54.71	0.0706	0.8996	0.0008	0.7829	0.002	0.1225	
60.73	0.5396	0.4008	0.0031	0.4923	0.0046	0.4164	
61.85	0.45	0.5002	0.0039	0.5415	0.0043	0.3756	
61.87	0.3601	0.5993	0.0031	0.5888	0.0038	0.3363	
60.62	0.2698	0.7006	0.0023	0.6424	0.0033	0.2942	
57.14	0.4002	0.0601	0.0005	0.1809	0.0017	0.2731	
54.31	0.4999	0.0503	0.0004	0.1414	0.0013	0.3688	
51.13	0.5997	0.0398	0.0003	0.124	0.0012	0.4453	
47.52	0.7008	0.0284	0.0003	0.0859	0.0008	0.5489	
43.87	0.7996	0.0201	0.0003	0.0657	0.0006	0.6601	
63.43	0.4002	0.18	0.0014	0.3111	0.0029	0.2583	
60.07	0.5001	0.15	0.0012	0.2894	0.0027	0.3274	
56.13	0.6004	0.1196	0.0009	0.2589	0.0024	0.4091	
51.59	0.7006	0.0885	0.0007	0.2108	0.002	0.5089	
41.01	0.9003	0.0292	0.0003	0.0924	0.0009	0.7851	
65.45	0.3998	0.2994	0.0023	0.3911	0.0036	0.2652	
62.38	0.5009	0.2492	0.0019	0.3689	0.0034	0.3353	
58.62	0.6006	0.1994	0.0015	0.3383	0.0032	0.4135	
54.07	0.7	0.1495	0.0012	0.2939	0.0027	0.5068	
48.64	0.8005	0.0999	0.0008	0.235	0.0022	0.6194	
62.72	0.4995	0.3504	0.0027	0.4242	0.004	0.3862	
59.49	0.5998	0.2787	0.0022	0.3811	0.0035	0.464	
55.39	0.6986	0.2107	0.0016	0.3366	0.0031	0.543	
43.23	0.9011	0.0687	0.0005	0.1664	0.0015	0.7869	
59	0.5996	0.36	0.0028	0.4567	0.0043	0.4862	
55.63	0.6998	0.2704	0.0021	0.4058	0.0038	0.5508	

System: ethanol + toluene + dimethyl carbonate; phases: Liquid
Fixed: Temperature, K = 298.15
Fixed: Pressure, kPa = 101
Property: Refractive index (Na D-line) (Liquid); method: Standard Abbe refractometry
Mole fraction of dimethyl carbonate	Mole fraction of ethanol	Refractive index (Na D-line)	uncertainty
0.0195	0.8004	1.3973	0.0003
0.0205	0.1796	1.4773	0.0004
0.0296	0.2697	1.4682	0.0004
0.0297	0.9005	1.3753	0.0003
0.0298	0.0697	1.4858	0.0004
0.0299	0.7011	1.4127	0.0004
0.0409	0.3592	1.4569	0.0004
0.0425	0.5985	1.4265	0.0004
0.0593	0.54	1.4327	0.0004
0.07	0.8999	1.367	0.0003
0.0709	0.0302	1.4834	0.0004
0.0899	0.2101	1.4668	0.0004
0.0905	0.7	1.402	0.0004
0.1007	0.1008	1.4753	0.0004
0.1182	0.2809	1.4555	0.0004
0.1203	0.6007	1.4126	0.0004
0.1497	0.3508	1.4449	0.0004
0.15	0.7005	1.3908	0.0003
0.1501	0.1512	1.4653	0.0004
0.1506	0.4997	1.4229	0.0004
0.1795	0.4199	1.4305	0.0004
0.1796	0.0211	1.4719	0.0004
0.1799	0.8001	1.3652	0.0003
0.2004	0.1997	1.4541	0.0004
0.2091	0.0924	1.4637	0.0004
0.2098	0.7004	1.3794	0.0003
0.2498	0.2505	1.4423	0.0004
0.2508	0.4989	1.4066	0.0004
0.2699	0.6994	1.3678	0.0003
0.2703	0.0296	1.4609	0.0004
0.2796	0.6006	1.3846	0.0003
0.2804	0.1195	1.452	0.0004
0.2995	0.3012	1.4287	0.0004
0.3006	0.4003	1.4133	0.0004
0.3497	0.5011	1.3892	0.0003
0.3498	0.1498	1.4406	0.0004
0.3603	0.5994	1.3701	0.0003
0.3605	0.0395	1.4486	0.0004
0.3993	0.2998	1.4134	0.0004
0.4005	0.1795	1.4297	0.0004
0.4008	0.0596	1.4416	0.0004
0.4199	0.4001	1.3942	0.0003
0.4504	0.4999	1.3721	0.0003
0.4996	0.3509	1.389	0.0003
0.5001	0.2498	1.4043	0.0004
0.5003	0.149	1.4186	0.0004
0.5005	0.0486	1.4305	0.0004
0.5406	0.3996	1.3741	0.0003
0.5995	0.2007	1.3962	0.0003
0.6001	0.04	1.4179	0.0004
0.6001	0.2799	1.3841	0.0003
0.6002	0.1201	1.4081	0.0004
0.6003	0.3598	1.3709	0.0003
0.6998	0.1504	1.3886	0.0003
0.7003	0.0296	1.4056	0.0004
0.7003	0.2699	1.3695	0.0003
0.7011	0.0891	1.3971	0.0003
0.7014	0.2088	1.3793	0.0003
0.8002	0.0199	1.3927	0.0003
0.8013	0.1791	1.3684	0.0003
0.8019	0.0981	1.3809	0.0003
0.8999	0.069	1.3708	0.0003
0.9	0.0295	1.3768	0.0003

System: ethanol + toluene + dimethyl carbonate; phases: Liquid
Fixed: Temperature, K = 298.15
Fixed: Pressure, kPa = 101
Property: Mass density, kg/m3 (Liquid); method: Vibrating tube method
Mole fraction of dimethyl carbonate	Mole fraction of ethanol	Mass density, kg/m3	uncertainty
0.0195	0.8004	815.63	0.12
0.0205	0.1796	857.03	0.1
0.0296	0.2697	854.37	0.11
0.0297	0.9005	806.65	0.13
0.0298	0.0697	863.45	0.1
0.0299	0.7011	827.01	0.12
0.0409	0.3592	851.69	0.11
0.0425	0.5985	837.4	0.11
0.0593	0.54	845.01	0.11
0.07	0.8999	816.12	0.12
0.0709	0.0302	871.6	0.1
0.0899	0.2101	867.46	0.1
0.0905	0.7	840.68	0.11
0.1007	0.1008	873.63	0.1
0.1182	0.2809	869.56	0.1
0.1203	0.6007	854.02	0.11
0.1497	0.3508	872.6	0.1
0.15	0.7005	854.28	0.11
0.1501	0.1512	880.25	0.1
0.1506	0.4997	866.16	0.1
0.1795	0.4199	875.87	0.1
0.1796	0.0211	889.63	0.09
0.1799	0.8001	853.13	0.11
0.2004	0.1997	887.62	0.1
0.2091	0.0924	892.48	0.09
0.2098	0.7004	868.04	0.11
0.2498	0.2505	895.46	0.09
0.2508	0.4989	887.82	0.1
0.2699	0.6994	882.74	0.1
0.2703	0.0296	904.96	0.09
0.2796	0.6006	890.32	0.1
0.2804	0.1195	904.56	0.09
0.2995	0.3012	904.29	0.09
0.3006	0.4003	901.9	0.09
0.3497	0.5011	910.55	0.09
0.3498	0.1498	917.17	0.09
0.3603	0.5994	910.1	0.09
0.3605	0.0395	920.99	0.09
0.3993	0.2998	925.57	0.09
0.4005	0.1795	927.11	0.09
0.4008	0.0596	928.33	0.09
0.4199	0.4001	928.93	0.09
0.4504	0.4999	935.08	0.09
0.4996	0.3509	947.98	0.09
0.5001	0.2498	947.92	0.08
0.5003	0.149	947.81	0.08
0.5005	0.0486	948.09	0.08
0.5406	0.3996	958.29	0.08
0.5995	0.2007	970.37	0.08
0.6001	0.04	968.67	0.08
0.6001	0.2799	971.74	0.08
0.6002	0.1201	969.63	0.08
0.6003	0.3598	973.13	0.08
0.6998	0.1504	993.16	0.08
0.7003	0.0296	990.44	0.08
0.7003	0.2699	997.05	0.08
0.7011	0.0891	991.96	0.08
0.7014	0.2088	995.35	0.08
0.8002	0.0199	1013.3	0.08
0.8013	0.1791	1020.14	0.08
0.8019	0.0981	1016.67	0.08
0.8999	0.069	1040.5	0.09
0.9	0.0295	1038.45	0.09

System: ethanol + toluene + dimethyl carbonate; phases: Liquid
Fixed: Temperature, K = 298.15
Fixed: Pressure, kPa = 101
Property: Excess molar volume, m3/mol (Liquid); method: Calculated with densities of this investigation
Mole fraction of dimethyl carbonate	Mole fraction of ethanol	Excess molar volume, m3/mol	uncertainty
0.0195	0.8004	-1.475e-07	8.1e-09
0.0205	0.1796	4.96e-08	7.9e-09
0.0296	0.2697	1.79e-08	7.8e-09
0.0297	0.9005	-8.64e-08	8e-09
0.0298	0.0697	7.18e-08	7.9e-09
0.0299	0.7011	-1.292e-07	8e-09
0.0409	0.3592	6.4e-09	7.8e-09
0.0425	0.5985	-7.88e-08	7.9e-09
0.0593	0.54	-7.29e-08	7.9e-09
0.07	0.8999	-1.84e-08	7.8e-09
0.0709	0.0302	1.061e-07	8e-09
0.0899	0.2101	9.53e-08	8e-09
0.0905	0.7	-1.056e-07	8e-09
0.1007	0.1008	1.336e-07	8.1e-09
0.1182	0.2809	8.78e-08	8e-09
0.1203	0.6007	-5.71e-08	7.9e-09
0.1497	0.3508	7.33e-08	7.9e-09
0.15	0.7005	-6.54e-08	7.9e-09
0.1501	0.1512	1.529e-07	8.1e-09
0.1506	0.4997	-7.9e-09	7.8e-09
0.1795	0.4199	3.46e-08	7.8e-09
0.1796	0.0211	1.871e-07	8.2e-09
0.1799	0.8001	4.01e-08	7.8e-09
0.2004	0.1997	1.672e-07	8.1e-09
0.2091	0.0924	2.022e-07	8.2e-09
0.2098	0.7004	1.07e-08	7.8e-09
0.2498	0.2505	1.693e-07	8.1e-09
0.2508	0.4989	4.11e-08	7.8e-09
0.2699	0.6994	6.37e-08	7.9e-09
0.2703	0.0296	2.35e-07	8.3e-09
0.2796	0.6006	3.45e-08	7.8e-09
0.2804	0.1195	2.346e-07	8.3e-09
0.2995	0.3012	1.44e-07	8.1e-09
0.3006	0.4003	1.066e-07	8e-09
0.3497	0.5011	7.14e-08	7.9e-09
0.3498	0.1498	2.454e-07	8.3e-09
0.3603	0.5994	8.04e-08	7.9e-09
0.3605	0.0395	2.752e-07	8.4e-09
0.3993	0.2998	1.569e-07	8.1e-09
0.4005	0.1795	2.22e-07	8.3e-09
0.4008	0.0596	2.813e-07	8.4e-09
0.4199	0.4001	1.241e-07	8e-09
0.4504	0.4999	1.094e-07	8e-09
0.4996	0.3509	1.594e-07	8.1e-09
0.5001	0.2498	2.14e-07	8.2e-09
0.5003	0.149	2.69e-07	8.4e-09
0.5005	0.0486	2.878e-07	8.4e-09
0.5406	0.3996	1.332e-07	8.1e-09
0.5995	0.2007	2.253e-07	8.3e-09
0.6001	0.04	2.828e-07	8.4e-09
0.6001	0.2799	1.808e-07	8.2e-09
0.6002	0.1201	2.475e-07	8.3e-09
0.6003	0.3598	1.385e-07	8.1e-09
0.6998	0.1504	2.138e-07	8.2e-09
0.7003	0.0296	2.523e-07	8.3e-09
0.7003	0.2699	1.326e-07	8.1e-09
0.7011	0.0891	2.342e-07	8.3e-09
0.7014	0.2088	1.722e-07	8.1e-09
0.8002	0.0199	1.987e-07	8.2e-09
0.8013	0.1791	1.128e-07	8e-09
0.8019	0.0981	1.662e-07	8.1e-09
0.8999	0.069	8.84e-08	8e-09
0.9	0.0295	1.048e-07	8e-09

System: ethanol + toluene + dimethyl carbonate; phases: Liquid, Gas
Fixed: Temperature, K = 333.15
Property: Mole fraction of ethanol (Liquid); method: Chromatography
Property: Mole fraction of ethanol (Gas); method: Chromatography
Property: Mole fraction of dimethyl carbonate (Gas); method: Chromatography
Pressure, kPa	Mole fraction of dimethyl carbonate	Mole fraction of ethanol	uncertainty	Mole fraction of ethanol	uncertainty	Mole fraction of dimethyl carbonate	uncertainty
53.89	0.0595	0.5405	0.0036	0.6961	0.0028	0.0563	
52.73	0.0501	0.4499	0.0035	0.7025	0.0028	0.0473	
51.27	0.0397	0.3602	0.0028	0.7107	0.0027	0.0422	
49.16	0.0297	0.27	0.0021	0.6728	0.0031	0.0445	
45.62	0.0198	0.1812	0.0014	0.6077	0.0037	0.0285	
54.83	0.1803	0.4192	0.0033	0.6345	0.0034	0.1467	
52.9	0.1492	0.3505	0.0027	0.6205	0.0035	0.1231	
50.67	0.1206	0.2798	0.0022	0.6146	0.0036	0.1006	
47.82	0.0901	0.2113	0.0016	0.5884	0.0038	0.0794	
35.4	0.0297	0.0697	0.0005	0.4929	0.0046	0.0362	
53.67	0.3002	0.299	0.0023	0.5673	0.004	0.2214	
51.27	0.2505	0.2502	0.0019	0.5564	0.0041	0.1924	
48.55	0.1998	0.202	0.0016	0.5607	0.0041	0.1623	
45.11	0.1495	0.1525	0.0012	0.5257	0.0044	0.1356	
40	0.0999	0.0997	0.0008	0.4945	0.0046	0.1042	
46.71	0.3499	0.1493	0.0012	0.4422	0.0041	0.2871	
43.87	0.28	0.1217	0.0009	0.4382	0.0041	0.2468	
39.96	0.2097	0.0896	0.0007	0.4175	0.0039	0.2081	
28.7	0.0707	0.0304	0.0003	0.3197	0.003	0.1079	
34.84	0.36	0.0397	0.0003	0.2288	0.0021	0.3935	
31.97	0.2699	0.0302	0.0003	0.2176	0.002	0.3354	
53.86	0.0396	0.5996	0.0031	0.7154	0.0027	0.0412	
54.13	0.03	0.6992	0.0023	0.746	0.0024	0.0355	
53.92	0.0193	0.7999	0.0016	0.7995	0.0019	0.024	
55.47	0.1518	0.4936	0.0038	0.6487	0.0033	0.1279	
56	0.1198	0.6005	0.0031	0.6929	0.0029	0.108	
55.97	0.0902	0.7002	0.0023	0.7382	0.0025	0.091	
53.09	0.0304	0.8997	0.0008	0.8766	0.0012	0.0408	
56.52	0.2997	0.3989	0.0031	0.582	0.0039	0.2326	
57.72	0.2503	0.4998	0.0039	0.6305	0.0035	0.202	
58.1	0.1998	0.5998	0.0031	0.6758	0.003	0.1742	
57.76	0.15	0.7	0.0023	0.7246	0.0026	0.1465	
56.46	0.0995	0.7998	0.0016	0.7873	0.002	0.1118	
58.52	0.4193	0.3998	0.0031	0.563	0.0041	0.3144	
59.83	0.3502	0.4997	0.0039	0.6158	0.0036	0.2754	
60.16	0.2804	0.5995	0.0031	0.6654	0.0031	0.2383	
59.5	0.2098	0.6996	0.0023	0.7202	0.0026	0.1988	
53.95	0.0702	0.8999	0.0008	0.8673	0.0012	0.0959	
60.36	0.5398	0.3999	0.0031	0.5557	0.0041	0.3987	
61.83	0.4498	0.5005	0.0039	0.6109	0.0036	0.3494	
62.11	0.3604	0.5997	0.0031	0.6641	0.0031	0.3019	
61.16	0.2701	0.7003	0.0023	0.7205	0.0026	0.2517	
38.1	0.4006	0.0589	0.0005	0.2863	0.0027	0.3931	
38	0.4999	0.0505	0.0004	0.2294	0.0021	0.4808	
37.29	0.601	0.0381	0.0003	0.1732	0.0016	0.5781	
36.86	0.7012	0.0285	0.0003	0.129	0.0012	0.6679	
36.38	0.8003	0.0193	0.0002	0.0855	0.0008	0.7651	
49.23	0.4	0.1801	0.0014	0.4702	0.0044	0.3076	
48.01	0.4998	0.1501	0.0012	0.4216	0.0039	0.382	
46.18	0.6009	0.1184	0.0009	0.3649	0.0034	0.4646	
44.1	0.6996	0.0895	0.0007	0.3017	0.0028	0.5561	
38.61	0.8995	0.0312	0.0003	0.1319	0.0012	0.8071	
54.98	0.3995	0.3004	0.0023	0.5479	0.0042	0.2856	
53.98	0.5	0.2503	0.0019	0.5013	0.0047	0.3513	
52.08	0.6006	0.1992	0.0015	0.4558	0.0042	0.4208	
49.44	0.6993	0.1507	0.0012	0.3973	0.0037	0.5025	
45.68	0.8004	0.0999	0.0008	0.3158	0.0029	0.6107	
58.1	0.4993	0.3509	0.0027	0.5542	0.0042	0.3492	
56.42	0.5988	0.2816	0.0022	0.5103	0.0046	0.4104	
53.47	0.6993	0.2103	0.0016	0.4551	0.0042	0.4827	
43.04	0.9007	0.0693	0.0005	0.2418	0.0023	0.7324	
59.72	0.6005	0.3599	0.0028	0.5607	0.0041	0.4109	
