Measured thermophysical data. The experimental study on the influence of crown ethers and glycols on the mutual solubility of lithium bromide in water
Source: Fluid Phase Equilib., 2019, 10.1016/j.fluid.2018.11.036
Compound 1: lithium bromide, BrLi, InChI=1S/BrH.Li/h1H;/q;+1/p-1, purity 99%
Compound 2: 1,4,7,10-tetraoxacyclododecane, C8H16O4, InChI=1S/C8H16O4/c1-2-10-5-6-12-8-7-11-4-3-9-1/h1-8H2, purity 98%
Compound 3: 1,4,7,10,13-pentaoxacyclopentadecane, C10H20O5, InChI=1S/C10H20O5/c1-2-12-5-6-14-9-10-15-8-7-13-4-3-11-1/h1-10H2, purity 98%
Compound 4: 1,4,7,10,13,16-hexaoxacyclooctadecane, C12H24O6, InChI=1S/C12H24O6/c1-2-14-5-6-16-9-10-18-12-11-17-8-7-15-4-3-13-1/h1-12H2, purity 98%
Compound 5: 1,2-ethanediol, C2H6O2, InChI=1S/C2H6O2/c3-1-2-4/h3-4H,1-2H2, purity 99.5%
Compound 6: diethylene glycol, C4H10O3, InChI=1S/C4H10O3/c5-1-3-7-4-2-6/h5-6H,1-4H2, purity 99%
Compound 7: triethylene glycol, C6H14O4, InChI=1S/C6H14O4/c7-1-3-9-5-6-10-4-2-8/h7-8H,1-6H2, purity 99%
Compound 8: glycerol, C3H8O3, InChI=1S/C3H8O3/c4-1-3(6)2-5/h3-6H,1-2H2, purity 99.5%
Compound 9: water, H2O, InChI=1S/H2O/h1H2, purity 99.9%

System: lithium bromide + 1,4,7,10-tetraoxacyclododecane + water; phases: Liquid, Crystal of intercomponent compound 1
Fixed: Pressure, kPa = 100
Property: Mole fraction of lithium bromide (Liquid); method: visual
Temperature, K	Mole fraction of 1,4,7,10-tetraoxacyclododecane	Mole fraction of lithium bromide	uncertainty
359.59	0.0152	0.2547	0.0006
349.47	0.0146	0.2442	0.0006
338.15	0.014	0.2344	0.0005
322.93	0.0133	0.2231	0.0005
311.91	0.0128	0.2149	0.0005
303.88	0.0126	0.2111	0.0005
295.74	0.0124	0.2076	0.0005

System: lithium bromide + 1,4,7,10-tetraoxacyclododecane + water; phases: Liquid, Crystal of intercomponent compound 1
Fixed: Pressure, kPa = 100
Property: Mole fraction of lithium bromide (Liquid); method: visual
Temperature, K	Mole fraction of 1,4,7,10-tetraoxacyclododecane	Mole fraction of lithium bromide	uncertainty
294.06	0.0122	0.204	0.0005
292.65	0.012	0.2008	0.0005
290.26	0.0117	0.1957	0.0005
287.8	0.0113	0.1897	0.0005
283.68	0.0108	0.1812	0.0005
279.31	0.0103	0.1731	0.0004
275.45	0.01	0.1672	0.0004
270.3	0.0096	0.1608	0.0005
264.96	0.0092	0.154	0.0004
258.49	0.0088	0.1474	0.0004

System: lithium bromide + 1,4,7,10,13-pentaoxacyclopentadecane + water; phases: Liquid, Crystal of intercomponent compound 1
Fixed: Pressure, kPa = 100
Property: Mole fraction of lithium bromide (Liquid); method: visual
Temperature, K	Mole fraction of 1,4,7,10,13-pentaoxacyclopentadecane	Mole fraction of lithium bromide	uncertainty
362.04	0.0148	0.3189	0.0007
345.93	0.0142	0.3058	0.0007
334.3	0.0138	0.2971	0.0007
319.06	0.0133	0.2861	0.0007
361.13	0.0345	0.3199	0.0007
344.4	0.0332	0.3082	0.0007
325.21	0.0316	0.2936	0.0007
312.03	0.0305	0.2831	0.0007
366.25	0.0562	0.3182	0.0007
352.81	0.0538	0.3043	0.0007
339.79	0.0518	0.2931	0.0007
327.02	0.0501	0.2834	0.0007
316.15	0.0488	0.2761	0.0006

System: lithium bromide + 1,4,7,10,13-pentaoxacyclopentadecane + water; phases: Liquid, Crystal of intercomponent compound 1
Fixed: Pressure, kPa = 100
Property: Mole fraction of lithium bromide (Liquid); method: visual
Temperature, K	Mole fraction of 1,4,7,10,13-pentaoxacyclopentadecane	Mole fraction of lithium bromide	uncertainty
313.01	0.0129	0.2776	0.0007
307.86	0.0125	0.2687	0.0007
303.37	0.0121	0.2605	0.0006
297.53	0.0116	0.2501	0.0006
286.93	0.0111	0.2388	0.0006
272.97	0.0106	0.2278	0.0005
260.06	0.0102	0.2194	0.0005
306.54	0.0294	0.273	0.0006
298.27	0.0281	0.2607	0.0006
289.31	0.0267	0.2482	0.0006
276.82	0.0256	0.2372	0.0006
263.14	0.0244	0.2266	0.0005
309.5	0.0475	0.2689	0.0006
296.16	0.0454	0.2573	0.0006
285.73	0.0438	0.248	0.0006
274.76	0.0423	0.2393	0.0006

System: lithium bromide + 1,4,7,10,13,16-hexaoxacyclooctadecane + water; phases: Liquid, Crystal of intercomponent compound 1
Fixed: Pressure, kPa = 100
Property: Mole fraction of lithium bromide (Liquid); method: visual
Temperature, K	Mole fraction of 1,4,7,10,13,16-hexaoxacyclooctadecane	Mole fraction of lithium bromide	uncertainty
359.06	0.0128	0.3078	0.0007
344.37	0.0123	0.2941	0.0007
338.36	0.0118	0.2829	0.0007
363.23	0.0249	0.2985	0.0007
357.59	0.0248	0.2969	0.0007
344.23	0.0247	0.2966	0.0007
340.4	0.0247	0.2962	0.0007
365.95	0.0405	0.2877	0.001
365.27	0.04	0.284	0.001
364.33	0.0393	0.2786	0.001
363.34	0.0384	0.2724	0.0006
362.21	0.0369	0.2616	0.0011

System: lithium bromide + 1,4,7,10,13,16-hexaoxacyclooctadecane + water; phases: Liquid, Crystal of intercomponent compound 1
Fixed: Pressure, kPa = 100
Property: Mole fraction of lithium bromide (Liquid); method: visual
Temperature, K	Mole fraction of 1,4,7,10,13,16-hexaoxacyclooctadecane	Mole fraction of lithium bromide	uncertainty
341.19	0.0113	0.2716	0.0007
344.3	0.0108	0.2592	0.0007
347.26	0.0103	0.2479	0.0009
348.97	0.0098	0.2339	0.0009
342.39	0.0242	0.29	0.0007
346.28	0.0237	0.2835	0.0007
348.53	0.0231	0.2774	0.0007
351.24	0.0226	0.2711	0.0007
353.36	0.022	0.2637	0.0007
356.83	0.0211	0.2527	0.0006
357.85	0.0205	0.2457	0.0006
358.23	0.0198	0.2377	0.0006
366.78	0.0356	0.253	0.0006
368.02	0.0347	0.246	0.0006
368.89	0.0339	0.2403	0.0006
369.1	0.0328	0.2331	0.0007

System: lithium bromide + 1,4,7,10,13,16-hexaoxacyclooctadecane + water; phases: Liquid, Crystal of intercomponent compound 1
Fixed: Pressure, kPa = 100
Property: Mole fraction of lithium bromide (Liquid); method: visual
Temperature, K	Mole fraction of 1,4,7,10,13,16-hexaoxacyclooctadecane	Mole fraction of lithium bromide	uncertainty
348.86	0.0092	0.2202	0.0005
348.1	0.0088	0.211	0.0005
345.23	0.0084	0.2018	0.0006
342.35	0.0081	0.1931	0.0006
335.84	0.0075	0.1797	0.0005
329.38	0.007	0.1677	0.0004
321.26	0.0066	0.1579	0.0004
311.86	0.0062	0.1487	0.0004
299.24	0.0058	0.1385	0.0004
285.17	0.0054	0.1304	0.0004
274.21	0.0052	0.1245	0.0003
358.13	0.0191	0.2292	0.0006
357.86	0.0186	0.2232	0.0006
357.35	0.0179	0.2145	0.0006
354.83	0.0169	0.2025	0.0005
352.96	0.0164	0.1967	0.0006
350.38	0.0159	0.1908	0.0005
346.63	0.0154	0.184	0.0005
343.57	0.0149	0.1787	0.0005
339.7	0.0144	0.1732	0.0004
335.19	0.014	0.1674	0.0004
331.05	0.0136	0.163	0.0004
327.6	0.0132	0.1586	0.0004
323.05	0.0129	0.1546	0.0004
319.71	0.0126	0.1515	0.0004
315.56	0.0123	0.1478	0.0004
311.73	0.012	0.1442	0.0004
304.45	0.0115	0.1377	0.0004
300.16	0.0112	0.1346	0.0004
297.21	0.011	0.1322	0.0004
292.61	0.0108	0.1292	0.0004
288.63	0.0106	0.1269	0.0003
283.26	0.0103	0.1238	0.0003
279.32	0.0101	0.1214	0.0003
273.72	0.0099	0.1187	0.0003
368.97	0.0321	0.2277	0.0005
368.55	0.0311	0.2209	0.0005
367.2	0.0301	0.2137	0.0005
365	0.0289	0.2052	0.0005
361.02	0.0274	0.1945	0.0005
359	0.0267	0.1896	0.0006
355.72	0.0259	0.1835	0.0005
351.76	0.0249	0.1764	0.0005
348.3	0.024	0.1706	0.0004
334.71	0.0217	0.1541	0.0004
331	0.0211	0.1498	0.0004
327.04	0.0206	0.1464	0.0004
323.66	0.0202	0.1431	0.0004
319.46	0.0197	0.1399	0.0004
315.83	0.0192	0.1364	0.0004
313.71	0.019	0.1347	0.0004
311.44	0.0187	0.1328	0.0004
309.19	0.0185	0.131	0.0004
306.99	0.0182	0.1295	0.0004
303.91	0.018	0.1274	0.0003
300.6	0.0176	0.1252	0.0003
297.18	0.0174	0.1232	0.0003
294.16	0.0171	0.1211	0.0003
290.89	0.0168	0.1191	0.0003

System: lithium bromide + 1,2-ethanediol + water; phases: Liquid, Crystal of intercomponent compound 1
Fixed: Pressure, kPa = 100
Property: Mole fraction of lithium bromide (Liquid); method: visual
Temperature, K	Mole fraction of 1,2-ethanediol	Mole fraction of lithium bromide	uncertainty
350.44	0.2321	0.3828	0.0009
343.47	0.2255	0.3719	0.0009
336.44	0.2193	0.3617	0.0008
323.42	0.2107	0.3476	0.0008
307.56	0.2022	0.3334	0.0008

System: lithium bromide + 1,2-ethanediol + water; phases: Liquid, Crystal of intercomponent compound 1
Fixed: Pressure, kPa = 100
Property: Mole fraction of lithium bromide (Liquid); method: visual
Temperature, K	Mole fraction of 1,2-ethanediol	Mole fraction of lithium bromide	uncertainty
296.56	0.1883	0.3106	0.0007
293.92	0.1837	0.3029	0.0008
291.75	0.1801	0.2971	0.0007
288.98	0.175	0.2887	0.0007
284.86	0.1694	0.2795	0.0007
281.1	0.1641	0.2707	0.0006
276.79	0.1594	0.2629	0.0006
272.89	0.1558	0.257	0.0006
269.29	0.1512	0.2494	0.0006
264.51	0.1468	0.242	0.0006
260.81	0.1436	0.2368	0.0006
253.81	0.1385	0.2285	0.0005

System: lithium bromide + diethylene glycol + water; phases: Liquid, Crystal of intercomponent compound 1
Fixed: Pressure, kPa = 100
Property: Mole fraction of lithium bromide (Liquid); method: visual
Temperature, K	Mole fraction of diethylene glycol	Mole fraction of lithium bromide	uncertainty
342.34	0.1225	0.349	0.0008
323.36	0.1173	0.3342	0.0008
312.28	0.114	0.3247	0.0008
305.63	0.1122	0.3197	0.0007

System: lithium bromide + diethylene glycol + water; phases: Liquid, Crystal of intercomponent compound 1
Fixed: Pressure, kPa = 100
Property: Mole fraction of lithium bromide (Liquid); method: visual
Temperature, K	Mole fraction of diethylene glycol	Mole fraction of lithium bromide	uncertainty
304.02	0.1104	0.3144	0.0007
301.56	0.1076	0.3064	0.0007
297.98	0.1044	0.2973	0.0007
294.81	0.1011	0.2879	0.0007
291.87	0.0984	0.2802	0.0007
289.09	0.0954	0.2716	0.0006
285.71	0.0923	0.2629	0.0006
280.67	0.089	0.2535	0.0006
276.22	0.0853	0.243	0.0006
270.31	0.0822	0.234	0.0005
265.88	0.079	0.225	0.0005
261.51	0.0762	0.2171	0.0005
254.84	0.0732	0.2085	0.0005
250.22	0.0713	0.203	0.0005

System: lithium bromide + triethylene glycol + water; phases: Liquid, Crystal of intercomponent compound 1
Fixed: Pressure, kPa = 100
Property: Mole fraction of lithium bromide (Liquid); method: visual
Temperature, K	Mole fraction of triethylene glycol	Mole fraction of lithium bromide	uncertainty
343.28	0.0844	0.3381	0.0008
328.27	0.0833	0.3339	0.0008
313.69	0.0819	0.3281	0.0008
308.13	0.0811	0.325	0.0008

System: lithium bromide + triethylene glycol + water; phases: Liquid, Crystal of intercomponent compound 1
Fixed: Pressure, kPa = 100
Property: Mole fraction of lithium bromide (Liquid); method: visual
Temperature, K	Mole fraction of triethylene glycol	Mole fraction of lithium bromide	uncertainty
305.27	0.0792	0.3172	0.0008
301.76	0.0764	0.3061	0.0007
299.07	0.0738	0.2955	0.0007
294.99	0.0707	0.2832	0.0007
291.29	0.0684	0.2741	0.0006
287.3	0.0661	0.2648	0.0006
282.79	0.0636	0.2548	0.0006
276.99	0.0606	0.2426	0.0006
273.15	0.0587	0.235	0.0006
269.51	0.057	0.2283	0.0006
267.03	0.0559	0.2239	0.0006
262.21	0.0541	0.2169	0.0005
257.04	0.0524	0.2098	0.0005

System: lithium bromide + glycerol + water; phases: Liquid, Crystal of intercomponent compound 1
Fixed: Pressure, kPa = 100
Property: Mole fraction of lithium bromide (Liquid); method: visual
Temperature, K	Mole fraction of glycerol	Mole fraction of lithium bromide	uncertainty
357.43	0.1663	0.3975	0.0009
342.72	0.1588	0.3795	0.0009
327.76	0.1514	0.3618	0.0008
315.1	0.1463	0.3497	0.0008
302.76	0.14	0.3346	0.0008

System: lithium bromide + glycerol + water; phases: Liquid, Crystal of intercomponent compound 1
Fixed: Pressure, kPa = 100
Property: Mole fraction of lithium bromide (Liquid); method: visual
Temperature, K	Mole fraction of glycerol	Mole fraction of lithium bromide	uncertainty
299.09	0.1361	0.3252	0.0009
297.27	0.1329	0.3176	0.0007
292.99	0.128	0.306	0.0008
287.12	0.1214	0.29	0.0007
281.04	0.1156	0.2762	0.0006
277.2	0.1127	0.2692	0.0007
269.21	0.1064	0.2543	0.0006
262.08	0.1023	0.2445	0.0006
255.91	0.0995	0.2378	0.0006
250.58	0.0963	0.2302	0.0006
