Measured thermophysical data. Vapor-liquid equilibria and phase densities at saturation of carbon dioxide + 1-butanol and carbon dioxide + 2-butanol from 313 to 363 K
Source: Fluid Phase Equilib., 2010, 10.1016/j.fluid.2010.03.042
Compound 1: carbon dioxide, CO2, InChI=1S/CO2/c2-1-3
Compound 2: butan-1-ol, C4H10O, InChI=1S/C4H10O/c1-2-3-4-5/h5H,2-4H2,1H3
Compound 3: butan-2-ol, C4H10O, InChI=1S/C4H10O/c1-3-4(2)5/h4-5H,3H2,1-2H3

System: butan-1-ol + carbon dioxide; phases: Liquid, Gas
Property: Vapor or sublimation pressure, kPa (Liquid); method: Closed cell (Static) method
Mole fraction of carbon dioxide	Temperature, K	Vapor or sublimation pressure, kPa	uncertainty
0.1186	363.17	3093	63
0.1294	313.22	2144	43
0.1985	363.17	5132	97
0.2204	313.22	3541	85
0.2354	313.22	3823	91
0.2821	363.17	6986	134
0.3409	313.22	5325	92
0.3623	363.17	8950	173
0.4311	313.22	6383	80
0.4604	363.17	11182	187
0.5637	363.17	12975	152
0.5847	313.22	7508	53
0.6867	363.17	14143	156
0.7105	363.17	14402	153
0.7597	363.17	14895	160
0.8543	313.22	8063	154

System: butan-1-ol + carbon dioxide; phases: Gas, Liquid
Property: Mass density, kg/m3 (Gas); method: Vibrating tube method
Temperature, K	Mole fraction of carbon dioxide	Mass density, kg/m3	uncertainty
313.22	0.1294	46.4	1.7
313.22	0.2204	75.5	4.4
313.22	0.2354	82.9	4.7
313.22	0.3409	128.1	6.2
313.22	0.4311	172.2	8.1
313.22	0.5847	242.7	9.4
313.22	0.8543	344.3	14.1
363.17	0.1186	56.4	2.4
363.17	0.1985	95.7	3.9
363.17	0.2821	135.9	6.3
363.17	0.3623	186.7	11.8
363.17	0.4604	279.6	16
363.17	0.5637	362	16.4
363.17	0.6867	444.9	32.3
363.17	0.7105	472.9	36.3
363.17	0.7597	537.6	40

System: butan-1-ol + carbon dioxide; phases: Liquid, Gas
Property: Mass density, kg/m3 (Liquid); method: Vibrating tube method
Temperature, K	Mole fraction of carbon dioxide	Mass density, kg/m3	uncertainty
313.22	0.1294	806.8	0.5
313.22	0.2204	816.8	0.6
313.22	0.2354	818.6	0.7
313.22	0.3409	823.7	0.5
313.22	0.4311	826.1	0.4
313.22	0.5847	827.7	0.9
313.22	0.8543	797	0.4
363.17	0.1186	711.3	1.6
363.17	0.1985	762	1.3
363.17	0.2821	764.7	0.4
363.17	0.3623	765.5	0.4
363.17	0.4604	765.5	0.4
363.17	0.5637	760.6	0.8
363.17	0.6867	750.9	3
363.17	0.7105	745.8	4.9
363.17	0.7597	726.6	5.9

System: butan-1-ol + carbon dioxide; phases: Gas, Liquid
Property: Mole fraction of carbon dioxide (Gas); method: Chromatography
Mole fraction of carbon dioxide	Temperature, K	Mole fraction of carbon dioxide	uncertainty
0.1186	363.17	0.9807	0.0193
0.1294	313.22	0.9981	0.0019
0.1985	363.17	0.9823	0.0177
0.2204	313.22	0.9982	0.0018
0.2354	313.22	0.9982	0.0018
0.2821	363.17	0.9816	0.0184
0.3409	313.22	0.9977	0.0023
0.3623	363.17	0.9803	0.0197
0.4311	313.22	0.9973	0.0027
0.4604	363.17	0.9719	0.0281
0.5637	363.17	0.9578	0.0384
0.5847	313.22	0.9952	0.0048
0.6867	363.17	0.9359	0.0389
0.7105	363.17	0.9175	0.0383
0.7597	363.17	0.8798	0.0371
0.8543	313.22	0.9916	0.0084

System: butan-2-ol + carbon dioxide; phases: Liquid, Gas
Property: Vapor or sublimation pressure, kPa (Liquid); method: Closed cell (Static) method
Mole fraction of carbon dioxide	Temperature, K	Vapor or sublimation pressure, kPa	uncertainty
0.1273	363.06	2776	53
0.137	333.12	2656	58
0.166	313.21	2564	50
0.1978	363.06	4170	86
0.2174	333.12	4124	80
0.2247	313.21	3398	61
0.2588	363.06	5559	120
0.2793	363.06	6019	120
0.3029	333.12	5582	90
0.3339	313.21	4753	75
0.3584	363.06	7661	153
0.3944	333.12	6687	96
0.4344	363.06	9263	144
0.435	313.21	5635	80
0.4533	333.12	7472	110
0.5177	313.21	6357	70
0.5565	363.06	10916	133
0.5642	333.12	8656	102
0.6282	313.21	6862	33
0.6485	333.12	9122	75
0.6536	313.21	6897	49
0.6978	363.06	12317	137
0.7453	313.21	7214	54
0.7457	313.21	7174	54
0.7871	363.06	13073	140
0.7937	333.12	9861	86
0.8376	333.12	10067	48
0.8517	313.21	7502	91
0.8604	313.21	7546	92
0.9197	313.21	7759	73

System: butan-2-ol + carbon dioxide; phases: Gas, Liquid
Property: Mass density, kg/m3 (Gas); method: Vibrating tube method
Temperature, K	Mole fraction of carbon dioxide	Mass density, kg/m3	uncertainty
313.21	0.166	54.9	2.4
313.21	0.2247	76	3.2
313.21	0.3339	114.7	4.3
313.21	0.435	143.6	6.1
313.21	0.5177	179.5	6.4
313.21	0.6282	203.7	6.1
313.21	0.7453	234.5	8.5
313.21	0.7457	228.4	8.5
313.21	0.8604	269.6	14.9
313.21	0.9197	305.8	22.5
333.12	0.137	53.1	2.3
333.12	0.2174	84	3.6
333.12	0.3029	121	4.9
333.12	0.3944	156.4	6.3
333.12	0.4533	186	9.7
333.12	0.5642	243.9	11.1
333.12	0.6485	280.7	15.1
333.12	0.7937	372.7	21.3
333.12	0.8376	410.6	5.1
363.06	0.1273	52.8	1.5
363.06	0.1978	72.7	3.1
363.06	0.2588	105.1	5.4
363.06	0.2793	114.4	6.2
363.06	0.3584	159.3	8.7
363.06	0.4344	208.5	11.1
363.06	0.5565	285.6	13.2
363.06	0.6978	364.4	21.4
363.06	0.7871	467.6	36.4

System: butan-2-ol + carbon dioxide; phases: Liquid, Gas
Property: Mass density, kg/m3 (Liquid); method: Vibrating tube method
Temperature, K	Mole fraction of carbon dioxide	Mass density, kg/m3	uncertainty
313.21	0.166	795.6	0.8
313.21	0.2247	807.4	0.6
313.21	0.3339	813.7	0.5
313.21	0.435	816.8	0.5
313.21	0.5177	818.9	0.4
313.21	0.6282	818.5	0.4
313.21	0.7453	817.2	0.5
313.21	0.7457	817.5	0.5
313.21	0.8604	815.4	0.6
313.21	0.9197	813.8	0.7
333.12	0.137	771.6	0.5
333.12	0.2174	782.3	0.5
333.12	0.3029	786.1	0.5
333.12	0.3944	790.2	0.5
333.12	0.4533	791.8	0.4
333.12	0.5642	790.7	0.4
333.12	0.6485	787.2	0.8
333.12	0.7937	775.5	2.3
333.12	0.8376	758.6	12.2
363.06	0.1273	743.6	0.4
363.06	0.1978	746.7	0.4
363.06	0.2588	747.7	0.4
363.06	0.2793	748.3	0.5
363.06	0.3584	743.8	0.6
363.06	0.4344	738.3	1.6
363.06	0.5565	709.3	3.9
363.06	0.6978	647.2	6
363.06	0.7871	611.7	6.3

System: butan-2-ol + carbon dioxide; phases: Gas, Liquid
Property: Mole fraction of carbon dioxide (Gas); method: Chromatography
Mole fraction of carbon dioxide	Temperature, K	Mole fraction of carbon dioxide	uncertainty
0.1273	363.06	0.9623	0.0377
0.137	333.12	0.9883	0.0117
0.166	313.21	0.9945	0.0055
0.1978	363.06	0.9667	0.0333
0.2174	333.12	0.9891	0.0109
0.2247	313.21	0.9953	0.0047
0.2588	363.06	0.9692	0.0308
0.2793	363.06	0.9689	0.0311
0.3029	333.12	0.9884	0.0116
0.3339	313.21	0.9953	0.0047
0.3584	363.06	0.9668	0.0332
0.3944	333.12	0.9876	0.0124
0.4344	363.06	0.9604	0.0384
0.435	313.21	0.9944	0.0056
0.4533	333.12	0.9854	0.0146
0.5177	313.21	0.9929	0.0071
0.5565	363.06	0.9501	0.038
0.5642	333.12	0.9825	0.0175
0.6282	313.21	0.9922	0.0078
0.6485	333.12	0.9788	0.0212
0.6978	363.06	0.9291	0.0374
0.7453	313.21	0.991	0.009
0.7457	313.21	0.9912	0.0088
0.7871	363.06	0.8863	0.0363
0.7937	333.12	0.9618	0.0382
0.8376	333.12	0.9545	0.0384
0.8517	313.21	0.9901	0.0099
0.8604	313.21	0.9894	0.0106
0.9197	313.21	0.989	0.011
