Measured thermophysical data. Solubility of dimethyl fumarate in water + (methanol, ethanol, 1-propanol) from  (278.15 to 333.15) K
Source: Fluid Phase Equilib., 2013, 10.1016/j.fluid.2012.12.031
Compound 1: dimethyl trans-butenedioate, C6H8O4, InChI=1S/C6H8O4/c1-9-5(7)3-4-6(8)10-2/h3-4H,1-2H3/b4-3+, purity 97%
Compound 2: water, H2O, InChI=1S/H2O/h1H2
Compound 3: methanol, CH4O, InChI=1S/CH4O/c1-2/h2H,1H3, purity 99.7%
Compound 4: ethanol, C2H6O, InChI=1S/C2H6O/c1-2-3/h3H,2H2,1H3, purity 99.9%
Compound 5: propan-1-ol, C3H8O, InChI=1S/C3H8O/c1-2-3-4/h4H,2-3H2,1H3, purity 99.7%

System: methanol + dimethyl trans-butenedioate + water; phases: Liquid, Crystal
Fixed: Pressure, kPa = 101
Property: Mole fraction of dimethyl trans-butenedioate (Liquid); method: Phase equilibration
Solvent: Mass fraction of methanol	Temperature, K	Mole fraction of dimethyl trans-butenedioate	uncertainty
0.2532	278.15	3.22e-05	3e-07
0.2532	283.15	4.71e-05	4e-07
0.2532	288.15	7.24e-05	6e-07
0.2532	293.15	0.0001047	9e-07
0.2532	298.15	0.0001521	1.2e-06
0.2532	303.15	0.0002184	1.7e-06
0.2532	308.15	0.000307	2.5e-06
0.2532	313.15	0.0004411	3.5e-06
0.2532	318.15	0.0006213	4.8e-06
0.2532	323.15	0.0008718	6.7e-06
0.2532	328.15	0.0012291	9.4e-06
0.2532	333.15	0.0017124	1.13e-05
0.4417	278.15	6.21e-05	2e-07
0.4417	283.15	9.55e-05	9e-07
0.4417	288.15	0.0001462	1.4e-06
0.4417	293.15	0.0002217	2.1e-06
0.4417	298.15	0.0003411	3.1e-06
0.4417	303.15	0.0005062	4.4e-06
0.4417	308.15	0.0007437	6.3e-06
0.4417	313.15	0.0010895	9.2e-06
0.4417	318.15	0.0015864	1.31e-05
0.4417	323.15	0.0022841	1.83e-05
0.4417	328.15	0.0032468	2.61e-05
0.4417	333.15	0.0046499	5.95e-05
0.5426	278.15	0.0001703	2.5e-06
0.5426	283.15	0.0002581	2.3e-06
0.5426	288.15	0.0003828	3.4e-06
0.5426	293.15	0.0005681	4.9e-06
0.5426	298.15	0.0008375	7e-06
0.5426	303.15	0.0012107	9.9e-06
0.5426	308.15	0.0017351	1.4e-05
0.5426	313.15	0.0024837	1.97e-05
0.5426	318.15	0.0035229	2.74e-05
0.5426	323.15	0.0049542	3.82e-05
0.5426	328.15	0.0069531	5.3e-05
0.5426	333.15	0.009701	5.26e-05
0.6486	278.15	0.0001742	1.1e-06
0.6486	283.15	0.0002735	2.6e-06
0.6486	288.15	0.0004227	4.1e-06
0.6486	293.15	0.0006531	5.9e-06
0.6486	298.15	0.0009755	8.4e-06
0.6486	303.15	0.0014237	1.21e-05
0.6486	308.15	0.0020886	1.86e-05
0.6486	313.15	0.0031412	2.62e-05
0.6486	318.15	0.0044894	3.59e-05
0.6486	323.15	0.0063902	5.12e-05
0.6486	328.15	0.0091223	7.16e-05
0.6486	333.15	0.012842	0.0001475
0.8768	278.15	0.0008966	8.4e-06
0.8768	283.15	0.0012872	1.07e-05
0.8768	288.15	0.0018715	1.55e-05
0.8768	293.15	0.0027051	2.17e-05
0.8768	298.15	0.0038432	3e-05
0.8768	303.15	0.0054116	4.11e-05
0.8768	308.15	0.0075262	5.64e-05
0.8768	313.15	0.0104415	7.7e-05
0.8768	318.15	0.0143417	0.0001036
0.8768	323.15	0.0195371	0.0001398
0.8768	328.15	0.0265419	0.0001895
0.8768	333.15	0.035976	0.0002294

System: ethanol + dimethyl trans-butenedioate + water; phases: Liquid, Crystal
Fixed: Pressure, kPa = 101
Property: Mole fraction of dimethyl trans-butenedioate (Liquid); method: Phase equilibration
Solvent: Mass fraction of ethanol	Temperature, K	Mole fraction of dimethyl trans-butenedioate	uncertainty
0.2529	278.15	4.26e-05	6e-07
0.2529	283.15	7.14e-05	8e-07
0.2529	288.15	0.0001219	1.4e-06
0.2529	293.15	0.0002002	2.1e-06
0.2529	298.15	0.0003256	3.4e-06
0.2529	303.15	0.0005264	5.3e-06
0.2529	308.15	0.0008291	8.2e-06
0.2529	313.15	0.0012968	1.26e-05
0.2529	318.15	0.0020107	1.91e-05
0.2529	323.15	0.0030795	2.87e-05
0.2529	328.15	0.0046849	4.3e-05
0.2529	333.15	0.007074	5.35e-05
0.4413	278.15	0.0001626	1.3e-06
0.4413	283.15	0.0002564	2.4e-06
0.4413	288.15	0.0003908	3.7e-06
0.4413	293.15	0.0006015	5.6e-06
0.4413	298.15	0.0009088	8.3e-06
0.4413	303.15	0.0013758	1.18e-05
0.4413	308.15	0.0019937	1.76e-05
0.4413	313.15	0.0030025	2.52e-05
0.4413	318.15	0.0043011	3.49e-05
0.4413	323.15	0.0061802	5.09e-05
0.4413	328.15	0.0089441	7.11e-05
0.4413	333.15	0.0125997	0.0001011
0.5423	278.15	0.0003132	4.3e-06
0.5423	283.15	0.0004778	4.4e-06
0.5423	288.15	0.0007207	6.3e-06
0.5423	293.15	0.0010635	9.1e-06
0.5423	298.15	0.0015619	1.31e-05
0.5423	303.15	0.0022692	1.83e-05
0.5423	308.15	0.0032199	2.64e-05
0.5423	313.15	0.0046703	3.68e-05
0.5423	318.15	0.0065406	5.05e-05
0.5423	323.15	0.0092112	7.04e-05
0.5423	328.15	0.0128405	9.59e-05
0.5423	333.15	0.0177301	0.0001623
0.6483	278.15	0.0003393	3e-06
0.6483	283.15	0.0005475	5.6e-06
0.6483	288.15	0.0008691	8.6e-06
0.6483	293.15	0.0013547	1.27e-05
0.6483	298.15	0.0020552	1.93e-05
0.6483	303.15	0.0031519	2.92e-05
0.6483	308.15	0.0047764	4.28e-05
0.6483	313.15	0.0071172	6.15e-05
0.6483	318.15	0.010429	8.79e-05
0.6483	323.15	0.0151498	0.0001261
0.6483	328.15	0.0218989	0.0001776
0.6483	333.15	0.0311747	0.0001815
0.8767	278.15	0.0007437	8.7e-06
0.8767	283.15	0.0011608	1.11e-05
0.8767	288.15	0.0017844	1.63e-05
0.8767	293.15	0.0026759	2.44e-05
0.8767	298.15	0.004053	3.48e-05
0.8767	303.15	0.0058751	4.96e-05
0.8767	308.15	0.0085923	7.23e-05
0.8767	313.15	0.0124808	0.0001015
0.8767	318.15	0.017794	0.000143
0.8767	323.15	0.0253278	0.0001992
0.8767	328.15	0.0355998	0.0002758
0.8767	333.15	0.0497421	0.0003379

System: propan-1-ol + dimethyl trans-butenedioate + water; phases: Liquid, Crystal
Fixed: Pressure, kPa = 101
Property: Mole fraction of dimethyl trans-butenedioate (Liquid); method: Phase equilibration
Solvent: Mass fraction of propan-1-ol	Temperature, K	Mole fraction of dimethyl trans-butenedioate	uncertainty
0.2517	278.15	5.6e-05	7e-07
0.2517	283.15	8.98e-05	9e-07
0.2517	288.15	0.0001431	1.4e-06
0.2517	293.15	0.0002264	2.3e-06
0.2517	298.15	0.0003561	3.3e-06
0.2517	303.15	0.0005372	5e-06
0.2517	308.15	0.0008179	7.4e-06
0.2517	313.15	0.0012283	1.08e-05
0.2517	318.15	0.0018146	1.56e-05
0.2517	323.15	0.0026649	2.25e-05
0.2517	328.15	0.0038736	3.22e-05
0.2517	333.15	0.0056102	3.96e-05
0.4398	278.15	0.0002072	2.8e-06
0.4398	283.15	0.0003326	3.4e-06
0.4398	288.15	0.0005271	5.2e-06
0.4398	293.15	0.000826	8e-06
0.4398	298.15	0.0012787	1.21e-05
0.4398	303.15	0.001953	1.8e-05
0.4398	308.15	0.0029386	2.63e-05
0.4398	313.15	0.0043871	3.86e-05
0.4398	318.15	0.0065034	5.6e-05
0.4398	323.15	0.0095338	8.07e-05
0.4398	328.15	0.0138948	0.0001158
0.4398	333.15	0.0200886	0.0001664
0.5408	278.15	0.0002607	2.2e-06
0.5408	283.15	0.0004327	4.6e-06
0.5408	288.15	0.0006989	7.4e-06
0.5408	293.15	0.0011378	1.17e-05
0.5408	298.15	0.0018001	1.74e-05
0.5408	303.15	0.0027659	2.63e-05
0.5408	308.15	0.0042625	3.98e-05
0.5408	313.15	0.0064795	5.89e-05
0.5408	318.15	0.0097271	8.65e-05
0.5408	323.15	0.0144716	0.000126
0.5408	328.15	0.0213021	0.000182
0.5408	333.15	0.0310847	0.0002387
0.6469	278.15	0.0005356	7.2e-06
0.6469	283.15	0.0008344	8.3e-06
0.6469	288.15	0.0013195	1.29e-05
0.6469	293.15	0.0020512	1.95e-05
0.6469	298.15	0.0031463	2.94e-05
0.6469	303.15	0.0047908	4.28e-05
0.6469	308.15	0.0071106	6.13e-05
0.6469	313.15	0.0104273	8.87e-05
0.6469	318.15	0.0152388	0.0001277
0.6469	323.15	0.0220651	0.0001813
0.6469	328.15	0.0316534	0.0002563
0.6469	333.15	0.0450907	0.0002832
0.876	278.15	0.0008751	1.07e-05
0.876	283.15	0.0013884	1.33e-05
0.876	288.15	0.002116	2e-05
0.876	293.15	0.0032561	3.05e-05
0.876	298.15	0.004963	4.4e-05
0.876	303.15	0.0073561	6.31e-05
0.876	308.15	0.0107525	9.76e-05
0.876	313.15	0.0163931	0.0001382
0.876	318.15	0.0233598	0.0001903
0.876	323.15	0.0335762	0.000258
0.876	328.15	0.046202	0.0003642
0.876	333.15	0.0658309	0.0004659
