Measured thermophysical data. An investigation on the solid-liquid phase equilibrium of the quaternary system KH2PO4-H3PO4-CH2OHCH2OH-H2O
Source: Fluid Phase Equilib., 2018, 10.1016/j.fluid.2018.02.014
Compound 1: phosphoric acid, H3O4P, InChI=1S/H3O4P/c1-5(2,3)4/h(H3,1,2,3,4), purity 85%
Compound 2: 1,2-ethanediol, C2H6O2, InChI=1S/C2H6O2/c3-1-2-4/h3-4H,1-2H2, purity 99.5%
Compound 3: monopotassium phosphate, H2KO4P, InChI=1S/K.H3O4P/c;1-5(2,3)4/h;(H3,1,2,3,4)/q+1;/p-1, purity 99.5%
Compound 4: water, H2O, InChI=1S/H2O/h1H2, purity 99.9%

System: monopotassium phosphate + phosphoric acid + water; phases: Liquid, Crystal
Fixed: Pressure, kPa = 100
Fixed: Temperature, K = 308.2
Property: Mass ratio of solute to solvent of monopotassium phosphate (Liquid); method: isothermal solution saturation method
Solvent: Mass fraction of phosphoric acid	Mass ratio of solute to solvent of monopotassium phosphate	uncertainty
0	0.3031	0.0485
0.05	0.3307	0.0529
0.1	0.3583	0.0573
0.2	0.4142	0.0663
0.3	0.4641	0.0743
0.4	0.5022	0.0804
0.5	0.5569	0.0891
0.6	0.6189	0.099

System: monopotassium phosphate + phosphoric acid + water; phases: Liquid, Crystal
Fixed: Pressure, kPa = 100
Property: Mass fraction of monopotassium phosphate (Liquid); method: isothermal solution saturation method
Temperature, K	Solvent: Mass fraction of phosphoric acid	Mass fraction of monopotassium phosphate	uncertainty
308.2	0.2	0.2939	0.0118
308.2	0.3	0.317	0.0127
333.2	0.2	0.3606	0.0145

System: monopotassium phosphate + 1,2-ethanediol + water; phases: Liquid, Crystal
Property: Mass ratio of solute to solvent of monopotassium phosphate (Liquid); method: isothermal solution saturation method
Temperature, K	Pressure, kPa	Mass ratio of solute to solvent of 1,2-ethanediol	Mass ratio of solute to solvent of monopotassium phosphate	uncertainty
308.2	100	0.4	0.1629	0.0261

System: monopotassium phosphate + water; phases: Liquid, Crystal
Property: Mass ratio of solute to solvent of monopotassium phosphate (Liquid); method: isothermal solution saturation method
Pressure, kPa	Temperature, K	Mass ratio of solute to solvent of monopotassium phosphate	uncertainty
100	308.2	0.3031	0.0485

System: monopotassium phosphate + 1,2-ethanediol; phases: Liquid, Crystal
Fixed: Pressure, kPa = 100
Property: Mass fraction of monopotassium phosphate (Liquid); method: isothermal solution saturation method
Temperature, K	Mass fraction of monopotassium phosphate	uncertainty
308.2	0.0069	0.0003
333.2	0.0089	0.0004
