Measured thermophysical data. Determination of the solubility, dissolution enthalpy and entropy of suberic acid in different solvents
Source: Fluid Phase Equilib., 2012, 10.1016/j.fluid.2012.06.012
Compound 1: 1,8-octanedioic acid, C8H14O4, InChI=1S/C8H14O4/c9-7(10)5-3-1-2-4-6-8(11)12/h1-6H2,(H,9,10)(H,11,12), purity 99%
Compound 2: methanol, CH4O, InChI=1S/CH4O/c1-2/h2H,1H3, purity 99.9%
Compound 3: ethanol, C2H6O, InChI=1S/C2H6O/c1-2-3/h3H,2H2,1H3, purity 99.93%
Compound 4: propan-1-ol, C3H8O, InChI=1S/C3H8O/c1-2-3-4/h4H,2-3H2,1H3, purity 99.95%
Compound 5: propan-2-ol, C3H8O, InChI=1S/C3H8O/c1-3(2)4/h3-4H,1-2H3, purity 99.94%
Compound 6: acetone, C3H6O, InChI=1S/C3H6O/c1-3(2)4/h1-2H3, purity 99.9%
Compound 7: ethyl acetate, C4H8O2, InChI=1S/C4H8O2/c1-3-6-4(2)5/h3H2,1-2H3, purity 99.98%
Compound 8: tetrahydrofuran, C4H8O, InChI=1S/C4H8O/c1-2-4-5-3-1/h1-4H2, purity 99.92%
Compound 9: water, H2O, InChI=1S/H2O/h1H2, purity 99.8%

System: acetone + 1,8-octanedioic acid; phases: Liquid, Crystal
Fixed: Pressure, kPa = 101
Property: Mole fraction of 1,8-octanedioic acid (Liquid); method: gravimetric with evaporation of solvent
Temperature, K	Mole fraction of 1,8-octanedioic acid	uncertainty
283.15	0.006	0.00036
289.95	0.00833	0.0005
296.85	0.01145	0.00069
303.75	0.01539	0.00093
310.75	0.02083	0.00126
317.55	0.02925	0.00177
322.75	0.035	0.00212

System: ethyl acetate + 1,8-octanedioic acid; phases: Liquid, Crystal
Fixed: Pressure, kPa = 101
Property: Mole fraction of 1,8-octanedioic acid (Liquid); method: gravimetric with evaporation of solvent
Temperature, K	Mole fraction of 1,8-octanedioic acid	uncertainty
283.15	0.00167	0.0001
289.95	0.00227	0.00014
296.85	0.0031	0.00019
303.95	0.00462	0.00028
310.95	0.0065	0.00039
317.75	0.00902	0.00054
324.85	0.01253	0.00076
331.75	0.0186	0.00112

System: methanol + 1,8-octanedioic acid; phases: Liquid, Crystal
Fixed: Pressure, kPa = 101
Property: Mole fraction of 1,8-octanedioic acid (Liquid); method: gravimetric with evaporation of solvent
Temperature, K	Mole fraction of 1,8-octanedioic acid	uncertainty
283.25	0.01789	0.0011
290.35	0.02416	0.00148
297.05	0.03216	0.00197
303.85	0.04435	0.00272
310.95	0.05723	0.00351
317.85	0.07478	0.00459
324.85	0.09512	0.00584

System: propan-1-ol + 1,8-octanedioic acid; phases: Liquid, Crystal
Fixed: Pressure, kPa = 101
Property: Mole fraction of 1,8-octanedioic acid (Liquid); method: gravimetric with evaporation of solvent
Temperature, K	Mole fraction of 1,8-octanedioic acid	uncertainty
283.15	0.01205	0.00073
289.85	0.01705	0.00103
296.75	0.02327	0.00141
303.85	0.03082	0.00186
310.75	0.04218	0.00255
317.75	0.05594	0.00338
325.05	0.07183	0.00434

System: 1,8-octanedioic acid + water; phases: Liquid, Crystal
Fixed: Pressure, kPa = 101
Property: Mole fraction of 1,8-octanedioic acid (Liquid); method: gravimetric with evaporation of solvent
Temperature, K	Mole fraction of 1,8-octanedioic acid	uncertainty
283.25	9.14e-05	5.8e-06
290.25	0.000131	8e-06
297.15	0.0002	1.3e-05
303.85	0.000291	1.9e-05
310.85	0.000439	2.8e-05
318.15	0.000662	4.2e-05
325.15	0.00107	7e-05
332.45	0.0017	0.00011
339.15	0.00265	0.00017

System: tetrahydrofuran + 1,8-octanedioic acid; phases: Liquid, Crystal
Fixed: Pressure, kPa = 101
Property: Mole fraction of 1,8-octanedioic acid (Liquid); method: gravimetric with evaporation of solvent
Temperature, K	Mole fraction of 1,8-octanedioic acid	uncertainty
283.15	0.03558	0.00215
289.75	0.04369	0.00264
296.85	0.05461	0.00329
303.75	0.0665	0.00401
310.75	0.08063	0.00486
317.95	0.09821	0.00592
324.95	0.11733	0.00708
331.95	0.14133	0.00853

System: ethanol + 1,8-octanedioic acid; phases: Liquid, Crystal
Fixed: Pressure, kPa = 101
Property: Mole fraction of 1,8-octanedioic acid (Liquid); method: Density calibration data
Temperature, K	Mole fraction of 1,8-octanedioic acid	uncertainty
283.35	0.01578	0.00096
290.45	0.02105	0.00128
297.05	0.02811	0.00171
303.65	0.03735	0.00227
310.55	0.04915	0.00298
317.55	0.06268	0.00381
324.45	0.07947	0.00482

System: propan-2-ol + 1,8-octanedioic acid; phases: Liquid, Crystal
Fixed: Pressure, kPa = 101
Property: Mole fraction of 1,8-octanedioic acid (Liquid); method: gravimetric with evaporation of solvent
Temperature, K	Mole fraction of 1,8-octanedioic acid	uncertainty
283.15	0.01446	0.00088
289.95	0.0198	0.0012
296.95	0.02714	0.00164
303.55	0.03684	0.00223
310.95	0.04856	0.00294
317.95	0.06392	0.00387
324.75	0.08158	0.00493
