Measured thermophysical data. High pressure phase behaviour of methane in 1-butyl-3-methylimidazolium bis(trifluoromethylsulfonyl)imide
Source: Fluid Phase Equilib., 2010, 10.1016/j.fluid.2010.03.021
Compound 1: methane, CH4, InChI=1S/CH4/h1H4
Compound 2: 1-butyl-3-methylimidazolium bis(trifluoromethylsulfonyl)imide, C10H15F6N3O4S2, InChI=1S/C8H15N2.C2F6NO4S2/c1-3-4-5-10-7-6-9(2)8-10;3-1(4,5)14(10,11)9-15(12,13)2(6,7)8/h6-8H,3-5H2,1-2H3;/q+1;-1

System: methane + 1-butyl-3-methylimidazolium bis(trifluoromethylsulfonyl)imide; phases: Liquid, Gas
Property: Vapor or sublimation pressure, kPa (Liquid); method: Closed cell (Static) method
Mole fraction of methane	Temperature, K	Vapor or sublimation pressure, kPa	uncertainty
0.0298	313.57	1510	104
0.0298	342.31	1618	117
0.0298	371.38	1736	129
0.0298	400.47	1836	135
0.0298	429.58	1913	137
0.0298	449.06	1938	138
0.0555	313.52	2838	101
0.0555	332.57	3083	105
0.0555	352.08	3237	110
0.0555	371.35	3383	120
0.0555	390.8	3508	119
0.0555	410.09	3583	130
0.0555	429.56	3659	134
0.0555	449.02	3706	137
0.0911	313.54	4582	122
0.0911	332.64	4906	128
0.0911	352.04	5181	134
0.0911	371.35	5406	140
0.0911	390.69	5581	143
0.0911	410.11	5880	146
0.0911	410.15	5880	146
0.0911	429.56	5997	148
0.0911	448.96	6097	149
0.1222	312.84	6852	140
0.1222	332.58	7302	147
0.1222	352	7677	153
0.1222	371.33	8001	156
0.1222	390.78	8227	160
0.1222	410.22	8402	158
0.1222	429.8	8528	158
0.1222	449.11	8604	158
0.1688	313.54	9903	188
0.1688	332.69	10503	144
0.1688	352.02	10982	149
0.1688	371.38	11352	152
0.1688	390.75	11652	155
0.1688	410.19	11853	157
0.1688	429.6	11978	157
0.1688	449.12	12054	158
0.2245	300.31	15505	229
0.2245	311.14	15906	231
0.2245	314.31	16105	232
