Measured thermophysical data. Measurements of the solubilties of m-phthalic acid in acetone, ethanol and acetic ether
Source: Fluid Phase Equilib., 2008, 10.1016/j.fluid.2008.01.014
Compound 1: acetone, C3H6O, InChI=1S/C3H6O/c1-3(2)4/h1-2H3, purity 99.5%
Compound 2: 1,3-benzenedicarboxylic acid, C8H6O4, InChI=1S/C8H6O4/c9-7(10)5-2-1-3-6(4-5)8(11)12/h1-4H,(H,9,10)(H,11,12), purity 99.8%
Compound 3: ethanol, C2H6O, InChI=1S/C2H6O/c1-2-3/h3H,2H2,1H3, purity 99.5%
Compound 4: ethyl acetate, C4H8O2, InChI=1S/C4H8O2/c1-3-6-4(2)5/h3H2,1-2H3, purity 99.5%

System: acetone + 1,3-benzenedicarboxylic acid; phases: Liquid, Crystal
Fixed: Pressure, kPa = 101
Property: Molality, mol/kg of 1,3-benzenedicarboxylic acid (Liquid); method: static analytical and gravimetric method
Temperature, K	Molality, mol/kg of 1,3-benzenedicarboxylic acid	uncertainty
278.25	0.017634	0.000708
283.05	0.019788	0.000796
288.05	0.024777	0.000996
292.95	0.027495	0.001107
297.65	0.035875	0.001445
303.05	0.042633	0.001716
308.05	0.053245	0.002146
313.05	0.066758	0.002688
318.05	0.08052	0.00324
323.05	0.099103	0.003994
327.85	0.123663	0.00498

System: ethanol + 1,3-benzenedicarboxylic acid; phases: Liquid, Crystal
Fixed: Pressure, kPa = 101
Property: Molality, mol/kg of 1,3-benzenedicarboxylic acid (Liquid); method: static analytical and gravimetric method
Temperature, K	Molality, mol/kg of 1,3-benzenedicarboxylic acid	uncertainty
278.54	0.062361	0.002502
283.33	0.069042	0.00277
288.33	0.078402	0.003148
293.05	0.08995	0.00361
297.45	0.098858	0.003964
302.66	0.106423	0.004271
308.55	0.127611	0.005121
313.15	0.139168	0.005583
318.45	0.157286	0.006307
323.45	0.168814	0.006768
328.15	0.184253	0.007393
333.05	0.209806	0.008416
338.15	0.229459	0.009203
343.65	0.259315	0.010403
349.35	0.293565	0.011774

System: 1,3-benzenedicarboxylic acid + ethyl acetate; phases: Liquid, Crystal
Fixed: Pressure, kPa = 101
Property: Molality, mol/kg of 1,3-benzenedicarboxylic acid (Liquid); method: static analytical and gravimetric method
Temperature, K	Molality, mol/kg of 1,3-benzenedicarboxylic acid	uncertainty
278.05	0.002754	0.000113
282.95	0.003939	0.00016
287.85	0.005311	0.000214
293.05	0.006039	0.000243
303.05	0.008864	0.000356
307.75	0.010034	0.000402
312.85	0.010819	0.000434
323.65	0.01366	0.00055
333.15	0.016203	0.000649
338.15	0.017177	0.000688
