Measured thermophysical data. Isopiestic determination of osmotic and activity coefficients of aqueous solutions of aliphatic polyols at 298.15K
Source: Fluid Phase Equilib., 2006, 10.1016/j.fluid.2005.12.016
Compound 1: 1,2-butanediol, C4H10O2, InChI=1S/C4H10O2/c1-2-4(6)3-5/h4-6H,2-3H2,1H3
Compound 2: 1,3-butanediol, C4H10O2, InChI=1S/C4H10O2/c1-4(6)2-3-5/h4-6H,2-3H2,1H3
Compound 3: 1,4-butanediol, C4H10O2, InChI=1S/C4H10O2/c5-3-1-2-4-6/h5-6H,1-4H2
Compound 4: 2,3-butanediol, C4H10O2, InChI=1S/C4H10O2/c1-3(5)4(2)6/h3-6H,1-2H3
Compound 5: 1,2,4-butanetriol, C4H10O3, InChI=1S/C4H10O3/c5-2-1-4(7)3-6/h4-7H,1-3H2
Compound 6: meso-1,2,3,4-butanetetrol, C4H10O4, InChI=1S/C4H10O4/c5-1-3(7)4(8)2-6/h3-8H,1-2H2/t3-,4+
Compound 7: water, H2O, InChI=1S/H2O/h1H2

System: 1,2-butanediol + water; phases: Liquid
Fixed: Temperature, K = 298.15
Fixed: Pressure, kPa = 101
Property: Osmotic coefficient (Liquid); method: ISOPIE
Molality, mol/kg of 1,2-butanediol	Osmotic coefficient	uncertainty
0.2302	0.9585	0.0018
0.803	0.9286	0.0028
0.8128	0.9282	0.0028
1.0456	0.9205	0.0031
1.0559	0.9202	0.0031
2.0932	0.8967	0.004
3.0378	0.8831	0.0045
3.0437	0.8831	0.0045
4.3042	0.8709	0.005

System: 1,3-butanediol + water; phases: Liquid
Fixed: Temperature, K = 298.15
Fixed: Pressure, kPa = 101
Property: Osmotic coefficient (Liquid); method: ISOPIE
Molality, mol/kg of 1,3-butanediol	Osmotic coefficient	uncertainty
0.2289	0.9766	0.0013
0.7849	0.9509	0.002
1.0508	0.9416	0.0023
2.9679	0.9042	0.0037
2.9686	0.9042	0.0037
4.1858	0.8953	0.0041
4.1967	0.8953	0.0041

System: 1,4-butanediol + water; phases: Liquid
Fixed: Temperature, K = 298.15
Fixed: Pressure, kPa = 101
Property: Osmotic coefficient (Liquid); method: ISOPIE
Molality, mol/kg of 1,4-butanediol	Osmotic coefficient	uncertainty
0.2252	0.977	0.0013
0.778	0.9474	0.0021
0.7931	0.9467	0.0021
1.054	0.9349	0.0025
2.1479	0.892	0.0042
2.1579	0.8916	0.0042
3.1204	0.8619	0.0053
4.4988	0.8341	0.0064
4.5009	0.8341	0.0064

System: 2,3-butanediol + water; phases: Liquid
Fixed: Temperature, K = 298.15
Fixed: Pressure, kPa = 101
Property: Osmotic coefficient (Liquid); method: ISOPIE
Molality, mol/kg of 2,3-butanediol	Osmotic coefficient	uncertainty
0.6071	0.9429	0.0023
0.8087	0.9359	0.0025
1.9946	0.913	0.0034
2.9601	0.9043	0.0037

System: 1,2,4-butanetriol + water; phases: Liquid
Fixed: Temperature, K = 298.15
Fixed: Pressure, kPa = 101
Property: Osmotic coefficient (Liquid); method: ISOPIE
Molality, mol/kg of 1,2,4-butanetriol	Osmotic coefficient	uncertainty
0.7526	0.9857	0.0011
1.3397	0.9912	0.001
1.9293	0.9968	0.001
2.7447	1.0059	0.001
2.8001	1.0065	0.001
3.6905	1.0189	0.0012
5.9159	1.0625	0.0024

System: meso-1,2,3,4-butanetetrol + water; phases: Liquid
Fixed: Temperature, K = 298.15
Fixed: Pressure, kPa = 101
Property: Osmotic coefficient (Liquid); method: ISOPIE
Molality, mol/kg of meso-1,2,3,4-butanetetrol	Osmotic coefficient	uncertainty
0.2173	1.0019	0.001
0.2196	1.0019	0.001
0.5657	1.0111	0.0011
0.5662	1.0111	0.0011
0.7365	1.0142	0.0011
0.74	1.0143	0.0011
0.9458	1.0171	0.0012
1.1127	1.0187	0.0012
1.114	1.0187	0.0012
