Measured thermophysical data. High pressure vapour liquid equilibria of the binary and some of the ternary and multicomponent mixtures of the carbon dioxide + acetic anhydride + alpha-methylbenzyl alcohol + acetic acid + alpha-methylbenzyl acetate system: Experimental and modelling results
Source: Fluid Phase Equilib., 2006, 10.1016/j.fluid.2006.04.011
Compound 1: carbon dioxide, CO2, InChI=1S/CO2/c2-1-3
Compound 2: ethanoic anhydride, C4H6O3, InChI=1S/C4H6O3/c1-3(5)7-4(2)6/h1-2H3
Compound 3: 1-phenylethanol, C8H10O, InChI=1S/C8H10O/c1-7(9)8-5-3-2-4-6-8/h2-7,9H,1H3
Compound 4: acetic acid, C2H4O2, InChI=1S/C2H4O2/c1-2(3)4/h1H3,(H,3,4)
Compound 5: .alpha.-methylbenzenemethyl acetate, C10H12O2, InChI=1S/C10H12O2/c1-8(12-9(2)11)10-6-4-3-5-7-10/h3-8H,1-2H3

System: acetic acid + carbon dioxide; phases: Liquid, Gas
Property: Vapor or sublimation pressure, kPa (Liquid); method: CCELL:UFactor:16
Mole fraction of acetic acid	Temperature, K	Vapor or sublimation pressure, kPa	uncertainty
0	283.35	4550	230
0	288.38	5140	260
0	295.85	6110	300
0	298.42	6490	320
0	303.54	7290	360
0.4962	283.09	2900	140
0.4962	293.14	3810	190
0.4962	303.08	4370	220
0.4962	313.31	5240	260
0.4962	323.18	6110	300
0.4962	335.19	7120	350
0.4962	343.3	8180	410
0.4962	353.06	9220	460
0.4962	363.5	10330	510

System: ethanoic anhydride + carbon dioxide; phases: Liquid, Gas
Property: Critical pressure, kPa (Liquid); method: Direct measurement
Mole fraction of ethanoic anhydride	Critical pressure, kPa	uncertainty
0.0972	14840	20

System: ethanoic anhydride + carbon dioxide; phases: Liquid, Gas
Property: Critical temperature, K (Liquid); method: Visual observation in an unstirred cell
Mole fraction of ethanoic anhydride	Critical temperature, K	uncertainty
0.0972	360.12	0.16

System: ethanoic anhydride + carbon dioxide; phases: Liquid, Gas
Property: Vapor or sublimation pressure, kPa (Liquid); method: CCELL:UFactor:8
Mole fraction of ethanoic anhydride	Temperature, K	Vapor or sublimation pressure, kPa	uncertainty
0.0972	283.09	4070	100
0.0972	293.13	5100	130
0.0972	303.17	6410	160
0.0972	313.21	7660	190
0.0972	323.26	9160	230
0.0972	333.31	10720	270
0.0972	343.16	12230	300
0.0972	353.24	13600	340
0.0972	363.17	14800	370
0.2922	283.08	3220	80
0.2922	293.24	4010	100
0.2922	303.13	4900	120
0.2922	313.24	5900	150
0.2922	323.36	7020	180
0.2922	333.37	8250	210
0.2922	343.18	9370	230
0.2922	353.24	10630	270
0.2922	363.35	11870	300
0.4897	283.09	2390	60
0.4897	293.13	2890	70
0.4897	303.17	3480	90
0.4897	313.19	4160	100
0.4897	323.14	4880	120
0.4897	333.1	5650	140
0.4897	343.13	6420	160
0.4897	353.16	7330	180
0.4897	363.18	8180	210
0.6918	283.18	1290	40
0.6918	293.2	1580	40
0.6918	303.25	1920	50
0.6918	313.19	2300	60
0.6918	323.26	2690	70
0.6918	333.28	3100	80
0.6918	343.19	3530	90
0.6918	353.16	3990	100
0.6918	363.26	4450	120
0.8953	283.13	400	20
0.8953	293.16	500	30
0.8953	303.44	590	30
0.8953	313.19	700	30
0.8953	323.23	820	30
0.8953	333.2	930	40
0.8953	343.26	1080	40
0.8953	353.16	1200	40
0.8953	363.19	1340	50

System: .alpha.-methylbenzenemethyl acetate + carbon dioxide; phases: Liquid, Gas
Property: Vapor or sublimation pressure, kPa (Liquid); method: Closed cell (Static) method
Mole fraction of .alpha.-methylbenzenemethyl acetate	Temperature, K	Vapor or sublimation pressure, kPa	uncertainty
0.2005	283.09	4090	30
0.2005	293.12	4980	30
0.2005	303.02	6080	30
0.2005	313.15	7280	40
0.2005	323.21	8640	40
0.2005	333.16	10080	50
0.2005	343.18	11610	50
0.2005	353.24	13150	60
0.2005	363.27	14600	60
0.4006	283.07	3140	30
0.4006	293.12	3860	30
0.4006	303.09	4560	30
0.4006	313.17	5360	30
0.4006	323.33	6350	40
0.4006	333.29	7280	40
0.4006	343.18	8350	50
0.4006	353.42	9430	50
0.4006	363.25	10710	60
0.6037	283.09	2020	20
0.6037	293.09	2460	30
0.6037	303.11	2920	30
0.6037	313.19	3440	30
0.6037	323.26	3970	30
0.6037	333.14	4540	30
0.6037	343.31	5130	40
0.6037	353.21	5720	40
0.6037	363.25	6320	50
0.6437	283.13	1850	20
0.6437	293.11	2220	30
0.6437	303.15	2650	30
0.6437	313.16	3100	30
0.6437	323.13	3570	30
0.6437	333.03	4060	40
0.6437	343.16	4560	40
0.6437	353.15	5100	40
0.6437	363.19	5620	50
0.7015	283.1	1550	20
0.7015	293.08	1850	20
0.7015	303.09	2160	30
0.7015	313.13	2510	30
0.7015	323.16	2890	30
0.7015	333.13	3260	30
0.7015	343.25	3660	40
0.7015	353.27	4060	40
0.7015	363.34	4460	40
0.7516	282.93	1350	20
0.7516	292.73	1660	30
0.7516	303.17	1950	30
0.7516	313.19	2210	30
0.7516	323.33	2520	30
0.7516	333.15	2820	30
0.7516	343.06	3120	40
0.7516	353.2	3520	40
0.7516	363.3	3820	40
0.8074	283.13	960	20
0.8074	293.13	1160	30
0.8074	303.16	1360	30
0.8074	313.22	1560	30
0.8074	323.11	1780	30
0.8074	333.19	2020	40
0.8074	343.15	2260	40
0.8074	353.27	2520	40
0.8074	363.25	2750	40
0.892	283.13	410	20
0.892	293.13	480	30
0.892	303.05	570	30
0.892	313.22	660	30
0.892	323.14	760	30
0.892	333.16	860	30
0.892	343.17	960	40
0.892	353.24	1070	40
0.892	363.31	1170	40

System: 1-phenylethanol + carbon dioxide; phases: Liquid mixture 1, Gas, Liquid mixture 2
Property: Critical pressure, kPa (Liquid mixture 1); method: Direct measurement
Critical pressure, kPa	uncertainty
7780	20

System: 1-phenylethanol + carbon dioxide; phases: Liquid mixture 1, Gas, Liquid mixture 2
Property: Critical temperature, K (Liquid mixture 1); method: Visual observation in an unstirred cell
Critical temperature, K	uncertainty
308.42	0.31

System: 1-phenylethanol + carbon dioxide; phases: Liquid mixture 1, Liquid mixture 2, Gas
Property: Vapor or sublimation pressure, kPa (Liquid mixture 1); method: CCELL:UFactor:8
Temperature, K	Vapor or sublimation pressure, kPa	uncertainty
283.49	4370	110
288.48	4930	120
293.14	5610	140
297.95	6270	160
304.05	7080	180
308.15	7740	190
308.33	7770	190

System: 1-phenylethanol + carbon dioxide; phases: Liquid, Gas
Property: Vapor or sublimation pressure, kPa (Liquid); method: CCELL:UFactor:8
Mole fraction of 1-phenylethanol	Temperature, K	Vapor or sublimation pressure, kPa	uncertainty
0.5479	283.15	4500	110
0.5479	293.16	5550	140
0.5479	303.3	6750	170
0.5479	313.12	8100	200
0.5479	323.13	9450	240
0.5479	333.17	10800	270
0.5479	343.2	11950	300
0.5479	353.29	12970	330
0.5479	363.33	13920	350
0.6012	283.15	4250	110
0.6012	293.13	5150	130
0.6012	303.11	6200	160
0.6012	313.14	7300	190
0.6012	322.91	8300	210
0.6012	333.2	9370	240
0.6012	343.33	10370	270
0.6012	353.26	11200	290
0.6012	363.27	12100	310
0.7001	283.11	3500	90
0.7001	293.13	4150	110
0.7001	303.12	4850	120
0.7001	313	5550	140
0.7001	323.39	6300	160
0.7001	333.18	7000	180
0.7001	343.16	7450	190
0.7001	353.15	8300	220
0.7001	363.25	8900	230
0.8008	283.1	2650	70
0.8008	293.13	3100	80
0.8008	303.14	3450	90
0.8008	313.14	3950	110
0.8008	323.13	4400	120
0.8008	333.02	4750	130
0.8008	343.2	5150	140
0.8008	353.24	5500	150
0.8008	363.25	5850	160
0.9004	283.08	1420	50
0.9004	293.15	1620	50
0.9004	303.07	1800	60
0.9004	313.14	2010	60
0.9004	322.98	2170	70
0.9004	333.11	2410	80
0.9004	343.15	2570	80
0.9004	353.26	2760	90
0.9004	363.27	2910	90
0.9496	283.08	650	40
0.9496	293.09	750	40
0.9496	303.1	850	50
0.9496	312.99	950	50
0.9496	323.17	1050	60
0.9496	333.14	1140	60
0.9496	343.16	1220	60
0.9496	353.2	1310	70
0.9496	363.25	1400	70

System: 1-phenylethanol + ethanoic anhydride + carbon dioxide; phases: Liquid, Gas
Property: Vapor or sublimation pressure, kPa (Liquid); method: CCELL:UFactor:8
Mole fraction of carbon dioxide	Mole fraction of ethanoic anhydride	Temperature, K	Vapor or sublimation pressure, kPa	uncertainty
0.1986	0.4142	283.15	1440	40
0.1986	0.4142	293.15	1720	50
0.1986	0.4142	303.12	1950	50
0.1986	0.4142	313.19	2240	60
0.1986	0.4142	323.23	2560	70
0.1986	0.4142	333.1	2850	70
0.1986	0.4142	343.23	3150	80
0.1986	0.4142	353.31	3460	90
0.1986	0.4142	363.19	3720	90
0.399	0.3077	283.15	2810	70
0.399	0.3077	292.9	3560	90
0.399	0.3077	303.09	4440	110
0.399	0.3077	313.19	5390	130
0.399	0.3077	323.23	6370	160
0.399	0.3077	333.1	7350	180
0.399	0.3077	343.1	8430	210
0.399	0.3077	353.14	9490	240
0.399	0.3077	363.22	10500	260

System: acetic acid + .alpha.-methylbenzenemethyl acetate + carbon dioxide; phases: Liquid, Gas
Property: Vapor or sublimation pressure, kPa (Liquid); method: CCELL:UFactor:8
Mole fraction of carbon dioxide	Mole fraction of .alpha.-methylbenzenemethyl acetate	Temperature, K	Vapor or sublimation pressure, kPa	uncertainty
0.1742	0.4171	283.1	1290	40
0.1742	0.4171	293.06	1520	40
0.1742	0.4171	303.14	1720	40
0.1742	0.4171	313.11	1960	50
0.1742	0.4171	323.28	2220	60
0.1742	0.4171	333.14	2460	60
0.1742	0.4171	343.18	2720	70
0.1742	0.4171	353.26	3000	80
0.1742	0.4171	363.11	3270	80
0.3557	0.3178	282.97	1770	50
0.3557	0.3178	293.12	2150	50
0.3557	0.3178	303.08	2650	70
0.3557	0.3178	313.15	3140	80
0.3557	0.3178	323.17	3630	90
0.3557	0.3178	333.18	4170	100
0.3557	0.3178	343.15	4740	120
0.3557	0.3178	353.18	5340	130
0.3557	0.3178	363.28	5970	150
