Measured thermophysical data. Evaluation of salting-out effect in the liquid-liquid equilibrium of aqueous two-phase systems composed of 2-propanol and Na2SO4/ MgSO4 at different temperatures
Source: Fluid Phase Equilib., 2017, 10.1016/j.fluid.2017.08.001
Compound 1: magnesium sulfate, MgO4S, InChI=1S/Mg.H2O4S/c;1-5(2,3)4/h;(H2,1,2,3,4)/q+2;/p-2, purity 98%
Compound 2: sodium sulfate, Na2O4S, InChI=1S/2Na.H2O4S/c;;1-5(2,3)4/h;;(H2,1,2,3,4)/q2*+1;/p-2, purity 99%
Compound 3: propan-2-ol, C3H8O, InChI=1S/C3H8O/c1-3(2)4/h3-4H,1-2H3, purity 99.5%
Compound 4: water, H2O, InChI=1S/H2O/h1H2, purity 99.8%

System: propan-2-ol + water + sodium sulfate; phases: Liquid mixture 1, Liquid mixture 2
Fixed: Pressure, kPa = 100
Property: Mass fraction of sodium sulfate (Liquid mixture 1); method: Titration method
Temperature, K	Mass fraction of propan-2-ol	Mass fraction of sodium sulfate	uncertainty
293.15	0.0239	0.257	0.008
293.15	0.0335	0.2381	0.0074
293.15	0.043	0.226	0.007
293.15	0.0516	0.2113	0.0066
293.15	0.0627	0.1972	0.0061
293.15	0.0805	0.1759	0.0055
293.15	0.0966	0.1605	0.005
293.15	0.1138	0.1446	0.0045
293.15	0.1341	0.1265	0.0039
293.15	0.1527	0.1144	0.0035
293.15	0.1748	0.0957	0.003
293.15	0.1991	0.0831	0.0026
293.15	0.2206	0.0715	0.0022
293.15	0.2396	0.0623	0.0019
293.15	0.2665	0.0512	0.0016
293.15	0.295	0.0432	0.0013
293.15	0.3193	0.0364	0.0011
293.15	0.3405	0.0312	0.001
293.15	0.3623	0.0275	0.0009
293.15	0.3865	0.0232	0.0007
293.15	0.4074	0.0194	0.0006
293.15	0.4362	0.0151	0.0005
293.15	0.4634	0.0121	0.0004
293.15	0.4917	0.0079	0.0003
293.15	0.5042	0.0072	0.0003
293.15	0.5205	0.0064	0.0003
303.15	0.0251	0.2546	0.0079
303.15	0.0422	0.2242	0.007
303.15	0.0583	0.195	0.006
303.15	0.076	0.1767	0.0055
303.15	0.0881	0.163	0.0051
303.15	0.0915	0.1565	0.0049
303.15	0.0957	0.1513	0.0047
303.15	0.1136	0.1345	0.0042
303.15	0.1331	0.1232	0.0038
303.15	0.16	0.1084	0.0034
303.15	0.1799	0.0941	0.0029
303.15	0.2042	0.082	0.0025
303.15	0.2255	0.0733	0.0023
303.15	0.244	0.066	0.002
303.15	0.2576	0.0577	0.0018
303.15	0.2757	0.0518	0.0016
303.15	0.2919	0.0464	0.0014
303.15	0.309	0.0416	0.0013
303.15	0.3229	0.0371	0.0012
303.15	0.3395	0.0332	0.001
303.15	0.3529	0.0294	0.0009
303.15	0.3699	0.0263	0.0008
303.15	0.3877	0.023	0.0007
303.15	0.3986	0.0192	0.0006
303.15	0.4167	0.017	0.0005
303.15	0.4322	0.0138	0.0004
303.15	0.4515	0.0108	0.0004
303.15	0.4725	0.0078	0.0003
313.15	0.0154	0.2794	0.0087
313.15	0.0263	0.2513	0.0078
313.15	0.032	0.24	0.0074
313.15	0.0424	0.2201	0.0068
313.15	0.0509	0.1991	0.0062
313.15	0.0651	0.1893	0.0061
313.15	0.0672	0.1826	0.0058
313.15	0.093	0.1594	0.0049
313.15	0.1274	0.1316	0.0041
313.15	0.153	0.1099	0.0034
313.15	0.1807	0.0943	0.0029
313.15	0.2124	0.0825	0.0026
313.15	0.2386	0.0696	0.0022
313.15	0.2773	0.0558	0.0017
313.15	0.3114	0.0475	0.0015
313.15	0.3437	0.04	0.0012
313.15	0.3652	0.0328	0.001
313.15	0.4027	0.0262	0.0008
313.15	0.429	0.0209	0.0007
313.15	0.4461	0.017	0.0005
313.15	0.47	0.013	0.0004
313.15	0.4989	0.0108	0.0004
323.15	0.0065	0.2794	0.0089
323.15	0.00991	0.248	0.008
323.15	0.00993	0.2223	0.0072
323.15	0.015	0.197	0.0062
323.15	0.0363	0.168	0.0053
323.15	0.0447	0.1468	0.0046
323.15	0.056	0.139	0.0043
323.15	0.0694	0.1272	0.004
323.15	0.0931	0.1098	0.0034
323.15	0.1275	0.09	0.0028
323.15	0.1615	0.0748	0.0023
323.15	0.2001	0.0646	0.002
323.15	0.2318	0.0557	0.0017
323.15	0.2611	0.0491	0.0015
323.15	0.2851	0.0426	0.0013
323.15	0.3116	0.0376	0.0012
323.15	0.3321	0.0334	0.001
323.15	0.3473	0.0292	0.0009
323.15	0.3737	0.0265	0.0008
323.15	0.4052	0.0232	0.0007
323.15	0.4314	0.0202	0.0006
323.15	0.4513	0.0178	0.0006
323.15	0.4698	0.0153	0.0005
323.15	0.4872	0.0134	0.0004
323.15	0.4962	0.0114	0.0004
323.15	0.5146	0.0094	0.0003
323.15	0.5318	0.0069	0.0003

System: propan-2-ol + water + sodium sulfate; phases: Liquid mixture 2, Liquid mixture 1
Fixed: Pressure, kPa = 100
Property: Mass fraction of sodium sulfate (Liquid mixture 2); method: OTHER
Property: Mass fraction of sodium sulfate (Liquid mixture 1); method: OTHER
Property: Mass fraction of propan-2-ol (Liquid mixture 1); method: OTHER
Temperature, K	Mass fraction of propan-2-ol	Mass fraction of sodium sulfate	uncertainty	Mass fraction of sodium sulfate	uncertainty	Mass fraction of propan-2-ol	uncertainty
293.15	0.1113	0.1428	0.0033	0.0302	0.0007	0.3473	
323.15	0.0363	0.1635	0.0038	0.0352	0.0008	0.3265	
323.15	0.0295	0.1761	0.0041	0.0237	0.0006	0.3997	
323.15	0.0228	0.1915	0.0045	0.016	0.0004	0.4578	
293.15	0.0855	0.1681	0.0039	0.0182	0.0004	0.411	
293.15	0.0681	0.189	0.0044	0.0111	0.0003	0.4658	
303.15	0.0982	0.1511	0.0035	0.0369	0.0009	0.3258	
303.15	0.0731	0.1769	0.0041	0.0211	0.0005	0.3919	
303.15	0.0569	0.1979	0.0046	0.0115	0.0003	0.4471	
313.15	0.1068	0.1432	0.0033	0.0353	0.0008	0.3566	
313.15	0.0762	0.172	0.004	0.023	0.0005	0.4152	
313.15	0.0597	0.1921	0.0045	0.0134	0.0004	0.4739	

System: propan-2-ol + magnesium sulfate + water; phases: Liquid mixture 1, Liquid mixture 2
Fixed: Pressure, kPa = 100
Property: Mass fraction of magnesium sulfate (Liquid mixture 1); method: Titration method
Temperature, K	Mass fraction of propan-2-ol	Mass fraction of magnesium sulfate	uncertainty
293.15	0.0733	0.2412	0.0075
293.15	0.0761	0.2312	0.0072
293.15	0.0802	0.2243	0.007
293.15	0.0852	0.219	0.0068
293.15	0.0886	0.2139	0.0066
293.15	0.0946	0.2069	0.0064
293.15	0.1045	0.1934	0.006
293.15	0.1186	0.178	0.0055
293.15	0.1399	0.1621	0.005
293.15	0.1599	0.1453	0.0045
293.15	0.1797	0.131	0.0041
293.15	0.1982	0.1186	0.0037
293.15	0.2145	0.1072	0.0033
293.15	0.2303	0.0966	0.003
293.15	0.2437	0.0866	0.0027
293.15	0.258	0.0772	0.0024
293.15	0.2717	0.0692	0.0021
293.15	0.2854	0.0622	0.0019
293.15	0.3113	0.0512	0.0016
293.15	0.3221	0.046	0.0014
293.15	0.3418	0.0376	0.0012
293.15	0.3533	0.0338	0.0011
293.15	0.3649	0.0305	0.0009
293.15	0.3857	0.0247	0.0008
293.15	0.3953	0.0223	0.0007
293.15	0.4185	0.0147	0.0005
293.15	0.4313	0.0116	0.0004
293.15	0.4484	0.0095	0.0003
293.15	0.4725	0.0058	0.0003
293.15	0.4834	0.0047	0.0002
293.15	0.5042	0.0037	0.0002
293.15	0.5318	0.0029	0.0002
303.15	0.0727	0.2243	0.007
303.15	0.0763	0.2172	0.0067
303.15	0.0799	0.2095	0.0065
303.15	0.0859	0.1982	0.0061
303.15	0.1013	0.1796	0.0056
303.15	0.1167	0.1629	0.0051
303.15	0.1393	0.1454	0.0045
303.15	0.1611	0.1259	0.0039
303.15	0.1892	0.1102	0.0034
303.15	0.2066	0.0997	0.0031
303.15	0.2256	0.086	0.0027
303.15	0.2485	0.0746	0.0023
303.15	0.2649	0.0648	0.002
303.15	0.2819	0.0575	0.0018
303.15	0.2948	0.0506	0.0016
303.15	0.309	0.0443	0.0014
303.15	0.3198	0.0389	0.0012
303.15	0.3366	0.0346	0.0011
303.15	0.348	0.0303	0.0009
303.15	0.362	0.0263	0.0008
303.15	0.3749	0.0217	0.0007
303.15	0.3849	0.0177	0.0006
303.15	0.4008	0.0153	0.0005
303.15	0.4091	0.0126	0.0004
303.15	0.4238	0.0101	0.0004
303.15	0.4369	0.0084	0.0003
303.15	0.4517	0.0063	0.0003
303.15	0.4678	0.0047	0.0002
303.15	0.4841	0.0036	0.0002
303.15	0.4998	0.0022	0.0002
313.15	0.0656	0.2165	0.0067
313.15	0.0742	0.2028	0.0063
313.15	0.0824	0.1955	0.0061
313.15	0.0947	0.1857	0.0058
313.15	0.1125	0.1675	0.0052
313.15	0.1342	0.1403	0.0044
313.15	0.1669	0.121	0.0038
313.15	0.2021	0.0981	0.003
313.15	0.225	0.0798	0.0025
313.15	0.2626	0.0613	0.0019
313.15	0.2876	0.0496	0.0015
313.15	0.3138	0.0403	0.0013
313.15	0.3348	0.0327	0.001
313.15	0.3544	0.0277	0.0009
313.15	0.3808	0.0214	0.0007
313.15	0.3949	0.0172	0.0005
313.15	0.4165	0.0132	0.0004
313.15	0.4262	0.0097	0.0003
313.15	0.433	0.0089	0.0003
313.15	0.439	0.0081	0.0003
313.15	0.4473	0.0072	0.0003
313.15	0.4554	0.0064	0.0003
313.15	0.4713	0.0056	0.0003
313.15	0.4765	0.0049	0.0003
313.15	0.4933	0.0045	0.0002
313.15	0.5	0.0039	0.0002
313.15	0.5071	0.0034	0.0002
313.15	0.5145	0.0029	0.0002
313.15	0.5213	0.0025	0.0002
323.15	0.0563	0.2312	0.0072
323.15	0.0647	0.2152	0.0067
323.15	0.0832	0.1975	0.0061
323.15	0.1005	0.173	0.0054
323.15	0.1188	0.1548	0.0048
323.15	0.1533	0.1266	0.0039
323.15	0.1815	0.1054	0.0033
323.15	0.2084	0.0879	0.0027
323.15	0.2343	0.0753	0.0023
323.15	0.2533	0.0633	0.002
323.15	0.2745	0.0536	0.0017
323.15	0.2926	0.0466	0.0014
323.15	0.3122	0.0383	0.0012
323.15	0.332	0.032	0.001
323.15	0.3509	0.0273	0.0008
323.15	0.3696	0.0234	0.0007
323.15	0.3858	0.0205	0.0006
323.15	0.4007	0.0178	0.0006
323.15	0.4177	0.0155	0.0005
323.15	0.4365	0.0128	0.0004
323.15	0.4673	0.0096	0.0003
323.15	0.4958	0.0064	0.0003

System: propan-2-ol + magnesium sulfate + water; phases: Liquid mixture 1, Liquid mixture 2
Fixed: Pressure, kPa = 100
Property: Mass fraction of magnesium sulfate (Liquid mixture 1); method: OTHER
Property: Mass fraction of magnesium sulfate (Liquid mixture 2); method: OTHER
Property: Mass fraction of propan-2-ol (Liquid mixture 2); method: OTHER
Temperature, K	Mass fraction of propan-2-ol	Mass fraction of magnesium sulfate	uncertainty	Mass fraction of magnesium sulfate	uncertainty	Mass fraction of propan-2-ol	uncertainty
293.15	0.3996	0.0195	0.0005	0.18	0.0042	0.1213	
293.15	0.4764	0.0063	0.0003	0.2085	0.0049	0.0935	
293.15	0.5417	0.0014	0.0002	0.2302	0.0054	0.0753	
303.15	0.3646	0.0244	0.0006	0.1572	0.0037	0.1281	
303.15	0.428	0.01	0.0003	0.1846	0.0043	0.0998	
303.15	0.4777	0.0037	0.0002	0.2067	0.0048	0.0802	
313.15	0.3747	0.0205	0.0005	0.1638	0.0038	0.1137	
313.15	0.4431	0.0087	0.0003	0.1831	0.0043	0.0934	
313.15	0.5051	0.0032	0.0002	0.1982	0.0046	0.0792	
323.15	0.3583	0.0262	0.0006	0.1538	0.0036	0.1216	
323.15	0.4143	0.0156	0.0004	0.1789	0.0042	0.0964	
323.15	0.4707	0.0088	0.0003	0.1957	0.0046	0.0816	
