Measured thermophysical data. Solubilities of carbon dioxide in aqueous solutions of sodium glycinate
Source: Fluid Phase Equilib., 2006, 10.1016/j.fluid.2006.05.012
Compound 1: sodium glycinate, C2H4NNaO2, InChI=1S/C2H5NO2.Na/c3-1-2(4)5;/h1,3H2,(H,4,5);/q;+1/p-1
Compound 2: carbon dioxide, CO2, InChI=1S/CO2/c2-1-3
Compound 3: water, H2O, InChI=1S/H2O/h1H2

System: carbon dioxide + sodium glycinate + water; phases: Liquid, Gas
Property: Mole fraction of carbon dioxide (Liquid); method: Chromatography
Temperature, K	Pressure, kPa	Solvent: Mass fraction of sodium glycinate	Mole fraction of carbon dioxide	uncertainty
303.15	0.1	0.3	0.0124	0.0008
303.15	0.2	0.2	0.0134	0.0008
303.15	0.3	0.1	0.0116	0.0007
303.15	0.3	0.2	0.0165	0.001
303.15	0.4	0.2	0.0228	0.0014
303.15	0.9	0.2	0.0264	0.0016
303.15	1.7	0.3	0.0331	0.002
303.15	4	0.1	0.0151	0.0009
303.15	8.6	0.2	0.0299	0.0018
303.15	21.6	0.3	0.0362	0.0022
303.15	29.9	0.1	0.0184	0.0011
303.15	41.2	0.3	0.0394	0.0024
303.15	44.7	0.2	0.0334	0.002
303.15	66.1	0.3	0.0414	0.0025
303.15	92.2	0.1	0.0198	0.0012
303.15	108.7	0.2	0.0363	0.0022
303.15	120.3	0.3	0.0434	0.0026
303.15	160.1	0.1	0.0209	0.0013
303.15	165.7	0.2	0.0376	0.0023
303.15	197.5	0.2	0.0385	0.0023
303.15	199.1	0.1	0.0213	0.0013
313.15	0.2	0.1	0.0083	0.0005
313.15	0.2	0.2	0.019	0.0011
313.15	0.3	0.2	0.0209	0.0013
313.15	0.3	0.3	0.0199	0.0012
313.15	0.4	0.1	0.0106	0.0006
313.15	0.4	0.3	0.0283	0.0017
313.15	0.7	0.2	0.0258	0.0016
313.15	0.9	0.1	0.0119	0.0007
313.15	2.5	0.3	0.0336	0.002
313.15	5.4	0.2	0.0295	0.0018
313.15	5.7	0.1	0.014	0.0008
313.15	25.2	0.1	0.0171	0.001
313.15	29.8	0.3	0.0379	0.0023
313.15	34.9	0.2	0.0328	0.002
313.15	69.5	0.1	0.0185	0.0011
313.15	87.9	0.2	0.0355	0.0021
313.15	97.8	0.3	0.0412	0.0025
313.15	128	0.1	0.0205	0.0012
313.15	145.9	0.2	0.0373	0.0023
313.15	165.4	0.3	0.0437	0.0026
313.15	178.5	0.1	0.0207	0.0013
313.15	187.9	0.2	0.0387	0.0023
313.15	195.8	0.3	0.0442	0.0027
313.15	208	0.1	0.021	0.0013
313.15	211.1	0.2	0.0388	0.0023
313.15	213.5	0.3	0.0459	0.0028
323.15	0.3	0.1	0.0055	0.0003
323.15	0.4	0.1	0.0077	0.0005
323.15	0.4	0.3	0.0126	0.0008
323.15	0.6	0.1	0.009	0.0006
323.15	1	0.2	0.0191	0.0012
323.15	1	0.3	0.0247	0.0015
323.15	1.1	0.2	0.0222	0.0014
323.15	1.4	0.1	0.0108	0.0007
323.15	1.5	0.2	0.0261	0.0016
323.15	3.9	0.1	0.0129	0.0008
323.15	6.4	0.3	0.0315	0.0019
323.15	7.9	0.2	0.0294	0.0018
323.15	19.4	0.1	0.015	0.0009
323.15	33.2	0.3	0.0372	0.0022
323.15	36	0.2	0.0325	0.002
323.15	58.1	0.1	0.0166	0.001
323.15	83.1	0.2	0.0341	0.0021
323.15	84	0.3	0.0397	0.0024
323.15	111.7	0.1	0.0186	0.0011
323.15	113.1	0.3	0.0404	0.0024
323.15	131.1	0.2	0.0361	0.0022
323.15	157.3	0.1	0.0189	0.0011
323.15	171.4	0.2	0.0372	0.0022
323.15	177.9	0.3	0.044	0.0027
323.15	189.4	0.1	0.0192	0.0012
323.15	201.5	0.2	0.0377	0.0023
323.15	209.6	0.1	0.0199	0.0012
