Measured thermophysical data. Measurement and correlation for the solubility of 2-chloro-5-nitro-toluene-4-sulfonic acid and 2-amino-5-chloro-4-methylbenzenesulfonic acid in aqueous sulfuric acid solutions
Source: Fluid Phase Equilib., 2015, 10.1016/j.fluid.2015.07.041
Compound 1: 2-amino-5-chloro-4-methylbenzenesulfonic acid, C7H8ClNO3S, InChI=1S/C7H8ClNO3S/c1-4-2-6(9)7(3-5(4)8)13(10,11)12/h2-3H,9H2,1H3,(H,10,11,12), purity 99.2%
Compound 2: 5-chloro-4-methyl-2-nitro-benzenesulfonic acid, C7H6ClNO5S, InChI=1S/C7H6ClNO5S/c1-4-2-6(9(10)11)7(3-5(4)8)15(12,13)14/h2-3H,1H3,(H,12,13,14), purity 99.5%
Compound 3: sulfuric acid, H2O4S, InChI=1S/H2O4S/c1-5(2,3)4/h(H2,1,2,3,4), purity 96.8%
Compound 4: water, H2O, InChI=1S/H2O/h1H2, purity 99.8%

System: 5-chloro-4-methyl-2-nitro-benzenesulfonic acid + sulfuric acid + water; phases: Liquid, Crystal
Fixed: Pressure, kPa = 100
Property: Solid-liquid equilibrium temperature, K (Liquid); method: phase equilibrium
Solvent: Mass fraction of sulfuric acid	Amount concentration (molarity), mol/dm3 of 5-chloro-4-methyl-2-nitro-benzenesulfonic acid	Solid-liquid equilibrium temperature, K	uncertainty
0	3.343	278.04	0.7
0	3.726	282.37	0.7
0	4.139	286.29	0.7
0	4.737	291.63	0.7
0	5.481	295.86	0.7
0	6.265	300.85	0.7
0	7.241	304.36	0.7
0	8.336	309.53	0.7
0	9.827	313.97	0.7
0	11.33	317.61	0.7
0	13.05	322.55	0.7
0	14.98	327.74	0.7
0	17.01	332.17	0.7
0	19.83	337.46	0.7
0	24.14	342.36	0.7
0.2	0.8306	277.23	0.7
0.2	1.044	280.91	0.7
0.2	1.371	285.87	0.7
0.2	1.779	290.82	0.7
0.2	2.246	295.94	0.7
0.2	2.688	300.7	0.7
0.2	3.177	305.59	0.7
0.2	3.696	310.18	0.7
0.2	4.269	314.87	0.7
0.2	4.798	318.91	0.7
0.2	5.678	323.29	0.7
0.2	6.708	328.66	0.7
0.2	7.786	334.57	0.7
0.2	8.487	337.6	0.7
0.2	10.13	342.96	0.7
0.4	0.005037	277.28	0.7
0.4	0.005585	282.36	0.7
0.4	0.006462	286.83	0.7
0.4	0.008281	291.29	0.7
0.4	0.01158	296.34	0.7
0.4	0.01669	300.95	0.7
0.4	0.02324	304.97	0.7
0.4	0.04097	309.26	0.7
0.4	0.06258	313.63	0.7
0.4	0.1135	318.93	0.7
0.4	0.1713	321.49	0.7
0.4	0.2524	325.33	0.7
0.4	0.3701	329.85	0.7
0.4	0.5851	334.32	0.7
0.4	0.8576	338.28	0.7
0.4	1.306	342.87	0.7
0.5	0.0003289	277.52	0.7
0.5	0.0005849	281.45	0.7
0.5	0.001033	285.96	0.7
0.5	0.001577	290.65	0.7
0.5	0.002137	295.35	0.7
0.5	0.002904	298.67	0.7
0.5	0.003882	302.89	0.7
0.5	0.004889	307.46	0.7
0.5	0.006128	311.77	0.7
0.5	0.007563	316.04	0.7
0.5	0.009353	319.36	0.7
0.5	0.01165	323.96	0.7
0.5	0.01571	329.24	0.7
0.5	0.01839	332.65	0.7
0.5	0.0231	336.63	0.7
0.5	0.02909	341.57	0.7
0.5	0.03286	344.62	0.7
0.6	0.0004352	277.63	0.7
0.6	0.0007177	279.85	0.7
0.6	0.00125	284.01	0.7
0.6	0.001896	288.08	0.7
0.6	0.002731	292.55	0.7
0.6	0.003835	297.05	0.7
0.6	0.005261	301.26	0.7
0.6	0.006969	304.87	0.7
0.6	0.009033	308.73	0.7
0.6	0.01148	312.35	0.7
0.6	0.01429	316.02	0.7
0.6	0.01742	320.05	0.7
0.6	0.02205	323.89	0.7
0.6	0.02624	327.77	0.7
0.6	0.03095	331.25	0.7
0.6	0.03519	334.65	0.7
0.6	0.04088	338.02	0.7
0.6	0.04722	341.51	0.7
0.6	0.05433	345.12	0.7
0.8	0.006413	277.31	0.7
0.8	0.007037	280.26	0.7
0.8	0.007829	284.94	0.7
0.8	0.009542	290.44	0.7
0.8	0.01501	296.05	0.7
0.8	0.02039	300.68	0.7
0.8	0.02866	305.21	0.7
0.8	0.04845	310.37	0.7
0.8	0.09092	314.57	0.7
0.8	0.1763	318.43	0.7
0.8	0.2924	322.26	0.7
0.8	0.4509	326.09	0.7
0.8	0.6527	330.34	0.7
0.8	0.9231	334.77	0.7
0.8	1.438	339.25	0.7
0.8	2.317	343.32	0.7

System: 2-amino-5-chloro-4-methylbenzenesulfonic acid + sulfuric acid + water; phases: Liquid, Crystal
Fixed: Solvent: Mass fraction of sulfuric acid = 0
Fixed: Pressure, kPa = 100
Property: Solid-liquid equilibrium temperature, K (Liquid); method: phase equilibrium
Amount concentration (molarity), mol/dm3 of 2-amino-5-chloro-4-methylbenzenesulfonic acid	Solid-liquid equilibrium temperature, K	uncertainty
0.0003534	276.84	1.66
0.0004051	279.13	0.93
0.0005738	280.17	0.97
0.001004	283.14	0.99
0.001511	286.76	0.94
0.002043	289.75	0.92
0.002495	292.66	0.83
0.003289	295.45	0.78
0.004307	299.15	0.77
0.005775	303.64	0.75
0.006893	306.18	0.74
0.008043	308.99	0.76
0.009257	313.45	0.76
0.01039	316.13	0.76
0.01222	322.15	0.77
0.01349	326.45	0.79
0.01419	329.42	0.86
0.01482	333.15	1.03
0.01516	337.01	1.66
0.01534	341.26	2.46
