Measured thermophysical data. Thiophene separation from aliphatic hydrocarbons using the 1-ethyl-3-methylimidazolium ethylsulfate ionic liquid
Source: Fluid Phase Equilib., 2008, 10.1016/j.fluid.2008.06.012
Compound 1: hexane, C6H14, InChI=1S/C6H14/c1-3-5-6-4-2/h3-6H2,1-2H3, purity 99%
Compound 2: heptane, C7H16, InChI=1S/C7H16/c1-3-5-7-6-4-2/h3-7H2,1-2H3, purity 99.5%
Compound 3: dodecane, C12H26, InChI=1S/C12H26/c1-3-5-7-9-11-12-10-8-6-4-2/h3-12H2,1-2H3, purity 99%
Compound 4: hexadecane, C16H34, InChI=1S/C16H34/c1-3-5-7-9-11-13-15-16-14-12-10-8-6-4-2/h3-16H2,1-2H3, purity 99%
Compound 5: thiophene, C4H4S, InChI=1S/C4H4S/c1-2-4-5-3-1/h1-4H, purity 99.5%
Compound 6: 1-ethyl-3-methylimidazolium ethyl sulfate, C8H16N2O4S, InChI=1S/C6H11N2.C2H6O4S/c1-3-8-5-4-7(2)6-8;1-2-6-7(3,4)5/h4-6H,3H2,1-2H3;2H2,1H3,(H,3,4,5)/q+1;/p-1

System: hexane; phases: Liquid
Property: Refractive index (Na D-line) (Liquid); method: Standard Abbe refractometry
Temperature, K	Pressure, kPa	Refractive index (Na D-line)	uncertainty
298.15	101.325	1.37287	0.0007

System: hexane; phases: Liquid
Property: Mass density, kg/m3 (Liquid); method: VIBTUB:UFactor:6
Temperature, K	Pressure, kPa	Mass density, kg/m3	uncertainty
298.15	101.325	655.06	1.1

System: heptane; phases: Liquid
Property: Refractive index (Na D-line) (Liquid); method: Standard Abbe refractometry
Temperature, K	Pressure, kPa	Refractive index (Na D-line)	uncertainty
298.15	101.325	1.38517	0.00068

System: heptane; phases: Liquid
Property: Mass density, kg/m3 (Liquid); method: VIBTUB:UFactor:4
Temperature, K	Pressure, kPa	Mass density, kg/m3	uncertainty
298.15	101.325	679.47	0.66

System: dodecane; phases: Liquid
Property: Refractive index (Na D-line) (Liquid); method: Standard Abbe refractometry
Temperature, K	Pressure, kPa	Refractive index (Na D-line)	uncertainty
298.15	101.325	1.42011	0.0007

System: dodecane; phases: Liquid
Property: Mass density, kg/m3 (Liquid); method: VIBTUB:UFactor:6
Temperature, K	Pressure, kPa	Mass density, kg/m3	uncertainty
298.15	101.325	745.32	0.91

System: hexadecane; phases: Liquid
Property: Refractive index (Na D-line) (Liquid); method: Standard Abbe refractometry
Temperature, K	Pressure, kPa	Refractive index (Na D-line)	uncertainty
298.15	101.325	1.43232	0.0007

System: hexadecane; phases: Liquid
Property: Mass density, kg/m3 (Liquid); method: VIBTUB:UFactor:6
Temperature, K	Pressure, kPa	Mass density, kg/m3	uncertainty
298.15	101.325	771.15	0.85

System: thiophene; phases: Liquid
Property: Refractive index (Na D-line) (Liquid); method: Standard Abbe refractometry
Temperature, K	Pressure, kPa	Refractive index (Na D-line)	uncertainty
298.15	101.325	1.5253	0.00068

System: thiophene; phases: Liquid
Property: Mass density, kg/m3 (Liquid); method: VIBTUB:UFactor:4
Temperature, K	Pressure, kPa	Mass density, kg/m3	uncertainty
298.15	101.325	1058.59	0.28

System: 1-ethyl-3-methylimidazolium ethyl sulfate; phases: Liquid
Property: Refractive index (Na D-line) (Liquid); method: Standard Abbe refractometry
Temperature, K	Pressure, kPa	Refractive index (Na D-line)	uncertainty
298.15	101.325	1.47903	0.00121

System: 1-ethyl-3-methylimidazolium ethyl sulfate; phases: Liquid
Property: Mass density, kg/m3 (Liquid); method: Vibrating tube method
Temperature, K	Pressure, kPa	Mass density, kg/m3	uncertainty
298.15	101.325	1238.17	8.35

System: thiophene + hexane + 1-ethyl-3-methylimidazolium ethyl sulfate; phases: Liquid mixture 1, Liquid mixture 2
Fixed: Temperature, K = 298.15
Fixed: Pressure, kPa = 101.3
Property: Mole fraction of 1-ethyl-3-methylimidazolium ethyl sulfate (Liquid mixture 1); method: Chromatography
Property: Mole fraction of 1-ethyl-3-methylimidazolium ethyl sulfate (Liquid mixture 2); method: Chromatography
Property: Mole fraction of thiophene (Liquid mixture 2); method: Chromatography
Mole fraction of thiophene	Mole fraction of 1-ethyl-3-methylimidazolium ethyl sulfate	uncertainty	Mole fraction of 1-ethyl-3-methylimidazolium ethyl sulfate	uncertainty	Mole fraction of thiophene	uncertainty
0	0.993	0.007	0	0.001	0	
0.131	0.86	0.016	0	0.001	0.082	
0.257	0.733	0.016	0	0.001	0.188	
0.343	0.649	0.016	0.01	0.01	0.381	
0.503	0.488	0.017	0.014	0.011	0.641	
0.524	0.465	0.016	0.005	0.005	0.732	
0.543	0.448	0.015	0.005	0.005	0.807	
0.641	0.352	0.016	0.004	0.004	0.901	
0.703	0.293	0.016	0	0.001	0.953	
0.712	0.288	0.015	0	0.001	1	

System: thiophene + heptane + 1-ethyl-3-methylimidazolium ethyl sulfate; phases: Liquid mixture 1, Liquid mixture 2
Fixed: Temperature, K = 298.15
Fixed: Pressure, kPa = 101.3
Property: Mole fraction of thiophene (Liquid mixture 1); method: Chromatography
Property: Mole fraction of 1-ethyl-3-methylimidazolium ethyl sulfate (Liquid mixture 2); method: Chromatography
Property: Mole fraction of thiophene (Liquid mixture 2); method: Chromatography
Mole fraction of 1-ethyl-3-methylimidazolium ethyl sulfate	Mole fraction of thiophene	uncertainty	Mole fraction of 1-ethyl-3-methylimidazolium ethyl sulfate	uncertainty	Mole fraction of thiophene	uncertainty
1	0	0.001	0	0.001	0	
0.845	0.155	0.016	0.006	0.006	0.092	
0.672	0.319	0.016	0.006	0.006	0.311	
0.567	0.422	0.016	0.001	0.001	0.494	
0.484	0.511	0.016	0	0.001	0.628	
0.422	0.566	0.016	0	0.001	0.87	
0.369	0.623	0.017	0	0.001	0.937	
0.337	0.663	0.017	0	0.001	0.967	
0.288	0.712	0.016	0	0.001	1	

System: thiophene + dodecane + 1-ethyl-3-methylimidazolium ethyl sulfate; phases: Liquid mixture 1, Liquid mixture 2
Fixed: Temperature, K = 298.15
Fixed: Pressure, kPa = 101.3
Property: Mole fraction of thiophene (Liquid mixture 1); method: Chromatography
Property: Mole fraction of 1-ethyl-3-methylimidazolium ethyl sulfate (Liquid mixture 2); method: Chromatography
Property: Mole fraction of thiophene (Liquid mixture 2); method: Chromatography
Mole fraction of 1-ethyl-3-methylimidazolium ethyl sulfate	Mole fraction of thiophene	uncertainty	Mole fraction of 1-ethyl-3-methylimidazolium ethyl sulfate	uncertainty	Mole fraction of thiophene	uncertainty
1	0	0.001	0	0.001	0	
0.959	0.041	0.016	0	0.001	0.083	
0.906	0.094	0.016	0	0.001	0.19	
0.83	0.17	0.016	0	0.001	0.303	
0.774	0.226	0.016	0	0.001	0.428	
0.703	0.297	0.016	0	0.001	0.558	
0.647	0.353	0.016	0	0.001	0.672	
0.623	0.377	0.016	0	0.001	0.783	
0.621	0.379	0.016	0	0.001	0.838	
0.582	0.418	0.016	0	0.001	0.906	
0.581	0.419	0.016	0	0.001	0.963	
0.564	0.436	0.016	0	0.001	0.938	
0.555	0.445	0.016	0	0.001	0.985	
0.288	0.712	0.016	0	0.001	1	

System: thiophene + hexadecane + 1-ethyl-3-methylimidazolium ethyl sulfate; phases: Liquid mixture 1, Liquid mixture 2
Fixed: Temperature, K = 298.15
Fixed: Pressure, kPa = 101.3
Property: Mole fraction of thiophene (Liquid mixture 1); method: Chromatography
Property: Mole fraction of 1-ethyl-3-methylimidazolium ethyl sulfate (Liquid mixture 2); method: Chromatography
Property: Mole fraction of thiophene (Liquid mixture 2); method: Chromatography
Mole fraction of 1-ethyl-3-methylimidazolium ethyl sulfate	Mole fraction of thiophene	uncertainty	Mole fraction of 1-ethyl-3-methylimidazolium ethyl sulfate	uncertainty	Mole fraction of thiophene	uncertainty
1	0	0.001	0	0.001	0	
0.912	0.088	0.016	0	0.001	0.13	
0.88	0.12	0.016	0	0.001	0.29	
0.837	0.163	0.016	0	0.001	0.436	
0.81	0.19	0.016	0	0.001	0.576	
0.738	0.262	0.016	0	0.001	0.665	
0.727	0.273	0.016	0	0.001	0.716	
0.612	0.388	0.016	0	0.001	0.879	
0.579	0.421	0.016	0	0.001	0.977	
0.545	0.455	0.016	0	0.001	0.919	
0.436	0.564	0.016	0	0.001	0.955	
0.288	0.712	0.016	0	0.001	1	
