Measured thermophysical data. Diisodecylphthalate (DIDP)-a potential standard of moderate viscosity: Surface tension measurements and water content effect on viscosity
Source: Fluid Phase Equilib., 2006, 10.1016/j.fluid.2006.03.012
Compound 1: 3-methylnonyl 1,2-benzenedioate, C28H46O4, InChI=1S/C28H46O4/c1-23(2)17-11-7-5-9-15-21-31-27(29)25-19-13-14-20-26(25)28(30)32-22-16-10-6-8-12-18-24(3)4/h13-14,19-20,23-24H,5-12,15-18,21-22H2,1-4H3
Compound 2: water, H2O, InChI=1S/H2O/h1H2

System: 3-methylnonyl 1,2-benzenedioate; phases: Liquid, Gas
Property: Surface tension liquid-gas, N/m (Liquid); method: Pendant drop shape
Temperature, K	Surface tension liquid-gas, N/m	uncertainty
288.15	0.0305	0.0004
293.15	0.0302	0.0004
298.15	0.0297	0.0004
303.15	0.0294	0.0004
308.15	0.0291	0.0004

System: 3-methylnonyl 1,2-benzenedioate; phases: Liquid
Fixed: Pressure, kPa = 101.325
Property: Viscosity, Pa*s (Liquid); method: Vibrating wire viscometry
Temperature, K	Viscosity, Pa*s	uncertainty
293.23	0.12283	0.00261
298.26	0.08779	0.00161

System: 3-methylnonyl 1,2-benzenedioate; phases: Liquid
Fixed: Pressure, kPa = 101.325
Property: Mass density, kg/m3 (Liquid); method: Vibrating tube method
Temperature, K	Mass density, kg/m3	uncertainty
293.23	966.3	1.9
298.26	962.8	1.9

System: water + 3-methylnonyl 1,2-benzenedioate; phases: Liquid, Gas
Fixed: Mass fraction of water = 2e-05
Property: Surface tension liquid-gas, N/m (Liquid); method: Pendant drop shape
Temperature, K	Surface tension liquid-gas, N/m	uncertainty
288.15	0.0305	0.0004
293.15	0.0302	0.0004
298.15	0.0297	0.0004
303.15	0.0294	0.0004
308.15	0.0291	0.0004

System: water + 3-methylnonyl 1,2-benzenedioate; phases: Liquid
Fixed: Pressure, kPa = 101
Property: Viscosity, Pa*s (Liquid); method: Vibrating wire viscometry
Temperature, K	Mass fraction of water	Viscosity, Pa*s	uncertainty
293.23	2e-05	0.12283	0.00261
293.23	0.000107	0.1223	0.0026
298.26	2e-05	0.08779	0.00161
298.26	0.000107	0.08738	0.0016

System: water + 3-methylnonyl 1,2-benzenedioate; phases: Liquid
Fixed: Pressure, kPa = 101
Property: Mass density, kg/m3 (Liquid); method: Vibrating tube method
Temperature, K	Mass fraction of water	Mass density, kg/m3	uncertainty
293.23	2e-05	966.3	1.9
293.23	0.000107	966.3	1.9
298.26	2e-05	962.8	1.9
298.26	0.000107	962.8	1.9
