Measured thermophysical data. Liquid liquid equilibria and partitioning in organic aqueous systems
Source: Fluid Phase Equilib., 2007, 10.1016/j.fluid.2007.01.003
Compound 1: hexane, C6H14, InChI=1S/C6H14/c1-3-5-6-4-2/h3-6H2,1-2H3
Compound 2: 1,4-dioxane, C4H8O2, InChI=1S/C4H8O2/c1-2-6-4-3-5-1/h1-4H2
Compound 3: tetrahydrofuran, C4H8O, InChI=1S/C4H8O/c1-2-4-5-3-1/h1-4H2
Compound 4: water, H2O, InChI=1S/H2O/h1H2, purity 99.9%
Compound 5: acetonitrile, C2H3N, InChI=1S/C2H3N/c1-2-3/h1H3
Compound 6: diethyl ether, C4H10O, InChI=1S/C4H10O/c1-3-5-4-2/h3-4H2,1-2H3

System: tetrahydrofuran + hexane + water; phases: Liquid mixture 1, Liquid mixture 2
Fixed: Temperature, K = 301
Fixed: Pressure, kPa = 101.3
Property: Mole fraction of tetrahydrofuran (Liquid mixture 1); method: Chromatography
Property: Mole fraction of hexane (Liquid mixture 2); method: Chromatography
Property: Mole fraction of tetrahydrofuran (Liquid mixture 2); method: Chromatography
Mole fraction of hexane	Mole fraction of tetrahydrofuran	uncertainty	Mole fraction of hexane	uncertainty	Mole fraction of tetrahydrofuran	uncertainty
0.5198	0.4608	0.0046	0.0003	0.0001	0.0465	
0.5167	0.4632	0.0046	0.0006	0.0001	0.0532	
0.5173	0.4622	0.0046	0.0007	0.0001	0.0433	
0.5205	0.4571	0.0046	0.0002	0.0001	0.0461	
0.0697	0.6726	0.0033	0.0006	0.0001	0.1361	
0.1226	0.7147	0.0029	0.002	0.0001	0.1145	
0.0829	0.7058	0.0029	0.0003	0.0001	0.1245	
0.1783	0.7079	0.0029	0.0002	0.0001	0.0974	
0.1332	0.7168	0.0028	0.0002	0.0001	0.1052	
0.167	0.6977	0.003	0.0016	0.0001	0.1088	
0.4653	0.5097	0.0049	0.0012	0.0001	0.0617	
0.8418	0.1461	0.0015	0.0007	0.0001	0.0176	
0.3307	0.6191	0.0038	0.0007	0.0001	0.0774	
0.4812	0.4895	0.0049	0.0006	0.0001	0.0575	
0.9994	0	0.0001	0	0.0001	0	

System: acetonitrile + hexane + water; phases: Liquid mixture 1, Liquid mixture 2
Fixed: Temperature, K = 301
Fixed: Pressure, kPa = 101.3
Property: Mole fraction of acetonitrile (Liquid mixture 1); method: Chromatography
Property: Mole fraction of hexane (Liquid mixture 2); method: Chromatography
Property: Mole fraction of acetonitrile (Liquid mixture 2); method: Chromatography
Mole fraction of hexane	Mole fraction of acetonitrile	uncertainty	Mole fraction of hexane	uncertainty	Mole fraction of acetonitrile	uncertainty
0.9663	0.0324	0.0003	0.0001	0.0001	0.2801	
0.9672	0.0315	0.0003	0.0002	0.0001	0.1384	
0.9756	0.0235	0.0002	0.0108	0.0001	0.4954	
0.9675	0.0315	0.0003	0.0107	0.0001	0.4219	
0.9725	0.0253	0.0003	0.0162	0.0002	0.5074	
0.9688	0.0296	0.0003	0.0224	0.0002	0.5703	
0.9371	0.0614	0.0006	0.0354	0.0004	0.7149	
0.9533	0.0451	0.0005	0.0465	0.0005	0.7134	
0.9994	0	0.0001	0	0.0001	0	
0.8815	0.1185	0.0012	0.1205	0.0012	0.8795	
0.9035	0.0965	0.001	0.1286	0.0013	0.8714	
0.9724	0.0276	0.0003	0.1332	0.0013	0.8668	

System: hexane + 1,4-dioxane + water; phases: Liquid mixture 2, Liquid mixture 1
Fixed: Temperature, K = 301
Fixed: Pressure, kPa = 101.3
Property: Mole fraction of hexane (Liquid mixture 2); method: Chromatography
Property: Mole fraction of 1,4-dioxane (Liquid mixture 1); method: Chromatography
Property: Mole fraction of hexane (Liquid mixture 1); method: Chromatography
Mole fraction of 1,4-dioxane	Mole fraction of hexane	uncertainty	Mole fraction of 1,4-dioxane	uncertainty	Mole fraction of hexane	uncertainty
0.1459	0.0007	0.0001	0.248	0.0025	0.7463	
0.1388	0.0007	0.0001	0.2429	0.0024	0.7522	
0.101	0.0005	0.0001	0.153	0.0015	0.8442	
0.2322	0.0011	0.0001	0.3818	0.0038	0.6064	
0.0456	0	0.0001	0.0871	0.0009	0.9112	
0.0265	0	0.0001	0.0473	0.0005	0.9513	
0.2726	0.0021	0.0001	0.47	0.0047	0.5137	
0.327	0.0042	0.0001	0.6114	0.0039	0.3369	
0.4133	0.0083	0.0001	0.6691	0.0033	0.224	
0.5658	0.0356	0.0004	0.6194	0.0038	0.0754	
0	0.0001	0.0001	0	0.0001	0.9994	

System: diethyl ether + 1,4-dioxane + water; phases: Liquid mixture 2, Liquid mixture 1
Fixed: Temperature, K = 301
Fixed: Pressure, kPa = 101.3
Property: Mole fraction of diethyl ether (Liquid mixture 2); method: Chromatography
Property: Mole fraction of 1,4-dioxane (Liquid mixture 1); method: Chromatography
Property: Mole fraction of diethyl ether (Liquid mixture 1); method: Chromatography
Mole fraction of 1,4-dioxane	Mole fraction of diethyl ether	uncertainty	Mole fraction of 1,4-dioxane	uncertainty	Mole fraction of diethyl ether	uncertainty
0.0502	0.0202	0.0002	0.2221	0.0022	0.705	
0.0468	0.0173	0.0002	0.2219	0.0022	0.7075	
0.0468	0.0327	0.0003	0.1461	0.0015	0.791	
0.3189	0.0665	0.0007	0.4369	0.0044	0.1624	
0.2479	0.0579	0.0006	0.477	0.0048	0.2828	
0.2123	0.0495	0.0005	0.4584	0.0046	0.3451	
0.2123	0.0468	0.0005	0.4602	0.0046	0.3506	
0.0833	0.0269	0.0003	0.2607	0.0026	0.6603	
0.0589	0.0227	0.0002	0.2539	0.0025	0.694	
0.0317	0.0271	0.0003	0.0759	0.0008	0.8611	
0.0143	0.0278	0.0003	0.0041	0.0001	0.9427	
0	0.014	0.0002	0	0.0001	0.9432	
