Measured thermophysical data. Ternary liquid-liquid equilibria of bis(trifluoromethylsulfonyl)-amide based ionic liquids + methanol + heptane
Source: Fluid Phase Equilib., 2012, 10.1016/j.fluid.2012.01.018
Compound 1: 4-(2-methoxyethyl)-4-methylmorpholinium bis(trifluoromethylsulfonyl)amide, C10H18F6N2O6S2, InChI=1S/C8H18NO2.C2F6NO4S2/c1-9(3-6-10-2)4-7-11-8-5-9;3-1(4,5)14(10,11)9-15(12,13)2(6,7)8/h3-8H2,1-2H3;/q+1;-1, purity 99.5%
Compound 2: 1-(2-methoxyethyl)-1-methylpiperidinium bis(trifluoromethylsulfonyl)imide, C11H20F6N2O5S2, InChI=1S/C9H20NO.C2F6NO4S2/c1-10(8-9-11-2)6-4-3-5-7-10;3-1(4,5)14(10,11)9-15(12,13)2(6,7)8/h3-9H2,1-2H3;/q+1;-1, purity 99.5%
Compound 3: 1-(2-methoxyethyl)-1-methylpyrrolidinium bis((trifluoromethyl)sulfonyl)amide, C10H18F6N2O5S2, InChI=1S/C8H18NO.C2F6NO4S2/c1-9(7-8-10-2)5-3-4-6-9;3-1(4,5)14(10,11)9-15(12,13)2(6,7)8/h3-8H2,1-2H3;/q+1;-1, purity 99.5%
Compound 4: methanol, CH4O, InChI=1S/CH4O/c1-2/h2H,1H3, purity 99.9%
Compound 5: heptane, C7H16, InChI=1S/C7H16/c1-3-5-7-6-4-2/h3-7H2,1-2H3, purity 99%

System: 4-(2-methoxyethyl)-4-methylmorpholinium bis(trifluoromethylsulfonyl)amide; phases: Liquid
Fixed: Pressure, kPa = 101.325
Property: Viscosity, Pa*s (Liquid); method: Falling or rolling sphere viscometry
Temperature, K	Viscosity, Pa*s	uncertainty
298.15	0.3061	0.0187
308.15	0.1559	0.0064
318.15	0.09068	0.00252
328.15	0.05723	0.00121
338.15	0.03869	0.00084
348.15	0.02754	0.0006

System: 1-(2-methoxyethyl)-1-methylpiperidinium bis(trifluoromethylsulfonyl)imide; phases: Liquid
Fixed: Pressure, kPa = 101.325
Property: Viscosity, Pa*s (Liquid); method: Falling or rolling sphere viscometry
Temperature, K	Viscosity, Pa*s	uncertainty
298.15	0.1026	0.0031
308.15	0.06322	0.00139
318.15	0.04192	0.00091
328.15	0.02943	0.00064
338.15	0.02153	0.00046
348.15	0.01632	0.00035

System: 1-(2-methoxyethyl)-1-methylpyrrolidinium bis((trifluoromethyl)sulfonyl)amide; phases: Liquid
Fixed: Pressure, kPa = 101.325
Property: Viscosity, Pa*s (Liquid); method: Falling or rolling sphere viscometry
Temperature, K	Viscosity, Pa*s	uncertainty
298.15	0.05452	0.00112
308.15	0.03694	0.0008
318.15	0.02641	0.00057
328.15	0.01823	0.00039
338.15	0.01406	0.0003
348.15	0.01107	0.00024

System: methanol + heptane + 4-(2-methoxyethyl)-4-methylmorpholinium bis(trifluoromethylsulfonyl)amide; phases: Liquid mixture 1, Liquid mixture 2
Fixed: Temperature, K = 298.15
Fixed: Pressure, kPa = 101.3
Property: Mole fraction of 4-(2-methoxyethyl)-4-methylmorpholinium bis(trifluoromethylsulfonyl)amide (Liquid mixture 1); method: Chromatography
Property: Mole fraction of methanol (Liquid mixture 2); method: Chromatography
Property: Mole fraction of 4-(2-methoxyethyl)-4-methylmorpholinium bis(trifluoromethylsulfonyl)amide (Liquid mixture 2); method: Chromatography
Mole fraction of methanol	Mole fraction of 4-(2-methoxyethyl)-4-methylmorpholinium bis(trifluoromethylsulfonyl)amide	uncertainty	Mole fraction of methanol	uncertainty	Mole fraction of 4-(2-methoxyethyl)-4-methylmorpholinium bis(trifluoromethylsulfonyl)amide	uncertainty
0	0		0		0.984	
0.053	0		0.853	0.005	0.125	
0.075	0		0.887	0.005	0.083	
0.103	0		0.918	0.004	0.035	
0.133	0		0.915	0.004	0.009	
0.152	0		0.899	0.004	0	
0.007	0		0.061	0.006	0.923	
0.008	0		0.136	0.006	0.849	
0.009	0		0.407	0.006	0.58	
0.018	0		0.569	0.006	0.416	
0.027	0		0.657	0.006	0.328	
0.042	0		0.757	0.006	0.225	
0.049	0		0.831	0.004	0.149	
0.05	0		0.839	0.006	0.14	

System: methanol + heptane + 1-(2-methoxyethyl)-1-methylpiperidinium bis(trifluoromethylsulfonyl)imide; phases: Liquid mixture 2, Liquid mixture 1
Fixed: Temperature, K = 298.15
Fixed: Pressure, kPa = 101.3
Property: Mole fraction of 1-(2-methoxyethyl)-1-methylpiperidinium bis(trifluoromethylsulfonyl)imide (Liquid mixture 2); method: Chromatography
Property: Mole fraction of 1-(2-methoxyethyl)-1-methylpiperidinium bis(trifluoromethylsulfonyl)imide (Liquid mixture 1); method: Chromatography
Property: Mole fraction of methanol (Liquid mixture 1); method: Chromatography
Mole fraction of methanol	Mole fraction of 1-(2-methoxyethyl)-1-methylpiperidinium bis(trifluoromethylsulfonyl)imide	uncertainty	Mole fraction of 1-(2-methoxyethyl)-1-methylpiperidinium bis(trifluoromethylsulfonyl)imide	uncertainty	Mole fraction of methanol	uncertainty
0	0.961	0.004	0		0	
0.497	0.472	0.007	0		0.014	
0.609	0.36	0.006	0		0.022	
0.688	0.282	0.006	0		0.03	
0.784	0.184	0.006	0		0.049	
0.855	0.11	0.004	0		0.063	
0.862	0.102	0.004	0		0.068	
0.9	0.059	0.004	0		0.077	
0.915	0.026	0.004	0		0.114	
0.909	0.009	0.009	0		0.139	
0.899	0		0		0.152	
0.055	0.907	0.006	0		0.008	
0.168	0.795	0.006	0		0.01	
0.382	0.583	0.006	0		0.011	

System: methanol + heptane + 1-(2-methoxyethyl)-1-methylpyrrolidinium bis((trifluoromethyl)sulfonyl)amide; phases: Liquid mixture 1, Liquid mixture 2
Fixed: Temperature, K = 298.15
Fixed: Pressure, kPa = 101.3
Property: Mole fraction of 1-(2-methoxyethyl)-1-methylpyrrolidinium bis((trifluoromethyl)sulfonyl)amide (Liquid mixture 1); method: Chromatography
Property: Mole fraction of 1-(2-methoxyethyl)-1-methylpyrrolidinium bis((trifluoromethyl)sulfonyl)amide (Liquid mixture 2); method: Chromatography
Property: Mole fraction of methanol (Liquid mixture 2); method: Chromatography
Mole fraction of methanol	Mole fraction of 1-(2-methoxyethyl)-1-methylpyrrolidinium bis((trifluoromethyl)sulfonyl)amide	uncertainty	Mole fraction of 1-(2-methoxyethyl)-1-methylpyrrolidinium bis((trifluoromethyl)sulfonyl)amide	uncertainty	Mole fraction of methanol	uncertainty
0	0		0.951	0.004	0	
0.056	0		0.137	0.006	0.831	
0.08	0		0.071	0.004	0.892	
0.102	0		0.034	0.004	0.914	
0.137	0		0.012	0.004	0.911	
0.152	0		0		0.899	
0.007	0		0.917	0.004	0.04	
0.01	0		0.743	0.006	0.225	
0.014	0		0.603	0.006	0.37	
0.017	0		0.456	0.007	0.519	
0.025	0		0.352	0.006	0.622	
0.035	0		0.241	0.006	0.732	
0.047	0		0.166	0.004	0.805	
0.051	0		0.16	0.004	0.81	

System: methanol + heptane; phases: Liquid mixture 1, Liquid mixture 2
Property: Mole fraction of methanol (Liquid mixture 1); method: Chromatography
Pressure, kPa	Temperature, K	Mole fraction of methanol	uncertainty
101.3	298.15	0.152	0.004

System: methanol + heptane; phases: Liquid mixture 2, Liquid mixture 1
Property: Mole fraction of methanol (Liquid mixture 2); method: Chromatography
Temperature, K	Pressure, kPa	Mole fraction of methanol	uncertainty
298.15	101.3	0.899	0.004
