Measured thermophysical data. Volumetric, ultrasonic and spectroscopic (FT-IR) studies for the binary mixtures of imidazolium based ILs with 1,2-propanediol
Source: Fluid Phase Equilib., 2016, 10.1016/j.fluid.2015.12.007
Compound 1: 1-butyl-3-methylimidazolium tetrafluoroborate, C8H15BF4N2, InChI=1S/C8H15N2.BF4/c1-3-4-5-10-7-6-9(2)8-10;2-1(3,4)5/h6-8H,3-5H2,1-2H3;/q+1;-1, purity 99.8%
Compound 2: 1-butyl-3-methylimidazolium bis(trifluoromethylsulfonyl)imide, C10H15F6N3O4S2, InChI=1S/C8H15N2.C2F6NO4S2/c1-3-4-5-10-7-6-9(2)8-10;3-1(4,5)14(10,11)9-15(12,13)2(6,7)8/h6-8H,3-5H2,1-2H3;/q+1;-1, purity 99.8%
Compound 3: 1-butyl-3-methylimidazolium methyl sulfate, C9H18N2O4S, InChI=1S/C8H15N2.CH4O4S/c1-3-4-5-10-7-6-9(2)8-10;1-5-6(2,3)4/h6-8H,3-5H2,1-2H3;1H3,(H,2,3,4)/q+1;/p-1, purity 97%
Compound 4: 1,2-propanediol, C3H8O2, InChI=1S/C3H8O2/c1-3(5)2-4/h3-5H,2H2,1H3, purity 99.5%

System: 1-butyl-3-methylimidazolium tetrafluoroborate; phases: Liquid
Fixed: Pressure, kPa = 101.325
Property: Mass density, kg/m3 (Liquid); method: Vibrating tube method
Temperature, K	Mass density, kg/m3	uncertainty
293.15	1204.886	0.152
298.15	1201.33	0.151
303.15	1197.776	0.15
308.15	1194.228	0.149
313.15	1190.701	0.148
318.15	1187.18	0.147

System: 1-butyl-3-methylimidazolium tetrafluoroborate; phases: Liquid
Fixed: Pressure, kPa = 101.325
Property: Speed of sound, m/s (Liquid); method: Sing-around technique in a fixed-path interferometer
Temperature, K	Speed of sound, m/s	uncertainty
293.15	1576.59	1.24
298.15	1564.92	1.23
303.15	1553.64	1.23
308.15	1542.18	1.23
313.15	1530.94	1.23
318.15	1520.03	1.23

System: 1-butyl-3-methylimidazolium bis(trifluoromethylsulfonyl)imide; phases: Liquid
Fixed: Pressure, kPa = 101.325
Property: Mass density, kg/m3 (Liquid); method: Vibrating tube method
Temperature, K	Mass density, kg/m3	uncertainty
293.15	1440.805	0.228
298.15	1435.992	0.226
303.15	1431.199	0.224
308.15	1426.42	0.223
313.15	1421.658	0.221
318.15	1416.913	0.22

System: 1-butyl-3-methylimidazolium bis(trifluoromethylsulfonyl)imide; phases: Liquid
Fixed: Pressure, kPa = 101.325
Property: Speed of sound, m/s (Liquid); method: Sing-around technique in a fixed-path interferometer
Temperature, K	Speed of sound, m/s	uncertainty
293.15	1238.63	1.17
298.15	1227.37	1.17
303.15	1216.29	1.17
308.15	1205.42	1.17
313.15	1194.69	1.17
318.15	1184.1	1.16

System: 1-butyl-3-methylimidazolium methyl sulfate; phases: Liquid
Fixed: Pressure, kPa = 101.325
Property: Mass density, kg/m3 (Liquid); method: Vibrating tube method
Temperature, K	Mass density, kg/m3	uncertainty
293.15	1211.974	2.836
298.15	1208.612	2.82
303.15	1205.253	2.804
308.15	1201.892	2.787
313.15	1198.54	2.771
318.15	1195.2	2.755

System: 1-butyl-3-methylimidazolium methyl sulfate; phases: Liquid
Fixed: Pressure, kPa = 101.325
Property: Speed of sound, m/s (Liquid); method: Sing-around technique in a fixed-path interferometer
Temperature, K	Speed of sound, m/s	uncertainty
293.15	1669.8	3.25
298.15	1657.07	3.25
303.15	1644.59	3.24
308.15	1632.4	3.24
313.15	1620.42	3.24
318.15	1608.75	3.24

System: 1,2-propanediol; phases: Liquid
Fixed: Pressure, kPa = 101.325
Property: Mass density, kg/m3 (Liquid); method: Vibrating tube method
Temperature, K	Mass density, kg/m3	uncertainty
293.15	1035.727	0.135
298.15	1032.031	0.134
303.15	1028.309	0.133
308.15	1024.55	0.132
313.15	1020.752	0.13
318.15	1016.918	0.129

System: 1,2-propanediol; phases: Liquid
Fixed: Pressure, kPa = 101.325
Property: Speed of sound, m/s (Liquid); method: Sing-around technique in a fixed-path interferometer
Temperature, K	Speed of sound, m/s	uncertainty
293.15	1516.36	1.31
298.15	1505.91	1.31
303.15	1493.32	1.3
308.15	1480.05	1.3
313.15	1466.31	1.3
318.15	1452.73	1.3

System: 1,2-propanediol + 1-butyl-3-methylimidazolium bis(trifluoromethylsulfonyl)imide; phases: Liquid
Fixed: Pressure, kPa = 101
Property: Mass density, kg/m3 (Liquid); method: Vibrating tube method
Temperature, K	Mole fraction of 1-butyl-3-methylimidazolium bis(trifluoromethylsulfonyl)imide	Mass density, kg/m3	uncertainty
293.15	0.0606	1117.801	0.17
293.15	0.1118	1168.99	0.196
293.15	0.2003	1234.541	0.229
293.15	0.3056	1289.66	0.249
293.15	0.408	1328.411	0.256
293.15	0.4987	1355.108	0.256
293.15	0.602	1379.689	0.239
293.15	0.7047	1399.491	0.23
293.15	0.7945	1413.974	0.227
293.15	0.8971	1427.998	0.225
298.15	0.0606	1113.835	0.168
298.15	0.1118	1164.215	0.195
298.15	0.2003	1230.015	0.228
298.15	0.3056	1284.955	0.248
298.15	0.408	1323.625	0.255
298.15	0.4987	1350.284	0.255
298.15	0.602	1374.74	0.237
298.15	0.7047	1394.488	0.229
298.15	0.7945	1408.996	0.225
298.15	0.8971	1423.186	0.224
303.15	0.0606	1109.822	0.167
303.15	0.1118	1161.052	0.194
303.15	0.2003	1225.5	0.226
303.15	0.3056	1280.269	0.246
303.15	0.408	1318.852	0.253
303.15	0.4987	1345.266	0.253
303.15	0.602	1369.606	0.235
303.15	0.7047	1389.482	0.227
303.15	0.7945	1404.066	0.224
303.15	0.8971	1418.386	0.222
308.15	0.0606	1105.766	0.166
308.15	0.1118	1156.915	0.192
308.15	0.2003	1220.984	0.224
308.15	0.3056	1275.587	0.245
308.15	0.408	1314.085	0.252
308.15	0.4987	1340.462	0.251
308.15	0.602	1364.784	0.234
308.15	0.7047	1384.703	0.226
308.15	0.7945	1399.371	0.222
308.15	0.8971	1413.608	0.22
313.15	0.0606	1101.685	0.165
313.15	0.1118	1152.583	0.191
313.15	0.2003	1216.475	0.223
313.15	0.3056	1270.917	0.243
313.15	0.408	1309.332	0.25
313.15	0.4987	1335.675	0.249
313.15	0.602	1359.979	0.232
313.15	0.7047	1379.788	0.224
313.15	0.7945	1394.497	0.22
313.15	0.8971	1408.841	0.219
318.15	0.0606	1097.567	0.163
318.15	0.1118	1147.961	0.193
318.15	0.2003	1211.947	0.225
318.15	0.3056	1266.242	0.244
318.15	0.408	1304.585	0.249
318.15	0.4987	1330.884	0.249
318.15	0.602	1355.18	0.231
318.15	0.7047	1374.954	0.222
318.15	0.7945	1389.435	0.219
318.15	0.8971	1404.088	0.217

System: 1,2-propanediol + 1-butyl-3-methylimidazolium bis(trifluoromethylsulfonyl)imide; phases: Liquid
Fixed: Pressure, kPa = 101
Property: Speed of sound, m/s (Liquid); method: Sing-around technique in a fixed-path interferometer
Temperature, K	Mole fraction of 1-butyl-3-methylimidazolium bis(trifluoromethylsulfonyl)imide	Speed of sound, m/s	uncertainty
293.15	0.0606	1446.51	1.29
293.15	0.1118	1406.44	1.28
293.15	0.2003	1358.11	1.26
293.15	0.3056	1319.64	1.24
293.15	0.408	1294.84	1.23
293.15	0.4987	1279.54	1.22
293.15	0.602	1265.86	1.21
293.15	0.7047	1256.2	1.2
293.15	0.7945	1249.25	1.19
293.15	0.8971	1243.5	1.18
298.15	0.0606	1435.81	1.29
298.15	0.1118	1395.82	1.28
298.15	0.2003	1345.71	1.26
298.15	0.3056	1307.56	1.24
298.15	0.408	1283.06	1.23
298.15	0.4987	1268.01	1.22
298.15	0.602	1254.45	1.2
298.15	0.7047	1244.93	1.19
298.15	0.7945	1238	1.19
298.15	0.8971	1232.21	1.18
303.15	0.0606	1422.82	1.29
303.15	0.1118	1382.1	1.27
303.15	0.2003	1333.46	1.26
303.15	0.3056	1295.67	1.24
303.15	0.408	1271.44	1.23
303.15	0.4987	1256.59	1.21
303.15	0.602	1243.16	1.2
303.15	0.7047	1233.81	1.19
303.15	0.7945	1226.92	1.18
303.15	0.8971	1221.13	1.18
308.15	0.0606	1408.66	1.28
308.15	0.1118	1367.77	1.27
308.15	0.2003	1321.31	1.25
308.15	0.3056	1283.85	1.24
308.15	0.408	1259.93	1.22
308.15	0.4987	1245.26	1.21
308.15	0.602	1231.98	1.2
308.15	0.7047	1222.7	1.19
308.15	0.7945	1215.89	1.18
308.15	0.8971	1210.19	1.17
313.15	0.0606	1396.55	1.28
313.15	0.1118	1356.31	1.27
313.15	0.2003	1309.28	1.25
313.15	0.3056	1272.21	1.24
313.15	0.408	1248.56	1.22
313.15	0.4987	1234.07	1.21
313.15	0.602	1220.94	1.2
313.15	0.7047	1211.77	1.19
313.15	0.7945	1205.02	1.18
313.15	0.8971	1199.34	1.17
318.15	0.0606	1383.24	1.28
318.15	0.1118	1343.7	1.27
318.15	0.2003	1297.32	1.25
318.15	0.3056	1260.63	1.23
318.15	0.408	1237.26	1.22
318.15	0.4987	1223.08	1.21
318.15	0.602	1210.11	1.2
318.15	0.7047	1200.97	1.19
318.15	0.7945	1194.28	1.18
318.15	0.8971	1188.64	1.17

System: 1,2-propanediol + 1-butyl-3-methylimidazolium tetrafluoroborate; phases: Liquid
Fixed: Pressure, kPa = 101
Property: Mass density, kg/m3 (Liquid); method: Vibrating tube method
Temperature, K	Mole fraction of 1-butyl-3-methylimidazolium tetrafluoroborate	Mass density, kg/m3	uncertainty
293.15	0.0521	1056.413	0.14
293.15	0.1068	1074.402	0.145
293.15	0.2089	1101.545	0.154
293.15	0.3074	1122.267	0.16
293.15	0.4035	1139.05	0.163
293.15	0.5031	1153.799	0.166
293.15	0.5907	1164.947	0.158
293.15	0.7031	1177.418	0.154
293.15	0.8	1187.25	0.152
293.15	0.8992	1196.182	0.151
298.15	0.0521	1052.686	0.139
298.15	0.1068	1070.637	0.144
298.15	0.2089	1097.722	0.154
298.15	0.3074	1118.421	0.159
298.15	0.4035	1135.226	0.163
298.15	0.5031	1150.01	0.165
298.15	0.5907	1161.208	0.158
298.15	0.7031	1173.739	0.153
298.15	0.8	1183.617	0.151
298.15	0.8992	1192.572	0.15
303.15	0.0521	1048.937	0.138
303.15	0.1068	1066.853	0.143
303.15	0.2089	1093.889	0.152
303.15	0.3074	1114.58	0.158
303.15	0.4035	1131.414	0.162
303.15	0.5031	1146.235	0.164
303.15	0.5907	1157.478	0.157
303.15	0.7031	1170.073	0.152
303.15	0.8	1180	0.15
303.15	0.8992	1188.988	0.149
308.15	0.0521	1045.164	0.137
308.15	0.1068	1063.055	0.142
308.15	0.2089	1090.056	0.151
308.15	0.3074	1110.75	0.157
308.15	0.4035	1127.615	0.161
308.15	0.5031	1142.484	0.163
308.15	0.5907	1153.772	0.156
308.15	0.7031	1166.42	0.151
308.15	0.8	1176.395	0.149
308.15	0.8992	1185.418	0.148
313.15	0.0521	1041.361	0.135
313.15	0.1068	1059.237	0.141
313.15	0.2089	1086.222	0.15
313.15	0.3074	1106.925	0.156
313.15	0.4035	1123.825	0.16
313.15	0.5031	1138.74	0.162
313.15	0.5907	1150.077	0.155
313.15	0.7031	1162.788	0.15
313.15	0.8	1172.808	0.148
313.15	0.8992	1181.859	0.147
318.15	0.0521	1037.529	0.134
318.15	0.1068	1055.4	0.141
318.15	0.2089	1082.377	0.15
318.15	0.3074	1103.104	0.155
318.15	0.4035	1120.039	0.159
318.15	0.5031	1135.009	0.162
318.15	0.5907	1146.396	0.154
318.15	0.7031	1159.166	0.149
318.15	0.8	1169.228	0.147
318.15	0.8992	1178.316	0.146

System: 1,2-propanediol + 1-butyl-3-methylimidazolium tetrafluoroborate; phases: Liquid
Fixed: Pressure, kPa = 101
Property: Speed of sound, m/s (Liquid); method: Sing-around technique in a fixed-path interferometer
Temperature, K	Mole fraction of 1-butyl-3-methylimidazolium tetrafluoroborate	Speed of sound, m/s	uncertainty
293.15	0.0521	1527.92	1.3
293.15	0.1068	1532.65	1.3
293.15	0.2089	1538.45	1.29
293.15	0.3074	1543.9	1.28
293.15	0.4035	1549.83	1.27
293.15	0.5031	1554.64	1.27
293.15	0.5907	1559.03	1.26
293.15	0.7031	1564.59	1.25
293.15	0.8	1568.62	1.25
293.15	0.8992	1571.95	1.24
298.15	0.0521	1515.3	1.3
298.15	0.1068	1519.96	1.3
298.15	0.2089	1526.17	1.29
298.15	0.3074	1531.51	1.28
298.15	0.4035	1537.54	1.27
298.15	0.5031	1542.45	1.26
298.15	0.5907	1546.97	1.26
298.15	0.7031	1552.62	1.25
298.15	0.8	1556.71	1.24
298.15	0.8992	1560.49	1.24
303.15	0.0521	1502.23	1.3
303.15	0.1068	1507.02	1.29
303.15	0.2089	1513.81	1.29
303.15	0.3074	1519.22	1.28
303.15	0.4035	1525.3	1.27
303.15	0.5031	1530.3	1.26
303.15	0.5907	1534.99	1.25
303.15	0.7031	1540.74	1.25
303.15	0.8	1544.93	1.24
303.15	0.8992	1548.99	1.24
308.15	0.0521	1488.87	1.3
308.15	0.1068	1494.01	1.29
308.15	0.2089	1501.14	1.28
308.15	0.3074	1506.8	1.27
308.15	0.4035	1513.11	1.27
308.15	0.5031	1518.25	1.26
308.15	0.5907	1523.04	1.25
308.15	0.7031	1528.92	1.25
308.15	0.8	1533.22	1.24
308.15	0.8992	1537.46	1.23
313.15	0.0521	1475.58	1.3
313.15	0.1068	1481.14	1.29
313.15	0.2089	1488.55	1.28
313.15	0.3074	1494.49	1.27
313.15	0.4035	1501.01	1.26
313.15	0.5031	1506.25	1.26
313.15	0.5907	1511.14	1.25
313.15	0.7031	1519.42	1.24
313.15	0.8	1521.68	1.24
313.15	0.8992	1526.1	1.23
318.15	0.0521	1462.33	1.29
318.15	0.1068	1468.09	1.29
318.15	0.2089	1476	1.28
318.15	0.3074	1482.29	1.27
318.15	0.4035	1488.94	1.26
318.15	0.5031	1494.34	1.25
318.15	0.5907	1499.36	1.25
318.15	0.7031	1505.63	1.24
318.15	0.8	1510.28	1.24
318.15	0.8992	1515.02	1.23

System: 1,2-propanediol + 1-butyl-3-methylimidazolium methyl sulfate; phases: Liquid
Fixed: Pressure, kPa = 101
Property: Mass density, kg/m3 (Liquid); method: Vibrating tube method
Temperature, K	Mole fraction of 1-butyl-3-methylimidazolium methyl sulfate	Mass density, kg/m3	uncertainty
293.15	0.0574	1061.106	0.169
293.15	0.1155	1081.089	0.216
293.15	0.2102	1107.073	0.332
293.15	0.3133	1130.011	0.504
293.15	0.4151	1148.497	0.716
293.15	0.5038	1162.158	0.936
293.15	0.6026	1174.982	1.221
293.15	0.6996	1185.853	1.546
293.15	0.8095	1196.112	1.965
293.15	0.9003	1204.121	2.357
298.15	0.0574	1057.45	0.167
298.15	0.1155	1077.452	0.214
298.15	0.2102	1103.496	0.329
298.15	0.3133	1126.473	0.5
298.15	0.4151	1145.033	0.711
298.15	0.5038	1158.708	0.93
298.15	0.6026	1171.594	1.214
298.15	0.6996	1182.442	1.536
298.15	0.8095	1192.738	1.953
298.15	0.9003	1200.824	2.344
303.15	0.0574	1053.778	0.166
303.15	0.1155	1073.805	0.212
303.15	0.2102	1099.902	0.326
303.15	0.3133	1122.94	0.496
303.15	0.4151	1141.569	0.706
303.15	0.5038	1155.274	0.924
303.15	0.6026	1168.221	1.206
303.15	0.6996	1179.045	1.526
303.15	0.8095	1189.379	1.942
303.15	0.9003	1197.474	2.33
308.15	0.0574	1050.079	0.164
308.15	0.1155	1070.141	0.21
308.15	0.2102	1096.298	0.323
308.15	0.3133	1119.409	0.492
308.15	0.4151	1138.103	0.701
308.15	0.5038	1151.851	0.917
308.15	0.6026	1164.85	1.198
308.15	0.6996	1175.66	1.517
308.15	0.8095	1186.034	1.93
308.15	0.9003	1194.145	2.316
313.15	0.0574	1046.357	0.163
313.15	0.1155	1066.465	0.209
313.15	0.2102	1092.685	0.32
313.15	0.3133	1115.876	0.488
313.15	0.4151	1134.64	0.696
313.15	0.5038	1148.441	0.911
313.15	0.6026	1161.482	1.19
313.15	0.6996	1172.288	1.507
313.15	0.8095	1182.706	1.918
313.15	0.9003	1190.84	2.303
318.15	0.0574	1042.622	0.161
318.15	0.1155	1062.783	0.207
318.15	0.2102	1089.055	0.318
318.15	0.3133	1112.343	0.485
318.15	0.4151	1131.178	0.691
318.15	0.5038	1145.046	0.905
318.15	0.6026	1158.111	1.183
318.15	0.6996	1168.917	1.498
318.15	0.8095	1179.393	1.907
318.15	0.9003	1187.562	2.289

System: 1,2-propanediol + 1-butyl-3-methylimidazolium methyl sulfate; phases: Liquid
Fixed: Pressure, kPa = 101
Property: Speed of sound, m/s (Liquid); method: Sing-around technique in a fixed-path interferometer
Temperature, K	Mole fraction of 1-butyl-3-methylimidazolium methyl sulfate	Speed of sound, m/s	uncertainty
293.15	0.0574	1541.94	1.37
293.15	0.1155	1554.62	1.45
293.15	0.2102	1573.56	1.59
293.15	0.3133	1591.44	1.77
293.15	0.4151	1602.79	1.97
293.15	0.5038	1613.5	2.15
293.15	0.6026	1625.98	2.35
293.15	0.6996	1636.76	2.57
293.15	0.8095	1649.43	2.81
293.15	0.9003	1660.16	3.02
298.15	0.0574	1528.22	1.37
298.15	0.1155	1541.06	1.45
298.15	0.2102	1560.18	1.59
298.15	0.3133	1578.36	1.77
298.15	0.4151	1589.91	1.97
298.15	0.5038	1600.79	2.15
298.15	0.6026	1613.07	2.35
298.15	0.6996	1624.21	2.56
298.15	0.8095	1636.79	2.81
298.15	0.9003	1647.49	3.02
303.15	0.0574	1514.51	1.37
303.15	0.1155	1527.47	1.45
303.15	0.2102	1546.87	1.59
303.15	0.3133	1565.24	1.77
303.15	0.4151	1577.11	1.96
303.15	0.5038	1588.22	2.14
303.15	0.6026	1600.55	2.35
303.15	0.6996	1611.85	2.56
303.15	0.8095	1624.45	2.81
303.15	0.9003	1635.05	3.01
308.15	0.0574	1500.79	1.37
308.15	0.1155	1513.94	1.44
308.15	0.2102	1533.57	1.59
308.15	0.3133	1552.21	1.77
308.15	0.4151	1564.42	1.96
308.15	0.5038	1575.75	2.14
308.15	0.6026	1588.22	2.35
308.15	0.6996	1599.63	2.56
308.15	0.8095	1612.31	2.81
308.15	0.9003	1622.88	3.01
313.15	0.0574	1487.09	1.36
313.15	0.1155	1500.42	1.44
313.15	0.2102	1520.29	1.59
313.15	0.3133	1539.22	1.77
313.15	0.4151	1551.82	1.96
313.15	0.5038	1563.4	2.14
313.15	0.6026	1575.96	2.35
313.15	0.6996	1587.59	2.56
313.15	0.8095	1600.3	2.81
313.15	0.9003	1610.88	3.01
318.15	0.0574	1473.57	1.36
318.15	0.1155	1487.14	1.44
318.15	0.2102	1507.38	1.58
318.15	0.3133	1526.4	1.77
318.15	0.4151	1539.17	1.96
318.15	0.5038	1551.51	2.14
318.15	0.6026	1563.76	2.35
318.15	0.6996	1576.01	2.56
318.15	0.8095	1588.47	2.8
318.15	0.9003	1599	3.01
