Measured thermophysical data. Solubility of CO2in 1-butyl-3-methylimidazoliumdiethylene-glycolmonomethylethersulfate andtrihexyl(tetradecyl)phosphonium dodecyl-benzenesulfonate
Source: Fluid Phase Equilib., 2013, 10.1016/j.fluid.2013.06.016
Compound 1: carbon dioxide, CO2, InChI=1S/CO2/c2-1-3, purity 99.99%
Compound 2: 1-butyl-3-methylimidazolium 2-(2-methoxyethoxy)ethyl sulfate, C13H26N2O6S, InChI=1S/C8H15N2.C5H12O6S/c1-3-4-5-10-7-6-9(2)8-10;1-9-2-3-10-4-5-11-12(6,7)8/h6-8H,3-5H2,1-2H3;2-5H2,1H3,(H,6,7,8)/q+1;/p-1, purity 98%
Compound 3: trihexyl(tetradecyl)phosphonium dodecyl-benzenesulfonate, C50H97O3PS, InChI=1S/C32H68P.C18H30O3S/c1-5-9-13-17-18-19-20-21-22-23-24-28-32-33(29-25-14-10-6-2,30-26-15-11-7-3)31-27-16-12-8-4;1-2-3-4-5-6-7-8-9-10-11-12-17-13-15-18(16-14-17)22(19,20)21/h5-32H2,1-4H3;13-16H,2-12H2,1H3,(H,19,20,21)/q+1;/p-1, purity 98%

System: 1-butyl-3-methylimidazolium 2-(2-methoxyethoxy)ethyl sulfate; phases: Liquid
Fixed: Pressure, kPa = 101.325
Property: Mass density, kg/m3 (Liquid); method: Vibrating tube method
Temperature, K	Mass density, kg/m3	uncertainty
298.75	1175.4	1.2
301.75	1172.2	1.2
302.65	1171.6	1.2
304.55	1169.7	1.2
306.25	1167.9	1.2
308.45	1166.7	1.2
310.35	1165.3	1.2
312.35	1163.7	1.2
313.95	1162.6	1.2
316.05	1160.3	1.2
317.95	1158.4	1.2
319.75	1156.9	1.2
321.75	1154.7	1.2

System: trihexyl(tetradecyl)phosphonium dodecyl-benzenesulfonate; phases: Liquid
Fixed: Pressure, kPa = 101.325
Property: Mass density, kg/m3 (Liquid); method: Vibrating tube method
Temperature, K	Mass density, kg/m3	uncertainty
313.95	925.8	0.8
316.05	924.3	0.8
317.95	923.5	0.8
319.75	922.3	0.8
321.75	921.3	0.8
323.65	920.2	0.8
325.55	918.9	0.8
327.35	917.5	0.8
329.95	915.9	0.8
331.95	914.6	0.8
333.85	913.1	0.8
335.75	912.3	0.7

System: carbon dioxide + 1-butyl-3-methylimidazolium 2-(2-methoxyethoxy)ethyl sulfate; phases: Liquid, Gas
Property: Vapor or sublimation pressure, kPa (Liquid); method: High-pressure variable-volume visual cell
Temperature, K	Mole fraction of carbon dioxide	Vapor or sublimation pressure, kPa	uncertainty
313.15	0.2309	2260	180
323.15	0.2309	2750	210
333.15	0.2309	3160	250
343.15	0.2309	3580	280
353.15	0.2309	4070	320
363.15	0.2309	4500	350
313.15	0.253	2410	190
323.15	0.253	3010	230
333.15	0.253	3420	270
343.15	0.253	3940	310
353.15	0.253	4340	340
363.15	0.253	4760	370
313.15	0.3017	2480	190
323.15	0.3017	3130	240
333.15	0.3017	3780	290
343.15	0.3017	4320	330
353.15	0.3017	4870	380
363.15	0.3017	5510	430
313.15	0.4127	3980	310
323.15	0.4127	4980	390
333.15	0.4127	6080	470
343.15	0.4127	7310	570
353.15	0.4127	8490	660
363.15	0.4127	9820	760
313.15	0.4486	4830	370
323.15	0.4486	5600	430
333.15	0.4486	6410	500
343.15	0.4486	7650	590
353.15	0.4486	9770	760
363.15	0.4486	10900	840
313.15	0.4775	5440	420
323.15	0.4775	6250	480
333.15	0.4775	7260	560
343.15	0.4775	8300	640
353.15	0.4775	10200	790
363.15	0.4775	11800	910
313.15	0.5227	6330	490
323.15	0.5227	8000	620
333.15	0.5227	9340	720
343.15	0.5227	11010	850
353.15	0.5227	12470	970
363.15	0.5227	14190	1100
313.15	0.5802	7670	590
323.15	0.5802	9890	770
333.15	0.5802	12920	1000
343.15	0.5802	15730	1220
353.15	0.5802	18130	1400
363.15	0.5802	20810	1610
313.15	0.6316	9070	700
323.15	0.6316	12350	960
333.15	0.6316	15130	1170
343.15	0.6316	18920	1470
353.15	0.6316	22270	1730
313.15	0.642	9190	710
323.15	0.642	12800	990
333.15	0.642	15470	1200
343.15	0.642	19190	1490
353.15	0.642	23380	1810
313.15	0.6556	9990	770
323.15	0.6556	16980	1320
333.15	0.6556	21600	1670
343.15	0.6556	26480	2050
313.15	0.6638	11780	910
323.15	0.6638	20530	1590
313.15	0.6835	17400	1350

System: carbon dioxide + 1-butyl-3-methylimidazolium 2-(2-methoxyethoxy)ethyl sulfate; phases: Liquid, Gas
Property: Mole fraction of carbon dioxide (Liquid); method: High-pressure variable-volume visual cell
Temperature, K	Pressure, kPa	Mole fraction of carbon dioxide	uncertainty
313	4000	0.413	0.002

System: carbon dioxide + trihexyl(tetradecyl)phosphonium dodecyl-benzenesulfonate; phases: Liquid, Gas
Property: Vapor or sublimation pressure, kPa (Liquid); method: High-pressure variable-volume visual cell
Mole fraction of carbon dioxide	Temperature, K	Vapor or sublimation pressure, kPa	uncertainty
0.0971	303.15	390	30
0.0971	313.15	460	40
0.0971	323.15	570	50
0.0971	333.15	610	50
0.0971	343.15	640	50
0.0971	353.15	670	50
0.0971	363.15	710	60
0.1954	303.15	760	60
0.1954	313.15	970	80
0.1954	323.15	920	70
0.1954	333.15	1170	90
0.1954	343.15	1200	100
0.1954	353.15	1510	120
0.1954	363.15	1620	130
0.222	303.15	930	70
0.222	313.15	1130	90
0.222	323.15	1150	90
0.222	333.15	1330	100
0.222	343.15	1420	110
0.222	353.15	1640	130
0.222	363.15	1810	140
0.2716	303.15	1190	90
0.2716	313.15	1330	100
0.2716	323.15	1500	100
0.2716	333.15	1670	130
0.2716	343.15	1810	140
0.2716	353.15	1940	150
0.2716	363.15	2120	160
0.3217	303.15	1490	120
0.3217	313.15	1550	120
0.3217	323.15	1900	200
0.3217	333.15	2200	200
0.3217	343.15	2290	180
0.3217	353.15	2400	200
0.3217	363.15	2520	200
0.3644	303.15	1840	140
0.3644	313.15	2010	160
0.3644	323.15	2280	180
0.3644	333.15	2530	200
0.3644	343.15	2730	210
0.3644	353.15	2760	210
0.3644	363.15	3140	240
0.4064	303.15	2050	160
0.4064	313.15	2260	180
0.4064	323.15	2570	200
0.4064	333.15	2850	220
0.4064	343.15	3070	240
0.4064	353.15	3200	300
0.4064	363.15	3540	270
0.444	303.15	2350	180
0.444	313.15	2610	200
0.444	323.15	2980	230
0.444	333.15	3230	250
0.444	343.15	3440	270
0.444	353.15	3690	290
0.444	363.15	3950	310
0.4744	303.15	2640	200
0.4744	313.15	2860	220
0.4744	323.15	3250	250
0.4744	333.15	3610	280
0.4744	343.15	3850	300
0.4744	353.15	4130	320
0.4744	363.15	4390	340
0.5513	303.15	3200	300
0.5513	313.15	3500	300
0.5513	323.15	4000	300
0.5513	333.15	4350	340
0.5513	343.15	4800	400
0.5513	353.15	5270	410
0.5513	363.15	5640	440
0.5883	303.15	3510	270
0.5883	313.15	3790	290
0.5883	323.15	4390	340
0.5883	333.15	5020	390
0.5883	343.15	5530	430
0.5883	353.15	5960	460
0.5883	363.15	6400	500
0.6702	303.15	4250	330
0.6702	313.15	4920	380
0.6702	323.15	6040	470
0.6702	333.15	6650	520
0.6702	343.15	7290	560
0.6702	353.15	8030	620
0.6702	363.15	8760	680
0.7051	303.15	4620	360
0.7051	313.15	5570	430
0.7051	323.15	6620	510
0.7051	333.15	7470	580
0.7051	343.15	8320	640
0.7051	353.15	9180	710
0.7051	363.15	10070	780
0.7134	303.15	4750	370
0.7134	313.15	5840	450
0.7134	323.15	6850	530
0.7134	333.15	7600	600
0.7134	343.15	8510	660
0.7134	353.15	9400	700
0.7134	363.15	10290	800
0.7329	303.15	5060	390
0.7329	313.15	6100	500
0.7329	323.15	7150	550
0.7329	333.15	8200	600
0.7329	343.15	9120	710
0.7329	353.15	10080	780
0.7329	363.15	11040	860
0.7435	303.15	5430	420
0.7435	313.15	6360	490
0.7435	323.15	7490	580
0.7435	333.15	8410	650
0.7435	343.15	9350	720
0.7435	353.15	10340	800
0.7435	363.15	11370	880

System: carbon dioxide + trihexyl(tetradecyl)phosphonium dodecyl-benzenesulfonate; phases: Liquid, Gas
Property: Mole fraction of carbon dioxide (Liquid); method: High-pressure variable-volume visual cell
Temperature, K	Pressure, kPa	Mole fraction of carbon dioxide	uncertainty
313	4000	0.65	0.01
