Measured thermophysical data. Carbon dioxide solubility in triethylene glycol and aqueous solutions
Source: Fluid Phase Equilib., 2016, 10.1016/j.fluid.2016.03.007
Compound 1: triethylene glycol, C6H14O4, InChI=1S/C6H14O4/c7-1-3-9-5-6-10-4-2-8/h7-8H,1-6H2, purity 99.9%
Compound 2: carbon dioxide, CO2, InChI=1S/CO2/c2-1-3, purity 99.99%
Compound 3: water, H2O, InChI=1S/H2O/h1H2, purity 99.8%

System: triethylene glycol + carbon dioxide; phases: Liquid, Gas
Property: Mole fraction of carbon dioxide (Liquid); method: Flash method with gravimetric determination
Temperature, K	Pressure, kPa	Mole fraction of carbon dioxide	uncertainty
273.15	580	0.0749	0.0001
273.15	2630	0.3433	0.0008
283.15	420	0.0473	0.0001
283.15	1240	0.1256	0.0003
283.15	1810	0.2076	0.0005
283.15	2570	0.26	0.0006
298.15	600	0.0477	0.0001
298.15	1590	0.1152	0.0001
298.15	6490	0.4194	0.0003
343.15	620	0.0263	0.0001
343.15	2950	0.1105	0.0001
343.15	10070	0.3181	0.0005
343.15	17550	0.4029	0.0003
343.15	22390	0.4295	0.0002
343.15	28850	0.4582	0.0004
343.15	37400	0.4909	0.0004

System: triethylene glycol + carbon dioxide; phases: Liquid mixture 1, Liquid mixture 2
Property: Mole fraction of carbon dioxide (Liquid mixture 1); method: Flash method with gravimetric determination
Temperature, K	Pressure, kPa	Mole fraction of carbon dioxide	uncertainty
273.15	3690	0.4647	0.0282
273.15	4560	0.4584	0.0272
273.15	7320	0.4713	0.0279
273.15	14630	0.4919	0.0291
273.15	21670	0.5058	0.0297
283.15	4520	0.4477	0.0266
283.15	4960	0.4657	0.0276
283.15	8490	0.4653	0.0276
283.15	13700	0.4772	0.0283
283.15	19710	0.4894	0.0289
298.15	8830	0.4334	0.0259
298.15	15150	0.456	0.0272
298.15	19910	0.4677	0.0276

System: triethylene glycol + carbon dioxide + water; phases: Liquid, Gas
Property: Mole fraction of carbon dioxide (Liquid); method: Flash method with gravimetric determination
Solvent: Mass fraction of triethylene glycol	Temperature, K	Pressure, kPa	Mole fraction of carbon dioxide	uncertainty
0.9	263.15	1010	0.0618	0.0038
0.9	263.15	2730	0.1491	0.0088
0.9	263.15	2850	0.2011	0.0118
0.9	263.15	270	0.0206	0.0014
0.6	263.15	570	0.0124	0.0008
0.6	263.15	970	0.0171	0.0012
0.6	263.15	1590	0.0298	0.002
0.6	263.15	2710	0.0433	0.0028
0.4	263.15	300	0.0095	0.0008
0.4	263.15	610	0.0135	0.001
0.4	273.15	460	0.0101	0.0008
0.4	273.15	1520	0.0197	0.0014
0.4	273.15	2080	0.0252	0.0016
0.4	273.15	3530	0.0334	0.0022
0.965	297.04	4730	0.2396	0.0122
0.965	297.04	5610	0.2913	0.0148
0.9	298.15	720	0.0248	0.0016
0.9	298.15	1880	0.052	0.0032
0.9	298.15	220	0.0092	0.0006
0.6	298.15	600	0.0095	0.0008
0.6	298.15	2290	0.0228	0.0014
0.6	298.15	3920	0.0331	0.0022
0.4	298.15	660	0.0088	0.0006
0.4	298.15	2330	0.018	0.0012
0.4	298.15	6070	0.0316	0.0022
0.965	310.93	2230	0.093	0.0048
0.965	310.93	5880	0.2267	0.0114
0.965	322.04	2120	0.0679	0.0036
0.965	322.04	2770	0.0965	0.005
0.965	322.04	4920	0.1673	0.0084
0.965	322.04	6290	0.2096	0.0106
0.6	343.15	25100	0.0617	0.0038
0.6	343.15	30130	0.0657	0.004
0.9	343.15	920	0.018	0.0012
0.9	343.15	1570	0.0251	0.0016
0.9	343.15	2450	0.0422	0.0026
0.9	343.15	4520	0.0769	0.0046
0.9	343.15	7840	0.1254	0.0076
0.9	343.15	10850	0.1639	0.0098
0.9	343.15	24650	0.2327	0.0136
0.9	343.15	320	0.0092	0.0006
0.6	343.15	770	0.0086	0.0008
0.6	343.15	2110	0.0154	0.0012
0.6	343.15	5240	0.0298	0.002
0.6	343.15	12880	0.0512	0.0032
0.4	343.15	540	0.0067	0.0006
0.4	343.15	1210	0.0089	0.0008
0.4	343.15	3280	0.0154	0.0012
0.4	343.15	9800	0.0305	0.002
0.4	343.15	15510	0.0348	0.0022
0.4	343.15	20300	0.0381	0.0022
0.9	343.15	14010	0.1898	0.0112
0.9	343.15	19480	0.2132	0.0126
0.6	343.15	17790	0.0573	0.0036
0.6	343.15	25100	0.0617	0.0038
0.6	343.15	30130	0.0657	0.004
0.6	343.15	5240	0.0298	0.002
0.6	343.15	12880	0.0512	0.0032
0.6	343.15	17790	0.0573	0.0036

System: triethylene glycol + carbon dioxide + water; phases: Liquid mixture 1, Liquid mixture 2
Property: Mole fraction of carbon dioxide (Liquid mixture 1); method: Flash method with gravimetric determination
Solvent: Mass fraction of triethylene glycol	Temperature, K	Pressure, kPa	Mole fraction of carbon dioxide	uncertainty
0.9	263.15	7090	0.2139	0.0134
0.9	263.15	13000	0.2235	0.014
0.9	263.15	16330	0.2338	0.0147
0.9	298.15	8270	0.1849	0.0117
0.9	298.15	14890	0.2027	0.0127
0.9	298.15	20950	0.2114	0.0132
0.6	263.15	6850	0.0485	0.0033
0.6	263.15	20800	0.0504	0.0034
0.6	263.15	24370	0.0502	0.0034
0.4	263.15	2570	0.0213	0.0015
0.4	263.15	4070	0.0239	0.0017
0.4	263.15	12380	0.0243	0.0017
0.4	263.15	18260	0.024	0.0017
0.4	263.15	23920	0.0237	0.0017
0.4	273.15	6150	0.0355	0.0023
0.4	273.15	11820	0.0365	0.0025
0.4	273.15	16820	0.037	0.0025
0.4	273.15	23200	0.0383	0.0025
0.9	298.15	6550	0.1568	0.0094
0.4	298.15	10670	0.0337	0.0022
0.4	298.15	16240	0.0343	0.0022
0.4	298.15	21090	0.0354	0.0022
0.6	298.15	6510	0.0458	0.003
