Measured thermophysical data. Solid-liquid phase equilibria in the system K2SO4-MnSO4-H2O at 298 K and 313 K
Source: Fluid Phase Equilib., 2010, 10.1016/j.fluid.2009.12.008
Compound 1: potassium sulfate, K2O4S, InChI=1S/2K.H2O4S/c;;1-5(2,3)4/h;;(H2,1,2,3,4)/q2*+1;/p-2
Compound 2: manganese(II) sulfate, MnO4S, InChI=1S/Mn.H2O4S/c;1-5(2,3)4/h;(H2,1,2,3,4)/q+2;/p-2
Compound 3: water, H2O, InChI=1S/H2O/h1H2, purity 99.8%

System: water + potassium sulfate + manganese(II) sulfate; phases: Liquid, Crystal
Fixed: Pressure, kPa = 98
Property: Molality, mol/kg of potassium sulfate (Liquid); method: Titration Method
Temperature, K	Solvent: Molality, mol/kg of manganese(II) sulfate	Molality, mol/kg of potassium sulfate	uncertainty
298	4.2519	0	
298	4.4006	0.0989	
298	4.3605	0.1886	
298	4.3771	0.1983	
298	4.3098	0.2099	
298	4.1673	0.2384	
298	3.8909	0.3315	
298	3.559	0.4196	
298	3.058	0.5045	
298	2.5591	0.5894	
298	2.0163	0.703	
298	1.7008	0.7885	
298	1.4146	0.8793	
298	1.2591	0.8696	
298	0.603	0.7831	
298	0	0.6797	
313	4.0656	0	
313	4.06899	0.1026	
313	4.0656	0.1917	
313	4.0665	0.1992	
313	3.5077	0.3061	
313	3.1447	0.402	
313	2.9469	0.5259	
313	2.7532	0.5721	
313	2.7053	0.607	
313	2.6672	0.7057	
313	2.478	0.7542	
313	2.0825	0.8179	
313	1.4049	1.0237	
313	1.2171	1.0516	
313	0.6083	0.9532	
313	0.2097	0.881	
313	0	0.8618	

System: water + potassium sulfate + manganese(II) sulfate; phases: Liquid, Crystal
Fixed: Pressure, kPa = 98
Property: Molality, mol/kg of manganese(II) sulfate (Liquid); method: Titration
Temperature, K	Solvent: Molality, mol/kg of potassium sulfate	Molality, mol/kg of manganese(II) sulfate	uncertainty
298	0	4.2519	
298	0.0989	4.4006	
298	0.1886	4.3605	
298	0.1983	4.3771	
298	0.2099	4.3098	
298	0.2384	4.1673	
298	0.3315	3.8909	
298	0.4196	3.559	
298	0.5045	3.058	
298	0.5894	2.5591	
298	0.703	2.0163	
298	0.7885	1.7008	
298	0.8793	1.4146	
298	0.8696	1.2591	
298	0.7831	0.603	
298	0.6797	0	
313	0	4.0656	
313	0.1026	4.06899	
313	0.1917	4.0656	
313	0.1992	4.0665	
313	0.3061	3.5077	
313	0.402	3.1447	
313	0.5259	2.9469	
313	0.5721	2.7532	
313	0.607	2.7053	
313	0.7057	2.6672	
313	0.7542	2.478	
313	0.8179	2.0825	
313	1.0237	1.4049	
313	1.0516	1.2171	
313	0.9532	0.6083	
313	0.881	0.2097	
313	0.8618	0	

System: water + potassium sulfate; phases: Liquid, Crystal
Fixed: Pressure, kPa = 98
Property: Molality, mol/kg of potassium sulfate (Liquid); method: Titration Method
Temperature, K	Molality, mol/kg of potassium sulfate	uncertainty
298	0.6797	
313	0.8618	
