Measured thermophysical data. Synthesis and characterization of analogues of glycine-betaine ionic liquids and their use in the formation of aqueous biphasic systems
Source: Fluid Phase Equilib., 2019, 10.1016/j.fluid.2019.05.001
Compound 1: 1-(4-ethoxy-4-oxobutyl)-1-methylpyrrolidinium bromide, C11H22BrNO2, InChI=1S/C11H22NO2.BrH/c1-3-14-11(13)7-6-10-12(2)8-4-5-9-12;/h3-10H2,1-2H3;1H/q+1;/p-1, purity 98%
Compound 2: N,N,N-triethyl(4-ethoxy-4-oxobutyl)-1-aminium bromide, C12H26BrNO2, InChI=1S/C12H26NO2.BrH/c1-5-13(6-2,7-3)11-9-10-12(14)15-8-4;/h5-11H2,1-4H3;1H/q+1;/p-1, purity 98%
Compound 3: N,N,N-tri(n-propyl)(4-ethoxy-4-oxobutyl)-1-aminium bromide, C15H32BrNO2, InChI=1S/C15H32NO2.BrH/c1-5-11-16(12-6-2,13-7-3)14-9-10-15(17)18-8-4;/h5-14H2,1-4H3;1H/q+1;/p-1, purity 98%
Compound 4: N,N,N-tri(n-butyl)(4-ethoxy-4-oxobutyl)-1-aminium bromide, C18H38BrNO2, InChI=1S/C18H38NO2.BrH/c1-5-9-14-19(15-10-6-2,16-11-7-3)17-12-13-18(20)21-8-4;/h5-17H2,1-4H3;1H/q+1;/p-1, purity 98%
Compound 5: N,N,N-tri(n-butyl)(4-ethoxy-4-oxobutyl)-1-phosphonium bromide, C18H38BrO2P, InChI=1S/C18H38O2P.BrH/c1-5-9-14-21(15-10-6-2,16-11-7-3)17-12-13-18(19)20-8-4;/h5-17H2,1-4H3;1H/q+1;/p-1, purity 98%

System: 1-(4-ethoxy-4-oxobutyl)-1-methylpyrrolidinium bromide; phases: Crystal, Liquid, Air at 1 atmosphere
Property: Normal melting temperature, K (Crystal); method: DTA
Normal melting temperature, K	uncertainty
346.15	1

System: 1-(4-ethoxy-4-oxobutyl)-1-methylpyrrolidinium bromide; phases: Liquid, Glass
Property: Boiling temperature at pressure P, K (Liquid); method: DTA
Pressure, kPa	Boiling temperature at pressure P, K	uncertainty
101	242.15	1

System: N,N,N-triethyl(4-ethoxy-4-oxobutyl)-1-aminium bromide; phases: Crystal, Liquid, Air at 1 atmosphere
Property: Normal melting temperature, K (Crystal); method: DTA
Normal melting temperature, K	uncertainty
351.15	1

System: N,N,N-triethyl(4-ethoxy-4-oxobutyl)-1-aminium bromide; phases: Liquid, Glass
Property: Boiling temperature at pressure P, K (Liquid); method: DTA
Pressure, kPa	Boiling temperature at pressure P, K	uncertainty
101	252.15	1

System: N,N,N-tri(n-propyl)(4-ethoxy-4-oxobutyl)-1-aminium bromide; phases: Crystal, Liquid, Air at 1 atmosphere
Property: Normal melting temperature, K (Crystal); method: DTA
Normal melting temperature, K	uncertainty
352.15	1

System: N,N,N-tri(n-butyl)(4-ethoxy-4-oxobutyl)-1-aminium bromide; phases: Crystal, Liquid, Air at 1 atmosphere
Property: Normal melting temperature, K (Crystal); method: DTA
Normal melting temperature, K	uncertainty
363.15	1

System: N,N,N-tri(n-butyl)(4-ethoxy-4-oxobutyl)-1-aminium bromide; phases: Liquid, Glass
Property: Boiling temperature at pressure P, K (Liquid); method: DTA
Pressure, kPa	Boiling temperature at pressure P, K	uncertainty
101	233.15	1

System: N,N,N-tri(n-butyl)(4-ethoxy-4-oxobutyl)-1-phosphonium bromide; phases: Crystal, Liquid, Air at 1 atmosphere
Property: Normal melting temperature, K (Crystal); method: DTA
Normal melting temperature, K	uncertainty
361.15	1
