Measured thermophysical data. Solubility of norfloxacin and ofloxacin in supercritical carbon dioxide
Source: Fluid Phase Equilib., 2012, 10.1016/j.fluid.2012.06.023
Compound 1: carbon dioxide, CO2, InChI=1S/CO2/c2-1-3, purity 99.998%
Compound 2: ofloxacin, C18H20FN3O4, InChI=1S/C18H20FN3O4/c1-10-9-26-17-14-11(16(23)12(18(24)25)8-22(10)14)7-13(19)15(17)21-5-3-20(2)4-6-21/h7-8,10H,3-6,9H2,1-2H3,(H,24,25), purity 95%
Compound 3: norfloxacin, C16H18FN3O3, InChI=1S/C16H18FN3O3/c1-2-19-9-11(16(22)23)15(21)10-7-12(17)14(8-13(10)19)20-5-3-18-4-6-20/h7-9,18H,2-6H2,1H3,(H,22,23), purity 98%

System: carbon dioxide + norfloxacin; phases: Fluid (supercritical or subcritical phases), Crystal
Property: Mole fraction of norfloxacin (Fluid (supercritical or subcritical phases)); method: UV-Vis spectrophotomery
Temperature, K	Pressure, kPa	Mole fraction of norfloxacin	uncertainty
313.15	10040	1.36e-06	4.6e-07
313.15	15180	1.22e-06	1e-07
313.15	20210	1.38e-06	5e-07
313.15	25240	1.44e-06	4.4e-07
313.15	30030	1.85e-06	4.1e-07
318.15	9940	1.36e-06	1e-07
318.15	15050	2.35e-06	3.5e-07
318.15	20210	3.77e-06	7.7e-07
318.15	25410	7.97e-06	9.9e-07
318.15	30330	1.011e-05	1.14e-06
323.15	10050	1.67e-06	4.3e-07
323.15	15150	3.44e-06	5.3e-07
323.15	20070	1.119e-05	2.24e-06
323.15	25260	1.573e-05	1.5e-06
323.15	29890	2.44e-05	3.66e-06

System: carbon dioxide + ofloxacin; phases: Fluid (supercritical or subcritical phases), Crystal
Property: Mole fraction of ofloxacin (Fluid (supercritical or subcritical phases)); method: UV-Vis spectrophotometry
Temperature, K	Pressure, kPa	Mole fraction of ofloxacin	uncertainty
318.15	10110	4e-07	2e-07
318.15	15110	3.9e-07	1.4e-07
318.15	20160	6.3e-07	1.2e-07
318.15	25100	8e-07	2.7e-07
318.15	30080	8.8e-07	1.4e-07
323.15	10150	8.8e-07	4e-08
323.15	15040	1.05e-06	1e-07
323.15	20240	1.05e-06	7e-08
323.15	25070	1.17e-06	1.3e-07
323.15	30060	1.34e-06	2.7e-07
