Measured thermophysical data. Thermodynamics of isomeric hexynes +MTBE binary mixtures
Source: Fluid Phase Equilib., 2006, 10.1016/j.fluid.2006.08.007
Compound 1: 1-hexyne, C6H10, InChI=1S/C6H10/c1-3-5-6-4-2/h1H,4-6H2,2H3
Compound 2: 2-methoxy-2-methylpropane, C5H12O, InChI=1S/C5H12O/c1-5(2,3)6-4/h1-4H3
Compound 3: 2-hexyne, C6H10, InChI=1S/C6H10/c1-3-5-6-4-2/h3,5H2,1-2H3

System: 1-hexyne; phases: Liquid, Gas
Property: Vapor or sublimation pressure, kPa (Liquid); method: Closed cell (Static) method
Temperature, K	Vapor or sublimation pressure, kPa	uncertainty
263.15	2.721	0.013
273.15	4.893	0.017
283.15	8.363	0.023
293.15	13.673	0.032
298.15	17.224	0.039
303.15	21.498	0.047
313.15	32.652	0.066
323.15	48.089	0.093
333.15	68.902	0.129
343.15	96.317	0.173

System: 2-methoxy-2-methylpropane; phases: Liquid, Gas
Property: Vapor or sublimation pressure, kPa (Liquid); method: Closed cell (Static) method
Temperature, K	Vapor or sublimation pressure, kPa	uncertainty
263.15	6.252	0.02
273.15	10.641	0.027
283.15	17.31	0.039
293.15	27.064	0.056
298.15	33.392	0.068
303.15	40.862	0.082
313.15	59.808	0.114
323.15	85.152	0.157
333.15	118.271	0.214
343.15	160.66	0.282

System: 2-hexyne; phases: Liquid, Gas
Property: Vapor or sublimation pressure, kPa (Liquid); method: Closed cell (Static) method
Temperature, K	Vapor or sublimation pressure, kPa	uncertainty
263.15	1.393	0.01
273.15	2.608	0.013
283.15	4.631	0.016
293.15	7.845	0.023
298.15	10.051	0.027
303.15	12.753	0.033
313.15	19.986	0.047
323.15	30.316	0.067
333.15	44.662	0.095
343.15	64.092	0.131

System: 1-hexyne + 2-methoxy-2-methylpropane; phases: Liquid
Fixed: Pressure, kPa = 101
Fixed: Temperature, K = 298.15
Property: Excess molar enthalpy (molar enthalpy of mixing), kJ/mol (Liquid); method: Flow calorimetry
Mole fraction of 1-hexyne	Excess molar enthalpy (molar enthalpy of mixing), kJ/mol	uncertainty
0.1111	-0.139	0.01
0.2113	-0.268	0.01
0.3134	-0.37	0.011
0.389	-0.42	0.011
0.4482	-0.436	0.011
0.5204	-0.425	0.011
0.6206	-0.377	0.011
0.7263	-0.298	0.01
0.8179	-0.22	0.01
0.9011	-0.142	0.01

System: 1-hexyne + 2-methoxy-2-methylpropane; phases: Liquid, Gas
Property: Vapor or sublimation pressure, kPa (Liquid); method: Closed cell (Static) method
Temperature, K	Mole fraction of 1-hexyne	Vapor or sublimation pressure, kPa	uncertainty
263.15	0.1567	5.589	0.039
263.15	0.267	5.141	0.036
263.15	0.3528	4.777	0.035
263.15	0.4802	4.307	0.032
263.15	0.5725	3.957	0.031
263.15	0.6692	3.644	0.029
263.15	0.7626	3.334	0.028
263.15	0.8653	3.045	0.026
273.15	0.1567	9.572	0.058
273.15	0.267	8.85	0.054
273.15	0.3528	8.272	0.051
273.15	0.4802	7.496	0.048
273.15	0.5725	6.951	0.045
273.15	0.6692	6.429	0.042
273.15	0.7626	5.92	0.04
273.15	0.8653	5.443	0.038
283.15	0.1567	15.663	0.088
283.15	0.267	14.55	0.083
283.15	0.3528	13.667	0.078
283.15	0.4802	12.45	0.072
283.15	0.5725	11.631	0.068
283.15	0.6692	10.802	0.064
283.15	0.7626	10.003	0.06
283.15	0.8653	9.252	0.056
293.15	0.1567	24.62	0.133
293.15	0.267	22.97	0.125
293.15	0.3528	21.669	0.118
293.15	0.4802	19.842	0.109
293.15	0.5725	18.647	0.103
293.15	0.6692	17.386	0.097
293.15	0.7626	16.189	0.091
293.15	0.8653	15.05	0.085
298.15	0.1567	30.453	0.163
298.15	0.267	28.469	0.153
298.15	0.3528	26.908	0.145
298.15	0.4802	24.704	0.134
298.15	0.5725	23.274	0.127
298.15	0.6692	21.74	0.119
298.15	0.7626	20.297	0.112
298.15	0.8653	18.913	0.105
303.15	0.1567	37.355	0.198
303.15	0.267	34.99	0.186
303.15	0.3528	33.129	0.177
303.15	0.4802	30.494	0.163
303.15	0.5725	28.795	0.155
303.15	0.6692	26.946	0.145
303.15	0.7626	25.22	0.137
303.15	0.8653	23.553	0.128
313.15	0.1567	54.924	0.286
313.15	0.267	51.639	0.269
313.15	0.3528	49.045	0.256
313.15	0.4802	45.375	0.238
313.15	0.5725	43.01	0.226
313.15	0.6692	40.391	0.213
313.15	0.7626	37.984	0.201
313.15	0.8653	35.618	0.189
323.15	0.1567	78.527	0.405
323.15	0.267	74.086	0.382
323.15	0.3528	70.555	0.364
323.15	0.4802	65.602	0.339
323.15	0.5725	62.37	0.323
323.15	0.6692	58.768	0.305
323.15	0.7626	55.515	0.289
323.15	0.8653	52.249	0.272
333.15	0.1567	109.496	0.56
333.15	0.267	103.64	0.531
333.15	0.3528	98.928	0.507
333.15	0.4802	92.433	0.474
333.15	0.5725	88.087	0.452
333.15	0.6692	83.265	0.428
333.15	0.7626	78.988	0.407
333.15	0.8653	74.585	0.385
343.15	0.1567	149.281	0.759
343.15	0.267	141.726	0.721
343.15	0.3528	135.553	0.69
343.15	0.4802	127.258	0.648
343.15	0.5725	121.494	0.619
343.15	0.6692	115.191	0.588
343.15	0.7626	109.509	0.559
343.15	0.8653	103.902	0.531

System: 2-hexyne + 2-methoxy-2-methylpropane; phases: Liquid
Fixed: Pressure, kPa = 101
Fixed: Temperature, K = 298.15
Property: Excess molar enthalpy (molar enthalpy of mixing), kJ/mol (Liquid); method: Flow calorimetry
Mole fraction of 2-hexyne	Excess molar enthalpy (molar enthalpy of mixing), kJ/mol	uncertainty
0.1527	-0.06	0.01
0.2965	-0.11	0.01
0.4852	-0.15	0.01
0.6624	-0.147	0.01
0.7708	-0.12	0.01
0.8513	-0.085	0.01

System: 2-hexyne + 2-methoxy-2-methylpropane; phases: Liquid, Gas
Property: Vapor or sublimation pressure, kPa (Liquid); method: Closed cell (Static) method
Mole fraction of 2-hexyne	Temperature, K	Vapor or sublimation pressure, kPa	uncertainty
0.3602	273.15	7.845	0.051
0.3602	298.15	25.304	0.14
0.3602	333.15	92.533	0.48
0.4283	273.15	7.298	0.048
0.4283	298.15	23.723	0.132
0.4283	333.15	87.517	0.456
0.5481	273.15	6.341	0.044
0.5481	298.15	20.9	0.118
0.5481	333.15	78.576	0.413
0.6557	273.15	5.455	0.039
0.6557	298.15	18.324	0.106
0.6557	333.15	70.4	0.373
0.8861	273.15	3.519	0.03
0.8861	298.15	12.691	0.077
0.8861	333.15	52.795	0.286

System: 2-hexyne + 2-methoxy-2-methylpropane; phases: Liquid, Gas
Property: Vapor or sublimation pressure, kPa (Liquid); method: Closed cell (Static) method
Mole fraction of 2-hexyne	Temperature, K	Vapor or sublimation pressure, kPa	uncertainty
0.3602	263.59	4.667	0.034
0.3602	273.37	7.924	0.05
0.3602	283.27	13.005	0.076
0.3602	293.25	20.507	0.114
0.3602	293.27	20.513	0.114
0.3602	298.2	25.374	0.139
0.3602	298.22	25.373	0.139
0.3602	303.22	31.232	0.169
0.3602	313.2	46.043	0.245
0.3602	323.24	66.115	0.347
0.3602	333.21	92.598	0.483
0.3602	343.2	126.99	0.657
0.3602	333.21	92.599	0.483
0.3602	343.2	126.992	0.657
0.3602	343.2	126.997	0.657
0.3602	343.2	126.998	0.657
0.4283	263.56	4.32	0.033
0.4283	273.34	7.376	0.048
0.4283	283.24	12.082	0.071
0.4283	293.22	19.193	0.108
0.4283	303.22	29.315	0.16
0.4283	313.2	43.381	0.232
0.4283	323.21	62.418	0.33
0.4283	333.21	87.588	0.459
0.4283	343.2	120.529	0.626
0.4283	313.2	43.382	0.232
0.4283	323.21	62.419	0.33
0.4283	333.21	87.6	0.459
0.5481	263.53	3.729	0.03
0.5481	273.34	6.411	0.043
0.5481	283.24	10.55	0.064
0.5481	293.22	16.855	0.096
0.5481	298.2	20.967	0.118
0.5481	303.2	25.89	0.143
0.5481	313.2	38.507	0.208
0.5481	323.24	55.772	0.297
0.5481	333.21	78.615	0.415
0.5481	343.18	108.561	0.569
0.5481	313.2	38.508	0.208
0.5481	343.18	108.57	0.569
0.6557	263.53	3.182	0.027
0.6557	273.37	5.521	0.039
0.6557	283.27	9.166	0.057
0.6557	293.22	14.725	0.086
0.6557	298.22	18.391	0.105
0.6557	303.22	22.777	0.128
0.6557	313.2	34.154	0.187
0.6557	323.21	49.677	0.267
0.6557	333.21	70.487	0.376
0.6557	343.2	97.824	0.517
0.6557	323.21	49.679	0.267
0.6557	333.21	70.5	0.376
0.6557	343.2	97.854	0.517
0.8861	263.53	1.988	0.022
0.8861	273.42	3.577	0.029
0.8861	283.27	6.109	0.042
0.8861	293.25	10.049	0.062
0.8861	298.25	12.759	0.076
0.8861	303.27	16.031	0.094
0.8861	313.22	24.538	0.138
0.8861	323.24	36.533	0.202
0.8861	333.21	52.802	0.288
0.8861	343.18	74.68	0.402
0.8861	313.22	24.54	0.138
0.8861	333.21	52.806	0.288
0.8861	343.18	74.712	0.402
0.8861	343.18	74.815	0.403
0.8861	343.18	74.885	0.403
