Measured thermophysical data. The isobaric vapor liquid equilibria of ethyl acetate p acetonitrile p bis(trifluoromethylsulfonyl)imide-based ionic liquids at 101.3 kPa
Source: Fluid Phase Equilib., 2016, 10.1016/j.fluid.2016.06.022
Compound 1: ethyl acetate, C4H8O2, InChI=1S/C4H8O2/c1-3-6-4(2)5/h3H2,1-2H3, purity 99.5%
Compound 2: acetonitrile, C2H3N, InChI=1S/C2H3N/c1-2-3/h1H3, purity 99.8%
Compound 3: 1-ethyl-3-methylimidazolium bis((trifluoromethyl)sulfonyl)imide, C8H11F6N3O4S2, InChI=1S/C6H11N2.C2F6NO4S2/c1-3-8-5-4-7(2)6-8;3-1(4,5)14(10,11)9-15(12,13)2(6,7)8/h4-6H,3H2,1-2H3;/q+1;-1, purity 98%
Compound 4: 1-hexyl-3-methylimidazolium bis[(trifluoromethyl)sulfonyl]imide, C12H19F6N3O4S2, InChI=1S/C10H19N2.C2F6NO4S2/c1-3-4-5-6-7-12-9-8-11(2)10-12;3-1(4,5)14(10,11)9-15(12,13)2(6,7)8/h8-10H,3-7H2,1-2H3;/q+1;-1, purity 98%

System: ethyl acetate; phases: Liquid, Gas
Property: Vapor or sublimation pressure, kPa (Liquid); method: Ebulliometric method (Recirculating still)
Temperature, K	Vapor or sublimation pressure, kPa	uncertainty
350.15	101.3	1.1143

System: acetonitrile; phases: Liquid, Gas
Property: Vapor or sublimation pressure, kPa (Liquid); method: Ebulliometric method (Recirculating still)
Temperature, K	Vapor or sublimation pressure, kPa	uncertainty
354.65	101.3	1.1143

System: acetonitrile + ethyl acetate; phases: Liquid, Gas
Fixed: Pressure, kPa = 101.3
Property: Boiling temperature at pressure P, K (Liquid); method: Ebulliometric method (Recirculating still)
Mole fraction of ethyl acetate	Boiling temperature at pressure P, K	uncertainty
0	354.65	0.22
0.079	352.45	0.23
0.186	350.65	0.22
0.289	349.95	0.22
0.388	349.15	0.22
0.49	348.75	0.22
0.547	348.55	0.22
0.596	348.45	0.22
0.697	348.45	0.22
0.862	348.85	0.22
0.902	349.15	0.22
1	350.15	0.22

System: acetonitrile + ethyl acetate; phases: Gas, Liquid
Fixed: Pressure, kPa = 101.3
Property: Mole fraction of ethyl acetate (Gas); method: Chromatography
Mole fraction of ethyl acetate	Mole fraction of ethyl acetate	uncertainty
0	0	
0.079	0.125	0.007
0.186	0.263	0.006
0.289	0.36	0.006
0.388	0.446	0.007
0.49	0.53	0.007
0.547	0.577	0.006
0.596	0.614	0.006
0.697	0.696	0.006
0.862	0.843	0.006
0.902	0.886	0.006
1	1	

System: acetonitrile + ethyl acetate + 1-ethyl-3-methylimidazolium bis((trifluoromethyl)sulfonyl)imide; phases: Liquid, Gas
Fixed: Pressure, kPa = 101.3
Property: Boiling temperature at pressure P, K (Liquid); method: Ebulliometric method (Recirculating still)
Mole fraction of ethyl acetate	Mole fraction of acetonitrile	Boiling temperature at pressure P, K	uncertainty
0	0.95	357.25	0.38
0.085	0.865	354.85	0.61
0.178	0.772	353.15	0.46
0.266	0.684	351.85	0.41
0.354	0.596	351.05	0.36
0.462	0.488	350.35	0.34
0.561	0.389	350.05	0.3
0.613	0.34	349.95	0.29
0.758	0.192	349.65	0.28
0.827	0.124	349.65	0.28
0.95	0	350.35	0.22
0	0.9	361.15	0.43
0.075	0.825	358.55	0.61
0.156	0.744	356.65	0.45
0.252	0.648	354.55	0.41
0.34	0.56	353.35	0.39
0.427	0.473	352.75	0.34
0.527	0.373	351.95	0.31
0.617	0.283	351.45	0.3
0.716	0.184	351.15	0.29
0.808	0.092	350.85	0.27
0.9	0	350.95	0.24
0	0.85	366.65	0.49
0.054	0.796	362.35	0.5
0.145	0.705	359.65	0.43
0.222	0.629	357.65	0.41
0.313	0.537	356.15	0.36
0.401	0.449	354.95	0.34
0.489	0.36	353.95	0.31
0.582	0.269	353.35	0.31
0.665	0.185	352.95	0.29
0.76	0.09	352.75	0.29
0.85	0	352.55	0.25

System: acetonitrile + ethyl acetate + 1-ethyl-3-methylimidazolium bis((trifluoromethyl)sulfonyl)imide; phases: Gas, Liquid
Fixed: Pressure, kPa = 101.3
Property: Mole fraction of ethyl acetate (Gas); method: Chromatography
Mole fraction of ethyl acetate	Mole fraction of acetonitrile	Mole fraction of ethyl acetate	uncertainty
0	0.95	0	
0.085	0.865	0.146	0.009
0.178	0.772	0.276	0.007
0.266	0.684	0.378	0.007
0.354	0.596	0.465	0.007
0.462	0.488	0.568	0.007
0.561	0.389	0.651	0.007
0.613	0.34	0.696	0.007
0.758	0.192	0.821	0.006
0.827	0.124	0.882	0.006
0.95	0	1	
0	0.9	0	
0.075	0.825	0.149	0.009
0.156	0.744	0.28	0.007
0.252	0.648	0.407	0.008
0.34	0.56	0.503	0.009
0.427	0.473	0.591	0.007
0.527	0.373	0.682	0.006
0.617	0.283	0.759	0.006
0.716	0.184	0.843	0.006
0.808	0.092	0.921	0.006
0.9	0	1	
0	0.85	0	
0.054	0.796	0.123	0.006
0.145	0.705	0.289	0.006
0.222	0.629	0.401	0.006
0.313	0.537	0.514	0.007
0.401	0.449	0.607	0.007
0.489	0.36	0.69	0.006
0.582	0.269	0.771	0.006
0.665	0.185	0.844	0.006
0.76	0.09	0.924	0.006
0.85	0	1	

System: acetonitrile + ethyl acetate + 1-ethyl-3-methylimidazolium bis((trifluoromethyl)sulfonyl)imide; phases: Gas, Liquid
Fixed: Pressure, kPa = 101.3
Property: Mole fraction of acetonitrile (Gas); method: Chromatography
Mole fraction of ethyl acetate	Mole fraction of acetonitrile	Mole fraction of acetonitrile	uncertainty
0	0.95	1	
0.085	0.865	0.854	0.009
0.178	0.772	0.724	0.007
0.266	0.684	0.622	0.007
0.354	0.596	0.535	0.007
0.462	0.488	0.432	0.007
0.561	0.389	0.349	0.007
0.613	0.34	0.304	0.007
0.758	0.192	0.179	0.006
0.827	0.124	0.118	0.006
0.95	0	0	
0	0.9	1	
0.075	0.825	0.851	0.009
0.156	0.744	0.72	0.007
0.252	0.648	0.593	0.008
0.34	0.56	0.497	0.009
0.427	0.473	0.409	0.007
0.527	0.373	0.318	0.006
0.617	0.283	0.241	0.006
0.716	0.184	0.157	0.006
0.808	0.092	0.079	0.006
0.9	0	0	
0	0.85	1	
0.054	0.796	0.877	0.006
0.145	0.705	0.711	0.006
0.222	0.629	0.599	0.007
0.313	0.537	0.486	0.007
0.401	0.449	0.393	0.007
0.489	0.36	0.31	0.006
0.582	0.269	0.229	0.006
0.665	0.185	0.156	0.006
0.76	0.09	0.076	0.006
0.85	0	0	

System: acetonitrile + ethyl acetate + 1-hexyl-3-methylimidazolium bis[(trifluoromethyl)sulfonyl]imide; phases: Liquid, Gas
Fixed: Pressure, kPa = 101.3
Property: Boiling temperature at pressure P, K (Liquid); method: Ebulliometric method (Recirculating still)
Mole fraction of ethyl acetate	Mole fraction of acetonitrile	Boiling temperature at pressure P, K	uncertainty
0	0.95	357.45	0.34
0.089	0.861	354.55	0.61
0.14	0.81	353.65	0.53
0.272	0.679	351.95	0.46
0.358	0.592	351.55	0.41
0.45	0.5	350.85	0.37
0.544	0.406	350.35	0.27
0.629	0.321	350.15	0.34
0.748	0.202	349.85	0.27
0.854	0.096	350.05	0.3
0.95	0	350.15	0.26
0	0.9	360.75	0.41
0.081	0.819	358.65	0.56
0.159	0.742	356.75	0.55
0.244	0.656	353.75	0.64
0.333	0.567	352.85	0.39
0.427	0.473	351.95	0.53
0.513	0.387	351.55	0.45
0.607	0.293	351.15	0.94
0.694	0.206	350.65	0.27
0.9	0	351.85	0.26
0	0.85	366.15	0.48
0.077	0.773	362.95	0.59
0.151	0.699	360.65	0.5
0.213	0.637	359.15	0.63
0.308	0.542	357.25	0.39
0.386	0.464	356.35	0.49
0.475	0.375	355.35	0.45
0.578	0.272	354.35	0.42
0.661	0.189	354.05	0.32
0.752	0.098	353.65	0.3
0.85	0	353.85	0.27

System: acetonitrile + ethyl acetate + 1-hexyl-3-methylimidazolium bis[(trifluoromethyl)sulfonyl]imide; phases: Gas, Liquid
Fixed: Pressure, kPa = 101.3
Property: Mole fraction of ethyl acetate (Gas); method: Chromatography
Mole fraction of ethyl acetate	Mole fraction of acetonitrile	Mole fraction of ethyl acetate	uncertainty
0	0.95	0	
0.089	0.861	0.158	0.009
0.14	0.81	0.234	0.006
0.272	0.679	0.401	0.007
0.358	0.592	0.487	0.007
0.45	0.5	0.578	0.007
0.544	0.406	0.659	0.006
0.629	0.321	0.73	0.006
0.748	0.202	0.825	0.006
0.854	0.096	0.911	0.006
0.95	0	1	
0	0.9	0	
0.081	0.819	0.172	0.006
0.159	0.742	0.294	0.007
0.244	0.656	0.409	0.007
0.333	0.567	0.514	0.007
0.427	0.473	0.599	0.007
0.513	0.387	0.684	0.006
0.607	0.293	0.767	0.009
0.694	0.206	0.834	0.006
0.9	0	1	
0	0.85	0	
0.077	0.773	0.189	0.006
0.151	0.699	0.322	0.006
0.213	0.637	0.415	0.007
0.308	0.542	0.532	0.007
0.386	0.464	0.617	0.007
0.475	0.375	0.701	0.006
0.578	0.272	0.787	0.006
0.661	0.189	0.854	0.006
0.752	0.098	0.925	0.006
0.85	0	1	

System: acetonitrile + ethyl acetate + 1-hexyl-3-methylimidazolium bis[(trifluoromethyl)sulfonyl]imide; phases: Gas, Liquid
Fixed: Pressure, kPa = 101.3
Property: Mole fraction of acetonitrile (Gas); method: Chromatography
Mole fraction of ethyl acetate	Mole fraction of acetonitrile	Mole fraction of acetonitrile	uncertainty
0	0.95	1	
0.089	0.861	0.842	0.009
0.14	0.81	0.766	0.006
0.272	0.679	0.599	0.007
0.358	0.592	0.513	0.007
0.45	0.5	0.422	0.007
0.544	0.406	0.341	0.006
0.629	0.321	0.27	0.006
0.748	0.202	0.175	0.006
0.854	0.096	0.089	0.006
0.95	0	0	
0	0.9	1	
0.081	0.819	0.828	0.006
0.159	0.742	0.706	0.007
0.244	0.656	0.591	0.007
0.333	0.567	0.486	0.007
0.427	0.473	0.401	0.007
0.513	0.387	0.316	0.006
0.607	0.293	0.233	0.009
0.694	0.206	0.166	0.006
0.9	0	0	
0	0.85	1	
0.077	0.773	0.811	0.006
0.151	0.699	0.678	0.006
0.213	0.637	0.585	0.007
0.308	0.542	0.468	0.007
0.386	0.464	0.383	0.007
0.475	0.375	0.299	0.006
0.578	0.272	0.213	0.006
0.661	0.189	0.146	0.006
0.752	0.098	0.075	0.006
0.85	0	0	

System: acetonitrile + 1-ethyl-3-methylimidazolium bis((trifluoromethyl)sulfonyl)imide; phases: Liquid, Gas
Fixed: Pressure, kPa = 101.3
Property: Boiling temperature at pressure P, K (Liquid); method: Ebulliometric method (Recirculating still)
Mole fraction of 1-ethyl-3-methylimidazolium bis((trifluoromethyl)sulfonyl)imide	Boiling temperature at pressure P, K	uncertainty
0.0502	357.25	0.27
0.10017	361.15	0.29
0.14991	366.65	0.31

System: acetonitrile + 1-ethyl-3-methylimidazolium bis((trifluoromethyl)sulfonyl)imide; phases: Gas, Liquid
Fixed: Pressure, kPa = 101.3
Property: Mole fraction of acetonitrile (Gas); method: Chromatography
Mole fraction of 1-ethyl-3-methylimidazolium bis((trifluoromethyl)sulfonyl)imide	Mole fraction of acetonitrile	uncertainty
0.0502	1	
0.10017	1	
0.141991	1	

System: ethyl acetate + 1-ethyl-3-methylimidazolium bis((trifluoromethyl)sulfonyl)imide; phases: Liquid, Gas
Fixed: Pressure, kPa = 101.3
Property: Boiling temperature at pressure P, K (Liquid); method: Ebulliometric method (Recirculating still)
Mole fraction of 1-ethyl-3-methylimidazolium bis((trifluoromethyl)sulfonyl)imide	Boiling temperature at pressure P, K	uncertainty
0.005	350.35	0.22
0.10005	350.95	0.22
0.15002	352.55	0.23

System: ethyl acetate + 1-ethyl-3-methylimidazolium bis((trifluoromethyl)sulfonyl)imide; phases: Gas, Liquid
Fixed: Pressure, kPa = 101.3
Property: Mole fraction of ethyl acetate (Gas); method: Chromatography
Mole fraction of 1-ethyl-3-methylimidazolium bis((trifluoromethyl)sulfonyl)imide	Mole fraction of ethyl acetate	uncertainty
0.005	1	
0.10005	1	
0.15002	1	

System: acetonitrile + 1-hexyl-3-methylimidazolium bis[(trifluoromethyl)sulfonyl]imide; phases: Liquid, Gas
Fixed: Pressure, kPa = 101.3
Property: Boiling temperature at pressure P, K (Liquid); method: Ebulliometric method (Recirculating still)
Mole fraction of 1-hexyl-3-methylimidazolium bis[(trifluoromethyl)sulfonyl]imide	Boiling temperature at pressure P, K	uncertainty
0.04999	357.45	0.26
0.10002	360.75	0.28
0.15003	366.15	0.31

System: acetonitrile + 1-hexyl-3-methylimidazolium bis[(trifluoromethyl)sulfonyl]imide; phases: Gas, Liquid
Fixed: Pressure, kPa = 101.3
Property: Mole fraction of acetonitrile (Gas); method: Chromatography
Mole fraction of 1-hexyl-3-methylimidazolium bis[(trifluoromethyl)sulfonyl]imide	Mole fraction of acetonitrile	uncertainty
0.04999	1	
0.10002	1	
0.15003	1	

System: ethyl acetate + 1-hexyl-3-methylimidazolium bis[(trifluoromethyl)sulfonyl]imide; phases: Liquid, Gas
Fixed: Pressure, kPa = 101.3
Property: Boiling temperature at pressure P, K (Liquid); method: Ebulliometric method (Recirculating still)
Mole fraction of 1-hexyl-3-methylimidazolium bis[(trifluoromethyl)sulfonyl]imide	Boiling temperature at pressure P, K	uncertainty
0.04998	350.15	0.23
0.1	351.85	0.23
0.15004	353.85	0.23

System: ethyl acetate + 1-hexyl-3-methylimidazolium bis[(trifluoromethyl)sulfonyl]imide; phases: Gas, Liquid
Fixed: Pressure, kPa = 101.3
Property: Mole fraction of ethyl acetate (Gas); method: Chromatography
Mole fraction of 1-hexyl-3-methylimidazolium bis[(trifluoromethyl)sulfonyl]imide	Mole fraction of ethyl acetate	uncertainty
0.04998	1	
0.1	1	
0.15004	1	
