Measured thermophysical data. Activity coefficients of the species in the methanol solutions of acetaminophen and two silylated derivatives at 298.15K
Source: Fluid Phase Equilib., 2006, 10.1016/j.fluid.2006.08.020
Compound 1: methanol, CH4O, InChI=1S/CH4O/c1-2/h2H,1H3, purity 99.8%
Compound 2: N-acetyl-p-aminophenol, C8H9NO2, InChI=1S/C8H9NO2/c1-6(10)9-7-2-4-8(11)5-3-7/h2-5,11H,1H3,(H,9,10)
Compound 3: triethylsilylacetaminophen, C14H23NO2Si, InChI=1S/C14H23NO2Si/c1-5-18(6-2,7-3)17-14-10-8-13(9-11-14)15-12(4)16/h8-11H,5-7H2,1-4H3,(H,15,16)
Compound 4: tertiarybuthyldimethylsilylacetaminophen, C14H23NO2Si, InChI=1S/C14H23NO2Si/c1-11(16)15(18(5,6)14(2,3)4)12-7-9-13(17)10-8-12/h7-10,17H,1-6H3

System: methanol; phases: Liquid
Property: Mass density, kg/m3 (Liquid); method: Vibrating tube method
Temperature, K	Pressure, kPa	Mass density, kg/m3	uncertainty
298.1	101.325	787.5	0.16

System: methanol + N-acetyl-p-aminophenol; phases: Liquid, Gas
Fixed: Temperature, K = 298.15
Property: Osmotic coefficient (Liquid); method: ISOPIE
Molality, mol/kg of methanol	Osmotic coefficient	uncertainty
0.0931	0.998	0.001
0.1398	1.001	0.001
0.2163	1.001	0.001
0.3514	1	0.001
0.5633	1.002	0.001
1.0057	1.009	0.001
1.2361	1.01	0.001
1.3998	1.015	0.001
1.578	1.017	0.001
1.8661	1.02	0.001
2.4648	1.027	0.002
2.7619	1.033	0.002
3.0965	1.041	0.003
3.5603	1.055	0.004
3.974	1.068	0.004
4.1748	1.075	0.005
4.8118	1.099	0.006
5.3165	1.12	0.008
6.17	1.159	0.01
6.4178	1.171	0.011
6.8331	1.193	0.012
7.0732	1.206	0.013

System: methanol + triethylsilylacetaminophen; phases: Liquid, Gas
Fixed: Temperature, K = 298.15
Property: Osmotic coefficient (Liquid); method: ISOPIE
Molality, mol/kg of methanol	Osmotic coefficient	uncertainty
0.0615	0.995	0.001
0.1112	1.001	0.001
0.2046	1.01	0.001
0.2772	1.016	0.001
0.3379	1.02	0.001
0.4072	1.028	0.002
0.562	1.043	0.002
0.6974	1.056	0.003
0.816	1.067	0.004
0.8816	1.066	0.004
0.9448	1.079	0.004
0.9547	1.079	0.006
0.9747	1.072	0.004
1.0019	1.078	0.004
1.0917	1.085	0.005
1.2105	1.096	0.005
1.3026	1.105	0.006
1.3823	1.115	0.006
1.4715	1.12	0.006
1.5125	1.117	0.006
1.5755	1.123	0.007
1.6064	1.13	0.01
1.8317	1.146	0.008
2.4079	1.174	0.009
3.576	1.231	0.012
4.5999	1.266	0.014
5.9833	1.31	0.016

System: methanol + tertiarybuthyldimethylsilylacetaminophen; phases: Liquid, Gas
Fixed: Temperature, K = 298.15
Property: Osmotic coefficient (Liquid); method: ISOPIE
Molality, mol/kg of methanol	Osmotic coefficient	uncertainty
0.0772	1.021	0.001
0.1196	1.034	0.002
0.1543	1.054	0.003
0.1852	1.061	0.003
0.2045	1.072	0.004
0.2508	1.095	0.005
0.2855	1.109	0.006
0.3627	1.13	0.007
0.3858	1.135	0.007
0.4051	1.14	0.008
0.436	1.153	0.009
0.4938	1.182	0.01
0.5401	1.19	0.01
0.571	1.21	0.012
0.6173	1.235	0.012
0.6841	1.248	0.013
0.745	1.276	0.015
0.825	1.306	0.016
0.965	1.356	0.019
1.18	1.434	0.023
1.38	1.487	0.026
1.75	1.622	0.033
2.145	1.704	0.037
2.775	1.854	0.044
3.5	1.98	0.05
4.1757	2.03	0.052
