Measured thermophysical data. Phase behavior of carbon dioxide/trimethoxy(methyl)silane and methylsilicate 51 system
Source: Fluid Phase Equilib., 2018, 10.1016/j.fluid.2017.09.006
Compound 1: carbon dioxide, CO2, InChI=1S/CO2/c2-1-3
Compound 2: methyltrimethoxysilane, C4H12O3Si, InChI=1S/C4H12O3Si/c1-5-8(4,6-2)7-3/h1-4H3
Compound 3: decamethyl tetrasilicate, C10H30O13Si4, InChI=1S/C10H30O13Si4/c1-11-24(12-2,13-3)21-26(17-7,18-8)23-27(19-9,20-10)22-25(14-4,15-5)16-6/h1-10H3

System: carbon dioxide + methyltrimethoxysilane; phases: Liquid, Gas
Property: Vapor or sublimation pressure, kPa (Liquid); method: Closed cell (Static) method
Temperature, K	Mole fraction of carbon dioxide	Vapor or sublimation pressure, kPa	uncertainty
313.2	0.196	1200	110
313.2	0.299	1960	100
313.2	0.401	2660	100
313.2	0.499	3450	100
313.2	0.6	4430	100
313.2	0.7	5380	100
313.2	0.75	5810	100
313.2	0.8	6270	100
333.2	0.196	1600	110
333.2	0.299	2580	110
333.2	0.401	3510	100
333.2	0.499	4480	100
333.2	0.6	5850	100
333.2	0.7	7020	100
333.2	0.75	7540	100
333.2	0.8	8340	110
353.3	0.241	2150	110
353.3	0.298	2880	110
353.3	0.4	4430	110
353.3	0.503	5930	100
353.3	0.601	7130	100
353.3	0.7	8470	100
353.3	0.75	9250	110
353.3	0.8	10430	110
393.2	0.241	3040	130
393.2	0.298	3950	120
393.2	0.4	6030	110
393.2	0.503	7830	110
393.2	0.601	9470	110
393.2	0.7	11490	110
393.2	0.8	13250	110

System: carbon dioxide + decamethyl tetrasilicate; phases: Liquid, Gas
Property: Vapor or sublimation pressure, kPa (Liquid); method: Closed cell (Static) method
Temperature, K	Mole fraction of carbon dioxide	Vapor or sublimation pressure, kPa	uncertainty
313.15	0.32	1300	130
313.15	0.414	1820	120
313.15	0.484	2240	120
313.15	0.6	3330	110
313.15	0.692	4440	110
313.15	0.772	5420	100
313.15	0.833	6400	100
313.15	0.904	7720	110
323.15	0.32	1520	130
323.15	0.414	2130	120
323.15	0.484	2660	130
323.15	0.6	3860	120
323.15	0.692	5240	110
323.15	0.772	6260	110
323.15	0.833	7390	110
323.15	0.904	9450	110
333.15	0.32	1740	140
333.15	0.414	2450	130
333.15	0.484	3010	130
333.15	0.6	4480	120
333.15	0.692	6010	110
333.15	0.772	7010	110
333.15	0.833	8440	110
333.15	0.904	11360	110
343.15	0.32	1950	150
343.15	0.414	2730	130
343.15	0.484	3390	140
343.15	0.6	5030	130
343.15	0.692	6710	110
343.15	0.772	7800	100
343.15	0.833	9580	110
343.15	0.904	13300	100
353.15	0.32	2180	160
353.15	0.414	3020	140
353.15	0.484	3720	150
353.15	0.6	5540	130
353.15	0.692	7400	100
353.15	0.772	8450	110
353.15	0.833	10690	120
353.15	0.904	15310	120
363.15	0.32	2360	170
363.15	0.414	3310	150
363.15	0.484	4090	160
363.15	0.6	6100	100
363.15	0.692	8000	1000
363.15	0.772	9170	110
363.15	0.833	11890	120
363.15	0.904	17160	120
373.15	0.32	2570	180
373.15	0.414	3580	150
373.15	0.484	4420	160
373.15	0.6	6600	200
373.15	0.692	8760	120
373.15	0.772	10020	120
373.15	0.833	13030	130
373.15	0.904	18920	120
383.15	0.484	4740	190
393.15	0.484	5060	180
