Measured thermophysical data. Thermal conductivity of ethyl fluoride (HFC161)
Source: Fluid Phase Equilib., 2014, 10.1016/j.fluid.2014.04.038
Compound 1: fluoroethane, C2H5F, InChI=1S/C2H5F/c1-2-3/h2H2,1H3, purity 99.95%
Compound 2: nitrogen, N2, InChI=1S/N2/c1-2, purity 99.99%
Compound 3: toluene, C7H8, InChI=1S/C7H8/c1-7-5-3-2-4-6-7/h2-6H,1H3, purity 99.5%

System: fluoroethane; phases: Liquid, Gas
Property: Thermal conductivity, W/m/K (Liquid); method: Hot wire method
Temperature, K	Thermal conductivity, W/m/K	uncertainty
233.99	0.14962	0.00601
234	0.14867	0.00597
234.01	0.14869	0.00597
234.32	0.14834	0.00596
234.32	0.14815	0.00595
234.32	0.14921	0.00599
234.64	0.14905	0.00599
234.57	0.1496	0.00601
234.63	0.14917	0.00599
244.51	0.14202	0.00571
244.5	0.14259	0.00573
244.54	0.1426	0.00573
244.25	0.14296	0.00574
244.22	0.14243	0.00572
244.26	0.14332	0.00576
244.04	0.14292	0.00574
244.04	0.14226	0.00572
244.01	0.14295	0.00574
253.79	0.13623	0.00548
253.79	0.13608	0.00547
253.8	0.13624	0.00548
254.08	0.13636	0.00548
254.09	0.13678	0.0055
254.09	0.13635	0.00548
254.71	0.13595	0.00546
254.79	0.13542	0.00544
254.75	0.13551	0.00545
254.36	0.13522	0.00543
254.37	0.13583	0.00546
254.41	0.1355	0.00545
254.15	0.13463	0.00541
254.12	0.13569	0.00545
254.14	0.13498	0.00542
263.94	0.12857	0.00517
263.95	0.12803	0.00515
263.95	0.12829	0.00516
264.19	0.12884	0.00518
264.17	0.1287	0.00517
264.16	0.12832	0.00516
264.43	0.12853	0.00517
264.51	0.12934	0.0052
264.51	0.12897	0.00518
274.95	0.12235	0.00492
274.97	0.12236	0.00492
274.98	0.12265	0.00493
274.66	0.12204	0.00491
274.64	0.12239	0.00492
274.62	0.12184	0.0049
274.37	0.12154	0.00489
274.4	0.12129	0.00488
274.39	0.12138	0.00488
284.22	0.1146	0.00461
284.23	0.1153	0.00464
284.17	0.11457	0.00461
284.43	0.11544	0.00464
284.47	0.11518	0.00463
284.46	0.1155	0.00464
284.78	0.11627	0.00467
284.8	0.11637	0.00468
284.81	0.11622	0.00467
294.94	0.11123	0.00447
294.95	0.111	0.00446
294.94	0.11042	0.00444
294.64	0.1105	0.00444
294.63	0.11086	0.00446
294.7	0.1103	0.00444
294.43	0.10966	0.00441
294.65	0.11025	0.00443
294.63	0.10953	0.0044
294.59	0.10984	0.00442
294.89	0.10944	0.0044
294.91	0.10931	0.0044
294.9	0.10959	0.00441
295.22	0.10999	0.00442
295.22	0.10977	0.00441
295.22	0.11004	0.00442
305.19	0.10575	0.00425
305.19	0.10583	0.00426
305.07	0.10547	0.00424
304.68	0.10556	0.00425
304.68	0.10516	0.00423
304.67	0.1054	0.00424
304.4	0.10565	0.00425
304.39	0.10556	0.00425
304.41	0.10574	0.00425
314.36	0.10071	0.00405
314.36	0.10015	0.00403
314.38	0.10026	0.00403
314.68	0.10089	0.00406
314.71	0.10106	0.00406
314.69	0.10078	0.00405
315.07	0.10048	0.00404
315.06	0.10067	0.00405
315.08	0.10024	0.00403
315.05	0.10076	0.00405
315.07	0.10102	0.00406
315.07	0.10076	0.00405
314.72	0.10061	0.00405
314.7	0.1003	0.00403
314.71	0.10081	0.00405
314.4	0.10032	0.00404
314.4	0.10122	0.00407
314.46	0.10131	0.00408
324.64	0.09597	0.00386
324.64	0.09452	0.0038
324.66	0.09557	0.00384
324.87	0.09498	0.00382
324.85	0.09515	0.00383
324.86	0.09533	0.00384
325.29	0.09565	0.00385
325.3	0.09512	0.00383
325.28	0.09515	0.00383
335.67	0.09089	0.00366
335.66	0.09055	0.00364
335.66	0.09054	0.00364
335.25	0.09091	0.00366
335.25	0.09082	0.00365
335.26	0.09123	0.00367
334.87	0.09073	0.00365
334.87	0.09116	0.00367
334.87	0.09121	0.00367
344.8	0.08543	0.00344
344.82	0.08529	0.00343
344.82	0.08532	0.00343
345.21	0.08506	0.00342
345.21	0.08519	0.00343
345.2	0.08496	0.00342
345.7	0.08488	0.00342
345.72	0.08489	0.00342
345.68	0.08484	0.00341
355.7	0.08043	0.00324
355.7	0.08031	0.00323
355.71	0.08044	0.00324
355.29	0.0807	0.00325
355.29	0.08094	0.00326
355.3	0.08092	0.00326
354.88	0.08093	0.00326
354.88	0.08129	0.00327
354.89	0.08101	0.00326
354.87	0.08113	0.00327
354.62	0.08121	0.00327
354.61	0.081	0.00326
354.62	0.08127	0.00327
354.99	0.08085	0.00326
355	0.08097	0.00326
354.97	0.08115	0.00327
355.38	0.08142	0.00328
355.37	0.08104	0.00326
355.38	0.08125	0.00327
365.47	0.07603	0.00306
365.52	0.07616	0.00307
365.53	0.07615	0.00307
365.06	0.07678	0.00309
365.08	0.07679	0.00309
365.08	0.07656	0.00308
364.71	0.07768	0.00313
364.69	0.07657	0.00308
364.75	0.07676	0.00309
375.2	0.07321	0.00295
375.21	0.07381	0.00297
375.21	0.07357	0.00296
374.82	0.07343	0.00296
374.81	0.07343	0.00296
374.81	0.07344	0.00296
374.47	0.07323	0.00295
374.48	0.07368	0.00297
374.48	0.07356	0.00296

System: fluoroethane; phases: Gas
Property: Thermal conductivity, W/m/K (Gas); method: Hot wire method
Temperature, K	Pressure, kPa	Thermal conductivity, W/m/K	uncertainty
236.45	86.1	0.00838	0.00053
245.47	132.2	0.00931	0.00058
246.92	132.2	0.00972	0.00061
248.24	132.2	0.00989	0.00062
244.29	84.5	0.00938	0.00059
248.83	84.5	0.00985	0.00062
254.05	84.5	0.01031	0.00064
260.98	132.4	0.01112	0.00069
255.52	201.2	0.01058	0.00066
266.46	286.1	0.01169	0.00073
265.31	286.1	0.01142	0.00071
275.33	370.8	0.01266	0.00079
276.13	370.8	0.01296	0.00081
277.34	370.8	0.01294	0.0008
276	139.9	0.01306	0.00081
278.06	139.9	0.01337	0.00083
278.85	139.9	0.01329	0.00083
286.26	271.3	0.01438	0.00089
287.72	271.3	0.01452	0.0009
289.14	271.3	0.0144	0.00089
286.13	481.4	0.01426	0.00088
287.6	481.4	0.01425	0.00088
288.9	481.4	0.01448	0.0009
287.56	578.8	0.01402	0.00087
295.76	779.2	0.01526	0.00094
297.07	690.7	0.01526	0.00094
295.78	690.7	0.0151	0.00094
295.97	520.7	0.01551	0.00096
297.24	520.7	0.01534	0.00095
298.46	520.7	0.01532	0.00095
296.2	275.3	0.01553	0.00096
297.64	275.3	0.01544	0.00096
299.03	275.3	0.01558	0.00096
306.42	1035	0.01653	0.00102
306.93	1035	0.01725	0.00107
307.36	1035	0.01661	0.00103
307.89	227	0.01643	0.00102
306.97	227	0.01654	0.00102
306.16	227	0.01673	0.00103
306.71	504.3	0.01683	0.00104
307.57	504.3	0.01663	0.00103
306.59	712.7	0.01627	0.00101
305.63	712.7	0.01677	0.00104
305.93	916.4	0.0163	0.00101
306.93	916.4	0.01663	0.00103
318.31	316.7	0.01787	0.0011
315.79	316.7	0.01783	0.0011
316.83	613.8	0.01747	0.00108
315.87	807.4	0.01738	0.00107
316.59	807.4	0.01737	0.00107
317.12	1005.9	0.01811	0.00112
316.4	1005.9	0.01789	0.0011
315.81	1005.9	0.01828	0.00113
315.63	1202.4	0.01779	0.0011
316.27	1202.4	0.01803	0.00111
316.94	1202.4	0.0181	0.00112
317.06	1341.3	0.01801	0.00111
316.4	1341.3	0.01835	0.00113
316.01	1341.3	0.01815	0.00112
316.53	1162.6	0.01796	0.00111
315.53	1227.4	0.01838	0.00114
323.36	797.5	0.01857	0.00115
322.59	797.5	0.01847	0.00114
322.37	797.5	0.01858	0.00115
321.99	1292.4	0.01904	0.00117
322.07	1292.4	0.01921	0.00119
325.45	1700.6	0.02011	0.00124
324.97	1700.6	0.0202	0.00125
324.32	1700.6	0.01997	0.00123
325.27	1362.6	0.01957	0.00121
326.1	1362.6	0.01993	0.00123
326.71	798.3	0.01946	0.0012
327.18	798.3	0.01958	0.00121
326.64	968	0.01935	0.00119
327.1	968	0.01947	0.0012
326.61	1095.3	0.0197	0.00122
327.04	1095.3	0.01963	0.00121
327.88	999.2	0.01944	0.0012
326.98	999.2	0.01933	0.00119
327.1	807.3	0.01901	0.00117
328.12	807.3	0.01964	0.00121
328.26	616.5	0.0193	0.00119
327.49	616.5	0.01891	0.00117
327.67	420.8	0.01907	0.00118
328.79	420.8	0.01938	0.0012
332.17	969.9	0.02009	0.00124
332.66	969.9	0.02013	0.00124
333.3	756.8	0.01971	0.00122
332.31	756.8	0.01954	0.00121
332.66	396.8	0.01951	0.0012
333.74	396.8	0.01972	0.00122
337.61	206.2	0.02003	0.00123
338.76	206.2	0.02026	0.00125
337.81	865.8	0.01999	0.00123
336.83	865.8	0.01986	0.00122
336.91	706.3	0.01983	0.00122
337.89	706.3	0.01991	0.00123
338.08	480.3	0.01991	0.00123
337.33	480.3	0.02	0.00123
336.49	1758.2	0.02175	0.00134
337.06	1758.2	0.02164	0.00133
337.27	1491	0.0208	0.00128
336.67	1491	0.02077	0.00128
336.09	1491	0.02082	0.00128
336.27	1198.3	0.02033	0.00125
336.9	1198.3	0.02068	0.00127
337.56	1198.3	0.02055	0.00127
346.23	2260	0.02334	0.00144
346.87	2260	0.02339	0.00144
345.5	2260	0.0234	0.00144
345.62	2008	0.02287	0.00141
346.17	2008	0.02305	0.00142
347.13	2008	0.02317	0.00143
347.22	1802.5	0.02234	0.00138
346.2	1802.5	0.02205	0.00136
345.76	1802.5	0.02255	0.00139
346.43	1560.1	0.02199	0.00135
347.67	1560.1	0.02199	0.00135
345.73	1253.4	0.02123	0.00131
346.52	1253.4	0.02134	0.00131
347.86	1253.4	0.02137	0.00132
348.08	1001.2	0.02122	0.00131
346.68	1001.2	0.02108	0.0013
345.91	1001.2	0.0213	0.00131
346.04	748.6	0.02153	0.00133
346.91	748.6	0.02154	0.00133
348.34	748.6	0.02136	0.00132
348.67	454.4	0.02127	0.00131
346.83	454.4	0.02085	0.00128
346.18	454.4	0.02091	0.00129
346.59	250.1	0.02108	0.0013
347.3	250.1	0.02135	0.00132
348.4	250.1	0.0215	0.00132
356.32	266.7	0.02267	0.0014
357.02	266.7	0.02276	0.0014
357.98	266.7	0.02298	0.00141
355.01	2934.5	0.02654	0.00163
355.95	2934.5	0.0265	0.00163
356.26	2586.5	0.02498	0.00154
355.79	2586.5	0.02513	0.00155
355.38	2586.5	0.02498	0.00154
355.41	2277.9	0.02422	0.00149
355.91	2277.9	0.02436	0.0015
356.52	2277.9	0.02412	0.00148
356.73	2007.1	0.02363	0.00145
356.06	2007.1	0.02406	0.00148
355.59	2007.1	0.02432	0.0015
355.72	1531.1	0.02295	0.00141
356.27	1531.1	0.02331	0.00143
357.06	1531.1	0.02299	0.00142
357.39	1034.8	0.02287	0.00141
356.55	1034.8	0.0229	0.00141
355.99	1034.8	0.02302	0.00142
356.17	611.2	0.02275	0.0014
356.82	611.2	0.02305	0.00142
357.69	611.2	0.02264	0.00139
364.87	3960.3	0.03259	0.002
365.65	3438	0.02965	0.00182
365.11	3438	0.02942	0.00181
364.77	3438	0.02941	0.00181
365.05	2942.4	0.02781	0.00171
365.43	2942.4	0.02721	0.00167
365.98	2942.4	0.027	0.00166
366.21	2506.8	0.02572	0.00158
366.76	2506.8	0.02558	0.00157
365.62	2506.8	0.0257	0.00158
365.99	2001.8	0.02478	0.00152
366.67	2001.8	0.02473	0.00152
367.32	2001.8	0.02511	0.00154
368.41	1515.5	0.02402	0.00148
367.1	1515.5	0.02393	0.00147
366.42	1515.5	0.02467	0.00152
366.63	1029	0.0243	0.00149
367.49	1029	0.02463	0.00152
368.9	1029	0.02415	0.00149
368.3	533.7	0.02352	0.00145
367.38	533.7	0.0242	0.00149
366.29	533.7	0.02342	0.00144
365.62	3718.5	0.03133	0.00192
366.21	3718.5	0.03142	0.00193
376.1	887.8	0.02494	0.00153
376.83	887.8	0.02525	0.00155
373.83	4470.3	0.03726	0.00229
373.99	4470.3	0.03714	0.00228
374.47	4470.3	0.03687	0.00226
374.48	2938.6	0.02793	0.00172
375.05	2938.6	0.02813	0.00173
374.7	2119.8	0.02585	0.00159
375.25	2119.8	0.02574	0.00158
375.94	2119.8	0.02613	0.00161
376.18	1564.8	0.02555	0.00157
375.68	1564.8	0.0258	0.00159
374.85	1564.8	0.02515	0.00155
375.37	364.6	0.02485	0.00153
376.41	364.6	0.02448	0.00151
377.08	364.6	0.02454	0.00151
374.67	3543.9	0.03045	0.00187
375.8	2478.9	0.02745	0.00169
374.62	2478.9	0.02638	0.00162

System: fluoroethane; phases: Fluid (supercritical or subcritical phases)
Property: Thermal conductivity, W/m/K (Fluid (supercritical or subcritical phases)); method: Hot wire method
Temperature, K	Pressure, kPa	Thermal conductivity, W/m/K	uncertainty
377.36	5247.3	0.07905	0.00484
377.63	5247.3	0.08228	0.00503
377.73	5247.3	0.08638	0.00528
380.51	5230.1	0.05046	0.00322

System: nitrogen; phases: Gas
Property: Thermal conductivity, W/m/K (Gas); method: Hot wire method
Temperature, K	Pressure, kPa	Thermal conductivity, W/m/K	uncertainty
340.86	2579.4	0.029259	0.001798
340.87	2579.4	0.029127	0.00179
341.21	2579.4	0.029217	0.001796
341.16	2579.4	0.02959	0.001819
336.33	2657.4	0.028744	0.001766
336.36	2657.4	0.02885	0.001773
335.72	2657.4	0.028486	0.001751
335.73	2657.4	0.029047	0.001785
332.12	2682.6	0.029018	0.001784
332.04	2682.6	0.028337	0.001743
330.96	2682.6	0.028697	0.001765
330.94	2682.6	0.028508	0.001754
326.18	2705.7	0.027935	0.001717
326.24	2705.7	0.028586	0.001757
326.75	2705.7	0.028527	0.001753
326.72	2705.7	0.028484	0.00175
322.61	2776.2	0.02762	0.001698
321.58	2776.2	0.027798	0.001709
322.25	2776.2	0.027621	0.001698
322.29	2776.2	0.027718	0.001704
321.99	2778.7	0.027927	0.001717
321.95	2778.7	0.027771	0.001707
326.43	4299.5	0.029062	0.001786
326.51	4299.5	0.029135	0.001791
327.7	4299.5	0.029664	0.001823
327.66	4299.5	0.029398	0.001807
336.02	4212.3	0.029486	0.001812
336.01	4212.3	0.029615	0.00182
337.13	4212.3	0.030013	0.001844
337.13	4212.3	0.029704	0.001825
326.67	3835.8	0.029092	0.001788
326.67	3835.8	0.028973	0.001781
327.86	3835.8	0.029397	0.001807
327.86	3835.8	0.029064	0.001786
327.32	1657.7	0.027985	0.00172
327.57	1657.7	0.027891	0.001714
328.85	1657.7	0.028169	0.001731
328.83	1657.7	0.028145	0.001729
329.15	1209.3	0.027845	0.001711
329.17	1209.3	0.027839	0.00171
327.85	1209.3	0.027484	0.001689
327.84	1209.3	0.027816	0.001709
325.1	1008.8	0.027699	0.001702
325.1	1008.8	0.027718	0.001703
323.18	1008.8	0.027288	0.001677
323.16	1008.8	0.027257	0.001675
324.06	1008.8	0.027483	0.001689
324.12	1008.8	0.02747	0.001688
325.44	574.1	0.028222	0.001734

System: toluene; phases: Liquid, Gas
Property: Thermal conductivity, W/m/K (Liquid); method: Hot wire method
Temperature, K	Thermal conductivity, W/m/K	uncertainty
318.8	0.1241	0.005
328.48	0.1218	0.0049
333.34	0.1209	0.0049
338.23	0.1195	0.0048
341.16	0.1201	0.0048
343.09	0.1176	0.0047
346.01	0.116	0.0047
350.87	0.1149	0.0046
355.71	0.1151	0.0046
365.42	0.1116	0.0045
370.29	0.1112	0.0045
