Measured thermophysical data. Thermodynamic properties of vanadyl (N,N'-salicylideneethylendiamine) Schiff base complex in ionic liquid + N,N-dimethylacetamide solutions
Source: Fluid Phase Equilib., 2012, 10.1016/j.fluid.2011.10.026
Compound 1: [bis(salicylidene)ethylenediaminato]oxovanadium, C16H14N2O3V, InChI=1S/C16H16N2O2.O.V/c19-15-7-3-1-5-13(15)11-17-9-10-18-12-14-6-2-4-8-16(14)20;;/h1-8,11-12,19-20H,9-10H2;;/q;;+2/p-2/b17-11+,18-12+;;
Compound 2: N,N-dimethylethanamide, C4H9NO, InChI=1S/C4H9NO/c1-4(6)5(2)3/h1-3H3
Compound 3: 1-methyl-3-propylimidazolium bromide, C7H13BrN2, InChI=1S/C7H13N2.BrH/c1-3-4-9-6-5-8(2)7-9;/h5-7H,3-4H2,1-2H3;1H/q+1;/p-1

System: N,N-dimethylethanamide; phases: Liquid
Property: Mass density, kg/m3 (Liquid); method: Vibrating tube method
Temperature, K	Pressure, kPa	Mass density, kg/m3	uncertainty
298.15	101	936.31	1.02

System: N,N-dimethylethanamide; phases: Liquid
Property: Viscosity, Pa*s (Liquid); method: Capillary tube (Ostwald; Ubbelohde) method
Pressure, kPa	Temperature, K	Viscosity, Pa*s	uncertainty
101	298.15	0.000923	2e-05

System: N,N-dimethylethanamide + [bis(salicylidene)ethylenediaminato]oxovanadium + 1-methyl-3-propylimidazolium bromide; phases: Liquid
Fixed: Temperature, K = 298.15
Fixed: Pressure, kPa = 101
Property: Mass density, kg/m3 (Liquid); method: Vibrating tube method
Solvent: Molality, mol/kg of 1-methyl-3-propylimidazolium bromide	Molality, mol/kg of [bis(salicylidene)ethylenediaminato]oxovanadium	Mass density, kg/m3	uncertainty
0	0	936.31	1.23
0	0.0113	937.62	1.23
0	0.0197	938.6	1.2
0	0.0301	939.8	1.2
0	0.0408	941.05	1.23
0	0.0599	943.26	1.23
0	0.0789	945.46	1.23
0	0.0897	946.68	1.23
0	0.0988	947.75	1.23
0.2002	0	950.73	1.24
0.2002	0.02	953.03	1.23
0.2002	0.0299	954.18	1.24
0.2002	0.0399	955.32	1.24
0.2002	0.0598	957.6	1.24
0.2002	0.0702	958.8	1.24
0.2002	0.08	959.91	1.24
0.2002	0.0899	961.05	1.24
0.2002	0.0999	962.18	1.24
0.4993	0	968.73	1.25
0.4993	0.0202	971.02	1.25
0.4993	0.0297	972.11	1.25
0.4993	0.0398	973.25	1.25
0.4993	0.0598	975.51	1.25
0.4993	0.0703	976.7	1.25
0.4993	0.0798	977.77	1.25
0.4993	0.0902	978.94	1.25
0.4993	0.0998	980.01	1.25
0.7879	0	984.5	1.26
0.7879	0.0201	986.75	1.26
0.7879	0.0299	987.86	1.26
0.7879	0.0401	989	1.26
0.7879	0.0601	991.23	1.26
0.7879	0.0699	992.33	1.26
0.7879	0.0799	993.44	1.26
0.7879	0.09	994.56	1.26
0.7879	0.0999	995.65	1.26

System: N,N-dimethylethanamide + [bis(salicylidene)ethylenediaminato]oxovanadium + 1-methyl-3-propylimidazolium bromide; phases: Liquid
Fixed: Pressure, kPa = 101
Fixed: Temperature, K = 298.15
Property: Viscosity, Pa*s (Liquid); method: Capillary tube (Ostwald; Ubbelohde) method
Solvent: Molality, mol/kg of 1-methyl-3-propylimidazolium bromide	Amount concentration (molarity), mol/dm3 of [bis(salicylidene)ethylenediaminato]oxovanadium	Viscosity, Pa*s	uncertainty
0	0	0.000923	2.1e-05
0	0.0106	0.000998	2.3e-05
0	0.0185	0.001017	2.3e-05
0	0.0283	0.001038	2.4e-05
0	0.0384	0.001061	2.4e-05
0	0.0565	0.001089	2.5e-05
0	0.0746	0.001114	2.6e-05
0	0.0849	0.001141	2.6e-05
0	0.0936	0.001159	2.7e-05
0.2002	0	0.001124	2.6e-05
0.2002	0.0191	0.001172	2.7e-05
0.2002	0.0285	0.001183	2.7e-05
0.2002	0.0381	0.001203	2.8e-05
0.2002	0.0573	0.001225	2.8e-05
0.2002	0.0673	0.001259	2.9e-05
0.2002	0.0768	0.001278	2.9e-05
0.2002	0.0864	0.001304	3e-05
0.2002	0.0961	0.001332	3.1e-05
0.4993	0	0.001383	3.2e-05
0.4993	0.0196	0.001439	3.3e-05
0.4993	0.0289	0.001454	3.3e-05
0.4993	0.0387	0.001474	3.4e-05
0.4993	0.0583	0.00152	3.5e-05
0.4993	0.0687	0.001548	3.6e-05
0.4993	0.078	0.001572	3.6e-05
0.4993	0.0883	0.0016	3.7e-05
0.4993	0.0978	0.001631	3.8e-05
0.7879	0	0.001653	3.8e-05
0.7879	0.0198	0.001707	3.9e-05
0.7879	0.0295	0.001726	4e-05
0.7879	0.0397	0.001755	4e-05
0.7879	0.0596	0.001797	4.1e-05
0.7879	0.0694	0.001827	4.2e-05
0.7879	0.0794	0.001855	4.3e-05
0.7879	0.0895	0.001879	4.3e-05
0.7879	0.0995	0.001911	4.4e-05

System: N,N-dimethylethanamide + [bis(salicylidene)ethylenediaminato]oxovanadium + 1-methyl-3-propylimidazolium bromide; phases: Liquid
Fixed: Temperature, K = 298.15
Fixed: Pressure, kPa = 101
Property: Molar conductivity, S*m2/mol (Liquid); method: Alternating current cell with electrodes
Solvent: Molality, mol/kg of [bis(salicylidene)ethylenediaminato]oxovanadium	Amount concentration (molarity), mol/dm3 of 1-methyl-3-propylimidazolium bromide	Molar conductivity, S*m2/mol	uncertainty
0.199	0.00089	0.006298	0.000252
0.199	0.00161	0.006153	0.000246
0.199	0.00219	0.006056	0.000242
0.199	0.00284	0.005915	0.000237
0.199	0.0034	0.005796	0.000232
0.199	0.00403	0.00566	0.000226
0.199	0.00464	0.005559	0.000222
0.199	0.0051	0.005483	0.000219
0.199	0.00578	0.005369	0.000215
0.199	0.00644	0.005264	0.000211
0.199	0.00719	0.005165	0.000207
0.199	0.00785	0.005089	0.000204
0.199	0.00863	0.004987	0.000199
0.199	0.00936	0.00492	0.000197
0.2995	0.00079	0.005862	0.000234
0.2995	0.00141	0.005767	0.000231
0.2995	0.0021	0.005652	0.000226
0.2995	0.00269	0.005592	0.000224
0.2995	0.00331	0.005523	0.000221
0.2995	0.00391	0.005427	0.000217
0.2995	0.00468	0.005331	0.000213
0.2995	0.00526	0.005275	0.000211
0.2995	0.00597	0.005168	0.000207
0.2995	0.00654	0.005094	0.000204
0.2995	0.0073	0.005023	0.000201
0.2995	0.00821	0.004913	0.000197
0.2995	0.00894	0.00484	0.000194
0.2995	0.00983	0.004767	0.000191
0.3985	0.00085	0.005358	0.000214
0.3985	0.00168	0.005243	0.00021
0.3985	0.00253	0.005171	0.000207
0.3985	0.00339	0.005095	0.000204
0.3985	0.00413	0.005018	0.000201
0.3985	0.00502	0.00493	0.000197
0.3985	0.00596	0.004834	0.000193
0.3985	0.00677	0.00475	0.00019
0.3985	0.00762	0.00466	0.000186
0.3985	0.00845	0.004592	0.000184
0.3985	0.00935	0.004506	0.00018
0.3985	0.01023	0.004439	0.000178

System: N,N-dimethylethanamide + [bis(salicylidene)ethylenediaminato]oxovanadium; phases: Liquid
Fixed: Temperature, K = 298.15
Fixed: Pressure, kPa = 101
Property: Mass density, kg/m3 (Liquid); method: Vibrating tube method
Molality, mol/kg of [bis(salicylidene)ethylenediaminato]oxovanadium	Mass density, kg/m3	uncertainty
0.0113	937.62	1.02
0.0197	938.6	1
0.0301	939.8	1
0.0408	941.05	1.03
0.0599	943.26	1.03
0.0789	945.46	1.03
0.0897	946.68	1.03
0.0988	947.75	1.03

System: N,N-dimethylethanamide + [bis(salicylidene)ethylenediaminato]oxovanadium; phases: Liquid
Fixed: Pressure, kPa = 101
Fixed: Temperature, K = 298.15
Property: Viscosity, Pa*s (Liquid); method: Capillary tube (Ostwald; Ubbelohde) method
Amount concentration (molarity), mol/dm3 of [bis(salicylidene)ethylenediaminato]oxovanadium	Viscosity, Pa*s	uncertainty
0.0106	0.000998	2.1e-05
0.0185	0.001017	2.2e-05
0.0283	0.001038	2.2e-05
0.0384	0.001061	2.3e-05
0.0565	0.001089	2.3e-05
0.0746	0.001114	2.4e-05
0.0849	0.001141	2.4e-05
0.0936	0.001159	2.5e-05

System: N,N-dimethylethanamide + 1-methyl-3-propylimidazolium bromide; phases: Liquid
Fixed: Temperature, K = 298.15
Fixed: Pressure, kPa = 101
Property: Mass density, kg/m3 (Liquid); method: Vibrating tube method
Molality, mol/kg of 1-methyl-3-propylimidazolium bromide	Mass density, kg/m3	uncertainty
0.2002	950.73	1.03
0.4993	968.73	1.03
0.7879	984.5	1.04

System: N,N-dimethylethanamide + 1-methyl-3-propylimidazolium bromide; phases: Liquid
Fixed: Pressure, kPa = 101
Fixed: Temperature, K = 298.15
Property: Viscosity, Pa*s (Liquid); method: Capillary tube (Ostwald; Ubbelohde) method
Molality, mol/kg of 1-methyl-3-propylimidazolium bromide	Viscosity, Pa*s	uncertainty
0.2002	0.001124	2.4e-05
0.4993	0.001383	3e-05
0.7879	0.001653	3.6e-05
