Measured thermophysical data. Experimental and theoretical study on liquid-liquid equilibrium of 1-butanol + water + NaNO3 at 25 and 35 deg C
Source: Fluid Phase Equilib., 2010, 10.1016/j.fluid.2010.09.013
Compound 1: butan-1-ol, C4H10O, InChI=1S/C4H10O/c1-2-3-4-5/h5H,2-4H2,1H3, purity 99.5%
Compound 2: sodium nitrate, NNaO3, InChI=1S/NO3.Na/c2-1(3)4;/q-1;+1, purity 99.5%
Compound 3: water, H2O, InChI=1S/H2O/h1H2, purity 99.8%

System: butan-1-ol + sodium nitrate + water; phases: Liquid mixture 1, Liquid mixture 2
Fixed: Pressure, kPa = 101
Property: Mass fraction of butan-1-ol (Liquid mixture 1); method: Chromatography
Property: Mass fraction of butan-1-ol (Liquid mixture 2); method: Chromatography
Property: Mass fraction of water (Liquid mixture 2); method: Chromatography
Temperature, K	Mass fraction of water	Mass fraction of butan-1-ol	uncertainty	Mass fraction of butan-1-ol	uncertainty	Mass fraction of water	uncertainty
298.15	0.9297	0.0703	0.0012	0.7932	0.002	0.2068	
298.15	0.8994	0.0608	0.0011	0.8144	0.0019	0.1841	
298.15	0.8675	0.0512	0.0011	0.8194	0.0019	0.1779	
298.15	0.8431	0.0413	0.0011	0.8386	0.0018	0.1577	
298.15	0.779	0.0301	0.001	0.8517	0.0017	0.1441	
298.15	0.7354	0.0247	0.001	0.8669	0.0017	0.1285	
298.15	0.7053	0.0232	0.001	0.8758	0.0017	0.1199	
298.15	0.672	0.0177	0.001	0.8851	0.0017	0.1105	
298.15	0.619	0.0122	0.001	0.8908	0.0016	0.1056	
298.15	0.6004	0.0104	0.001	0.9025	0.0016	0.0934	
298.15	0.5744	0.0103	0.001	0.9089	0.0015	0.0874	
298.15	0.53	0.0072	0.001	0.9185	0.0015	0.0772	
308.15	0.9397	0.0603	0.0011	0.7848	0.0021	0.2152	
308.15	0.872	0.0449	0.0011	0.8389	0.0018	0.158	
308.15	0.7915	0.0285	0.001	0.8647	0.0017	0.1305	
308.15	0.7514	0.0258	0.001	0.8821	0.0016	0.1127	
308.15	0.711	0.0212	0.001	0.8867	0.0016	0.1079	
308.15	0.6801	0.0166	0.001	0.897	0.002	0.0977	
308.15	0.6534	0.0138	0.001	0.8991	0.0016	0.0956	
308.15	0.6142	0.0119	0.001	0.9077	0.0016	0.0869	
308.15	0.5901	0.0107	0.001	0.9132	0.0016	0.0817	
308.15	0.5731	0.0087	0.001	0.9183	0.0016	0.0771	
308.15	0.5531	0.0073	0.001	0.9229	0.0015	0.0724	
308.15	0.5128	0.0057	0.001	0.9314	0.0015	0.0639	
