Measured thermophysical data. Phase equilibria and interfacial tensions in the systems methyl tert-butyl ether + acetone + cyclohexane, methyl tert-butyl ether + acetone and methyl tert-butyl ether + cyclohexane
Source: Fluid Phase Equilib., 2008, 10.1016/j.fluid.2008.08.012
Compound 1: cyclohexane, C6H12, InChI=1S/C6H12/c1-2-4-6-5-3-1/h1-6H2, purity 99.9%
Compound 2: 2-methoxy-2-methylpropane, C5H12O, InChI=1S/C5H12O/c1-5(2,3)6-4/h1-4H3
Compound 3: acetone, C3H6O, InChI=1S/C3H6O/c1-3(2)4/h1-2H3, purity 99.9%

System: cyclohexane; phases: Liquid
Property: Refractive index (Na D-line) (Liquid); method: Standard Abbe refractometry
Temperature, K	Pressure, kPa	Refractive index (Na D-line)	uncertainty
298.15	101.325	1.42508	0.00031

System: cyclohexane; phases: Liquid
Property: Mass density, kg/m3 (Liquid); method: VIBTUB:UFactor:2
Temperature, K	Pressure, kPa	Mass density, kg/m3	uncertainty
298.15	101.325	773.84	0.24

System: cyclohexane; phases: Liquid, Air at 1 atmosphere
Property: Surface tension liquid-gas, N/m (Liquid); method: Maximal bubble pressure
Temperature, K	Surface tension liquid-gas, N/m	uncertainty
303.15	0.0241	0.00026

System: cyclohexane; phases: Liquid, Gas
Property: Vapor or sublimation pressure, kPa (Liquid); method: Ebulliometric method (Recirculating still)
Temperature, K	Vapor or sublimation pressure, kPa	uncertainty
351.37	94	0.2

System: 2-methoxy-2-methylpropane; phases: Liquid
Property: Refractive index (Na D-line) (Liquid); method: Standard Abbe refractometry
Temperature, K	Pressure, kPa	Refractive index (Na D-line)	uncertainty
298.15	101.325	1.36766	0.00031

System: 2-methoxy-2-methylpropane; phases: Liquid
Property: Mass density, kg/m3 (Liquid); method: VIBTUB:UFactor:2
Temperature, K	Pressure, kPa	Mass density, kg/m3	uncertainty
298.15	101.325	735.45	0.27

System: 2-methoxy-2-methylpropane; phases: Liquid, Air at 1 atmosphere
Property: Surface tension liquid-gas, N/m (Liquid); method: Maximal bubble pressure
Temperature, K	Surface tension liquid-gas, N/m	uncertainty
303.15	0.0187	0.00025

System: 2-methoxy-2-methylpropane; phases: Liquid, Gas
Property: Vapor or sublimation pressure, kPa (Liquid); method: Ebulliometric method (Recirculating still)
Temperature, K	Vapor or sublimation pressure, kPa	uncertainty
301.31	38.06	0.09
303.21	41.03	0.09
305.59	45.05	0.09
308.33	50.06	0.1
310.85	55.05	0.1
313.2	60.06	0.11
315.39	65.03	0.11
317.47	70.07	0.12
319.41	75.05	0.12
321.27	80.08	0.13
323.02	85.05	0.13
324.7	90.06	0.14
325.98	94	0.14
326.31	95.05	0.14
328.24	101.34	0.14

System: acetone; phases: Liquid
Property: Refractive index (Na D-line) (Liquid); method: Standard Abbe refractometry
Temperature, K	Pressure, kPa	Refractive index (Na D-line)	uncertainty
298.15	101.325	1.35732	0.00031

System: acetone; phases: Liquid
Property: Mass density, kg/m3 (Liquid); method: VIBTUB:UFactor:2
Temperature, K	Pressure, kPa	Mass density, kg/m3	uncertainty
298.15	101.325	784.23	0.24

System: acetone; phases: Liquid, Air at 1 atmosphere
Property: Surface tension liquid-gas, N/m (Liquid); method: Maximal bubble pressure
Temperature, K	Surface tension liquid-gas, N/m	uncertainty
303.15	0.02245	0.00026

System: acetone; phases: Liquid, Gas
Property: Vapor or sublimation pressure, kPa (Liquid); method: Ebulliometric method (Recirculating still)
Temperature, K	Vapor or sublimation pressure, kPa	uncertainty
327.16	94	0.2

System: cyclohexane + 2-methoxy-2-methylpropane; phases: Liquid, Air at 1 atmosphere
Fixed: Temperature, K = 303.15
Property: Surface tension liquid-gas, N/m (Liquid); method: Maximal bubble pressure
Mole fraction of 2-methoxy-2-methylpropane	Surface tension liquid-gas, N/m	uncertainty
0.046	0.02339	0.00024
0.1	0.02297	0.00024
0.205	0.02223	0.00023
0.308	0.02157	0.00023
0.409	0.02103	0.00023
0.51	0.02058	0.00022
0.614	0.02012	0.00022
0.716	0.01971	0.00022
0.816	0.01934	0.00022
0.901	0.01905	0.00021
0.947	0.01889	0.00021

System: cyclohexane + 2-methoxy-2-methylpropane; phases: Liquid, Gas
Fixed: Pressure, kPa = 94
Property: Boiling temperature at pressure P, K (Liquid); method: Ebulliometric method (Recirculating still)
Mole fraction of 2-methoxy-2-methylpropane	Boiling temperature at pressure P, K	uncertainty
0	351.37	0.09
0.118	348.91	0.1
0.223	346.49	0.1
0.309	344.43	0.1
0.381	342.63	0.1
0.446	341.01	0.1
0.499	339.55	0.1
0.552	338.15	0.11
0.596	336.84	0.11
0.638	335.69	0.11
0.68	334.49	0.11
0.718	333.44	0.11
0.749	332.54	0.11
0.784	331.58	0.1
0.815	330.71	0.11
0.843	329.92	0.1
0.876	329.07	0.1
0.905	328.29	0.1
0.937	327.49	0.1
0.967	326.76	0.1
1	325.98	0.09

System: cyclohexane + 2-methoxy-2-methylpropane; phases: Liquid, Gas
Fixed: Pressure, kPa = 94
Property: Mole fraction of 2-methoxy-2-methylpropane (Liquid); method: Chromatography
Mole fraction of 2-methoxy-2-methylpropane	Mole fraction of 2-methoxy-2-methylpropane	uncertainty
0	0	0.001
0.118	0.046	0.002
0.223	0.095	0.002
0.309	0.143	0.003
0.381	0.189	0.003
0.446	0.235	0.003
0.499	0.282	0.003
0.552	0.33	0.004
0.596	0.379	0.004
0.638	0.427	0.004
0.68	0.481	0.005
0.718	0.529	0.005
0.749	0.576	0.005
0.784	0.629	0.005
0.815	0.678	0.005
0.843	0.726	0.004
0.876	0.779	0.004
0.905	0.832	0.004
0.937	0.886	0.004
0.967	0.94	0.004
1	1	0.001

System: acetone + 2-methoxy-2-methylpropane; phases: Liquid, Air at 1 atmosphere
Fixed: Temperature, K = 303.15
Property: Surface tension liquid-gas, N/m (Liquid); method: Maximal bubble pressure
Mole fraction of 2-methoxy-2-methylpropane	Surface tension liquid-gas, N/m	uncertainty
0.031	0.02214	0.00023
0.074	0.02176	0.00023
0.171	0.02113	0.00023
0.272	0.02059	0.00022
0.378	0.02009	0.00022
0.484	0.01975	0.00022
0.585	0.01947	0.00022
0.681	0.01922	0.00022
0.784	0.01898	0.00021
0.884	0.01874	0.00021
0.94	0.01855	0.00021

System: acetone + 2-methoxy-2-methylpropane; phases: Gas, Liquid
Fixed: Pressure, kPa = 94
Property: Boiling temperature at pressure P, K (Gas); method: Ebulliometric method (Recirculating still)
Mole fraction of 2-methoxy-2-methylpropane	Boiling temperature at pressure P, K	uncertainty
0	327.16	0.09
0.1	325.69	0.09
0.173	324.72	0.09
0.233	323.99	0.09
0.286	323.39	0.09
0.333	322.91	0.09
0.377	322.54	0.09
0.416	322.22	0.09
0.453	322.07	0.09
0.489	321.93	0.09
0.523	321.87	0.09
0.556	321.86	0.09
0.592	321.91	0.09
0.628	322.03	0.09
0.669	322.25	0.09
0.709	322.52	0.09
0.755	322.94	0.09
0.809	323.51	0.09
0.858	324.1	0.09
0.921	324.82	0.09
1	325.98	0.09

System: acetone + 2-methoxy-2-methylpropane; phases: Liquid, Gas
Fixed: Pressure, kPa = 94
Property: Mole fraction of 2-methoxy-2-methylpropane (Liquid); method: Chromatography
Mole fraction of 2-methoxy-2-methylpropane	Mole fraction of 2-methoxy-2-methylpropane	uncertainty
0	0	0.001
0.1	0.057	0.002
0.173	0.109	0.003
0.233	0.159	0.003
0.286	0.21	0.003
0.333	0.26	0.004
0.377	0.313	0.004
0.416	0.363	0.004
0.453	0.413	0.005
0.489	0.464	0.005
0.523	0.514	0.005
0.556	0.561	0.005
0.592	0.613	0.004
0.628	0.662	0.004
0.669	0.716	0.004
0.709	0.764	0.004
0.755	0.815	0.003
0.809	0.867	0.003
0.858	0.908	0.003
0.921	0.953	0.002
1	1	0.001

System: acetone + cyclohexane + 2-methoxy-2-methylpropane; phases: Liquid, Air at 1 atmosphere
Fixed: Temperature, K = 303.15
Property: Surface tension liquid-gas, N/m (Liquid); method: Maximal bubble pressure
Mole fraction of 2-methoxy-2-methylpropane	Mole fraction of acetone	Surface tension liquid-gas, N/m	uncertainty
0.029	0.514	0.0221	0.00023
0.037	0.287	0.02238	0.00023
0.055	0.431	0.02196	0.00023
0.08	0.093	0.02258	0.00024
0.081	0.201	0.0222	0.00023
0.086	0.712	0.02186	0.00023
0.092	0.821	0.02194	0.00023
0.093	0.5	0.02182	0.00023
0.095	0.604	0.02163	0.00023
0.124	0.299	0.02185	0.00023
0.124	0.528	0.02158	0.00023
0.149	0.378	0.02189	0.00023
0.182	0.089	0.02195	0.00023
0.195	0.5	0.02136	0.00023
0.195	0.715	0.02131	0.00023
0.201	0.196	0.02152	0.00023
0.202	0.603	0.02115	0.00023
0.217	0.416	0.02123	0.00023
0.229	0.307	0.02133	0.00023
0.247	0.535	0.02099	0.00023
0.288	0.089	0.02133	0.00023
0.298	0.5	0.02083	0.00023
0.308	0.603	0.02074	0.00022
0.315	0.195	0.02097	0.00023
0.349	0.311	0.02076	0.00022
0.352	0.405	0.02064	0.00022
0.392	0.553	0.0203	0.00022
0.394	0.089	0.02089	0.00023
0.403	0.497	0.02029	0.00022
0.43	0.189	0.02046	0.00022
0.468	0.406	0.02011	0.00022
0.48	0.312	0.02012	0.00022
0.497	0.09	0.0203	0.00022
0.54	0.19	0.01997	0.00022
0.568	0.401	0.0197	0.00022
0.601	0.093	0.01988	0.00022
0.614	0.318	0.01955	0.00022
0.643	0.196	0.01957	0.00022
0.703	0.094	0.01946	0.00022
0.745	0.194	0.01922	0.00022
0.801	0.099	0.01913	0.00022

System: acetone + cyclohexane + 2-methoxy-2-methylpropane; phases: Gas, Liquid
Fixed: Pressure, kPa = 94
Property: Mole fraction of acetone (Gas); method: Chromatography
Property: Mole fraction of acetone (Liquid); method: Chromatography
Property: Mole fraction of 2-methoxy-2-methylpropane (Liquid); method: Chromatography
Temperature, K	Mole fraction of 2-methoxy-2-methylpropane	Mole fraction of acetone	uncertainty	Mole fraction of acetone	uncertainty	Mole fraction of 2-methoxy-2-methylpropane	uncertainty
324.09	0.1	0.777	0.003	0.833	0.002	0.073	
340.29	0.174	0.202	0.003	0.031	0.002	0.093	
324.04	0.103	0.665	0.004	0.6	0.004	0.096	
323.83	0.131	0.748	0.003	0.802	0.003	0.1	
323.71	0.119	0.7	0.003	0.708	0.003	0.102	
325.2	0.105	0.609	0.004	0.404	0.004	0.103	
326.35	0.109	0.573	0.004	0.303	0.003	0.104	
324.27	0.109	0.642	0.004	0.533	0.004	0.105	
325.23	0.109	0.605	0.004	0.402	0.004	0.107	
332.96	0.159	0.385	0.004	0.095	0.002	0.114	
328.57	0.134	0.501	0.005	0.189	0.002	0.116	
323.69	0.19	0.741	0.003	0.806	0.002	0.141	
323.16	0.229	0.668	0.004	0.707	0.003	0.193	
323.37	0.209	0.627	0.004	0.606	0.003	0.194	
324.56	0.197	0.566	0.004	0.41	0.004	0.198	
323.52	0.208	0.609	0.004	0.559	0.004	0.199	
325.68	0.204	0.525	0.005	0.307	0.003	0.201	
323.83	0.205	0.591	0.004	0.503	0.004	0.202	
327.81	0.223	0.456	0.004	0.194	0.002	0.202	
331.72	0.279	0.332	0.004	0.095	0.002	0.213	
322.76	0.314	0.596	0.004	0.611	0.003	0.287	
323.93	0.286	0.527	0.005	0.414	0.004	0.29	
327	0.31	0.418	0.004	0.198	0.003	0.292	
323.17	0.299	0.558	0.004	0.512	0.004	0.293	
334.17	0.419	0.182	0.003	0.045	0.002	0.294	
325.07	0.294	0.48	0.005	0.307	0.003	0.296	
330.81	0.384	0.28	0.003	0.09	0.002	0.31	
323.27	0.373	0.494	0.005	0.418	0.004	0.381	
326.16	0.394	0.383	0.004	0.203	0.003	0.384	
322.54	0.395	0.527	0.005	0.514	0.004	0.385	
324.36	0.382	0.443	0.004	0.308	0.003	0.393	
329.51	0.478	0.247	0.003	0.09	0.002	0.409	
322.57	0.467	0.462	0.004	0.42	0.004	0.478	
325.28	0.479	0.349	0.004	0.207	0.003	0.483	
323.63	0.466	0.412	0.004	0.312	0.003	0.486	
330.4	0.595	0.145	0.002	0.051	0.002	0.498	
328.22	0.561	0.222	0.003	0.094	0.002	0.509	
324.4	0.561	0.321	0.003	0.21	0.003	0.583	
322.89	0.555	0.38	0.004	0.31	0.003	0.587	
327.18	0.638	0.198	0.003	0.094	0.002	0.605	
323.52	0.644	0.296	0.003	0.214	0.003	0.683	
327.66	0.742	0.118	0.002	0.054	0.002	0.694	
326.1	0.706	0.181	0.003	0.096	0.002	0.699	
325.04	0.775	0.166	0.003	0.098	0.002	0.795	
325.33	0.871	0.098	0.002	0.056	0.002	0.887	
