Measured thermophysical data. Refractive properties, speed of sound and FT-IR study of binary mixtures of N-formylmorpholine with some halobenzenes at 303.15, 308.15 and 313.15 K
Source: Fluid Phase Equilib., 2015, 10.1016/j.fluid.2014.12.012
Compound 1: N-formylmorpholine, C5H9NO2, InChI=1S/C5H9NO2/c7-5-6-1-3-8-4-2-6/h5H,1-4H2, purity 99.5%
Compound 2: fluorobenzene, C6H5F, InChI=1S/C6H5F/c7-6-4-2-1-3-5-6/h1-5H, purity 99.5%
Compound 3: chlorobenzene, C6H5Cl, InChI=1S/C6H5Cl/c7-6-4-2-1-3-5-6/h1-5H, purity 99.5%
Compound 4: bromobenzene, C6H5Br, InChI=1S/C6H5Br/c7-6-4-2-1-3-5-6/h1-5H, purity 99.5%

System: N-formylmorpholine; phases: Liquid
Fixed: Pressure, kPa = 101.325
Property: Refractive index (Na D-line) (Liquid); method: Standard Abbe refractometry
Temperature, K	Refractive index (Na D-line)	uncertainty
303.15	1.4833	0.0004
308.15	1.4819	0.0004
313.15	1.4799	0.0004

System: N-formylmorpholine; phases: Liquid
Fixed: Pressure, kPa = 101
Property: Speed of sound, m/s (Liquid); method: Sing-around technique in a fixed-path interferometer
Temperature, K	Speed of sound, m/s	uncertainty
303.15	1605	1
308.15	1587	1
313.15	1569	1
303.15	1605	1
308.15	1587	1
313.15	1569	1
303.15	1605	1
308.15	1587	1
313.15	1569	1

System: fluorobenzene; phases: Liquid
Fixed: Pressure, kPa = 101.325
Property: Refractive index (Na D-line) (Liquid); method: Standard Abbe refractometry
Temperature, K	Refractive index (Na D-line)	uncertainty
303.15	1.463	0.0004
308.15	1.4594	0.0004
313.15	1.4563	0.0004

System: fluorobenzene; phases: Liquid
Fixed: Pressure, kPa = 101
Property: Speed of sound, m/s (Liquid); method: Sing-around technique in a fixed-path interferometer
Temperature, K	Speed of sound, m/s	uncertainty
303.15	1145	1
308.15	1125	1
313.15	1105	1

System: chlorobenzene; phases: Liquid
Fixed: Pressure, kPa = 101.325
Property: Refractive index (Na D-line) (Liquid); method: Standard Abbe refractometry
Temperature, K	Refractive index (Na D-line)	uncertainty
303.15	1.516	0.0004
308.15	1.515	0.0004
313.15	1.5143	0.0004

System: chlorobenzene; phases: Liquid
Fixed: Pressure, kPa = 101
Property: Speed of sound, m/s (Liquid); method: Sing-around technique in a fixed-path interferometer
Temperature, K	Speed of sound, m/s	uncertainty
303.15	1250	1
308.15	1232	1
313.15	1213	1

System: bromobenzene; phases: Liquid
Fixed: Pressure, kPa = 101.325
Property: Refractive index (Na D-line) (Liquid); method: Standard Abbe refractometry
Temperature, K	Refractive index (Na D-line)	uncertainty
303.15	1.5561	0.0004
308.15	1.5534	0.0004
313.15	1.5497	0.0004

System: bromobenzene; phases: Liquid
Fixed: Pressure, kPa = 101
Property: Speed of sound, m/s (Liquid); method: Sing-around technique in a fixed-path interferometer
Temperature, K	Speed of sound, m/s	uncertainty
303.15	1138	1
308.15	1123	1
313.15	1108	1

System: fluorobenzene + N-formylmorpholine; phases: Liquid
Fixed: Pressure, kPa = 101
Property: Refractive index (Na D-line) (Liquid); method: Standard Abbe refractometry
Temperature, K	Mole fraction of N-formylmorpholine	Refractive index (Na D-line)	uncertainty
303.15	0	1.463	0.0004
303.15	0.1	1.4676	0.0004
303.15	0.2	1.4713	0.0004
303.15	0.3	1.4745	0.0004
303.15	0.4	1.4769	0.0004
303.15	0.5	1.4789	0.0004
303.15	0.6	1.4805	0.0004
303.15	0.7	1.4815	0.0004
303.15	0.8	1.4825	0.0004
303.15	0.9	1.4832	0.0004
303.15	1	1.4833	0.0004
308.15	0	1.4594	0.0004
308.15	0.1	1.4631	0.0004
308.15	0.2	1.4666	0.0004
308.15	0.3	1.47	0.0004
308.15	0.4	1.4727	0.0004
308.15	0.5	1.475	0.0004
308.15	0.6	1.4769	0.0004
308.15	0.7	1.4785	0.0004
308.15	0.8	1.4799	0.0004
308.15	0.9	1.481	0.0004
308.15	1	1.4819	0.0004
313.15	0	1.4563	0.0004
313.15	0.1	1.46	0.0004
313.15	0.2	1.4636	0.0004
313.15	0.3	1.4671	0.0004
313.15	0.4	1.4699	0.0004
313.15	0.5	1.4723	0.0004
313.15	0.6	1.4742	0.0004
313.15	0.7	1.4758	0.0004
313.15	0.8	1.4773	0.0004
313.15	0.9	1.4786	0.0004
313.15	1	1.4799	0.0004

System: fluorobenzene + N-formylmorpholine; phases: Liquid
Fixed: Pressure, kPa = 101
Property: Speed of sound, m/s (Liquid); method: Sing-around technique in a fixed-path interferometer
Temperature, K	Mole fraction of N-formylmorpholine	Speed of sound, m/s	uncertainty
303.15	0	1145	1
303.15	0.0946	1198	1
303.15	0.1904	1247	1
303.15	0.2873	1295	1
303.15	0.3854	1343	1
303.15	0.4847	1392	1
303.15	0.5853	1437	1
303.15	0.687	1478	1
303.15	0.79	1522	1
303.15	0.8944	1565	1
303.15	1	1605	1
308.15	0	1125	1
308.15	0.0946	1178	1
308.15	0.1904	1227	1
308.15	0.2873	1276	1
308.15	0.3854	1325	1
308.15	0.4847	1373	1
308.15	0.5853	1418	1
308.15	0.687	1458	1
308.15	0.79	1503	1
308.15	0.8944	1546	1
308.15	1	1587	1
313.15	0	1105	1
313.15	0.0946	1159	1
313.15	0.1904	1208	1
313.15	0.2873	1257	1
313.15	0.3854	1306	1
313.15	0.4847	1355	1
313.15	0.5853	1400	1
313.15	0.687	1441	1
313.15	0.79	1485	1
313.15	0.8944	1529	1
313.15	1	1569	1

System: chlorobenzene + N-formylmorpholine; phases: Liquid
Fixed: Pressure, kPa = 101
Property: Refractive index (Na D-line) (Liquid); method: Standard Abbe refractometry
Temperature, K	Mole fraction of N-formylmorpholine	Refractive index (Na D-line)	uncertainty
303.15	0	1.516	0.0004
303.15	0.1	1.5148	0.0004
303.15	0.2	1.5126	0.0004
303.15	0.3	1.5101	0.0004
303.15	0.4	1.5073	0.0004
303.15	0.5	1.5041	0.0004
303.15	0.6	1.5005	0.0004
303.15	0.7	1.4965	0.0004
303.15	0.8	1.4923	0.0004
303.15	0.9	1.4879	0.0004
303.15	1	1.4833	0.0004
308.15	0	1.515	0.0004
308.15	0.1	1.5136	0.0004
308.15	0.2	1.5114	0.0004
308.15	0.3	1.5089	0.0004
308.15	0.4	1.5059	0.0004
308.15	0.5	1.5024	0.0004
308.15	0.6	1.4985	0.0004
308.15	0.7	1.4944	0.0004
308.15	0.8	1.4903	0.0004
308.15	0.9	1.4861	0.0004
308.15	1	1.4819	0.0004
313.15	0	1.5143	0.0004
313.15	0.1	1.5119	0.0004
313.15	0.2	1.5094	0.0004
313.15	0.3	1.5068	0.0004
313.15	0.4	1.5037	0.0004
313.15	0.5	1.4999	0.0004
313.15	0.6	1.4958	0.0004
313.15	0.7	1.4917	0.0004
313.15	0.8	1.4876	0.0004
313.15	0.9	1.4836	0.0004
313.15	1	1.4799	0.0004

System: chlorobenzene + N-formylmorpholine; phases: Liquid
Fixed: Pressure, kPa = 101
Property: Speed of sound, m/s (Liquid); method: Sing-around technique in a fixed-path interferometer
Temperature, K	Mole fraction of N-formylmorpholine	Speed of sound, m/s	uncertainty
303.15	0	1250	1
303.15	0.1017	1285	1
303.15	0.203	1321	1
303.15	0.3039	1356	1
303.15	0.4045	1393	1
303.15	0.5046	1427	1
303.15	0.6044	1464	1
303.15	0.7039	1499	1
303.15	0.8029	1535	1
303.15	0.9017	1571	1
303.15	1	1605	1
308.15	0	1232	1
308.15	0.1017	1267	1
308.15	0.203	1303	1
308.15	0.3039	1338	1
308.15	0.4045	1375	1
308.15	0.5046	1409	1
308.15	0.6044	1446	1
308.15	0.7039	1480	1
308.15	0.8029	1517	1
308.15	0.9017	1553	1
308.15	1	1587	1
313.15	0	1213	1
313.15	0.1017	1249	1
313.15	0.203	1285	1
313.15	0.3039	1321	1
313.15	0.4045	1357	1
313.15	0.5046	1391	1
313.15	0.6044	1428	1
313.15	0.7039	1463	1
313.15	0.8029	1499	1
313.15	0.9017	1535	1
313.15	1	1569	1

System: bromobenzene + N-formylmorpholine; phases: Liquid
Fixed: Pressure, kPa = 101
Property: Refractive index (Na D-line) (Liquid); method: Standard Abbe refractometry
Temperature, K	Mole fraction of N-formylmorpholine	Refractive index (Na D-line)	uncertainty
303.15	0	1.5561	0.0004
303.15	0.1	1.5491	0.0004
303.15	0.2	1.542	0.0004
303.15	0.3	1.5349	0.0004
303.15	0.4	1.5277	0.0004
303.15	0.5	1.5205	0.0004
303.15	0.6	1.5132	0.0004
303.15	0.7	1.5058	0.0004
303.15	0.8	1.4983	0.0004
303.15	0.9	1.4908	0.0004
303.15	1	1.4833	0.0004
308.15	0	1.5534	0.0004
308.15	0.1	1.5465	0.0004
308.15	0.2	1.5395	0.0004
308.15	0.3	1.5325	0.0004
308.15	0.4	1.5254	0.0004
308.15	0.5	1.5183	0.0004
308.15	0.6	1.5111	0.0004
308.15	0.7	1.5038	0.0004
308.15	0.8	1.4965	0.0004
308.15	0.9	1.4892	0.0004
308.15	1	1.4819	0.0004
313.15	0	1.5497	0.0004
313.15	0.1	1.5428	0.0004
313.15	0.2	1.536	0.0004
313.15	0.3	1.5292	0.0004
313.15	0.4	1.5223	0.0004
313.15	0.5	1.5154	0.0004
313.15	0.6	1.5083	0.0004
313.15	0.7	1.5012	0.0004
313.15	0.8	1.4941	0.0004
313.15	0.9	1.487	0.0004
313.15	1	1.4799	0.0004

System: bromobenzene + N-formylmorpholine; phases: Liquid
Fixed: Pressure, kPa = 101
Property: Speed of sound, m/s (Liquid); method: Sing-around technique in a fixed-path interferometer
Temperature, K	Mole fraction of N-formylmorpholine	Speed of sound, m/s	uncertainty
303.15	0	1138	1
303.15	0.1046	1179	1
303.15	0.2081	1220	1
303.15	0.3106	1263	1
303.15	0.412	1307	1
303.15	0.5124	1352	1
303.15	0.6119	1400	1
303.15	0.7103	1450	1
303.15	0.8078	1500	1
303.15	0.9044	1551	1
303.15	1	1605	1
308.15	0	1123	1
308.15	0.1046	1163	1
308.15	0.2081	1204	1
308.15	0.3106	1246	1
308.15	0.412	1290	1
308.15	0.5124	1336	1
308.15	0.6119	1383	1
308.15	0.7103	1432	1
308.15	0.8078	1483	1
308.15	0.9044	1534	1
308.15	1	1587	1
313.15	0	1108	1
313.15	0.1046	1147	1
313.15	0.2081	1189	1
313.15	0.3106	1231	1
313.15	0.412	1274	1
313.15	0.5124	1319	1
313.15	0.6119	1367	1
313.15	0.7103	1415	1
313.15	0.8078	1466	1
313.15	0.9044	1516	1
313.15	1	1569	1
