Measured thermophysical data. Vapor-liquid equilibrium in the binary and ternary systems containing ethyl propionate, ethanol and alkane at 101.3 kPa
Source: Fluid Phase Equilib., 2018, 10.1016/j.fluid.2018.07.013
Compound 1: ethyl propanoate, C5H10O2, InChI=1S/C5H10O2/c1-3-5(6)7-4-2/h3-4H2,1-2H3, purity 98.9%
Compound 2: ethanol, C2H6O, InChI=1S/C2H6O/c1-2-3/h3H,2H2,1H3, purity 99.7%
Compound 3: cyclohexane, C6H12, InChI=1S/C6H12/c1-2-4-6-5-3-1/h1-6H2, purity 99.5%
Compound 4: hexane, C6H14, InChI=1S/C6H14/c1-3-5-6-4-2/h3-6H2,1-2H3, purity 97%
Compound 5: octane, C8H18, InChI=1S/C8H18/c1-3-5-7-8-6-4-2/h3-8H2,1-2H3, purity 96%

System: ethanol + cyclohexane; phases: Liquid, Gas
Fixed: Pressure, kPa = 101.3
Property: Boiling temperature at pressure P, K (Liquid); method: Ebulliometric method (Recirculating still)
Mole fraction of ethanol	Boiling temperature at pressure P, K	uncertainty
0.9973	348.85	0.48
0.989	347.55	0.46
0.9742	346.55	0.37
0.9499	344.75	0.33
0.9119	342.75	0.29
0.8775	341.45	0.26
0.828	340.05	0.24
0.7849	339.35	0.22
0.6917	338.55	0.22
0.6425	338.35	0.22
0.5693	337.95	0.22
0.5401	337.85	0.22
0.4345	337.65	0.22
0.3227	337.75	0.22
0.2734	337.85	0.22
0.1393	338.75	0.22
0.0648	340.55	0.59
0.0526	342.15	0.78
0.0352	345.75	1.02
0.0303	347.65	1.15
0.0245	348.65	0.97
0.0192	350.15	1.71
0.0157	351.35	1.42
0.0144	352.75	1.57
0.0102	353.45	0.73

System: ethanol + cyclohexane; phases: Gas, Liquid
Fixed: Pressure, kPa = 101.3
Property: Mole fraction of ethanol (Gas); method: Chromatography
Mole fraction of ethanol	Mole fraction of ethanol	uncertainty
0.9973	0.8973	0.0179
0.989	0.8431	0.0181
0.9742	0.796	0.0134
0.9499	0.723	0.0103
0.9119	0.652	0.0087
0.8775	0.5942	0.0075
0.828	0.5361	0.0065
0.7849	0.5084	0.0056
0.6917	0.4763	0.0053
0.6425	0.4742	0.0052
0.5693	0.4668	0.0052
0.5401	0.4564	0.0051
0.4345	0.4482	0.005
0.3227	0.4457	0.005
0.2734	0.453	0.005
0.1393	0.468	0.0051
0.0648	0.4281	0.0092
0.0526	0.4052	0.0109
0.0352	0.3595	0.0159
0.0303	0.316	0.0285
0.0245	0.287	0.0314
0.0192	0.2332	0.0633
0.0157	0.2066	0.0618
0.0144	0.1341	0.077
0.0102	0.0688	0.0654

System: ethanol + hexane; phases: Liquid, Gas
Fixed: Pressure, kPa = 101.3
Property: Boiling temperature at pressure P, K (Liquid); method: Ebulliometric method (Recirculating still)
Mole fraction of ethanol	Boiling temperature at pressure P, K	uncertainty
0.9987	350.75	1.29
0.9975	347.55	1.49
0.994	346.15	4.12
0.9931	344.95	2.49
0.9616	342.15	0.44
0.9408	340.15	0.42
0.921	338.65	0.39
0.9052	337.45	0.29
0.8657	336.05	0.27
0.8282	334.65	0.25
0.7868	333.85	0.23
0.6554	332.65	0.23
0.5533	332.45	0.23
0.3842	332.15	0.23
0.3076	332.45	0.24
0.2009	333.45	0.25
0.1348	334.95	0.28
0.088	337.15	0.31
0.0462	339.05	0.31

System: ethanol + hexane; phases: Gas, Liquid
Fixed: Pressure, kPa = 101.3
Property: Mole fraction of ethanol (Gas); method: Chromatography
Mole fraction of ethanol	Mole fraction of ethanol	uncertainty
0.9987	0.9444	0.0556
0.9975	0.8271	0.1729
0.994	0.7782	0.2218
0.9931	0.7355	0.2183
0.9616	0.6382	0.2005
0.9408	0.5734	0.2004
0.921	0.5339	0.2002
0.9052	0.5202	0.2001
0.8657	0.4965	0.2001
0.8282	0.4818	0.2001
0.7868	0.4533	0.2001
0.6554	0.4333	0.2001
0.5533	0.4177	0.2001
0.3842	0.3842	0.2001
0.3076	0.3679	0.2001
0.2009	0.3288	0.2001
0.1348	0.2586	0.2001
0.088	0.1944	0.1944
0.0462	0.1137	0.1137

System: ethanol + octane; phases: Liquid, Gas
Fixed: Pressure, kPa = 101.3
Property: Boiling temperature at pressure P, K (Liquid); method: Ebulliometric method (Recirculating still)
Mole fraction of ethanol	Boiling temperature at pressure P, K	uncertainty
0.995	351.55	0.43
0.987	350.85	0.41
0.9771	350.05	0.33
0.9599	349.25	0.24
0.9306	348.85	0.22
0.8256	348.65	0.22
0.7212	349.05	0.23
0.6844	349.45	0.23
0.5523	349.85	0.23
0.4902	350.35	0.24
0.3612	351.35	0.25
0.2746	352.25	0.26
0.2146	353.55	0.29
0.1269	357.35	0.34
0.0911	360.35	0.56
0.0707	364.25	1.01
0.0587	368.05	1.51
0.0502	371.55	2.17
0.0308	382.15	2.26
0.0238	385.55	1.84
0.0116	390.55	1.74

System: ethanol + octane; phases: Gas, Liquid
Fixed: Pressure, kPa = 101.3
Property: Mole fraction of ethanol (Gas); method: Chromatography
Mole fraction of ethanol	Mole fraction of ethanol	uncertainty
0.995	0.9635	0.0365
0.987	0.9379	0.0621
0.9771	0.9116	0.0884
0.9599	0.9009	0.0991
0.9306	0.8653	0.1347
0.8256	0.8589	0.1411
0.7212	0.8477	0.1523
0.6844	0.845	0.155
0.5523	0.8399	0.1601
0.4902	0.836	0.164
0.3612	0.8291	0.1709
0.2746	0.8186	0.1814
0.2146	0.8096	0.1904
0.1269	0.7708	0.2
0.0911	0.7536	0.2001
0.0707	0.7306	0.2002
0.0587	0.7005	0.2003
0.0502	0.6858	0.2003
0.0308	0.6359	0.2007
0.0238	0.5779	0.2102
0.0116	0.3497	0.2149

System: cyclohexane + ethyl propanoate; phases: Liquid, Gas
Fixed: Pressure, kPa = 101.3
Property: Boiling temperature at pressure P, K (Liquid); method: Ebulliometric method (Recirculating still)
Mole fraction of cyclohexane	Boiling temperature at pressure P, K	uncertainty
0.0338	371.13	0.29
0.0626	369.88	0.28
0.0752	369.48	0.25
0.1016	368.73	0.25
0.1293	367.93	0.25
0.166	367.04	0.25
0.2051	365.99	0.25
0.2561	364.64	0.24
0.3074	363.59	0.24
0.3595	362.49	0.23
0.4118	361.7	0.23
0.4772	360.65	0.23
0.5364	359.7	0.23
0.5789	358.9	0.23
0.635	358.45	0.22
0.6758	358	0.23
0.719	357.45	0.23
0.7899	356.65	0.23
0.8728	355.61	0.23
0.9258	354.81	0.23
0.9578	354.56	0.22

System: cyclohexane + ethyl propanoate; phases: Gas, Liquid
Fixed: Pressure, kPa = 101.3
Property: Mole fraction of cyclohexane (Gas); method: Chromatography
Mole fraction of cyclohexane	Mole fraction of cyclohexane	uncertainty
0.0338	0.1152	0.1152
0.0626	0.2163	0.2005
0.0752	0.2593	0.2003
0.1016	0.317	0.2003
0.1293	0.3924	0.2002
0.166	0.445	0.2001
0.2051	0.4899	0.2001
0.2561	0.528	0.2001
0.3074	0.5676	0.2001
0.3595	0.6109	0.2001
0.4118	0.6358	0.2
0.4772	0.6623	0.2
0.5364	0.6948	0.2
0.5789	0.7191	0.2
0.635	0.7404	0.2
0.6758	0.7605	0.2
0.719	0.7831	0.2
0.7899	0.8286	0.1714
0.8728	0.8847	0.1153
0.9258	0.9251	0.0749
0.9578	0.9551	0.0449

System: hexane + ethyl propanoate; phases: Liquid, Gas
Fixed: Pressure, kPa = 101.3
Property: Boiling temperature at pressure P, K (Liquid); method: Ebulliometric method (Recirculating still)
Mole fraction of hexane	Boiling temperature at pressure P, K	uncertainty
0.0079	371.17	0.37
0.0134	370.78	0.48
0.025	369.49	0.4
0.0602	367.02	0.35
0.0922	365.24	0.36
0.1054	363.95	0.4
0.1269	362.46	0.28
0.1824	360.79	0.28
0.2095	359.25	0.27
0.2597	358.02	0.26
0.2991	356.53	0.28
0.3454	354.56	0.27
0.3878	353.57	0.25
0.434	352.36	0.26
0.473	351.07	0.26
0.524	349.97	0.26
0.5701	348.68	0.25
0.6774	347.09	0.25
0.7417	346.29	0.25
0.7669	345.79	0.25
0.8122	345.09	0.25
0.8574	344.2	0.26

System: hexane + ethyl propanoate; phases: Gas, Liquid
Fixed: Pressure, kPa = 101.3
Property: Mole fraction of hexane (Gas); method: Chromatography
Mole fraction of hexane	Mole fraction of hexane	uncertainty
0.0079	0.0555	0.0555
0.0134	0.0891	0.0891
0.025	0.1442	0.1442
0.0602	0.2951	0.2005
0.0922	0.3723	0.2004
0.1054	0.4286	0.2004
0.1269	0.4648	0.2002
0.1824	0.5181	0.2002
0.2095	0.5497	0.2002
0.2597	0.574	0.2002
0.2991	0.6111	0.2002
0.3454	0.6471	0.2002
0.3878	0.6818	0.2002
0.434	0.7171	0.2002
0.473	0.743	0.2001
0.524	0.7606	0.2001
0.5701	0.7942	0.2001
0.6774	0.8385	0.1615
0.7417	0.8559	0.1441
0.7669	0.8768	0.1232
0.8122	0.8926	0.1074
0.8574	0.9219	0.0781

System: octane + ethyl propanoate; phases: Liquid, Gas
Fixed: Pressure, kPa = 101.3
Property: Boiling temperature at pressure P, K (Liquid); method: Ebulliometric method (Recirculating still)
Mole fraction of octane	Boiling temperature at pressure P, K	uncertainty
0.9775	396.85	0.46
0.9563	394.95	0.42
0.9329	393.45	0.35
0.9027	391.95	0.34
0.8707	390.25	0.34
0.8357	388.55	0.34
0.8005	386.65	0.35
0.7723	384.95	0.31
0.7323	383.65	0.29
0.7007	382.65	0.28
0.6419	381.15	0.27
0.5913	379.65	0.27
0.5498	378.55	0.25
0.4787	377.65	0.25
0.4396	376.85	0.25
0.4006	376.35	0.24
0.3328	375.65	0.24
0.2636	374.75	0.24
0.2261	374.25	0.23
0.1824	373.85	0.23
0.1116	373.25	0.23
0.0592	372.75	0.23

System: octane + ethyl propanoate; phases: Gas, Liquid
Fixed: Pressure, kPa = 101.3
Property: Mole fraction of octane (Gas); method: Chromatography
Mole fraction of octane	Mole fraction of octane	uncertainty
0.9775	0.9088	0.0912
0.9563	0.8366	0.1634
0.9329	0.7784	0.2004
0.9027	0.7072	0.2004
0.8707	0.6595	0.2003
0.8357	0.6078	0.2004
0.8005	0.554	0.2003
0.7723	0.5215	0.2003
0.7323	0.476	0.2003
0.7007	0.4425	0.2002
0.6419	0.3987	0.2001
0.5913	0.3528	0.2001
0.5498	0.316	0.2001
0.4787	0.2594	0.2
0.4396	0.2359	0.2
0.4006	0.215	0.2
0.3328	0.1716	0.1716
0.2636	0.1325	0.1325
0.2261	0.1154	0.1154
0.1824	0.0928	0.0928
0.1116	0.076	0.076
0.0592	0.0461	0.0461

System: ethanol + ethyl propanoate; phases: Liquid, Gas
Fixed: Pressure, kPa = 101.3
Property: Boiling temperature at pressure P, K (Liquid); method: Ebulliometric method (Recirculating still)
Mole fraction of ethanol	Boiling temperature at pressure P, K	uncertainty
0.0131	371.45	0.29
0.0398	370.25	0.28
0.0759	368.95	0.28
0.1335	366.35	0.28
0.206	363.55	0.27
0.2453	362.35	0.28
0.2772	360.55	0.3
0.3157	359.05	0.26
0.3743	357.55	0.25
0.4029	356.8	0.24
0.4475	355.95	0.23
0.4894	355.15	0.23
0.5121	354.75	0.23
0.5551	354.15	0.23
0.5982	353.75	0.23
0.6512	352.75	0.22
0.7176	352.7	0.22
0.7305	352.55	0.22
0.8098	352.45	0.22
0.8999	352.3	0.22
0.9703	352	0.22

System: ethanol + ethyl propanoate; phases: Gas, Liquid
Fixed: Pressure, kPa = 101.3
Property: Mole fraction of ethanol (Gas); method: Chromatography
Mole fraction of ethanol	Mole fraction of ethanol	uncertainty
0.0131	0.0435	0.0435
0.0398	0.1682	0.1682
0.0759	0.2663	0.2003
0.1335	0.413	0.2002
0.206	0.4979	0.2001
0.2453	0.5375	0.2001
0.2772	0.5577	0.2001
0.3157	0.5871	0.2001
0.3743	0.6294	0.2001
0.4029	0.6531	0.2
0.4475	0.6782	0.2
0.4894	0.7005	0.2
0.5121	0.7073	0.2
0.5551	0.7244	0.2
0.5982	0.7379	0.2
0.6512	0.7651	0.2
0.7176	0.7884	0.2002
0.7305	0.8121	0.1879
0.8098	0.8732	0.1268
0.8999	0.9185	0.0815
0.9703	0.9792	0.0208

System: ethanol + cyclohexane + ethyl propanoate; phases: Liquid, Gas
Fixed: Pressure, kPa = 101.3
Property: Mole fraction of cyclohexane (Liquid); method: Chromatography
Property: Mole fraction of cyclohexane (Gas); method: Chromatography
Property: Mole fraction of ethanol (Gas); method: Chromatography
Temperature, K	Mole fraction of ethanol	Mole fraction of cyclohexane	uncertainty	Mole fraction of cyclohexane	uncertainty	Mole fraction of ethanol	uncertainty
369.95	0.0312	0.0266	0.0064	0.0644	0.007	0.153	
355.75	0.2328	0.1555	0.0065	0.2585	0.0074	0.4439	
343.75	0.6189	0.233	0.0066	0.3224	0.0076	0.5206	
342.45	0.6755	0.2243	0.0066	0.3429	0.0076	0.518	
341.55	0.6861	0.2472	0.0066	0.3519	0.0077	0.5162	
340.95	0.6916	0.267	0.0067	0.3726	0.0077	0.506	
370.75	0.0043	0.0277	0.0064	0.0566	0.007	0.023	
369.55	0.0047	0.0514	0.0064	0.1033	0.0071	0.036	
367.55	0.0114	0.0958	0.0064	0.1782	0.0072	0.0675	
365.95	0.0201	0.1238	0.0065	0.2155	0.0073	0.0958	
363.85	0.0344	0.1811	0.0065	0.3012	0.0075	0.1258	
362.85	0.0387	0.1953	0.0066	0.3272	0.0076	0.1444	
353.45	0.2436	0.169	0.0065	0.2525	0.0073	0.4447	
361.95	0.0407	0.2077	0.0066	0.3323	0.0076	0.1657	
359.65	0.0529	0.2742	0.0067	0.4078	0.008	0.1778	
358.75	0.0539	0.3	0.0068	0.4278	0.0081	0.1843	
357.15	0.0608	0.3347	0.0069	0.4514	0.0082	0.2192	
355.55	0.0681	0.3757	0.007	0.4716	0.0083	0.2342	
353.85	0.0812	0.4262	0.0071	0.4914	0.0084	0.2527	
352.45	0.0911	0.4682	0.0073	0.5063	0.0084	0.2668	
351.55	0.1014	0.5058	0.0074	0.5262	0.0083	0.2682	
350.55	0.1016	0.5469	0.0073	0.536	0.0083	0.2767	
349.45	0.101	0.5989	0.0071	0.5731	0.0081	0.2503	
351.65	0.2825	0.188	0.0065	0.2678	0.0074	0.4502	
347.25	0.113	0.6704	0.0069	0.6091	0.008	0.2514	
346.15	0.1401	0.6949	0.0068	0.6063	0.008	0.2532	
344.85	0.1069	0.7368	0.0067	0.6312	0.0079	0.1803	
344.7	0.114	0.7734	0.0066	0.6511	0.0078	0.1918	
343.15	0.1181	0.8206	0.0065	0.6601	0.0078	0.219	
349.35	0.3213	0.2234	0.0066	0.2929	0.0075	0.464	
347.25	0.3568	0.2501	0.0066	0.3042	0.0075	0.4601	
345.65	0.3859	0.2756	0.0067	0.3211	0.0076	0.4594	
344.25	0.4409	0.3027	0.0068	0.3384	0.0076	0.4641	
342.35	0.5052	0.3278	0.0068	0.3433	0.0076	0.4959	
341.95	0.5308	0.3405	0.0068	0.3598	0.0077	0.4785	
341.15	0.5572	0.3746	0.0069	0.368	0.0077	0.4778	
368.85	0.0398	0.0387	0.0064	0.095	0.007	0.1925	
340.25	0.5594	0.4045	0.007	0.3843	0.0078	0.4808	
369.85	0.032	0.0062	0.0062	0.0166	0.007	0.1089	
367.15	0.0957	0.0112	0.0064	0.0472	0.007	0.2509	
365.95	0.1061	0.0099	0.0064	0.0353	0.007	0.2705	
363.75	0.1545	0.0111	0.0064	0.0444	0.007	0.3375	
362.05	0.2066	0.0124	0.0064	0.049	0.007	0.4245	
360.95	0.1966	0.0084	0.0064	0.0215	0.007	0.3901	
358.45	0.2916	0.0149	0.0064	0.049	0.007	0.4754	
356.85	0.3239	0.0159	0.0064	0.061	0.007	0.5042	
355.35	0.3705	0.0221	0.0064	0.0824	0.007	0.5381	
367.75	0.0379	0.0373	0.0064	0.118	0.0071	0.1559	
353.75	0.4428	0.0324	0.0064	0.1166	0.0071	0.582	
351.35	0.499	0.0686	0.0064	0.1872	0.0072	0.5887	
349.25	0.5419	0.082	0.0064	0.2161	0.0072	0.5754	
348.95	0.6243	0.0949	0.0064	0.2503	0.0073	0.6201	
348.3	0.6599	0.0858	0.0064	0.2386	0.0073	0.6369	
347.25	0.7164	0.0897	0.0064	0.2464	0.0073	0.6415	
346.45	0.7418	0.1026	0.0064	0.2559	0.0073	0.6589	
345.8	0.7689	0.1016	0.0064	0.2479	0.0073	0.6678	
345.15	0.8338	0.1021	0.0064	0.2556	0.0073	0.7105	
344.55	0.8299	0.118	0.0065	0.2645	0.0074	0.6962	
365.15	0.0858	0.069	0.0064	0.1536	0.0071	0.2727	
343.85	0.8409	0.1186	0.0065	0.2501	0.0073	0.6734	
343.65	0.8378	0.1274	0.0065	0.2631	0.0074	0.6636	
369.75	0.0261	0.0404	0.0064	0.0783	0.007	0.1029	
369.15	0.0259	0.0514	0.0064	0.1074	0.0071	0.1111	
368.45	0.0304	0.0587	0.0064	0.1241	0.0071	0.1442	
367.15	0.0391	0.0722	0.0064	0.1671	0.0072	0.1638	
364.65	0.0632	0.0938	0.0064	0.1735	0.0072	0.236	
362.85	0.0795	0.112	0.0064	0.1999	0.0072	0.2643	
361.55	0.0927	0.133	0.0065	0.2128	0.0072	0.3001	
359.25	0.1163	0.1544	0.0065	0.2412	0.0073	0.3207	
363.5	0.097	0.0662	0.0064	0.1671	0.0071	0.2819	
357.85	0.125	0.1737	0.0065	0.2618	0.0074	0.3261	
355.95	0.1528	0.1993	0.0066	0.2713	0.0074	0.3732	
353.85	0.1681	0.2229	0.0066	0.3042	0.0075	0.3858	
351.65	0.2019	0.2557	0.0067	0.3226	0.0076	0.3902	
349.35	0.2196	0.2802	0.0067	0.3303	0.0076	0.4171	
348.35	0.2485	0.2943	0.0067	0.3452	0.0076	0.4254	
347.25	0.2708	0.3277	0.0068	0.3566	0.0077	0.4195	
345.55	0.3188	0.3685	0.0069	0.3738	0.0078	0.429	
344.05	0.3466	0.3939	0.007	0.3877	0.0078	0.4414	
342.55	0.392	0.4425	0.0072	0.3933	0.0078	0.4488	
361.75	0.1433	0.0833	0.0064	0.1802	0.0072	0.3687	
341.55	0.4118	0.4586	0.0072	0.4005	0.0079	0.4514	
340.85	0.4504	0.4575	0.0072	0.4125	0.0079	0.4566	
339.55	0.4642	0.4978	0.0073	0.4278	0.008	0.4573	
370.05	0.0256	0.0201	0.0064	0.0374	0.007	0.1141	
369.45	0.0436	0.0184	0.0064	0.0301	0.007	0.1819	
367.55	0.0758	0.0144	0.0064	0.0446	0.007	0.2311	
366.15	0.0992	0.0097	0.0064	0.0476	0.007	0.2628	
363.95	0.1701	0.0134	0.0064	0.0527	0.007	0.3603	
361.95	0.2141	0.0138	0.0064	0.0611	0.007	0.4282	
360.45	0.2633	0.016	0.0064	0.0683	0.007	0.4991	
359.65	0.1498	0.0974	0.0064	0.1951	0.0072	0.3719	
358.05	0.3015	0.0205	0.0064	0.077	0.007	0.5008	
356.55	0.3558	0.0274	0.0064	0.099	0.0071	0.5384	
355.45	0.3951	0.0353	0.0064	0.1147	0.0071	0.5635	
352.55	0.4071	0.0752	0.0064	0.1673	0.0071	0.5386	
351.35	0.5012	0.0708	0.0064	0.225	0.0073	0.5644	
350.55	0.5617	0.0581	0.0064	0.2298	0.0073	0.5901	
349.25	0.6467	0.0634	0.0064	0.2038	0.0072	0.6352	
348.75	0.734	0.0509	0.0064	0.177	0.0072	0.7065	
348.55	0.7604	0.0537	0.0064	0.1634	0.0071	0.7444	
348.25	0.8108	0.0447	0.0064	0.1507	0.0071	0.7674	
357.65	0.2052	0.1243	0.0065	0.2263	0.0073	0.4205	
348.05	0.8444	0.0394	0.0064	0.1418	0.0071	0.7725	
348.25	0.8688	0.0419	0.0064	0.1452	0.0071	0.828	
347.95	0.9539	0.037	0.0064	0.1376	0.0071	0.854	
371.05	0.0115	0.0076	0.0064	0.0332	0.007	0.0089	
370.55	0.0219	0.0113	0.0064	0.0386	0.007	0.0902	
369.05	0.0468	0.0172	0.0064	0.0552	0.007	0.1409	
367.95	0.0562	0.0126	0.0064	0.0402	0.007	0.1862	
365.55	0.0906	0.0178	0.0064	0.0556	0.007	0.2416	
363.65	0.1296	0.03	0.0064	0.0762	0.007	0.3255	
359.95	0.1618	0.066	0.0064	0.1274	0.0071	0.4365	
355.85	0.218	0.1466	0.0065	0.2485	0.0073	0.43	
357.15	0.2532	0.0721	0.0064	0.166	0.0071	0.4518	
355.45	0.2704	0.0834	0.0064	0.1871	0.0072	0.4632	
354.15	0.3112	0.109	0.0064	0.2151	0.0072	0.4867	
351.75	0.3443	0.138	0.0065	0.2453	0.0073	0.4822	
349.95	0.3767	0.1643	0.0065	0.2543	0.0073	0.4985	
348.75	0.4098	0.1685	0.0065	0.2715	0.0074	0.4993	
347.25	0.4735	0.2058	0.0066	0.3154	0.0075	0.4961	
346.35	0.5124	0.2003	0.0066	0.327	0.0076	0.5002	
345.25	0.5369	0.2205	0.0066	0.3044	0.0075	0.506	
344.45	0.5603	0.2325	0.0066	0.3126	0.0075	0.5041	

System: ethanol + hexane + ethyl propanoate; phases: Liquid, Gas
Fixed: Pressure, kPa = 101.3
Property: Mole fraction of hexane (Liquid); method: Chromatography
Property: Mole fraction of hexane (Gas); method: Chromatography
Property: Mole fraction of ethanol (Gas); method: Chromatography
Temperature, K	Mole fraction of ethanol	Mole fraction of hexane	uncertainty	Mole fraction of hexane	uncertainty	Mole fraction of ethanol	uncertainty
371.15	0.0028	0.0065	0.0065	0.0202	0.0072	0.0092	
353.55	0.1449	0.1656	0.0101	0.3658	0.0084	0.2593	
341.65	0.7291	0.0783	0.01	0.2456	0.0076	0.5939	
340.65	0.7567	0.0915	0.01	0.2824	0.0077	0.5835	
339.65	0.77	0.0991	0.01	0.2957	0.0078	0.5662	
339.25	0.8154	0.095	0.01	0.3161	0.0079	0.5694	
338.45	0.8493	0.093	0.01	0.3318	0.008	0.5591	
337.25	0.841	0.12	0.01	0.3414	0.0081	0.5371	
369.65	0.0281	0.0025	0.0025	0.0056	0.0056	0.0875	
367.25	0.066	0.0015	0.0015	0.0033	0.0033	0.1879	
365.45	0.1016	0.0018	0.0018	0.004	0.004	0.2698	
363.95	0.1368	0.0018	0.0018	0.0041	0.0041	0.3421	
350.95	0.1722	0.2011	0.0101	0.4187	0.009	0.2814	
361.95	0.2017	0.0012	0.0012	0.0028	0.0028	0.4625	
359.85	0.3014	0.0014	0.0014	0.0037	0.0037	0.6209	
357.75	0.3672	0.0006	0.0006	0.0017	0.0017	0.6814	
356.15	0.419	0.0006	0.0006	0.0018	0.0018	0.7146	
353.15	0.4528	0.0067	0.0067	0.0191	0.0072	0.6781	
351.15	0.5194	0.0212	0.01	0.0637	0.0072	0.6972	
350.35	0.5703	0.0226	0.01	0.0737	0.0072	0.7191	
348.95	0.6649	0.024	0.01	0.0937	0.0072	0.7438	
348.25	0.7296	0.027	0.01	0.1227	0.0073	0.758	
347.55	0.8047	0.0251	0.01	0.1452	0.0073	0.7688	
347.45	0.1889	0.2254	0.0101	0.4263	0.0092	0.2704	
346.75	0.8571	0.0234	0.01	0.1669	0.0073	0.7642	
346.85	0.1974	0.2422	0.0102	0.4496	0.0095	0.2777	
342.35	0.2536	0.3228	0.0103	0.5238	0.0105	0.306	
340.15	0.2782	0.3675	0.0104	0.5474	0.0105	0.3125	
338.45	0.3053	0.4176	0.0106	0.5717	0.0105	0.3273	
336.85	0.3191	0.46	0.0108	0.5749	0.0105	0.3278	
335.75	0.3386	0.4829	0.011	0.5699	0.0105	0.3354	
334.75	0.3532	0.5174	0.011	0.5657	0.0104	0.3426	
370.45	0.0071	0.011	0.01	0.0337	0.0072	0.0228	
334.15	0.3717	0.5305	0.011	0.5569	0.0104	0.3528	
333.25	0.3948	0.5527	0.011	0.5395	0.0104	0.3641	
370.45	0.0178	0.003	0.003	0.0094	0.0072	0.0571	
369.55	0.0321	0.0017	0.0017	0.0053	0.0053	0.0995	
367.75	0.0678	0.0028	0.0028	0.0088	0.0072	0.1966	
366.35	0.0905	0.0005	0.0005	0.0016	0.0016	0.2486	
364.75	0.1222	0.0016	0.0016	0.0051	0.0051	0.3154	
363.15	0.1557	0.0059	0.0059	0.0188	0.0072	0.3774	
360.35	0.1765	0.0195	0.01	0.0592	0.0072	0.3856	
354.05	0.2267	0.0576	0.01	0.1554	0.0073	0.3902	
368.75	0.0179	0.0218	0.01	0.0648	0.0072	0.0543	
352.25	0.2575	0.0662	0.01	0.177	0.0074	0.4112	
350.85	0.2845	0.0755	0.01	0.2008	0.0074	0.4281	
349.55	0.3218	0.0639	0.01	0.1753	0.0074	0.4523	
348.55	0.3545	0.0793	0.01	0.2195	0.0075	0.4761	
346.05	0.4271	0.1009	0.01	0.2845	0.0077	0.5074	
344.15	0.4953	0.109	0.01	0.3201	0.0079	0.5281	
343.05	0.5177	0.1358	0.01	0.3828	0.0084	0.5275	
341.55	0.5548	0.1305	0.01	0.3751	0.0083	0.5186	
340.15	0.5957	0.1605	0.0101	0.44	0.0091	0.5199	
339.15	0.6329	0.1514	0.0101	0.432	0.009	0.5148	
366.75	0.0376	0.0389	0.01	0.1122	0.0073	0.1067	
337.85	0.6331	0.1914	0.0101	0.4719	0.0097	0.4977	
336.95	0.654	0.2078	0.0101	0.4831	0.0099	0.4928	
335.95	0.6627	0.2291	0.0101	0.4847	0.0099	0.4816	
335.25	0.6837	0.2333	0.0101	0.478	0.0098	0.4769	
334.65	0.6856	0.2582	0.0102	0.4735	0.0097	0.4726	
334.15	0.6753	0.2878	0.0102	0.4672	0.0096	0.4672	
370.75	0.0062	0.0085	0.0085	0.0189	0.0072	0.0201	
369.25	0.0102	0.0264	0.01	0.0562	0.0072	0.0316	
368.35	0.0137	0.0348	0.01	0.0725	0.0072	0.0412	
364.55	0.0243	0.0768	0.01	0.144	0.0073	0.0645	
364.95	0.0546	0.055	0.01	0.1542	0.0073	0.1456	
362.65	0.0291	0.1025	0.01	0.1816	0.0074	0.0726	
359.75	0.0366	0.1337	0.01	0.2176	0.0075	0.0828	
357.45	0.0437	0.1613	0.0101	0.2452	0.0076	0.0916	
355.15	0.0538	0.2139	0.0101	0.301	0.0079	0.1055	
353.15	0.058	0.2276	0.0101	0.3017	0.0079	0.1058	
351.55	0.0654	0.2662	0.0102	0.3335	0.0082	0.114	
349.85	0.0782	0.3126	0.0103	0.3693	0.0085	0.1305	
347.35	0.0985	0.4063	0.0106	0.433	0.0094	0.1573	
344.75	0.1105	0.4961	0.0111	0.4693	0.0101	0.1691	
342.35	0.1178	0.5492	0.0111	0.4699	0.0101	0.1702	
362.05	0.0792	0.0779	0.01	0.2074	0.0075	0.1909	
340.85	0.1384	0.5864	0.011	0.4736	0.0101	0.1938	
339.35	0.1435	0.627	0.011	0.4714	0.0101	0.1959	
337.85	0.1492	0.6687	0.0109	0.467	0.01	0.1993	
336.65	0.1641	0.7105	0.0108	0.4652	0.0099	0.2178	
335.65	0.173	0.7566	0.0106	0.4639	0.0099	0.2321	
334.45	0.1754	0.7734	0.0106	0.4498	0.0096	0.2281	
370.65	0.0114	0.0096	0.0096	0.0214	0.0072	0.0369	
369.85	0.0226	0.0133	0.01	0.0295	0.0072	0.0712	
366.95	0.0553	0.0263	0.01	0.0563	0.0072	0.1571	
364.25	0.0831	0.0376	0.01	0.0776	0.0072	0.2142	
359.95	0.0986	0.0952	0.01	0.2443	0.0076	0.2206	
361.95	0.116	0.0499	0.01	0.1008	0.0073	0.2747	
360.25	0.1445	0.0594	0.01	0.1188	0.0073	0.3208	
358.95	0.1628	0.064	0.01	0.1265	0.0073	0.3437	
352.85	0.2211	0.0912	0.01	0.1619	0.0073	0.3683	
346.95	0.2997	0.1356	0.01	0.2184	0.0075	0.3934	
344.95	0.3439	0.1647	0.0101	0.258	0.0076	0.4154	
343.55	0.378	0.182	0.0101	0.2802	0.0077	0.429	
341.45	0.4235	0.2151	0.0101	0.3144	0.0079	0.4393	
339.95	0.4617	0.2402	0.0102	0.3358	0.0081	0.4478	
338.45	0.4889	0.2633	0.0102	0.3456	0.0081	0.4447	
357.75	0.1127	0.1158	0.01	0.2826	0.0078	0.2334	
337.45	0.4962	0.3122	0.0103	0.3643	0.0083	0.4433	
336.25	0.5285	0.3215	0.0103	0.3574	0.0082	0.4438	
335.25	0.5439	0.3362	0.0103	0.3502	0.0082	0.4379	
334.25	0.5739	0.343	0.0103	0.3379	0.0081	0.4374	
333.35	0.5789	0.3692	0.0104	0.3277	0.008	0.4306	
332.95	0.5839	0.381	0.0104	0.3214	0.008	0.4291	
369.95	0.0308	0.0036	0.0036	0.0081	0.0072	0.097	
369.25	0.0459	0.0027	0.0027	0.0061	0.0061	0.1407	
366.85	0.0845	0.001	0.001	0.0023	0.0023	0.2366	
363.95	0.1454	0.0038	0.0038	0.0087	0.0072	0.3634	
355.55	0.1261	0.1382	0.01	0.3195	0.008	0.2417	
361.95	0.1814	0.0035	0.0035	0.008	0.0072	0.4181	
355.95	0.268	0.0214	0.01	0.047	0.0072	0.4848	
353.85	0.3026	0.0294	0.01	0.0639	0.0072	0.5007	
352.45	0.3411	0.0415	0.01	0.0914	0.0072	0.5296	
350.35	0.405	0.0542	0.01	0.1233	0.0073	0.5666	
348.05	0.4914	0.0506	0.01	0.1258	0.0073	0.5999	
346.85	0.5527	0.0562	0.01	0.15	0.0073	0.6218	
345.45	0.6067	0.0669	0.01	0.1866	0.0074	0.626	
344.35	0.6453	0.0745	0.01	0.2138	0.0075	0.6224	
342.45	0.695	0.0796	0.01	0.2361	0.0075	0.6001	

System: ethanol + octane + ethyl propanoate; phases: Liquid, Gas
Fixed: Pressure, kPa = 101.3
Property: Mole fraction of octane (Liquid); method: Chromatography
Property: Mole fraction of octane (Gas); method: Chromatography
Property: Mole fraction of ethanol (Gas); method: Chromatography
Temperature, K	Mole fraction of ethanol	Mole fraction of octane	uncertainty	Mole fraction of octane	uncertainty	Mole fraction of ethanol	uncertainty
368.25	0.0549	0.0025	0.0025	0.0012	0.0012	0.1632	
355.15	0.4492	0.0148	0.0058	0.0088	0.0046	0.7139	
370.85	0.0523	0.0076	0.0058	0.0041	0.0041	0.0913	
366.05	0.1279	0.0099	0.0058	0.0051	0.0046	0.2855	
358.85	0.3231	0.0157	0.0058	0.0086	0.0046	0.5782	
357.45	0.3674	0.0175	0.0058	0.0098	0.0046	0.63	
355.65	0.4339	0.0187	0.0058	0.011	0.0046	0.6982	
355.05	0.4819	0.0182	0.0058	0.0115	0.0046	0.7373	
354.25	0.4898	0.0203	0.0058	0.0126	0.0046	0.7501	
353.7	0.5367	0.0228	0.0058	0.0153	0.0046	0.7855	
353.25	0.5756	0.0251	0.0058	0.0179	0.0046	0.8138	
352.45	0.5977	0.0229	0.0058	0.0167	0.0046	0.8333	
354.15	0.4925	0.017	0.0058	0.0106	0.0046	0.7529	
352.15	0.635	0.0258	0.0058	0.0202	0.0046	0.857	
351.95	0.6624	0.027	0.0058	0.0225	0.0046	0.8733	
351.85	0.6924	0.0287	0.0058	0.0257	0.0046	0.8894	
351.5	0.717	0.0287	0.0058	0.0272	0.0046	0.903	
351.1	0.7589	0.0267	0.0058	0.0284	0.0046	0.9238	
351.05	0.7624	0.0277	0.0058	0.0297	0.0046	0.9246	
350.9	0.7866	0.0263	0.0058	0.0305	0.0046	0.9345	
350.8	0.8081	0.0264	0.0058	0.033	0.0046	0.9406	
350.65	0.8304	0.0283	0.0058	0.0381	0.0046	0.9436	
350.6	0.8487	0.0351	0.0058	0.0495	0.0046	0.9384	
353.3	0.5563	0.0221	0.0058	0.0152	0.0046	0.8014	
350.55	0.8911	0.0332	0.0058	0.0569	0.0046	0.9386	
352.9	0.6244	0.0253	0.0058	0.0199	0.0046	0.8465	
351.7	0.6899	0.0338	0.0058	0.0296	0.0046	0.8867	
351.05	0.7294	0.0364	0.0058	0.0345	0.0046	0.9064	
350.7	0.8378	0.0328	0.0058	0.0448	0.0046	0.9398	
350.75	0.8913	0.0295	0.0058	0.0519	0.0046	0.9433	
351.05	0.918	0.0258	0.0058	0.0539	0.0046	0.9439	
351.25	0.9055	0.0538	0.0058	0.0907	0.0047	0.9076	
367.15	0.0827	0.0047	0.0047	0.0024	0.0024	0.2174	
370.95	0.0184	0.0223	0.0058	0.0115	0.0046	0.0618	
370.45	0.0261	0.0278	0.0058	0.0143	0.0046	0.086	
370.35	0.0285	0.0507	0.0058	0.0259	0.0046	0.1006	
369.05	0.051	0.0942	0.0058	0.0471	0.0046	0.1734	
367.55	0.0731	0.1171	0.0059	0.0571	0.0046	0.2385	
365.75	0.1266	0.1212	0.0059	0.0598	0.0046	0.326	
363.85	0.1556	0.1395	0.0059	0.0667	0.0046	0.3938	
362.35	0.1849	0.1507	0.0059	0.0709	0.0046	0.4473	
360.25	0.2644	0.1629	0.0059	0.079	0.0046	0.5417	
359.15	0.2817	0.1726	0.0059	0.082	0.0047	0.5718	
365	0.1264	0.0066	0.0058	0.0033	0.0033	0.3071	
358.05	0.3013	0.1938	0.006	0.0898	0.0047	0.6037	
356.65	0.3497	0.1992	0.006	0.0931	0.0047	0.6523	
355.95	0.3672	0.2181	0.006	0.1002	0.0047	0.6738	
355.15	0.4121	0.2236	0.006	0.1049	0.0047	0.7086	
354.65	0.446	0.2204	0.006	0.1062	0.0047	0.7313	
353.35	0.4726	0.2358	0.0061	0.1097	0.0047	0.7591	
353.05	0.4921	0.2464	0.0061	0.1143	0.0047	0.7725	
352.35	0.5446	0.2524	0.0061	0.1191	0.0047	0.8028	
352.25	0.588	0.2555	0.0061	0.1241	0.0047	0.8218	
351.75	0.6633	0.2448	0.0061	0.1262	0.0047	0.8497	
364.25	0.1522	0.0088	0.0058	0.0044	0.0044	0.3459	
351.65	0.6843	0.2692	0.0061	0.1302	0.0047	0.8591	
351.55	0.7071	0.2698	0.0061	0.1301	0.0047	0.8653	
371.95	0.0048	0.0353	0.0058	0.0184	0.0046	0.0245	
372.15	0.0083	0.1124	0.0059	0.0585	0.0046	0.0546	
372.9	0.0117	0.1844	0.006	0.0974	0.0047	0.0639	
375.15	0.0148	0.2496	0.0061	0.1404	0.0048	0.0255	
376.15	0.0167	0.287	0.0062	0.1658	0.0048	0.0117	
377.15	0.0058	0.3947	0.0069	0.2275	0.0052	0.011	
376.65	0.0046	0.4565	0.0075	0.2555	0.0054	0.0484	
376.95	0.0052	0.4895	0.008	0.275	0.0055	0.0537	
361.7	0.2072	0.0114	0.0058	0.0057	0.0046	0.442	
377.95	0.0038	0.5432	0.0081	0.3115	0.006	0.0463	
378.45	0.0038	0.5427	0.0081	0.3162	0.006	0.0316	
379.45	0.0043	0.6039	0.008	0.3595	0.0067	0.033	
380.75	0.009	0.6156	0.008	0.3823	0.0072	0.0079	
381.15	0.0094	0.6757	0.0078	0.4208	0.0082	0.0336	
381.55	0.013	0.7174	0.0076	0.4504	0.009	0.0576	
378.75	0.0316	0.7087	0.0077	0.4125	0.0078	0.1552	
377.15	0.0412	0.7418	0.0075	0.4097	0.0076	0.2339	
370.45	0.057	0.7741	0.0073	0.3434	0.0062	0.4215	
371.15	0.0147	0.03	0.0058	0.0155	0.0046	0.0557	
360.85	0.2696	0.0161	0.0058	0.0086	0.0046	0.5067	
369.85	0.0215	0.0829	0.0058	0.0409	0.0046	0.121	
369.55	0.0279	0.1313	0.0059	0.0641	0.0046	0.153	
367.65	0.0631	0.1858	0.006	0.0881	0.0047	0.2497	
366.55	0.0764	0.2009	0.006	0.093	0.0047	0.2911	
365.15	0.0923	0.2187	0.006	0.098	0.0047	0.3399	
364.15	0.1053	0.2418	0.0061	0.1057	0.0047	0.377	
363.65	0.1153	0.2616	0.0061	0.1131	0.0047	0.3996	
361.55	0.1407	0.2977	0.0063	0.1217	0.0047	0.4664	
359.85	0.1758	0.3226	0.0064	0.128	0.0047	0.5246	
358.65	0.2103	0.3378	0.0065	0.1323	0.0047	0.5688	
359.45	0.2844	0.0134	0.0058	0.007	0.0046	0.54	
357.9	0.2229	0.3611	0.0066	0.1377	0.0048	0.5931	
356.9	0.2543	0.3835	0.0067	0.1434	0.0048	0.6311	
354.35	0.3241	0.424	0.007	0.1479	0.0048	0.7119	
353.45	0.4022	0.4444	0.0072	0.1525	0.0048	0.7697	
352.75	0.4128	0.4614	0.0074	0.1513	0.0048	0.7868	
352.65	0.4088	0.4919	0.0077	0.1542	0.0048	0.7962	
352.15	0.4645	0.4762	0.0075	0.1494	0.0048	0.824	
351.45	0.4763	0.476	0.0075	0.1451	0.0048	0.8344	
369.25	0.0451	0.0129	0.0058	0.0066	0.0046	0.1313	
366.45	0.0923	0.0254	0.0058	0.0125	0.0046	0.2506	
358.5	0.3244	0.0151	0.0058	0.0082	0.0046	0.5841	
361.45	0.1934	0.0379	0.0058	0.0183	0.0046	0.4427	
359.85	0.2237	0.0454	0.0058	0.0216	0.0046	0.4955	
358.45	0.2538	0.0528	0.0058	0.0249	0.0046	0.5413	
357.55	0.2938	0.0563	0.0058	0.0274	0.0046	0.5828	
356.55	0.3196	0.0621	0.0058	0.0302	0.0046	0.6149	
355.55	0.3611	0.0659	0.0058	0.033	0.0046	0.655	
355	0.3765	0.0691	0.0058	0.0347	0.0046	0.6716	
354.5	0.413	0.0722	0.0058	0.0378	0.0046	0.7	
354.1	0.4207	0.0748	0.0058	0.039	0.0046	0.7092	
353.85	0.4481	0.0782	0.0058	0.0422	0.0046	0.7283	
356.15	0.3963	0.0136	0.0058	0.0077	0.0046	0.6661	
353.15	0.4933	0.0853	0.0058	0.0482	0.0046	0.7614	
352.75	0.5126	0.0974	0.0058	0.0553	0.0046	0.7756	
352.55	0.5483	0.1011	0.0058	0.0604	0.0046	0.7962	
351.55	0.6762	0.0995	0.0058	0.0733	0.0046	0.8617	
351.05	0.7098	0.1043	0.0058	0.08	0.0047	0.8742	
350.55	0.7389	0.1056	0.0058	0.0843	0.0047	0.8835	
350.45	0.7619	0.1119	0.0059	0.0918	0.0047	0.886	
350.35	0.7859	0.1132	0.0059	0.0971	0.0047	0.8882	
350.15	0.8122	0.117	0.0059	0.1041	0.0047	0.888	
350.35	0.8367	0.1261	0.0059	0.1145	0.0047	0.8824	
