Measured thermophysical data. Water activity and activity coefficients of the mixed electrolytes {yNH4Cl + (1-y)NH4NO3} (aq) at 298.15K
Source: Fluid Phase Equilib., 2005, 10.1016/j.fluid.2005.07.011
Compound 1: ammonium chloride (NH4Cl), ClH4N, InChI=1S/ClH.H3N/h1H;1H3, purity 99%
Compound 2: ammonium nitrate, H4N2O3, InChI=1S/NO3.H3N/c2-1(3)4;/h;1H3/q-1;/p+1, purity 99%
Compound 3: water, H2O, InChI=1S/H2O/h1H2

System: ammonium nitrate + water + ammonium chloride (NH4Cl); phases: Liquid
Fixed: Temperature, K = 298.15
Fixed: Pressure, kPa = 101.325
Property: (Relative) activity of water (Liquid); method: hygrometric method
Molality, mol/kg of ammonium chloride (NH4Cl)	Molality, mol/kg of ammonium nitrate	(Relative) activity of water	uncertainty
0.1	0.1	0.9935	0.0004
0.1	0.4	0.9845	0.0004
0.2	0.2	0.9873	0.0004
0.3	0.3	0.9812	0.0004
0.3	1.2	0.9565	0.0004
0.4	0.1	0.9841	0.0004
0.5	0.5	0.969	0.001
0.5	2	0.931	0.002
0.7	2.8	0.907	0.002
0.8	0.8	0.952	0.001
0.9	3.6	0.884	0.004
1	1	0.94	0.002
1.1	4.4	0.864	0.004
1.2	0.3	0.953	0.002
1.3	5.2	0.847	0.004
1.5	6	0.831	0.004
1.7	6.8	0.818	0.004
2	0.5	0.923	0.002
2	2	0.886	0.004
2	8	0.803	0.004
2.8	0.7	0.892	0.004
3	3	0.838	0.004
3.6	0.9	0.863	0.004
4	4	0.798	0.004
4.3	4.3	0.788	0.004
4.4	1.1	0.835	0.004
4.8	1.2	0.821	0.004
5.2	1.3	0.808	0.004
5.6	1.4	0.796	0.004
6	1.5	0.783	0.004
