Measured thermophysical data. Thermodynamic study of perfluorohexane + ether mixtures VLE, LLE, and HE
Source: Fluid Phase Equilib., 2008, 10.1016/j.fluid.2008.04.021
Compound 1: perfluorohexane, C6F14, InChI=1S/C6F14/c7-1(8,3(11,12)5(15,16)17)2(9,10)4(13,14)6(18,19)20
Compound 2: diethyl ether, C4H10O, InChI=1S/C4H10O/c1-3-5-4-2/h3-4H2,1-2H3
Compound 3: dipropyl ether, C6H14O, InChI=1S/C6H14O/c1-3-5-7-6-4-2/h3-6H2,1-2H3
Compound 4: dibutyl ether, C8H18O, InChI=1S/C8H18O/c1-3-5-7-9-8-6-4-2/h3-8H2,1-2H3
Compound 5: butyl methyl ether, C5H12O, InChI=1S/C5H12O/c1-3-4-5-6-2/h3-5H2,1-2H3
Compound 6: butyl ethyl ether, C6H14O, InChI=1S/C6H14O/c1-3-5-6-7-4-2/h3-6H2,1-2H3

System: dipropyl ether + perfluorohexane; phases: Liquid, Gas
Fixed: Temperature, K = 298.15
Property: Excess molar enthalpy (molar enthalpy of mixing), kJ/mol (Liquid); method: FLOW:UFactor:2
Mole fraction of perfluorohexane	Excess molar enthalpy (molar enthalpy of mixing), kJ/mol	uncertainty
0	0	0.002
0.05	0.572	0.013
0.1	1.041	0.023
0.15	1.422	0.03
0.2	1.727	0.037
0.25	1.967	0.041
0.3	2.152	0.045
0.35	2.288	0.048
0.4	2.381	0.05
0.45	2.435	0.051
0.5	2.453	0.051
0.55	2.435	0.051
0.6	2.38	0.05
0.65	2.286	0.048
0.7	2.149	0.045
0.75	1.962	0.041
0.8	1.72	0.036
0.85	1.413	0.03
0.9	1.032	0.023
0.95	0.565	0.013
1	0	0.002

System: dipropyl ether + perfluorohexane; phases: Liquid, Gas
Property: Azeotropic pressure, kPa (Liquid); method: calculated
Temperature, K	Azeotropic pressure, kPa	uncertainty
323.15	84.53	0.71

System: dipropyl ether + perfluorohexane; phases: Liquid mixture 1, Liquid mixture 2
Fixed: Pressure, kPa = 101
Property: Liquid-liquid equilibrium temperature, K (Liquid mixture 1); method: VISOBS:UFactor:8
Mole fraction of perfluorohexane	Liquid-liquid equilibrium temperature, K	uncertainty
0.113	305.7	1.3
0.203	315.7	1.2
0.301	318.4	1.2
0.333	320.2	1.2
0.393	322.2	1.3
0.399	321.2	1.3
0.483	320.7	1.3
0.496	318.7	1.2
0.529	318.2	1.2
0.613	315.2	1.2
0.723	305.2	1.3
0.825	295.8	1.3

System: dipropyl ether + perfluorohexane; phases: Liquid, Gas
Property: Azeotropic composition: mole fraction of perfluorohexane (Liquid); method: calculated
Temperature, K	Azeotropic composition: mole fraction of perfluorohexane	uncertainty
323.15	0.81	0.003

System: dipropyl ether + perfluorohexane; phases: Gas, Liquid
Property: Mole fraction of perfluorohexane (Gas); method: Chromatography
Mole fraction of perfluorohexane	Temperature, K	Mole fraction of perfluorohexane	uncertainty
0.0104	298.15	0.4128	0.006
0.0228	323.15	0.361	0.005
0.0357	298.15	0.6514	0.0062
0.0392	323.15	0.4708	0.0072
0.0705	298.15	0.7297	0.0051
0.0713	323.15	0.5795	0.007
0.1091	298.15	0.7563	0.0047
0.1536	323.15	0.6758	0.0059
0.1766	323.15	0.6874	0.0057
0.2229	323.15	0.7029	0.0055
0.2786	323.15	0.7141	0.0053
0.2907	323.15	0.7159	0.0053
0.385	323.15	0.7263	0.0052
0.3937	323.15	0.7271	0.0051
0.4945	323.15	0.7363	0.005
0.5845	323.15	0.7469	0.0048
0.5888	323.15	0.7476	0.0048
0.6461	323.15	0.7572	0.0047
0.6779	298.15	0.7577	0.0047
0.6962	323.15	0.7681	0.0045
0.7462	323.15	0.7825	0.0043
0.7509	323.15	0.784	0.004
0.7966	323.15	0.8017	0.004
0.8107	298.15	0.7785	0.0044
0.8549	323.15	0.8328	0.0034
0.9023	298.15	0.8248	0.0036
0.9293	298.15	0.8516	0.0031
0.9426	323.15	0.9104	0.002
0.9601	323.15	0.9332	0.0015

System: dibutyl ether + perfluorohexane; phases: Liquid, Gas
Fixed: Temperature, K = 298.15
Property: Excess molar enthalpy (molar enthalpy of mixing), kJ/mol (Liquid); method: FLOW:UFactor:2
Mole fraction of perfluorohexane	Excess molar enthalpy (molar enthalpy of mixing), kJ/mol	uncertainty
0	0	0.002
0.05	0.603	0.014
0.1	1.067	0.023
0.15	1.415	0.03
0.2	1.671	0.035
0.25	1.855	0.039
0.3	1.981	0.042
0.35	2.066	0.043
0.4	2.118	0.044
0.45	2.147	0.045
0.5	2.156	0.045
0.55	2.147	0.045
0.6	2.119	0.044
0.65	2.067	0.043
0.7	1.984	0.042
0.75	1.858	0.039
0.8	1.677	0.036
0.85	1.423	0.03
0.9	1.074	0.023
0.95	0.609	0.014
1	0	0.002

System: dibutyl ether + perfluorohexane; phases: Liquid mixture 1, Liquid mixture 2
Fixed: Pressure, kPa = 101
Property: Liquid-liquid equilibrium temperature, K (Liquid mixture 1); method: VISOBS
Mole fraction of perfluorohexane	Liquid-liquid equilibrium temperature, K	uncertainty
0.067	307.2	0.8
0.113	323.2	0.6
0.164	329.2	0.5
0.815	329.2	0.5
0.891	317.2	0.6
0.968	297.2	0.7

System: dibutyl ether + perfluorohexane; phases: Gas, Liquid
Fixed: Temperature, K = 313.15
Property: Mole fraction of perfluorohexane (Gas); method: Chromatography
Mole fraction of perfluorohexane	Mole fraction of perfluorohexane	uncertainty
0.0114	0.8568	0.0029
0.0213	0.9092	0.0019
0.0373	0.9369	0.0014
0.0583	0.95	0.0011
0.9236	0.9732	0.0006
0.9467	0.9786	0.0005
0.9754	0.9754	0.0006

System: perfluorohexane + butyl methyl ether; phases: Liquid, Gas
Fixed: Temperature, K = 298.15
Property: Excess molar enthalpy (molar enthalpy of mixing), kJ/mol (Liquid); method: FLOW:UFactor:2
Mole fraction of perfluorohexane	Excess molar enthalpy (molar enthalpy of mixing), kJ/mol	uncertainty
0	0	0.002
0.05	0.618	0.014
0.1	1.086	0.024
0.15	1.438	0.031
0.2	1.699	0.036
0.25	1.891	0.04
0.3	2.032	0.043
0.35	2.132	0.045
0.4	2.2	0.046
0.45	2.24	0.047
0.5	2.254	0.047
0.55	2.239	0.047
0.6	2.194	0.046
0.65	2.112	0.044
0.7	1.988	0.042
0.75	1.815	0.038
0.8	1.586	0.034
0.85	1.295	0.028
0.9	0.937	0.021
0.95	0.506	0.012
1	0	0.002

System: perfluorohexane + butyl methyl ether; phases: Liquid, Gas
Property: Azeotropic pressure, kPa (Liquid); method: calculated
Temperature, K	Azeotropic pressure, kPa	uncertainty
317.65	84.68	0.71

System: perfluorohexane + butyl methyl ether; phases: Liquid mixture 1, Liquid mixture 2
Fixed: Pressure, kPa = 101
Property: Liquid-liquid equilibrium temperature, K (Liquid mixture 1); method: VISOBS
Mole fraction of perfluorohexane	Liquid-liquid equilibrium temperature, K	uncertainty
0.107	303.2	0.5
0.143	308.3	0.5
0.185	310.9	0.4
0.227	312.2	0.4
0.301	312.6	0.4
0.4	313.2	0.4
0.43	312.9	0.4
0.468	312.4	0.4
0.499	311.4	0.4
0.529	310.9	0.4
0.569	309.7	0.4
0.616	307.7	0.4
0.656	305.2	0.5
0.688	302.3	0.5
0.716	299.7	0.5
0.744	296.3	1
0.774	273	1.6

System: perfluorohexane + butyl methyl ether; phases: Liquid, Gas
Property: Azeotropic composition: mole fraction of perfluorohexane (Liquid); method: calculated
Temperature, K	Azeotropic composition: mole fraction of perfluorohexane	uncertainty
317.65	0.59	0.006

System: perfluorohexane + butyl methyl ether; phases: Gas, Liquid
Property: Mole fraction of perfluorohexane (Gas); method: Chromatography
Mole fraction of perfluorohexane	Temperature, K	Mole fraction of perfluorohexane	uncertainty
0.0173	298.15	0.313	0.004
0.0354	298.15	0.4381	0.0065
0.0421	317.65	0.3673	0.0052
0.054	298.15	0.501	0.008
0.0752	298.15	0.5393	0.0074
0.0952	298.15	0.5594	0.0072
0.1193	298.15	0.573	0.007
0.1401	317.65	0.5165	0.0077
0.2421	317.65	0.5419	0.0074
0.3362	317.65	0.5493	0.0073
0.4435	317.65	0.5581	0.0072
0.5552	317.65	0.5748	0.0071
0.657	317.65	0.6016	0.0068
0.693	298.15	0.5988	0.0068
0.7453	298.15	0.6141	0.0066
0.7627	317.65	0.6492	0.0062
0.8512	298.15	0.6725	0.0059
0.8583	317.65	0.7251	0.0052
0.9249	298.15	0.7638	0.0046
0.9582	298.15	0.8382	0.0033
0.9582	317.65	0.8814	0.0025

System: perfluorohexane + butyl ethyl ether; phases: Liquid, Gas
Fixed: Temperature, K = 298.15
Property: Excess molar enthalpy (molar enthalpy of mixing), kJ/mol (Liquid); method: FLOW:UFactor:2
Mole fraction of perfluorohexane	Excess molar enthalpy (molar enthalpy of mixing), kJ/mol	uncertainty
0	0	0.002
0.05	0.611	0.014
0.1	1.083	0.024
0.15	1.444	0.031
0.2	1.716	0.036
0.25	1.919	0.04
0.3	2.068	0.043
0.35	2.173	0.045
0.4	2.243	0.047
0.45	2.284	0.048
0.5	2.298	0.048
0.55	2.284	0.048
0.6	2.24	0.047
0.65	2.162	0.045
0.7	2.045	0.043
0.75	1.879	0.04
0.8	1.657	0.035
0.85	1.369	0.029
0.9	1.004	0.022
0.95	0.551	0.013
1	0	0.002

System: perfluorohexane + butyl ethyl ether; phases: Liquid, Gas
Property: Azeotropic pressure, kPa (Liquid); method: calculated
Temperature, K	Azeotropic pressure, kPa	uncertainty
323.15	0.789	0.205

System: perfluorohexane + butyl ethyl ether; phases: Liquid mixture 1, Liquid mixture 2
Fixed: Pressure, kPa = 101
Property: Liquid-liquid equilibrium temperature, K (Liquid mixture 1); method: VISOBS
Mole fraction of perfluorohexane	Liquid-liquid equilibrium temperature, K	uncertainty
0.101	306.2	0.5
0.174	317.5	0.5
0.249	321.6	0.4
0.356	322.2	0.4
0.415	322.2	0.4
0.453	322	0.4
0.457	322.1	0.4
0.504	321.4	0.4
0.543	320.9	0.4
0.617	318.8	0.4
0.717	312.8	0.5
0.781	306.9	0.5
0.823	300.7	0.5

System: perfluorohexane + butyl ethyl ether; phases: Gas, Liquid
Fixed: Temperature, K = 323.15
Property: Mole fraction of perfluorohexane (Gas); method: Chromatography
Mole fraction of perfluorohexane	Mole fraction of perfluorohexane	uncertainty
0.115	0.7044	0.0065
0.2161	0.7417	0.0057
0.3344	0.7505	0.0056
0.4655	0.7531	0.0055
0.547	0.7556	0.0055
0.651	0.7629	0.0053
0.7549	0.7795	0.005
0.8232	0.8011	0.0045
0.9575	0.9132	0.002

System: perfluorohexane + butyl ethyl ether; phases: Liquid, Gas
Property: Azeotropic composition: mole fraction of perfluorohexane (Liquid); method: calculated
Temperature, K	Azeotropic composition: mole fraction of perfluorohexane	uncertainty
323.15	0.789	0.004

System: diethyl ether + perfluorohexane; phases: Liquid, Gas
Fixed: Temperature, K = 293.15
Property: Excess molar enthalpy (molar enthalpy of mixing), kJ/mol (Liquid); method: FLOW:UFactor:2
Mole fraction of perfluorohexane	Excess molar enthalpy (molar enthalpy of mixing), kJ/mol	uncertainty
0	0	0.002
0.05	0.62	0.014
0.1	1.088	0.024
0.15	1.44	0.031
0.2	1.705	0.036
0.25	1.904	0.04
0.3	2.053	0.043
0.35	2.163	0.045
0.4	2.24	0.047
0.45	2.288	0.048
0.5	2.304	0.048
0.55	2.286	0.048
0.6	2.231	0.047
0.65	2.132	0.045
0.7	1.986	0.042
0.75	1.787	0.038
0.8	1.533	0.033
0.85	1.223	0.026
0.9	0.859	0.019
0.95	0.448	0.011
1	0	0.002

System: diethyl ether + perfluorohexane; phases: Liquid, Gas
Property: Azeotropic pressure, kPa (Liquid); method: calculated
Temperature, K	Azeotropic pressure, kPa	uncertainty
293.15	73.1	0.64

System: diethyl ether + perfluorohexane; phases: Gas, Liquid
Fixed: Temperature, K = 293.15
Property: Mole fraction of perfluorohexane (Gas); method: Chromatography
Mole fraction of perfluorohexane	Mole fraction of perfluorohexane	uncertainty
0.0438	0.1688	0.002
0.1437	0.2441	0.003
0.2491	0.2496	0.003
0.3507	0.2485	0.003
0.4529	0.2508	0.0031
0.4564	0.251	0.003
0.5584	0.2598	0.0032
0.6594	0.2779	0.0034
0.7657	0.316	0.004
0.8635	0.3944	0.005
0.9591	0.6358	0.0055

System: diethyl ether + perfluorohexane; phases: Liquid, Gas
Property: Azeotropic composition: mole fraction of perfluorohexane (Liquid); method: calculated
Temperature, K	Azeotropic composition: mole fraction of perfluorohexane	uncertainty
293.15	0.25	0.004
