Measured thermophysical data. Measurement and modeling of hydrocarbon dew points for five synthetic natural gas mixtures
Source: Fluid Phase Equilib., 2006, 10.1016/j.fluid.2005.11.010
Compound 1: methane, CH4, InChI=1S/CH4/h1H4, purity 99.5%
Compound 2: ethane, C2H6, InChI=1S/C2H6/c1-2/h1-2H3, purity 99.5%
Compound 3: pentane, C5H12, InChI=1S/C5H12/c1-3-5-4-2/h3-5H2,1-2H3, purity 99.5%

System: methane + ethane + pentane; phases: Gas, Liquid
Fixed: Mole fraction of methane = 0.94085
Fixed: Mole fraction of ethane = 0.04468
Property: Vapor or sublimation pressure, kPa (Gas); method: visual determination of dew points using a cooled mirror
Temperature, K	Vapor or sublimation pressure, kPa	uncertainty
266	9440	1060
268.3	9100	1000
270.2	8660	970
272.1	8200	920
272.4	7700	860
274.4	7220	810
274.7	6620	740
276.1	6120	680
276.8	5660	630
276.8	4980	560
276.6	4520	510
275.9	4060	450
275.1	3540	400
272.3	2560	290
269.6	2040	230
266.7	1620	180
265.9	1540	170
260.8	1040	120
257.4	840	90
254.6	680	80
251.1	540	60
247.6	420	50
243.4	300	30
