Measured thermophysical data. Temperature dependence of the electrical conductivity in EMIM-based ionic liquids Evidence of Vogel Tamman Fulcher behavior
Source: Fluid Phase Equilib., 2006, 10.1016/j.fluid.2006.01.022
Compound 1: 1-ethyl-3-methylimidazolium bromide, C6H11BrN2, InChI=1S/C6H11N2.BrH/c1-3-8-5-4-7(2)6-8;/h4-6H,3H2,1-2H3;1H/q+1;/p-1, purity 97%
Compound 2: 1-ethyl-3-methylimidazolium chloride, C6H11ClN2, InChI=1S/C6H11N2.ClH/c1-3-8-5-4-7(2)6-8;/h4-6H,3H2,1-2H3;1H/q+1;/p-1, purity 97%
Compound 3: 1-ethyl-3-methylimidazolium tetrafluoroborate, C6H11BF4N2, InChI=1S/C6H11N2.BF4/c1-3-8-5-4-7(2)6-8;2-1(3,4)5/h4-6H,3H2,1-2H3;/q+1;-1, purity 99%
Compound 4: 1-ethyl-3-methylimidazolium ethyl sulfate, C8H16N2O4S, InChI=1S/C6H11N2.C2H6O4S/c1-3-8-5-4-7(2)6-8;1-2-6-7(3,4)5/h4-6H,3H2,1-2H3;2H2,1H3,(H,3,4,5)/q+1;/p-1, purity 99%
Compound 5: aluminum bromide, AlBr3, InChI=1S/Al.3BrH/h;3*1H/q+3;;;/p-3, purity 98%
Compound 6: aluminum chloride, AlCl3, InChI=1S/Al.3ClH/h;3*1H/q+3;;;/p-3, purity 98%

System: 1-ethyl-3-methylimidazolium tetrafluoroborate; phases: Liquid
Fixed: Pressure, kPa = 101.325
Property: Electrical conductivity, S/m (Liquid); method: Alternating current cell with electrodes
Temperature, K	Electrical conductivity, S/m	uncertainty
258.1	0.245	0.049
263.1	0.296	0.059
268.1	0.445	0.089
273.1	0.612	0.122
278.1	0.735	0.147
283.1	0.896	0.179
288.1	1.091	0.218
293.1	1.305	0.261
298.1	1.571	0.314
303.1	1.788	0.358
308.1	2.02	0.4
313.1	2.28	0.46
318.1	2.55	0.51
323.1	2.85	0.57
328.1	3.22	0.64
333.1	3.56	0.71
338.1	3.95	0.79
343.1	4.35	0.87
348.1	4.77	0.95
353.1	5.22	1.04
358.1	5.55	1.11
363.1	5.95	1.19
368.1	6.46	1.29
373.1	6.9	1.38
378.1	7.36	1.47
383.1	7.83	1.57
388.1	8.32	1.66
393.1	8.77	1.75
398.1	9.29	1.86
403.1	9.79	1.96
408.1	10.27	2.05
413.1	10.79	2.16
418.1	11.32	2.26
423.1	11.78	2.36
428.1	12.26	2.45
433.1	12.68	2.54

System: 1-ethyl-3-methylimidazolium ethyl sulfate; phases: Liquid
Fixed: Pressure, kPa = 101.325
Property: Electrical conductivity, S/m (Liquid); method: Alternating current cell with electrodes
Temperature, K	Electrical conductivity, S/m	uncertainty
258.1	0.0286	0.0057
263.1	0.0374	0.0075
268.1	0.0495	0.0099
273.1	0.0727	0.0145
278.1	0.1051	0.021
283.1	0.1388	0.0278
288.1	0.202	0.04
293.1	0.291	0.058
298.1	0.382	0.076
303.1	0.485	0.097
308.1	0.606	0.121
313.1	0.724	0.145
318.1	0.861	0.172
323.1	1.01	0.202
328.1	1.178	0.236
333.1	1.351	0.27
338.1	1.538	0.308
343.1	1.747	0.349
348.1	1.95	0.39
353.1	2.18	0.44
358.1	2.41	0.48
363.1	2.68	0.54
368.1	3	0.6
373.1	3.29	0.66
378.1	3.57	0.71
383.1	3.86	0.77
388.1	4.15	0.83
393.1	4.47	0.89
398.1	4.77	0.95
403.1	5.09	1.02
408.1	5.39	1.08
413.1	5.68	1.14
418.1	6	1.2
423.1	6.29	1.26
428.1	6.58	1.32
433.1	6.86	1.37

System: aluminum bromide + 1-ethyl-3-methylimidazolium bromide; phases: Liquid, Crystal
Property: Electrical conductivity, S/m (Liquid); method: Alternating current cell with electrodes
Mole fraction of aluminum bromide	Temperature, K	Electrical conductivity, S/m	uncertainty
0.3	258.1	0.048	0.0096
0.3	263.1	0.0898	0.018
0.3	268.1	0.1221	0.0244
0.3	273.1	0.22	0.044
0.3	278.1	0.284	0.057
0.3	283.1	0.454	0.091
0.3	288.1	0.599	0.12
0.3	293.1	0.784	0.157
0.3	298.1	0.979	0.196
0.3	303.1	1.214	0.243
0.3	308.1	1.489	0.298
0.3	313.1	1.821	0.364
0.3	318.1	2.14	0.43
0.3	323.1	2.54	0.51
0.3	328.1	3.05	0.61
0.3	333.1	3.5	0.7
0.3	338.1	4.05	0.81
0.3	343.1	4.6	0.92
0.3	348.1	5.14	1.03
0.3	353.1	5.79	1.16
0.3	358.1	6.95	1.39
0.3	363.1	7.62	1.52
0.3	368.1	8.28	1.66
0.3	373.1	8.95	1.79
0.3	378.1	9.7	1.94
0.3	383.1	10.63	2.13
0.3	388.1	11.4	2.28
0.3	393.1	12.02	2.4
0.6	258.1	0.0432	0.0086
0.6	263.1	0.0717	0.0143
0.6	268.1	0.1128	0.0226
0.6	273.1	0.16	0.032
0.6	278.1	0.226	0.045
0.6	283.1	0.338	0.068
0.6	288.1	0.447	0.089
0.6	293.1	0.645	0.129
0.6	298.1	0.877	0.175
0.6	303.1	1.144	0.229
0.6	308.1	1.415	0.283
0.6	313.1	1.747	0.349
0.6	318.1	2.11	0.42
0.6	323.1	2.56	0.51
0.6	328.1	3.04	0.61
0.6	333.1	3.62	0.72
0.6	338.1	4.22	0.84
0.6	343.1	4.87	0.97
0.6	348.1	5.56	1.11
0.6	353.1	6.35	1.27
0.6	358.1	7.16	1.43
0.6	363.1	7.79	1.56
0.6	368.1	8.57	1.71
0.6	373.1	9.46	1.89
0.6	378.1	10.4	2.08
0.6	383.1	11.42	2.28
0.6	388.1	12.27	2.45
0.6	393.1	12.83	2.57
0.6	398.1	13.66	2.73
0.6	403.1	14.51	2.9
0.6	408.1	15.31	3.06
0.6	413.1	15.78	3.16
0.6	418.1	16.48	3.3

System: aluminum chloride + 1-ethyl-3-methylimidazolium chloride; phases: Liquid, Crystal
Property: Electrical conductivity, S/m (Liquid); method: Alternating current cell with electrodes
Mole fraction of aluminum chloride	Temperature, K	Electrical conductivity, S/m	uncertainty
0.33	253.1	0.0315	0.0063
0.33	258.1	0.0515	0.0103
0.33	263.1	0.0855	0.0171
0.33	268.1	0.127	0.0254
0.33	273.1	0.195	0.039
0.33	278.1	0.3	0.06
0.33	283.1	0.39	0.078
0.33	288.1	0.53	0.106
0.33	293.1	0.705	0.141
0.33	298.1	0.907	0.181
0.33	303.1	1.111	0.222
0.33	308.1	1.37	0.274
0.33	313.1	1.671	0.334
0.33	318.1	2.02	0.4
0.33	323.1	2.4	0.48
0.33	328.1	2.81	0.56
0.33	333.1	3.29	0.66
0.33	338.1	3.8	0.76
0.33	343.1	4.34	0.87
0.33	348.1	4.9	0.98
0.33	353.1	5.68	1.14
0.33	358.1	6.27	1.25
0.33	363.1	7.13	1.43
0.33	368.1	7.95	1.59
0.33	373.1	8.5	1.7
0.33	378.1	9.11	1.82
0.33	383.1	9.97	1.99
0.33	388.1	10.91	2.18
0.33	393.1	11.77	2.35
0.33	398.1	12.35	2.47
0.33	403.1	12.72	2.54
0.6	253.1	0.0377	0.0075
0.6	258.1	0.0517	0.0103
0.6	263.1	0.1002	0.02
0.6	268.1	0.1429	0.0286
0.6	273.1	0.206	0.041
0.6	278.1	0.283	0.057
0.6	283.1	0.385	0.077
0.6	288.1	0.515	0.103
0.6	293.1	0.669	0.134
0.6	298.1	0.861	0.172
0.6	303.1	1.082	0.216
0.6	308.1	1.322	0.264
0.6	313.1	1.599	0.32
0.6	318.1	1.905	0.381
0.6	323.1	2.26	0.45
0.6	328.1	2.64	0.53
0.6	333.1	3.11	0.62
0.6	338.1	3.56	0.71
0.6	343.1	4.02	0.8
0.6	348.1	4.56	0.91
0.6	353.1	5.08	1.02
0.6	358.1	5.63	1.13
0.6	363.1	6.17	1.23
0.6	368.1	7.28	1.46
0.6	373.1	8.09	1.62
0.6	378.1	9.1	1.82
0.6	383.1	9.72	1.94
0.6	388.1	10.13	2.03
0.6	393.1	10.39	2.08
