Measured thermophysical data. Effect of temperature on the excess molar volumes of some alcohol + aromatic mixtures and modelling by cubic EOS mixing rules
Source: Fluid Phase Equilib., 2006, 10.1016/j.fluid.2005.10.022
Compound 1: methanol, CH4O, InChI=1S/CH4O/c1-2/h2H,1H3, purity 99.8%
Compound 2: ethanol, C2H6O, InChI=1S/C2H6O/c1-2-3/h3H,2H2,1H3, purity 99.8%
Compound 3: benzene, C6H6, InChI=1S/C6H6/c1-2-4-6-5-3-1/h1-6H, purity 99.9%
Compound 4: chlorobenzene, C6H5Cl, InChI=1S/C6H5Cl/c7-6-4-2-1-3-5-6/h1-5H, purity 99.9%

System: methanol; phases: Liquid
Fixed: Pressure, kPa = 101.325
Property: Mass density, kg/m3 (Liquid); method: VIBTUB:UFactor:2
Temperature, K	Mass density, kg/m3	uncertainty
288.15	796.093	0.3
293.15	791.4	0.304
298.15	786.694	0.309
303.15	781.966	0.313
308.15	777.213	0.318
313.15	772.443	0.322

System: ethanol; phases: Liquid
Fixed: Pressure, kPa = 101.325
Property: Mass density, kg/m3 (Liquid); method: VIBTUB:UFactor:2
Temperature, K	Mass density, kg/m3	uncertainty
288.15	793.721	0.301
293.15	789.454	0.305
298.15	785.164	0.31
303.15	780.853	0.314
308.15	776.51	0.318
313.15	772.138	0.322

System: benzene; phases: Liquid
Fixed: Pressure, kPa = 101.325
Property: Mass density, kg/m3 (Liquid); method: VIBTUB:UFactor:2
Temperature, K	Mass density, kg/m3	uncertainty
288.15	884.246	0.207
293.15	878.918	0.212
298.15	873.582	0.217
303.15	868.233	0.223
308.15	862.871	0.228
313.15	857.498	0.233

System: chlorobenzene; phases: Liquid
Fixed: Pressure, kPa = 101.325
Property: Mass density, kg/m3 (Liquid); method: VIBTUB:UFactor:2
Temperature, K	Mass density, kg/m3	uncertainty
288.15	1111.811	0.206
293.15	1106.428	0.201
298.15	1101.038	0.196
303.15	1095.64	0.191
308.15	1090.234	0.186
313.15	1084.82	0.181

System: methanol + benzene; phases: Liquid
Fixed: Pressure, kPa = 101.325
Property: Mass density, kg/m3 (Liquid); method: VIBTUB:UFactor:2
Temperature, K	Mole fraction of methanol	Mass density, kg/m3	uncertainty
288.15	0	884.246	0.207
288.15	0.0516	881.981	0.21
288.15	0.0768	880.86	0.211
288.15	0.1011	879.757	0.212
288.15	0.1241	878.694	0.214
288.15	0.1501	877.473	0.215
288.15	0.1989	875.099	0.218
288.15	0.2004	875.028	0.218
288.15	0.203	874.9	0.218
288.15	0.2607	871.895	0.222
288.15	0.2978	869.841	0.224
288.15	0.3312	867.93	0.226
288.15	0.3497	866.837	0.228
288.15	0.4019	863.587	0.232
288.15	0.4493	860.384	0.236
288.15	0.499	856.805	0.241
288.15	0.5503	852.835	0.245
288.15	0.581	850.273	0.247
288.15	0.6499	844.049	0.253
288.15	0.6993	839.11	0.258
288.15	0.8	827.543	0.268
288.15	0.8992	813.652	0.281
288.15	1	796.093	0.3
293.15	0	878.918	0.212
293.15	0.0516	876.639	0.215
293.15	0.0768	875.524	0.216
293.15	0.1011	874.426	0.217
293.15	0.1241	873.37	0.219
293.15	0.1501	872.159	0.22
293.15	0.1989	869.804	0.223
293.15	0.2004	869.731	0.223
293.15	0.203	869.606	0.223
293.15	0.2607	866.624	0.227
293.15	0.2978	864.587	0.229
293.15	0.3312	862.693	0.231
293.15	0.3497	861.611	0.233
293.15	0.4019	858.388	0.237
293.15	0.4493	855.215	0.241
293.15	0.499	851.667	0.246
293.15	0.5503	847.731	0.249
293.15	0.581	845.19	0.252
293.15	0.6499	839.018	0.258
293.15	0.6993	834.115	0.263
293.15	0.8	822.636	0.274
293.15	0.8992	808.846	0.287
293.15	1	791.4	0.304
298.15	0	873.582	0.217
298.15	0.0516	871.283	0.22
298.15	0.0768	870.172	0.221
298.15	0.1011	869.074	0.223
298.15	0.1241	868.029	0.224
298.15	0.1501	866.825	0.225
298.15	0.1989	864.485	0.228
298.15	0.2004	864.414	0.228
298.15	0.203	864.285	0.228
298.15	0.2607	861.329	0.232
298.15	0.2978	859.308	0.234
298.15	0.3312	857.433	0.237
298.15	0.3497	856.357	0.238
298.15	0.4019	853.164	0.242
298.15	0.4493	850.021	0.246
298.15	0.499	846.501	0.25
298.15	0.5503	842.6	0.254
298.15	0.581	840.082	0.257
298.15	0.6499	833.959	0.263
298.15	0.6993	829.097	0.268
298.15	0.8	817.709	0.279
298.15	0.8992	804.02	0.292
298.15	1	786.694	0.309
303.15	0	868.233	0.223
303.15	0.0516	865.911	0.225
303.15	0.0768	864.8	0.227
303.15	0.1011	863.703	0.228
303.15	0.1241	862.665	0.229
303.15	0.1501	861.464	0.231
303.15	0.1989	859.141	0.233
303.15	0.2004	859.072	0.233
303.15	0.203	858.942	0.234
303.15	0.2607	856.005	0.237
303.15	0.2978	854	0.24
303.15	0.3312	852.143	0.242
303.15	0.3497	851.077	0.243
303.15	0.4019	847.909	0.247
303.15	0.4493	844.799	0.251
303.15	0.499	841.305	0.255
303.15	0.5503	837.441	0.259
303.15	0.581	834.942	0.262
303.15	0.6499	828.871	0.268
303.15	0.6993	824.05	0.273
303.15	0.8	812.752	0.284
303.15	0.8992	799.17	0.297
303.15	1	781.966	0.313
308.15	0	862.871	0.228
308.15	0.0516	860.518	0.231
308.15	0.0768	859.408	0.232
308.15	0.1011	858.303	0.233
308.15	0.1241	857.276	0.235
308.15	0.1501	856.079	0.236
308.15	0.1989	853.77	0.239
308.15	0.2004	853.7	0.239
308.15	0.203	853.566	0.239
308.15	0.2607	850.65	0.242
308.15	0.2978	848.663	0.245
308.15	0.3312	846.821	0.247
308.15	0.3497	845.76	0.248
308.15	0.4019	842.618	0.252
308.15	0.4493	839.545	0.256
308.15	0.499	836.072	0.26
308.15	0.5503	832.25	0.264
308.15	0.581	829.767	0.267
308.15	0.6499	823.744	0.273
308.15	0.6993	818.965	0.278
308.15	0.8	807.764	0.288
308.15	0.8992	794.291	0.301
308.15	1	777.213	0.318
313.15	0	857.498	0.233
313.15	0.0516	855.115	0.236
313.15	0.0768	854.011	0.237
313.15	0.1011	852.876	0.239
313.15	0.1241	851.866	0.24
313.15	0.1501	850.677	0.241
313.15	0.1989	848.384	0.244
313.15	0.2004	848.308	0.244
313.15	0.203	848.156	0.244
313.15	0.2607	845.262	0.248
313.15	0.2978	843.287	0.25
313.15	0.3312	841.469	0.252
313.15	0.3497	840.408	0.254
313.15	0.4019	837.289	0.257
313.15	0.4493	834.268	0.261
313.15	0.499	830.804	0.266
313.15	0.5503	827.033	0.269
313.15	0.581	824.574	0.272
313.15	0.6499	818.578	0.278
313.15	0.6993	813.845	0.283
313.15	0.8	802.741	0.295
313.15	0.8992	789.38	0.308
313.15	1	772.443	0.322

System: ethanol + benzene; phases: Liquid
Fixed: Pressure, kPa = 101.325
Property: Mass density, kg/m3 (Liquid); method: VIBTUB:UFactor:2
Temperature, K	Mole fraction of ethanol	Mass density, kg/m3	uncertainty
288.15	0	884.246	0.207
288.15	0.0517	880.683	0.211
288.15	0.0975	877.681	0.214
288.15	0.1521	873.999	0.218
288.15	0.2059	870.398	0.222
288.15	0.3008	863.736	0.23
288.15	0.3589	859.451	0.235
288.15	0.4324	853.801	0.242
288.15	0.5	848.337	0.249
288.15	0.6207	837.701	0.259
288.15	0.6682	833.119	0.263
288.15	0.7	829.964	0.266
288.15	0.7433	825.508	0.27
288.15	0.8857	809.129	0.286
288.15	0.9496	800.74	0.294
288.15	1	793.721	0.301
293.15	0	878.918	0.212
293.15	0.0517	875.343	0.216
293.15	0.0975	872.355	0.219
293.15	0.1521	868.698	0.224
293.15	0.2059	865.129	0.228
293.15	0.3008	858.54	0.235
293.15	0.3589	854.3	0.24
293.15	0.4324	848.724	0.247
293.15	0.5	843.334	0.254
293.15	0.6207	832.839	0.264
293.15	0.6682	828.325	0.268
293.15	0.7	825.216	0.271
293.15	0.7433	820.815	0.275
293.15	0.8857	804.669	0.29
293.15	0.9496	796.384	0.299
293.15	1	789.454	0.305
298.15	0	873.582	0.217
298.15	0.0517	869.988	0.221
298.15	0.0975	867.008	0.225
298.15	0.1521	863.374	0.229
298.15	0.2059	859.835	0.233
298.15	0.3008	853.314	0.24
298.15	0.3589	849.124	0.245
298.15	0.4324	843.619	0.252
298.15	0.5	838.299	0.259
298.15	0.6207	827.947	0.268
298.15	0.6682	823.498	0.273
298.15	0.7	820.434	0.275
298.15	0.7433	816.097	0.28
298.15	0.8857	800.18	0.295
298.15	0.9496	792.004	0.303
298.15	1	785.164	0.31
303.15	0	868.233	0.223
303.15	0.0517	864.618	0.227
303.15	0.0975	861.641	0.23
303.15	0.1521	858.025	0.234
303.15	0.2059	854.51	0.238
303.15	0.3008	848.055	0.245
303.15	0.3589	843.914	0.25
303.15	0.4324	838.475	0.257
303.15	0.5	833.228	0.264
303.15	0.6207	823.02	0.273
303.15	0.6682	818.639	0.277
303.15	0.7	815.614	0.28
303.15	0.7433	811.339	0.284
303.15	0.8857	795.657	0.299
303.15	0.9496	787.595	0.307
303.15	1	780.853	0.314
308.15	0	862.871	0.228
308.15	0.0517	859.226	0.232
308.15	0.0975	856.248	0.235
308.15	0.1521	852.645	0.239
308.15	0.2059	849.157	0.243
308.15	0.3008	842.762	0.251
308.15	0.3589	838.664	0.255
308.15	0.4324	833.292	0.262
308.15	0.5	828.117	0.268
308.15	0.6207	818.052	0.278
308.15	0.6682	813.737	0.282
308.15	0.7	810.75	0.285
308.15	0.7433	806.54	0.289
308.15	0.8857	791.098	0.304
308.15	0.9496	783.151	0.311
308.15	1	776.51	0.318
313.15	0	857.498	0.233
313.15	0.0517	853.838	0.237
313.15	0.0975	850.844	0.241
313.15	0.1521	847.247	0.245
313.15	0.2059	843.777	0.249
313.15	0.3008	837.435	0.256
313.15	0.3589	833.395	0.261
313.15	0.4324	828.075	0.267
313.15	0.5	822.979	0.274
313.15	0.6207	813.066	0.283
313.15	0.6682	808.813	0.287
313.15	0.7	805.845	0.29
313.15	0.7433	801.713	0.294
313.15	0.8857	786.511	0.309
313.15	0.9496	778.67	0.316
313.15	1	772.138	0.322

System: methanol + chlorobenzene; phases: Liquid
Fixed: Pressure, kPa = 101.325
Property: Mass density, kg/m3 (Liquid); method: VIBTUB:UFactor:2
Temperature, K	Mole fraction of methanol	Mass density, kg/m3	uncertainty
288.15	0	1111.811	0.206
288.15	0.0167	1109.685	0.204
288.15	0.0318	1107.841	0.203
288.15	0.0764	1102.124	0.198
288.15	0.1006	1098.837	0.196
288.15	0.1479	1092.148	0.191
288.15	0.2007	1084.203	0.186
288.15	0.2999	1067.448	0.177
288.15	0.3996	1047.87	0.175
288.15	0.5007	1024.456	0.184
288.15	0.5991	997.299	0.168
288.15	0.6494	981.088	0.179
288.15	0.7014	962.723	0.185
288.15	0.7286	952.123	0.192
288.15	0.7474	944.379	0.198
288.15	0.7953	923.266	0.206
288.15	0.8598	890.48	0.223
288.15	0.8999	867.202	0.24
288.15	0.9492	834.799	0.264
288.15	1	796.093	0.3
293.15	0	1106.428	0.201
293.15	0.0167	1104.282	0.199
293.15	0.0318	1102.425	0.198
293.15	0.0764	1096.695	0.193
293.15	0.1006	1093.413	0.191
293.15	0.1479	1086.721	0.186
293.15	0.2007	1078.777	0.182
293.15	0.2999	1062.042	0.174
293.15	0.3996	1042.494	0.173
293.15	0.5007	1019.122	0.184
293.15	0.5991	991.956	0.172
293.15	0.6494	975.847	0.183
293.15	0.7014	957.526	0.188
293.15	0.7286	946.954	0.195
293.15	0.7474	939.232	0.202
293.15	0.7953	918.176	0.212
293.15	0.8598	885.485	0.229
293.15	0.8999	862.279	0.246
293.15	0.9492	829.978	0.27
293.15	1	791.4	0.304
298.15	0	1101.038	0.196
298.15	0.0167	1098.872	0.194
298.15	0.0318	1097.002	0.193
298.15	0.0764	1091.257	0.188
298.15	0.1006	1087.972	0.186
298.15	0.1479	1081.273	0.181
298.15	0.2007	1073.334	0.177
298.15	0.2999	1056.618	0.17
298.15	0.3996	1037.094	0.169
298.15	0.5007	1013.765	0.181
298.15	0.5991	986.654	0.174
298.15	0.6494	970.582	0.186
298.15	0.7014	952.308	0.192
298.15	0.7286	941.764	0.199
298.15	0.7474	934.063	0.206
298.15	0.7953	913.063	0.216
298.15	0.8598	880.469	0.233
298.15	0.8999	857.337	0.25
298.15	0.9492	825.143	0.275
298.15	1	786.694	0.309
303.15	0	1095.64	0.191
303.15	0.0167	1093.452	0.189
303.15	0.0318	1091.568	0.188
303.15	0.0764	1085.799	0.184
303.15	0.1006	1082.515	0.181
303.15	0.1479	1075.809	0.177
303.15	0.2007	1067.869	0.172
303.15	0.2999	1051.169	0.166
303.15	0.3996	1031.67	0.166
303.15	0.5007	1008.381	0.178
303.15	0.5991	981.324	0.177
303.15	0.6494	965.288	0.189
303.15	0.7014	947.062	0.195
303.15	0.7286	936.545	0.203
303.15	0.7474	928.866	0.209
303.15	0.7953	907.924	0.22
303.15	0.8598	875.429	0.238
303.15	0.8999	852.374	0.255
303.15	0.9492	820.284	0.279
303.15	1	781.966	0.313
308.15	0	1090.234	0.186
308.15	0.0167	1088.024	0.185
308.15	0.0318	1086.123	0.183
308.15	0.0764	1080.328	0.179
308.15	0.1006	1077.048	0.176
308.15	0.1479	1070.321	0.172
308.15	0.2007	1062.377	0.168
308.15	0.2999	1045.69	0.161
308.15	0.3996	1026.216	0.162
308.15	0.5007	1002.962	0.176
308.15	0.5991	975.965	0.18
308.15	0.6494	959.963	0.192
308.15	0.7014	941.782	0.199
308.15	0.7286	931.295	0.206
308.15	0.7474	923.637	0.213
308.15	0.7953	902.753	0.224
308.15	0.8598	870.36	0.242
308.15	0.8999	847.382	0.259
308.15	0.9492	815.4	0.284
308.15	1	777.213	0.318
313.15	0	1084.82	0.181
313.15	0.0167	1082.596	0.18
313.15	0.0318	1080.678	0.178
313.15	0.0764	1074.851	0.174
313.15	0.1006	1071.611	0.172
313.15	0.1479	1064.824	0.168
313.15	0.2007	1056.873	0.164
313.15	0.2999	1040.198	0.16
313.15	0.3996	1020.742	0.162
313.15	0.5007	997.527	0.18
313.15	0.5991	970.586	0.186
313.15	0.6494	954.611	0.197
313.15	0.7014	936.474	0.204
313.15	0.7286	926.024	0.21
313.15	0.7474	918.395	0.217
313.15	0.7953	897.552	0.23
313.15	0.8598	865.261	0.249
313.15	0.8999	842.374	0.266
313.15	0.9492	810.493	0.291
313.15	1	772.443	0.322

System: ethanol + chlorobenzene; phases: Liquid
Fixed: Pressure, kPa = 101.325
Property: Mass density, kg/m3 (Liquid); method: VIBTUB:UFactor:2
Temperature, K	Mole fraction of ethanol	Mass density, kg/m3	uncertainty
288.15	0	1111.811	0.206
288.15	0.0602	1100.531	0.197
288.15	0.0931	1094.316	0.192
288.15	0.1472	1083.66	0.184
288.15	0.1996	1072.894	0.178
288.15	0.2987	1051.093	0.168
288.15	0.3744	1032.841	0.168
288.15	0.4348	1017.246	0.173
288.15	0.482	1004.395	0.18
288.15	0.4999	999.254	0.186
288.15	0.5964	969.834	0.195
288.15	0.6158	963.433	0.194
288.15	0.699	934.443	0.201
288.15	0.7229	925.431	0.211
288.15	0.8006	893.996	0.223
288.15	0.8596	867.744	0.24
288.15	0.9091	843.565	0.258
288.15	0.9495	822.458	0.275
288.15	1	793.721	0.301
293.15	0	1106.428	0.201
293.15	0.0602	1095.098	0.192
293.15	0.0931	1088.877	0.187
293.15	0.1472	1078.236	0.18
293.15	0.1996	1067.48	0.174
293.15	0.2987	1045.725	0.165
293.15	0.3744	1027.521	0.165
293.15	0.4348	1011.974	0.17
293.15	0.482	999.167	0.178
293.15	0.4999	994.043	0.189
293.15	0.5964	964.736	0.197
293.15	0.6158	958.357	0.197
293.15	0.699	929.489	0.205
293.15	0.7229	920.521	0.215
293.15	0.8006	889.228	0.228
293.15	0.8596	863.105	0.245
293.15	0.9091	839.044	0.263
293.15	0.9495	818.046	0.28
293.15	1	789.454	0.305
298.15	0	1101.038	0.196
298.15	0.0602	1089.655	0.187
298.15	0.0931	1083.423	0.182
298.15	0.1472	1072.787	0.175
298.15	0.1996	1062.04	0.169
298.15	0.2987	1040.328	0.161
298.15	0.3744	1022.174	0.162
298.15	0.4348	1006.674	0.167
298.15	0.482	993.907	0.18
298.15	0.4999	988.802	0.191
298.15	0.5964	959.603	0.2
298.15	0.6158	953.253	0.2
298.15	0.699	924.505	0.209
298.15	0.7229	915.575	0.218
298.15	0.8006	884.43	0.232
298.15	0.8596	858.438	0.249
298.15	0.9091	834.501	0.267
298.15	0.9495	813.607	0.284
298.15	1	785.164	0.31
303.15	0	1095.64	0.191
303.15	0.0602	1084.2	0.182
303.15	0.0931	1077.955	0.177
303.15	0.1472	1067.316	0.17
303.15	0.1996	1056.58	0.165
303.15	0.2987	1034.905	0.157
303.15	0.3744	1016.793	0.159
303.15	0.4348	1001.338	0.164
303.15	0.482	988.613	0.182
303.15	0.4999	983.525	0.193
303.15	0.5964	954.435	0.203
303.15	0.6158	948.111	0.203
303.15	0.699	919.483	0.212
303.15	0.7229	910.595	0.222
303.15	0.8006	879.597	0.236
303.15	0.8596	853.737	0.253
303.15	0.9091	829.925	0.271
303.15	0.9495	809.136	0.288
303.15	1	780.853	0.314
308.15	0	1090.234	0.186
308.15	0.0602	1078.727	0.177
308.15	0.0931	1072.466	0.172
308.15	0.1472	1061.821	0.166
308.15	0.1996	1051.089	0.16
308.15	0.2987	1029.444	0.154
308.15	0.3744	1011.377	0.155
308.15	0.4348	995.963	0.166
308.15	0.482	983.277	0.185
308.15	0.4999	978.206	0.196
308.15	0.5964	949.225	0.206
308.15	0.6158	942.928	0.206
308.15	0.699	914.416	0.216
308.15	0.7229	905.569	0.226
308.15	0.8006	874.719	0.24
308.15	0.8596	848.997	0.257
308.15	0.9091	825.312	0.275
308.15	0.9495	804.63	0.292
308.15	1	776.51	0.318
313.15	0	1084.82	0.181
313.15	0.0602	1073.253	0.172
313.15	0.0931	1066.972	0.168
313.15	0.1472	1056.307	0.161
313.15	0.1996	1045.572	0.157
313.15	0.2987	1023.964	0.152
313.15	0.3744	1005.934	0.153
313.15	0.4348	990.561	0.169
313.15	0.482	977.912	0.188
313.15	0.4999	972.862	0.198
313.15	0.5964	943.986	0.209
313.15	0.6158	937.714	0.21
313.15	0.699	909.322	0.221
313.15	0.7229	900.513	0.23
313.15	0.8006	869.806	0.246
313.15	0.8596	844.234	0.263
313.15	0.9091	820.674	0.28
313.15	0.9495	800.088	0.298
313.15	1	772.138	0.322
