Measured thermophysical data. A model for excess volumes of salty water-acetonitrile mixtures at 298.15 K
Source: Fluid Phase Equilib., 2012, 10.1016/j.fluid.2011.09.016
Compound 1: water, H2O, InChI=1S/H2O/h1H2, purity 99.9%
Compound 2: acetonitrile, C2H3N, InChI=1S/C2H3N/c1-2-3/h1H3, purity 99.8%
Compound 3: calcium acetate, C4H6CaO4, InChI=1S/2C2H4O2.Ca/c2*1-2(3)4;/h2*1H3,(H,3,4);/q;;+2/p-2, purity 99%
Compound 4: potassium ethanoate, C2H3KO2, InChI=1S/C2H4O2.K/c1-2(3)4;/h1H3,(H,3,4);/q;+1/p-1, purity 99%
Compound 5: tetraethylammonium bromide, C8H20BrN, InChI=1S/C8H20N.BrH/c1-5-9(6-2,7-3)8-4;/h5-8H2,1-4H3;1H/q+1;/p-1, purity 99%
Compound 6: lithium chloride, ClLi, InChI=1S/ClH.Li/h1H;/q;+1/p-1, purity 99%
Compound 7: sodium tetraphenylboron, C24H20BNa, InChI=1S/C24H20B.Na/c1-5-13-21(14-6-1)25(22-15-7-2-8-16-22,23-17-9-3-10-18-23)24-19-11-4-12-20-24;/h1-20H;/q-1;+1, purity 99.5%

System: acetonitrile + water; phases: Liquid
Fixed: Pressure, kPa = 101
Fixed: Temperature, K = 298.15
Property: Excess molar volume, m3/mol (Liquid); method: Calculated with densities of this investigation
Mole fraction of water	Excess molar volume, m3/mol	uncertainty
0.597	-5.61e-07	1.9e-08
0.651	-5.81e-07	1.9e-08
0.708	-5.66e-07	1.9e-08
0.757	-5.58e-07	1.9e-08
0.854	-4.89e-07	1.7e-08
0.899	-4.13e-07	1.5e-08

System: calcium acetate + acetonitrile + water; phases: Liquid
Fixed: Pressure, kPa = 101
Fixed: Temperature, K = 298.15
Property: Excess molar volume, m3/mol (Liquid); method: Calculated with densities of this investigation
Mole fraction of calcium acetate	Mole fraction of water	Excess molar volume, m3/mol	uncertainty
0.001	0.5221	-6.97e-07	2.3e-08
0.001	0.5495	-7.24e-07	2.4e-08
0.001	0.5713	-7.44e-07	2.7e-08
0.001	0.6098	-7.47e-07	2.8e-08
0.001	0.6465	-7.47e-07	3e-08
0.001	0.7163	-7.2e-07	3.1e-08
0.001	0.7576	-6.89e-07	3e-08
0.001	0.8065	-6.36e-07	2.9e-08
0.001	0.8708	-5.8e-07	2.5e-08
0.001	0.9008	-4.97e-07	2.5e-08
0.001	0.9536	-3.19e-07	2.2e-08
0.002	0.6275	-8.21e-07	2.9e-08
0.002	0.6437	-8.28e-07	3.1e-08
0.002	0.699	-8.27e-07	3.1e-08
0.002	0.7501	-7.89e-07	3e-08
0.002	0.7993	-7.44e-07	3e-08
0.002	0.8455	-6.71e-07	2.7e-08
0.002	0.9032	-5.73e-07	2.6e-08
0.002	0.9508	-4.18e-07	2.3e-08
0.003	0.6982	-8.94e-07	3.1e-08
0.003	0.7561	-8.6e-07	3.1e-08
0.003	0.8047	-8.16e-07	3e-08
0.003	0.8535	-7.66e-07	3.1e-08
0.003	0.8992	-6.71e-07	2.6e-08
0.003	0.9481	-5.1e-07	2.4e-08

System: calcium acetate + acetonitrile + water; phases: Liquid
Fixed: Pressure, kPa = 101
Fixed: Temperature, K = 298.15
Property: Mass density, kg/m3 (Liquid); method: Vibrating tube method
Mole fraction of calcium acetate	Mole fraction of water	Mass density, kg/m3	uncertainty
0.001	0.5221	855.42	0.69
0.001	0.5495	861.63	0.71
0.001	0.5713	866.52	0.61
0.001	0.6098	875.62	0.54
0.001	0.6465	884.71	0.57
0.001	0.7163	903.46	0.63
0.002	0.6275	882.67	0.48
0.002	0.6437	887.05	0.64
0.002	0.699	902.17	0.67
0.002	0.7501	917.08	0.74
0.003	0.6982	904.96	0.62
0.003	0.7561	922.42	0.82
0.003	0.8047	938.67	0.88
0.001	0.7576	915.64	0.69
0.001	0.8065	931.26	0.69
0.001	0.8708	955.35	0.63
0.001	0.9008	966.57	0.86
0.001	0.9536	986.24	0.98
0.002	0.7993	933.09	0.81
0.002	0.8455	948.93	0.83
0.002	0.9032	971.68	0.89
0.002	0.9508	990.03	0.96
0.003	0.8535	957.1	1.06
0.003	0.8992	974.74	0.93
0.003	0.9481	993.63	0.94

System: acetonitrile + potassium ethanoate + water; phases: Liquid
Fixed: Pressure, kPa = 101
Fixed: Temperature, K = 298.15
Property: Excess molar volume, m3/mol (Liquid); method: Calculated with densities of this investigation
Mole fraction of potassium ethanoate	Mole fraction of water	Excess molar volume, m3/mol	uncertainty
0.001	0.0641	-5.4e-08	1.2e-08
0.001	0.156	-1.85e-07	1.8e-08
0.001	0.265	-3.6e-07	1.7e-08
0.001	0.3222	-4.29e-07	2e-08
0.001	0.3835	-4.97e-07	1.8e-08
0.001	0.4174	-5.15e-07	1.8e-08
0.001	0.526	-5.92e-07	2.2e-08
0.001	0.5623	-6.13e-07	2.3e-08
0.001	0.5964	-6.38e-07	2.2e-08
0.001	0.6015	-6.4e-07	2.2e-08
0.001	0.6424	-6.37e-07	2.3e-08
0.001	0.7565	-6.3e-07	2.4e-08
0.001	0.8032	-6.19e-07	2.4e-08
0.001	0.8527	-5.67e-07	2.2e-08
0.001	0.8976	-4.78e-07	2e-08
0.001	0.9464	-3.25e-07	1.2e-08
0.002	0.0518	6e-09	1.1e-08
0.002	0.0958	-2.8e-08	1.1e-08
0.002	0.1989	-1.77e-07	1.4e-08
0.002	0.2559	-2.86e-07	1.7e-08
0.002	0.3066	-3.41e-07	1.7e-08
0.002	0.3662	-4.44e-07	1.9e-08
0.002	0.4051	-4.99e-07	1.8e-08
0.002	0.4532	-5.56e-07	1.9e-08
0.002	0.4927	-6.19e-07	2e-08
0.002	0.5468	-6.59e-07	2.2e-08
0.002	0.5897	-6.72e-07	2.4e-08
0.002	0.6449	-6.87e-07	2.5e-08
0.002	0.7023	-7.03e-07	2.7e-08
0.002	0.7631	-6.89e-07	2.6e-08
0.002	0.8089	-6.69e-07	2.6e-08
0.002	0.8435	-6.22e-07	2.4e-08
0.002	0.9022	-5.08e-07	2.1e-08
0.002	0.9511	-3.11e-07	1.7e-08
0.003	0.0443	4.3e-08	1e-08
0.003	0.1039	-3.2e-08	8e-09
0.003	0.1184	-4.9e-08	8e-09
0.003	0.1557	-8.8e-08	1.4e-08
0.003	0.1857	-1.08e-07	1.1e-08
0.003	0.2053	-1.58e-07	1.2e-08
0.003	0.2211	-1.83e-07	1e-08
0.003	0.2524	-2.11e-07	1.6e-08
0.003	0.2747	-2.48e-07	1.7e-08
0.003	0.3149	-3.04e-07	1.6e-08
0.003	0.3652	-3.62e-07	2e-08
0.003	0.3971	-4.19e-07	2.1e-08
0.003	0.5129	-5.8e-07	2.7e-08
0.003	0.5249	-6.12e-07	2.1e-08
0.003	0.5709	-6.75e-07	2.3e-08
0.003	0.6053	-7.33e-07	2.4e-08
0.003	0.6411	-7.49e-07	4.1e-08
0.003	0.7255	-7.67e-07	2.9e-08
0.003	0.755	-7.7e-07	2.9e-08
0.003	0.8016	-7.57e-07	2.8e-08
0.003	0.8203	-7.21e-07	2.7e-08
0.003	0.851	-6.98e-07	2.7e-08
0.003	0.8959	-6.01e-07	2.5e-08
0.003	0.9178	-5.51e-07	2.4e-08
0.004	0.6593	-1.02e-06	7.6e-08
0.004	0.7001	-8.59e-07	3.5e-08
0.004	0.7608	-8.36e-07	2.9e-08
0.004	0.7963	-8.08e-07	2.7e-08
0.004	0.8503	-7.55e-07	2.6e-08
0.004	0.8906	-6.89e-07	2.5e-08
0.004	0.9487	-5.1e-07	2e-08

System: acetonitrile + potassium ethanoate + water; phases: Liquid
Fixed: Pressure, kPa = 101
Fixed: Temperature, K = 298.15
Property: Mass density, kg/m3 (Liquid); method: Vibrating tube method
Mole fraction of potassium ethanoate	Mole fraction of water	Mass density, kg/m3	uncertainty
0.001	0.0641	783.84	0.17
0.001	0.156	794.18	0.39
0.001	0.265	808.67	0.3
0.001	0.3222	817.01	0.31
0.001	0.3835	826.79	0.2
0.001	0.4174	832.38	0.16
0.001	0.526	852.88	0.34
0.001	0.5623	860.53	0.32
0.001	0.5964	868.8	0.3
0.001	0.6015	870.02	0.27
0.001	0.6424	879.77	0.17
0.001	0.7565	912.51	0.24
0.001	0.8032	928.66	0.36
0.001	0.8527	946.57	0.31
0.001	0.8976	963.42	0.37
0.001	0.9464	981.7	0.15
0.002	0.0518	782.07	0.17
0.002	0.0958	786.24	0.19
0.002	0.1989	798.37	0.21
0.002	0.2559	806.46	0.25
0.002	0.3066	813.51	0.24
0.002	0.3662	823.41	0.25
0.002	0.4051	830.21	0.2
0.002	0.4532	839.1	0.24
0.002	0.4927	847.45	0.15
0.002	0.5468	858.83	0.17
0.002	0.5897	868.32	0.32
0.002	0.6449	881.8	0.37
0.002	0.7023	897.95	0.4
0.002	0.7631	916.7	0.51
0.002	0.8089	932.6	0.53
0.002	0.8435	944.73	0.54
0.002	0.9022	966.8	0.52
0.002	0.9511	983.42	0.6
0.003	0.0443	781.21	0.16
0.003	0.1039	787.18	0.15
0.003	0.1184	788.66	0.15
0.003	0.1557	792.83	0.22
0.003	0.1857	796.08	0.18
0.003	0.2053	798.84	0.18
0.003	0.2211	801	0.16
0.003	0.2524	804.89	0.25
0.003	0.2747	808	0.27
0.003	0.3149	813.97	0.21
0.003	0.3652	821.67	0.29
0.003	0.3971	827.38	0.31
0.003	0.5129	850.32	0.35
0.003	0.5249	853.38	0.16
0.003	0.5709	864.36	0.29
0.003	0.6053	873.77	0.27
0.003	0.6411	882.85	1.01
0.003	0.7255	907.21	0.54
0.003	0.755	916.88	0.55
0.003	0.8016	933.2	0.5
0.003	0.8203	939.22	0.53
0.003	0.851	951.1	0.59
0.003	0.8959	967.81	0.68
0.003	0.9178	976.74	0.69
0.003	0.446	836.22	0.27
0.003	0.4873	844.7	0.33
0.003	0.9445	986.83	0.91
0.004	0.6593	895.84	2.01
0.004	0.7001	902.46	0.82
0.004	0.7608	921.18	0.59
0.004	0.7963	933.04	0.47
0.004	0.8503	953.05	0.54
0.004	0.8906	968.98	0.65
0.004	0.9487	991.59	0.64

System: tetraethylammonium bromide + acetonitrile + water; phases: Liquid
Fixed: Pressure, kPa = 101
Fixed: Temperature, K = 298.15
Property: Excess molar volume, m3/mol (Liquid); method: Calculated with densities of this investigation
Mole fraction of tetraethylammonium bromide	Mole fraction of water	Excess molar volume, m3/mol	uncertainty
0.001	0.021	-1.2e-07	1.3e-08
0.001	0.0504	-1.44e-07	2.1e-08
0.001	0.0688	-1.68e-07	2.2e-08
0.001	0.1694	-2.8e-07	2.4e-08
0.001	0.184	-2.99e-07	2.4e-08
0.001	0.1954	-3.21e-07	2.4e-08
0.001	0.2136	-3.35e-07	2.4e-08
0.001	0.2512	-3.75e-07	2.7e-08
0.001	0.2628	-3.97e-07	2.8e-08
0.001	0.2997	-4.51e-07	1.9e-08
0.001	0.3021	-4.45e-07	1.9e-08
0.001	0.3264	-4.71e-07	2.9e-08
0.001	0.3857	-5.25e-07	2.8e-08
0.001	0.4158	-5.71e-07	3.2e-08
0.001	0.4206	-5.9e-07	3.2e-08
0.001	0.4483	-6.18e-07	3e-08
0.001	0.4588	-6.34e-07	3e-08
0.001	0.4851	-6.5e-07	3.2e-08
0.001	0.4947	-6.47e-07	3e-08
0.001	0.4985	-6.64e-07	2.8e-08
0.001	0.5387	-7.01e-07	3.2e-08
0.001	0.5674	-7.23e-07	3.1e-08
0.001	0.5774	-7.35e-07	2.8e-08
0.001	0.6181	-7.45e-07	3e-08
0.001	0.6537	-7.44e-07	2.9e-08
0.001	0.7109	-7.41e-07	2.9e-08
0.001	0.8202	-6.31e-07	2.4e-08
0.001	0.8654	-5.57e-07	2.2e-08
0.001	0.9006	-5e-07	2.3e-08
0.001	0.9274	-4.19e-07	1.7e-08
0.001	0.9485	-3.49e-07	1.8e-08
0.001	0.9707	-2.27e-07	1.4e-08
0.002	0.0197	-1.69e-07	2e-08
0.002	0.047	-2.39e-07	2.3e-08
0.002	0.0956	-2.93e-07	2.2e-08
0.002	0.1184	-3.22e-07	2.2e-08
0.002	0.1416	-3.62e-07	2.3e-08
0.002	0.1728	-3.91e-07	2.3e-08
0.002	0.2087	-4.33e-07	2.5e-08
0.002	0.2208	-4.46e-07	2.5e-08
0.002	0.2476	-4.93e-07	2.7e-08
0.002	0.2907	-5.3e-07	2.4e-08
0.002	0.3151	-5.8e-07	2.6e-08
0.002	0.3602	-6.09e-07	2.6e-08
0.002	0.3824	-6.36e-07	2.9e-08
0.002	0.4069	-6.89e-07	2.4e-08
0.002	0.4159	-6.98e-07	2.9e-08
0.002	0.4496	-7.31e-07	2.8e-08
0.002	0.4696	-7.56e-07	2.6e-08
0.002	0.5023	-7.66e-07	2.9e-08
0.002	0.5268	-8.04e-07	2.9e-08
0.002	0.5508	-8.16e-07	2.8e-08
0.002	0.5959	-8.3e-07	3.2e-08
0.002	0.629	-8.29e-07	3.1e-08
0.002	0.6451	-8.27e-07	3.3e-08
0.002	0.6676	-8.14e-07	3e-08
0.002	0.6985	-7.97e-07	3.6e-08
0.002	0.7167	-7.95e-07	3.1e-08
0.002	0.7436	-7.66e-07	3.3e-08
0.002	0.7684	-7.33e-07	3.2e-08
0.002	0.7989	-7.03e-07	3.4e-08
0.002	0.8177	-6.77e-07	9.1e-08
0.002	0.8479	-6.51e-07	3e-08
0.002	0.867	-6.17e-07	2.6e-08
0.002	0.8959	-5.7e-07	2.4e-08
0.002	0.9185	-4.88e-07	2.5e-08
0.002	0.9502	-3.85e-07	1.9e-08
0.003	0.0209	-3.03e-07	2.9e-08
0.003	0.0503	-3.45e-07	2.3e-08
0.003	0.0687	-3.65e-07	2.4e-08
0.003	0.1726	-4.71e-07	2.3e-08
0.003	0.1836	-4.82e-07	2.4e-08
0.003	0.195	-5.02e-07	2.5e-08
0.003	0.2132	-5.31e-07	2.5e-08
0.003	0.2507	-5.82e-07	2.5e-08
0.003	0.2733	-5.98e-07	2.6e-08
0.003	0.2991	-6.31e-07	2.7e-08
0.003	0.3178	-6.53e-07	2.5e-08
0.003	0.357	-6.98e-07	3.1e-08
0.003	0.3848	-7.2e-07	2.9e-08
0.003	0.415	-7.45e-07	2.6e-08
0.003	0.4474	-7.71e-07	3.1e-08
0.003	0.471	-7.97e-07	2.7e-08
0.003	0.4937	-8.28e-07	2.8e-08
0.003	0.4975	-8.19e-07	2.7e-08
0.003	0.5195	-8.5e-07	2.9e-08
0.003	0.5405	-8.63e-07	4e-08
0.003	0.5744	-8.93e-07	3.2e-08
0.003	0.6089	-9.16e-07	3.3e-08
0.003	0.6168	-9.18e-07	3.4e-08
0.003	0.6487	-9.18e-07	3.5e-08
0.003	0.7095	-9.2e-07	3.5e-08
0.003	0.7291	-8.95e-07	3.7e-08
0.003	0.7613	-8.55e-07	3.4e-08
0.003	0.7919	-8.35e-07	3.1e-08
0.003	0.7987	-8.24e-07	3.1e-08
0.003	0.8202	-7.77e-07	3.4e-08
0.003	0.8555	-7.41e-07	3.3e-08
0.003	0.8637	-7.19e-07	3e-08
0.003	0.8988	-6.46e-07	2.5e-08
0.003	0.9255	-5.6e-07	2.6e-08
0.003	0.9466	-4.84e-07	2.6e-08
0.004	0.0466	-4.27e-07	2.3e-08
0.004	0.1272	-5.17e-07	2.6e-08
0.004	0.1514	-5.48e-07	2.5e-08
0.004	0.1912	-5.85e-07	2.7e-08
0.004	0.2593	-6.72e-07	2.7e-08
0.004	0.3076	-7.32e-07	3e-08
0.004	0.3494	-8.06e-07	3.4e-08
0.004	0.3962	-8.61e-07	3.7e-08
0.004	0.4547	-9.28e-07	4.2e-08
0.004	0.5071	-9.9e-07	4.4e-08
0.004	0.545	-1.013e-06	4.2e-08
0.004	0.6502	-1.029e-06	3.7e-08
0.004	0.7043	-9.89e-07	3.3e-08
0.004	0.7559	-9.42e-07	3.3e-08
0.004	0.7963	-8.72e-07	2.9e-08
0.004	0.8432	-7.84e-07	2.6e-08
0.004	0.898	-7e-07	2.4e-08
0.004	0.947	-5.96e-07	3e-08
0.02	0.0467	-1.869e-06	6e-08
0.02	0.0685	-1.886e-06	6e-08
0.02	0.1124	-1.916e-06	6.1e-08
0.02	0.1378	-1.945e-06	6.2e-08
0.02	0.2014	-1.994e-06	6.3e-08
0.02	0.2447	-2.011e-06	6.4e-08
0.02	0.2861	-2.053e-06	6.5e-08
0.02	0.3478	-2.087e-06	6.6e-08
0.02	0.3943	-2.114e-06	6.6e-08
0.02	0.4428	-2.137e-06	6.7e-08
0.02	0.5127	-2.15e-06	6.7e-08
0.02	0.5414	-2.159e-06	6.7e-08
0.02	0.6053	-2.166e-06	6.7e-08
0.02	0.6977	-2.131e-06	6.7e-08
0.02	0.7473	-2.103e-06	6.6e-08
0.02	0.7815	-2.057e-06	6.4e-08
0.02	0.8274	-1.974e-06	6.2e-08
0.02	0.8902	-1.835e-06	5.8e-08
0.02	0.9215	-1.74e-06	5.5e-08

System: tetraethylammonium bromide + acetonitrile + water; phases: Liquid
Fixed: Pressure, kPa = 101
Fixed: Temperature, K = 298.15
Property: Mass density, kg/m3 (Liquid); method: Vibrating tube method
Mole fraction of tetraethylammonium bromide	Mole fraction of water	Mass density, kg/m3	uncertainty
0.001	0.021	781.6	0.38
0.001	0.0504	783.94	0.43
0.001	0.0688	785.84	0.41
0.001	0.1694	797.29	0.47
0.001	0.184	798.82	0.47
0.001	0.1954	800.37	0.17
0.001	0.2136	805.24	0.29
0.001	0.2512	807.74	0.39
0.001	0.2628	809.47	0.52
0.001	0.2997	814.93	0.24
0.001	0.3021	815.01	0.24
0.001	0.3264	818.7	0.55
0.001	0.3857	828.03	0.57
0.001	0.4158	833.54	0.71
0.001	0.4206	834.71	0.71
0.001	0.4483	839.81	0.56
0.001	0.4588	841.84	0.56
0.001	0.4851	846.8	0.61
0.001	0.4947	848.52	0.56
0.001	0.4985	849.65	0.47
0.001	0.5387	858.31	0.59
0.001	0.5674	864.85	0.57
0.001	0.5774	867.4	0.46
0.001	0.6181	876.92	0.5
0.001	0.6537	885.83	0.45
0.001	0.7109	901.74	0.24
0.001	0.8202	935.42	0.16
0.001	0.8654	951.36	0.34
0.001	0.9006	965.38	0.45
0.001	0.9274	975.3	0.26
0.001	0.9485	983.39	0.4
0.001	0.9707	990.04	0.3
0.002	0.0197	783.22	0.38
0.002	0.047	785.82	0.41
0.002	0.0956	790.83	0.36
0.002	0.1184	793.44	0.33
0.002	0.1416	796.29	0.34
0.002	0.1728	799.86	0.42
0.002	0.2087	804.32	0.21
0.002	0.2208	805.87	0.21
0.002	0.2476	809.72	0.47
0.002	0.2907	815.57	0.4
0.002	0.3151	819.63	0.39
0.002	0.3602	826.85	0.36
0.002	0.3824	830.59	0.49
0.002	0.4069	834.91	0.26
0.002	0.4159	837.04	0.46
0.002	0.4496	842.8	0.42
0.002	0.4696	846.82	0.29
0.002	0.5023	853.01	0.44
0.002	0.5268	858.68	0.35
0.002	0.5508	863.87	0.29
0.002	0.5959	874.28	0.5
0.002	0.629	882.16	0.55
0.002	0.6451	886.07	0.54
0.002	0.6676	891.64	0.5
0.002	0.6985	899.79	0.79
0.002	0.7167	905.15	0.57
0.002	0.7436	912.71	0.72
0.002	0.7684	919.78	0.71
0.002	0.7989	929.61	0.84
0.002	0.8177	935.85	88.49
0.002	0.8479	947.16	0.75
0.002	0.867	954.1	0.58
0.002	0.8959	965.38	0.52
0.002	0.9185	973.1	0.68
0.002	0.9502	985.23	0.48
0.003	0.0209	785.09	0.38
0.003	0.0503	787.77	0.34
0.003	0.0687	789.66	0.41
0.003	0.1726	801.63	0.39
0.003	0.1836	802.64	0.33
0.003	0.195	804.19	0.33
0.003	0.2132	806.66	0.39
0.003	0.5195	858.54	0.3
0.003	0.5405	862.94	0.76
0.003	0.5744	871.08	0.48
0.003	0.6089	879.82	0.53
0.003	0.6168	881.62	0.47
0.003	0.6487	889.6	0.6
0.003	0.7095	906.92	0.59
0.003	0.2507	812.15	0.4
0.003	0.2733	815.11	0.27
0.003	0.2991	818.97	0.46
0.003	0.3178	821.83	0.39
0.003	0.357	828.08	0.45
0.003	0.3848	832.58	0.37
0.003	0.415	837.75	0.24
0.003	0.4474	843.62	0.5
0.003	0.471	848.26	0.29
0.003	0.4937	853.08	0.29
0.003	0.4975	853.61	0.29
0.003	0.7291	912.15	0.75
0.003	0.7613	921.4	0.66
0.003	0.7919	931.63	0.53
0.003	0.7987	933.74	0.57
0.003	0.8202	940.36	0.86
0.003	0.8555	953.58	0.79
0.003	0.8637	956.34	0.69
0.003	0.8988	969.65	0.49
0.003	0.9255	979.32	0.76
0.003	0.9466	987.15	103.49
0.004	0.0466	788.8	0.32
0.004	0.1272	797.51	0.36
0.004	0.1514	800.39	0.33
0.004	0.1912	805.14	0.38
0.004	0.2593	814.41	0.33
0.004	0.3076	822.21	0.42
0.004	0.3494	829.37	0.55
0.004	0.3962	837.47	0.64
0.004	0.4547	848.56	0.79
0.004	0.5071	859.7	0.83
0.004	0.545	867.95	0.88
0.004	0.6502	893.31	0.77
0.004	0.7043	907.39	0.5
0.004	0.7559	922.33	0.54
0.004	0.7963	934.25	0.37
0.004	0.8432	949.5	0.33
0.004	0.898	970.87	70.69
0.004	0.947	1.87	195.51
0.02	0.0467	816.42	0.38
0.02	0.0685	818.89	0.38
0.02	0.1124	824.04	0.38
0.02	0.1378	827.35	0.38
0.02	0.2014	835.8	0.39
0.02	0.2447	841.71	0.4
0.02	0.2861	848.25	0.4
0.02	0.3478	858.25	0.39
0.02	0.3943	866.36	0.4
0.02	0.4428	875.63	0.4
0.02	0.5127	889.99	0.39
0.02	0.5414	896.57	0.4
0.02	0.6053	912.23	0.42
0.02	0.6977	937.76	0.44
0.02	0.7473	953.32	0.45
0.02	0.7815	964.3	0.46
0.02	0.8274	979.69	0.48
0.02	0.8902	1002.83	0.46
0.02	0.9215	1014.77	0.46

System: acetonitrile + lithium chloride + water; phases: Liquid
Fixed: Pressure, kPa = 101
Fixed: Temperature, K = 298.15
Property: Excess molar volume, m3/mol (Liquid); method: Calculated with densities of this investigation
Mole fraction of lithium chloride	Mole fraction of water	Excess molar volume, m3/mol	uncertainty
0.001	0.0576	-6.4e-08	8e-09
0.001	0.0786	-1.13e-07	9e-09
0.001	0.1052	-1.41e-07	1.1e-08
0.001	0.1743	-2.28e-07	1.1e-08
0.001	0.2212	-2.95e-07	1.4e-08
0.001	0.2553	-3.32e-07	1.6e-08
0.001	0.2679	-3.37e-07	1.6e-08
0.001	0.3024	-3.87e-07	1.9e-08
0.001	0.3286	-4.09e-07	1.9e-08
0.001	0.3464	-4.27e-07	2e-08
0.001	0.3958	-4.81e-07	2.4e-08
0.001	0.4314	-5.1e-07	2.7e-08
0.001	0.4486	-5.14e-07	2.9e-08
0.001	0.5087	-5.6e-07	2.9e-08
0.001	0.537	-5.8e-07	2.8e-08
0.001	0.5744	-5.91e-07	2.8e-08
0.001	0.6312	-6.16e-07	2.4e-08
0.001	0.651	-6.21e-07	2.4e-08
0.001	0.6889	-6.09e-07	2.3e-08
0.001	0.7023	-6.07e-07	2.2e-08
0.001	0.7619	-5.87e-07	2.1e-08
0.001	0.7998	-5.63e-07	2e-08
0.001	0.8117	-5.65e-07	2e-08
0.001	0.8497	-5.2e-07	1.9e-08
0.001	0.8739	-4.9e-07	2.1e-08
0.001	0.9179	-3.94e-07	2e-08
0.001	0.948	-2.51e-07	1.6e-08
0.002	0.0523	-4.1e-08	9e-09
0.002	0.0695	-6.4e-08	9e-09
0.002	0.1101	-1.16e-07	1e-08
0.002	0.1501	-1.82e-07	1e-08
0.002	0.1843	-2.61e-07	1.2e-08
0.002	0.2036	-3e-07	1.3e-08
0.002	0.2178	-3.25e-07	1.3e-08
0.002	0.2501	-3.73e-07	1.4e-08
0.002	0.2728	-4.01e-07	1.5e-08
0.002	0.3243	-4.7e-07	1.7e-08
0.002	0.3518	-5.01e-07	1.8e-08
0.002	0.3663	-5.17e-07	1.8e-08
0.002	0.3968	-5.68e-07	2.1e-08
0.002	0.4204	-6.02e-07	2.2e-08
0.002	0.4573	-6.38e-07	2.6e-08
0.002	0.5006	-6.62e-07	2.6e-08
0.002	0.5511	-6.86e-07	2.7e-08
0.002	0.5789	-6.98e-07	2.7e-08
0.002	0.6457	-6.8e-07	2.4e-08
0.002	0.6748	-6.67e-07	2.3e-08
0.002	0.716	-6.47e-07	2.3e-08
0.002	0.7186	-6.44e-07	2.3e-08
0.002	0.7511	-6.31e-07	2.2e-08
0.002	0.797	-6.09e-07	2.1e-08
0.002	0.8481	-5.61e-07	2e-08
0.002	0.8989	-4.95e-07	1.8e-08
0.002	0.9458	-3.18e-07	1.7e-08
0.003	0.0575	-3e-08	9e-09
0.003	0.0785	-6.7e-08	8e-09
0.003	0.105	-9e-08	9e-09
0.003	0.1278	-1.23e-07	9e-09
0.003	0.1418	-1.41e-07	1e-08
0.003	0.1459	-1.5e-07	1e-08
0.003	0.174	-1.88e-07	1.5e-08
0.003	0.2042	-2.31e-07	1.7e-08
0.003	0.2078	-2.32e-07	1.8e-08
0.003	0.2208	-2.48e-07	1.9e-08
0.003	0.2548	-3e-07	2e-08
0.003	0.2652	-3.08e-07	2e-08
0.003	0.2842	-3.34e-07	2.1e-08
0.003	0.3015	-3.89e-07	1.6e-08
0.003	0.3018	-4.01e-07	1.6e-08
0.003	0.3279	-4.37e-07	1.7e-08
0.003	0.3457	-4.66e-07	1.7e-08
0.003	0.3634	-4.84e-07	1.7e-08
0.003	0.3951	-5.6e-07	1.9e-08
0.003	0.4303	-5.97e-07	2e-08
0.003	0.4476	-6.59e-07	2.2e-08
0.003	0.4656	-6.84e-07	2.3e-08
0.003	0.4802	-6.97e-07	2.5e-08
0.003	0.5618	-7.35e-07	2.4e-08
0.003	0.6151	-7.13e-07	2.4e-08
0.003	0.6497	-7.14e-07	2.4e-08
0.003	0.7064	-7e-07	2.5e-08
0.003	0.7605	-6.55e-07	2.3e-08
0.003	0.8102	-6.24e-07	2.2e-08
0.003	0.848	-5.81e-07	2.1e-08
0.003	0.8723	-5.45e-07	2e-08
0.003	0.8982	-5.09e-07	1.8e-08
0.003	0.916	-4.53e-07	1.6e-08
0.003	0.946	-3.74e-07	1.5e-08
0.004	0.5237	-6.65e-07	2.2e-08
0.004	0.5379	-6.85e-07	2.3e-08
0.004	0.5648	-7.04e-07	2.4e-08
0.004	0.6022	-7.41e-07	2.4e-08
0.004	0.6913	-7.54e-07	2.6e-08
0.004	0.7383	-7.35e-07	2.7e-08
0.004	0.7984	-6.88e-07	2.4e-08
0.004	0.8514	-6.3e-07	2.2e-08
0.004	0.8962	-5.45e-07	1.8e-08
0.004	0.9445	-3.85e-07	1.4e-08

System: acetonitrile + lithium chloride + water; phases: Liquid
Fixed: Pressure, kPa = 101
Fixed: Temperature, K = 298.15
Property: Mass density, kg/m3 (Liquid); method: Vibrating tube method
Mole fraction of lithium chloride	Mole fraction of water	Mass density, kg/m3	uncertainty
0.001	0.0576	783.47	0.16
0.001	0.0786	785.98	0.17
0.001	0.1052	788.71	0.19
0.001	0.1743	796.41	0.16
0.001	0.2212	802.61	0.21
0.001	0.2553	807.07	0.26
0.001	0.2679	808.5	0.27
0.001	0.3024	813.6	0.32
0.001	0.3286	817.37	0.32
0.001	0.3464	820.1	0.3
0.001	0.3958	828.68	0.39
0.001	0.4314	834.21	0.47
0.001	0.4486	837.1	0.56
0.001	0.5087	848.79	0.44
0.001	0.537	854.73	0.47
0.001	0.5744	863.61	0.43
0.001	0.6312	877.23	0.29
0.001	0.651	882.3	0.29
0.001	0.6889	891.39	0.3
0.001	0.7023	895.12	0.36
0.001	0.7619	913.03	0.25
0.001	0.7998	925.52	0.34
0.001	0.8117	930.1	0.38
0.001	0.8497	943.68	0.33
0.001	0.8739	953.09	0.55
0.001	0.9179	970.11	0.62
0.001	0.948	979.36	0.62
0.002	0.0523	782.7	0.16
0.002	0.0695	784.47	0.16
0.002	0.1101	788.79	0.17
0.002	0.1501	793.58	0.16
0.002	0.4573	841.66	0.43
0.002	0.5006	849.44	0.43
0.002	0.5511	860.47	0.41
0.002	0.5789	866.72	0.36
0.002	0.1843	798.26	0.16
0.002	0.2036	800.95	0.16
0.002	0.2178	802.9	0.16
0.002	0.2501	807.35	0.15
0.002	0.2728	810.51	0.15
0.002	0.3243	818.2	0.17
0.002	0.3518	822.51	0.18
0.002	0.3663	824.87	0.16
0.002	0.3968	830.39	0.24
0.002	0.4204	834.77	0.26
0.002	0.6457	882.15	0.34
0.002	0.6748	889.43	0.42
0.002	0.716	900.6	0.37
0.002	0.7186	901.31	0.37
0.002	0.7511	911.14	0.31
0.002	0.797	926.39	0.34
0.002	0.8481	944.89	0.32
0.002	0.8989	965.41	0.36
0.002	0.9458	981.71	0.64
0.003	0.0575	783.09	0.16
0.003	0.0785	785.4	0.15
0.003	0.105	788.02	0.16
0.003	0.1278	790.48	0.16
0.003	0.1418	792.33	0.17
0.003	0.1459	792.57	0.21
0.003	0.174	795.86	0.24
0.003	0.2042	799.89	0.27
0.003	0.2078	800.23	0.28
0.003	0.2208	801.9	0.31
0.003	0.2548	806.6	0.33
0.003	0.2652	807.92	0.35
0.003	0.2842	810.38	0.35
0.003	0.3015	813.82	0.2
0.003	0.3018	814	0.2
0.003	0.3279	818.04	0.2
0.003	0.3457	821	0.18
0.003	0.3634	823.83	0.15
0.003	0.3951	830.49	0.15
0.003	0.4303	836.22	0.15
0.003	0.4476	840.46	0.22
0.003	0.4656	844.3	0.22
0.003	0.4802	847.02	0.31
0.003	0.5618	864.01	0.16
0.003	0.6151	875.61	0.21
0.003	0.6497	885.05	0.33
0.003	0.7064	899.64	0.35
0.003	0.7605	915.31	0.4
0.003	0.8102	932.18	0.37
0.003	0.848	945.85	0.37
0.003	0.8723	955.15	0.37
0.003	0.8982	965.91	0.29
0.003	0.916	972.34	0.29
0.003	0.946	984.88	0.39
0.004	0.5237	854.69	0.16
0.004	0.5379	858.02	0.19
0.004	0.5648	864.1	0.16
0.004	0.6022	873.5	0.33
0.004	0.6913	897.06	0.45
0.004	0.7383	910.85	0.61
0.004	0.7984	930.27	0.6
0.004	0.8514	949.55	0.58
0.004	0.8962	966.81	0.33
0.004	0.9445	984.79	0.18

System: acetonitrile + sodium tetraphenylboron + water; phases: Liquid
Fixed: Pressure, kPa = 101
Fixed: Temperature, K = 298.15
Property: Excess molar volume, m3/mol (Liquid); method: Calculated with densities of this investigation
Mole fraction of sodium tetraphenylboron	Mole fraction of water	Excess molar volume, m3/mol	uncertainty
0.001	0.0478	-1.84e-07	2.5e-08
0.001	0.0722	-2.15e-07	2.5e-08
0.001	0.1109	-2.67e-07	2.2e-08
0.001	0.1327	-2.89e-07	2.2e-08
0.001	0.2102	-3.63e-07	2.6e-08
0.001	0.2352	-3.74e-07	2.7e-08
0.001	0.3135	-4.56e-07	3e-08
0.001	0.3301	-4.77e-07	3e-08
0.001	0.4262	-5.73e-07	2.7e-08
0.001	0.4415	-5.84e-07	2.8e-08
0.001	0.4952	-6.24e-07	3e-08
0.001	0.5242	-6.33e-07	3e-08
0.001	0.5648	-6.5e-07	3.1e-08
0.001	0.6229	-6.73e-07	3.1e-08
0.001	0.69	-6.75e-07	3.1e-08
0.001	0.7976	-6.34e-07	2.7e-08
0.001	0.8241	-6.1e-07	2.7e-08
0.001	0.8502	-5.86e-07	2.8e-08
0.001	0.8646	-5.5e-07	2.8e-08
0.001	0.9306	-4.07e-07	3.1e-08
0.001	0.9502	-2.21e-07	1.1e-08
0.002	0.0213	-2.81e-07	2.6e-08
0.002	0.0641	-3.19e-07	2.6e-08
0.002	0.1144	-3.64e-07	2.6e-08
0.002	0.1717	-4.32e-07	2.8e-08
0.002	0.1925	-4.56e-07	2.7e-08
0.002	0.2793	-5.54e-07	3e-08
0.002	0.3132	-5.84e-07	3.1e-08
0.002	0.4041	-6.54e-07	3.1e-08
0.002	0.5118	-7.38e-07	3.2e-08
0.002	0.6672	-7.82e-07	3.2e-08
0.002	0.7023	-7.72e-07	3.1e-08
0.002	0.7516	-7.59e-07	3e-08
0.002	0.8047	-7.16e-07	2.9e-08
0.002	0.8484	-6.81e-07	2.8e-08
0.002	0.8667	-6.51e-07	2.8e-08
0.002	0.9157	-5.27e-07	2.6e-08
0.003	0.0517	-4.2e-07	2.8e-08
0.003	0.0755	-4.48e-07	2.8e-08
0.003	0.1089	-4.89e-07	3e-08
0.003	0.1594	-5.33e-07	2.9e-08
0.003	0.2106	-5.86e-07	3e-08
0.003	0.2506	-6.29e-07	3e-08
0.003	0.3049	-6.88e-07	3.2e-08
0.003	0.3497	-7.36e-07	3.3e-08
0.003	0.4091	-7.78e-07	3.5e-08
0.003	0.454	-8.11e-07	3.5e-08
0.003	0.4887	-8.38e-07	3.4e-08
0.003	0.5472	-8.66e-07	3.5e-08
0.003	0.6551	-8.79e-07	3.3e-08
0.003	0.7013	-8.65e-07	3.3e-08
0.003	0.7897	-8.21e-07	3e-08
0.003	0.8678	-7.32e-07	2.8e-08
0.003	0.9019	-6.7e-07	3.1e-08
0.003	0.9189	-6.23e-07	2.9e-08
0.003	0.9492	-5.29e-07	2.8e-08

System: acetonitrile + sodium tetraphenylboron + water; phases: Liquid
Fixed: Pressure, kPa = 101
Fixed: Temperature, K = 298.15
Property: Mass density, kg/m3 (Liquid); method: Vibrating tube method
Mole fraction of sodium tetraphenylboron	Mole fraction of water	Mass density, kg/m3	uncertainty
0.001	0.0478	784.87	0.53
0.001	0.0722	787.39	0.53
0.001	0.1109	791.63	0.48
0.001	0.1327	794	0.49
0.001	0.2102	803.27	0.5
0.001	0.2352	806.19	0.59
0.001	0.3135	817.03	0.64
0.001	0.3301	819.6	0.64
0.001	0.4262	835.46	0.57
0.001	0.4415	838.15	0.63
0.001	0.4952	848.32	0.63
0.001	0.5242	853.97	0.61
0.001	0.5648	862.55	0.75
0.001	0.6229	876.24	0.61
0.001	0.69	893.69	0.36
0.001	0.7976	926.84	0.58
0.001	0.8241	936.03	0.59
0.001	0.8502	945.78	0.68
0.001	0.8646	950.49	0.76
0.001	0.9306	976.02	0.92
0.001	0.9502	977.61	0.43
0.002	0.0213	784.87	0.56
0.002	0.0641	789.1	0.56
0.002	0.1144	794.29	0.56
0.002	0.1717	800.96	0.54
0.002	0.5118	854.6	0.71
0.002	0.6672	890.74	0.66
0.002	0.7023	900.22	0.62
0.002	0.7516	914.99	0.6
0.002	0.1925	803.53	0.56
0.002	0.2793	815.27	0.61
0.002	0.3132	820.1	0.63
0.002	0.4041	834.32	0.61
0.002	0.8047	932.12	0.62
0.002	0.8484	948.18	0.6
0.002	0.8667	954.9	0.65
0.002	0.9157	972.75	0.62
0.003	0.0517	790.59	0.58
0.003	0.0755	793.09	0.58
0.003	0.1089	796.77	0.64
0.003	0.1594	802.39	0.63
0.003	0.2106	808.7	0.62
0.003	0.2506	814.01	0.6
0.003	0.3049	821.79	0.64
0.003	0.3497	828.76	0.61
0.003	0.4091	838.43	0.72
0.003	0.454	846.49	0.64
0.003	0.4887	853.25	0.71
0.003	0.5472	865.31	0.7
0.003	0.6551	890.68	0.72
0.003	0.7013	902.98	0.79
0.003	0.7897	930.15	0.88
0.003	0.8678	958.02	0.66
0.003	0.9019	971.28	0.76
0.003	0.9189	977.65	0.77
0.003	0.9492	989.38	0.75
