Measured thermophysical data. Study of the effect of increasing the chain length of the alkane in excess molar enthalpies of mixtures containing methyl tert-butyl ether, 1-propanol, alkane
Source: Fluid Phase Equilib., 2008, 10.1016/j.fluid.2008.06.011
Compound 1: 2-methoxy-2-methylpropane, C5H12O, InChI=1S/C5H12O/c1-5(2,3)6-4/h1-4H3, purity 99.98%
Compound 2: decane, C10H22, InChI=1S/C10H22/c1-3-5-7-9-10-8-6-4-2/h3-10H2,1-2H3, purity 99%
Compound 3: propan-1-ol, C3H8O, InChI=1S/C3H8O/c1-2-3-4/h4H,2-3H2,1H3, purity 99.98%

System: propan-1-ol + decane; phases: Liquid
Fixed: Temperature, K = 298.15
Fixed: Pressure, kPa = 101
Property: Excess molar enthalpy (molar enthalpy of mixing), kJ/mol (Liquid); method: Calvet calorimetry
Mole fraction of propan-1-ol	Excess molar enthalpy (molar enthalpy of mixing), kJ/mol	uncertainty
0.1544	0.659	0.014
0.1615	0.678	0.015
0.2718	0.768	0.017
0.3642	0.792	0.017
0.4594	0.786	0.017
0.5576	0.737	0.016
0.6121	0.689	0.015
0.6669	0.633	0.014
0.7249	0.571	0.012
0.7574	0.522	0.011
0.7667	0.515	0.011
0.8113	0.447	0.01
0.8517	0.374	0.008
0.885	0.31	0.007
0.9219	0.224	0.005
0.9602	0.122	0.003
0.9832	0.043	0.002

System: propan-1-ol + decane + 2-methoxy-2-methylpropane; phases: Liquid
Fixed: Temperature, K = 298.15
Fixed: Pressure, kPa = 101
Property: Excess molar enthalpy (molar enthalpy of mixing), kJ/mol (Liquid); method: Calvet calorimetry
Mole fraction of 2-methoxy-2-methylpropane	Mole fraction of propan-1-ol	Excess molar enthalpy (molar enthalpy of mixing), kJ/mol	uncertainty
0.0314	0.0946	0.542	0.012
0.0511	0.1539	0.691	0.015
0.0569	0.0566	0.422	0.009
0.0803	0.242	0.797	0.017
0.1058	0.319	0.819	0.018
0.1157	0.1151	0.64	0.014
0.1277	0.3848	0.777	0.017
0.1436	0.4329	0.737	0.016
0.1498	0.0482	0.48	0.01
0.1567	0.1559	0.733	0.016
0.1577	0.4754	0.674	0.015
0.1726	0.5202	0.621	0.013
0.1869	0.5633	0.566	0.012
0.1984	0.1974	0.786	0.017
0.1984	0.598	0.503	0.011
0.2092	0.6306	0.423	0.009
0.214	0.0689	0.606	0.013
0.2188	0.6595	0.352	0.008
0.2283	0.6882	0.259	0.006
0.2352	0.7089	0.185	0.004
0.2421	0.2409	0.773	0.017
0.2424	0.7306	0.093	0.003
0.2758	0.2744	0.755	0.016
0.2761	0.0889	0.693	0.015
0.3055	0.304	0.704	0.015
0.335	0.3333	0.649	0.014
0.3386	0.1091	0.707	0.015
0.3607	0.3588	0.592	0.013
0.3843	0.1238	0.693	0.015
0.3868	0.3848	0.513	0.011
0.4094	0.4073	0.453	0.01
0.4337	0.4314	0.372	0.008
0.444	0.143	0.66	0.014
0.4518	0.4495	0.292	0.006
0.4685	0.4661	0.205	0.014
0.4845	0.156	0.623	0.013
0.4855	0.4829	0.112	0.003
0.5293	0.1705	0.57	0.012
0.5663	0.1824	0.516	0.011
0.6026	0.1941	0.45	0.01
0.6456	0.2079	0.369	0.008
0.6694	0.2156	0.302	0.007
0.7031	0.2264	0.197	0.005
0.7304	0.2352	0.112	0.003
