Measured thermophysical data. Mutual diffusion coefficients of aqueous solutions of some glycols
Source: Fluid Phase Equilib., 2009, 10.1016/j.fluid.2009.07.002
Compound 1: 1,2-ethanediol, C2H6O2, InChI=1S/C2H6O2/c3-1-2-4/h3-4H,1-2H2
Compound 2: water, H2O, InChI=1S/H2O/h1H2
Compound 3: diethylene glycol, C4H10O3, InChI=1S/C4H10O3/c5-1-3-7-4-2-6/h5-6H,1-4H2
Compound 4: triethylene glycol, C6H14O4, InChI=1S/C6H14O4/c7-1-3-9-5-6-10-4-2-8/h7-8H,1-6H2
Compound 5: tetraethylene glycol, C8H18O5, InChI=1S/C8H18O5/c9-1-3-11-5-7-13-8-6-12-4-2-10/h9-10H,1-8H2

System: 1,2-ethanediol + water; phases: Liquid
Fixed: Pressure, kPa = 101
Fixed: Mole fraction of 1,2-ethanediol = 0
Property: Binary diffusion coefficient, m2/s (Liquid); method: Taylor dispersion method
Temperature, K	Binary diffusion coefficient, m2/s	uncertainty
303.2	1.241e-09	0.027
308.2	1.381e-09	0.029
313.2	1.506e-09	0.031
318.2	1.681e-09	0.034
323.2	1.862e-09	0.037

System: 1,2-ethanediol + water; phases: Liquid
Fixed: Pressure, kPa = 101
Fixed: Temperature, K = 298.2
Property: Binary diffusion coefficient, m2/s (Liquid); method: Taylor dispersion method
Mole fraction of 1,2-ethanediol	Binary diffusion coefficient, m2/s	uncertainty
0	1.102e-09	0.026
0.2	6.95e-10	0.019
0.4	4.82e-10	0.017
0.6	3.81e-10	0.017
0.8	3.18e-10	0.015

System: 1,2-ethanediol + water; phases: Liquid
Fixed: Pressure, kPa = 101
Property: Binary diffusion coefficient, m2/s (Liquid); method: Taylor dispersion method
Mole fraction of 1,2-ethanediol	Temperature, K	Binary diffusion coefficient, m2/s	uncertainty
0.2	303.2	8.14e-10	0.02
0.2	308.2	8.89e-10	0.022
0.2	313.2	9.8e-10	0.023
0.2	318.2	1.092e-09	0.025
0.2	323.2	1.191e-09	0.026
0.4	303.2	5.28e-10	0.016
0.4	308.2	5.8e-10	0.017
0.4	313.2	6.31e-10	0.018
0.4	318.2	7.57e-10	0.02
0.4	323.2	8.48e-10	0.021
0.6	303.2	4.02e-10	0.018
0.6	308.2	4.51e-10	0.015
0.6	313.2	5.18e-10	0.016
0.6	318.2	6e-10	0.019
0.6	323.2	6.88e-10	0.018
0.8	303.2	3.34e-10	0.013
0.8	308.2	4.05e-10	0.014
0.8	313.2	4.68e-10	0.017
0.8	318.2	5.24e-10	0.017
0.8	323.2	6.03e-10	0.018

System: diethylene glycol + water; phases: Liquid
Fixed: Pressure, kPa = 101
Fixed: Mole fraction of diethylene glycol = 0
Property: Binary diffusion coefficient, m2/s (Liquid); method: Taylor dispersion method
Temperature, K	Binary diffusion coefficient, m2/s	uncertainty
303.2	1.039e-09	0.024
308.2	1.13e-09	0.025
313.2	1.254e-09	0.027
318.2	1.415e-09	0.03
323.2	1.531e-09	0.031

System: diethylene glycol + water; phases: Liquid
Fixed: Pressure, kPa = 101
Property: Binary diffusion coefficient, m2/s (Liquid); method: Taylor dispersion method
Mole fraction of diethylene glycol	Temperature, K	Binary diffusion coefficient, m2/s	uncertainty
0.2	303.2	4.69e-10	0.018
0.2	308.2	5.24e-10	0.016
0.2	313.2	6.02e-10	0.017
0.2	318.2	7.01e-10	0.019
0.2	323.2	7.83e-10	0.02
0.4	303.2	3.18e-10	0.013
0.4	308.2	3.75e-10	0.017
0.4	313.2	4.45e-10	0.015
0.4	318.2	5.16e-10	0.018
0.4	323.2	5.71e-10	0.017
0.6	303.2	2.82e-10	0.014
0.6	308.2	3.29e-10	0.013
0.6	313.2	3.93e-10	0.014
0.6	318.2	4.6e-10	0.015
0.6	323.2	5.37e-10	0.017
0.8	303.2	2.56e-10	0.012
0.8	308.2	3.06e-10	0.013
0.8	313.2	3.72e-10	0.015
0.8	318.2	4.3e-10	0.017
0.8	323.2	5.03e-10	0.017

System: triethylene glycol + water; phases: Liquid
Fixed: Pressure, kPa = 101
Fixed: Mole fraction of triethylene glycol = 0
Property: Binary diffusion coefficient, m2/s (Liquid); method: Taylor dispersion method
Temperature, K	Binary diffusion coefficient, m2/s	uncertainty
303.2	8.15e-10	0.02
308.2	8.99e-10	0.022
313.2	9.94e-10	0.023
318.2	1.073e-09	0.024
323.2	1.185e-09	0.026

System: triethylene glycol + water; phases: Liquid
Fixed: Pressure, kPa = 101
Property: Binary diffusion coefficient, m2/s (Liquid); method: Taylor dispersion method
Mole fraction of triethylene glycol	Temperature, K	Binary diffusion coefficient, m2/s	uncertainty
0.2	303.2	3.71e-10	0.016
0.2	308.2	4.3e-10	0.017
0.2	313.2	5.1e-10	0.016
0.2	318.2	5.48e-10	0.016
0.2	323.2	6.3e-10	0.018
0.4	303.2	2.78e-10	0.014
0.4	308.2	3.12e-10	0.013
0.4	313.2	3.7e-10	0.015
0.4	318.2	4.27e-10	0.014
0.4	323.2	4.8e-10	0.016
0.6	303.2	2.33e-10	0.014
0.6	308.2	2.7e-10	0.014
0.6	313.2	3.25e-10	0.013
0.6	318.2	3.79e-10	0.016
0.6	323.2	4.44e-10	0.016
0.8	303.2	2.01e-10	0.013
0.8	308.2	2.41e-10	0.014
0.8	313.2	2.98e-10	0.014
0.8	318.2	3.51e-10	0.013
0.8	323.2	4.15e-10	0.015

System: tetraethylene glycol + water; phases: Liquid
Fixed: Pressure, kPa = 101
Fixed: Mole fraction of tetraethylene glycol = 0
Property: Binary diffusion coefficient, m2/s (Liquid); method: Taylor dispersion method
Temperature, K	Binary diffusion coefficient, m2/s	uncertainty
303.2	7.06e-10	0.019
308.2	7.85e-10	0.02
313.2	8.82e-10	0.021
318.2	9.55e-10	0.023
323.2	1.075e-09	0.024

System: tetraethylene glycol + water; phases: Liquid
Fixed: Pressure, kPa = 101
Property: Binary diffusion coefficient, m2/s (Liquid); method: Taylor dispersion method
Mole fraction of tetraethylene glycol	Temperature, K	Binary diffusion coefficient, m2/s	uncertainty
0.2	303.2	2.39e-10	0.011
0.2	308.2	2.84e-10	0.013
0.2	313.2	3.33e-10	0.014
0.2	318.2	3.95e-10	0.014
0.2	323.2	4.68e-10	0.015
0.4	303.2	1.96e-10	0.011
0.4	308.2	2.24e-10	0.011
0.4	313.2	2.63e-10	0.015
0.4	318.2	3.16e-10	0.013
0.4	323.2	3.67e-10	0.014
0.6	303.2	1.63e-10	0.01
0.6	308.2	1.95e-10	0.011
0.6	313.2	2.38e-10	0.011
0.6	318.2	2.81e-10	0.012
0.6	323.2	3.34e-10	0.013
0.8	303.2	1.51e-10	0.011
0.8	308.2	1.87e-10	0.013
0.8	313.2	2.19e-10	0.011
0.8	318.2	2.6e-10	0.013
0.8	323.2	3.18e-10	0.013
