Measured thermophysical data. Vapor-liquid and liquid-liquid equilibrium properties of ethane + methanol system at ambient temperature
Source: Fluid Phase Equilib., 2011, 10.1016/j.fluid.2010.12.012
Compound 1: ethane, C2H6, InChI=1S/C2H6/c1-2/h1-2H3, purity 99.9%
Compound 2: methanol, CH4O, InChI=1S/CH4O/c1-2/h2H,1H3, purity 99.8%

System: methanol + ethane; phases: Liquid, Gas
Fixed: Temperature, K = 294.9
Property: Vapor or sublimation pressure, kPa (Liquid); method: Closed cell (Static) method
Mass fraction of ethane	Vapor or sublimation pressure, kPa	uncertainty
0.056	1196	32
0.12	2123	48
0.225	3130	67

System: methanol + ethane; phases: Liquid mixture 1, Liquid mixture 2
Fixed: Temperature, K = 294.9
Property: Mass fraction of ethane (Liquid mixture 1); method: Phase equilibration
Pressure, kPa	Mass fraction of ethane	uncertainty
4891	0.971	0.004
6081	0.923	0.004
7087	0.907	0.004
8090	0.886	0.004
9076	0.863	0.004
10093	0.791	0.004

System: methanol + ethane; phases: Liquid mixture 2, Liquid mixture 1
Fixed: Temperature, K = 294.9
Property: Mass fraction of ethane (Liquid mixture 2); method: Phase equilibration
Pressure, kPa	Mass fraction of ethane	uncertainty
4891	0.422	0.004
6081	0.468	0.004
7087	0.52	0.004
8090	0.544	0.004
9076	0.563	0.004
10093	0.6	0.004

System: methanol + ethane; phases: Liquid
Fixed: Temperature, K = 294.9
Property: Viscosity, Pa*s (Liquid); method: Cone and plate viscometry
Pressure, kPa	Mass fraction of ethane	Viscosity, Pa*s	uncertainty
1196	0.056	0.00054	2e-05
2123	0.12	0.00043	2e-05
3130	0.225	0.00032	1e-05

System: methanol + ethane; phases: Liquid
Fixed: Temperature, K = 294.9
Property: Mass density, kg/m3 (Liquid); method: Vibrating tube method
Pressure, kPa	Mass fraction of ethane	Mass density, kg/m3	uncertainty
1196	0.056	750	2
2123	0.12	720	2
3130	0.225	671	2

System: methanol + ethane; phases: Liquid mixture 1, Liquid mixture 2
Property: Mass density, kg/m3 (Liquid mixture 1); method: Vibrating tube method
Pressure, kPa	Mass fraction of ethane	Mass density, kg/m3	uncertainty
4891	0.971	375	3
6081	0.923	400	3
7087	0.907	437	3
8090	0.886	455	3
9076	0.863	464	2
10093	0.791	469	2

System: methanol + ethane; phases: Liquid mixture 2, Liquid mixture 1
Property: Mass density, kg/m3 (Liquid mixture 2); method: Vibrating tube method
Pressure, kPa	Mass fraction of ethane	Mass density, kg/m3	uncertainty
4891	0.422	590	2
6081	0.468	564	3
7087	0.52	550	2
8090	0.544	532	3
9076	0.563	528	2
10093	0.6	523	2
