Measured thermophysical data. Isobaric vapor-liquid equilibrium for methanol + methyl acetate with ionic liquids [OMMIM][Tf2N] and [OMIM][Tf2N] as entrainers at 101.3 kPa
Source: Fluid Phase Equilib., 2018, 10.1016/j.fluid.2018.05.031
Compound 1: methyl ethanoate, C3H6O2, InChI=1S/C3H6O2/c1-3(4)5-2/h1-2H3, purity 99.8%
Compound 2: methanol, CH4O, InChI=1S/CH4O/c1-2/h2H,1H3, purity 99.8%
Compound 3: 1-octyl-3-methylimidazolium bis[(trifluoromethyl)sulfonyl]imide, C14H23F6N3O4S2, InChI=1S/C12H23N2.C2F6NO4S2/c1-3-4-5-6-7-8-9-14-11-10-13(2)12-14;3-1(4,5)14(10,11)9-15(12,13)2(6,7)8/h10-12H,3-9H2,1-2H3;/q+1;-1, purity 98%
Compound 4: 2,3-dimethyl-1-octyl-1H-imidazolium bis(trifluoromethylsulfonyl)amide, C15H25F6N3O4S2, InChI=1S/C13H25N2.C2F6NO4S2/c1-4-5-6-7-8-9-10-15-12-11-14(3)13(15)2;3-1(4,5)14(10,11)9-15(12,13)2(6,7)8/h11-12H,4-10H2,1-3H3;/q+1;-1, purity 98%

System: methyl ethanoate; phases: Liquid, Gas
Property: Normal boiling temperature, K (Liquid); method: Ebulliometric method (Recirculating still)
Normal boiling temperature, K	uncertainty
330.05	0.2

System: methanol; phases: Liquid, Gas
Property: Normal boiling temperature, K (Liquid); method: Ebulliometric method (Recirculating still)
Normal boiling temperature, K	uncertainty
337.65	0.2

System: methanol + methyl ethanoate + 1-octyl-3-methylimidazolium bis[(trifluoromethyl)sulfonyl]imide; phases: Liquid, Gas
Fixed: Pressure, kPa = 101.3
Property: Boiling temperature at pressure P, K (Liquid); method: Ebulliometric method (Recirculating still)
Mole fraction of 1-octyl-3-methylimidazolium bis[(trifluoromethyl)sulfonyl]imide	Mole fraction of methanol	Boiling temperature at pressure P, K	uncertainty
0.2	0	339.7	0.4
0.199	0.07	338.6	0.39
0.199	0.151	337.5	0.36
0.2	0.24	336.95	0.37
0.206	0.308	336.75	0.36
0.2	0.395	337.1	0.36
0.2	0.489	337.95	0.36
0.198	0.564	338.8	0.37
0.2	0.647	340.45	0.38
0.201	0.736	342.65	0.39
0.199	0.801	344.8	0.43
0.4	0	358.3	0.43
0.399	0.053	356.8	0.42
0.4	0.113	355.25	0.4
0.4	0.17	354.35	0.4
0.399	0.234	353.7	0.38
0.398	0.302	353.4	0.39
0.4	0.359	353.55	0.38
0.399	0.42	353.85	0.38
0.4	0.476	354.45	0.38
0.399	0.542	355.4	0.38
0.4	0.6	356.6	0.37
0.499	0	370.25	0.5
0.5	0.045	368.35	0.5
0.497	0.095	366.6	0.48
0.499	0.146	365.35	0.46
0.499	0.197	364.35	0.45
0.497	0.25	363.7	0.44
0.499	0.299	363.5	0.43
0.5	0.354	363.35	0.43
0.499	0.411	363.65	0.43
0.497	0.454	364.05	0.44
0.5	0.5	364.5	0.42

System: methanol + methyl ethanoate + 1-octyl-3-methylimidazolium bis[(trifluoromethyl)sulfonyl]imide; phases: Gas, Liquid
Fixed: Pressure, kPa = 101.3
Property: Mole fraction of methanol (Gas); method: Chromatography
Mole fraction of 1-octyl-3-methylimidazolium bis[(trifluoromethyl)sulfonyl]imide	Mole fraction of methanol	Mole fraction of methanol	uncertainty
0.2	0	0	
0.199	0.07	0.133	0.008
0.199	0.151	0.243	0.007
0.2	0.24	0.349	0.007
0.206	0.308	0.421	0.008
0.2	0.395	0.496	0.009
0.2	0.489	0.582	0.009
0.198	0.564	0.641	0.009
0.2	0.647	0.749	0.01
0.201	0.736	0.87	0.01
0.199	0.801	1	
0.4	0	0	
0.399	0.053	0.137	0.01
0.4	0.113	0.261	0.009
0.4	0.17	0.367	0.009
0.399	0.234	0.457	0.009
0.398	0.302	0.562	0.009
0.4	0.359	0.639	0.009
0.399	0.42	0.721	0.009
0.4	0.476	0.808	0.009
0.399	0.542	0.909	0.01
0.4	0.6	1	
0.499	0	0	
0.5	0.045	0.143	0.012
0.497	0.095	0.276	0.011
0.499	0.146	0.385	0.01
0.499	0.197	0.479	0.011
0.497	0.25	0.586	0.01
0.499	0.299	0.655	0.01
0.5	0.354	0.75	0.01
0.499	0.411	0.842	0.01
0.497	0.454	0.915	0.01
0.5	0.5	1	

System: methanol + methyl ethanoate + 1-octyl-3-methylimidazolium bis[(trifluoromethyl)sulfonyl]imide; phases: Gas, Liquid
Fixed: Pressure, kPa = 101.3
Property: Mole fraction of 1-octyl-3-methylimidazolium bis[(trifluoromethyl)sulfonyl]imide (Gas); method: Chromatography
Mole fraction of 1-octyl-3-methylimidazolium bis[(trifluoromethyl)sulfonyl]imide	Mole fraction of methanol	Mole fraction of 1-octyl-3-methylimidazolium bis[(trifluoromethyl)sulfonyl]imide	uncertainty
0.2	0	0	
0.199	0.07	0	
0.199	0.151	0	
0.2	0.24	0	
0.206	0.308	0	
0.2	0.395	0	
0.2	0.489	0	
0.198	0.564	0	
0.2	0.647	0	
0.201	0.736	0	
0.199	0.801	0	
0.4	0	0	
0.399	0.053	0	
0.4	0.113	0	
0.4	0.17	0	
0.399	0.234	0	
0.398	0.302	0	
0.4	0.359	0	
0.399	0.42	0	
0.4	0.476	0	
0.399	0.542	0	
0.4	0.6	0	
0.499	0	0	
0.5	0.045	0	
0.497	0.095	0	
0.499	0.146	0	
0.499	0.197	0	
0.497	0.25	0	
0.499	0.299	0	
0.5	0.354	0	
0.499	0.411	0	
0.497	0.454	0	
0.5	0.5	0	

System: methanol + methyl ethanoate + 2,3-dimethyl-1-octyl-1H-imidazolium bis(trifluoromethylsulfonyl)amide; phases: Liquid, Gas
Fixed: Pressure, kPa = 101.3
Property: Boiling temperature at pressure P, K (Liquid); method: Ebulliometric method (Recirculating still)
Mole fraction of 2,3-dimethyl-1-octyl-1H-imidazolium bis(trifluoromethylsulfonyl)amide	Mole fraction of methanol	Boiling temperature at pressure P, K	uncertainty
0.2	0	340.15	0.38
0.2	0.075	339.45	0.38
0.2	0.161	337.8	0.36
0.203	0.243	336.85	0.35
0.2	0.329	336.6	0.34
0.2	0.414	336.95	0.34
0.2	0.498	337.6	0.34
0.199	0.583	338.75	0.35
0.2	0.654	340.1	0.35
0.2	0.732	341.9	0.37
0.2	0.8	344.2	0.4
0.4	0	358.05	0.42
0.4	0.052	357.15	0.4
0.402	0.105	355.7	0.4
0.399	0.173	354	0.38
0.397	0.238	352.95	0.37
0.4	0.304	352.35	0.36
0.4	0.362	352.2	0.36
0.398	0.427	352.4	0.36
0.399	0.486	352.95	0.36
0.398	0.547	353.85	0.36
0.4	0.6	354.9	0.35
0.497	0	369.6	0.5
0.499	0.043	368.1	0.48
0.499	0.092	366.25	0.46
0.501	0.157	364.2	0.43
0.499	0.197	363.35	0.42
0.499	0.249	362.35	0.41
0.5	0.293	361.8	0.41
0.499	0.341	361.65	0.41
0.499	0.4	361.65	0.4
0.499	0.459	362.05	0.4
0.506	0.493	362.45	0.38

System: methanol + methyl ethanoate + 2,3-dimethyl-1-octyl-1H-imidazolium bis(trifluoromethylsulfonyl)amide; phases: Gas, Liquid
Fixed: Pressure, kPa = 101.3
Property: Mole fraction of methanol (Gas); method: Chromatography
Mole fraction of 2,3-dimethyl-1-octyl-1H-imidazolium bis(trifluoromethylsulfonyl)amide	Mole fraction of methanol	Mole fraction of methanol	uncertainty
0.2	0	0	
0.2	0.075	0.152	0.008
0.2	0.161	0.279	0.007
0.203	0.243	0.338	0.007
0.2	0.329	0.455	0.009
0.2	0.414	0.534	0.008
0.2	0.498	0.598	0.008
0.199	0.583	0.682	0.009
0.2	0.654	0.762	0.009
0.2	0.732	0.873	0.01
0.2	0.8	1	
0.4	0	0	
0.4	0.052	0.147	0.011
0.402	0.105	0.269	0.009
0.399	0.173	0.387	0.009
0.397	0.238	0.496	0.01
0.4	0.304	0.587	0.009
0.4	0.362	0.66	0.008
0.398	0.427	0.74	0.008
0.399	0.486	0.818	0.009
0.398	0.547	0.91	0.01
0.4	0.6	1	
0.497	0	0	
0.499	0.043	0.156	0.014
0.499	0.092	0.295	0.012
0.501	0.157	0.45	0.011
0.499	0.197	0.521	0.01
0.499	0.249	0.609	0.01
0.5	0.293	0.674	0.009
0.499	0.341	0.748	0.009
0.499	0.4	0.832	0.009
0.499	0.459	0.928	0.01
0.506	0.493	1	

System: methanol + methyl ethanoate + 2,3-dimethyl-1-octyl-1H-imidazolium bis(trifluoromethylsulfonyl)amide; phases: Gas, Liquid
Fixed: Pressure, kPa = 101.3
Property: Mole fraction of 2,3-dimethyl-1-octyl-1H-imidazolium bis(trifluoromethylsulfonyl)amide (Gas); method: Chromatography
Mole fraction of 2,3-dimethyl-1-octyl-1H-imidazolium bis(trifluoromethylsulfonyl)amide	Mole fraction of methanol	Mole fraction of 2,3-dimethyl-1-octyl-1H-imidazolium bis(trifluoromethylsulfonyl)amide	uncertainty
0.2	0	0	
0.2	0.075	0	
0.2	0.161	0	
0.203	0.243	0	
0.2	0.329	0	
0.2	0.414	0	
0.2	0.498	0	
0.199	0.583	0	
0.2	0.654	0	
0.2	0.732	0	
0.2	0.8	0	
0.4	0	0	
0.4	0.052	0	
0.402	0.105	0	
0.399	0.173	0	
0.397	0.238	0	
0.4	0.304	0	
0.4	0.362	0	
0.398	0.427	0	
0.399	0.486	0	
0.398	0.547	0	
0.4	0.6	0	
0.497	0	0	
0.499	0.043	0	
0.499	0.092	0	
0.501	0.157	0	
0.499	0.197	0	
0.499	0.249	0	
0.5	0.293	0	
0.499	0.341	0	
0.499	0.4	0	
0.499	0.459	0	
0.506	0.493	0	

System: methanol + methyl ethanoate; phases: Liquid, Gas
Fixed: Pressure, kPa = 101.3
Property: Boiling temperature at pressure P, K (Liquid); method: Ebulliometric method (Recirculating still)
Mole fraction of methanol	Boiling temperature at pressure P, K	uncertainty
0	330.05	0.13
0.0975	327.85	0.14
0.211	326.95	0.13
0.309	326.7	0.13
0.388	326.75	0.13
0.483	326.95	0.13
0.597	327.65	0.14
0.686	328.6	0.14
0.821	330.75	0.14
0.88	332.45	0.15
0.929	334.15	0.15
0.949	335.1	0.17
1	337.65	0.13

System: methanol + methyl ethanoate; phases: Gas, Liquid
Fixed: Pressure, kPa = 101.3
Property: Mole fraction of methanol (Gas); method: Chromatography
Mole fraction of methanol	Mole fraction of methanol	uncertainty
0	0	
0.0975	0.151	0.003
0.211	0.257	0.003
0.309	0.323	0.004
0.388	0.359	0.004
0.483	0.407	0.004
0.597	0.464	0.005
0.686	0.52	0.005
0.821	0.634	0.005
0.88	0.713	0.005
0.929	0.81	0.005
0.949	0.853	0.006
1	1	

System: methyl ethanoate + 1-octyl-3-methylimidazolium bis[(trifluoromethyl)sulfonyl]imide; phases: Liquid, Gas
Fixed: Pressure, kPa = 101.3
Property: Boiling temperature at pressure P, K (Liquid); method: Ebulliometric method (Recirculating still)
Mole fraction of 1-octyl-3-methylimidazolium bis[(trifluoromethyl)sulfonyl]imide	Boiling temperature at pressure P, K	uncertainty
0.2	339.7	0.4
0.4	358.3	0.43
0.499	370.25	0.5

System: methyl ethanoate + 1-octyl-3-methylimidazolium bis[(trifluoromethyl)sulfonyl]imide; phases: Gas, Liquid
Fixed: Pressure, kPa = 101.3
Property: Mole fraction of 1-octyl-3-methylimidazolium bis[(trifluoromethyl)sulfonyl]imide (Gas); method: Chromatography
Mole fraction of 1-octyl-3-methylimidazolium bis[(trifluoromethyl)sulfonyl]imide	Mole fraction of 1-octyl-3-methylimidazolium bis[(trifluoromethyl)sulfonyl]imide	uncertainty
0.2	0	
0.4	0	
0.499	0	

System: methanol + 1-octyl-3-methylimidazolium bis[(trifluoromethyl)sulfonyl]imide; phases: Liquid, Gas
Fixed: Pressure, kPa = 101.3
Property: Boiling temperature at pressure P, K (Liquid); method: Ebulliometric method (Recirculating still)
Mole fraction of 1-octyl-3-methylimidazolium bis[(trifluoromethyl)sulfonyl]imide	Boiling temperature at pressure P, K	uncertainty
0.199	344.8	0.43
0.4	356.6	0.37
0.5	364.5	0.42

System: methanol + 1-octyl-3-methylimidazolium bis[(trifluoromethyl)sulfonyl]imide; phases: Gas, Liquid
Fixed: Pressure, kPa = 101.3
Property: Mole fraction of 1-octyl-3-methylimidazolium bis[(trifluoromethyl)sulfonyl]imide (Gas); method: Chromatography
Mole fraction of 1-octyl-3-methylimidazolium bis[(trifluoromethyl)sulfonyl]imide	Mole fraction of 1-octyl-3-methylimidazolium bis[(trifluoromethyl)sulfonyl]imide	uncertainty
0.199	0	
0.4	0	
0.5	0	

System: methyl ethanoate + 2,3-dimethyl-1-octyl-1H-imidazolium bis(trifluoromethylsulfonyl)amide; phases: Liquid, Gas
Fixed: Pressure, kPa = 101.3
Property: Boiling temperature at pressure P, K (Liquid); method: Ebulliometric method (Recirculating still)
Mole fraction of 2,3-dimethyl-1-octyl-1H-imidazolium bis(trifluoromethylsulfonyl)amide	Boiling temperature at pressure P, K	uncertainty
0.2	340.15	0.38
0.4	358.05	0.42
0.497	369.6	0.5

System: methyl ethanoate + 2,3-dimethyl-1-octyl-1H-imidazolium bis(trifluoromethylsulfonyl)amide; phases: Gas, Liquid
Fixed: Pressure, kPa = 101.3
Property: Mole fraction of 2,3-dimethyl-1-octyl-1H-imidazolium bis(trifluoromethylsulfonyl)amide (Gas); method: Chromatography
Mole fraction of 2,3-dimethyl-1-octyl-1H-imidazolium bis(trifluoromethylsulfonyl)amide	Mole fraction of 2,3-dimethyl-1-octyl-1H-imidazolium bis(trifluoromethylsulfonyl)amide	uncertainty
0.2	0	
0.4	0	
0.497	0	

System: methanol + 2,3-dimethyl-1-octyl-1H-imidazolium bis(trifluoromethylsulfonyl)amide; phases: Liquid, Gas
Fixed: Pressure, kPa = 101.3
Property: Boiling temperature at pressure P, K (Liquid); method: Ebulliometric method (Recirculating still)
Mole fraction of 2,3-dimethyl-1-octyl-1H-imidazolium bis(trifluoromethylsulfonyl)amide	Boiling temperature at pressure P, K	uncertainty
0.2	344.2	0.25
0.4	354.9	0.27
0.506	362.45	0.32

System: methanol + 2,3-dimethyl-1-octyl-1H-imidazolium bis(trifluoromethylsulfonyl)amide; phases: Gas, Liquid
Fixed: Pressure, kPa = 101.3
Property: Mole fraction of 2,3-dimethyl-1-octyl-1H-imidazolium bis(trifluoromethylsulfonyl)amide (Gas); method: Chromatography
Mole fraction of 2,3-dimethyl-1-octyl-1H-imidazolium bis(trifluoromethylsulfonyl)amide	Mole fraction of 2,3-dimethyl-1-octyl-1H-imidazolium bis(trifluoromethylsulfonyl)amide	uncertainty
0.2	0	
0.4	0	
0.506	0	
