Measured thermophysical data. The experiments and correlations of the solubility of ethylene in toluene solvent
Source: Fluid Phase Equilib., 2005, 10.1016/j.fluid.2005.02.010
Compound 1: carbon dioxide, CO2, InChI=1S/CO2/c2-1-3
Compound 2: ethene, C2H4, InChI=1S/C2H4/c1-2/h1-2H2
Compound 3: toluene, C7H8, InChI=1S/C7H8/c1-7-5-3-2-4-6-7/h2-6H,1H3, purity 99.5%

System: toluene + carbon dioxide; phases: Liquid, Gas
Fixed: Temperature, K = 352.6
Property: Mole fraction of carbon dioxide (Liquid); method: CHROM:UFactor:8
Pressure, kPa	Mole fraction of carbon dioxide	uncertainty
160	0.0049	0.0009
400	0.0186	0.0017
970	0.048	0.0039
1200	0.064	0.0052
1460	0.0785	0.0063
1760	0.0994	0.008
2090	0.1189	0.0095
2360	0.1337	0.0107
2980	0.1672	0.0134

System: ethene + toluene; phases: Liquid, Gas
Property: Vapor or sublimation pressure, kPa (Liquid); method: CCELL:UFactor:16
Mole fraction of ethene	Temperature, K	Vapor or sublimation pressure, kPa	uncertainty
0.0265	423.15	670	30
0.0442	323.15	470	30
0.0444	373.15	680	30
0.0488	423.15	1050	50
0.0502	373.15	820	40
0.0742	423.15	1490	70
0.0754	373.15	1130	60
0.0898	323.15	910	50
0.0981	423.15	1940	100
0.1165	373.15	1700	80
0.1266	423.15	2470	120
0.1355	373.15	2020	100
0.1418	323.15	1390	70
0.1527	423.15	2880	140
0.1666	373.15	2470	120
0.1756	323.15	1910	100
0.2007	373.15	2890	140
0.2306	323.15	2450	120

System: ethene + toluene; phases: Gas, Liquid
Property: Mole fraction of ethene (Gas); method: CHROM:UFactor:4
Mole fraction of ethene	Temperature, K	Mole fraction of ethene	uncertainty
0.0265	423.15	0.571	0.0208
0.0442	323.15	0.9695	0.0015
0.0444	373.15	0.879	0.0059
0.0488	423.15	0.7066	0.0143
0.0502	373.15	0.8908	0.0054
0.0742	423.15	0.7781	0.0108
0.0754	373.15	0.9226	0.0038
0.0898	323.15	0.984	0.0008
0.0981	423.15	0.8159	0.009
0.1165	373.15	0.9446	0.0027
0.1266	423.15	0.844	0.0076
0.1355	373.15	0.9503	0.0024
0.1418	323.15	0.9887	0.0006
0.1527	423.15	0.8595	0.0069
0.1666	373.15	0.9565	0.0021
0.1756	323.15	0.9905	0.0005
0.2007	373.15	0.9614	0.0019
0.2306	323.15	0.9928	0.0004
