Measured thermophysical data. Measurement of gas mixing volumes by Flux Response Technology
Source: Fluid Phase Equilib., 2007, 10.1016/j.fluid.2006.11.004
Compound 1: carbon dioxide, CO2, InChI=1S/CO2/c2-1-3
Compound 2: dichlorodifluoromethane, CCl2F2, InChI=1S/CCl2F2/c2-1(3,4)5

System: dichlorodifluoromethane + carbon dioxide; phases: Fluid (supercritical or subcritical phases)
Fixed: Temperature, K = 273.15
Fixed: Pressure, kPa = 111
Property: Excess molar volume, m3/mol (Fluid (supercritical or subcritical phases)); method: Flux Response Technology (based on capillary viscometry)
Mole fraction of carbon dioxide	Excess molar volume, m3/mol	uncertainty
0	0	1e-07
0.0001	0	1e-07
0.113	3.11e-05	4.4e-06
0.236	4.65e-05	6.5e-06
0.362	5.16e-05	7.2e-06
0.48	5.54e-05	7.8e-06
0.482	4.91e-05	6.9e-06
0.56	5.6e-05	7.8e-06
0.561	5.24e-05	7.3e-06
0.6	5.03e-05	7e-06
0.715	5.03e-05	7e-06
0.833	3.21e-05	4.5e-06
1	0	1e-07
1	0	1e-07
