Measured thermophysical data. Liquid liquid equilibria for n-alkanes (C12, C14, C17) + propylbenzene +NMP mixtures at temperatures between 298 and 328K
Source: Fluid Phase Equilib., 2005, 10.1016/j.fluid.2005.01.012
Compound 1: N-methylpyrrolidone, C5H9NO, InChI=1S/C5H9NO/c1-6-4-2-3-5(6)7/h2-4H2,1H3
Compound 2: propylbenzene, C9H12, InChI=1S/C9H12/c1-2-6-9-7-4-3-5-8-9/h3-5,7-8H,2,6H2,1H3
Compound 3: dodecane, C12H26, InChI=1S/C12H26/c1-3-5-7-9-11-12-10-8-6-4-2/h3-12H2,1-2H3
Compound 4: tetradecane, C14H30, InChI=1S/C14H30/c1-3-5-7-9-11-13-14-12-10-8-6-4-2/h3-14H2,1-2H3
Compound 5: heptadecane, C17H36, InChI=1S/C17H36/c1-3-5-7-9-11-13-15-17-16-14-12-10-8-6-4-2/h3-17H2,1-2H3

System: N-methylpyrrolidone; phases: Liquid
Property: Refractive index (Na D-line) (Liquid); method: Standard Abbe refractometry
Temperature, K	Pressure, kPa	Refractive index (Na D-line)	uncertainty
293.1	101.325	1.4696	0.0008

System: propylbenzene; phases: Liquid
Property: Refractive index (Na D-line) (Liquid); method: Standard Abbe refractometry
Temperature, K	Pressure, kPa	Refractive index (Na D-line)	uncertainty
293.1	101.325	1.4915	0.0008

System: dodecane; phases: Liquid
Property: Refractive index (Na D-line) (Liquid); method: Standard Abbe refractometry
Temperature, K	Pressure, kPa	Refractive index (Na D-line)	uncertainty
293.1	101.325	1.422	0.0008

System: tetradecane; phases: Liquid
Property: Refractive index (Na D-line) (Liquid); method: Standard Abbe refractometry
Temperature, K	Pressure, kPa	Refractive index (Na D-line)	uncertainty
293.1	101.325	1.4291	0.0008

System: heptadecane; phases: Liquid
Property: Refractive index (Na D-line) (Liquid); method: Standard Abbe refractometry
Temperature, K	Pressure, kPa	Refractive index (Na D-line)	uncertainty
293.1	101.325	1.4362	0.0008

System: dodecane + N-methylpyrrolidone; phases: Liquid mixture 1, Liquid mixture 2
Fixed: Pressure, kPa = 101.325
Property: Mole fraction of dodecane (Liquid mixture 1); method: CHROM:UFactor:16
Temperature, K	Mole fraction of dodecane	uncertainty
298	0.8132	0.0232
308	0.7798	0.0273
318	0.7393	0.0324
328	0.6526	0.0432

System: dodecane + N-methylpyrrolidone; phases: Liquid mixture 2, Liquid mixture 1
Fixed: Pressure, kPa = 101.325
Property: Mole fraction of dodecane (Liquid mixture 2); method: CHROM:UFactor:16
Temperature, K	Mole fraction of dodecane	uncertainty
298	0.0466	0.0058
308	0.0494	0.0062
318	0.0855	0.0106
328	0.0925	0.0115

System: tetradecane + N-methylpyrrolidone; phases: Liquid mixture 1, Liquid mixture 2
Fixed: Pressure, kPa = 101.325
Property: Mole fraction of tetradecane (Liquid mixture 1); method: CHROM:UFactor:16
Temperature, K	Mole fraction of tetradecane	uncertainty
289	0.8185	0.0225
308	0.7898	0.0261
318	0.7425	0.0321
328	0.6366	0.0452

System: tetradecane + N-methylpyrrolidone; phases: Liquid mixture 2, Liquid mixture 1
Fixed: Pressure, kPa = 101.325
Property: Mole fraction of tetradecane (Liquid mixture 2); method: CHROM:UFactor:16
Temperature, K	Mole fraction of tetradecane	uncertainty
289	0.0211	0.0026
308	0.0218	0.0027
318	0.0329	0.0041
328	0.0541	0.0068

System: heptadecane + N-methylpyrrolidone; phases: Liquid mixture 1, Liquid mixture 2
Fixed: Pressure, kPa = 101.325
Property: Mole fraction of heptadecane (Liquid mixture 1); method: CHROM:UFactor:16
Temperature, K	Mole fraction of heptadecane	uncertainty
298	0.9289	0.0089
308	0.9015	0.0122
318	0.8822	0.0148
328	0.7937	0.0258

System: heptadecane + N-methylpyrrolidone; phases: Liquid mixture 2, Liquid mixture 1
Fixed: Pressure, kPa = 101.325
Property: Mole fraction of heptadecane (Liquid mixture 2); method: CHROM:UFactor:16
Temperature, K	Mole fraction of heptadecane	uncertainty
298	0.0121	0.0015
308	0.0146	0.0018
318	0.0161	0.002
328	0.0198	0.0025

System: propylbenzene + dodecane + N-methylpyrrolidone; phases: Liquid mixture 2, Liquid mixture 1
Fixed: Pressure, kPa = 101.325
Property: Mole fraction of propylbenzene (Liquid mixture 2); method: CHROM:UFactor:16
Property: Mole fraction of propylbenzene (Liquid mixture 1); method: CHROM:UFactor:16
Property: Mole fraction of dodecane (Liquid mixture 1); method: CHROM:UFactor:16
Temperature, K	Mole fraction of dodecane	Mole fraction of propylbenzene	uncertainty	Mole fraction of propylbenzene	uncertainty	Mole fraction of dodecane	uncertainty
298	0.0466	0	0.0001	0	0.0001	0.8132	
298	0.0505	0.0298	0.0039	0.0493	0.0062	0.7334	
298	0.0569	0.0527	0.0066	0.0841	0.0105	0.6951	
298	0.0699	0.0833	0.0104	0.1249	0.0156	0.6375	
298	0.0745	0.0984	0.0123	0.1428	0.0178	0.6068	
298	0.0848	0.1176	0.0146	0.1638	0.0204	0.5732	
298	0.1011	0.1319	0.0164	0.178	0.0222	0.5471	
298	0.1173	0.1521	0.0189	0.1972	0.0245	0.5044	
308	0.0494	0	0.0001	0	0.0001	0.7798	
308	0.0589	0.0277	0.0037	0.0418	0.0053	0.7132	
308	0.0705	0.0554	0.0071	0.0781	0.0097	0.6407	
308	0.0846	0.0832	0.0106	0.1097	0.0136	0.5815	
308	0.0975	0.104	0.013	0.1306	0.0162	0.5388	
308	0.1059	0.1158	0.0145	0.1415	0.0176	0.5149	
308	0.1217	0.1348	0.0168	0.1578	0.0196	0.4759	
308	0.1314	0.1445	0.018	0.1657	0.0206	0.4553	
318	0.0855	0	0.0001	0	0.0001	0.7393	
318	0.0882	0.0284	0.0057	0.0399	0.005	0.6984	
318	0.1131	0.0586	0.0075	0.0769	0.0096	0.6416	
318	0.1316	0.0754	0.0095	0.0943	0.0118	0.5961	
318	0.1861	0.1136	0.0141	0.1295	0.0161	0.5198	
318	0.2163	0.1239	0.0154	0.1365	0.017	0.4774	
318	0.3176	0.1586	0.0197	0.1605	0.02	0.3344	
328	0.0925	0	0.0001	0	0.0001	0.6526	
328	0.1117	0.0293	0.0038	0.0408	0.0057	0.5767	
328	0.1296	0.0617	0.0077	0.0665	0.0086	0.5237	
328	0.1534	0.0829	0.0103	0.0865	0.0109	0.4726	
328	0.213	0.0997	0.0124	0.1023	0.0128	0.3871	

System: propylbenzene + tetradecane + N-methylpyrrolidone; phases: Liquid mixture 2, Liquid mixture 1
Fixed: Pressure, kPa = 101.325
Property: Mole fraction of propylbenzene (Liquid mixture 2); method: CHROM:UFactor:16
Property: Mole fraction of propylbenzene (Liquid mixture 1); method: CHROM:UFactor:16
Property: Mole fraction of tetradecane (Liquid mixture 1); method: CHROM:UFactor:16
Temperature, K	Mole fraction of tetradecane	Mole fraction of propylbenzene	uncertainty	Mole fraction of propylbenzene	uncertainty	Mole fraction of tetradecane	uncertainty
289	0.0211	0	0.0001	0	0.0001	0.8185	
289	0.0258	0.0189	0.0025	0.0348	0.0043	0.7722	
289	0.0305	0.0423	0.0053	0.0732	0.0091	0.7213	
289	0.0368	0.0705	0.0088	0.1139	0.0141	0.6625	
289	0.0427	0.0948	0.0118	0.1448	0.018	0.6186	
289	0.0496	0.1162	0.0144	0.1703	0.0211	0.579	
289	0.0549	0.1304	0.0162	0.1863	0.0231	0.5526	
289	0.064	0.1461	0.0181	0.2003	0.0248	0.5204	
289	0.0752	0.1654	0.0205	0.2154	0.0267	0.5048	
289	0.0865	0.1804	0.0224	0.2275	0.0282	0.4885	
308	0.0218	0	0.0001	0	0.0001	0.7898	
308	0.0293	0.0206	0.0027	0.0332	0.0047	0.7034	
308	0.0377	0.0427	0.0054	0.0657	0.0084	0.6942	
308	0.0421	0.0698	0.0087	0.0998	0.0124	0.628	
308	0.0511	0.0941	0.0117	0.1279	0.0159	0.5749	
308	0.0608	0.1166	0.0145	0.1534	0.019	0.5341	
308	0.0692	0.1314	0.0163	0.1669	0.0207	0.4899	
308	0.0802	0.1498	0.0186	0.1831	0.0227	0.4488	
308	0.0885	0.1671	0.0207	0.1981	0.0246	0.4075	
308	0.1025	0.1865	0.0232	0.2139	0.0265	0.3925	
318	0.0329	0	0.0001	0	0.0001	0.7425	
318	0.0395	0.0209	0.0029	0.0314	0.0042	0.6842	
318	0.0496	0.0464	0.0061	0.0652	0.0083	0.6439	
318	0.0589	0.0717	0.0091	0.0948	0.0118	0.5979	
318	0.0723	0.0921	0.0116	0.1245	0.0155	0.5203	
318	0.0822	0.1171	0.0146	0.1388	0.0172	0.5043	
318	0.0927	0.1332	0.0166	0.1532	0.019	0.4844	
318	0.1151	0.1563	0.0195	0.1698	0.0211	0.4477	
318	0.1272	0.1686	0.021	0.1793	0.0223	0.4005	
318	0.1404	0.1814	0.0226	0.1855	0.023	0.3805	
328	0.0541	0	0.0001	0	0.0001	0.6366	
328	0.0573	0.021	0.0033	0.0287	0.0044	0.6213	
328	0.0711	0.0471	0.0061	0.0611	0.0079	0.5696	
328	0.0869	0.0781	0.0099	0.0943	0.0118	0.5091	
328	0.1231	0.1185	0.0148	0.1323	0.0165	0.4048	
328	0.1396	0.133	0.0166	0.1439	0.0179	0.3581	
328	0.1624	0.1446	0.018	0.1526	0.019	0.329	
328	0.2182	0.1607	0.0199	0.1627	0.0203	0.3102	

System: propylbenzene + heptadecane + N-methylpyrrolidone; phases: Liquid mixture 1, Liquid mixture 2
Fixed: Pressure, kPa = 101.325
Property: Mole fraction of propylbenzene (Liquid mixture 1); method: CHROM:UFactor:16
Property: Mole fraction of heptadecane (Liquid mixture 2); method: CHROM:UFactor:16
Property: Mole fraction of propylbenzene (Liquid mixture 2); method: CHROM:UFactor:16
Temperature, K	Mole fraction of heptadecane	Mole fraction of propylbenzene	uncertainty	Mole fraction of heptadecane	uncertainty	Mole fraction of propylbenzene	uncertainty
298	0.9289	0	0.0001	0.0121	0.0015	0	
298	0.8865	0.0381	0.0048	0.0143	0.0018	0.0206	
298	0.8435	0.0801	0.01	0.0169	0.0021	0.0445	
298	0.8098	0.1084	0.0135	0.0212	0.0026	0.0646	
298	0.7833	0.1374	0.0171	0.0229	0.0028	0.0815	
298	0.7448	0.1624	0.0202	0.0267	0.0033	0.1004	
298	0.7163	0.183	0.0228	0.0301	0.0037	0.1164	
298	0.6983	0.1932	0.024	0.0322	0.004	0.1261	
298	0.6739	0.2065	0.0257	0.0342	0.0042	0.1375	
298	0.6589	0.2196	0.0273	0.0367	0.0046	0.1495	
308	0.9015	0	0.0001	0.0146	0.0018	0	
308	0.8575	0.0361	0.0046	0.017	0.0021	0.0209	
308	0.8097	0.0747	0.0094	0.0207	0.0026	0.0449	
308	0.7645	0.1048	0.0131	0.0227	0.0028	0.0653	
308	0.7281	0.1266	0.0158	0.0266	0.0033	0.0822	
308	0.6734	0.1523	0.0189	0.0301	0.0037	0.1028	
308	0.6467	0.1695	0.0211	0.0346	0.0043	0.1182	
308	0.6011	0.1836	0.0228	0.0394	0.0049	0.1329	
308	0.5467	0.198	0.0246	0.0419	0.0052	0.1485	
308	0.5044	0.2109	0.0261	0.0449	0.0056	0.1628	
318	0.8822	0	0.0001	0.0161	0.002	0	
318	0.8405	0.0348	0.0044	0.0212	0.0026	0.0212	
318	0.7785	0.0755	0.0095	0.0254	0.0032	0.0481	
318	0.7337	0.1006	0.0126	0.0286	0.0036	0.0665	
318	0.6999	0.1231	0.0154	0.034	0.0042	0.0842	
318	0.6583	0.1484	0.0184	0.0393	0.0049	0.1059	
318	0.6265	0.1594	0.0198	0.0442	0.0055	0.1164	
318	0.5799	0.1712	0.0212	0.0486	0.006	0.1282	
318	0.5062	0.1917	0.0238	0.0545	0.0068	0.1505	
318	0.4857	0.2025	0.0251	0.0603	0.0075	0.163	
328	0.7937	0	0.0001	0.0198	0.0025	0	
328	0.7428	0.0345	0.0049	0.0258	0.0032	0.0221	
328	0.6839	0.0745	0.0095	0.0308	0.0038	0.0503	
328	0.6559	0.0977	0.0123	0.0363	0.0045	0.0686	
328	0.6212	0.1175	0.0147	0.0402	0.005	0.0852	
328	0.5841	0.1388	0.0172	0.0471	0.0058	0.1062	
328	0.5527	0.1547	0.0192	0.0526	0.0065	0.1224	
328	0.5242	0.1681	0.0208	0.0588	0.0073	0.1375	
328	0.4978	0.1743	0.0216	0.0607	0.0075	0.1448	
328	0.4859	0.1796	0.0223	0.0631	0.0078	0.1516	
