Measured thermophysical data. Isobaric vapor-liquid equilibrium for n-undecane + p-, o-, m-xylene at 10 kPa
Source: Fluid Phase Equilib., 2013, 10.1016/j.fluid.2013.10.012
Compound 1: undecane, C11H24, InChI=1S/C11H24/c1-3-5-7-9-11-10-8-6-4-2/h3-11H2,1-2H3, purity 99.89%
Compound 2: 1,4-dimethylbenzene, C8H10, InChI=1S/C8H10/c1-7-3-5-8(2)6-4-7/h3-6H,1-2H3, purity 99.91%
Compound 3: 1,2-dimethylbenzene, C8H10, InChI=1S/C8H10/c1-7-5-3-4-6-8(7)2/h3-6H,1-2H3, purity 99.89%
Compound 4: 1,3-dimethylbenzene, C8H10, InChI=1S/C8H10/c1-7-4-3-5-8(2)6-7/h3-6H,1-2H3, purity 99.68%

System: undecane; phases: Liquid
Property: Mass density, kg/m3 (Liquid); method: Vibrating tube method
Temperature, K	Pressure, kPa	Mass density, kg/m3	uncertainty
298.15	101.325	736.85	1.01

System: undecane; phases: Liquid
Property: Refractive index (Na D-line) (Liquid); method: Standard Abbe refractometry
Temperature, K	Pressure, kPa	Refractive index (Na D-line)	uncertainty
298.15	101.325	1.4152	0.0007

System: undecane; phases: Liquid, Gas
Property: Vapor or sublimation pressure, kPa (Liquid); method: Ebulliometric method (Recirculating still)
Temperature, K	Vapor or sublimation pressure, kPa	uncertainty
393.4	10	0.15

System: 1,4-dimethylbenzene; phases: Liquid
Property: Mass density, kg/m3 (Liquid); method: Vibrating tube method
Temperature, K	Pressure, kPa	Mass density, kg/m3	uncertainty
298.15	101.325	856.71	1

System: 1,4-dimethylbenzene; phases: Liquid
Property: Refractive index (Na D-line) (Liquid); method: Standard Abbe refractometry
Temperature, K	Pressure, kPa	Refractive index (Na D-line)	uncertainty
298.15	101.325	1.4931	0.0007

System: 1,4-dimethylbenzene; phases: Liquid, Gas
Property: Vapor or sublimation pressure, kPa (Liquid); method: Ebulliometric method (Recirculating still)
Temperature, K	Vapor or sublimation pressure, kPa	uncertainty
342	10	0.15

System: 1,2-dimethylbenzene; phases: Liquid
Property: Mass density, kg/m3 (Liquid); method: Vibrating tube method
Temperature, K	Pressure, kPa	Mass density, kg/m3	uncertainty
298.15	101.325	875.5	1

System: 1,2-dimethylbenzene; phases: Liquid
Property: Refractive index (Na D-line) (Liquid); method: Standard Abbe refractometry
Temperature, K	Pressure, kPa	Refractive index (Na D-line)	uncertainty
298.15	101.325	1.5031	0.0007

System: 1,2-dimethylbenzene; phases: Liquid, Gas
Property: Vapor or sublimation pressure, kPa (Liquid); method: Ebulliometric method (Recirculating still)
Temperature, K	Vapor or sublimation pressure, kPa	uncertainty
347.2	10	0.15

System: 1,3-dimethylbenzene; phases: Liquid
Property: Mass density, kg/m3 (Liquid); method: Vibrating tube method
Temperature, K	Pressure, kPa	Mass density, kg/m3	uncertainty
298.15	101.325	859.95	1.01

System: 1,3-dimethylbenzene; phases: Liquid
Property: Refractive index (Na D-line) (Liquid); method: Standard Abbe refractometry
Temperature, K	Pressure, kPa	Refractive index (Na D-line)	uncertainty
298.15	101.325	1.4946	0.0007

System: 1,3-dimethylbenzene; phases: Liquid, Gas
Property: Vapor or sublimation pressure, kPa (Liquid); method: Ebulliometric method (Recirculating still)
Temperature, K	Vapor or sublimation pressure, kPa	uncertainty
342.8	10	0.15

System: 1,4-dimethylbenzene + undecane; phases: Liquid, Gas
Fixed: Pressure, kPa = 10
Property: Boiling temperature at pressure P, K (Liquid); method: Ebulliometric method (Recirculating still)
Mole fraction of undecane	Boiling temperature at pressure P, K	uncertainty
0	342	0.3
0.039	343	0.3
0.093	344.1	0.3
0.181	346.4	0.3
0.282	349.3	0.3
0.367	352.1	0.3
0.451	355.1	0.3
0.537	358.6	0.3
0.618	362.5	0.3
0.712	367.8	0.3
0.796	373.5	0.3
0.884	380.8	0.3
0.967	389.4	0.4
1	393.4	0.3

System: 1,4-dimethylbenzene + undecane; phases: Gas, Liquid
Fixed: Pressure, kPa = 10
Property: Mole fraction of undecane (Gas); method: Chromatography
Mole fraction of undecane	Mole fraction of undecane	uncertainty
0	0	
0.039	0.004	0.002
0.093	0.01	0.002
0.181	0.022	0.002
0.282	0.04	0.002
0.367	0.06	0.002
0.451	0.086	0.002
0.537	0.122	0.003
0.618	0.169	0.003
0.712	0.248	0.004
0.796	0.357	0.005
0.884	0.54	0.007
0.967	0.83	0.008
1	1	

System: 1,2-dimethylbenzene + undecane; phases: Liquid, Gas
Fixed: Pressure, kPa = 10
Property: Boiling temperature at pressure P, K (Liquid); method: Ebulliometric method (Recirculating still)
Mole fraction of undecane	Boiling temperature at pressure P, K	uncertainty
0	347.2	0.3
0.023	347.7	0.3
0.085	349.1	0.3
0.14	350.4	0.3
0.222	352.4	0.3
0.312	355	0.3
0.397	357.7	0.3
0.484	360.8	0.3
0.564	364.2	0.3
0.679	369.7	0.3
0.772	375	0.3
0.834	379.2	0.3
0.9	384.2	0.3
0.968	390.2	0.3
1	393.4	0.3

System: 1,2-dimethylbenzene + undecane; phases: Gas, Liquid
Fixed: Pressure, kPa = 10
Property: Mole fraction of undecane (Gas); method: Chromatography
Mole fraction of undecane	Mole fraction of undecane	uncertainty
0	0	
0.023	0.003	0.002
0.085	0.012	0.002
0.14	0.021	0.002
0.222	0.037	0.002
0.312	0.059	0.002
0.397	0.086	0.002
0.484	0.122	0.003
0.564	0.166	0.003
0.679	0.257	0.004
0.772	0.368	0.005
0.834	0.475	0.006
0.9	0.629	0.007
0.968	0.857	0.008
1	1	

System: 1,3-dimethylbenzene + undecane; phases: Liquid, Gas
Fixed: Pressure, kPa = 10
Property: Boiling temperature at pressure P, K (Liquid); method: Ebulliometric method (Recirculating still)
Mole fraction of undecane	Boiling temperature at pressure P, K	uncertainty
0	342.8	0.3
0.021	343.2	0.3
0.084	344.8	0.3
0.158	346.4	0.3
0.23	348.7	0.3
0.315	351.3	0.3
0.392	353.9	0.3
0.466	356.7	0.3
0.558	360.6	0.3
0.654	365.3	0.3
0.729	369.6	0.3
0.812	375.2	0.3
0.882	380.9	0.3
0.964	389.1	0.3
1	393.4	0.3

System: 1,3-dimethylbenzene + undecane; phases: Gas, Liquid
Fixed: Pressure, kPa = 10
Property: Mole fraction of undecane (Gas); method: Chromatography
Mole fraction of undecane	Mole fraction of undecane	uncertainty
0	0	
0.021	0.002	0.002
0.084	0.009	0.002
0.158	0.019	0.002
0.23	0.031	0.002
0.315	0.049	0.002
0.392	0.07	0.002
0.466	0.096	0.002
0.558	0.139	0.003
0.654	0.203	0.003
0.729	0.275	0.004
0.812	0.391	0.005
0.882	0.539	0.007
0.964	0.819	0.008
1	1	
