Measured thermophysical data. Interfacial tensions of imidazolium-based ionic liquids with water and n-alkanes
Source: Fluid Phase Equilib., 2010, 10.1016/j.fluid.2010.02.022
Compound 1: 1,3-dimethylimidazolium bis((trifluoromethyl)sulfonyl)amide, C7H9F6N3O4S2, InChI=1S/C5H9N2.C2F6NO4S2/c1-6-3-4-7(2)5-6;3-1(4,5)14(10,11)9-15(12,13)2(6,7)8/h3-5H,1-2H3;/q+1;-1
Compound 2: 1-ethyl-3-methylimidazolium bis((trifluoromethyl)sulfonyl)imide, C8H11F6N3O4S2, InChI=1S/C6H11N2.C2F6NO4S2/c1-3-8-5-4-7(2)6-8;3-1(4,5)14(10,11)9-15(12,13)2(6,7)8/h4-6H,3H2,1-2H3;/q+1;-1
Compound 3: 1-butyl-3-methylimidazolium bis(trifluoromethylsulfonyl)imide, C10H15F6N3O4S2, InChI=1S/C8H15N2.C2F6NO4S2/c1-3-4-5-10-7-6-9(2)8-10;3-1(4,5)14(10,11)9-15(12,13)2(6,7)8/h6-8H,3-5H2,1-2H3;/q+1;-1
Compound 4: 1-hexyl-3-methylimidazolium bis[(trifluoromethyl)sulfonyl]imide, C12H19F6N3O4S2, InChI=1S/C10H19N2.C2F6NO4S2/c1-3-4-5-6-7-12-9-8-11(2)10-12;3-1(4,5)14(10,11)9-15(12,13)2(6,7)8/h8-10H,3-7H2,1-2H3;/q+1;-1
Compound 5: 1-octyl-3-methylimidazolium bis[(trifluoromethyl)sulfonyl]imide, C14H23F6N3O4S2, InChI=1S/C12H23N2.C2F6NO4S2/c1-3-4-5-6-7-8-9-14-11-10-13(2)12-14;3-1(4,5)14(10,11)9-15(12,13)2(6,7)8/h10-12H,3-9H2,1-2H3;/q+1;-1
Compound 6: 1-butyl-3-methylimidazolium trifluoromethanesulfonate, C9H15F3N2O3S, InChI=1S/C8H15N2.CHF3O3S/c1-3-4-5-10-7-6-9(2)8-10;2-1(3,4)8(5,6)7/h6-8H,3-5H2,1-2H3;(H,5,6,7)/q+1;/p-1
Compound 7: 1-butyl-3-methylimidazolium trifluoroacetate, C10H15F3N2O2, InChI=1S/C8H15N2.C2HF3O2/c1-3-4-5-10-7-6-9(2)8-10;3-2(4,5)1(6)7/h6-8H,3-5H2,1-2H3;(H,6,7)/q+1;/p-1
Compound 8: water, H2O, InChI=1S/H2O/h1H2
Compound 9: hexane, C6H14, InChI=1S/C6H14/c1-3-5-6-4-2/h3-6H2,1-2H3
Compound 10: octane, C8H18, InChI=1S/C8H18/c1-3-5-7-8-6-4-2/h3-8H2,1-2H3
Compound 11: decane, C10H22, InChI=1S/C10H22/c1-3-5-7-9-10-8-6-4-2/h3-10H2,1-2H3
Compound 12: 1-decyl-3-methylimidazolium bis(trifluoromethylsulfonyl)amide, C16H27F6N3O4S2, InChI=1S/C14H27N2.C2F6NO4S2/c1-3-4-5-6-7-8-9-10-11-16-13-12-15(2)14-16;3-1(4,5)14(10,11)9-15(12,13)2(6,7)8/h12-14H,3-11H2,1-2H3;/q+1;-1

System: hexane + 1-ethyl-3-methylimidazolium bis((trifluoromethyl)sulfonyl)imide; phases: Liquid, Liquid
Fixed: Pressure, kPa = 101
Property: Interfacial tension, N/m (Liquid); method: Pendant drop method
Temperature, K	Interfacial tension, N/m	uncertainty
293	0.01136	0.00022
298	0.01123	0.00022
303	0.01112	0.00022
308	0.01098	0.00022
313	0.01082	0.00021

System: hexane + 1-ethyl-3-methylimidazolium bis((trifluoromethyl)sulfonyl)imide; phases: Liquid mixture 1, Liquid mixture 2
Property: Mole fraction of hexane (Liquid mixture 1); method: NMR
Temperature, K	Pressure, kPa	Mole fraction of hexane	uncertainty
293	101	0.041	0.002

System: hexane + 1-butyl-3-methylimidazolium bis(trifluoromethylsulfonyl)imide; phases: Liquid, Liquid
Fixed: Pressure, kPa = 101
Property: Interfacial tension, N/m (Liquid); method: Pendant drop method
Temperature, K	Interfacial tension, N/m	uncertainty
293	0.00778	0.00017
298	0.00764	0.00017
303	0.0075	0.00017
308	0.00737	0.00016
313	0.00724	0.00016

System: hexane + 1-butyl-3-methylimidazolium bis(trifluoromethylsulfonyl)imide; phases: Liquid mixture 1, Liquid mixture 2
Property: Mole fraction of hexane (Liquid mixture 1); method: NMR
Temperature, K	Pressure, kPa	Mole fraction of hexane	uncertainty
293	101	0.08	0.002

System: hexane + 1-hexyl-3-methylimidazolium bis[(trifluoromethyl)sulfonyl]imide; phases: Liquid, Liquid
Fixed: Pressure, kPa = 101
Property: Interfacial tension, N/m (Liquid); method: Pendant drop method
Temperature, K	Interfacial tension, N/m	uncertainty
293	0.00519	0.00014
298	0.0051	0.00013
303	0.00499	0.00013
308	0.00488	0.00013
313	0.00479	0.00013

System: hexane + 1-hexyl-3-methylimidazolium bis[(trifluoromethyl)sulfonyl]imide; phases: Liquid mixture 1, Liquid mixture 2
Property: Mole fraction of hexane (Liquid mixture 1); method: NMR
Temperature, K	Pressure, kPa	Mole fraction of hexane	uncertainty
293	101	0.162	0.002

System: hexane + 1-octyl-3-methylimidazolium bis[(trifluoromethyl)sulfonyl]imide; phases: Liquid, Liquid
Fixed: Pressure, kPa = 101
Property: Interfacial tension, N/m (Liquid); method: Pendant drop method
Temperature, K	Interfacial tension, N/m	uncertainty
293	0.00312	0.00011
298	0.00307	0.00011
303	0.00302	0.00011
308	0.00295	0.00011
313	0.00288	0.00011

System: hexane + 1-octyl-3-methylimidazolium bis[(trifluoromethyl)sulfonyl]imide; phases: Liquid mixture 1, Liquid mixture 2
Property: Mole fraction of hexane (Liquid mixture 1); method: NMR
Temperature, K	Pressure, kPa	Mole fraction of hexane	uncertainty
293	101	0.272	0.002

System: hexane + 1-butyl-3-methylimidazolium trifluoromethanesulfonate; phases: Liquid, Liquid
Fixed: Pressure, kPa = 101
Property: Interfacial tension, N/m (Liquid); method: Pendant drop method
Temperature, K	Interfacial tension, N/m	uncertainty
293	0.00907	0.00019
298	0.0089	0.00019
303	0.00874	0.00018
308	0.00858	0.00018
313	0.00843	0.00018

System: hexane + 1-butyl-3-methylimidazolium trifluoroacetate; phases: Liquid, Liquid
Fixed: Pressure, kPa = 101
Property: Interfacial tension, N/m (Liquid); method: Pendant drop method
Temperature, K	Interfacial tension, N/m	uncertainty
293	0.00874	0.00018
298	0.00858	0.00018
303	0.00843	0.00018
308	0.00829	0.00018
313	0.00816	0.00017

System: octane + 1-ethyl-3-methylimidazolium bis((trifluoromethyl)sulfonyl)imide; phases: Liquid, Liquid
Fixed: Pressure, kPa = 101
Property: Interfacial tension, N/m (Liquid); method: Pendant drop method
Temperature, K	Interfacial tension, N/m	uncertainty
293	0.01223	0.00013
298	0.0121	0.00013
303	0.01184	0.00012
308	0.0117	0.00012
313	0.01143	0.00012

System: octane + 1-ethyl-3-methylimidazolium bis((trifluoromethyl)sulfonyl)imide; phases: Liquid mixture 1, Liquid mixture 2
Property: Mole fraction of octane (Liquid mixture 1); method: NMR
Temperature, K	Pressure, kPa	Mole fraction of octane	uncertainty
293	101	0.016	0.002

System: octane + 1-butyl-3-methylimidazolium bis(trifluoromethylsulfonyl)imide; phases: Liquid, Liquid
Fixed: Pressure, kPa = 101
Property: Interfacial tension, N/m (Liquid); method: Pendant drop method
Temperature, K	Interfacial tension, N/m	uncertainty
293	0.00878	0.00011
298	0.0086	0.00011
303	0.00843	0.00011
308	0.00825	0.00011
313	0.0081	0.00011

System: octane + 1-butyl-3-methylimidazolium bis(trifluoromethylsulfonyl)imide; phases: Liquid mixture 1, Liquid mixture 2
Property: Mole fraction of octane (Liquid mixture 1); method: NMR
Temperature, K	Pressure, kPa	Mole fraction of octane	uncertainty
293	101	0.043	0.002

System: octane + 1-hexyl-3-methylimidazolium bis[(trifluoromethyl)sulfonyl]imide; phases: Liquid, Liquid
Fixed: Pressure, kPa = 101
Property: Interfacial tension, N/m (Liquid); method: Pendant drop method
Temperature, K	Interfacial tension, N/m	uncertainty
293	0.00579	0.00011
298	0.00566	0.00011
303	0.0055	0.00011
308	0.00536	0.00011
313	0.00524	0.00011

System: octane + 1-hexyl-3-methylimidazolium bis[(trifluoromethyl)sulfonyl]imide; phases: Liquid mixture 1, Liquid mixture 2
Property: Mole fraction of octane (Liquid mixture 1); method: NMR
Temperature, K	Pressure, kPa	Mole fraction of octane	uncertainty
293	101	0.086	0.002

System: octane + 1-octyl-3-methylimidazolium bis[(trifluoromethyl)sulfonyl]imide; phases: Liquid, Liquid
Fixed: Pressure, kPa = 101
Property: Interfacial tension, N/m (Liquid); method: Pendant drop method
Temperature, K	Interfacial tension, N/m	uncertainty
293	0.00376	0.0001
298	0.00369	0.0001
303	0.0036	0.0001
308	0.00349	0.0001
313	0.00338	0.0001

System: octane + 1-octyl-3-methylimidazolium bis[(trifluoromethyl)sulfonyl]imide; phases: Liquid mixture 1, Liquid mixture 2
Property: Mole fraction of octane (Liquid mixture 1); method: NMR
Temperature, K	Pressure, kPa	Mole fraction of octane	uncertainty
293	101	0.158	0.002

System: octane + 1-butyl-3-methylimidazolium trifluoromethanesulfonate; phases: Liquid, Liquid
Fixed: Pressure, kPa = 101
Property: Interfacial tension, N/m (Liquid); method: Pendant drop method
Temperature, K	Interfacial tension, N/m	uncertainty
293	0.00996	0.00012
298	0.00988	0.00012
303	0.00979	0.00012
308	0.0097	0.00012
313	0.00959	0.00012

System: octane + 1-butyl-3-methylimidazolium trifluoroacetate; phases: Liquid, Liquid
Fixed: Pressure, kPa = 101
Property: Interfacial tension, N/m (Liquid); method: Pendant drop method
Temperature, K	Interfacial tension, N/m	uncertainty
293	0.00938	0.00012
298	0.00929	0.00012
303	0.00921	0.00012
308	0.00911	0.00012
313	0.00898	0.00011

System: decane + 1-ethyl-3-methylimidazolium bis((trifluoromethyl)sulfonyl)imide; phases: Liquid, Liquid
Fixed: Pressure, kPa = 101
Property: Interfacial tension, N/m (Liquid); method: Pendant drop method
Temperature, K	Interfacial tension, N/m	uncertainty
293	0.01287	0.00014
298	0.01275	0.00014
303	0.01264	0.00014
308	0.01252	0.00014
313	0.01241	0.00014

System: decane + 1-ethyl-3-methylimidazolium bis((trifluoromethyl)sulfonyl)imide; phases: Liquid mixture 1, Liquid mixture 2
Property: Mole fraction of decane (Liquid mixture 1); method: NMR
Temperature, K	Pressure, kPa	Mole fraction of decane	uncertainty
293	101	0.007	0.002

System: decane + 1-butyl-3-methylimidazolium bis(trifluoromethylsulfonyl)imide; phases: Liquid, Liquid
Fixed: Pressure, kPa = 101
Property: Interfacial tension, N/m (Liquid); method: Pendant drop method
Temperature, K	Interfacial tension, N/m	uncertainty
293	0.00943	0.00012
298	0.00933	0.00012
303	0.00921	0.00012
308	0.0091	0.00012
313	0.00899	0.00012

System: decane + 1-butyl-3-methylimidazolium bis(trifluoromethylsulfonyl)imide; phases: Liquid mixture 1, Liquid mixture 2
Property: Mole fraction of decane (Liquid mixture 1); method: NMR
Temperature, K	Pressure, kPa	Mole fraction of decane	uncertainty
293	101	0.025	0.002

System: decane + 1-hexyl-3-methylimidazolium bis[(trifluoromethyl)sulfonyl]imide; phases: Liquid, Liquid
Fixed: Pressure, kPa = 101
Property: Interfacial tension, N/m (Liquid); method: Pendant drop method
Temperature, K	Interfacial tension, N/m	uncertainty
293	0.00659	0.00011
298	0.00647	0.00011
303	0.00636	0.00011
308	0.00624	0.00011
313	0.00611	0.00011

System: decane + 1-hexyl-3-methylimidazolium bis[(trifluoromethyl)sulfonyl]imide; phases: Liquid mixture 1, Liquid mixture 2
Property: Mole fraction of decane (Liquid mixture 1); method: NMR
Temperature, K	Pressure, kPa	Mole fraction of decane	uncertainty
293	101	0.053	0.002

System: decane + 1-octyl-3-methylimidazolium bis[(trifluoromethyl)sulfonyl]imide; phases: Liquid, Liquid
Fixed: Pressure, kPa = 101
Property: Interfacial tension, N/m (Liquid); method: Pendant drop method
Temperature, K	Interfacial tension, N/m	uncertainty
293	0.00398	0.0001
298	0.00388	0.0001
303	0.00376	0.0001
308	0.00363	0.0001
313	0.00351	0.0001

System: decane + 1-octyl-3-methylimidazolium bis[(trifluoromethyl)sulfonyl]imide; phases: Liquid mixture 1, Liquid mixture 2
Property: Mole fraction of decane (Liquid mixture 1); method: NMR
Temperature, K	Pressure, kPa	Mole fraction of decane	uncertainty
293	101	0.098	0.002

System: decane + 1-butyl-3-methylimidazolium trifluoromethanesulfonate; phases: Liquid, Liquid
Fixed: Pressure, kPa = 101
Property: Interfacial tension, N/m (Liquid); method: Pendant drop method
Temperature, K	Interfacial tension, N/m	uncertainty
293	0.01079	0.00013
298	0.01067	0.00013
303	0.01056	0.00013
308	0.01044	0.00013
313	0.01031	0.00013

System: decane + 1-butyl-3-methylimidazolium trifluoroacetate; phases: Liquid, Liquid
Fixed: Pressure, kPa = 101
Property: Interfacial tension, N/m (Liquid); method: Pendant drop method
Temperature, K	Interfacial tension, N/m	uncertainty
293	0.01052	0.00013
298	0.01041	0.00013
303	0.01029	0.00013
308	0.01016	0.00013
313	0.01004	0.00013

System: water + 1,3-dimethylimidazolium bis((trifluoromethyl)sulfonyl)amide; phases: Liquid, Liquid
Fixed: Pressure, kPa = 101
Property: Interfacial tension, N/m (Liquid); method: Pendant drop method
Temperature, K	Interfacial tension, N/m	uncertainty
298	0.00805	0.00011
303	0.00783	0.00011
308	0.00749	0.00011
313	0.00714	0.00011
318	0.00682	0.00011
323	0.00652	0.00011

System: water + 1,3-dimethylimidazolium bis((trifluoromethyl)sulfonyl)amide; phases: Liquid mixture 1, Liquid mixture 2
Fixed: Pressure, kPa = 101
Property: Mole fraction of water (Liquid mixture 1); method: NMR
Temperature, K	Mole fraction of water	uncertainty
298	0.355	0.002
303	0.365	0.002
308	0.383	0.002
313	0.405	0.002
318	0.432	0.002
323	0.455	0.002

System: water + 1,3-dimethylimidazolium bis((trifluoromethyl)sulfonyl)amide; phases: Liquid mixture 1, Liquid mixture 2
Fixed: Pressure, kPa = 101
Property: Mole fraction of 1,3-dimethylimidazolium bis((trifluoromethyl)sulfonyl)amide (Liquid mixture 1); method: NMR
Temperature, K	Mole fraction of 1,3-dimethylimidazolium bis((trifluoromethyl)sulfonyl)amide	uncertainty
298	0.00527	0.002
303	0.00498	0.002
308	0.00463	0.002
313	0.00433	0.002
318	0.00332	0.002
323	0.00242	0.002

System: water + 1-ethyl-3-methylimidazolium bis((trifluoromethyl)sulfonyl)imide; phases: Liquid, Liquid
Fixed: Pressure, kPa = 101
Property: Interfacial tension, N/m (Liquid); method: Pendant drop method
Temperature, K	Interfacial tension, N/m	uncertainty
293	0.01004	0.00011
298	0.00985	0.00011
303	0.00951	0.00011
308	0.00929	0.00011
313	0.00905	0.00011
318	0.00879	0.00011
323	0.00861	0.00011

System: water + 1-butyl-3-methylimidazolium bis(trifluoromethylsulfonyl)imide; phases: Liquid, Liquid
Fixed: Pressure, kPa = 101
Property: Interfacial tension, N/m (Liquid); method: Pendant drop method
Temperature, K	Interfacial tension, N/m	uncertainty
293	0.01369	0.00012
298	0.0132	0.00012
303	0.01257	0.00012
308	0.01231	0.00012
313	0.01162	0.00012
318	0.0114	0.00012
323	0.01107	0.00012

System: water + 1-hexyl-3-methylimidazolium bis[(trifluoromethyl)sulfonyl]imide; phases: Liquid, Liquid
Fixed: Pressure, kPa = 101
Property: Interfacial tension, N/m (Liquid); method: Pendant drop method
Temperature, K	Interfacial tension, N/m	uncertainty
293	0.01539	0.00013
298	0.01482	0.00013
303	0.01449	0.00013
308	0.01417	0.00013
313	0.01401	0.00012
318	0.01378	0.00012
323	0.01345	0.00012

System: water + 1-octyl-3-methylimidazolium bis[(trifluoromethyl)sulfonyl]imide; phases: Liquid, Liquid
Fixed: Pressure, kPa = 101
Property: Interfacial tension, N/m (Liquid); method: Pendant drop method
Temperature, K	Interfacial tension, N/m	uncertainty
293	0.01647	0.00014
298	0.01579	0.00013
303	0.01567	0.00013
308	0.01537	0.00013
313	0.01506	0.00013
318	0.01461	0.00013
323	0.01444	0.00013

System: water + 1-decyl-3-methylimidazolium bis(trifluoromethylsulfonyl)amide; phases: Liquid, Liquid
Fixed: Pressure, kPa = 101
Property: Interfacial tension, N/m (Liquid); method: Pendant drop method
Temperature, K	Interfacial tension, N/m	uncertainty
293	0.01771	0.00014
298	0.01741	0.00014
303	0.01709	0.00014
308	0.01675	0.00013
313	0.01641	0.00013
318	0.01605	0.00013
323	0.01566	0.00013

System: water + 1-decyl-3-methylimidazolium bis(trifluoromethylsulfonyl)amide; phases: Liquid mixture 1, Liquid mixture 2
Fixed: Pressure, kPa = 101
Property: Mole fraction of water (Liquid mixture 1); method: NMR
Temperature, K	Mole fraction of water	uncertainty
293	0.153	0.002
298	0.167	0.002
303	0.174	0.002
308	0.183	0.002
313	0.19	0.002
318	0.196	0.002
323	0.203	0.002
