Measured thermophysical data. The liquid gas interface of oxygen nitrogen solutions 1. Surface tension
Source: Fluid Phase Equilib., 2008, 10.1016/j.fluid.2008.06.016
Compound 1: oxygen, O2, InChI=1S/O2/c1-2
Compound 2: nitrogen, N2, InChI=1S/N2/c1-2

System: oxygen; phases: Liquid, Gas
Property: Surface tension liquid-gas, N/m (Liquid); method: CAPRISE:UFactor:0.5
Temperature, K	Surface tension liquid-gas, N/m	uncertainty
80	0.01585	0.00016
90	0.01327	0.00014
100	0.0108	0.00011
115	0.00729	8e-05
120	0.00614	7e-05
124	0.0053	6e-05
128	0.00445	5e-05
132	0.00365	4e-05

System: nitrogen; phases: Liquid, Gas
Property: Surface tension liquid-gas, N/m (Liquid); method: CAPRISE:UFactor:0.5
Temperature, K	Surface tension liquid-gas, N/m	uncertainty
80	0.00826	9e-05
90	0.00613	7e-05
100	0.0041	5e-05
115	0.0014	2e-05
120	0.000663	2.1e-05

System: nitrogen + oxygen; phases: Liquid, Gas
Property: Surface tension liquid-gas, N/m (Liquid); method: CAPRISE:UFactor:0.5
Temperature, K	Mole fraction of nitrogen	Surface tension liquid-gas, N/m	uncertainty
80	0	0.01585	0.00016
80	0.274	0.01272	0.00016
80	0.573	0.01038	0.00013
80	0.678	0.00972	0.00012
80	0.718	0.00954	0.00011
80	0.905	0.00865	0.0001
80	1	0.00826	9e-05
90	0	0.01327	0.00014
90	0.126	0.01181	0.00016
90	0.253	0.01061	0.00012
90	0.267	0.01047	0.00012
90	0.278	0.01035	0.00011
90	0.474	0.00888	0.00012
90	0.519	0.00856	0.00011
90	0.658	0.00768	0.00012
90	0.681	0.00755	0.00013
90	0.873	0.00668	8e-05
90	1	0.00613	7e-05
100	0	0.0108	0.00011
100	0.197	0.00885	0.00013
100	0.385	0.00735	0.00011
100	0.591	0.00603	9e-05
100	0.826	0.00485	7e-05
100	1	0.0041	5e-05
115	0	0.00729	8e-05
115	0.117	0.00621	0.00011
115	0.179	0.00571	0.0001
115	0.304	0.00481	9e-05
115	0.397	0.00417	0.00012
115	0.417	0.00406	9e-05
115	0.485	0.00366	7e-05
115	0.589	0.00313	6e-05
115	0.801	0.00218	5e-05
115	1	0.0014	2e-05
120	0	0.00614	7e-05
120	0.175	0.00474	9e-05
120	0.466	0.00291	7e-05
120	0.608	0.00221	5e-05
120	0.794	0.00142	5e-05
120	1	0.000663	2.1e-05
124	0	0.0053	6e-05
124	0.193	0.00384	8e-05
124	0.379	0.00271	7e-05
124	0.555	0.0018	5e-05
124	0.803	0.000747	4.7e-05
128	0	0.00445	5e-05
128	0.115	0.0036	9e-05
128	0.142	0.00339	8e-05
128	0.152	0.00335	6e-05
128	0.259	0.00272	7e-05
128	0.321	0.00231	7e-05
128	0.345	0.0022	5e-05
128	0.574	0.00105	5e-05
128	0.726	0.0005	4.2e-05
132	0	0.00365	4e-05
132	0.048	0.0033	8e-05
132	0.067	0.00316	8e-05
132	0.174	0.00249	7e-05
132	0.343	0.00155	7e-05
132	0.356	0.00147	7e-05
132	0.465	0.000978	5e-05
