Measured thermophysical data. Solubility of benzoic acid in acetone, 2-propanol, acetic acid and cyclohexane: Experimental measurement and thermodynamic modeling
Source: Fluid Phase Equilib., 2010, 10.1016/j.fluid.2010.06.021
Compound 1: benzoic acid, C7H6O2, InChI=1S/C7H6O2/c8-7(9)6-4-2-1-3-5-6/h1-5H,(H,8,9), purity 99.5%
Compound 2: acetone, C3H6O, InChI=1S/C3H6O/c1-3(2)4/h1-2H3, purity 99.5%
Compound 3: propan-2-ol, C3H8O, InChI=1S/C3H8O/c1-3(2)4/h3-4H,1-2H3, purity 99.5%
Compound 4: acetic acid, C2H4O2, InChI=1S/C2H4O2/c1-2(3)4/h1H3,(H,3,4), purity 99.5%
Compound 5: cyclohexane, C6H12, InChI=1S/C6H12/c1-2-4-6-5-3-1/h1-6H2, purity 99.5%

System: benzoic acid + cyclohexane; phases: Liquid, Crystal
Fixed: Pressure, kPa = 101
Property: Mole fraction of benzoic acid (Liquid); method: gravimetric method
Temperature, K	Mole fraction of benzoic acid	uncertainty
283.15	0.003179	0.000172
287.95	0.004724	0.000251
293.16	0.007413	0.000391
298	0.01095	0.00057
303.3	0.01528	0.00079
308.02	0.02052	0.00107
313.18	0.03023	0.00155
317.75	0.03701	0.00189
322.91	0.04678	0.00237
328.18	0.05656	0.00288
333.11	0.07254	0.00371
337.98	0.09341	0.00479
342.8	0.1223	0.0062

System: benzoic acid + acetone; phases: Liquid, Crystal
Fixed: Pressure, kPa = 101
Property: Mole fraction of benzoic acid (Liquid); method: gravimetric method
Temperature, K	Mole fraction of benzoic acid	uncertainty
277.59	0.1267	0.0027
282.21	0.143	0.003
287.03	0.1576	0.0033
287.19	0.1571	0.0033
293.2	0.1753	0.0037
298.15	0.1925	0.0041
302.95	0.2111	0.0045
307.75	0.2312	0.0049
313.05	0.2531	0.0054
317.63	0.2765	0.0059
322.72	0.3033	0.0065

System: benzoic acid + propan-2-ol; phases: Liquid, Crystal
Fixed: Pressure, kPa = 101
Property: Mole fraction of benzoic acid (Liquid); method: gravimetric method
Temperature, K	Mole fraction of benzoic acid	uncertainty
278.06	0.1286	0.0027
282.96	0.1429	0.003
288.15	0.1595	0.0033
293.11	0.1738	0.0037
297.79	0.1922	0.0041
303.45	0.2146	0.0045
308.09	0.2321	0.0049
312.8	0.2525	0.0053
317.85	0.278	0.0059
322.78	0.2959	0.0063
328.2	0.3251	0.0069
333.2	0.3465	0.0074
338.15	0.3735	0.008
343.1	0.4107	0.0089

System: acetic acid + benzoic acid; phases: Liquid, Crystal
Fixed: Pressure, kPa = 101
Property: Mole fraction of benzoic acid (Liquid); method: gravimetric method
Temperature, K	Mole fraction of benzoic acid	uncertainty
292.95	0.1285	0.0027
298.45	0.1481	0.0031
303.05	0.1655	0.0035
307.75	0.1877	0.004
312.15	0.2107	0.0045
318.35	0.2367	0.005
323.15	0.2662	0.0057
327.95	0.2967	0.0063
332.75	0.3281	0.007
337.15	0.3536	0.0076
342.75	0.4008	0.0087
346.65	0.425	0.0092
