Measured thermophysical data. Highly accurate liquid-liquid interfacial tension measurement by an easy to use capillary apparatus
Source: Fluid Phase Equilib., 2014, 10.1016/j.fluid.2014.06.018
Compound 1: hexane, C6H14, InChI=1S/C6H14/c1-3-5-6-4-2/h3-6H2,1-2H3, purity 99%
Compound 2: heptane, C7H16, InChI=1S/C7H16/c1-3-5-7-6-4-2/h3-7H2,1-2H3, purity 99%
Compound 3: octane, C8H18, InChI=1S/C8H18/c1-3-5-7-8-6-4-2/h3-8H2,1-2H3, purity 99%
Compound 4: nonane, C9H20, InChI=1S/C9H20/c1-3-5-7-9-8-6-4-2/h3-9H2,1-2H3, purity 99%
Compound 5: heptan-1-ol, C7H16O, InChI=1S/C7H16O/c1-2-3-4-5-6-7-8/h8H,2-7H2,1H3, purity 99%
Compound 6: hexanoic acid, C6H12O2, InChI=1S/C6H12O2/c1-2-3-4-5-6(7)8/h2-5H2,1H3,(H,7,8), purity 99%
Compound 7: water, H2O, InChI=1S/H2O/h1H2, purity 99.8%

System: hexane + water; phases: Liquid, Liquid
Fixed: Pressure, kPa = 100
Property: Interfacial tension, N/m (Liquid); method: capillary rise
Temperature, K	Interfacial tension, N/m	uncertainty
298.15	0.05	0.0006
302.15	0.0497	0.0006
315.65	0.0485	0.0006
322.15	0.0479	0.0006
333.15	0.047	0.0004
343.15	0.0462	0.0004

System: heptane + water; phases: Liquid, Liquid
Fixed: Pressure, kPa = 100
Property: Interfacial tension, N/m (Liquid); method: capillary rise
Temperature, K	Interfacial tension, N/m	uncertainty
298.15	0.0506	0.0006
304.15	0.0501	0.0006
314.15	0.0493	0.0006
324.65	0.0484	0.0004
335.65	0.0474	0.0004

System: octane + water; phases: Liquid, Liquid
Fixed: Pressure, kPa = 100
Property: Interfacial tension, N/m (Liquid); method: capillary rise
Temperature, K	Interfacial tension, N/m	uncertainty
312.65	0.0505	0.0006
323.65	0.0497	0.0006
330.65	0.0488	0.0006
333.15	0.048	0.0004
343.15	0.0471	0.0004

System: nonane + water; phases: Liquid, Liquid
Fixed: Pressure, kPa = 100
Property: Interfacial tension, N/m (Liquid); method: capillary rise
Temperature, K	Interfacial tension, N/m	uncertainty
303.15	0.0509	0.0006
313.15	0.05	0.0006
324.15	0.0492	0.0006
333.65	0.0484	0.0004
343.15	0.0476	0.0004

System: heptan-1-ol + water; phases: Liquid, Liquid
Fixed: Pressure, kPa = 100
Property: Interfacial tension, N/m (Liquid); method: capillary rise
Temperature, K	Interfacial tension, N/m	uncertainty
302.15	0.00728	8e-05
313.15	0.00747	8e-05
323.15	0.00761	8e-05
333.15	0.00764	8e-05
343.15	0.00759	8e-05

System: hexanoic acid + water; phases: Liquid, Liquid
Fixed: Pressure, kPa = 100
Property: Interfacial tension, N/m (Liquid); method: capillary rise
Temperature, K	Interfacial tension, N/m	uncertainty
304.65	0.00557	9e-05
313.65	0.00519	8e-05
324.15	0.00462	8e-05
333.15	0.00411	9e-05
343.15	0.00348	8e-05
