Measured thermophysical data. Liquid liquid equilibria of ternary mixture (propargyl alcohol + diisopropyl ether +water)
Source: Fluid Phase Equilib., 2007, 10.1016/j.fluid.2007.07.015
Compound 1: 2-propyn-1-ol, C3H4O, InChI=1S/C3H4O/c1-2-3-4/h1,4H,3H2
Compound 2: diisopropyl ether, C6H14O, InChI=1S/C6H14O/c1-5(2)7-6(3)4/h5-6H,1-4H3
Compound 3: water, H2O, InChI=1S/H2O/h1H2

System: 2-propyn-1-ol + diisopropyl ether + water; phases: Liquid mixture 1, Liquid mixture 2
Fixed: Pressure, kPa = 101.3
Property: Mass fraction of water (Liquid mixture 1); method: CHROM:UFactor:2
Property: Mass fraction of water (Liquid mixture 2); method: CHROM:UFactor:2
Property: Mass fraction of 2-propyn-1-ol (Liquid mixture 2); method: CHROM:UFactor:2
Temperature, K	Mass fraction of 2-propyn-1-ol	Mass fraction of water	uncertainty	Mass fraction of water	uncertainty	Mass fraction of 2-propyn-1-ol	uncertainty
297.25	0.0572	0.0135	0.0003	0.8641	0.0027	0.13	
297.25	0.1221	0.0215	0.0004	0.7754	0.0045	0.2139	
297.25	0.175	0.031	0.0006	0.7069	0.0059	0.279	
297.25	0.2292	0.0416	0.0008	0.6384	0.0072	0.3364	
297.25	0.2761	0.0553	0.0011	0.5699	0.0086	0.3855	
297.25	0.3194	0.0718	0.0014	0.5134	0.0097	0.4233	
297.25	0.358	0.0914	0.0018	0.4501	0.009	0.4571	
304.35	0.0575	0.0111	0.0002	0.8707	0.0026	0.1236	
304.35	0.1184	0.0202	0.0004	0.7781	0.0044	0.2115	
304.35	0.1711	0.0282	0.0006	0.702	0.006	0.282	
304.35	0.2235	0.0408	0.0008	0.6349	0.0073	0.3396	
304.35	0.2708	0.054	0.0011	0.5682	0.0086	0.3902	
304.35	0.3138	0.0707	0.0014	0.5057	0.0099	0.43	
304.35	0.3526	0.0872	0.0017	0.4461	0.0089	0.4624	
313.15	0.0552	0.0132	0.0003	0.8694	0.0026	0.1245	
313.15	0.1119	0.0193	0.0004	0.7681	0.0046	0.2197	
313.15	0.1617	0.0276	0.0006	0.6902	0.0062	0.2916	
313.15	0.2081	0.0366	0.0007	0.6213	0.0076	0.3495	
313.15	0.2488	0.0474	0.0009	0.5539	0.0089	0.3983	
313.15	0.2865	0.0595	0.0012	0.4959	0.0099	0.4374	
313.15	0.3279	0.0761	0.0015	0.4321	0.0086	0.4707	
323.25	0.0506	0.0125	0.0003	0.8705	0.0026	0.1249	
323.25	0.1016	0.0198	0.0004	0.7704	0.0046	0.2202	
323.25	0.1488	0.0265	0.0005	0.689	0.0062	0.2954	
323.25	0.1924	0.035	0.0007	0.6102	0.0078	0.3576	
323.25	0.2302	0.0438	0.0009	0.5473	0.0091	0.4042	
323.25	0.2699	0.0547	0.0011	0.4855	0.0097	0.4432	
323.25	0.3055	0.0665	0.0013	0.4258	0.0085	0.4748	
