Measured thermophysical data. Topological and thermodynamic investigations of molecular interactions in binary mixtures: Molar excess volumes and molar excess enthalpies
Source: Fluid Phase Equilib., 2005, 10.1016/j.fluid.2005.06.011
Compound 1: butyl ethanoate, C6H12O2, InChI=1S/C6H12O2/c1-3-4-5-8-6(2)7/h3-5H2,1-2H3
Compound 2: cyclohexane, C6H12, InChI=1S/C6H12/c1-2-4-6-5-3-1/h1-6H2
Compound 3: benzene, C6H6, InChI=1S/C6H6/c1-2-4-6-5-3-1/h1-6H
Compound 4: toluene, C7H8, InChI=1S/C7H8/c1-7-5-3-2-4-6-7/h2-6H,1H3
Compound 5: 1,2-dimethylbenzene, C8H10, InChI=1S/C8H10/c1-7-5-3-4-6-8(7)2/h3-6H,1-2H3
Compound 6: 1,3-dimethylbenzene, C8H10, InChI=1S/C8H10/c1-7-4-3-5-8(2)6-7/h3-6H,1-2H3
Compound 7: 1,4-dimethylbenzene, C8H10, InChI=1S/C8H10/c1-7-3-5-8(2)6-4-7/h3-6H,1-2H3

System: butyl ethanoate; phases: Liquid
Property: Refractive index (Na D-line) (Liquid); method: Standard Abbe refractometry
Temperature, K	Pressure, kPa	Refractive index (Na D-line)	uncertainty
308.15	101.325	1.3908	0.0012

System: butyl ethanoate; phases: Liquid
Property: Mass density, kg/m3 (Liquid); method: Vibrating tube method
Temperature, K	Pressure, kPa	Mass density, kg/m3	uncertainty
308.15	101.325	865.45	2.28

System: cyclohexane; phases: Liquid
Property: Refractive index (Na D-line) (Liquid); method: Standard Abbe refractometry
Temperature, K	Pressure, kPa	Refractive index (Na D-line)	uncertainty
308.15	101.325	1.4205	0.0012

System: cyclohexane; phases: Liquid
Property: Mass density, kg/m3 (Liquid); method: Vibrating tube method
Temperature, K	Pressure, kPa	Mass density, kg/m3	uncertainty
308.15	101.325	764.43	2.02

System: benzene; phases: Liquid
Property: Refractive index (Na D-line) (Liquid); method: Standard Abbe refractometry
Temperature, K	Pressure, kPa	Refractive index (Na D-line)	uncertainty
308.15	101.325	1.4921	0.0012

System: benzene; phases: Liquid
Property: Mass density, kg/m3 (Liquid); method: Vibrating tube method
Temperature, K	Pressure, kPa	Mass density, kg/m3	uncertainty
308.15	101.325	862.93	2.27

System: toluene; phases: Liquid
Property: Refractive index (Na D-line) (Liquid); method: Standard Abbe refractometry
Temperature, K	Pressure, kPa	Refractive index (Na D-line)	uncertainty
308.15	101.325	1.4885	0.0012

System: toluene; phases: Liquid
Property: Mass density, kg/m3 (Liquid); method: Vibrating tube method
Temperature, K	Pressure, kPa	Mass density, kg/m3	uncertainty
308.15	101.325	852.8	2.25

System: 1,2-dimethylbenzene; phases: Liquid
Property: Refractive index (Na D-line) (Liquid); method: Standard Abbe refractometry
Temperature, K	Pressure, kPa	Refractive index (Na D-line)	uncertainty
308.15	101.325	1.5031	0.0012

System: 1,2-dimethylbenzene; phases: Liquid
Property: Mass density, kg/m3 (Liquid); method: Vibrating tube method
Temperature, K	Pressure, kPa	Mass density, kg/m3	uncertainty
308.15	101.325	867.41	2.29

System: 1,3-dimethylbenzene; phases: Liquid
Property: Refractive index (Na D-line) (Liquid); method: Standard Abbe refractometry
Temperature, K	Pressure, kPa	Refractive index (Na D-line)	uncertainty
308.15	101.325	1.4946	0.0012

System: 1,3-dimethylbenzene; phases: Liquid
Property: Mass density, kg/m3 (Liquid); method: Vibrating tube method
Temperature, K	Pressure, kPa	Mass density, kg/m3	uncertainty
308.15	101.325	851.53	2.24

System: 1,4-dimethylbenzene; phases: Liquid
Property: Refractive index (Na D-line) (Liquid); method: Standard Abbe refractometry
Temperature, K	Pressure, kPa	Refractive index (Na D-line)	uncertainty
308.15	101.325	1.4879	0.0012

System: 1,4-dimethylbenzene; phases: Liquid
Property: Mass density, kg/m3 (Liquid); method: Vibrating tube method
Temperature, K	Pressure, kPa	Mass density, kg/m3	uncertainty
308.15	101.325	847.91	2.23

System: benzene + butyl ethanoate; phases: Liquid
Fixed: Temperature, K = 308.15
Fixed: Pressure, kPa = 101.3
Property: Excess molar enthalpy (molar enthalpy of mixing), kJ/mol (Liquid); method: FLOW:UFactor:2
Mole fraction of butyl ethanoate	Excess molar enthalpy (molar enthalpy of mixing), kJ/mol	uncertainty
0.1269	-0.0075	0.0017
0.2523	-0.014	0.0018
0.4029	-0.0209	0.0019
0.4575	-0.0227	0.002
0.4958	-0.0245	0.002
0.5619	-0.0264	0.002
0.6599	-0.0274	0.002
0.7279	-0.026	0.002
0.7714	-0.0245	0.002
0.8714	-0.0204	0.0019

System: benzene + butyl ethanoate; phases: Liquid
Fixed: Temperature, K = 308.15
Fixed: Pressure, kPa = 101.3
Property: Excess molar volume, m3/mol (Liquid); method: DIRDIL:UFactor:4
Mole fraction of butyl ethanoate	Excess molar volume, m3/mol	uncertainty
0.0901	4.2e-08	9e-09
0.2214	7e-08	1e-08
0.3662	7.6e-08	1e-08
0.4623	6.9e-08	1e-08
0.543	6e-08	9e-09
0.6504	4.4e-08	9e-09
0.7052	3.6e-08	9e-09
0.7601	2.8e-08	9e-09
0.8505	1.7e-08	9e-09
0.937	6e-09	9e-09

System: toluene + butyl ethanoate; phases: Liquid
Fixed: Temperature, K = 308.15
Fixed: Pressure, kPa = 101.3
Property: Excess molar enthalpy (molar enthalpy of mixing), kJ/mol (Liquid); method: FLOW:UFactor:2
Mole fraction of butyl ethanoate	Excess molar enthalpy (molar enthalpy of mixing), kJ/mol	uncertainty
0.152	-0.0292	0.0021
0.1873	-0.036	0.0022
0.2873	-0.05	0.0024
0.3922	-0.0571	0.0025
0.4465	-0.06	0.0025
0.502	-0.0618	0.0026
0.543	-0.063	0.0026
0.6	-0.062	0.0026
0.7435	-0.052	0.0024
0.8705	-0.036	0.0022
0.8898	-0.032	0.0021

System: toluene + butyl ethanoate; phases: Liquid
Fixed: Temperature, K = 308.15
Fixed: Pressure, kPa = 101.3
Property: Excess molar volume, m3/mol (Liquid); method: DIRDIL:UFactor:4
Mole fraction of butyl ethanoate	Excess molar volume, m3/mol	uncertainty
0.055	-1.9e-08	9e-09
0.1581	-6e-08	9e-09
0.2744	-8.2e-08	1e-08
0.442	-1e-07	1e-08
0.5243	-1.03e-07	1e-08
0.6231	-1.02e-07	1e-08
0.7619	-8.9e-08	1e-08
0.849	-6.9e-08	1e-08
0.9052	-5.1e-08	9e-09

System: 1,2-dimethylbenzene + butyl ethanoate; phases: Liquid
Fixed: Temperature, K = 308.15
Fixed: Pressure, kPa = 101.3
Property: Excess molar enthalpy (molar enthalpy of mixing), kJ/mol (Liquid); method: FLOW:UFactor:2
Mole fraction of butyl ethanoate	Excess molar enthalpy (molar enthalpy of mixing), kJ/mol	uncertainty
0.0707	-0.009	0.0018
0.1859	-0.0124	0.0018
0.2214	-0.02	0.0019
0.3134	-0.026	0.002
0.3539	-0.0273	0.002
0.4773	-0.029	0.0021
0.5868	-0.03	0.0021
0.6462	-0.0291	0.0021
0.8002	-0.022	0.002
0.8364	-0.019	0.0019

System: 1,2-dimethylbenzene + butyl ethanoate; phases: Liquid
Fixed: Temperature, K = 308.15
Fixed: Pressure, kPa = 101.3
Property: Excess molar volume, m3/mol (Liquid); method: DIRDIL:UFactor:4
Mole fraction of butyl ethanoate	Excess molar volume, m3/mol	uncertainty
0.1121	-2.8e-08	9e-09
0.1983	-6.3e-08	1e-08
0.2744	-8.2e-08	1e-08
0.3652	-9.7e-08	1e-08
0.4665	-1.09e-07	1e-08
0.5691	-1.08e-07	1e-08
0.606	-1.06e-07	1e-08
0.7502	-9e-08	1e-08
0.8041	-8.3e-08	1e-08
0.9032	-5.6e-08	9e-09

System: 1,3-dimethylbenzene + butyl ethanoate; phases: Liquid
Fixed: Temperature, K = 308.15
Fixed: Pressure, kPa = 101.3
Property: Excess molar enthalpy (molar enthalpy of mixing), kJ/mol (Liquid); method: FLOW:UFactor:2
Mole fraction of butyl ethanoate	Excess molar enthalpy (molar enthalpy of mixing), kJ/mol	uncertainty
0.1568	0.0099	0.0018
0.1886	0.0139	0.0018
0.2879	0.0171	0.0019
0.4265	0.0219	0.002
0.4818	0.0221	0.002
0.5375	0.0232	0.002
0.6365	0.0234	0.002
0.7881	0.0191	0.0019
0.8286	0.018	0.0019
0.9169	0.0119	0.0018

System: 1,3-dimethylbenzene + butyl ethanoate; phases: Liquid
Fixed: Temperature, K = 308.15
Fixed: Pressure, kPa = 101.3
Property: Excess molar volume, m3/mol (Liquid); method: DIRDIL:UFactor:4
Mole fraction of butyl ethanoate	Excess molar volume, m3/mol	uncertainty
0.1509	-7.7e-08	1e-08
0.1651	-8.3e-08	1e-08
0.2243	-9.4e-08	1e-08
0.314	-1.27e-07	1e-08
0.3921	-1.42e-07	1e-08
0.5651	-1.44e-07	1e-08
0.669	-1.31e-07	1e-08
0.8091	-9.7e-08	1e-08
0.8816	-5.2e-08	9e-09
0.9052	-4.3e-08	9e-09

System: 1,4-dimethylbenzene + butyl ethanoate; phases: Liquid
Fixed: Temperature, K = 308.15
Fixed: Pressure, kPa = 101.3
Property: Excess molar enthalpy (molar enthalpy of mixing), kJ/mol (Liquid); method: FLOW:UFactor:2
Mole fraction of butyl ethanoate	Excess molar enthalpy (molar enthalpy of mixing), kJ/mol	uncertainty
0.0722	-0.0149	0.0018
0.1892	-0.0358	0.0022
0.3182	-0.0479	0.0023
0.359	-0.0511	0.0024
0.4828	-0.0576	0.0025
0.6364	-0.057	0.0025
0.6512	-0.057	0.0025
0.7888	-0.0448	0.0023
0.8394	-0.0369	0.0022
0.9169	-0.0228	0.002

System: 1,4-dimethylbenzene + butyl ethanoate; phases: Liquid
Fixed: Temperature, K = 308.15
Fixed: Pressure, kPa = 101.3
Property: Excess molar volume, m3/mol (Liquid); method: DIRDIL:UFactor:4
Mole fraction of butyl ethanoate	Excess molar volume, m3/mol	uncertainty
0.0881	-8e-08	1e-08
0.163	-1.59e-07	1e-08
0.314	-2.47e-07	1e-08
0.3481	-2.81e-07	1e-08
0.5001	-3.16e-07	1e-08
0.6164	-3.18e-07	1e-08
0.738	-2.82e-07	1e-08
0.7871	-2.64e-07	1e-08
0.8758	-2.21e-07	1e-08
0.9179	-1.71e-07	1e-08

System: cyclohexane + butyl ethanoate; phases: Liquid
Fixed: Temperature, K = 308.15
Fixed: Pressure, kPa = 101.3
Property: Excess molar enthalpy (molar enthalpy of mixing), kJ/mol (Liquid); method: FLOW:UFactor:2
Mole fraction of butyl ethanoate	Excess molar enthalpy (molar enthalpy of mixing), kJ/mol	uncertainty
0.1409	0.8169	0.0142
0.1975	1.0714	0.0182
0.2672	1.2865	0.0215
0.3389	1.3921	0.0231
0.4035	1.3858	0.023
0.4961	1.2542	0.021
0.5517	1.1201	0.0189
0.6466	0.8582	0.0149
0.7965	0.4704	0.0089
0.8311	0.3962	0.0077
0.9061	0.2364	0.0052

System: cyclohexane + butyl ethanoate; phases: Liquid
Fixed: Temperature, K = 308.15
Fixed: Pressure, kPa = 101.3
Property: Excess molar volume, m3/mol (Liquid); method: DIRDIL:UFactor:8
Mole fraction of butyl ethanoate	Excess molar volume, m3/mol	uncertainty
0.1062	3.47e-07	2.1e-08
0.1575	4.35e-07	2.1e-08
0.223	5.21e-07	2.2e-08
0.3004	6.04e-07	2.2e-08
0.4851	6.74e-07	2.3e-08
0.4863	6.85e-07	2.3e-08
0.5412	6.54e-07	2.3e-08
0.6489	6.07e-07	2.2e-08
0.735	4.98e-07	2.2e-08
0.7661	4.06e-07	2.1e-08
0.8854	1.95e-07	2e-08
