Measured thermophysical data. Gas phase PVTx properties for binary mixtures of HFC-161 and HFC-134a
Source: Fluid Phase Equilib., 2011, 10.1016/j.fluid.2011.02.012
Compound 1: 1,1,1,2-tetrafluoroethane, C2H2F4, InChI=1S/C2H2F4/c3-1-2(4,5)6/h1H2, purity 99.99%
Compound 2: fluoroethane, C2H5F, InChI=1S/C2H5F/c1-2-3/h2H2,1H3, purity 99.74%

System: fluoroethane + 1,1,1,2-tetrafluoroethane; phases: Gas
Property: Amount density, mol/m3 (Gas); method: ISOCHOR
Temperature, K	Pressure, kPa	Mole fraction of fluoroethane	Amount density, mol/m3	uncertainty
318.221	1168.1	0.5472	560.3	2.5
323.203	1203	0.5472	560.2	2.1
323.212	1308.3	0.4301	636	2.8
323.429	1114.2	0.4684	505.2	2.5
328.188	1235.5	0.5472	560	2.5
328.207	1349.4	0.4301	635.9	2.7
328.216	1120.6	0.5191	496.1	2.3
328.425	1142.3	0.4684	505.1	2.5
333.173	1267.6	0.5472	559.9	2.5
333.173	1386.8	0.4301	635.7	2.6
333.199	1147.9	0.5191	496	2.3
333.383	1170.2	0.4684	505	2.3
338.159	1696.7	0.5217	805.2	3
338.161	1423.5	0.4301	635.6	2.6
338.195	1298	0.5472	559.7	2.5
338.203	1174.4	0.5191	495.9	2.3
338.428	1198	0.4684	504.9	2.3
343.167	1328.9	0.5472	559.6	2.4
343.172	1908.6	0.7135	894.8	3.7
343.187	1744.2	0.5217	805	3
343.2	2100.6	0.3203	1096.3	3.9
343.226	1460.1	0.4301	635.4	2.5
343.256	1200.9	0.5191	495.8	2.3
343.418	1226.3	0.4684	504.7	2.3
348.174	1495	0.4301	635.3	2.5
348.188	1358.9	0.5472	559.5	2.4
348.211	1792.4	0.5217	804.8	2.9
348.244	1227.2	0.5191	495.6	2.2
348.244	2178	0.3203	1096	3.9
348.251	1962.3	0.7135	894.5	3.7
348.411	1251.8	0.4684	504.6	2.2
353.174	1529.8	0.4301	635.1	2.5
353.188	1838.2	0.5217	804.6	2.9
353.189	2248.2	0.3203	1095.7	3.8
353.213	2013.6	0.7135	894.3	3.8
353.236	1389.1	0.5472	559.3	2.3
353.248	1278.2	0.4684	504.5	2.2
353.256	1252.5	0.5191	495.5	2.2
358.211	2064.2	0.7135	894.1	3.8
358.216	1418.4	0.5472	559.2	2.3
358.216	1564.2	0.4301	634.9	2.4
358.216	1884.1	0.5217	804.4	2.9
358.217	1277.9	0.5191	495.4	2.1
358.22	2317.7	0.3203	1095.5	3.8
358.237	1304.3	0.4684	504.4	2.2
363.186	1331	0.4684	504.2	2.1
363.196	1302.7	0.5191	495.3	2.1
363.202	2115.2	0.7135	893.9	3.6
363.203	1598.9	0.4301	634.8	2.4
363.206	1929	0.5217	804.2	2.8
363.209	3609	0.884	2095.7	9.6
363.218	2385.6	0.3203	1095.2	3.7
363.222	1447.3	0.5472	559	2.3
368.178	1476.1	0.5472	558.9	2.2
368.179	2165.4	0.7135	893.7	3.5
368.18	1632.7	0.4301	634.6	2.4
368.181	1973.2	0.5217	804	2.8
368.185	3755.7	0.884	2095.2	9.8
368.192	2451.4	0.3203	1094.9	3.7
368.198	1327.7	0.5191	495.1	2.1
368.219	1355.4	0.4684	504.1	2.1
373.154	1504.1	0.5472	558.8	2.2
373.167	4489.8	0.9206	3034.9	85.8
373.168	2016.7	0.5217	803.8	2.8
373.171	1666.4	0.4301	634.5	2.4
373.172	3897.1	0.884	2094.7	10.1
373.174	2517.6	0.3203	1094.6	3.7
373.174	4684.5	0.9474	3974.2	71.1
373.184	2213.5	0.7135	893.4	3.5
373.206	1353.5	0.5191	495	2.1
373.224	1381.9	0.4684	504	2.1
378.15	4034.3	0.884	2094.1	9.1
378.159	1532.6	0.5472	558.6	2.2
378.166	2061.3	0.5217	803.6	2.8
378.179	2263.6	0.7135	893.2	3.4
378.18	2582.4	0.3203	1094.4	3.6
378.188	1377.8	0.5191	494.9	2
378.188	1699.2	0.4301	634.3	2.3
378.192	1406.8	0.4684	503.9	2
378.209	5039.5	0.9474	3973.2	71.1
378.223	4717.5	0.9206	3034.1	75.4
383.156	4169.9	0.884	2093.6	13.2
383.168	2645.9	0.3203	1094.1	3.6
383.173	1561.1	0.5472	558.5	2.2
383.174	5339.6	0.9474	3972.2	71.1
383.177	1432.5	0.4684	503.7	2
383.194	2311.7	0.7135	893	3.3
383.217	2104	0.5217	803.4	2.8
383.219	1732.3	0.4301	634.2	2.3
383.25	4935	0.9206	3033.4	89
383.253	1402.5	0.5191	494.8	2
388.15	1458	0.4684	503.6	2
388.201	1764.6	0.4301	634	2.3
388.211	1589.2	0.5472	558.4	2.1
388.221	1427.6	0.5191	494.7	2
388.229	2359	0.7135	892.8	3.3
388.23	2709.2	0.3203	1093.8	3.6
388.232	5145.4	0.9206	3032.6	70.7
388.238	5637	0.9474	3971.2	71.1
388.24	4304.7	0.884	2093.1	11.9
388.242	2147.1	0.5217	803.2	2.7
393.127	1796.4	0.4301	633.8	2.3
393.137	2189.5	0.5217	803	2.7
393.174	4434.6	0.884	2092.6	10.9
393.202	1617	0.5472	558.2	2.1
393.207	1450.8	0.5191	494.5	2
393.208	5355.3	0.9206	3031.9	101.2
393.213	2407.7	0.7135	892.6	3.3
393.222	2773.3	0.3203	1093.6	3.6
393.262	1483.4	0.4684	503.5	2
398.136	1645.2	0.5472	558.1	2.1
398.19	2454.1	0.7135	892.3	3.2
398.199	2835.5	0.3203	1093.3	3.6
398.2	1475.2	0.5191	494.4	1.9
398.2	2232.3	0.5217	802.8	2.7
398.202	1829.2	0.4301	633.7	2.3
398.215	4565.6	0.884	2092.1	51.1
398.226	5563.9	0.9206	3031.1	111.4
398.259	1508.4	0.4684	503.4	2
403.181	1499.4	0.5191	494.3	1.9
403.181	1672.2	0.5472	557.9	2.1
403.184	1861.2	0.4301	633.5	2.2
403.187	2896	0.3203	1093	3.5
403.188	2501.8	0.7135	892.1	3.2
403.194	2273.4	0.5217	802.6	2.7
403.195	5767	0.9206	3030.4	104.4
403.199	4693.6	0.884	2091.5	51.1
403.288	1532.8	0.4684	503.2	1.9
