Measured thermophysical data. Liquid liquid equilibria of 4-methyl-2-pentanone + 1-propanol or 2-propanol + water ternary systems: Measurements and correlation at different temperatures
Source: Fluid Phase Equilib., 2014, 10.1016/j.fluid.2013.10.034
Compound 1: 4-methylpentan-2-one, C6H12O, InChI=1S/C6H12O/c1-5(2)4-6(3)7/h5H,4H2,1-3H3, purity 99.5%
Compound 2: propan-1-ol, C3H8O, InChI=1S/C3H8O/c1-2-3-4/h4H,2-3H2,1H3, purity 99.97%
Compound 3: propan-2-ol, C3H8O, InChI=1S/C3H8O/c1-3(2)4/h3-4H,1-2H3, purity 99.5%
Compound 4: water, H2O, InChI=1S/H2O/h1H2, purity 99%

System: 4-methylpentan-2-one; phases: Liquid
Property: Mass density, kg/m3 (Liquid); method: Vibrating tube method
Temperature, K	Pressure, kPa	Mass density, kg/m3	uncertainty
298.15	101.325	795.94	0.14

System: 4-methylpentan-2-one; phases: Liquid
Property: Refractive index (Na D-line) (Liquid); method: Standard Abbe refractometry
Temperature, K	Pressure, kPa	Refractive index (Na D-line)	uncertainty
298.15	101.325	1.3936	0.0005

System: propan-1-ol; phases: Liquid
Property: Mass density, kg/m3 (Liquid); method: Vibrating tube method
Temperature, K	Pressure, kPa	Mass density, kg/m3	uncertainty
298.15	101.325	799.62	0.11

System: propan-1-ol; phases: Liquid
Property: Refractive index (Na D-line) (Liquid); method: Standard Abbe refractometry
Temperature, K	Pressure, kPa	Refractive index (Na D-line)	uncertainty
298.15	101.325	1.3836	0.0005

System: propan-2-ol; phases: Liquid
Property: Mass density, kg/m3 (Liquid); method: Vibrating tube method
Temperature, K	Pressure, kPa	Mass density, kg/m3	uncertainty
298.15	101.325	782.7	0.15

System: propan-2-ol; phases: Liquid
Property: Refractive index (Na D-line) (Liquid); method: Standard Abbe refractometry
Temperature, K	Pressure, kPa	Refractive index (Na D-line)	uncertainty
298.15	101.325	1.3754	0.0005

System: water; phases: Liquid
Property: Mass density, kg/m3 (Liquid); method: Vibrating tube method
Temperature, K	Pressure, kPa	Mass density, kg/m3	uncertainty
298.15	101.325	997.06	0.23

System: water; phases: Liquid
Property: Refractive index (Na D-line) (Liquid); method: Standard Abbe refractometry
Temperature, K	Pressure, kPa	Refractive index (Na D-line)	uncertainty
298.15	101.325	1.3325	0.0005

System: propan-1-ol + 4-methylpentan-2-one + water; phases: Liquid mixture 2, Liquid mixture 1
Fixed: Pressure, kPa = 101.3
Property: Mole fraction of 4-methylpentan-2-one (Liquid mixture 2); method: Chromatography
Property: Mole fraction of propan-1-ol (Liquid mixture 1); method: Chromatography
Property: Mole fraction of 4-methylpentan-2-one (Liquid mixture 1); method: Chromatography
Temperature, K	Mole fraction of propan-1-ol	Mole fraction of 4-methylpentan-2-one	uncertainty	Mole fraction of propan-1-ol	uncertainty	Mole fraction of 4-methylpentan-2-one	uncertainty
283.2	0	0.004	0.002	0		0.913	
283.2	0.012	0.005	0.002	0.065	0.002	0.805	
283.2	0.023	0.005	0.002	0.143	0.003	0.669	
283.2	0.031	0.005	0.002	0.202	0.003	0.549	
283.2	0.039	0.004	0.002	0.263	0.003	0.403	
283.2	0.044	0.004	0.002	0.286	0.003	0.328	
283.2	0.05	0.005	0.002	0.3	0.003	0.239	
283.2	0.057	0.005	0.002	0.298	0.003	0.165	
283.2	0.063	0.006	0.002	0.284	0.003	0.127	
283.2	0.071	0.007	0.002	0.266	0.003	0.098	
323.2	0	0.0023	0.002	0		0.879	
323.2	0.008	0.0026	0.002	0.089	0.002	0.749	
323.2	0.015	0.0027	0.002	0.171	0.003	0.602	
323.2	0.021	0.0028	0.002	0.224	0.003	0.504	
323.2	0.027	0.0029	0.002	0.28	0.003	0.362	
323.2	0.031	0.0032	0.002	0.294	0.003	0.295	
323.2	0.037	0.0033	0.002	0.305	0.003	0.214	
323.2	0.044	0.0049	0.002	0.287	0.003	0.149	
323.2	0.05	0.0046	0.002	0.278	0.003	0.115	
323.2	0.058	0.006	0.002	0.255	0.003	0.087	

System: propan-2-ol + 4-methylpentan-2-one + water; phases: Liquid mixture 2, Liquid mixture 1
Fixed: Pressure, kPa = 101.3
Property: Mole fraction of 4-methylpentan-2-one (Liquid mixture 2); method: Chromatography
Property: Mole fraction of propan-2-ol (Liquid mixture 1); method: Chromatography
Property: Mole fraction of 4-methylpentan-2-one (Liquid mixture 1); method: Chromatography
Temperature, K	Mole fraction of propan-2-ol	Mole fraction of 4-methylpentan-2-one	uncertainty	Mole fraction of propan-2-ol	uncertainty	Mole fraction of 4-methylpentan-2-one	uncertainty
283.2	0	0.004	0.002	0		0.904	
283.2	0.007	0.004	0.002	0.018	0.002	0.872	
283.2	0.018	0.004	0.002	0.049	0.002	0.826	
283.2	0.027	0.004	0.002	0.08	0.002	0.775	
283.2	0.037	0.004	0.002	0.121	0.002	0.703	
283.2	0.044	0.005	0.002	0.158	0.003	0.63	
283.2	0.049	0.005	0.002	0.182	0.003	0.576	
283.2	0.056	0.005	0.002	0.22	0.003	0.484	
283.2	0.063	0.006	0.002	0.25	0.003	0.393	
283.2	0.069	0.006	0.002	0.263	0.003	0.332	
283.2	0.078	0.007	0.002	0.269	0.003	0.249	
283.2	0.083	0.008	0.002	0.264	0.003	0.208	
283.2	0.089	0.01	0.002	0.256	0.003	0.171	
283.2	0.093	0.011	0.002	0.248	0.003	0.154	
323.2	0	0.003	0.002	0		0.869	
323.2	0.005	0.003	0.002	0.03	0.002	0.811	
323.2	0.011	0.003	0.002	0.076	0.003	0.751	
323.2	0.017	0.003	0.002	0.114	0.003	0.682	
323.2	0.023	0.003	0.002	0.159	0.003	0.617	
323.2	0.027	0.004	0.002	0.188	0.003	0.533	
323.2	0.033	0.004	0.002	0.226	0.003	0.448	
323.2	0.039	0.004	0.002	0.252	0.003	0.379	
323.2	0.045	0.004	0.002	0.27	0.003	0.316	
323.2	0.05	0.005	0.002	0.268	0.003	0.261	
323.2	0.062	0.007	0.002	0.261	0.003	0.176	
323.2	0.067	0.008	0.002	0.251	0.003	0.15	
323.2	0.081	0.012	0.002	0.222	0.003	0.104	
323.2	0.086	0.013	0.002	0.215	0.003	0.096	
