Measured thermophysical data. Equilibrium solubility of carbon dioxide in aqueous solutions of 3-amino-1-propanol, 4-amino-1-butanol and 5-amino-1-pentanol at low partial pressures
Source: Fluid Phase Equilib., 2015, 10.1016/j.fluid.2014.11.028
Compound 1: carbon dioxide, CO2, InChI=1S/CO2/c2-1-3, purity 99.9%
Compound 2: 2-aminoethan-1-ol, C2H7NO, InChI=1S/C2H7NO/c3-1-2-4/h4H,1-3H2, purity 99.5%
Compound 3: water, H2O, InChI=1S/H2O/h1H2, purity 99.9%
Compound 4: 3-amino-1-propanol, C3H9NO, InChI=1S/C3H9NO/c4-2-1-3-5/h5H,1-4H2, purity 99%
Compound 5: 4-amino-1-butanol, C4H11NO, InChI=1S/C4H11NO/c5-3-1-2-4-6/h6H,1-5H2, purity 98%
Compound 6: 5-amino-1-pentanol, C5H13NO, InChI=1S/C5H13NO/c6-4-2-1-3-5-7/h7H,1-6H2, purity 97%

System: carbon dioxide + 2-aminoethan-1-ol + water; phases: Liquid, Gas
Fixed: Solvent: Mass fraction of 2-aminoethan-1-ol = 0.3
Fixed: Temperature, K = 313.15
Property: Mole fraction of carbon dioxide (Liquid); method: Titration method
Pressure, kPa	Mole fraction of carbon dioxide	uncertainty
0.0144	0.219	0.008
0.0169	0.24	0.01
0.0188	0.261	0.011
0.0243	0.28	0.01
0.1213	0.387	0.027
0.6743	0.459	0.015
1.5129	0.479	0.015
2.1278	0.491	0.015
4.6434	0.506	0.015
7.4275	0.519	0.015
11.2351	0.534	0.014

System: carbon dioxide + 3-amino-1-propanol + water; phases: Liquid, Gas
Fixed: Solvent: Mass fraction of 3-amino-1-propanol = 0.3
Fixed: Temperature, K = 313.15
Property: Mole fraction of carbon dioxide (Liquid); method: Titration method
Pressure, kPa	Mole fraction of carbon dioxide	uncertainty
0.0047	0.206	0.015
0.0071	0.245	0.023
0.0081	0.301	0.016
0.0125	0.334	0.018
0.0263	0.376	0.014
0.0432	0.398	0.012
0.0759	0.421	0.016
0.2094	0.459	0.015
0.4471	0.482	0.015
1.0118	0.506	0.015
2.3244	0.524	0.016

System: carbon dioxide + 3-amino-1-propanol + water; phases: Liquid, Gas
Fixed: Solvent: Amount concentration (molarity), mol/dm3 of 3-amino-1-propanol = 5
Fixed: Temperature, K = 313.15
Property: Mole fraction of carbon dioxide (Liquid); method: Titration method
Pressure, kPa	Mole fraction of carbon dioxide	uncertainty
0.0071	0.167	0.006
0.0079	0.174	0.005
0.0087	0.201	0.006
0.0144	0.235	0.007
0.0263	0.26	0.008
0.0577	0.28	0.009
0.1523	0.298	0.009
0.4349	0.316	0.01
1.0733	0.333	0.01
2.0695	0.339	0.01
4.2314	0.345	0.01

System: carbon dioxide + water + 4-amino-1-butanol; phases: Liquid, Gas
Fixed: Solvent: Mass fraction of 4-amino-1-butanol = 0.3
Fixed: Temperature, K = 313.15
Property: Mole fraction of carbon dioxide (Liquid); method: Titration method
Pressure, kPa	Mole fraction of carbon dioxide	uncertainty
0.0039	0.227	0.008
0.0043	0.253	0.01
0.0058	0.279	0.014
0.0067	0.309	0.022
0.0086	0.326	0.016
0.0119	0.353	0.014
0.0189	0.377	0.014
0.0221	0.385	0.015
0.0379	0.411	0.015
0.0574	0.428	0.014
0.0835	0.441	0.014
0.1117	0.452	0.014
0.3207	0.487	0.016
0.6453	0.508	0.016
2.1393	0.524	0.015

System: carbon dioxide + water + 4-amino-1-butanol; phases: Liquid, Gas
Fixed: Solvent: Amount concentration (molarity), mol/dm3 of 4-amino-1-butanol = 0.446
Fixed: Temperature, K = 313.15
Property: Mole fraction of carbon dioxide (Liquid); method: Titration method
Pressure, kPa	Mole fraction of carbon dioxide	uncertainty
0.0055	0.17	0.007
0.007	0.2	0.006
0.0087	0.217	0.008
0.0104	0.231	0.009
0.0116	0.238	0.009
0.0163	0.257	0.009
0.0276	0.27	0.009
0.0514	0.283	0.009
0.1186	0.299	0.01
0.1973	0.311	0.01
0.3785	0.322	0.01
0.5138	0.326	0.01
1.2149	0.339	0.01
2.5681	0.349	0.011

System: carbon dioxide + 5-amino-1-pentanol + water; phases: Liquid, Gas
Fixed: Solvent: Mass fraction of 5-amino-1-pentanol = 0.3
Fixed: Temperature, K = 313.15
Property: Mole fraction of carbon dioxide (Liquid); method: Titration method
Pressure, kPa	Mole fraction of carbon dioxide	uncertainty
0.0032	0.265	0.009
0.0053	0.315	0.019
0.0061	0.325	0.01
0.0081	0.335	0.012
0.0095	0.353	0.012
0.0119	0.364	0.013
0.0182	0.388	0.014
0.0253	0.401	0.014
0.0406	0.424	0.015
0.059	0.439	0.016
0.1065	0.461	0.014
0.1688	0.477	0.014
0.365	0.502	0.016
1.7587	0.524	0.015

System: carbon dioxide + 5-amino-1-pentanol + water; phases: Liquid, Gas
Fixed: Solvent: Amount concentration (molarity), mol/dm3 of 5-amino-1-pentanol = 5
Fixed: Temperature, K = 313.15
Property: Mole fraction of carbon dioxide (Liquid); method: Titration method
Pressure, kPa	Mole fraction of carbon dioxide	uncertainty
0.0039	0.169	0.007
0.0064	0.224	0.007
0.0081	0.235	0.009
0.0152	0.26	0.009
0.0207	0.266	0.008
0.0323	0.28	0.009
0.0412	0.286	0.009
0.0688	0.297	0.01
0.0859	0.302	0.01
0.1083	0.309	0.01
0.1787	0.316	0.01
0.3054	0.322	0.01
0.6121	0.334	0.01
1.7157	0.336	0.01
2.0474	0.343	0.011
