Measured thermophysical data. Vapor-liquid equilibria of monoacylglicerol + monoacylglicerol or alcohol or fatty acid at subatmospheric pressures
Source: Fluid Phase Equilib., 2017, 10.1016/j.fluid.2017.08.013
Compound 1: 2,3-dihydroxypropyl octanoate, C11H22O4, InChI=1S/C11H22O4/c1-2-3-4-5-6-7-11(14)15-9-10(13)8-12/h10,12-13H,2-9H2,1H3, purity 99%
Compound 2: 2,3-dihydroxypropyl nonanoate, C12H24O4, InChI=1S/C12H24O4/c1-2-3-4-5-6-7-8-12(15)16-10-11(14)9-13/h11,13-14H,2-10H2,1H3, purity 99%
Compound 3: 2,3-dihydroxypropyl dodecanoate, C15H30O4, InChI=1S/C15H30O4/c1-2-3-4-5-6-7-8-9-10-11-15(18)19-13-14(17)12-16/h14,16-17H,2-13H2,1H3, purity 99%
Compound 4: dodecanoic acid, C12H24O2, InChI=1S/C12H24O2/c1-2-3-4-5-6-7-8-9-10-11-12(13)14/h2-11H2,1H3,(H,13,14), purity 99%
Compound 5: 1-hexadecanol, C16H34O, InChI=1S/C16H34O/c1-2-3-4-5-6-7-8-9-10-11-12-13-14-15-16-17/h17H,2-16H2,1H3, purity 99%
Compound 6: 1-octadecanol, C18H38O, InChI=1S/C18H38O/c1-2-3-4-5-6-7-8-9-10-11-12-13-14-15-16-17-18-19/h19H,2-18H2,1H3, purity 99%

System: 2,3-dihydroxypropyl octanoate; phases: Liquid, Gas
Property: Boiling temperature at pressure P, K (Liquid); method: DSC
Pressure, kPa	Boiling temperature at pressure P, K	uncertainty
3.42	484.73	1.62

System: 2,3-dihydroxypropyl nonanoate; phases: Liquid, Gas
Property: Boiling temperature at pressure P, K (Liquid); method: DSC
Pressure, kPa	Boiling temperature at pressure P, K	uncertainty
2.06	483.61	1.68

System: 2,3-dihydroxypropyl nonanoate; phases: Liquid, Gas
Property: Boiling temperature at pressure P, K (Liquid); method: DSC
Pressure, kPa	Boiling temperature at pressure P, K	uncertainty
2.02	483.61	1.91

System: 2,3-dihydroxypropyl nonanoate; phases: Liquid, Gas
Property: Boiling temperature at pressure P, K (Liquid); method: DSC
Pressure, kPa	Boiling temperature at pressure P, K	uncertainty
1.26	471.02	2.14
2.39	486.08	2.58
3.01	492.07	2.07
4.74	502.29	2.14
6.87	509.88	2

System: 2,3-dihydroxypropyl dodecanoate; phases: Liquid, Gas
Property: Boiling temperature at pressure P, K (Liquid); method: DSC
Pressure, kPa	Boiling temperature at pressure P, K	uncertainty
2.06	505.19	1.84

System: 2,3-dihydroxypropyl dodecanoate; phases: Liquid, Gas
Property: Boiling temperature at pressure P, K (Liquid); method: DSC
Pressure, kPa	Boiling temperature at pressure P, K	uncertainty
2.05	505.19	1.84

System: 2,3-dihydroxypropyl dodecanoate; phases: Liquid, Gas
Property: Boiling temperature at pressure P, K (Liquid); method: DSC
Pressure, kPa	Boiling temperature at pressure P, K	uncertainty
0.69	482.77	2.58
1.15	493.97	1.91
2.07	505.19	2.22
2.41	509.07	1.61
2.77	510.94	1.77

System: dodecanoic acid; phases: Liquid, Gas
Property: Boiling temperature at pressure P, K (Liquid); method: DSC
Pressure, kPa	Boiling temperature at pressure P, K	uncertainty
3.42	465.77	1.8

System: 1-hexadecanol; phases: Liquid, Gas
Property: Boiling temperature at pressure P, K (Liquid); method: DSC
Pressure, kPa	Boiling temperature at pressure P, K	uncertainty
2.02	465.7	2.06

System: 1-octadecanol; phases: Liquid, Gas
Property: Boiling temperature at pressure P, K (Liquid); method: DSC
Pressure, kPa	Boiling temperature at pressure P, K	uncertainty
2.05	487.25	2.07

System: dodecanoic acid + 2,3-dihydroxypropyl octanoate; phases: Liquid, Gas
Fixed: Pressure, kPa = 3.42
Property: Boiling temperature at pressure P, K (Liquid); method: DSC
Mole fraction of dodecanoic acid	Boiling temperature at pressure P, K	uncertainty
0.9009	464.91	2.32
0.8002	464.73	1.88
0.7019	464.69	1.73
0.5974	465.19	2.12
0.5054	466.19	1.94
0.4015	468.21	1.97
0.3018	471.25	2.06
0.2021	476.19	1.79
0.1008	480.43	2.1

System: 2,3-dihydroxypropyl nonanoate + 2,3-dihydroxypropyl dodecanoate; phases: Liquid, Gas
Fixed: Pressure, kPa = 2.06
Property: Boiling temperature at pressure P, K (Liquid); method: DSC
Mole fraction of 2,3-dihydroxypropyl nonanoate	Boiling temperature at pressure P, K	uncertainty
0.909	484.01	1.67
0.8011	484.9	1.81
0.7019	486.89	1.74
0.5924	488.11	1.85
0.4976	490.51	2.01
0.3986	493.63	1.87
0.3014	496.04	2.05
0.2005	498.88	2.07
0.1002	501.14	1.63

System: 1-hexadecanol + 2,3-dihydroxypropyl nonanoate; phases: Liquid, Gas
Fixed: Pressure, kPa = 2.02
Property: Boiling temperature at pressure P, K (Liquid); method: DSC
Mole fraction of 1-hexadecanol	Boiling temperature at pressure P, K	uncertainty
0.8769	466.61	2.02
0.7862	466.08	2.39
0.6848	466.73	2.1
0.5762	467.9	1.92
0.4936	468.38	2.39
0.3872	469.74	2.46
0.2814	471.42	2.24
0.1993	475.78	2.14
0.0992	479.76	2.09

System: 1-octadecanol + 2,3-dihydroxypropyl dodecanoate; phases: Liquid, Gas
Fixed: Pressure, kPa = 2.05
Property: Boiling temperature at pressure P, K (Liquid); method: DSC
Mole fraction of 1-octadecanol	Boiling temperature at pressure P, K	uncertainty
0.9008	486.77	1.65
0.7995	488.16	1.86
0.7015	489.1	1.91
0.6056	490.03	1.86
0.505	491.13	1.87
0.4	491.39	1.81
0.3151	494.24	1.87
0.2062	496.87	1.75
0.111	501.35	1.62
