Measured thermophysical data. Solubility of succinic acid in different aqueous solvent mixtures: Experimental measurement and thermodynamic modeling
Source: Fluid Phase Equilib., 2013, 10.1016/j.fluid.2012.12.018
Compound 1: butanedioic acid, C4H6O4, InChI=1S/C4H6O4/c5-3(6)1-2-4(7)8/h1-2H2,(H,5,6)(H,7,8), purity 99%
Compound 2: water, H2O, InChI=1S/H2O/h1H2, purity 99.9%
Compound 3: methanol, CH4O, InChI=1S/CH4O/c1-2/h2H,1H3, purity 99.5%
Compound 4: ethanol, C2H6O, InChI=1S/C2H6O/c1-2-3/h3H,2H2,1H3, purity 99.7%

System: methanol + butanedioic acid + water; phases: Liquid, Crystal
Fixed: Pressure, kPa = 101
Property: Mole fraction of butanedioic acid (Liquid); method: Density calibration data
Solvent: Mass fraction of methanol	Temperature, K	Mole fraction of butanedioic acid	uncertainty
0.0808	278.15	0.004	0.0002
0.0808	283.15	0.0055	0.0002
0.0808	288.15	0.0075	0.0003
0.0808	293.15	0.0102	0.0004
0.0808	298.15	0.0133	0.0005
0.0808	303.15	0.0174	0.0007
0.0808	308.15	0.0224	0.0009
0.0808	313.15	0.0293	0.0012
0.0808	318.15	0.0371	0.0015
0.0808	323.15	0.0469	0.0019
0.0808	328.15	0.0584	0.0023
0.0808	333.15	0.0735	0.0029
0.2532	278.15	0.0053	0.0002
0.2532	283.15	0.0075	0.0003
0.2532	288.15	0.0103	0.0004
0.2532	293.15	0.0139	0.0006
0.2532	298.15	0.0188	0.0008
0.2532	303.15	0.0252	0.001
0.2532	308.15	0.0341	0.0014
0.2532	313.15	0.0437	0.0018
0.2532	318.15	0.0559	0.0022
0.2532	323.15	0.0712	0.0029
0.2532	328.15	0.0898	0.0036
0.2532	333.15	0.1134	0.0046
0.3453	278.15	0.0056	0.0002
0.3453	283.15	0.008	0.0003
0.3453	288.15	0.0116	0.0005
0.3453	293.15	0.0162	0.0007
0.3453	298.15	0.0228	0.0009
0.3453	303.15	0.0308	0.0012
0.3453	308.15	0.0424	0.0017
0.3453	313.15	0.0561	0.0023
0.3453	318.15	0.0726	0.0029
0.3453	323.15	0.0952	0.0038
0.3453	328.15	0.1222	0.0049
0.3453	333.15	0.1557	0.0063
0.5426	278.15	0.0084	0.0003
0.5426	283.15	0.0123	0.0005
0.5426	288.15	0.0173	0.0007
0.5426	293.15	0.0235	0.0009
0.5426	298.15	0.0333	0.0013
0.5426	303.15	0.0443	0.0018
0.5426	308.15	0.0599	0.0024
0.5426	313.15	0.0777	0.0031
0.5426	318.15	0.1004	0.004
0.5426	323.15	0.1272	0.0051
0.5426	328.15	0.1616	0.0065
0.5426	333.15	0.2003	0.0081
0.6486	278.15	0.0093	0.0004
0.6486	283.15	0.0139	0.0006
0.6486	288.15	0.0201	0.0008
0.6486	293.15	0.0278	0.0011
0.6486	298.15	0.0386	0.0015
0.6486	303.15	0.0517	0.0021
0.6486	308.15	0.071	0.0028
0.6486	313.15	0.0924	0.0037
0.6486	318.15	0.1208	0.0048
0.6486	323.15	0.153	0.0061
0.6486	328.15	0.1937	0.0078
0.6486	333.15	0.2406	0.0097
0.8768	278.15	0.0132	0.0005
0.8768	283.15	0.0189	0.0008
0.8768	288.15	0.0264	0.0011
0.8768	293.15	0.0358	0.0014
0.8768	298.15	0.049	0.002
0.8768	303.15	0.0644	0.0026
0.8768	308.15	0.0846	0.0034
0.8768	313.15	0.109	0.0044
0.8768	318.15	0.1382	0.0055
0.8768	323.15	0.1735	0.007
0.8768	328.15	0.2138	0.0086
0.8768	333.15	0.2606	0.0105

System: ethanol + butanedioic acid + water; phases: Liquid, Crystal
Fixed: Pressure, kPa = 101
Property: Mole fraction of butanedioic acid (Liquid); method: Density calibration data
Solvent: Mass fraction of ethanol	Temperature, K	Mole fraction of butanedioic acid	uncertainty
0.0831	278.15	0.0051	0.0002
0.0831	283.15	0.0067	0.0003
0.0831	288.15	0.0087	0.0004
0.0831	293.15	0.0113	0.0005
0.0831	298.15	0.0144	0.0006
0.0831	303.15	0.0182	0.0007
0.0831	308.15	0.0228	0.0009
0.0831	313.15	0.029	0.0012
0.0831	318.15	0.0357	0.0014
0.0831	323.15	0.0435	0.0017
0.0831	328.15	0.0531	0.0021
0.0831	333.15	0.0635	0.0025
0.2591	278.15	0.0061	0.0003
0.2591	283.15	0.0084	0.0003
0.2591	288.15	0.0115	0.0005
0.2591	293.15	0.0155	0.0006
0.2591	298.15	0.0207	0.0008
0.2591	303.15	0.0271	0.0011
0.2591	308.15	0.0347	0.0014
0.2591	313.15	0.0459	0.0018
0.2591	318.15	0.0589	0.0024
0.2591	323.15	0.0734	0.0029
0.2591	328.15	0.092	0.0037
0.2591	333.15	0.1144	0.0046
0.3523	278.15	0.0078	0.0003
0.3523	283.15	0.0106	0.0004
0.3523	288.15	0.0142	0.0006
0.3523	293.15	0.0189	0.0008
0.3523	298.15	0.0256	0.001
0.3523	303.15	0.0328	0.0013
0.3523	308.15	0.0415	0.0017
0.3523	313.15	0.0547	0.0022
0.3523	318.15	0.0686	0.0028
0.3523	323.15	0.0855	0.0034
0.3523	328.15	0.1061	0.0043
0.3523	333.15	0.1304	0.0052
0.5504	278.15	0.0099	0.0004
0.5504	283.15	0.014	0.0006
0.5504	288.15	0.0198	0.0008
0.5504	293.15	0.0266	0.0011
0.5504	298.15	0.0356	0.0014
0.5504	303.15	0.0468	0.0019
0.5504	308.15	0.0622	0.0025
0.5504	313.15	0.0805	0.0032
0.5504	318.15	0.103	0.0041
0.5504	323.15	0.1292	0.0052
0.5504	328.15	0.1615	0.0065
0.5504	333.15	0.1986	0.008
0.6556	278.15	0.0128	0.0005
0.6556	283.15	0.0179	0.0007
0.6556	288.15	0.0238	0.001
0.6556	293.15	0.0317	0.0013
0.6556	298.15	0.0417	0.0017
0.6556	303.15	0.0545	0.0022
0.6556	308.15	0.0701	0.0028
0.6556	313.15	0.0888	0.0036
0.6556	318.15	0.1114	0.0045
0.6556	323.15	0.1372	0.0055
0.6556	328.15	0.1669	0.0067
0.6556	333.15	0.2021	0.0081
0.8802	278.15	0.0134	0.0005
0.8802	283.15	0.0185	0.0007
0.8802	288.15	0.0249	0.001
0.8802	293.15	0.0335	0.0013
0.8802	298.15	0.0434	0.0017
0.8802	303.15	0.058	0.0023
0.8802	308.15	0.0728	0.0029
0.8802	313.15	0.0926	0.0037
0.8802	318.15	0.1158	0.0046
0.8802	323.15	0.1438	0.0058
0.8802	328.15	0.1766	0.0071
0.8802	333.15	0.2127	0.0085
