Measured thermophysical data. Phase equilibrium and mechanisms of crystallization in liquid-liquid phase separating system
Source: Fluid Phase Equilib., 2015, 10.1016/j.fluid.2014.11.007
Compound 1: butyl 4-hydroxybenzoate, C11H14O3, InChI=1S/C11H14O3/c1-2-3-8-14-11(13)9-4-6-10(12)7-5-9/h4-7,12H,2-3,8H2,1H3, purity 99%
Compound 2: ethanol, C2H6O, InChI=1S/C2H6O/c1-2-3/h3H,2H2,1H3, purity 99.7%
Compound 3: water, H2O, InChI=1S/H2O/h1H2

System: ethanol + butyl 4-hydroxybenzoate + water; phases: Liquid mixture 1, Liquid mixture 2
Fixed: Temperature, K = 293.15
Fixed: Pressure, kPa = 100
Property: Mass fraction of ethanol (Liquid mixture 1); method: Gravimetric after drying
Property: Mass fraction of butyl 4-hydroxybenzoate (Liquid mixture 2); method: Gravimetric after drying
Property: Mass fraction of ethanol (Liquid mixture 2); method: Gravimetric after drying
Mass fraction of butyl 4-hydroxybenzoate	Mass fraction of ethanol	uncertainty	Mass fraction of butyl 4-hydroxybenzoate	uncertainty	Mass fraction of ethanol	uncertainty
0.413	0.375	0.017	0.083	0.004	0.379	
0.487	0.346	0.018	0.049	0.009	0.34	
0.585	0.291	0.013	0.007	0.001	0.257	
