Measured thermophysical data. Measurement and correlation of the solubility of 1-(4-methyl-1-naphthyl) ethanone in an aqueous ethanol solution
Source: Fluid Phase Equilib., 2010, 10.1016/j.fluid.2009.10.015
Compound 1: ethanol, C2H6O, InChI=1S/C2H6O/c1-2-3/h3H,2H2,1H3, purity 99.8%
Compound 2: water, H2O, InChI=1S/H2O/h1H2
Compound 3: 1-(4-methyl-1-naphthyl) ethanone, C13H12O, InChI=1S/C13H12O/c1-9-7-8-12(10(2)14)13-6-4-3-5-11(9)13/h3-8H,1-2H3, purity 99%

System: 1-(4-methyl-1-naphthyl) ethanone; phases: Crystal, Liquid, Air at 1 atmosphere
Property: Normal melting temperature, K (Crystal); method: DTA
Normal melting temperature, K	uncertainty
585.15	4

System: 1-(4-methyl-1-naphthyl) ethanone; phases: Crystal, Liquid, Air at 1 atmosphere
Property: Molar enthalpy of transition or fusion, kJ/mol (Crystal); method: DSC
Molar enthalpy of transition or fusion, kJ/mol	uncertainty
14.5139371884	0.4661114634

System: ethanol + water + 1-(4-methyl-1-naphthyl) ethanone; phases: Liquid, Crystal
Fixed: Pressure, kPa = 101
Property: Mole fraction of 1-(4-methyl-1-naphthyl) ethanone (Liquid); method: Laser light intensity detection
Solvent: Mole fraction of ethanol	Temperature, K	Mole fraction of 1-(4-methyl-1-naphthyl) ethanone	uncertainty
0	288.2	0.002563	0.001282
0	293.2	0.0031	0.00155
0	298.2	0.0046	0.0023
0	303.2	0.0058	0.0029
0	308.2	0.0078	0.0039
0.2	288.2	0.00256	0.00128
0.2	293.2	0.00297	0.001485
0.2	298.2	0.00379	0.001895
0.2	303.2	0.0046	0.0023
0.2	308.2	0.00531	0.002655
0.3	288.2	0.00255	0.001275
0.3	293.2	0.00319	0.001595
0.3	298.2	0.00408	0.00204
0.3	303.2	0.00522	0.00261
0.3	308.2	0.00636	0.00318
0.6	288.2	0.002032	0.001016
0.6	293.2	0.00285	0.001425
0.6	298.2	0.00423	0.002115
0.6	303.2	0.00541	0.002705
0.6	308.2	0.00709	0.003545
0.8	288.2	0.002016	0.001008
0.8	293.2	0.00252	0.00126
0.8	298.2	0.00454	0.00227
0.8	303.2	0.00554	0.00277
0.8	308.2	0.00629	0.003145
1	288.2	0.000495	0.000248
1	293.2	0.00098	0.00049
1	298.2	0.00295	0.001475
1	303.2	0.00394	0.00197
1	308.2	0.00492	0.00246
