Measured thermophysical data. Evaluation of the solvent structural effect upon the vapor-liquid equilibrium of [C4C1im][Cl] + Alcohols
Source: Fluid Phase Equilib., 2017, 10.1016/j.fluid.2017.02.016
Compound 1: methanol, CH4O, InChI=1S/CH4O/c1-2/h2H,1H3
Compound 2: propan-1-ol, C3H8O, InChI=1S/C3H8O/c1-2-3-4/h4H,2-3H2,1H3
Compound 3: propan-2-ol, C3H8O, InChI=1S/C3H8O/c1-3(2)4/h3-4H,1-2H3
Compound 4: butan-1-ol, C4H10O, InChI=1S/C4H10O/c1-2-3-4-5/h5H,2-4H2,1H3
Compound 5: butan-2-ol, C4H10O, InChI=1S/C4H10O/c1-3-4(2)5/h4-5H,3H2,1-2H3
Compound 6: 2-methyl-1-propanol, C4H10O, InChI=1S/C4H10O/c1-4(2)3-5/h4-5H,3H2,1-2H3
Compound 7: 2-methylpropan-2-ol, C4H10O, InChI=1S/C4H10O/c1-4(2,3)5/h5H,1-3H3
Compound 8: pentan-1-ol, C5H12O, InChI=1S/C5H12O/c1-2-3-4-5-6/h6H,2-5H2,1H3
Compound 9: 1-butyl-3-methylimidazolium chloride, C8H15ClN2, InChI=1S/C8H15N2.ClH/c1-3-4-5-10-7-6-9(2)8-10;/h6-8H,3-5H2,1-2H3;1H/q+1;/p-1

System: methanol + 1-butyl-3-methylimidazolium chloride; phases: Liquid, Gas
Property: Boiling temperature at pressure P, K (Liquid); method: Ebulliometric method (Recirculating still)
Pressure, kPa	Mole fraction of methanol	Boiling temperature at pressure P, K	uncertainty
100	1	337.38	0.17
100	0.991	337.77	0.19
100	0.983	338.03	0.18
100	0.972	338.37	0.18
100	0.96	338.77	0.19
100	0.952	339.17	0.21
100	0.939	339.98	0.21
100	0.932	340.35	0.22
100	0.914	341.75	0.23
100	0.893	343.3	0.25
100	0.889	343.66	0.25
100	0.866	345.25	0.28
100	0.861	345.8	0.29
100	0.849	347.21	0.3
100	0.843	347.92	0.3
100	0.815	350.51	0.26
100	0.793	352.51	0.27
100	0.787	353.36	0.24
100	0.766	354.78	0.23
100	0.757	355.78	0.3
100	0.732	358.88	0.3
100	0.709	361.74	0.3
70	1	328.62	0.15
70	0.991	328.87	0.16
70	0.984	329.02	0.15
70	0.976	329.26	0.18
70	0.961	329.8	0.16
70	0.949	330.34	0.22
70	0.957	330.03	0.22
70	0.94	330.86	0.17
70	0.925	331.84	0.21
70	0.904	333.08	0.19
70	0.895	333.58	0.18
70	0.891	334.11	0.25
70	0.871	335.4	0.21
70	0.877	335.07	0.17
70	0.863	336.36	0.27
70	0.844	338.13	0.22
70	0.834	339.01	0.25
70	0.802	341.63	0.24
70	0.778	344.69	0.28
70	0.763	346.16	0.41
70	0.76	346.57	0.22
70	0.715	351.61	0.28
70	0.686	355.44	0.33
50	1	320.8	0.15
50	0.991	321.15	0.16
50	0.982	321.4	0.16
50	0.98	321.44	0.16
50	0.962	321.98	0.16
50	0.955	322.52	0.19
50	0.956	322.21	0.17
50	0.927	324.04	0.2
50	0.923	324.32	0.2
50	0.894	326.26	0.17
50	0.903	325.46	0.22
50	0.899	325.79	0.23
50	0.87	327.68	0.25
50	0.877	326.95	0.18
50	0.864	328.24	0.21
50	0.842	329.71	0.21
50	0.832	330.59	0.27
50	0.815	332.71	0.27
50	0.776	336.61	0.25
50	0.793	334.97	0.25
50	0.753	338.94	0.26
50	0.736	340.88	0.3
50	0.727	342.39	0.31
50	0.708	344.82	0.29

System: propan-1-ol + 1-butyl-3-methylimidazolium chloride; phases: Liquid, Gas
Property: Boiling temperature at pressure P, K (Liquid); method: Ebulliometric method (Recirculating still)
Pressure, kPa	Mole fraction of propan-1-ol	Boiling temperature at pressure P, K	uncertainty
100	1	369.99	0.16
100	0.973	370	0.17
100	0.956	370.86	0.19
100	0.939	371.7	0.18
100	0.909	372.64	0.18
100	0.887	373.57	0.19
100	0.863	374.5	0.22
100	0.845	376.29	0.25
100	0.825	378.02	0.23
100	0.804	379.29	0.21
100	0.782	380.51	0.24
100	0.765	382.43	0.27
100	0.746	384.23	0.22
100	0.718	385.66	0.2
100	0.687	387.16	0.25
100	0.663	390.7	0.26
100	0.631	392.42	0.24
100	0.597	395.45	0.27
100	0.575	397.91	0.27
100	0.529	401.93	0.28
100	0.497	406.32	0.33
100	0.459	410.89	0.3
70	1	360.86	0.15
70	0.976	361.35	0.15
70	0.944	362.15	0.17
70	0.968	361.35	0.17
70	0.908	363.41	0.17
70	0.887	364.01	0.16
70	0.864	364.87	0.18
70	0.845	366.23	0.21
70	0.826	367.6	0.21
70	0.804	368.96	0.2
70	0.784	370.33	0.23
70	0.769	372.3	0.25
70	0.743	374.23	0.22
70	0.721	375.92	0.22
70	0.698	377.8	0.19
70	0.666	379.26	0.2
70	0.632	381.57	0.22
70	0.603	383.97	0.23
70	0.561	387.21	0.27
70	0.534	391.1	0.26
70	0.489	394.35	0.3
70	0.459	400.45	0.33
50	1	352.75	0.15
50	0.977	353.2	0.15
50	0.951	353.89	0.16
50	0.967	353.3	0.15
50	0.923	354.58	0.16
50	0.887	356.28	0.17
50	0.863	357.4	0.17
50	0.845	358.48	0.18
50	0.826	359.58	0.18
50	0.804	360.63	0.18
50	0.784	361.77	0.21
50	0.767	363.49	0.23
50	0.745	365.14	0.21
50	0.72	366.65	0.2
50	0.697	368.16	0.22
50	0.661	371.17	0.21
50	0.63	372.98	0.21
50	0.611	374.79	0.2
50	0.57	376.92	0.22
50	0.533	381.07	0.26
50	0.49	384.94	0.26
50	0.458	388.84	0.31

System: propan-2-ol + 1-butyl-3-methylimidazolium chloride; phases: Liquid, Gas
Property: Boiling temperature at pressure P, K (Liquid); method: Ebulliometric method (Recirculating still)
Pressure, kPa	Mole fraction of propan-2-ol	Boiling temperature at pressure P, K	uncertainty
100	1	355.17	0.16
100	0.982	355.57	0.16
100	0.972	355.77	0.16
100	0.963	355.97	0.16
100	0.96	355.87	0.17
100	0.95	356.29	0.17
100	0.936	356.57	0.16
100	0.922	356.87	0.16
100	0.907	357.18	0.16
100	0.888	357.58	0.55
100	0.885	358.37	0.55
100	0.86	359.57	0.21
100	0.835	361.45	0.22
100	0.822	362.39	0.21
100	0.815	362.86	0.21
100	0.812	363.1	0.21
100	0.81	363.22	0.27
100	0.808	363.34	0.28
100	0.798	364.64	0.25
100	0.785	365.65	0.25
100	0.785	365.28	0.25
100	0.783	365.51	0.25
100	0.77	367.15	0.23
100	0.756	367.68	0.23
100	0.703	372.21	0.25
100	0.674	375.35	0.31
100	0.659	377.95	0.27
100	0.644	378.32	0.22
100	0.632	380.12	0.19
100	0.594	381.58	0.24
100	0.578	385.23	0.54
100	0.577	385.15	1.22
100	0.574	386.97	1.22
100	0.544	388.15	0.19
100	0.542	388.75	0.21
70	1	346.44	0.14
70	0.981	346.85	0.15
70	0.972	347.05	0.15
70	0.962	347.24	0.16
70	0.96	346.75	0.16
70	0.936	347.79	0.15
70	0.93	347.93	0.21
70	0.923	348.06	0.14
70	0.909	348.34	0.16
70	0.891	348.66	0.15
70	0.885	349.34	0.18
70	0.873	349.84	0.18
70	0.861	350.34	0.19
70	0.848	351.46	0.27
70	0.834	352.58	0.22
70	0.82	353.7	0.18
70	0.806	354.83	0.24
70	0.795	356.03	0.19
70	0.794	355.76	0.18
70	0.784	355.98	0.17
70	0.782	356.45	0.23
70	0.781	356.7	0.43
70	0.755	358.58	0.21
70	0.727	360.87	0.2
70	0.712	362.18	0.23
70	0.672	365.55	0.27
70	0.63	371.7	0.22
70	0.629	371.02	0.28
70	0.619	368.72	0.23
70	0.601	372.53	0.39
70	0.579	375.88	0.22
70	0.578	375.23	0.22
70	0.568	374.98	0.28
70	0.54	378.57	0.23
50	1	338.67	0.14
50	0.982	339.11	0.15
50	0.972	339.35	0.15
50	0.962	339.54	0.15
50	0.959	338.89	0.16
50	0.948	339.82	0.16
50	0.932	340.1	0.15
50	0.916	340.38	0.15
50	0.899	340.66	0.15
50	0.893	340.79	0.17
50	0.88	341.58	0.18
50	0.87	342.04	0.17
50	0.864	342.27	0.17
50	0.859	342.51	0.17
50	0.834	344.55	0.21
50	0.807	346.6	0.21
50	0.799	347.13	0.2
50	0.797	347.89	0.22
50	0.792	347.65	0.17
50	0.785	347.32	0.16
50	0.782	347.45	0.29
50	0.776	348.38	0.23
50	0.776	348.71	0.24
50	0.772	348.26	0.16
50	0.744	350.83	0.25
50	0.724	352.94	0.2
50	0.702	353.67	0.22
50	0.659	357.79	0.25
50	0.625	361.32	0.74
50	0.622	362.4	0.73
50	0.577	366.56	0.21
50	0.564	365.88	0.19
50	0.537	368.62	0.26

System: butan-1-ol + 1-butyl-3-methylimidazolium chloride; phases: Liquid, Gas
Property: Boiling temperature at pressure P, K (Liquid); method: Ebulliometric method (Recirculating still)
Pressure, kPa	Mole fraction of butan-1-ol	Boiling temperature at pressure P, K	uncertainty
100	1	390.55	0.17
100	0.99	390.83	0.18
100	0.979	391.11	0.19
100	0.957	392.16	0.21
100	0.934	393.45	0.21
100	0.91	394.65	0.2
100	0.881	395.9	0.21
100	0.862	397.15	0.22
100	0.842	398.3	0.23
100	0.814	400.65	0.24
100	0.784	403.15	0.25
100	0.736	406.74	0.25
100	0.702	410.26	0.26
100	0.666	413.7	0.26
100	0.642	416.25	0.27
100	0.776	403.75	0.24
100	0.565	423.68	0.27
100	0.499	431	0.28
100	0.582	422.49	0.26
70	1	380.75	0.15
70	0.979	381.16	0.16
70	0.958	381.55	0.17
70	0.939	382.57	0.18
70	0.921	383.47	0.19
70	0.901	384.5	0.2
70	0.881	385.35	0.17
70	0.872	386.01	0.27
70	0.862	386.83	0.23
70	0.843	388.35	0.22
70	0.812	390.5	0.2
70	0.796	391.45	0.19
70	0.78	392.37	0.23
70	0.769	394.05	0.29
70	0.74	396.55	0.26
70	0.703	400.8	0.27
70	0.665	404.95	0.25
70	0.628	408.2	0.25
70	0.589	411.6	0.2
50	1	372.25	0.15
50	0.979	372.5	0.15
50	0.957	372.75	0.16
50	0.93	373.76	0.17
50	0.901	374.9	0.19
50	0.872	376.96	0.21
50	0.857	377.99	0.21
50	0.842	378.99	0.21
50	0.826	380.13	0.22
50	0.809	381.47	0.22
50	0.793	382.6	0.21
50	0.775	383.79	0.21
50	0.748	385.78	0.22
50	0.739	386.15	0.28
50	0.721	388.73	0.28
50	0.692	391.4	0.24
50	0.662	393.83	0.26
50	0.629	397.15	0.55
50	0.624	398.45	0.55
50	0.594	400.4	0.22

System: butan-2-ol + 1-butyl-3-methylimidazolium chloride; phases: Liquid, Gas
Property: Boiling temperature at pressure P, K (Liquid); method: Ebulliometric method (Recirculating still)
Pressure, kPa	Mole fraction of butan-2-ol	Boiling temperature at pressure P, K	uncertainty
100	0.997	372.15	0.17
100	0.992	372.23	0.17
100	0.988	372.31	0.17
100	0.978	372.47	0.17
100	0.988	372.61	0.17
100	0.969	372.63	0.18
100	0.959	372.8	0.19
100	0.969	373.01	0.18
100	0.938	373.12	0.18
100	0.944	373.2	0.18
100	0.949	373.28	0.19
100	0.917	373.45	0.18
100	0.928	373.54	0.17
100	0.904	374.06	0.2
100	0.892	374.67	0.2
100	0.878	375.28	0.19
100	0.865	375.89	0.2
100	0.847	376.83	0.21
100	0.832	377.87	0.23
100	0.832	377.99	0.23
100	0.817	378.98	0.26
100	0.817	379.15	0.26
100	0.806	380.35	0.3
100	0.806	381.01	0.3
100	0.783	383.15	0.27
100	0.752	385.65	0.25
100	0.725	388.15	0.26
100	0.712	389.3	0.25
100	0.698	390.45	0.24
100	0.669	392.75	0.26
100	0.655	394.32	0.25
100	0.639	395.05	0.22
100	0.623	396.2	0.23
100	0.607	397.35	0.24
100	0.591	398.75	0.25
70	0.997	363.15	0.52
70	0.993	363.2	0.16
70	0.988	363.26	0.17
70	0.979	363.37	0.16
70	0.97	363.48	0.16
70	0.96	363.59	0.16
70	0.951	363.7	0.16
70	0.941	363.81	0.17
70	0.979	363.86	0.16
70	0.97	364.07	0.16
70	0.924	364.29	0.16
70	0.907	364.77	0.19
70	0.893	365.51	0.19
70	0.893	365.94	0.19
70	0.879	366.24	0.19
70	0.879	366.49	0.19
70	0.864	366.98	0.19
70	0.864	367.12	0.19
70	0.841	367.89	0.17
70	0.841	368.9	0.17
70	0.823	369.35	0.2
70	0.814	370.08	0.25
70	0.805	370.81	0.27
70	0.789	372.33	0.27
70	0.772	373.85	0.25
70	0.736	376.89	0.24
70	0.71	379.65	0.25
70	0.697	381.03	0.17
70	0.693	381.37	0.46
70	0.69	381.72	1.29
70	0.652	383.45	0.2
70	0.64	384.92	0.27
70	0.628	386.4	0.23
70	0.597	388.35	0.2
70	0.577	389.81	0.28
50	0.997	354.75	0.15
50	0.993	354.8	0.15
50	0.988	354.85	0.15
50	0.979	354.95	0.15
50	0.988	355.01	0.15
50	0.97	355.05	0.15
50	0.96	355.15	0.15
50	0.951	355.25	0.15
50	0.97	355.3	0.15
50	0.941	355.35	0.16
50	0.96	355.54	0.15
50	0.918	356.25	0.17
50	0.893	356.93	0.17
50	0.879	357.62	0.18
50	0.879	357.9	0.18
50	0.864	358.31	0.19
50	0.864	358.7	0.18
50	0.824	360.4	0.19
50	0.823	361.04	0.15
50	0.814	361.17	0.17
50	0.809	361.56	0.22
50	0.806	361.75	0.21
50	0.803	361.95	0.21
50	0.771	364.85	0.24
50	0.736	367.76	0.23
50	0.707	370.03	0.23
50	0.692	371.16	0.23
50	0.684	371.73	0.23
50	0.676	372.3	0.23
50	0.65	374.3	0.23
50	0.637	375.5	0.25
50	0.624	376.7	0.24
50	0.594	379.1	0.23

System: 2-methylpropan-2-ol + 1-butyl-3-methylimidazolium chloride; phases: Liquid, Gas
Property: Boiling temperature at pressure P, K (Liquid); method: Ebulliometric method (Recirculating still)
Pressure, kPa	Mole fraction of 2-methylpropan-2-ol	Boiling temperature at pressure P, K	uncertainty
100	1	355.62	0.16
100	0.98	354.89	0.16
100	0.945	355.57	0.16
100	0.931	355.8	0.16
100	0.917	355.95	0.16
100	0.904	356.13	0.15
100	0.896	356.15	0.16
100	0.882	356.5	0.2
100	0.882	356.75	0.2
100	0.865	357.98	0.21
100	0.857	358.11	0.16
100	0.82	360.45	0.21
100	0.798	362.2	0.25
100	0.776	363.6	0.49
100	0.779	364.3	0.49
100	0.743	367.55	0.31
100	0.731	369.66	0.26
100	0.713	370.7	0.21
100	0.683	372.85	0.23
100	0.65	375.72	0.23
100	0.616	378.58	0.24
100	0.584	381.68	0.23
100	0.55	384.21	0.21
70	1	346.72	0.15
70	0.979	346.39	0.15
70	0.965	346.77	0.18
70	0.95	347.15	0.15
70	0.942	347.34	0.19
70	0.934	347.53	0.19
70	0.918	347.92	0.15
70	0.903	348.35	0.16
70	0.865	349.49	0.16
70	0.842	350.8	0.2
70	0.818	351.92	0.19
70	0.797	353.45	0.19
70	0.776	355.05	0.82
70	0.772	355.81	0.82
70	0.731	359.85	0.25
70	0.707	362.3	0.28
70	0.682	364.75	0.22
70	0.654	366.97	0.2
70	0.624	369.15	0.22
70	0.596	372.16	0.22
70	0.568	375.15	0.25
50	1	339.1	0.14
50	0.979	338.58	0.22
50	0.974	339	0.22
50	0.945	339.45	0.15
50	0.922	340.09	0.22
50	0.918	340.44	0.22
50	0.899	340.67	0.15
50	0.895	340.74	0.15
50	0.862	342.02	0.17
50	0.819	344.28	0.18
50	0.776	347.18	0.22
50	0.766	347.99	0.28
50	0.726	351.8	0.65
50	0.729	352.75	0.65
50	0.672	356.33	0.23
50	0.645	358.8	0.24
50	0.617	361.15	0.2
50	0.578	363.15	0.21
50	0.536	365.79	0.23
50	0.511	367.74	0.22
50	0.485	369.07	0.2

System: 2-methyl-1-propanol + 1-butyl-3-methylimidazolium chloride; phases: Liquid, Gas
Property: Boiling temperature at pressure P, K (Liquid); method: Ebulliometric method (Recirculating still)
Pressure, kPa	Mole fraction of 2-methyl-1-propanol	Boiling temperature at pressure P, K	uncertainty
100	1	380.7	0.18
100	0.996	380.96	0.22
100	0.975	381.21	0.18
100	0.952	381.47	0.19
100	0.932	382.64	0.25
100	0.913	384.95	0.29
100	0.894	386.99	0.32
100	0.883	388.94	0.27
100	0.851	391.35	0.29
100	0.845	392.02	0.33
100	0.831	394.04	0.33
100	0.81	396.73	0.32
100	0.788	399.43	0.31
100	0.765	402.12	0.32
100	0.737	405.73	0.32
100	0.722	407.55	0.31
100	0.707	409.35	0.32
100	0.671	414.25	0.31
100	0.663	415.15	0.31
100	0.615	420.94	0.33
70	1	371.26	0.16
70	0.9951	371.35	0.25
70	0.9739	371.85	0.16
70	0.9515	372.35	0.17
70	0.9346	373.06	0.23
70	0.9056	375.92	0.23
70	0.8955	376.88	0.26
70	0.8745	378.78	0.23
70	0.8636	379.31	0.22
70	0.8524	380.69	0.32
70	0.8322	383.37	0.3
70	0.811	385.72	0.28
70	0.7887	388.24	0.28
70	0.7654	390.75	0.32
70	0.7372	394.95	0.33
70	0.7149	398.1	0.27
70	0.7072	399.15	0.22
70	0.663	403.2	0.26
70	0.6351	406.38	0.27
70	0.6056	409.3	0.24
50	1	362.85	0.15
50	0.996	363.1	0.2
50	0.975	363.57	0.16
50	0.953	364.05	0.16
50	0.936	364.61	0.2
50	0.916	366.51	0.23
50	0.896	367.98	0.24
50	0.875	370.15	0.25
50	0.864	371	0.19
50	0.853	371.35	0.25
50	0.833	373.93	0.28
50	0.812	376.07	0.27
50	0.79	378.43	0.25
50	0.779	379.02	0.27
50	0.767	380.8	0.32
50	0.738	384.63	0.31
50	0.707	388.45	0.28
50	0.66	392.94	0.26
50	0.635	395.52	0.27
50	0.609	398.25	0.27

System: pentan-1-ol + 1-butyl-3-methylimidazolium chloride; phases: Liquid, Gas
Property: Boiling temperature at pressure P, K (Liquid); method: Ebulliometric method (Recirculating still)
Pressure, kPa	Mole fraction of pentan-1-ol	Boiling temperature at pressure P, K	uncertainty
100	1	410.4	0.19
100	0.983	411.05	0.21
100	0.963	411.6	0.21
100	0.942	412.36	0.21
100	0.922	413.03	0.22
100	0.889	414.85	0.22
100	0.818	418.1	0.23
100	0.787	421.15	0.25
100	0.745	426.13	0.29
100	0.706	430.15	0.31
100	0.666	434.09	0.29
100	0.631	437.85	0.32
100	0.595	441.45	0.3
100	0.568	444.55	0.32
100	0.761	423.8	0.31
100	0.801	420.99	0.29
100	0.816	419	0.4
100	0.854	416.55	0.22
100	0.664	432.7	0.28
100	0.74	425.7	0.26
100	0.813	418.47	0.36
70	1	399.85	0.17
70	0.974	400.15	0.18
70	0.944	400.95	0.19
70	0.917	402.27	0.2
70	0.89	403.47	0.19
70	0.864	404.9	0.19
70	0.832	405.91	0.24
70	0.763	412.56	0.24
70	0.756	414	0.32
70	0.725	416.65	0.3
70	0.692	419.4	0.29
70	0.661	423.45	0.29
70	0.639	425.75	0.25
70	0.616	427.55	0.26
70	0.57	431.45	0.23
70	0.794	409.25	0.18
70	0.816	408.55	0.52
70	0.839	406.25	0.18
70	0.663	422.75	0.29
70	0.739	414.97	0.19
70	0.787	410.1	0.3
70	0.812	408.86	0.35
50	1	390.5	0.16
50	0.964	390.85	0.17
50	0.945	391.65	0.18
50	0.926	392.3	0.19
50	0.903	393.5	0.19
50	0.88	394.65	0.19
50	0.831	397.1	0.18
50	0.777	401.15	0.17
50	0.697	407.15	0.26
50	0.762	400.8	0.21
50	0.756	402.68	0.65
50	0.573	420.65	0.27
50	0.605	417.3	0.28
50	0.637	413.84	0.25
50	0.725	405.15	0.24
50	0.793	399.39	0.31
50	0.795	398.85	0.37
50	0.666	410.65	0.81
50	0.661	412.63	0.81
50	0.787	400.17	0.28
50	0.856	395.9	0.19
