Measured thermophysical data. Saturated vapor pressure of 4-fluorophthalic anhydride and 4-chlorophthalic anhydride and isobaric vapor-liquid phase equilibrium of 4-fluorophthalic anhydride + 4-chlorophthalic anhydride: Measurement and modeling
Source: Fluid Phase Equilib., 2015, 10.1016/j.fluid.2015.03.030
Compound 1: 5-fluoro-1,3-isobenzofurandione, C8H3FO3, InChI=1S/C8H3FO3/c9-4-1-2-5-6(3-4)8(11)12-7(5)10/h1-3H
Compound 2: 4-chlorophthalic anhydride, C8H3ClO3, InChI=1S/C8H3ClO3/c9-4-1-2-5-6(3-4)8(11)12-7(5)10/h1-3H

System: 5-fluoro-1,3-isobenzofurandione; phases: Liquid, Gas
Property: Boiling temperature at pressure P, K (Liquid); method: Ebulliometric method (Recirculating still)
Pressure, kPa	Boiling temperature at pressure P, K	uncertainty
3.549	426.83	0.36
4.301	431.54	0.32
5.517	438.01	0.28
6.582	442.75	0.23
7.86	447.48	0.21
8.973	451.19	0.18
10.503	455.69	0.16
12.25	460.22	0.15
13.204	462.46	0.13
15.163	466.67	0.12
17.627	471.35	0.11
18.808	473.38	0.1
21.165	477.17	0.1
23.055	479.94	0.09
26.002	483.93	0.08
31.212	490.06	0.08
36.412	495.41	0.07
40.948	499.63	0.07
45.018	503.05	0.06
47.299	504.84	0.06
48.214	505.58	0.06
51.296	507.86	0.06
53.291	509.27	0.06
55.871	511.08	0.06
57.296	512.02	0.06
59.618	513.54	0.06
65.489	517.17	0.06
69.156	519.29	0.05
73.584	521.78	0.05
78.488	524.33	0.05
85.676	527.91	0.05
90.566	530.18	0.05
93.829	531.66	0.05
96.018	532.64	0.05
97.236	533.17	0.05
101.214	534.85	0.05

System: 4-chlorophthalic anhydride; phases: Liquid, Gas
Property: Boiling temperature at pressure P, K (Liquid); method: Ebulliometric method (Recirculating still)
Pressure, kPa	Boiling temperature at pressure P, K	uncertainty
3.412	447.27	0.38
4.468	454.31	0.36
5.15	458.14	0.31
5.626	460.53	0.27
6.455	464.38	0.26
7.207	467.5	0.22
8.268	471.34	0.2
9.221	474.46	0.18
10.662	478.77	0.17
11.738	481.63	0.15
12.994	484.75	0.14
14.483	488.12	0.13
15.932	491.12	0.12
17.168	493.51	0.11
18.589	496.04	0.11
20.243	498.87	0.1
21.711	501.2	0.1
23.518	503.82	0.09
25.366	506.46	0.09
27.38	509.05	0.08
29.595	511.82	0.08
31.987	514.56	0.08
34.465	517.33	0.07
37.255	520.1	0.07
40.197	522.91	0.07
43.821	526.11	0.06
46.794	528.63	0.06
50.504	531.55	0.06
54.42	534.47	0.06
58.752	537.45	0.06
63.308	540.44	0.05
68.3	543.5	0.05
72.981	546.2	0.05
79.286	549.65	0.05
86.408	553.24	0.05
92.122	555.97	0.05
99.101	559.17	0.05
101	560	0.05

System: 4-chlorophthalic anhydride + 5-fluoro-1,3-isobenzofurandione; phases: Liquid, Gas
Property: Boiling temperature at pressure P, K (Liquid); method: Ebulliometric method (Recirculating still)
Pressure, kPa	Mole fraction of 5-fluoro-1,3-isobenzofurandione	Boiling temperature at pressure P, K	uncertainty
21.33	0	500.61	0.15
21.33	0.1418	496.17	0.16
21.33	0.2444	493.24	0.16
21.33	0.3216	491.06	0.16
21.33	0.4116	488.74	0.16
21.33	0.501	486.57	0.16
21.33	0.6085	484.21	0.16
21.33	0.6922	482.5	0.15
21.33	0.8053	480.69	0.15
21.33	0.8998	478.88	0.15
21.33	1	477.38	0.15
41.33	0	523.93	0.2
41.33	0.1432	519.49	0.21
41.33	0.243	516.56	0.21
41.33	0.3216	514.38	0.2
41.33	0.4124	512.06	0.2
41.33	0.4993	509.83	0.2
41.33	0.6166	507.19	0.2
41.33	0.7134	505.48	0.19
41.33	0.8192	503.14	0.2
41.33	0.8884	501.69	0.19
41.33	1	499.93	0.19
61.33	0	539.15	0.19
61.33	0.1401	534.71	0.2
61.33	0.2421	531.78	0.2
61.33	0.3208	529.6	0.19
61.33	0.4118	527.49	0.2
61.33	0.5018	524.58	0.19
61.33	0.6107	522.24	0.19
61.33	0.6921	520.15	0.18
61.33	0.8069	517.84	0.19
61.33	0.901	516.05	0.19
61.33	1	514.63	0.18
81.33	0	550.71	0.21
81.33	0.1422	546.26	0.22
81.33	0.2435	543.33	0.22
81.33	0.3217	541.16	0.22
81.33	0.4115	538.83	0.21
81.33	0.5013	536.13	0.22
81.33	0.6096	533.49	0.21
81.33	0.6928	531.4	0.21
81.33	0.8056	529.39	0.21
81.33	0.8999	527.61	0.21
81.33	1	525.79	0.2

System: 4-chlorophthalic anhydride + 5-fluoro-1,3-isobenzofurandione; phases: Gas, Liquid
Property: Mole fraction of 5-fluoro-1,3-isobenzofurandione (Gas); method: Chromatography
Pressure, kPa	Mole fraction of 5-fluoro-1,3-isobenzofurandione	Mole fraction of 5-fluoro-1,3-isobenzofurandione	uncertainty
21.33	0	0	
21.33	0.1418	0.2581	0.0044
21.33	0.2444	0.4	0.0048
21.33	0.3216	0.4941	0.0053
21.33	0.4116	0.5899	0.0046
21.33	0.501	0.671	0.004
21.33	0.6085	0.7591	0.0034
21.33	0.6922	0.8185	0.0029
21.33	0.8053	0.8923	0.0026
21.33	0.8998	0.9472	0.0023
21.33	1	1	
41.33	0	0	
41.33	0.1432	0.2521	0.0044
41.33	0.243	0.3901	0.0047
41.33	0.3216	0.484	0.0051
41.33	0.4124	0.5766	0.0046
41.33	0.4993	0.6547	0.0041
41.33	0.6166	0.7526	0.0034
41.33	0.7134	0.8235	0.0029
41.33	0.8192	0.8946	0.0026
41.33	0.8884	0.9369	0.0024
41.33	1	1	
61.33	0	0	
61.33	0.1401	0.2401	0.0043
61.33	0.2421	0.3795	0.0046
61.33	0.3208	0.4714	0.0051
61.33	0.4118	0.5674	0.0047
61.33	0.5018	0.6527	0.0041
61.33	0.6107	0.7436	0.0035
61.33	0.6921	0.8055	0.0031
61.33	0.8069	0.885	0.0026
61.33	0.901	0.9432	0.0024
61.33	1	1	
81.33	0	0	
81.33	0.1422	0.238	0.0042
81.33	0.2435	0.3763	0.0046
81.33	0.3217	0.47	0.0051
81.33	0.4115	0.5644	0.0048
81.33	0.5013	0.6487	0.0041
81.33	0.6096	0.7372	0.0035
81.33	0.6928	0.802	0.0031
81.33	0.8056	0.8809	0.0027
81.33	0.8999	0.9411	0.0024
81.33	1	1	
