Measured thermophysical data. Thermodynamic modeling studies of aqueous solubility of caffeine, gallic acid and their cocrystal in the temperature range of 303 K-363 K
Source: Fluid Phase Equilib., 2018, 10.1016/j.fluid.2017.09.021
Compound 1: caffeine, C8H10N4O2, InChI=1S/C8H10N4O2/c1-10-4-9-6-5(10)7(13)12(3)8(14)11(6)2/h4H,1-3H3, purity 99%
Compound 2: 3,4,5-trihydroxybenzoic acid, C7H6O5, InChI=1S/C7H6O5/c8-4-1-3(7(11)12)2-5(9)6(4)10/h1-2,8-10H,(H,11,12), purity 98%
Compound 3: water, H2O, InChI=1S/H2O/h1H2, purity 99.9%

System: caffeine; phases: Crystal, Liquid, Air at 1 atmosphere
Property: Normal melting temperature, K (Crystal); method: DTA
Normal melting temperature, K	uncertainty
510.15	3

System: caffeine; phases: Crystal, Liquid, Air at 1 atmosphere
Property: Molar enthalpy of transition or fusion, kJ/mol (Crystal); method: DSC
Molar enthalpy of transition or fusion, kJ/mol	uncertainty
17.7	2.2

System: 3,4,5-trihydroxybenzoic acid; phases: Crystal, Liquid, Air at 1 atmosphere
Property: Normal melting temperature, K (Crystal); method: DTA
Normal melting temperature, K	uncertainty
533.15	4

System: 3,4,5-trihydroxybenzoic acid; phases: Crystal, Liquid, Air at 1 atmosphere
Property: Molar enthalpy of transition or fusion, kJ/mol (Crystal); method: DSC
Molar enthalpy of transition or fusion, kJ/mol	uncertainty
65.5	8

System: water + caffeine; phases: Liquid, Crystal
Fixed: Pressure, kPa = 101
Property: Mole fraction of caffeine (Liquid); method: UV-vis spectrophotometry
Temperature, K	Mole fraction of caffeine	uncertainty
298	0.00193	0.00012
303	0.00254	0.00015
308	0.00314	0.00019
313	0.00414	0.00025
318	0.00519	0.00032
323	0.00793	0.00048
328	0.00957	0.00058
333	0.01122	0.00068
338	0.01353	0.00082
343	0.01569	0.00095

System: water + 3,4,5-trihydroxybenzoic acid; phases: Liquid, Crystal
Fixed: Pressure, kPa = 101
Property: Mole fraction of 3,4,5-trihydroxybenzoic acid (Liquid); method: UV-vis spectrophotometry
Temperature, K	Mole fraction of 3,4,5-trihydroxybenzoic acid	uncertainty
298	0.00158	0.0001
303	0.00176	0.00011
308	0.00203	0.00012
313	0.00248	0.00015
318	0.00311	0.00019
323	0.00433	0.00026
328	0.00557	0.00034
333	0.00712	0.00043
338	0.00898	0.00055
343	0.01262	0.00077
