Measured thermophysical data. Low viscosity protic ionic liquid for CO2/CH4 separation: Thermophysical and high-pressure phase equilibria for diethylammonium butanoate
Source: Fluid Phase Equilib., 2018, 10.1016/j.fluid.2017.12.001
Compound 1: methane, CH4, InChI=1S/CH4/h1H4, purity 99.5%
Compound 2: nitrogen, N2, InChI=1S/N2/c1-2, purity 99.5%
Compound 3: carbon dioxide, CO2, InChI=1S/CO2/c2-1-3, purity 99.99%
Compound 4: diethylammonium butanoate, C8H19NO2, InChI=1S/C4H11N.C4H8O2/c1-3-5-4-2;1-2-3-4(5)6/h5H,3-4H2,1-2H3;2-3H2,1H3,(H,5,6), purity 99%
Compound 5: water, H2O, InChI=1S/H2O/h1H2, purity 99.8%

System: water; phases: Liquid
Fixed: Pressure, kPa = 101.325
Property: Mass density, kg/m3 (Liquid); method: Vibrating tube method
Temperature, K	Mass density, kg/m3	uncertainty
283	999.72	0.05
286	999.46	0.05
288	999.11	0.05
291	998.69	0.05
293	998.2	0.05
296	997.66	0.05
298	997.04	0.05
301	996.37	0.05
303	995.64	0.05
306	994.87	0.05
308	994.02	0.06
311	993.15	0.06
313	992.21	0.06
316	991.23	0.06
318	990.21	0.06
321	989.15	0.06
323	988.03	0.06

System: water; phases: Liquid
Fixed: Pressure, kPa = 101.325
Property: Speed of sound, m/s (Liquid); method: Single path-length method
Temperature, K	Speed of sound, m/s	uncertainty
283	1448	1
286	1457	1
288	1466	1
291	1475	1
293	1483	1
296	1490	1
298	1497	1
301	1503	1
303	1509	1
306	1515	1
308	1520	1
311	1525	1
313	1529	1
316	1533	1
318	1537	1
321	1540	1
323	1543	1

System: water; phases: Liquid
Fixed: Pressure, kPa = 101.325
Property: Viscosity, Pa*s (Liquid); method: Concentric cylinders viscometry
Temperature, K	Viscosity, Pa*s	uncertainty
283	0.00131	1e-05
286	0.00123	1e-05
288	0.00115	1e-05
291	0.00108	1e-05
293	0.00102	1e-05
296	0.00096	1e-05
298	0.0009	1e-05
301	0.00085	1e-05
303	0.0008	1e-05
306	0.00076	1e-05
308	0.00072	1e-05
311	0.00069	1e-05
313	0.00065	1e-05
316	0.00062	1e-05
318	0.00059	1e-05
321	0.00057	1e-05
323	0.00054	1e-05

System: diethylammonium butanoate + carbon dioxide; phases: Liquid, Gas
Fixed: Mole fraction of carbon dioxide = 0
Property: Henry's Law constant (mole fraction scale), kPa of carbon dioxide (Liquid); method: derived from equation
Temperature, K	Henry's Law constant (mole fraction scale), kPa of carbon dioxide	uncertainty
303.1	7200	200
313.1	9200	200
323.1	11300	200
333.1	12900	300

System: diethylammonium butanoate + carbon dioxide; phases: Liquid, Gas
Property: Vapor or sublimation pressure, kPa (Liquid); method: Closed cell (Static) method
Temperature, K	Mole fraction of carbon dioxide	Vapor or sublimation pressure, kPa	uncertainty
303	0.101	725	100
303	0.2	1934	100
303	0.3	3126	100
303	0.4	4776	101
303	0.5	6126	102
303	0.599	9935	104
313	0.101	926	100
313	0.2	2309	100
313	0.3	3892	101
313	0.4	5705	102
313	0.5	7608	103
313	0.599	13618	108
323	0.101	1138	100
323	0.2	2764	100
323	0.3	4364	101
323	0.4	6803	102
323	0.5	9089	104
323	0.599	16684	112
333	0.101	1294	100
333	0.2	3077	101
333	0.3	5273	101
333	0.4	7888	103
333	0.5	11149	106
333	0.599	19670	116

System: diethylammonium butanoate + methane; phases: Liquid, Gas
Fixed: Mole fraction of methane = 0
Property: Henry's Law constant (mole fraction scale), kPa of methane (Liquid); method: derived from equation
Temperature, K	Henry's Law constant (mole fraction scale), kPa of methane	uncertainty
303.1	86500	1700
313.1	89100	1800
323.1	87900	1800
333.1	94800	1900

System: diethylammonium butanoate + methane; phases: Liquid, Gas
Property: Vapor or sublimation pressure, kPa (Liquid); method: Closed cell (Static) method
Temperature, K	Mole fraction of methane	Vapor or sublimation pressure, kPa	uncertainty
303	0.022	1870	100
303	0.044	4952	101
303	0.067	7990	104
303	0.088	9780	105
303	0.111	12283	108
313	0.022	1926	100
313	0.044	5071	102
313	0.067	8218	104
313	0.088	9986	106
313	0.111	12554	109
323	0.022	1901	100
323	0.044	5169	102
323	0.067	8394	104
323	0.088	10235	106
323	0.111	12729	109
333	0.022	2049	100
333	0.044	5270	102
333	0.067	8510	104
333	0.088	10393	106
333	0.111	12819	109

System: diethylammonium butanoate + nitrogen; phases: Liquid, Gas
Fixed: Mole fraction of nitrogen = 0
Property: Henry's Law constant (mole fraction scale), kPa of nitrogen (Liquid); method: derived from equation
Temperature, K	Henry's Law constant (mole fraction scale), kPa of nitrogen	uncertainty
303.1	151800	3000
313.1	150600	3000
323.1	150000	3000
333.1	149900	3000

System: diethylammonium butanoate + nitrogen; phases: Liquid, Gas
Property: Vapor or sublimation pressure, kPa (Liquid); method: Closed cell (Static) method
Temperature, K	Mole fraction of nitrogen	Vapor or sublimation pressure, kPa	uncertainty
303	0.01	1504	100
303	0.03	4562	101
303	0.04	8111	104
303	0.05	13156	110
313	0.01	1492	100
313	0.03	4462	101
313	0.04	7917	104
313	0.05	12763	109
323	0.01	1486	100
323	0.03	4393	101
323	0.04	7641	103
323	0.05	12282	109
333	0.01	1485	100
333	0.03	4346	101
333	0.04	7345	103
333	0.05	11936	108

System: diethylammonium butanoate + water; phases: Liquid
Fixed: Pressure, kPa = 100.9
Property: Mass density, kg/m3 (Liquid); method: Vibrating tube method
Mole fraction of diethylammonium butanoate	Temperature, K	Mass density, kg/m3	uncertainty
0.0123	283.15	1003.65	0.4
0.0453	283.15	1013.08	0.4
0.1005	283.15	1011.54	0.4
0.1439	283.15	1001.71	0.41
0.2067	283.15	989.91	0.41
0.3096	283.15	976.25	0.42
0.4951	283.15	956.67	0.47
0.6812	283.15	941.81	0.55
0.7974	283.15	930.25	0.62
0.974	283.15	925.8	0.77
0.0123	288.15	1002.55	0.4
0.0453	288.15	1010.64	0.4
0.1005	288.15	1007.9	0.4
0.1439	288.15	996.76	0.41
0.2067	288.15	985.95	0.41
0.3096	288.15	972.8	0.42
0.4951	288.15	952.3	0.47
0.6812	288.15	938.34	0.55
0.7974	288.15	926.65	0.62
0.974	288.15	922.1	0.77
0.0123	293.15	1001.45	0.4
0.0453	293.15	1008.2	0.4
0.1005	293.15	1004.13	0.4
0.1439	293.15	992.35	0.41
0.2067	293.15	984.2	0.41
0.3096	293.15	969.35	0.42
0.4951	293.15	949.58	0.47
0.6812	293.15	937.26	0.55
0.7974	293.15	923.05	0.62
0.974	293.15	918.5	0.76
0.0123	298.15	1000.1	0.4
0.0453	298.15	1005.56	0.4
0.1005	298.15	1000.56	0.4
0.1439	298.15	988.22	0.41
0.2067	298.15	979.99	0.41
0.3096	298.15	965.6	0.42
0.4951	298.15	945.79	0.47
0.6812	298.15	933.71	0.55
0.7974	298.15	919.45	0.62
0.974	298.15	914.7	0.76
0.0123	303.15	998.8	0.4
0.0453	303.15	1002.83	0.4
0.1005	303.15	997.23	0.4
0.1439	303.15	984.45	0.41
0.2067	303.15	976.3	0.41
0.3096	303.15	960.9	0.42
0.4951	303.15	941.96	0.47
0.6812	303.15	930.52	0.55
0.7974	303.15	915.75	0.62
0.974	303.15	910.9	0.76
0.0123	308.15	996.9	0.4
0.0453	308.15	1000.03	0.4
0.1005	308.15	994.12	0.4
0.1439	308.15	981.01	0.41
0.2067	308.15	973.03	0.41
0.3096	308.15	957.65	0.42
0.4951	308.15	938.09	0.47
0.6812	308.15	927.6	0.55
0.7974	308.15	912	0.61
0.974	308.15	907.1	0.75
0.0123	313.15	995	0.4
0.0453	313.15	997.13	0.4
0.1005	313.15	991.05	0.4
0.1439	313.15	977.64	0.41
0.2067	313.15	969.96	0.41
0.3096	313.15	954.6	0.43
0.4951	313.15	934.18	0.47
0.6812	313.15	925.21	0.55
0.7974	313.15	908.2	0.61
0.974	313.15	903.2	0.75
0.0123	318.15	992.7	0.4
0.0453	318.15	994.15	0.4
0.1005	318.15	987.76	0.4
0.1439	318.15	974.31	0.41
0.2067	318.15	967.21	0.41
0.3096	318.15	952.7	0.43
0.4951	318.15	930.28	0.47
0.6812	318.15	922.19	0.55
0.7974	318.15	904.3	0.61
0.974	318.15	899.2	0.75
0.0123	323.15	990.45	0.4
0.0453	323.15	991.08	0.4
0.1005	323.15	984.28	0.41
0.1439	323.15	971.05	0.41
0.2067	323.15	964.37	0.41
0.3096	323.15	949.4	0.43
0.4951	323.15	926.37	0.47
0.6812	323.15	918.45	0.55
0.7974	323.15	900.35	0.61
0.974	323.15	895.2	0.74

System: diethylammonium butanoate + water; phases: Liquid
Fixed: Pressure, kPa = 100.9
Property: Speed of sound, m/s (Liquid); method: Single path-length method
Temperature, K	Mole fraction of diethylammonium butanoate	Speed of sound, m/s	uncertainty
283.15	0.0123	1576.31	0.23
283.15	0.0453	1794.57	0.4
283.15	0.1005	1814.63	0.28
283.15	0.1439	1786.39	0.34
283.15	0.2067	1733.51	0.41
283.15	0.4951	1577.43	0.65
283.15	0.6812	1516.19	0.76
283.15	0.7974	1494.83	0.84
283.15	0.974	1460.54	0.98
288.15	0.0123	1586.27	0.23
288.15	0.0453	1786.57	0.26
288.15	0.1005	1802.4	0.29
288.15	0.1439	1773.05	0.34
288.15	0.2067	1718.71	0.41
288.15	0.4951	1561.42	0.65
288.15	0.6812	1499.71	0.75
288.15	0.7974	1479.8	0.84
288.15	0.974	1448.35	0.98
293.15	0.0123	1594.77	0.23
293.15	0.0453	1779.5	0.26
293.15	0.1005	1789.35	0.29
293.15	0.1439	1759.27	0.34
293.15	0.2067	1705.19	0.41
293.15	0.3096	1629.14	0.49
293.15	0.4951	1539.26	0.63
293.15	0.6812	1485.34	0.75
293.15	0.7974	1464.68	0.84
293.15	0.974	1433.94	0.98
298.15	0.0123	1601.81	0.22
298.15	0.0453	1770.92	0.25
298.15	0.1005	1776.56	0.29
298.15	0.1439	1745.27	0.34
298.15	0.2067	1690.35	0.41
298.15	0.3096	1613.47	0.49
298.15	0.4951	1523.86	0.63
298.15	0.6812	1468.91	0.75
298.15	0.7974	1455.81	0.84
298.15	0.974	1417.5	0.98
303.15	0.0123	1607.5	0.22
303.15	0.0453	1762.11	0.25
303.15	0.1005	1763.54	0.29
303.15	0.1439	1731.08	0.34
303.15	0.2067	1675.18	0.41
303.15	0.3096	1597.59	0.49
303.15	0.4951	1509.14	0.63
303.15	0.6812	1452.26	0.75
303.15	0.7974	1439.9	0.84
303.15	0.974	1400.22	0.98
308.15	0.0123	1611.94	0.22
308.15	0.0453	1753.07	0.25
308.15	0.1005	1750.23	0.29
308.15	0.1439	1716.76	0.35
308.15	0.2067	1659.87	0.41
308.15	0.3096	1581.56	0.49
308.15	0.4951	1493.97	0.63
308.15	0.6812	1435.55	0.75
308.15	0.7974	1424.24	0.84
308.15	0.974	1382.62	0.98
313.15	0.0123	1615.26	0.22
313.15	0.0453	1743.76	0.25
313.15	0.1005	1736.65	0.29
313.15	0.1439	1702.2	0.35
313.15	0.2067	1644.35	0.41
313.15	0.3096	1565.25	0.49
313.15	0.4951	1478.3	0.63
313.15	0.6812	1418.8	0.75
313.15	0.7974	1408.54	0.84
313.15	0.974	1365.17	0.98
318.15	0.0123	1617.46	0.22
318.15	0.0453	1734.15	0.25
318.15	0.1005	1722.82	0.29
318.15	0.1439	1687.35	0.35
318.15	0.2067	1628.67	0.41
318.15	0.3096	1548.59	0.49
318.15	0.4951	1462.38	0.63
318.15	0.6812	1401.89	0.75
318.15	0.7974	1393.82	0.84
318.15	0.974	1348.25	0.98
323.15	0.0123	1618.56	0.22
323.15	0.0453	1724.24	0.33
323.15	0.1005	1708.77	0.3
323.15	0.1439	1672.38	0.35
323.15	0.2067	1612.58	0.41
323.15	0.3096	1531.73	0.48
323.15	0.4951	1446.21	0.63
323.15	0.6812	1384.67	0.75
323.15	0.7974	1379.46	0.84
323.15	0.974	1343.32	0.98

System: diethylammonium butanoate + water; phases: Liquid
Fixed: Pressure, kPa = 100.9
Property: Viscosity, Pa*s (Liquid); method: Concentric cylinders viscometry
Mole fraction of diethylammonium butanoate	Temperature, K	Viscosity, Pa*s	uncertainty
0	283.15	0.00131	2e-05
0	285.65	0.00123	2e-05
0	288.15	0.00115	2e-05
0	290.65	0.00108	2e-05
0	293.15	0.00102	2e-05
0	295.65	0.00096	2e-05
0	298.15	0.0009	2e-05
0	300.65	0.00085	2e-05
0	303.15	0.0008	2e-05
0	305.65	0.00076	2e-05
0	308.15	0.00072	2e-05
0	310.65	0.00069	2e-05
0	313.15	0.00065	2e-05
0	315.65	0.00062	2e-05
0	318.15	0.00059	2e-05
0	320.65	0.00057	2e-05
0	323.15	0.00054	2e-05
0	325.65	0.00051	2e-05
0	328.15	0.00049	2e-05
0	330.65	0.00047	2e-05
0	333.15	0.00045	2e-05
0	335.65	0.00043	2e-05
0	338.15	0.00041	2e-05
0	340.65	0.00039	2e-05
0	343.15	0.00037	2e-05
0.0122	283.15	0.00224	2e-05
0.0122	285.65	0.00207	2e-05
0.0122	288.15	0.00191	2e-05
0.0122	290.65	0.00177	2e-05
0.0122	293.15	0.00164	2e-05
0.0122	295.65	0.00153	2e-05
0.0122	298.15	0.00143	2e-05
0.0122	300.65	0.00134	2e-05
0.0122	303.15	0.00126	2e-05
0.0122	305.65	0.00119	2e-05
0.0122	308.15	0.00112	2e-05
0.0122	310.65	0.00106	2e-05
0.0122	313.15	0.00101	2e-05
0.0122	315.65	0.00096	2e-05
0.0122	318.15	0.00092	2e-05
0.0122	320.65	0.00087	2e-05
0.0122	323.15	0.00084	2e-05
0.0122	325.65	0.0008	2e-05
0.0122	328.15	0.00075	2e-05
0.0122	330.65	0.00072	2e-05
0.0122	333.15	0.00069	2e-05
0.0122	335.65	0.00066	2e-05
0.0122	338.15	0.00064	2e-05
0.0122	340.65	0.00061	2e-05
0.0122	343.15	0.00059	2e-05
0.0451	283.15	0.00691	4e-05
0.0451	285.65	0.00616	3e-05
0.0451	288.15	0.0055	3e-05
0.0451	290.65	0.00496	3e-05
0.0451	293.15	0.00449	3e-05
0.0451	295.65	0.00405	3e-05
0.0451	298.15	0.00369	3e-05
0.0451	300.65	0.00336	3e-05
0.0451	303.15	0.00308	2e-05
0.0451	305.65	0.00284	2e-05
0.0451	308.15	0.00262	2e-05
0.0451	310.65	0.00243	2e-05
0.0451	313.15	0.00226	2e-05
0.0451	315.65	0.0021	2e-05
0.0451	318.15	0.00196	2e-05
0.0451	320.65	0.00184	2e-05
0.0451	323.15	0.00172	2e-05
0.0451	325.65	0.00162	2e-05
0.0451	328.15	0.00152	2e-05
0.0451	330.65	0.00144	2e-05
0.0451	333.15	0.00136	2e-05
0.0451	335.65	0.00129	2e-05
0.0451	338.15	0.00122	2e-05
0.0451	340.65	0.00116	2e-05
0.0451	343.15	0.0011	2e-05
0.0999	283.15	0.01926	8e-05
0.0999	285.65	0.01684	7e-05
0.0999	288.15	0.01479	6e-05
0.0999	290.65	0.01309	6e-05
0.0999	293.15	0.01164	5e-05
0.0999	295.65	0.01038	5e-05
0.0999	298.15	0.00931	4e-05
0.0999	300.65	0.0084	4e-05
0.0999	303.15	0.00762	4e-05
0.0999	305.65	0.00689	4e-05
0.0999	308.15	0.00628	3e-05
0.0999	310.65	0.00573	3e-05
0.0999	313.15	0.00525	3e-05
0.0999	315.65	0.00482	3e-05
0.0999	318.15	0.00445	3e-05
0.0999	320.65	0.00411	3e-05
0.0999	323.15	0.0038	3e-05
0.0999	325.65	0.00353	3e-05
0.0999	328.15	0.00329	3e-05
0.0999	330.65	0.00307	3e-05
0.0999	333.15	0.00287	2e-05
0.0999	335.65	0.0027	2e-05
0.0999	338.15	0.00253	2e-05
0.0999	340.65	0.00239	2e-05
0.0999	343.15	0.00225	2e-05
0.143	283.15	0.03203	0.00014
0.143	285.65	0.02794	0.00012
0.143	288.15	0.02441	0.00011
0.143	290.65	0.02148	9e-05
0.143	293.15	0.01897	8e-05
0.143	295.65	0.01684	7e-05
0.143	298.15	0.01502	7e-05
0.143	300.65	0.01344	6e-05
0.143	303.15	0.01208	5e-05
0.143	305.65	0.01089	5e-05
0.143	308.15	0.00983	5e-05
0.143	310.65	0.00892	4e-05
0.143	313.15	0.00813	4e-05
0.143	315.65	0.00742	4e-05
0.143	318.15	0.00682	4e-05
0.143	320.65	0.00624	3e-05
0.143	323.15	0.00575	3e-05
0.143	325.65	0.00531	3e-05
0.143	328.15	0.00492	3e-05
0.143	330.65	0.00457	3e-05
0.143	333.15	0.00425	3e-05
0.143	335.65	0.00396	3e-05
0.143	338.15	0.0037	3e-05
0.143	340.65	0.00346	3e-05
0.143	343.15	0.00324	3e-05
0.2051	283.15	0.05672	0.00023
0.2051	285.65	0.0491	0.00023
0.2051	288.15	0.04255	0.0002
0.2051	290.65	0.03708	0.00017
0.2051	293.15	0.03247	0.00015
0.2051	295.65	0.02855	0.00013
0.2051	298.15	0.02519	0.00012
0.2051	300.65	0.02234	0.0001
0.2051	303.15	0.01991	9e-05
0.2051	305.65	0.0178	8e-05
0.2051	308.15	0.01599	7e-05
0.2051	310.65	0.01441	7e-05
0.2051	313.15	0.01303	6e-05
0.2051	315.65	0.01182	6e-05
0.2051	318.15	0.01076	5e-05
0.2051	320.65	0.00982	5e-05
0.2051	323.15	0.00898	5e-05
0.2051	325.65	0.00824	4e-05
0.2051	328.15	0.00758	4e-05
0.2051	330.65	0.00699	4e-05
0.2051	333.15	0.00646	4e-05
0.2051	335.65	0.00598	3e-05
0.2051	338.15	0.00555	3e-05
0.2051	340.65	0.00516	3e-05
0.2051	343.15	0.00481	3e-05
0.3064	283.15	0.10648	0.00117
0.3064	285.65	0.0911	0.00083
0.3064	288.15	0.07815	0.00057
0.3064	290.65	0.06744	0.00039
0.3064	293.15	0.05844	0.00027
0.3064	295.65	0.05088	0.00021
0.3064	298.15	0.04432	0.00023
0.3064	300.65	0.03893	0.0002
0.3064	303.15	0.03433	0.00018
0.3064	305.65	0.03043	0.00016
0.3064	308.15	0.02704	0.00014
0.3064	310.65	0.02413	0.00012
0.3064	313.15	0.02159	0.00011
0.3064	315.65	0.01939	0.0001
0.3064	318.15	0.01745	9e-05
0.3064	320.65	0.01577	8e-05
0.3064	323.15	0.01426	7e-05
0.3064	325.65	0.01294	7e-05
0.3064	328.15	0.01179	6e-05
0.3064	330.65	0.01077	6e-05
0.3064	333.15	0.00986	5e-05
0.3064	335.65	0.00905	5e-05
0.3064	338.15	0.00833	5e-05
0.3064	340.65	0.00768	4e-05
0.3064	343.15	0.00709	4e-05
0.4879	283.15	0.15858	0.00263
0.4879	285.65	0.13558	0.00198
0.4879	288.15	0.11604	0.00148
0.4879	290.65	0.09981	0.00109
0.4879	293.15	0.08609	0.0008
0.4879	295.65	0.07458	0.00058
0.4879	298.15	0.06482	0.00043
0.4879	300.65	0.05668	0.00033
0.4879	303.15	0.04968	0.00032
0.4879	305.65	0.04374	0.00028
0.4879	308.15	0.03847	0.00024
0.4879	310.65	0.03417	0.00022
0.4879	313.15	0.03039	0.00019
0.4879	315.65	0.02714	0.00017
0.4879	318.15	0.02428	0.00015
0.4879	320.65	0.02177	0.00014
0.4879	323.15	0.01964	0.00013
0.4879	325.65	0.01773	0.00011
0.4879	328.15	0.01602	0.0001
0.4879	330.65	0.01454	9e-05
0.4879	333.15	0.01324	9e-05
0.4879	335.65	0.01207	8e-05
0.4879	338.15	0.01103	7e-05
0.4879	340.65	0.01011	7e-05
0.4879	343.15	0.00928	6e-05
0.6684	283.15	0.15829	0.00271
0.6684	285.65	0.13569	0.00208
0.6684	288.15	0.11661	0.00158
0.6684	290.65	0.10054	0.00119
0.6684	293.15	0.08706	0.0009
0.6684	295.65	0.07569	0.00069
0.6684	298.15	0.06604	0.00053
0.6684	300.65	0.05786	0.00043
0.6684	303.15	0.05088	0.00036
0.6684	305.65	0.04491	0.00035
0.6684	308.15	0.03977	0.00031
0.6684	310.65	0.03533	0.00027
0.6684	313.15	0.03148	0.00024
0.6684	315.65	0.02813	0.00022
0.6684	318.15	0.02523	0.0002
0.6684	320.65	0.02268	0.00018
0.6684	323.15	0.02046	0.00016
0.6684	325.65	0.01849	0.00014
0.6684	328.15	0.01676	0.00013
0.6684	330.65	0.01523	0.00012
0.6684	333.15	0.01386	0.00011
0.6684	335.65	0.01264	0.0001
0.6684	338.15	0.01156	9e-05
0.6684	340.65	0.01059	8e-05
0.6684	343.15	0.00964	8e-05
0.974	283.15	0.13018	0.00212
0.974	285.65	0.11213	0.00165
0.974	288.15	0.0969	0.00129
0.974	290.65	0.08407	0.00102
0.974	293.15	0.07319	0.00081
0.974	295.65	0.06397	0.00066
0.974	298.15	0.05614	0.00056
0.974	300.65	0.0495	0.00051
0.974	303.15	0.04373	0.00045
0.974	305.65	0.03876	0.0004
0.974	308.15	0.0345	0.00036
0.974	310.65	0.03078	0.00032
0.974	313.15	0.02755	0.00028
0.974	315.65	0.02473	0.00026
0.974	318.15	0.02226	0.00023
0.974	320.65	0.02008	0.00021
0.974	323.15	0.01814	0.00019
0.974	325.65	0.01645	0.00017
0.974	328.15	0.01494	0.00015
0.974	330.65	0.01361	0.00014
0.974	333.15	0.01238	0.00013
0.974	335.65	0.01133	0.00012
0.974	338.15	0.01037	0.00011
0.974	340.65	0.00948	0.0001
0.974	343.15	0.0087	9e-05
