Measured thermophysical data. Vapor pressures of 1,1,1,2,3,3,3-heptafluoropropane, 1,1,1,3,3,3-hexafluoropropane and 1,1,1,3,3-pentafluoropropane
Source: Fluid Phase Equilib., 2010, 10.1016/j.fluid.2009.08.023
Compound 1: 1,1,1,2,3,3,3-heptafluoropropane, C3HF7, InChI=1S/C3HF7/c4-1(2(5,6)7)3(8,9)10/h1H, purity 99.98%
Compound 2: 1,1,1,3,3,3-hexafluoropropane, C3H2F6, InChI=1S/C3H2F6/c4-2(5,6)1-3(7,8)9/h1H2, purity 99.98%
Compound 3: 1,1,1,3,3-pentafluoropropane, C3H3F5, InChI=1S/C3H3F5/c4-2(5)1-3(6,7)8/h2H,1H2, purity 99.97%

System: 1,1,1,2,3,3,3-heptafluoropropane; phases: Liquid, Gas
Property: Vapor or sublimation pressure, kPa (Liquid); method: Closed cell (Static) method
Temperature, K	Vapor or sublimation pressure, kPa	uncertainty
233.798	33.41	0.6
235.526	36.68	0.6
237.5	40.7	0.6
237.934	41.62	0.61
239.212	44.45	0.61
241.123	48.94	0.61
243.057	53.89	0.61
245.073	59.45	0.61
247.091	65.47	0.61
247.15	65.66	0.61
249.103	71.95	0.61
251.21	79.25	0.62
253.113	86.34	0.62
255.187	94.66	0.62
257.153	103.11	0.63
257.2	103.29	0.63
258.2	107.8	0.63
259.058	111.83	0.63
261.03	121.45	0.63
262.973	131.55	0.64
265.225	144.08	0.65
267.133	155.39	0.65
269.155	168.13	0.66
271.119	181.25	0.67
271.902	186.72	0.67
273.217	196.14	0.68
275.234	211.33	0.69
277.222	227.17	0.7
277.551	229.88	0.71
279.11	243.04	0.72
281.212	261.71	0.73
283.194	280.28	0.75
283.227	280.58	0.75
285.136	299.44	0.77
287.157	320.43	0.78
287.955	329.02	0.79
289.056	341.15	0.81
291.111	364.72	0.83
292.832	385.4	0.85
293.229	390.27	0.86
294.981	412.44	0.88
297.073	440.12	0.91
297.749	449.31	0.92
299.107	468.35	0.94
301.101	497.27	0.98
303.218	529.51	1.02
306.097	575.88	1.07
308.037	608.64	1.11
318.592	813.28	1.38
320.549	856.24	1.43
321.057	867.63	1.44
328.298	1043.65	1.7
331.447	1127.75	1.85
338.371	1331.06	2.16
341.939	1445.96	2.35
348.866	1690.72	2.73
352.269	1822.1	2.95
359.687	2136.34	3.44
360.916	2192.13	3.52
371.371	2720.81	4.34
371.425	2723.83	4.35

System: 1,1,1,3,3,3-hexafluoropropane; phases: Liquid, Gas
Property: Vapor or sublimation pressure, kPa (Liquid); method: Closed cell (Static) method
Temperature, K	Vapor or sublimation pressure, kPa	uncertainty
239.024	20.71	0.6
240.102	21.95	0.6
242.86	25.66	0.6
243.173	26.02	0.6
243.26	26.19	0.6
244.902	28.6	0.6
247.013	31.96	0.6
249.114	35.66	0.6
249.302	35.98	0.6
251.188	39.62	0.6
253.109	43.66	0.61
253.176	43.74	0.61
253.286	43.96	0.6
253.326	44.11	0.61
255.207	48.33	0.61
257.221	53.21	0.61
259.246	58.54	0.61
261.089	63.74	0.61
262.942	69.34	0.61
263.095	69.79	0.61
263.196	70.19	0.61
264.077	72.93	0.61
264.878	75.59	0.61
266.951	82.8	0.62
269.028	90.55	0.62
271.099	98.85	0.62
273.22	107.93	0.63
273.305	108.24	0.63
273.323	108.34	0.63
273.396	108.71	0.63
275.231	117.09	0.63
277.32	127.3	0.64
279.29	137.56	0.64
280.965	146.78	0.65
283.24	160.12	0.65
283.274	160.26	0.66
285.258	172.59	0.66
287.23	185.57	0.67
289.228	199.5	0.68
291.197	214	0.69
293.156	229.27	0.7
293.29	230.28	0.7
294.317	238.65	0.71
295.256	246.45	0.72
297.251	263.72	0.73
299.348	282.86	0.75
301.404	302.67	0.77
303.055	319.32	0.78
303.239	321.23	0.78
303.299	321.84	0.78
303.552	324.31	0.79
305.213	342.11	0.8
306.134	352.04	0.81
307.213	364.17	0.83
307.883	372.01	0.84
308.184	375.53	0.84
308.2	375.7	0.84
309.516	391.11	0.86
311.21	412.03	0.88
311.287	412.84	0.88
312.222	424.67	0.89
313.163	436.99	0.9
313.287	438.48	0.91
313.847	445.61	0.92
315.306	465.57	0.94
317.16	491.51	0.97
319.268	522.37	1
320.929	547.63	1.03
321.215	552.1	1.04
323.436	587.43	1.08
325.869	628.19	1.13
325.872	628.25	1.13
327.212	651.86	1.16
328.235	669.95	1.18
329.187	687.47	1.21
330.275	707.58	1.23
330.431	710.54	1.23
330.865	718.92	1.25
332.198	744.56	1.28
332.594	752.25	1.29
335.423	809.53	1.36
337.414	851.82	1.42
337.884	862	1.43
339.871	906.21	1.49
341.924	953.67	1.56
343.976	1002.94	1.64
345.609	1043.49	1.7
346.247	1059.65	1.73
348.232	1111.23	1.81
350.368	1168.74	1.9
352.046	1215.71	1.97
352.448	1226.94	1.99
353.224	1249.28	2.03
355.642	1320.47	2.14
356.704	1352.63	2.19
359.211	1431.41	2.32
361.341	1500.78	2.43
363.461	1572.33	2.54
365.595	1647.11	2.66
367.454	1714.41	2.76
369.487	1790.45	2.88
371.347	1862.24	3
372.117	1892.76	3.05
373.437	1945.57	3.13
373.468	1946.78	3.13
374.62	1994.08	3.21
375.471	2029.38	3.26
377.6	2120.24	3.4
378.145	2144.1	3.44
379.735	2214.51	3.56
381.829	2310.19	3.71
383.87	2406.69	3.86
385.8	2500.76	4.01
387.799	2601.63	4.17
390.195	2726.95	4.36
392.054	2828.09	4.53
393.472	2907.55	4.65
393.729	2922.21	4.68
394.043	2939.99	4.71
396.045	3057.02	4.89
396.525	3085.75	4.94
397.973	3174.16	5.07

System: 1,1,1,3,3-pentafluoropropane; phases: Liquid, Gas
Property: Vapor or sublimation pressure, kPa (Liquid); method: Closed cell (Static) method
Temperature, K	Vapor or sublimation pressure, kPa	uncertainty
235.648	6.9	0.6
237.608	7.83	0.6
239.608	8.89	0.6
241.651	10.09	0.6
243.573	11.33	0.6
245.574	12.77	0.6
247.667	14.43	0.6
249.715	16.22	0.6
251.164	17.6	0.6
251.636	18.05	0.6
252.679	19.12	0.6
253.701	20.23	0.6
255.594	22.39	0.6
256.662	23.69	0.6
257.558	24.84	0.6
259.604	27.62	0.6
261.268	30.07	0.6
261.473	30.38	0.6
261.619	30.62	0.6
263.882	34.3	0.6
265.692	37.48	0.6
266.396	38.77	0.6
267.215	40.32	0.6
267.51	40.9	0.6
267.648	41.19	0.6
269.61	45.21	0.61
271.594	49.58	0.61
271.726	49.9	0.61
272.61	51.93	0.61
273.726	54.67	0.61
275.725	59.81	0.61
277.709	65.28	0.61
277.742	65.39	0.61
279.715	71.23	0.61
279.722	71.27	0.61
281.616	77.24	0.61
281.739	77.66	0.61
282.668	80.74	0.62
283.007	81.9	0.62
283.616	84.01	0.62
285.602	91.2	0.62
287.567	98.81	0.62
287.58	98.82	0.62
287.631	99.06	0.62
289.64	107.32	0.63
291.68	116.25	0.63
292.106	118.22	0.63
292.555	120.29	0.63
293.018	122.46	0.63
294.049	127.38	0.64
296.05	137.42	0.64
297.682	146.08	0.65
298.067	148.16	0.65
299.985	158.97	0.65
302.223	172.36	0.66
302.609	174.75	0.66
302.816	176.04	0.66
306.059	197.31	0.68
308.237	212.7	0.69
312.049	241.93	0.71
314.673	263.68	0.73
316.8	282.34	0.75
318.623	299.22	0.76
321.022	322.69	0.79
324.939	363.8	0.82
326.916	386.02	0.85
328.208	401	0.86
328.88	409.17	0.87
332.337	452.27	0.92
334.536	481.58	0.95
335.061	488.66	0.96
337.05	516.55	0.99
337.075	516.91	0.99
337.71	526.04	1.01
339.463	552.03	1.03
340.652	570.3	1.06
340.661	570.45	1.06
343.111	609.1	1.1
344.744	636.25	1.14
345.106	642.16	1.14
347.043	675.54	1.19
348.614	703.69	1.22
349.135	713.08	1.23
349.319	716.41	1.24
351.614	759.56	1.29
363.478	1014.04	1.65
363.478	1014.04	1.65
365.397	1060.63	1.73
365.397	1060.63	1.73
368.804	1147.08	1.86
368.804	1147.08	1.86
371.516	1219.92	1.97
371.516	1219.92	1.97
373.613	1278.37	2.07
373.613	1278.37	2.07
374.583	1306.04	2.11
375.902	1344.6	2.17
375.902	1344.6	2.17
378.496	1422.66	2.29
380.59	1487.89	2.4
380.964	1500.01	2.42
383.225	1573.64	2.53
386.067	1669.48	2.69
388.528	1756.97	2.82
391.148	1853.38	2.98
393.551	1945.04	3.12
394.579	1985.59	3.19
396.199	2050.68	3.29
398.69	2153.73	3.45
401.036	2254.63	3.61
402.983	2340.78	3.74
404.296	2400.92	3.84
404.317	2401.69	3.84
405.049	2435.41	3.9
407.085	2531.5	4.04
408.527	2601.66	4.15
409.036	2626.54	4.19
409.428	2646.03	4.23
411.131	2731.37	4.36
413.247	2841.11	4.53
414.106	2886.59	4.61
414.651	2916.05	4.65
415.268	2949.24	4.71
417.282	3060.73	4.88
419.311	3176.22	5.06
420.087	3221.73	5.14
422.02	3337.07	5.32
422.446	3363.03	5.36
424.013	3459.89	5.51
424.325	3479.18	5.54
424.519	3491.58	5.57
426.471	3617.93	5.76
427.082	3658.27	5.83
