Measured thermophysical data. Temperature dependence of the excess molar volume of 1-hexanol + 1-alkene systems in terms of an association and equation of state model
Source: Fluid Phase Equilib., 2010, 10.1016/j.fluid.2010.04.011
Compound 1: hexan-1-ol, C6H14O, InChI=1S/C6H14O/c1-2-3-4-5-6-7/h7H,2-6H2,1H3
Compound 2: hex-1-ene, C6H12, InChI=1S/C6H12/c1-3-5-6-4-2/h3H,1,4-6H2,2H3
Compound 3: oct-1-ene, C8H16, InChI=1S/C8H16/c1-3-5-7-8-6-4-2/h3H,1,4-8H2,2H3
Compound 4: 1-decene, C10H20, InChI=1S/C10H20/c1-3-5-7-9-10-8-6-4-2/h3H,1,4-10H2,2H3

System: hexan-1-ol + hex-1-ene; phases: Liquid
Fixed: Pressure, kPa = 101.3
Property: Excess molar volume, m3/mol (Liquid); method: Calculated with densities of this investigation
Temperature, K	Mole fraction of hexan-1-ol	Excess molar volume, m3/mol	uncertainty
288.15	0.0471	-4.6e-08	9e-09
288.15	0.1027	-9.5e-08	9e-09
288.15	0.1546	-1.36e-07	1e-08
288.15	0.2023	-1.68e-07	1e-08
288.15	0.2494	-2.13e-07	1e-08
288.15	0.2994	-2.5e-07	1e-08
288.15	0.348	-2.84e-07	1e-08
288.15	0.3994	-3.12e-07	1e-08
288.15	0.5546	-3.58e-07	1e-08
288.15	0.5946	-3.59e-07	1e-08
288.15	0.6579	-3.51e-07	1e-08
288.15	0.707	-3.36e-07	1e-08
288.15	0.7469	-3.09e-07	1e-08
288.15	0.7964	-2.72e-07	1e-08
288.15	0.844	-2.27e-07	1e-08
288.15	0.8963	-1.65e-07	1e-08
308.15	0.1044	-8.2e-08	9e-09
308.15	0.1533	-1.36e-07	1e-08
308.15	0.2077	-1.91e-07	1e-08
308.15	0.254	-2.39e-07	1e-08
308.15	0.3002	-2.81e-07	1e-08
308.15	0.3525	-3.17e-07	1e-08
308.15	0.3947	-3.53e-07	1e-08
308.15	0.4434	-3.79e-07	1e-08
308.15	0.491	-4.01e-07	1e-08
308.15	0.5409	-4.1e-07	1e-08
308.15	0.5973	-4.13e-07	1e-08
308.15	0.7022	-3.86e-07	1e-08
308.15	0.7474	-3.61e-07	1e-08
308.15	0.8427	-2.66e-07	1e-08
308.15	0.8945	-1.93e-07	1e-08
308.15	0.943	-1.11e-07	1e-08

System: hexan-1-ol + oct-1-ene; phases: Liquid
Fixed: Pressure, kPa = 101.3
Property: Excess molar volume, m3/mol (Liquid); method: Calculated with densities of this investigation
Temperature, K	Mole fraction of hexan-1-ol	Excess molar volume, m3/mol	uncertainty
288.15	0.0497	3.6e-08	9e-09
288.15	0.1102	3.8e-08	9e-09
288.15	0.1609	4.3e-08	9e-09
288.15	0.2071	4e-08	9e-09
288.15	0.2578	3.6e-08	9e-09
288.15	0.3054	2.1e-08	9e-09
288.15	0.3536	8e-09	9e-09
288.15	0.455	-1.4e-08	9e-09
288.15	0.5035	-2.6e-08	9e-09
288.15	0.5414	-4e-08	9e-09
288.15	0.601	-5e-08	9e-09
288.15	0.6471	-6.1e-08	9e-09
288.15	0.7063	-7.6e-08	9e-09
288.15	0.7556	-7.4e-08	9e-09
288.15	0.8008	-7.8e-08	9e-09
288.15	0.8489	-7.1e-08	9e-09
288.15	0.8977	-5.3e-08	9e-09
288.15	0.9475	-3.5e-08	9e-09
308.15	0.1177	8.8e-08	9e-09
308.15	0.1732	9e-08	9e-09
308.15	0.2182	8.3e-08	9e-09
308.15	0.267	7.8e-08	9e-09
308.15	0.3158	6.4e-08	9e-09
308.15	0.3672	4.3e-08	9e-09
308.15	0.4135	3.2e-08	9e-09
308.15	0.4866	9e-09	9e-09
308.15	0.5308	-1.1e-08	9e-09
308.15	0.5899	-3.3e-08	9e-09
308.15	0.6361	-4.5e-08	9e-09
308.15	0.692	-6.1e-08	9e-09
308.15	0.7521	-6.7e-08	9e-09
308.15	0.7991	-7.2e-08	9e-09
308.15	0.8499	-6.3e-08	9e-09
308.15	0.8993	-4.9e-08	9e-09
308.15	0.9479	-2.7e-08	9e-09

System: hexan-1-ol + 1-decene; phases: Liquid
Fixed: Pressure, kPa = 101.3
Property: Excess molar volume, m3/mol (Liquid); method: Calculated with densities of this investigation
Temperature, K	Mole fraction of hexan-1-ol	Excess molar volume, m3/mol	uncertainty
288.15	0.051	6.7e-08	9e-09
288.15	0.1035	9.7e-08	9e-09
288.15	0.1546	1.1e-07	9e-09
288.15	0.2055	1.26e-07	9e-09
288.15	0.2492	1.34e-07	1e-08
288.15	0.2996	1.39e-07	1e-08
288.15	0.3538	1.42e-07	1e-08
288.15	0.3925	1.36e-07	1e-08
288.15	0.4419	1.28e-07	9e-09
288.15	0.508	1.12e-07	9e-09
288.15	0.5411	1.07e-07	9e-09
288.15	0.6009	8.7e-08	9e-09
288.15	0.6547	7.1e-08	9e-09
288.15	0.6904	6.1e-08	9e-09
288.15	0.7538	3.5e-08	9e-09
288.15	0.8495	1.5e-08	9e-09
308.15	0.0544	1.16e-07	9e-09
308.15	0.1045	1.55e-07	1e-08
308.15	0.1532	1.88e-07	1e-08
308.15	0.2041	2.03e-07	1e-08
308.15	0.2542	2.12e-07	1e-08
308.15	0.3004	2.15e-07	1e-08
308.15	0.3529	2.17e-07	1e-08
308.15	0.3935	2.18e-07	1e-08
308.15	0.44	2.06e-07	1e-08
308.15	0.5029	1.86e-07	1e-08
308.15	0.6528	1.34e-07	1e-08
308.15	0.6946	1.2e-07	9e-09
308.15	0.7498	9.2e-08	9e-09
308.15	0.8004	6.3e-08	9e-09
308.15	0.8484	4.6e-08	9e-09
308.15	0.8966	2.9e-08	9e-09
