Measured thermophysical data. Volumetric behavior of the ternary system benzene-2-methoxy-2-methylbutane-2,2,4-trimethylpentane and all binary sub-systems at temperature range (298.15 - 318.15) K
Source: Fluid Phase Equilib., 2013, 10.1016/j.fluid.2012.09.007
Compound 1: benzene, C6H6, InChI=1S/C6H6/c1-2-4-6-5-3-1/h1-6H
Compound 2: 2-methoxy-2-methylbutane, C6H14O, InChI=1S/C6H14O/c1-5-6(2,3)7-4/h5H2,1-4H3
Compound 3: 2,2,4-trimethylpentane, C8H18, InChI=1S/C8H18/c1-7(2)6-8(3,4)5/h7H,6H2,1-5H3

System: benzene + 2-methoxy-2-methylbutane; phases: Liquid
Fixed: Pressure, kPa = 101
Property: Mass density, kg/m3 (Liquid); method: Vibrating tube method
Temperature, K	Mole fraction of benzene	Mass density, kg/m3	uncertainty
298.15	0	765.79	1.21
298.15	0.06414	770.46	1.09
298.15	0.13535	775.9	0.97
298.15	0.20192	781.23	0.87
298.15	0.26933	786.88	0.76
298.15	0.3352	792.67	0.67
298.15	0.40205	798.87	0.58
298.15	0.46529	805.02	0.5
298.15	0.53418	812.08	0.43
298.15	0.60223	819.46	0.36
298.15	0.66711	826.93	0.3
298.15	0.73673	835.44	0.24
298.15	0.79728	843.32	0.2
298.15	0.86646	852.89	0.16
298.15	0.93364	862.89	0.13
298.15	1	873.53	0.11
308.15	0	756.23	1.19
308.15	0.06701	761.09	1.07
308.15	0.1338	766.17	0.96
308.15	0.20094	771.51	0.85
308.15	0.26719	777.02	0.76
308.15	0.33364	782.8	0.66
308.15	0.40237	789.11	0.57
308.15	0.47154	795.77	0.49
308.15	0.53439	802.18	0.42
308.15	0.60085	809.31	0.36
308.15	0.66847	816.98	0.3
308.15	0.73448	824.97	0.24
308.15	0.79947	833.32	0.2
308.15	0.86254	841.93	0.16
308.15	0.93443	852.47	0.13
308.15	1	862.85	0.11
318.15	0	746.71	1.16
318.15	0.06757	751.58	1.05
318.15	0.13456	756.63	0.94
318.15	0.20142	761.91	0.84
318.15	0.26903	767.5	0.74
318.15	0.33706	773.39	0.65
318.15	0.4031	779.4	0.57
318.15	0.46606	785.42	0.49
318.15	0.53388	792.26	0.42
318.15	0.60116	799.41	0.35
318.15	0.66791	806.93	0.3
318.15	0.73455	814.9	0.24
318.15	0.79939	823.13	0.2
318.15	0.86452	831.93	0.16
318.15	0.93325	841.85	0.13
318.15	1	852.18	0.11

System: benzene + 2,2,4-trimethylpentane; phases: Liquid
Fixed: Pressure, kPa = 101
Property: Mass density, kg/m3 (Liquid); method: Vibrating tube method
Temperature, K	Mole fraction of benzene	Mass density, kg/m3	uncertainty
298.15	0	687.69	0.18
298.15	0.06106	693.48	0.18
298.15	0.14184	701.74	0.17
298.15	0.2015	708.37	0.17
298.15	0.26849	716.35	0.17
298.15	0.33817	725.38	0.16
298.15	0.39902	733.9	0.16
298.15	0.46388	743.77	0.16
298.15	0.51793	752.66	0.15
298.15	0.59862	767.18	0.15
298.15	0.65622	778.61	0.14
298.15	0.72573	793.77	0.14
298.15	0.79927	811.66	0.13
298.15	0.87105	831.31	0.13
298.15	0.94825	855.37	0.12
298.15	1	873.52	0.11
308.15	0	679.5	0.18
308.15	0.07837	686.91	0.18
308.15	0.13898	693.09	0.18
308.15	0.21125	701.03	0.17
308.15	0.27007	707.99	0.17
308.15	0.32435	714.88	0.17
308.15	0.39118	723.99	0.16
308.15	0.46071	734.35	0.16
308.15	0.53186	745.93	0.15
308.15	0.60193	758.53	0.15
308.15	0.66687	771.38	0.14
308.15	0.73346	785.91	0.14
308.15	0.79445	800.56	0.13
308.15	0.86618	819.8	0.13
308.15	0.93016	839.08	0.12
308.15	1	862.84	0.11
318.15	0	671.34	0.19
318.15	0.07013	677.83	0.18
318.15	0.13365	684.16	0.18
318.15	0.2025	691.56	0.18
318.15	0.27202	699.64	0.17
318.15	0.34569	708.99	0.17
318.15	0.4011	716.6	0.17
318.15	0.466	726.21	0.16
318.15	0.53499	737.39	0.16
318.15	0.59414	747.85	0.15
318.15	0.65924	760.41	0.15
318.15	0.73192	775.94	0.14
318.15	0.7981	791.66	0.14
318.15	0.86557	809.56	0.13
318.15	0.93211	829.34	0.12
318.15	1	852.18	0.11

System: 2,2,4-trimethylpentane + 2-methoxy-2-methylbutane; phases: Liquid
Fixed: Pressure, kPa = 101
Property: Mass density, kg/m3 (Liquid); method: Vibrating tube method
Temperature, K	Mole fraction of 2-methoxy-2-methylbutane	Mass density, kg/m3	uncertainty
298.15	0	687.68	0.16
298.15	0.06668	691.73	0.16
298.15	0.13339	695.93	0.16
298.15	0.20651	700.7	0.17
298.15	0.27124	705.05	0.18
298.15	0.33762	709.68	0.19
298.15	0.39769	713.99	0.2
298.15	0.4666	719.11	0.22
298.15	0.52704	723.75	0.24
298.15	0.59525	729.17	0.26
298.15	0.66676	735.06	0.29
298.15	0.73139	740.58	0.32
298.15	0.79746	746.43	0.36
298.15	0.8616	752.31	0.39
298.15	0.93249	759.06	0.44
298.15	1	765.77	0.49
308.15	0	679.48	0.16
308.15	0.06672	683.48	0.16
308.15	0.13829	687.9	0.17
308.15	0.20562	692.2	0.17
308.15	0.26844	696.36	0.18
308.15	0.34064	701.28	0.19
308.15	0.401	705.55	0.2
308.15	0.45854	709.75	0.22
308.15	0.52914	715.06	0.24
308.15	0.59527	720.24	0.26
308.15	0.66323	725.74	0.29
308.15	0.73388	731.67	0.32
308.15	0.79458	736.96	0.35
308.15	0.86463	743.27	0.39
308.15	0.9319	749.58	0.44
308.15	1	756.19	0.48
318.15	0	671.34	0.16
318.15	0.06682	675.24	0.17
318.15	0.13683	679.49	0.17
318.15	0.19743	683.27	0.17
318.15	0.2673	687.79	0.18
318.15	0.33747	692.5	0.19
318.15	0.40102	696.91	0.21
318.15	0.46764	701.69	0.22
318.15	0.5324	706.5	0.24
318.15	0.59836	711.56	0.26
318.15	0.65934	716.41	0.29
318.15	0.7309	722.32	0.32
318.15	0.7982	728.08	0.35
318.15	0.86695	734.18	0.39
318.15	0.93202	740.18	0.43
318.15	1	746.69	0.48

System: benzene + 2,2,4-trimethylpentane + 2-methoxy-2-methylbutane; phases: Liquid
Fixed: Pressure, kPa = 101
Property: Mass density, kg/m3 (Liquid); method: Vibrating tube method
Temperature, K	Mole fraction of benzene	Mole fraction of 2-methoxy-2-methylbutane	Mass density, kg/m3	uncertainty
298.15	0.0391	0.90131	762.5	1.02
298.15	0.06213	0.8432	760.62	0.92
298.15	0.08954	0.77401	758.34	0.81
298.15	0.11731	0.70391	756.09	0.71
298.15	0.14267	0.6399	753.97	0.62
298.15	0.17781	0.5512	751.12	0.52
298.15	0.20675	0.47818	748.76	0.44
298.15	0.23973	0.39493	746.04	0.36
298.15	0.27324	0.31036	743.3	0.3
298.15	0.30262	0.2362	740.93	0.25
298.15	0.32637	0.17626	739.02	0.22
298.15	0.35707	0.09877	736.55	0.19
298.15	0.37637	0.05005	734.96	0.17
308.15	0.0391	0.90131	753.04	1
308.15	0.06213	0.8432	751.2	0.91
308.15	0.08954	0.77401	748.97	0.8
308.15	0.11731	0.70391	746.77	0.7
308.15	0.14267	0.6399	744.7	0.61
308.15	0.17781	0.5512	741.91	0.51
308.15	0.20675	0.47818	739.61	0.43
308.15	0.23973	0.39493	736.94	0.36
308.15	0.27324	0.31036	734.24	0.3
308.15	0.30262	0.2362	731.93	0.25
308.15	0.32637	0.17626	730.05	0.22
308.15	0.35707	0.09877	727.64	0.19
308.15	0.37637	0.05005	726.09	0.18
318.15	0.0391	0.90131	743.59	0.99
318.15	0.06213	0.8432	741.79	0.89
318.15	0.08954	0.77401	739.62	0.78
318.15	0.11731	0.70391	737.47	0.69
318.15	0.14267	0.6399	735.44	0.6
318.15	0.17781	0.5512	732.72	0.5
318.15	0.20675	0.47818	730.47	0.43
318.15	0.23973	0.39493	727.86	0.36
318.15	0.27324	0.31036	725.22	0.3
318.15	0.30262	0.2362	722.97	0.25
318.15	0.32637	0.17626	721.13	0.22
318.15	0.35707	0.09877	718.78	0.19
318.15	0.37637	0.05005	717.25	0.18
298.15	0.02	0.96661	765.79	1.15
298.15	0.06847	0.8857	765.95	1
298.15	0.10661	0.82203	766.06	0.89
298.15	0.13536	0.77404	766.18	0.82
298.15	0.17325	0.71079	766.31	0.72
298.15	0.21803	0.63604	766.4	0.62
298.15	0.25737	0.57037	766.55	0.54
298.15	0.29952	0.50001	766.61	0.46
298.15	0.34479	0.42443	766.73	0.39
298.15	0.38445	0.35822	766.8	0.33
298.15	0.42517	0.29025	766.85	0.28
298.15	0.46181	0.22909	766.94	0.24
298.15	0.51283	0.14391	767.01	0.19
298.15	0.5509	0.08037	767.04	0.17
298.15	0.57021	0.04813	767.08	0.16
308.15	0.02	0.96661	756.24	1.12
308.15	0.06847	0.8857	756.46	0.98
308.15	0.10661	0.82203	756.58	0.88
308.15	0.13536	0.77404	756.71	0.8
308.15	0.17325	0.71079	756.87	0.71
308.15	0.21803	0.63604	756.97	0.61
308.15	0.25737	0.57037	757.14	0.53
308.15	0.29952	0.50001	757.22	0.46
308.15	0.34479	0.42443	757.36	0.38
308.15	0.38445	0.35822	757.45	0.33
308.15	0.42517	0.29025	757.51	0.28
308.15	0.46181	0.22909	757.62	0.24
308.15	0.51283	0.14391	757.7	0.2
308.15	0.5509	0.08037	757.74	0.17
308.15	0.57021	0.04813	757.79	0.16
318.15	0.02	0.96661	746.73	1.1
318.15	0.06847	0.8857	746.97	0.96
318.15	0.10661	0.82203	747.11	0.86
318.15	0.13536	0.77404	747.26	0.79
318.15	0.17325	0.71079	747.43	0.7
318.15	0.21803	0.63604	747.56	0.6
318.15	0.25737	0.57037	747.75	0.53
318.15	0.29952	0.50001	747.85	0.45
318.15	0.34479	0.42443	748	0.38
318.15	0.38445	0.35822	748.12	0.33
318.15	0.42517	0.29025	748.2	0.28
318.15	0.46181	0.22909	748.32	0.24
318.15	0.51283	0.14391	748.42	0.2
318.15	0.5509	0.08037	748.48	0.17
318.15	0.57021	0.04813	748.53	0.16
