Measured thermophysical data. Liquid-liquid phase equilibrium for ternary mixtures of formamide (or ethylene glycol, or monoethanolamine) + indole + 2-methylnaphthalene at 308.15 K
Source: Fluid Phase Equilib., 2015, 10.1016/j.fluid.2015.04.001
Compound 1: formamide, CH3NO, InChI=1S/CH3NO/c2-1-3/h1H,(H2,2,3), purity 99.5%
Compound 2: 1,2-ethanediol, C2H6O2, InChI=1S/C2H6O2/c3-1-2-4/h3-4H,1-2H2, purity 99.2%
Compound 3: 2-aminoethan-1-ol, C2H7NO, InChI=1S/C2H7NO/c3-1-2-4/h4H,1-3H2, purity 99.1%
Compound 4: 1H-indole, C8H7N, InChI=1S/C8H7N/c1-2-4-8-7(3-1)5-6-9-8/h1-6,9H, purity 99%
Compound 5: 2-methylnaphthalene, C11H10, InChI=1S/C11H10/c1-9-6-7-10-4-2-3-5-11(10)8-9/h2-8H,1H3, purity 99.1%

System: formamide; phases: Liquid
Property: Mass density, kg/m3 (Liquid); method: PYCNOM:airbuo
Temperature, K	Pressure, kPa	Mass density, kg/m3	uncertainty
308.15	101.325	1120.9	1.2

System: 1,2-ethanediol; phases: Liquid
Property: Mass density, kg/m3 (Liquid); method: PYCNOM:airbuo
Temperature, K	Pressure, kPa	Mass density, kg/m3	uncertainty
308.15	101.325	1103.3	1.3

System: 2-aminoethan-1-ol; phases: Liquid
Property: Mass density, kg/m3 (Liquid); method: PYCNOM:airbuo
Temperature, K	Pressure, kPa	Mass density, kg/m3	uncertainty
308.15	101.325	1006.8	1.2

System: 2-methylnaphthalene; phases: Liquid
Property: Mass density, kg/m3 (Liquid); method: Unknown
Temperature, K	Pressure, kPa	Mass density, kg/m3	uncertainty
308.15	101.325	995.6	0.3

System: formamide + 2-methylnaphthalene + 1H-indole; phases: Liquid mixture 2, Liquid mixture 1
Fixed: Temperature, K = 308.15
Fixed: Pressure, kPa = 101
Property: Mole fraction of formamide (Liquid mixture 2); method: Chromatography
Property: Mole fraction of 1H-indole (Liquid mixture 1); method: Chromatography
Property: Mole fraction of formamide (Liquid mixture 1); method: Chromatography
Mole fraction of 1H-indole	Mole fraction of formamide	uncertainty	Mole fraction of 1H-indole	uncertainty	Mole fraction of formamide	uncertainty
0	0.0002	0.0002	0		0.8829	
0.0098	0.0033	0.002	0.0548	0.0037	0.856	
0.0159	0.0032	0.002	0.0865	0.0029	0.8274	
0.0239	0.003	0.002	0.1165	0.0029	0.7967	
0.0302	0.0027	0.002	0.1468	0.0029	0.7667	
0.0423	0.0031	0.002	0.1952	0.003	0.71	
0.0525	0.0031	0.002	0.2298	0.0033	0.675	
0.0579	0.003	0.002	0.2776	0.0035	0.6296	
0.0825	0.003	0.002	0.3488	0.0038	0.5637	
0.1272	0.0027	0.002	0.4225	0.0042	0.4875	
0.1814	0.0026	0.002	0.5138	0.0045	0.4076	
0.3398	0.004	0.002	0.6414	0.0032	0.2835	

System: 2-methylnaphthalene + 1,2-ethanediol + 1H-indole; phases: Liquid mixture 2, Liquid mixture 1
Fixed: Temperature, K = 308.15
Fixed: Pressure, kPa = 101
Property: Mole fraction of 1,2-ethanediol (Liquid mixture 2); method: Chromatography
Property: Mole fraction of 1H-indole (Liquid mixture 1); method: Chromatography
Property: Mole fraction of 1,2-ethanediol (Liquid mixture 1); method: Chromatography
Mole fraction of 1H-indole	Mole fraction of 1,2-ethanediol	uncertainty	Mole fraction of 1H-indole	uncertainty	Mole fraction of 1,2-ethanediol	uncertainty
0	0.0009	0.0009	0		0.9657	
0.021	0.0012	0.0012	0.0305	0.0028	0.9349	
0.0681	0.0053	0.002	0.0856	0.0028	0.8791	
0.1236	0.0028	0.002	0.1349	0.0029	0.8251	
0.1968	0.0043	0.002	0.1939	0.0031	0.7638	
0.2677	0.0075	0.002	0.24	0.0032	0.7134	
0.3492	0.0123	0.002	0.2919	0.0034	0.6546	
0.4366	0.016	0.002	0.32	0.0036	0.6288	
0.496	0.0217	0.002	0.3548	0.0037	0.5932	
0.5525	0.0274	0.002	0.3849	0.004	0.5616	
0.6002	0.0343	0.002	0.4041	0.004	0.5463	
0.6343	0.0418	0.0021	0.4226	0.0041	0.5252	
0.6659	0.0477	0.0021	0.438	0.0044	0.5116	
0.6902	0.0516	0.002	0.4452	0.0037	0.5062	

System: 2-methylnaphthalene + 1H-indole + 2-aminoethan-1-ol; phases: Liquid mixture 2, Liquid mixture 1
Fixed: Temperature, K = 308.15
Fixed: Pressure, kPa = 101
Property: Mole fraction of 2-aminoethan-1-ol (Liquid mixture 2); method: Chromatography
Property: Mole fraction of 1H-indole (Liquid mixture 1); method: Chromatography
Property: Mole fraction of 2-aminoethan-1-ol (Liquid mixture 1); method: Chromatography
Mole fraction of 1H-indole	Mole fraction of 2-aminoethan-1-ol	uncertainty	Mole fraction of 1H-indole	uncertainty	Mole fraction of 2-aminoethan-1-ol	uncertainty
0	0.0005	0.0005	0		0.7105	
0.0117	0.0015	0.0015	0.1818	0.0032	0.5483	
0.0216	0.0025	0.002	0.2449	0.0033	0.4873	
0.0387	0.007	0.0021	0.3639	0.0038	0.3647	
0.053	0.011	0.002	0.3995	0.0039	0.3286	
0.0775	0.0148	0.002	0.4581	0.0041	0.2641	
0.116	0.0185	0.002	0.4947	0.0042	0.201	
0.1723	0.0223	0.002	0.5074	0.0041	0.1772	
0.3372	0.026	0.002	0.5192	0.004	0.1432	
0.4125	0.0297	0.002	0.534	0.0039	0.0934	
