Measured thermophysical data. Measurements and correlation of vapour liquid equilibria of 2-butanone and  hydrocarbons binary systems at two different pressures
Source: Fluid Phase Equilib., 2011, 10.1016/j.fluid.2011.05.004
Compound 1: hexane, C6H14, InChI=1S/C6H14/c1-3-5-6-4-2/h3-6H2,1-2H3, purity 99.5%
Compound 2: butanone, C4H8O, InChI=1S/C4H8O/c1-3-4(2)5/h3H2,1-2H3, purity 99.7%
Compound 3: heptane, C7H16, InChI=1S/C7H16/c1-3-5-7-6-4-2/h3-7H2,1-2H3, purity 99%
Compound 4: 2,2,4-trimethylpentane, C8H18, InChI=1S/C8H18/c1-7(2)6-8(3,4)5/h7H,6H2,1-5H3, purity 99.8%

System: hexane; phases: Liquid, Gas
Property: Vapor or sublimation pressure, kPa (Liquid); method: Chromatography
Temperature, K	Vapor or sublimation pressure, kPa	uncertainty
307.66	30	
341.79	101.3	

System: butanone; phases: Liquid, Gas
Property: Vapor or sublimation pressure, kPa (Liquid); method: Chromatography
Temperature, K	Vapor or sublimation pressure, kPa	uncertainty
309.65	20	
319.95	30	
352.68	101.3	

System: heptane; phases: Liquid, Gas
Property: Vapor or sublimation pressure, kPa (Liquid); method: Chromatography
Temperature, K	Vapor or sublimation pressure, kPa	uncertainty
324.56	20	
371.35	101.3	

System: 2,2,4-trimethylpentane; phases: Liquid, Gas
Property: Vapor or sublimation pressure, kPa (Liquid); method: Chromatography
Temperature, K	Vapor or sublimation pressure, kPa	uncertainty
323.65	20	
372.33	101.3	

System: butanone + hexane; phases: Liquid, Gas
Property: Azeotropic pressure, kPa (Liquid); method: By X=Y
Mole fraction of butanone	Azeotropic pressure, kPa	uncertainty
0.298	30	0.4
0.321	101.3	0.8

System: butanone + hexane; phases: Liquid, Gas
Property: Azeotropic temperature, K (Liquid); method: By X=Y
Mole fraction of butanone	Azeotropic temperature, K	uncertainty
0.298	303.9	0.3
0.321	337.4	0.3

System: butanone + hexane; phases: Liquid, Gas
Property: Mole fraction of butanone (Liquid); method: Chromatography
Pressure, kPa	Temperature, K	Mole fraction of butanone	uncertainty
30	303.83	0.303	0.005
30	303.91	0.384	0.005
30	303.93	0.222	0.005
30	304.08	0.463	0.005
30	304.38	0.142	0.005
30	304.43	0.541	0.006
30	304.94	0.614	0.006
30	305.4	0.069	0.006
30	305.54	0.683	0.006
30	306.78	0.761	0.007
30	307.66	0	
30	308.23	0.83	0.006
30	310.48	0.892	0.005
30	313.8	0.948	0.004
30	317.76	0.99	0.004
30	319.95	1	
101.3	337.38	0.372	0.03
101.3	337.42	0.294	0.077
101.3	337.59	0.447	0.034
101.3	337.64	0.217	0.04
101.3	337.95	0.526	0.014
101.3	338.3	0.14	0.005
101.3	338.54	0.601	0.034
101.3	339.36	0.672	0.033
101.3	339.6	0.067	0.022
101.3	340.45	0.738	0.009
101.3	341.79	0	
101.3	341.97	0.803	0.197
101.3	344.15	0.868	0.004
101.3	347.18	0.929	0.004
101.3	352.4	0.998	0.002
101.3	352.68	1	

System: butanone + hexane; phases: Gas, Liquid
Property: Mole fraction of butanone (Gas); method: Chromatography
Pressure, kPa	Temperature, K	Mole fraction of butanone	uncertainty
30	303.83	0.304	0.005
30	303.91	0.335	0.005
30	303.93	0.267	0.005
30	304.08	0.364	0.005
30	304.38	0.217	0.005
30	304.43	0.392	0.006
30	304.94	0.42	0.006
30	305.4	0.132	0.005
30	305.54	0.461	0.006
30	306.78	0.505	0.007
30	307.66	0	
30	308.23	0.566	0.007
30	310.48	0.652	0.005
30	313.8	0.782	0.005
30	317.76	0.944	0.004
30	319.95	1	
101.3	337.38	0.348	0.014
101.3	337.42	0.309	0.036
101.3	337.59	0.381	0.016
101.3	337.64	0.265	0.019
101.3	337.95	0.416	0.011
101.3	338.3	0.208	0.004
101.3	338.54	0.45	0.019
101.3	339.36	0.489	0.021
101.3	339.6	0.124	0.014
101.3	340.45	0.535	0.011
101.3	341.79	0	
101.3	341.97	0.588	0.32
101.3	344.15	0.667	0.005
101.3	347.18	0.779	0.005
101.3	352.4	0.991	0.004
101.3	352.68	1	

System: butanone + heptane; phases: Liquid, Gas
Property: Azeotropic pressure, kPa (Liquid); method: By X=Y
Mole fraction of butanone	Azeotropic pressure, kPa	uncertainty
0.763	20	0.3
0.774	101.3	0.8

System: butanone + heptane; phases: Liquid, Gas
Property: Azeotropic temperature, K (Liquid); method: By X=Y
Mole fraction of butanone	Azeotropic temperature, K	uncertainty
0.763	306.7	0.3
0.774	350.4	0.3

System: butanone + heptane; phases: Liquid, Gas
Property: Mole fraction of butanone (Liquid); method: Chromatography
Pressure, kPa	Temperature, K	Mole fraction of butanone	uncertainty
20	306.59	0.772	0.004
20	306.72	0.682	0.005
20	306.92	0.864	0.004
20	306.98	0.594	0.005
20	307.36	0.503	0.006
20	307.75	0.414	0.005
20	308.1	0.946	0.004
20	308.37	0.341	0.005
20	308.75	0.3	0.005
20	309.65	1	
20	310.2	0.214	0.004
20	311.75	0.164	0.004
20	314.4	0.101	0.004
20	318.55	0.048	0.004
20	321.45	0.022	0.004
20	324.56	0	
101.3	350.35	0.77	0.02
101.3	350.68	0.683	0.009
101.3	350.75	0.578	0.005
101.3	350.85	0.871	0.073
101.3	351.45	0.492	0.006
101.3	351.72	0.956	0.018
101.3	352.29	0.413	0.006
101.3	352.68	1	
101.3	353.43	0.33	0.023
101.3	354.99	0.251	0.006
101.3	357.61	0.175	0.005
101.3	359.31	0.136	0.004
101.3	365.25	0.056	0.004
101.3	369.05	0.018	0.004
101.3	371.35	0	

System: butanone + heptane; phases: Gas, Liquid
Property: Mole fraction of butanone (Gas); method: Chromatography
Pressure, kPa	Temperature, K	Mole fraction of butanone	uncertainty
20	306.59	0.76	0.005
20	306.72	0.721	0.005
20	306.92	0.825	0.004
20	306.98	0.689	0.005
20	307.36	0.658	0.005
20	307.75	0.622	0.006
20	308.1	0.908	0.004
20	308.37	0.597	0.006
20	308.75	0.584	0.006
20	309.65	1	
20	310.2	0.542	0.006
20	311.75	0.493	0.006
20	314.4	0.403	0.006
20	318.55	0.237	0.005
20	321.45	0.127	0.004
20	324.56	0	
101.3	350.35	0.77	0.011
101.3	350.68	0.727	0.007
101.3	350.75	0.675	0.005
101.3	350.85	0.84	0.043
101.3	351.45	0.639	0.005
101.3	351.72	0.928	0.012
101.3	352.29	0.599	0.006
101.3	352.68	1	
101.3	353.43	0.557	0.017
101.3	354.99	0.498	0.007
101.3	357.61	0.419	0.007
101.3	359.31	0.377	0.006
101.3	365.25	0.213	0.006
101.3	369.05	0.081	0.006
101.3	371.35	0	

System: butanone + 2,2,4-trimethylpentane; phases: Liquid, Gas
Property: Azeotropic pressure, kPa (Liquid); method: By X=Y
Mole fraction of butanone	Azeotropic pressure, kPa	uncertainty
0.774	20	0.3
0.778	101.3	0.8

System: butanone + 2,2,4-trimethylpentane; phases: Liquid, Gas
Property: Azeotropic temperature, K (Liquid); method: By X=Y
Mole fraction of butanone	Azeotropic temperature, K	uncertainty
0.774	307.1	0.3
0.778	350.5	0.3

System: butanone + 2,2,4-trimethylpentane; phases: Gas, Liquid
Property: Mole fraction of butanone (Gas); method: Chromatography
Pressure, kPa	Temperature, K	Mole fraction of butanone	uncertainty
20	306.97	0.739	0.005
20	307.03	0.71	0.005
20	307.16	0.684	0.005
20	307.42	0.656	0.005
20	307.55	0.828	0.004
20	307.7	0.637	0.005
20	308.16	0.603	0.005
20	308.21	0.895	0.004
20	308.93	0.576	0.006
20	309.23	0.979	0.004
20	309.65	1	
20	309.75	0.535	0.006
20	312.33	0.436	0.006
20	315.65	0.311	0.005
20	323.65	0	
20	307.16	0.78	0.005
101.3	350.44	0.758	0.018
101.3	350.5	0.797	0.009
101.3	350.6	0.722	0.016
101.3	350.83	0.844	0.007
101.3	351	0.689	0.012
101.3	351.46	0.906	0.094
101.3	351.57	0.659	0.162
101.3	352.34	0.624	0.017
101.3	352.38	0.978	0.022
101.3	352.68	1	
101.3	353.42	0.587	0.016
101.3	354.95	0.531	0.007
101.3	357.33	0.459	0.007
101.3	361.11	0.358	0.006
101.3	365.99	0.223	0.006
101.3	372.33	0	

System: butanone + 2,2,4-trimethylpentane; phases: Liquid, Gas
Property: Mole fraction of butanone (Liquid); method: Chromatography
Pressure, kPa	Temperature, K	Mole fraction of butanone	uncertainty
20	306.97	0.743	0.005
20	307.03	0.673	0.005
20	307.16	0.602	0.005
20	307.42	0.532	0.005
20	307.55	0.881	0.004
20	307.7	0.463	0.005
20	308.16	0.391	0.005
20	308.21	0.938	0.004
20	308.93	0.322	0.005
20	309.23	0.99	0.004
20	309.65	1	
20	309.75	0.247	0.004
20	312.33	0.148	0.004
20	315.65	0.079	0.004
20	323.65	0	
20	307.16	0.813	0.004
101.3	350.44	0.745	0.033
101.3	350.5	0.81	0.012
101.3	350.6	0.673	0.024
101.3	350.83	0.874	0.01
101.3	351	0.606	0.015
101.3	351.46	0.934	0.066
101.3	351.57	0.531	0.263
101.3	352.34	0.455	0.023
101.3	352.38	0.986	0.014
101.3	352.68	1	
101.3	353.42	0.379	0.023
101.3	354.95	0.295	0.006
101.3	357.33	0.209	0.005
101.3	361.11	0.132	0.005
101.3	365.99	0.061	0.004
101.3	372.33	0	
