Measured thermophysical data. Liquid-liquid equilibrium data and thermophysical properties for ternary systems composed of water, acetic acid and different solvents
Source: Fluid Phase Equilib., 2019, 10.1016/j.fluid.2018.10.021
Compound 1: water, H2O, InChI=1S/H2O/h1H2
Compound 2: acetic acid, C2H4O2, InChI=1S/C2H4O2/c1-2(3)4/h1H3,(H,3,4), purity 99.7%
Compound 3: butan-1-ol, C4H10O, InChI=1S/C4H10O/c1-2-3-4-5/h5H,2-4H2,1H3, purity 99.5%
Compound 4: 3-methylbutan-1-ol, C5H12O, InChI=1S/C5H12O/c1-5(2)3-4-6/h5-6H,3-4H2,1-2H3, purity 98.5%
Compound 5: 2-methoxy-2-methylpropane, C5H12O, InChI=1S/C5H12O/c1-5(2,3)6-4/h1-4H3, purity 99.8%
Compound 6: 4-methylpentan-2-one, C6H12O, InChI=1S/C6H12O/c1-5(2)4-6(3)7/h5H,4H2,1-3H3, purity 98.5%
Compound 7: 2,6-dimethyl-4-heptanone, C9H18O, InChI=1S/C9H18O/c1-7(2)5-9(10)6-8(3)4/h7-8H,5-6H2,1-4H3, purity 95%
Compound 8: 3-methylbutyl propanoate, C8H16O2, InChI=1S/C8H16O2/c1-4-8(9)10-6-5-7(2)3/h7H,4-6H2,1-3H3, purity 98%

System: water; phases: Liquid
Fixed: Pressure, kPa = 95
Property: Mass density, kg/m3 (Liquid); method: Vibrating tube method
Temperature, K	Mass density, kg/m3	uncertainty
293.2	998.397	0.903
313.2	992.201	0.903

System: water; phases: Liquid
Fixed: Pressure, kPa = 95
Property: Refractive index (Na D-line) (Liquid); method: Standard Abbe refractometry
Temperature, K	Refractive index (Na D-line)	uncertainty
293.2	1.333	0.001
313.2	1.3306	0.001

System: water; phases: Liquid
Fixed: Pressure, kPa = 95
Property: Speed of sound, m/s (Liquid); method: Single path-length method
Temperature, K	Speed of sound, m/s	uncertainty
293.2	1482.79	3.97
313.2	1529.34	3.97

System: acetic acid; phases: Liquid
Fixed: Pressure, kPa = 95
Property: Mass density, kg/m3 (Liquid); method: Vibrating tube method
Temperature, K	Mass density, kg/m3	uncertainty
293.2	1049.799	0.928
313.2	1028.134	0.927

System: acetic acid; phases: Liquid
Fixed: Pressure, kPa = 95
Property: Refractive index (Na D-line) (Liquid); method: Standard Abbe refractometry
Temperature, K	Refractive index (Na D-line)	uncertainty
293.2	1.3724	0.001
313.2	1.3644	0.001

System: acetic acid; phases: Liquid
Fixed: Pressure, kPa = 95
Property: Speed of sound, m/s (Liquid); method: Single path-length method
Temperature, K	Speed of sound, m/s	uncertainty
293.2	1161.15	4.01
313.2	1093.09	4.01

System: butan-1-ol; phases: Liquid
Fixed: Pressure, kPa = 95
Property: Mass density, kg/m3 (Liquid); method: Vibrating tube method
Temperature, K	Mass density, kg/m3	uncertainty
293.2	809.375	0.922
313.2	793.785	0.923

System: butan-1-ol; phases: Liquid
Fixed: Pressure, kPa = 95
Property: Refractive index (Na D-line) (Liquid); method: Standard Abbe refractometry
Temperature, K	Refractive index (Na D-line)	uncertainty
293.2	1.3991	0.001
313.2	1.391	0.001

System: butan-1-ol; phases: Liquid
Fixed: Pressure, kPa = 95
Property: Speed of sound, m/s (Liquid); method: Single path-length method
Temperature, K	Speed of sound, m/s	uncertainty
293.2	1260.17	4.03
313.2	1192.99	4.03

System: 3-methylbutan-1-ol; phases: Liquid
Fixed: Pressure, kPa = 95
Property: Mass density, kg/m3 (Liquid); method: Vibrating tube method
Temperature, K	Mass density, kg/m3	uncertainty
293.2	804.433	0.976
313.2	794.426	0.975

System: 3-methylbutan-1-ol; phases: Liquid
Fixed: Pressure, kPa = 95
Property: Refractive index (Na D-line) (Liquid); method: Standard Abbe refractometry
Temperature, K	Refractive index (Na D-line)	uncertainty
293.2	1.4074	0.0011
313.2	1.3991	0.0011

System: 3-methylbutan-1-ol; phases: Liquid
Fixed: Pressure, kPa = 95
Property: Speed of sound, m/s (Liquid); method: Single path-length method
Temperature, K	Speed of sound, m/s	uncertainty
293.2	1253.18	4.27
313.2	1185.89	4.27

System: 2-methoxy-2-methylpropane; phases: Liquid
Fixed: Pressure, kPa = 95
Property: Mass density, kg/m3 (Liquid); method: Vibrating tube method
Temperature, K	Mass density, kg/m3	uncertainty
293.2	739.453	0.933
313.2	718.083	0.934

System: 2-methoxy-2-methylpropane; phases: Liquid
Fixed: Pressure, kPa = 95
Property: Refractive index (Na D-line) (Liquid); method: Standard Abbe refractometry
Temperature, K	Refractive index (Na D-line)	uncertainty
293.2	1.369	0.001
313.2	1.3579	0.001

System: 2-methoxy-2-methylpropane; phases: Liquid
Fixed: Pressure, kPa = 95
Property: Speed of sound, m/s (Liquid); method: Single path-length method
Temperature, K	Speed of sound, m/s	uncertainty
293.2	1063.4	4.06
313.2	968.17	4.06

System: 4-methylpentan-2-one; phases: Liquid
Fixed: Pressure, kPa = 95
Property: Mass density, kg/m3 (Liquid); method: Vibrating tube method
Temperature, K	Mass density, kg/m3	uncertainty
293.2	799.608	0.988
313.2	781.114	0.986

System: 4-methylpentan-2-one; phases: Liquid
Fixed: Pressure, kPa = 95
Property: Refractive index (Na D-line) (Liquid); method: Standard Abbe refractometry
Temperature, K	Refractive index (Na D-line)	uncertainty
293.2	1.396	0.0011
313.2	1.3863	0.0011

System: 4-methylpentan-2-one; phases: Liquid
Fixed: Pressure, kPa = 95
Property: Speed of sound, m/s (Liquid); method: Single path-length method
Temperature, K	Speed of sound, m/s	uncertainty
293.2	1211.34	4.29
313.2	1131.01	4.29

System: 2,6-dimethyl-4-heptanone; phases: Liquid
Fixed: Pressure, kPa = 95
Property: Mass density, kg/m3 (Liquid); method: Vibrating tube method
Temperature, K	Mass density, kg/m3	uncertainty
293.2	809.037	3.621
313.2	792.503	3.485

System: 2,6-dimethyl-4-heptanone; phases: Liquid
Fixed: Pressure, kPa = 95
Property: Refractive index (Na D-line) (Liquid); method: Standard Abbe refractometry
Temperature, K	Refractive index (Na D-line)	uncertainty
293.2	1.414	0.0014
313.2	1.4051	0.0014

System: 2,6-dimethyl-4-heptanone; phases: Liquid
Fixed: Pressure, kPa = 95
Property: Speed of sound, m/s (Liquid); method: Single path-length method
Temperature, K	Speed of sound, m/s	uncertainty
293.2	1246.91	6.41
313.2	1170.53	6.41

System: 3-methylbutyl propanoate; phases: Liquid
Fixed: Pressure, kPa = 95
Property: Mass density, kg/m3 (Liquid); method: Vibrating tube method
Temperature, K	Mass density, kg/m3	uncertainty
293.2	868.555	1.116
313.2	848.984	1.106

System: 3-methylbutyl propanoate; phases: Liquid
Fixed: Pressure, kPa = 95
Property: Refractive index (Na D-line) (Liquid); method: Standard Abbe refractometry
Temperature, K	Refractive index (Na D-line)	uncertainty
293.2	1.4061	0.0011
313.2	1.3968	0.0011

System: 3-methylbutyl propanoate; phases: Liquid
Fixed: Pressure, kPa = 95
Property: Speed of sound, m/s (Liquid); method: Single path-length method
Temperature, K	Speed of sound, m/s	uncertainty
293.2	1244.89	4.53
313.2	1146.23	4.53

System: water + acetic acid + butan-1-ol; phases: Liquid mixture 1, Liquid mixture 2
Fixed: Pressure, kPa = 95
Property: Mole fraction of acetic acid (Liquid mixture 1); method: Titration method
Temperature, K	Mole fraction of water	Mole fraction of acetic acid	uncertainty
293.2	0.5064	0	
293.2	0.5362	0.0278	0.0091
293.2	0.5603	0.0497	0.0073
293.2	0.6285	0.0739	0.0069
293.2	0.7013	0.0823	0.0068
293.2	0.7896	0.0748	0.0068
293.2	0.8379	0.0661	0.0068
293.2	0.8954	0.0528	0.0069
293.2	0.928	0.0396	0.0074
293.2	0.9547	0.0218	0.0084
293.2	0.9798	0	
313.2	0.5304	0	
313.2	0.5697	0.0307	0.0083
313.2	0.5925	0.0463	0.0071
313.2	0.6593	0.0692	0.0068
313.2	0.7296	0.0745	0.0067
313.2	0.7663	0.072	0.0068
313.2	0.8009	0.0668	0.0068
313.2	0.8741	0.0538	0.0068
313.2	0.9267	0.0387	0.0069
313.2	0.9478	0.0273	0.0077
313.2	0.9648	0.0154	0.0084
313.2	0.9829	0	

System: water + acetic acid + butan-1-ol; phases: Liquid mixture 1, Liquid mixture 2
Fixed: Pressure, kPa = 95
Property: Mass density, kg/m3 (Liquid mixture 1); method: Vibrating tube method
Temperature, K	Mole fraction of water	Mass density, kg/m3	uncertainty
293.2	0.5064	846.409	27.529
293.2	0.5362	857.712	27.479
293.2	0.5603	862.217	27.539
293.2	0.6285	892.724	27.531
293.2	0.7013	916.132	27.491
293.2	0.7896	943.915	27.496
293.2	0.8379	960.824	27.531
293.2	0.8954	984.207	27.523
293.2	0.928	993.68	27.426
293.2	0.9547	994.076	27.415
293.2	0.9798	987.014	27.471
313.2	0.5304	833.784	27.534
313.2	0.5697	848.984	27.536
313.2	0.5925	858.013	27.523
313.2	0.6593	882.34	27.504
313.2	0.7296	904.503	27.496
313.2	0.7663	917.44	27.431
313.2	0.8009	917.315	27.524
313.2	0.8741	954.638	27.624
313.2	0.9267	980.205	27.562
313.2	0.9478	984.892	27.415
313.2	0.9648	984.937	27.409
313.2	0.9829	981.412	27.434

System: water + acetic acid + butan-1-ol; phases: Liquid mixture 1, Liquid mixture 2
Fixed: Pressure, kPa = 95
Property: Refractive index (Na D-line) (Liquid mixture 1); method: Standard Abbe refractometry
Temperature, K	Mole fraction of water	Refractive index (Na D-line)	uncertainty
293.2	0.5064	1.3907	0.0322
293.2	0.5362	1.3889	0.0322
293.2	0.5603	1.3907	0.0322
293.2	0.6285	1.3833	0.0322
293.2	0.7013	1.3784	0.0322
293.2	0.7896	1.3637	0.0322
293.2	0.8379	1.3654	0.0322
293.2	0.8954	1.3575	0.0322
293.2	0.928	1.3515	0.0322
293.2	0.9547	1.3462	0.0322
293.2	0.9798	1.3413	0.0322
313.2	0.5304	1.3824	0.0322
313.2	0.5697	1.3805	0.0322
313.2	0.5925	1.3792	0.0322
313.2	0.6593	1.3756	0.0322
313.2	0.7296	1.3492	0.0322
313.2	0.7663	1.3539	0.0322
313.2	0.8009	1.3513	0.0322
313.2	0.8741	1.3525	0.0322
313.2	0.9267	1.3471	0.0322
313.2	0.9478	1.3435	0.0322
313.2	0.9648	1.3396	0.0322
313.2	0.9829	1.3366	0.0322

System: water + acetic acid + butan-1-ol; phases: Liquid mixture 1, Liquid mixture 2
Fixed: Pressure, kPa = 95
Property: Speed of sound, m/s (Liquid mixture 1); method: Single path-length method
Temperature, K	Mole fraction of water	Speed of sound, m/s	uncertainty
293.2	0.5064	1314.68	31.64
293.2	0.5362	1320.64	31.63
293.2	0.5603	1323.52	31.66
293.2	0.6285	1343.3	31.68
293.2	0.7013	1367.28	31.73
293.2	0.7896	1406.91	31.82
293.2	0.8379	1438.88	32.14
293.2	0.8954	1494.77	32.36
293.2	0.928	1528.52	32.21
293.2	0.9547	1547.22	31.73
293.2	0.9798	1549.53	31.61
313.2	0.5304	1259.34	31.66
313.2	0.5697	1269.46	31.65
313.2	0.5925	1274.68	31.69
313.2	0.6593	1298.19	31.71
313.2	0.7296	1323.76	31.73
313.2	0.7663	1340.98	31.66
313.2	0.8009	1341.48	32.72
313.2	0.8741	1462.55	33.1
313.2	0.9267	1516.1	32.44
313.2	0.9478	1540.35	32.43
313.2	0.9648	1555.5	31.91
313.2	0.9829	1562.51	31.72

System: water + acetic acid + butan-1-ol; phases: Liquid mixture 2, Liquid mixture 1
Fixed: Pressure, kPa = 95
Property: Mole fraction of acetic acid (Liquid mixture 2); method: Density calibration data
Property: Mole fraction of acetic acid (Liquid mixture 1); method: Density calibration data
Property: Mole fraction of water (Liquid mixture 1); method: Density calibration data
Temperature, K	Mole fraction of water	Mole fraction of acetic acid	uncertainty	Mole fraction of acetic acid	uncertainty	Mole fraction of water	uncertainty
293.2	0.9625	0.0158	0.0158	0.0542	0.0542	0.5705	
293.2	0.9485	0.0259	0.0259	0.0698	0.0698	0.6076	
293.2	0.9337	0.0351	0.0351	0.0786	0.0786	0.6519	
313.2	0.9701	0.0115	0.0115	0.0236	0.0236	0.5572	
313.2	0.965	0.0151	0.0151	0.0463	0.0463	0.5921	
313.2	0.9551	0.0216	0.0216	0.0715	0.0715	0.6855	
313.2	0.9395	0.0306	0.0306	0.0731	0.0731	0.7199	

System: water + acetic acid + butan-1-ol; phases: Liquid mixture 1, Liquid mixture 2
Fixed: Pressure, kPa = 95
Property: Mass density, kg/m3 (Liquid mixture 1); method: Vibrating tube method
Temperature, K	Mole fraction of water	Mass density, kg/m3	uncertainty
293.2	0.5705	869.833	15.684
293.2	0.6076	883.627	15.716
293.2	0.6519	899.498	15.754
313.2	0.5572	844.584	15.626
313.2	0.5921	856.962	15.653
313.2	0.6855	872.064	15.689
313.2	0.7199	890.5	15.731

System: water + acetic acid + butan-1-ol; phases: Liquid mixture 2, Liquid mixture 1
Fixed: Pressure, kPa = 95
Property: Mass density, kg/m3 (Liquid mixture 2); method: Vibrating tube method
Temperature, K	Mole fraction of water	Mass density, kg/m3	uncertainty
293.2	0.9625	992.709	15.106
293.2	0.9485	994.732	15.511
293.2	0.9337	994.738	15.989
313.2	0.9701	982.487	14.932
313.2	0.965	984.773	15.041
313.2	0.9551	985.513	15.294
313.2	0.9395	983.895	15.804

System: water + acetic acid + butan-1-ol; phases: Liquid mixture 1, Liquid mixture 2
Fixed: Pressure, kPa = 95
Property: Refractive index (Na D-line) (Liquid mixture 1); method: Standard Abbe refractometry
Temperature, K	Mole fraction of water	Refractive index (Na D-line)	uncertainty
293.2	0.5705	1.3872	0.0024
293.2	0.6076	1.3849	0.0024
293.2	0.6519	1.382	0.0024
313.2	0.5572	1.3808	0.0024
313.2	0.5921	1.3793	0.0024
313.2	0.6855	1.3434	0.0024
313.2	0.7199	1.3467	0.0025

System: water + acetic acid + butan-1-ol; phases: Liquid mixture 2, Liquid mixture 1
Fixed: Pressure, kPa = 95
Property: Refractive index (Na D-line) (Liquid mixture 2); method: Standard Abbe refractometry
Temperature, K	Mole fraction of water	Refractive index (Na D-line)	uncertainty
293.2	0.9625	1.3449	0.0024
293.2	0.9485	1.3473	0.0024
293.2	0.9337	1.3502	0.0024
313.2	0.9701	1.3387	0.0024
313.2	0.965	1.3404	0.0024
313.2	0.9551	1.3427	0.0024
313.2	0.9395	1.3456	0.0024

System: water + acetic acid + butan-1-ol; phases: Liquid mixture 1, Liquid mixture 2
Fixed: Pressure, kPa = 95
Property: Speed of sound, m/s (Liquid mixture 1); method: Single path-length method
Temperature, K	Mole fraction of water	Speed of sound, m/s	uncertainty
293.2	0.5705	1326.44	3.81
293.2	0.6076	1335.71	3.81
293.2	0.6519	1349.08	3.81
313.2	0.5572	1263.86	3.81
313.2	0.5921	1273.46	3.79
313.2	0.6855	1286.22	3.81
313.2	0.7199	1299.55	3.76

System: water + acetic acid + butan-1-ol; phases: Liquid mixture 2, Liquid mixture 1
Fixed: Pressure, kPa = 95
Property: Speed of sound, m/s (Liquid mixture 2); method: Single path-length method
Temperature, K	Mole fraction of water	Speed of sound, m/s	uncertainty
293.2	0.9625	1549.23	3.76
293.2	0.9485	1544.26	3.76
293.2	0.9337	1534.02	3.76
313.2	0.9701	1558.46	3.76
313.2	0.965	1554.23	3.76
313.2	0.9551	1544.16	3.76
313.2	0.9395	1527.23	3.76

System: water + acetic acid + 3-methylbutan-1-ol; phases: Liquid mixture 1, Liquid mixture 2
Fixed: Pressure, kPa = 95
Property: Mole fraction of acetic acid (Liquid mixture 1); method: Titration method
Temperature, K	Mole fraction of water	Mole fraction of acetic acid	uncertainty
293.2	0.3283	0	
293.2	0.3926	0.0842	0.0105
293.2	0.4452	0.1334	0.0088
293.2	0.5232	0.1745	0.0085
293.2	0.5806	0.1814	0.0082
293.2	0.6818	0.173	0.0081
293.2	0.7282	0.1608	0.0081
293.2	0.7931	0.141	0.0079
293.2	0.8341	0.1259	0.0079
293.2	0.8734	0.1059	0.0083
293.2	0.9062	0.0817	0.0088
293.2	0.9349	0.0563	0.0092
293.2	0.9651	0.0283	0.0093
293.2	0.9941	0	
313.2	0.3461	0	
313.2	0.4191	0.0767	0.0099
313.2	0.4639	0.1219	0.0083
313.2	0.5624	0.1628	0.0081
313.2	0.6527	0.1661	0.0079
313.2	0.7031	0.1575	0.0079
313.2	0.7586	0.143	0.0078
313.2	0.8231	0.1226	0.0077
313.2	0.8839	0.0954	0.0079
313.2	0.9218	0.0676	0.0088
313.2	0.9576	0.035	0.0092
313.2	0.995	0	

System: water + acetic acid + 3-methylbutan-1-ol; phases: Liquid mixture 1, Liquid mixture 2
Fixed: Pressure, kPa = 95
Property: Mass density, kg/m3 (Liquid mixture 1); method: Vibrating tube method
Temperature, K	Mole fraction of water	Mass density, kg/m3	uncertainty
293.2	0.3283	825.92	27.516
293.2	0.3926	849.002	27.522
293.2	0.4452	868.893	27.524
293.2	0.5232	897.466	27.506
293.2	0.5806	915.183	27.491
293.2	0.6818	947.585	27.492
293.2	0.7282	962.304	27.509
293.2	0.7931	986.083	27.533
293.2	0.8341	1003.098	27.526
293.2	0.8734	1016.044	27.443
293.2	0.9062	1018.588	27.401
293.2	0.9349	1014.34	27.441
293.2	0.9651	1006.018	27.504
293.2	0.9941	994.103	27.507
313.2	0.3461	811.658	27.481
313.2	0.4191	833.527	27.505
313.2	0.4639	852.411	27.519
313.2	0.5624	886.125	27.503
313.2	0.6527	915.978	27.496
313.2	0.7031	931.753	27.511
313.2	0.7586	953.008	27.506
313.2	0.8231	972.947	27.529
313.2	0.8839	1000.572	27.5
313.2	0.9218	1004.613	27.401
313.2	0.9576	999.072	27.444
313.2	0.995	988.406	27.437

System: water + acetic acid + 3-methylbutan-1-ol; phases: Liquid mixture 1, Liquid mixture 2
Fixed: Pressure, kPa = 95
Property: Refractive index (Na D-line) (Liquid mixture 1); method: Standard Abbe refractometry
Temperature, K	Mole fraction of water	Refractive index (Na D-line)	uncertainty
293.2	0.3283	1.403	0.0322
293.2	0.3926	1.3992	0.0322
293.2	0.4452	1.396	0.0322
293.2	0.5232	1.3911	0.0322
293.2	0.5806	1.3878	0.0322
293.2	0.6818	1.3807	0.0322
293.2	0.7282	1.3766	0.0322
293.2	0.7931	1.3699	0.0322
293.2	0.8341	1.3644	0.0322
293.2	0.8734	1.3585	0.0322
293.2	0.9062	1.3532	0.0322
293.2	0.9349	1.3482	0.0322
293.2	0.9651	1.3424	0.0322
293.2	0.9941	1.336	0.0322
313.2	0.3461	1.3946	0.0322
313.2	0.4191	1.3916	0.0322
313.2	0.4639	1.388	0.0322
313.2	0.5624	1.3825	0.0322
313.2	0.6527	1.3662	0.0322
313.2	0.7031	1.3565	0.0322
313.2	0.7586	1.3616	0.0322
313.2	0.8231	1.3587	0.0322
313.2	0.8839	1.3522	0.0322
313.2	0.9218	1.3462	0.0322
313.2	0.9576	1.34	0.0322
313.2	0.995	1.3325	0.0322

System: water + acetic acid + 3-methylbutan-1-ol; phases: Liquid mixture 1, Liquid mixture 2
Fixed: Pressure, kPa = 95
Property: Speed of sound, m/s (Liquid mixture 1); method: Single path-length method
Temperature, K	Mole fraction of water	Speed of sound, m/s	uncertainty
293.2	0.3283	1277.6	31.62
293.2	0.3926	1283	31.62
293.2	0.4452	1291.05	31.64
293.2	0.5232	1307.85	31.66
293.2	0.5806	1323.1	31.7
293.2	0.6818	1359.33	31.73
293.2	0.7282	1381.71	31.91
293.2	0.7931	1427.27	32.11
293.2	0.8341	1468.18	32.42
293.2	0.8734	1509.78	32.24
293.2	0.9062	1533.05	31.8
293.2	0.9349	1540.21	31.61
293.2	0.9651	1533.04	31.81
293.2	0.9941	1509.69	31.96
313.2	0.3461	1214.61	31.62
313.2	0.4191	1222.28	31.63
313.2	0.4639	1233.19	31.66
313.2	0.5624	1257.07	31.68
313.2	0.6527	1287.48	31.67
313.2	0.7031	1294.9	31.71
313.2	0.7586	1323.88	32.78
313.2	0.8231	1441.26	33.06
313.2	0.8839	1496.75	32.28
313.2	0.9218	1533.7	31.99
313.2	0.9576	1548.47	31.62
313.2	0.995	1543.86	31.61

System: water + acetic acid + 3-methylbutan-1-ol; phases: Liquid mixture 2, Liquid mixture 1
Fixed: Pressure, kPa = 95
Property: Mole fraction of acetic acid (Liquid mixture 2); method: Density calibration data
Property: Mole fraction of acetic acid (Liquid mixture 1); method: Density calibration data
Property: Mole fraction of water (Liquid mixture 1); method: Density calibration data
Temperature, K	Mole fraction of water	Mole fraction of acetic acid	uncertainty	Mole fraction of acetic acid	uncertainty	Mole fraction of water	uncertainty
293.2	0.9866	0.0129	0.0129	0.0495	0.0495	0.3634	
293.2	0.9695	0.0265	0.0265	0.0868	0.079	0.3991	
293.2	0.9508	0.041	0.041	0.1158	0.079	0.4322	
293.2	0.9294	0.0572	0.0572	0.1429	0.0791	0.4709	
293.2	0.9019	0.077	0.077	0.1683	0.0791	0.5221	
293.2	0.8849	0.0887	0.079	0.1832	0.0791	0.5751	
313.2	0.9815	0.0178	0.0178	0.0477	0.0477	0.3856	
313.2	0.9733	0.0242	0.0242	0.0755	0.0755	0.4146	
313.2	0.9616	0.0332	0.0332	0.1028	0.079	0.4482	
313.2	0.9469	0.0442	0.0442	0.1251	0.079	0.4816	
313.2	0.9281	0.0578	0.0578	0.1446	0.0791	0.5193	
313.2	0.914	0.0676	0.0676	0.1536	0.0791	0.5418	

System: water + acetic acid + 3-methylbutan-1-ol; phases: Liquid mixture 1, Liquid mixture 2
Fixed: Pressure, kPa = 95
Property: Mass density, kg/m3 (Liquid mixture 1); method: Vibrating tube method
Temperature, K	Mole fraction of water	Mass density, kg/m3	uncertainty
293.2	0.3634	838.254	15.611
293.2	0.3991	850.093	15.639
293.2	0.4322	863.492	15.67
293.2	0.4709	877.657	15.703
293.2	0.5221	896.025	15.745
293.2	0.5751	914.665	15.791
313.2	0.3856	823.59	15.578
313.2	0.4146	833.545	15.6
313.2	0.4482	845.077	15.626
313.2	0.4816	857.78	15.655
313.2	0.5193	872.312	15.689
313.2	0.5418	883.532	15.714

System: water + acetic acid + 3-methylbutan-1-ol; phases: Liquid mixture 2, Liquid mixture 1
Fixed: Pressure, kPa = 95
Property: Mass density, kg/m3 (Liquid mixture 2); method: Vibrating tube method
Temperature, K	Mole fraction of water	Mass density, kg/m3	uncertainty
293.2	0.9866	997.895	14.701
293.2	0.9695	1004.844	14.958
293.2	0.9508	1010.112	15.462
293.2	0.9294	1014.402	16.041
293.2	0.9019	1017.738	16.05
293.2	0.8849	1017.432	16.049
313.2	0.9815	992.089	14.755
313.2	0.9733	995.62	14.88
313.2	0.9616	998.95	15.135
313.2	0.9469	1002.116	15.577
313.2	0.9281	1004.115	16.013
313.2	0.914	1004.333	16.014

System: water + acetic acid + 3-methylbutan-1-ol; phases: Liquid mixture 1, Liquid mixture 2
Fixed: Pressure, kPa = 95
Property: Refractive index (Na D-line) (Liquid mixture 1); method: Standard Abbe refractometry
Temperature, K	Mole fraction of water	Refractive index (Na D-line)	uncertainty
293.2	0.3634	1.4009	0.0024
293.2	0.3991	1.399	0.0024
293.2	0.4322	1.397	0.0024
293.2	0.4709	1.3947	0.0024
293.2	0.5221	1.3916	0.0024
293.2	0.5751	1.3881	0.0024
313.2	0.3856	1.3928	0.0024
313.2	0.4146	1.3912	0.0024
313.2	0.4482	1.389	0.0024
313.2	0.4816	1.3875	0.0024
313.2	0.5193	1.385	0.0024
313.2	0.5418	1.384	0.0024

System: water + acetic acid + 3-methylbutan-1-ol; phases: Liquid mixture 2, Liquid mixture 1
Fixed: Pressure, kPa = 95
Property: Refractive index (Na D-line) (Liquid mixture 2); method: Standard Abbe refractometry
Temperature, K	Mole fraction of water	Refractive index (Na D-line)	uncertainty
293.2	0.9866	1.3394	0.0024
293.2	0.9695	1.3423	0.0024
293.2	0.9508	1.3456	0.0024
293.2	0.9294	1.3494	0.0024
293.2	0.9019	1.3544	0.0024
293.2	0.8849	1.357	0.0024
313.2	0.9815	1.3353	0.0024
313.2	0.9733	1.3375	0.0024
313.2	0.9616	1.3401	0.0024
313.2	0.9469	1.3428	0.0024
313.2	0.9281	1.3458	0.0024
313.2	0.914	1.3476	0.0024

System: water + acetic acid + 3-methylbutan-1-ol; phases: Liquid mixture 1, Liquid mixture 2
Fixed: Pressure, kPa = 95
Property: Speed of sound, m/s (Liquid mixture 1); method: Single path-length method
Temperature, K	Mole fraction of water	Speed of sound, m/s	uncertainty
293.2	0.3634	1280.58	3.85
293.2	0.3991	1284.75	3.85
293.2	0.4322	1288.48	3.86
293.2	0.4709	1295.03	3.86
293.2	0.5221	1306.34	3.85
293.2	0.5751	1321.18	3.87
313.2	0.3856	1219.55	3.85
313.2	0.4146	1222.69	3.85
313.2	0.4482	1227.57	3.85
313.2	0.4816	1234.82	3.85
313.2	0.5193	1243.95	3.85
313.2	0.5418	1249.55	3.84

System: water + acetic acid + 3-methylbutan-1-ol; phases: Liquid mixture 2, Liquid mixture 1
Fixed: Pressure, kPa = 95
Property: Speed of sound, m/s (Liquid mixture 2); method: Single path-length method
Temperature, K	Mole fraction of water	Speed of sound, m/s	uncertainty
293.2	0.9866	1523.62	3.81
293.2	0.9695	1533.13	3.8
293.2	0.9508	1539.03	3.8
293.2	0.9294	1540.15	3.8
293.2	0.9019	1534.2	3.8
293.2	0.8849	1520.43	3.8
313.2	0.9815	1547.97	3.81
313.2	0.9733	1549.67	3.81
313.2	0.9616	1548.84	3.81
313.2	0.9469	1544.89	3.8
313.2	0.9281	1536.13	3.8
313.2	0.914	1526.63	3.8

System: water + acetic acid + 2-methoxy-2-methylpropane; phases: Liquid mixture 1, Liquid mixture 2
Fixed: Pressure, kPa = 95
Property: Mole fraction of acetic acid (Liquid mixture 1); method: Titration method
Temperature, K	Mole fraction of water	Mole fraction of acetic acid	uncertainty
293.2	0.0636	0	
293.2	0.1476	0.0889	0.01
293.2	0.2126	0.155	0.0087
293.2	0.3536	0.2123	0.0092
293.2	0.3979	0.223	0.009
293.2	0.4834	0.2305	0.0091
293.2	0.6018	0.2152	0.0089
293.2	0.6617	0.199	0.0088
293.2	0.7273	0.1748	0.0085
293.2	0.7982	0.1456	0.0084
293.2	0.8676	0.1052	0.0084
293.2	0.8975	0.0808	0.0088
293.2	0.9293	0.0557	0.0089
293.2	0.9591	0.0286	0.0093
293.2	0.9879	0	
313.2	0.0654	0	
313.2	0.1435	0.0886	0.0095
313.2	0.2279	0.1526	0.0093
313.2	0.2862	0.193	0.0093
313.2	0.3397	0.2169	0.0092
313.2	0.3835	0.2289	0.0092
313.2	0.479	0.2381	0.0093
313.2	0.5664	0.2301	0.0093
313.2	0.7008	0.191	0.0086
313.2	0.7396	0.1775	0.0087
313.2	0.8093	0.1453	0.0083
313.2	0.8471	0.1254	0.0086
313.2	0.8717	0.1049	0.0092
313.2	0.8995	0.0814	0.009
313.2	0.9294	0.0561	0.0091
313.2	0.9579	0.0295	0.0094
313.2	0.9863	0	

System: water + acetic acid + 2-methoxy-2-methylpropane; phases: Liquid mixture 1, Liquid mixture 2
Fixed: Pressure, kPa = 95
Property: Mass density, kg/m3 (Liquid mixture 1); method: Vibrating tube method
Temperature, K	Mole fraction of water	Mass density, kg/m3	uncertainty
293.2	0.0636	744.18	27.492
293.2	0.1476	770.966	27.516
293.2	0.2126	797.838	27.495
293.2	0.3536	838.873	27.48
293.2	0.3979	853.511	27.509
293.2	0.4834	883.867	27.491
293.2	0.6018	918.706	27.469
293.2	0.6617	932.865	27.422
293.2	0.7273	938.548	27.541
293.2	0.7982	986.646	27.624
293.2	0.8676	1008.861	27.46
293.2	0.8975	1011.146	27.4
293.2	0.9293	1008.252	27.435
293.2	0.9591	998.832	27.495
293.2	0.9879	989.183	27.5
313.2	0.0654	722.924	27.504
313.2	0.1435	749.473	27.491
313.2	0.2279	774.614	27.501
313.2	0.2862	797.528	27.532
313.2	0.3397	817.484	27.515
313.2	0.3835	832.24	27.502
313.2	0.479	864.5	27.502
313.2	0.5664	893.84	27.511
313.2	0.7008	942.466	27.516
313.2	0.7396	955.997	27.513
313.2	0.8093	981	27.539
313.2	0.8471	999	27.501
313.2	0.8717	1001.166	27.404
313.2	0.8995	1002.524	27.4
313.2	0.9294	1001.597	27.414
313.2	0.9579	995.13	27.466
313.2	0.9863	986.179	27.489

System: water + acetic acid + 2-methoxy-2-methylpropane; phases: Liquid mixture 1, Liquid mixture 2
Fixed: Pressure, kPa = 95
Property: Refractive index (Na D-line) (Liquid mixture 1); method: Standard Abbe refractometry
Temperature, K	Mole fraction of water	Refractive index (Na D-line)	uncertainty
293.2	0.0636	1.3695	0.0322
293.2	0.1476	1.3718	0.0322
293.2	0.2126	1.3744	0.0322
293.2	0.3536	1.376	0.0322
293.2	0.3979	1.3764	0.0322
293.2	0.4834	1.3754	0.0322
293.2	0.6018	1.3693	0.0322
293.2	0.6617	1.3703	0.0322
293.2	0.7273	1.3655	0.0322
293.2	0.7982	1.3629	0.0322
293.2	0.8676	1.356	0.0322
293.2	0.8975	1.3523	0.0322
293.2	0.9293	1.3467	0.0322
293.2	0.9591	1.342	0.0322
293.2	0.9879	1.335	0.0322
313.2	0.0654	1.3585	0.0322
313.2	0.1435	1.3616	0.0322
313.2	0.2279	1.3644	0.0322
313.2	0.2862	1.3657	0.0322
313.2	0.3397	1.367	0.0322
313.2	0.3835	1.3674	0.0322
313.2	0.479	1.3676	0.0322
313.2	0.5664	1.3667	0.0322
313.2	0.7008	1.3631	0.0322
313.2	0.7396	1.3618	0.0322
313.2	0.8093	1.3563	0.0322
313.2	0.8471	1.3532	0.0322
313.2	0.8717	1.35	0.0322
313.2	0.8995	1.3469	0.0322
313.2	0.9294	1.3425	0.0322
313.2	0.9579	1.3379	0.0322
313.2	0.9863	1.3315	0.0322

System: water + acetic acid + 2-methoxy-2-methylpropane; phases: Liquid mixture 1, Liquid mixture 2
Fixed: Pressure, kPa = 95
Property: Speed of sound, m/s (Liquid mixture 1); method: Single path-length method
Temperature, K	Mole fraction of water	Speed of sound, m/s	uncertainty
293.2	0.0636	1071.03	31.7
293.2	0.1476	1099.05	31.73
293.2	0.2126	1128.98	31.72
293.2	0.3536	1178.14	31.71
293.2	0.3979	1196.08	31.75
293.2	0.4834	1233.56	31.74
293.2	0.6018	1279.75	31.72
293.2	0.6617	1299.22	31.64
293.2	0.7273	1307.15	32.51
293.2	0.7982	1445.86	33.22
293.2	0.8676	1512.33	32.24
293.2	0.8975	1535.26	31.84
293.2	0.9293	1547.13	31.62
293.2	0.9591	1545.71	31.67
293.2	0.9879	1529.25	31.85
313.2	0.0654	980.44	31.73
313.2	0.1435	1010.21	31.72
313.2	0.2279	1042.09	31.74
313.2	0.2862	1066.93	31.77
313.2	0.3397	1092.32	31.77
313.2	0.3835	1111.01	31.76
313.2	0.479	1153.56	31.78
313.2	0.5664	1195.78	32.01
313.2	0.7008	1312.53	32.05
313.2	0.7396	1322.31	32.4
313.2	0.8093	1417.86	33.11
313.2	0.8471	1474.61	32.9
313.2	0.8717	1498.31	32.32
313.2	0.8995	1525.44	32.09
313.2	0.9294	1544.65	31.78
313.2	0.9579	1553.36	31.6
313.2	0.9863	1546.83	31.64

System: water + acetic acid + 2-methoxy-2-methylpropane; phases: Liquid mixture 2, Liquid mixture 1
Fixed: Pressure, kPa = 95
Property: Mole fraction of acetic acid (Liquid mixture 2); method: Density calibration data
Property: Mole fraction of acetic acid (Liquid mixture 1); method: Density calibration data
Property: Mole fraction of water (Liquid mixture 1); method: Density calibration data
Temperature, K	Mole fraction of water	Mole fraction of acetic acid	uncertainty	Mole fraction of acetic acid	uncertainty	Mole fraction of water	uncertainty
293.2	0.9645	0.0266	0.0266	0.0536	0.0536	0.1087	
293.2	0.9442	0.0424	0.0424	0.099	0.0924	0.1575	
293.2	0.9235	0.0578	0.0578	0.1572	0.0861	0.2359	
293.2	0.905	0.0713	0.0713	0.189	0.0868	0.2934	
293.2	0.8825	0.0871	0.079	0.221	0.0807	0.3826	
293.2	0.8541	0.1061	0.079	0.2338	0.0797	0.4754	
313.2	0.9622	0.0282	0.0282	0.0694	0.0694	0.1265	
313.2	0.9216	0.0616	0.0616	0.1522	0.0892	0.2259	
313.2	0.882	0.0919	0.079	0.2203	0.0819	0.3601	
313.2	0.9082	0.0721	0.0721	0.1849	0.0899	0.2791	
313.2	0.8534	0.1123	0.079	0.2393	0.0805	0.4443	

System: water + acetic acid + 2-methoxy-2-methylpropane; phases: Liquid mixture 1, Liquid mixture 2
Fixed: Pressure, kPa = 95
Property: Mass density, kg/m3 (Liquid mixture 1); method: Vibrating tube method
Temperature, K	Mole fraction of water	Mass density, kg/m3	uncertainty
293.2	0.1087	760.227	25.628
293.2	0.1575	776.71	25.228
293.2	0.2359	801.643	26.025
293.2	0.2934	822.032	25.98
293.2	0.3826	851.464	25.974
293.2	0.4754	882.472	26.083
313.2	0.1265	742.53	26.627
313.2	0.2259	776.749	26.931
313.2	0.3601	824.211	26.26
313.2	0.2791	796.826	26.962
313.2	0.4443	852.575	26.229

System: water + acetic acid + 2-methoxy-2-methylpropane; phases: Liquid mixture 2, Liquid mixture 1
Fixed: Pressure, kPa = 95
Property: Mass density, kg/m3 (Liquid mixture 2); method: Vibrating tube method
Temperature, K	Mole fraction of water	Mass density, kg/m3	uncertainty
293.2	0.9645	996.053	15.061
293.2	0.9442	1002.045	15.672
293.2	0.9235	1005.904	16.54
293.2	0.905	1008.526	17.497
293.2	0.8825	1009.635	18.844
293.2	0.8541	1005.865	20.73
313.2	0.9622	989.345	15.11
313.2	0.9216	996.202	16.593
313.2	0.882	996.238	18.776
313.2	0.9082	998.02	17.271
313.2	0.8534	989.894	20.615

System: water + acetic acid + 2-methoxy-2-methylpropane; phases: Liquid mixture 1, Liquid mixture 2
Fixed: Pressure, kPa = 95
Property: Refractive index (Na D-line) (Liquid mixture 1); method: Standard Abbe refractometry
Temperature, K	Mole fraction of water	Refractive index (Na D-line)	uncertainty
293.2	0.1087	1.3714	0.0029
293.2	0.1575	1.3729	0.0027
293.2	0.2359	1.3744	0.0026
293.2	0.2934	1.3757	0.0026
293.2	0.3826	1.3764	0.0024
293.2	0.4754	1.3762	0.0024
313.2	0.1265	1.3609	0.0035
313.2	0.2259	1.3647	0.0031
313.2	0.3601	1.3679	0.0025
313.2	0.2791	1.3668	0.0031
313.2	0.4443	1.3681	0.0024

System: water + acetic acid + 2-methoxy-2-methylpropane; phases: Liquid mixture 2, Liquid mixture 1
Fixed: Pressure, kPa = 95
Property: Refractive index (Na D-line) (Liquid mixture 2); method: Standard Abbe refractometry
Temperature, K	Mole fraction of water	Refractive index (Na D-line)	uncertainty
293.2	0.9645	1.3396	0.0024
293.2	0.9442	1.3433	0.0024
293.2	0.9235	1.3468	0.0024
293.2	0.905	1.3501	0.0024
293.2	0.8825	1.354	0.0024
293.2	0.8541	1.3583	0.0024
313.2	0.9622	1.3357	0.0024
313.2	0.9216	1.3423	0.0024
313.2	0.882	1.3484	0.0024
313.2	0.9082	1.3447	0.0024
313.2	0.8534	1.3519	0.0024

System: water + acetic acid + 2-methoxy-2-methylpropane; phases: Liquid mixture 1, Liquid mixture 2
Fixed: Pressure, kPa = 95
Property: Speed of sound, m/s (Liquid mixture 1); method: Single path-length method
Temperature, K	Mole fraction of water	Speed of sound, m/s	uncertainty
293.2	0.1087	1087.94	23.56
293.2	0.1575	1109.08	20.65
293.2	0.2359	1133.7	24.79
293.2	0.2934	1160.92	24.56
293.2	0.3826	1193.47	25.62
293.2	0.4754	1232.24	27.26
313.2	0.1265	1002.99	28.41
313.2	0.2259	1046.3	27.79
313.2	0.3601	1102.62	28.54
313.2	0.2791	1069.09	27.87
313.2	0.4443	1141.38	29.98

System: water + acetic acid + 2-methoxy-2-methylpropane; phases: Liquid mixture 2, Liquid mixture 1
Fixed: Pressure, kPa = 95
Property: Speed of sound, m/s (Liquid mixture 2); method: Single path-length method
Temperature, K	Mole fraction of water	Speed of sound, m/s	uncertainty
293.2	0.9645	1541.92	3.75
293.2	0.9442	1548.57	3.75
293.2	0.9235	1549.24	3.75
293.2	0.905	1543.9	3.75
293.2	0.8825	1530.01	3.75
293.2	0.8541	1499.31	3.75
313.2	0.9622	1552.69	3.75
313.2	0.9216	1544.05	3.75
313.2	0.882	1507.45	3.76
313.2	0.9082	1531.8	3.75
313.2	0.8534	1467.4	3.8

System: water + acetic acid + 4-methylpentan-2-one; phases: Liquid mixture 1, Liquid mixture 2
Fixed: Pressure, kPa = 95
Property: Mole fraction of acetic acid (Liquid mixture 1); method: Titration method
Temperature, K	Mole fraction of water	Mole fraction of acetic acid	uncertainty
293.2	0.0915	0	
293.2	0.2122	0.1178	0.0094
293.2	0.2992	0.1789	0.0089
293.2	0.4324	0.2302	0.0093
293.2	0.527	0.2387	0.0093
293.2	0.5911	0.2316	0.0093
293.2	0.6642	0.2112	0.009
293.2	0.7532	0.1807	0.0087
293.2	0.8231	0.1463	0.0087
293.2	0.8789	0.1067	0.0088
293.2	0.9094	0.0811	0.0091
293.2	0.9378	0.0554	0.0093
293.2	0.9661	0.0285	0.0093
293.2	0.9953	0	
313.2	0.138	0	
313.2	0.2532	0.1111	0.0099
313.2	0.3154	0.1731	0.0089
313.2	0.4462	0.2227	0.0092
313.2	0.5409	0.2304	0.0091
313.2	0.6053	0.2221	0.0091
313.2	0.6839	0.2011	0.0088
313.2	0.7505	0.1786	0.0086
313.2	0.8202	0.1481	0.0086
313.2	0.8812	0.1044	0.0088
313.2	0.908	0.0819	0.0091
313.2	0.9385	0.0545	0.0092
313.2	0.9641	0.0307	0.0092
313.2	0.9966	0	

System: water + acetic acid + 4-methylpentan-2-one; phases: Liquid mixture 1, Liquid mixture 2
Fixed: Pressure, kPa = 95
Property: Mass density, kg/m3 (Liquid mixture 1); method: Vibrating tube method
Temperature, K	Mole fraction of water	Mass density, kg/m3	uncertainty
293.2	0.0915	808.399	27.436
293.2	0.2122	832.035	27.443
293.2	0.2992	853.444	27.465
293.2	0.4324	890.678	27.475
293.2	0.527	918.929	27.483
293.2	0.5911	938.611	27.479
293.2	0.6642	958.952	27.493
293.2	0.7532	990.225	27.509
293.2	0.8231	1014.251	27.459
293.2	0.8789	1021.948	27.406
293.2	0.9094	1020.597	27.411
293.2	0.9378	1015.39	27.45
293.2	0.9661	1007.193	27.504
293.2	0.9953	995.765	27.462
313.2	0.138	786.441	27.451
313.2	0.2532	813.319	27.466
313.2	0.3154	834.83	27.48
313.2	0.4462	871.287	27.474
313.2	0.5409	899.323	27.438
313.2	0.6053	902.002	27.476
313.2	0.6839	939.531	27.587
313.2	0.7505	968.171	27.565
313.2	0.8202	998.005	27.488
313.2	0.8812	1008.666	27.416
313.2	0.908	1008.605	27.404
313.2	0.9385	1005.071	27.422
313.2	0.9641	999.868	27.459
313.2	0.9966	990.249	27.419

System: water + acetic acid + 4-methylpentan-2-one; phases: Liquid mixture 1, Liquid mixture 2
Fixed: Pressure, kPa = 95
Property: Refractive index (Na D-line) (Liquid mixture 1); method: Standard Abbe refractometry
Temperature, K	Mole fraction of water	Refractive index (Na D-line)	uncertainty
293.2	0.0915	1.3956	0.0322
293.2	0.2122	1.3945	0.0322
293.2	0.2992	1.3931	0.0322
293.2	0.4324	1.3887	0.0322
293.2	0.527	1.3865	0.0322
293.2	0.5911	1.3833	0.0322
293.2	0.6642	1.3795	0.0322
293.2	0.7532	1.3725	0.0322
293.2	0.8231	1.3649	0.0322
293.2	0.8789	1.3573	0.0322
293.2	0.9094	1.3525	0.0322
293.2	0.9378	1.3475	0.0322
293.2	0.9661	1.3416	0.0322
293.2	0.9953	1.3349	0.0322
313.2	0.138	1.386	0.0322
313.2	0.2532	1.3852	0.0322
313.2	0.3154	1.384	0.0322
313.2	0.4462	1.3812	0.0322
313.2	0.5409	1.3781	0.0322
313.2	0.6053	1.3755	0.0322
313.2	0.6839	1.3696	0.0322
313.2	0.7505	1.365	0.0322
313.2	0.8202	1.3589	0.0322
313.2	0.8812	1.3514	0.0322
313.2	0.908	1.3477	0.0322
313.2	0.9385	1.3425	0.0322
313.2	0.9641	1.3378	0.0322
313.2	0.9966	1.3312	0.0322

System: water + acetic acid + 4-methylpentan-2-one; phases: Liquid mixture 1, Liquid mixture 2
Fixed: Pressure, kPa = 95
Property: Speed of sound, m/s (Liquid mixture 1); method: Single path-length method
Temperature, K	Mole fraction of water	Speed of sound, m/s	uncertainty
293.2	0.0915	1224.89	31.64
293.2	0.2122	1242.56	31.63
293.2	0.2992	1255.14	31.65
293.2	0.4324	1284.04	31.66
293.2	0.527	1309.87	31.68
293.2	0.5911	1331.49	31.71
293.2	0.6642	1358.99	31.83
293.2	0.7532	1415.74	32.06
293.2	0.8231	1481.7	32.19
293.2	0.8789	1524.69	31.94
293.2	0.9094	1536.86	31.65
293.2	0.9378	1538.23	31.63
293.2	0.9661	1527.15	31.99
293.2	0.9953	1497.87	31.96
313.2	0.138	1145.28	31.64
313.2	0.2532	1164.77	31.65
313.2	0.3154	1181.57	31.67
313.2	0.4462	1213.57	31.67
313.2	0.5409	1241.98	31.7
313.2	0.6053	1266.18	31.72
313.2	0.6839	1293.5	32.12
313.2	0.7505	1386.37	32.55
313.2	0.8202	1444.96	32.26
313.2	0.8812	1507.27	32.3
313.2	0.908	1527.39	31.88
313.2	0.9385	1541.78	31.69
313.2	0.9641	1545.75	31.62
313.2	0.9966	1535.8	31.63

System: water + acetic acid + 4-methylpentan-2-one; phases: Liquid mixture 2, Liquid mixture 1
Fixed: Pressure, kPa = 95
Property: Mole fraction of acetic acid (Liquid mixture 2); method: Density calibration data
Property: Mole fraction of acetic acid (Liquid mixture 1); method: Density calibration data
Property: Mole fraction of water (Liquid mixture 1); method: Density calibration data
Temperature, K	Mole fraction of water	Mole fraction of acetic acid	uncertainty	Mole fraction of acetic acid	uncertainty	Mole fraction of water	uncertainty
293.2	0.9788	0.0192	0.0192	0.0586	0.0586	0.1455	
293.2	0.958	0.0382	0.0382	0.1153	0.0915	0.2092	
293.2	0.9344	0.0588	0.0588	0.162	0.0888	0.2747	
293.2	0.9083	0.0804	0.079	0.1984	0.0842	0.3423	
293.2	0.8829	0.1002	0.079	0.2245	0.0807	0.4151	
293.2	0.8528	0.1221	0.079	0.2387	0.0798	0.5039	
313.2	0.9763	0.0219	0.0219	0.0545	0.0545	0.1852	
313.2	0.9566	0.0393	0.0393	0.1014	0.0937	0.2334	
313.2	0.9289	0.0628	0.0628	0.1567	0.0872	0.3043	
313.2	0.9034	0.0833	0.079	0.1903	0.088	0.3623	
313.2	0.8764	0.1037	0.079	0.2183	0.081	0.4341	
313.2	0.8414	0.1283	0.079	0.2329	0.0799	0.52	

System: water + acetic acid + 4-methylpentan-2-one; phases: Liquid mixture 1, Liquid mixture 2
Fixed: Pressure, kPa = 95
Property: Mass density, kg/m3 (Liquid mixture 1); method: Vibrating tube method
Temperature, K	Mole fraction of water	Mass density, kg/m3	uncertainty
293.2	0.1455	819.306	20.006
293.2	0.2092	832.547	20.141
293.2	0.2747	846.568	21.504
293.2	0.3423	864.974	22.852
293.2	0.4151	884.698	23.422
293.2	0.5039	910.649	23.892
313.2	0.1852	798.814	21.897
313.2	0.2334	810.658	22.103
313.2	0.3043	828.829	22.941
313.2	0.3623	844.712	22.84
313.2	0.4341	865.308	24.231
313.2	0.52	891.792	24.72

System: water + acetic acid + 4-methylpentan-2-one; phases: Liquid mixture 2, Liquid mixture 1
Fixed: Pressure, kPa = 95
Property: Mass density, kg/m3 (Liquid mixture 2); method: Vibrating tube method
Temperature, K	Mole fraction of water	Mass density, kg/m3	uncertainty
293.2	0.9788	1004.138	14.795
293.2	0.958	1010.792	15.244
293.2	0.9344	1016.471	16.046
293.2	0.9083	1020.453	16.057
293.2	0.8829	1021.936	16.061
293.2	0.8528	1018.685	16.052
313.2	0.9763	996.558	14.83
313.2	0.9566	1001.128	15.272
313.2	0.9289	1006.247	16.019
313.2	0.9034	1008.114	16.024
313.2	0.8764	1008.032	16.024
313.2	0.8414	1001.432	16.007

System: water + acetic acid + 4-methylpentan-2-one; phases: Liquid mixture 1, Liquid mixture 2
Fixed: Pressure, kPa = 95
Property: Refractive index (Na D-line) (Liquid mixture 1); method: Standard Abbe refractometry
Temperature, K	Mole fraction of water	Refractive index (Na D-line)	uncertainty
293.2	0.1455	1.3952	0.0026
293.2	0.2092	1.3945	0.0026
293.2	0.2747	1.3936	0.0027
293.2	0.3423	1.3922	0.0028
293.2	0.4151	1.3905	0.0031
293.2	0.5039	1.3875	0.0033
313.2	0.1852	1.3857	0.0025
313.2	0.2334	1.3853	0.0026
313.2	0.3043	1.3843	0.0027
313.2	0.3623	1.3834	0.0027
313.2	0.4341	1.3818	0.003
313.2	0.52	1.3792	0.0031

System: water + acetic acid + 4-methylpentan-2-one; phases: Liquid mixture 2, Liquid mixture 1
Fixed: Pressure, kPa = 95
Property: Refractive index (Na D-line) (Liquid mixture 2); method: Standard Abbe refractometry
Temperature, K	Mole fraction of water	Refractive index (Na D-line)	uncertainty
293.2	0.9788	1.34	0.0024
293.2	0.958	1.3442	0.0024
293.2	0.9344	1.3482	0.0024
293.2	0.9083	1.3525	0.0024
293.2	0.8829	1.3566	0.0024
293.2	0.8528	1.3611	0.0024
313.2	0.9763	1.3359	0.0024
313.2	0.9566	1.3392	0.0024
313.2	0.9289	1.3437	0.0024
313.2	0.9034	1.3478	0.0024
313.2	0.8764	1.3519	0.0024
313.2	0.8414	1.3568	0.0024

System: water + acetic acid + 4-methylpentan-2-one; phases: Liquid mixture 1, Liquid mixture 2
Fixed: Pressure, kPa = 95
Property: Speed of sound, m/s (Liquid mixture 1); method: Single path-length method
Temperature, K	Mole fraction of water	Speed of sound, m/s	uncertainty
293.2	0.1455	1231.33	11.44
293.2	0.2092	1241.34	12
293.2	0.2747	1252.85	11.58
293.2	0.3423	1263.83	12.69
293.2	0.4151	1279.07	15.65
293.2	0.5039	1301.65	16.88
313.2	0.1852	1153.53	12.87
313.2	0.2334	1162.65	12.89
313.2	0.3043	1176.14	15.01
313.2	0.3623	1189.03	14.75
313.2	0.4341	1207.27	18.83
313.2	0.52	1233.89	20.39

System: water + acetic acid + 4-methylpentan-2-one; phases: Liquid mixture 2, Liquid mixture 1
Fixed: Pressure, kPa = 95
Property: Speed of sound, m/s (Liquid mixture 2); method: Single path-length method
Temperature, K	Mole fraction of water	Speed of sound, m/s	uncertainty
293.2	0.9788	1520.8	3.81
293.2	0.958	1533.34	3.8
293.2	0.9344	1538.7	3.8
293.2	0.9083	1536.2	3.8
293.2	0.8829	1525.48	3.8
293.2	0.8528	1499.69	3.8
313.2	0.9763	1544.58	3.81
313.2	0.9566	1545.89	3.81
313.2	0.9289	1539.41	3.8
313.2	0.9034	1527.74	3.8
313.2	0.8764	1504.83	3.81
313.2	0.8414	1464.1	3.82

System: water + acetic acid + 2,6-dimethyl-4-heptanone; phases: Liquid mixture 1, Liquid mixture 2
Fixed: Pressure, kPa = 95
Property: Mole fraction of acetic acid (Liquid mixture 1); method: Titration method
Temperature, K	Mole fraction of water	Mole fraction of acetic acid	uncertainty
293.2	0.0148	0	
293.2	0.1494	0.2782	0.0157
293.2	0.2434	0.3855	0.0145
293.2	0.2937	0.4204	0.014
293.2	0.3416	0.4367	0.0139
293.2	0.3894	0.4339	0.0139
293.2	0.4563	0.421	0.0136
293.2	0.4848	0.4209	0.0135
293.2	0.5085	0.4147	0.0136
293.2	0.5334	0.4035	0.0135
293.2	0.6115	0.3638	0.0129
293.2	0.6726	0.3153	0.0125
293.2	0.7343	0.2593	0.0116
293.2	0.7611	0.2343	0.0113
293.2	0.8041	0.1937	0.0108
293.2	0.8414	0.1573	0.0104
293.2	0.8907	0.1086	0.0099
293.2	0.9163	0.0832	0.0097
293.2	0.9438	0.0559	0.0096
293.2	0.97	0.0297	0.0095
293.2	0.9998	0	
313.2	0.0277	0	
313.2	0.1022	0.1667	0.0148
313.2	0.1794	0.2718	0.0144
313.2	0.2169	0.3391	0.0156
313.2	0.2475	0.3739	0.0135
313.2	0.3105	0.4128	0.0137
313.2	0.357	0.4254	0.0137
313.2	0.3938	0.4308	0.0138
313.2	0.4635	0.4159	0.0135
313.2	0.5252	0.401	0.0133
313.2	0.6102	0.3606	0.0127
313.2	0.6669	0.3184	0.0125
313.2	0.7355	0.2579	0.0116
313.2	0.8049	0.1925	0.0107
313.2	0.8468	0.1519	0.0103
313.2	0.8926	0.1065	0.0099
313.2	0.9167	0.0828	0.0097
313.2	0.9426	0.0571	0.0096
313.2	0.9706	0.0291	0.0095
313.2	0.9997	0	

System: water + acetic acid + 2,6-dimethyl-4-heptanone; phases: Liquid mixture 1, Liquid mixture 2
Fixed: Pressure, kPa = 95
Property: Mass density, kg/m3 (Liquid mixture 1); method: Vibrating tube method
Temperature, K	Mole fraction of water	Mass density, kg/m3	uncertainty
293.2	0.0148	809.017	27.473
293.2	0.1494	846.156	27.488
293.2	0.2434	878.416	27.522
293.2	0.2937	898.501	27.553
293.2	0.3416	918.124	27.526
293.2	0.3894	933.5	27.434
293.2	0.4563	938.985	27.554
293.2	0.4848	978.641	28.287
293.2	0.5085	990.43	27.542
293.2	0.5334	997.474	27.572
293.2	0.6115	1033.458	27.524
293.2	0.6726	1046.645	27.427
293.2	0.7343	1050.619	27.412
293.2	0.7611	1050.853	27.411
293.2	0.8041	1049.334	27.414
293.2	0.8414	1045.099	27.431
293.2	0.8907	1036.182	27.446
293.2	0.9163	1029.672	27.48
293.2	0.9438	1021.215	27.513
293.2	0.97	1011.317	27.559
293.2	0.9998	998.196	27.408
313.2	0.0277	792.715	27.459
313.2	0.1022	811.055	27.459
313.2	0.1794	829.654	27.483
313.2	0.2169	845.9	27.563
313.2	0.2475	858.18	27.538
313.2	0.3105	882.06	27.53
313.2	0.357	898.919	27.525
313.2	0.3938	912.394	27.448
313.2	0.4635	922.804	27.553
313.2	0.5252	966.45	27.713
313.2	0.6102	1009.449	27.566
313.2	0.6669	1024.844	27.44
313.2	0.7355	1032.761	27.413
313.2	0.8049	1033.02	27.41
313.2	0.8468	1029.583	27.421
313.2	0.8926	1022.973	27.432
313.2	0.9167	1018.104	27.456
313.2	0.9426	1011.468	27.477
313.2	0.9706	1003.207	27.509
313.2	0.9997	992.231	27.408

System: water + acetic acid + 2,6-dimethyl-4-heptanone; phases: Liquid mixture 1, Liquid mixture 2
Fixed: Pressure, kPa = 95
Property: Refractive index (Na D-line) (Liquid mixture 1); method: Standard Abbe refractometry
Temperature, K	Mole fraction of water	Refractive index (Na D-line)	uncertainty
293.2	0.0148	1.4139	0.0322
293.2	0.1494	1.408	0.0322
293.2	0.2434	1.3721	0.0322
293.2	0.2937	1.3765	0.0322
293.2	0.3416	1.3753	0.0322
293.2	0.3894	1.3813	0.0322
293.2	0.4563	1.3816	0.0322
293.2	0.4848	1.3815	0.0322
293.2	0.5085	1.3809	0.0322
293.2	0.5334	1.383	0.0322
293.2	0.6115	1.3761	0.0322
293.2	0.6726	1.373	0.0322
293.2	0.7343	1.3691	0.0322
293.2	0.7611	1.3676	0.0322
293.2	0.8041	1.3632	0.0322
293.2	0.8414	1.3594	0.0322
293.2	0.8907	1.3533	0.0322
293.2	0.9163	1.3495	0.0322
293.2	0.9438	1.3449	0.0322
293.2	0.97	1.3397	0.0322
293.2	0.9998	1.3331	0.0322
313.2	0.0277	1.405	0.0322
313.2	0.1022	1.4021	0.0322
313.2	0.1794	1.3992	0.0322
313.2	0.2169	1.3961	0.0322
313.2	0.2475	1.3851	0.0322
313.2	0.3105	1.3839	0.0322
313.2	0.357	1.3787	0.0322
313.2	0.3938	1.3746	0.0322
313.2	0.4635	1.3775	0.0322
313.2	0.5252	1.3774	0.0322
313.2	0.6102	1.3711	0.0322
313.2	0.6669	1.3673	0.0322
313.2	0.7355	1.3628	0.0322
313.2	0.8049	1.3574	0.0322
313.2	0.8468	1.3534	0.0322
313.2	0.8926	1.3483	0.0322
313.2	0.9167	1.3452	0.0322
313.2	0.9426	1.3413	0.0322
313.2	0.9706	1.3366	0.0322
313.2	0.9997	1.3306	0.0322

System: water + acetic acid + 2,6-dimethyl-4-heptanone; phases: Liquid mixture 1, Liquid mixture 2
Fixed: Pressure, kPa = 95
Property: Speed of sound, m/s (Liquid mixture 1); method: Single path-length method
Temperature, K	Mole fraction of water	Speed of sound, m/s	uncertainty
293.2	0.0148	1245.51	31.66
293.2	0.1494	1245.19	31.66
293.2	0.2434	1250.23	31.67
293.2	0.2937	1256.44	31.68
293.2	0.3416	1264.98	31.68
293.2	0.3894	1272.81	31.73
293.2	0.4563	1299.19	31.85
293.2	0.4848	1320.74	31.97
293.2	0.5085	1331.47	31.73
293.2	0.5334	1336.02	31.98
293.2	0.6115	1394.52	32.05
293.2	0.6726	1435.6	31.96
293.2	0.7343	1471.26	31.91
293.2	0.7611	1485.8	31.86
293.2	0.8041	1507.54	31.82
293.2	0.8414	1523	31.74
293.2	0.8907	1535.93	31.68
293.2	0.9163	1536.86	31.66
293.2	0.9438	1530.79	31.78
293.2	0.97	1515.37	32.22
293.2	0.9998	1483.2	31.66
313.2	0.0277	1169.52	31.66
313.2	0.1022	1169.92	31.66
313.2	0.1794	1172.04	31.66
313.2	0.2169	1174.97	31.67
313.2	0.2475	1178.05	31.68
313.2	0.3105	1187.7	31.68
313.2	0.357	1195.83	31.68
313.2	0.3938	1199.79	31.68
313.2	0.4635	1213.07	31.95
313.2	0.5252	1282	32.18
313.2	0.6102	1335.8	32.02
313.2	0.6669	1379.35	32.09
313.2	0.7355	1429.4	32.04
313.2	0.8049	1476.76	31.99
313.2	0.8468	1503.01	31.9
313.2	0.8926	1526.86	31.83
313.2	0.9167	1535.85	31.72
313.2	0.9426	1541.5	31.66
313.2	0.9706	1540.69	31.69
313.2	0.9997	1529.23	31.66

System: water + acetic acid + 2,6-dimethyl-4-heptanone; phases: Liquid mixture 2, Liquid mixture 1
Fixed: Pressure, kPa = 95
Property: Mole fraction of acetic acid (Liquid mixture 2); method: Density calibration data
Property: Mole fraction of water (Liquid mixture 1); method: Density calibration data
Property: Mole fraction of acetic acid (Liquid mixture 1); method: Density calibration data
Temperature, K	Mole fraction of water	Mole fraction of acetic acid	uncertainty	Mole fraction of water	uncertainty	Mole fraction of acetic acid	uncertainty
293.2	0.9336	0.065	0.065	0.0665	0.0665	0.1247	
293.2	0.8763	0.12	0.079	0.0806	0.079	0.1532	
293.2	0.8266	0.1687	0.0791	0.1056	0.079	0.1998	
293.2	0.777	0.2169	0.0791	0.1468	0.0791	0.2666	
293.2	0.7324	0.2589	0.0792	0.183	0.0791	0.3153	
293.2	0.6866	0.2997	0.0793	0.2426	0.0792	0.3768	
313.2	0.9477	0.0488	0.0488	0.071	0.071	0.1019	
313.2	0.8922	0.1031	0.079	0.1009	0.079	0.1621	
313.2	0.8347	0.1606	0.0791	0.1308	0.079	0.2155	
313.2	0.7824	0.2122	0.0791	0.162	0.0791	0.2642	
313.2	0.7265	0.2649	0.0792	0.2045	0.0791	0.3196	
313.2	0.6706	0.3134	0.0793	0.2475	0.0792	0.3634	

System: water + acetic acid + 2,6-dimethyl-4-heptanone; phases: Liquid mixture 1, Liquid mixture 2
Fixed: Pressure, kPa = 95
Property: Mass density, kg/m3 (Liquid mixture 1); method: Vibrating tube method
Temperature, K	Mole fraction of water	Mass density, kg/m3	uncertainty
293.2	0.0665	819.522	15.577
293.2	0.0806	828.076	15.597
293.2	0.1056	838.445	15.621
293.2	0.1468	851.13	15.65
293.2	0.183	864.145	15.681
293.2	0.2426	884.17	15.726
313.2	0.071	801.872	15.538
313.2	0.1009	811.259	15.559
313.2	0.1308	821.059	15.58
313.2	0.162	831.447	15.604
313.2	0.2045	845.797	15.636
313.2	0.2475	861.594	15.673

System: water + acetic acid + 2,6-dimethyl-4-heptanone; phases: Liquid mixture 2, Liquid mixture 1
Fixed: Pressure, kPa = 95
Property: Mass density, kg/m3 (Liquid mixture 2); method: Vibrating tube method
Temperature, K	Mole fraction of water	Mass density, kg/m3	uncertainty
293.2	0.9336	1021.728	16.074
293.2	0.8763	1036.563	16.115
293.2	0.8266	1045.501	16.14
293.2	0.777	1050.348	16.153
293.2	0.7324	1050.282	16.153
293.2	0.6866	1045.752	16.141
313.2	0.9477	1011.493	15.581
313.2	0.8922	1023.617	16.079
313.2	0.8347	1030.623	16.098
313.2	0.7824	1033.214	16.106
313.2	0.7265	1030.038	16.097
313.2	0.6706	1024.763	16.083

System: water + acetic acid + 2,6-dimethyl-4-heptanone; phases: Liquid mixture 1, Liquid mixture 2
Fixed: Pressure, kPa = 95
Property: Refractive index (Na D-line) (Liquid mixture 1); method: Standard Abbe refractometry
Temperature, K	Mole fraction of water	Refractive index (Na D-line)	uncertainty
293.2	0.0665	1.4143	0.0024
293.2	0.0806	1.4109	0.0024
293.2	0.1056	1.4093	0.0024
293.2	0.1468	1.4071	0.0024
293.2	0.183	1.3927	0.0024
293.2	0.2426	1.3829	0.0024
313.2	0.071	1.4036	0.0024
313.2	0.1009	1.402	0.0024
313.2	0.1308	1.4003	0.0024
313.2	0.162	1.3986	0.0024
313.2	0.2045	1.3962	0.0024
313.2	0.2475	1.3938	0.0024

System: water + acetic acid + 2,6-dimethyl-4-heptanone; phases: Liquid mixture 2, Liquid mixture 1
Fixed: Pressure, kPa = 95
Property: Refractive index (Na D-line) (Liquid mixture 2); method: Standard Abbe refractometry
Temperature, K	Mole fraction of water	Refractive index (Na D-line)	uncertainty
293.2	0.9336	1.3453	0.0024
293.2	0.8763	1.3537	0.0024
293.2	0.8266	1.3599	0.0024
293.2	0.777	1.3653	0.0024
293.2	0.7324	1.3698	0.0024
293.2	0.6866	1.3732	0.0024
313.2	0.9477	1.3413	0.0024
313.2	0.8922	1.3489	0.0024
313.2	0.8347	1.3546	0.0024
313.2	0.7824	1.359	0.0024
313.2	0.7265	1.3633	0.0024
313.2	0.6706	1.367	0.0024

System: water + acetic acid + 2,6-dimethyl-4-heptanone; phases: Liquid mixture 1, Liquid mixture 2
Fixed: Pressure, kPa = 95
Property: Speed of sound, m/s (Liquid mixture 1); method: Single path-length method
Temperature, K	Mole fraction of water	Speed of sound, m/s	uncertainty
293.2	0.0665	1247.56	4.24
293.2	0.0806	1245.1	4.23
293.2	0.1056	1244.98	4.23
293.2	0.1468	1247.97	4.24
293.2	0.183	1246.85	4.23
293.2	0.2426	1250.95	4.23
313.2	0.071	1170.33	4.24
313.2	0.1009	1169.94	4.23
313.2	0.1308	1169.84	4.23
313.2	0.162	1170.67	4.24
313.2	0.2045	1173.29	4.23
313.2	0.2475	1176.99	4.23

System: water + acetic acid + 2,6-dimethyl-4-heptanone; phases: Liquid mixture 2, Liquid mixture 1
Fixed: Pressure, kPa = 95
Property: Speed of sound, m/s (Liquid mixture 2); method: Single path-length method
Temperature, K	Mole fraction of water	Speed of sound, m/s	uncertainty
293.2	0.9336	1531.62	4.17
293.2	0.8763	1535.87	4.17
293.2	0.8266	1521.86	4.17
293.2	0.777	1497	4.18
293.2	0.7324	1469.18	4.19
293.2	0.6866	1437.51	4.2
313.2	0.9477	1541.74	4.17
313.2	0.8922	1525.28	4.17
313.2	0.8347	1496.72	4.17
313.2	0.7824	1465.26	4.18
313.2	0.7265	1424.78	4.19
313.2	0.6706	1383.93	4.2

System: water + acetic acid + 3-methylbutyl propanoate; phases: Liquid mixture 1, Liquid mixture 2
Fixed: Pressure, kPa = 95
Property: Mole fraction of acetic acid (Liquid mixture 1); method: Titration method
Temperature, K	Mole fraction of water	Mole fraction of acetic acid	uncertainty
293.2	0.0142	0	
293.2	0.1616	0.2785	0.0151
293.2	0.2528	0.3717	0.014
293.2	0.3047	0.4131	0.0138
293.2	0.3577	0.4249	0.0136
293.2	0.4027	0.4239	0.0136
293.2	0.4384	0.4188	0.0135
293.2	0.484	0.4086	0.0133
293.2	0.5202	0.3979	0.0132
293.2	0.5707	0.3791	0.0129
293.2	0.605	0.3606	0.0127
293.2	0.6332	0.342	0.0127
293.2	0.6881	0.2992	0.0121
293.2	0.7305	0.2618	0.0116
293.2	0.7674	0.2281	0.0112
293.2	0.8039	0.1935	0.0108
293.2	0.8464	0.1522	0.0103
293.2	0.8931	0.1062	0.0099
293.2	0.9165	0.0831	0.0098
293.2	0.9415	0.058	0.0096
293.2	0.9607	0.039	0.0095
293.2	0.9998	0	
313.2	0.049	0	
313.2	0.187	0.273	0.0158
313.2	0.2636	0.3666	0.0137
313.2	0.3308	0.399	0.0132
313.2	0.3857	0.4065	0.0132
313.2	0.4265	0.4071	0.0132
313.2	0.4599	0.4017	0.0131
313.2	0.5061	0.3904	0.0129
313.2	0.5389	0.3825	0.0128
313.2	0.6008	0.3573	0.0124
313.2	0.6352	0.3366	0.0124
313.2	0.6725	0.3093	0.0122
313.2	0.7374	0.2545	0.0114
313.2	0.7663	0.2281	0.0112
313.2	0.802	0.1947	0.0107
313.2	0.8462	0.1522	0.0103
313.2	0.8984	0.1008	0.0098
313.2	0.9165	0.0829	0.0097
313.2	0.9409	0.0586	0.0096
313.2	0.9696	0.0299	0.0095
313.2	0.9997	0	

System: water + acetic acid + 3-methylbutyl propanoate; phases: Liquid mixture 1, Liquid mixture 2
Fixed: Pressure, kPa = 95
Property: Mass density, kg/m3 (Liquid mixture 1); method: Vibrating tube method
Temperature, K	Mole fraction of water	Mass density, kg/m3	uncertainty
293.2	0.0142	868.09	27.44
293.2	0.1616	898.06	27.45
293.2	0.2528	921.25	27.47
293.2	0.3047	939.32	27.49
293.2	0.3577	954.35	27.47
293.2	0.4027	967.08	27.48
293.2	0.4384	978.1	27.51
293.2	0.484	995.81	27.56
293.2	0.5202	1012.53	27.5
293.2	0.5707	1023.95	27.46
293.2	0.605	1033.85	27.47
293.2	0.6332	1040.8	27.43
293.2	0.6881	1049.22	27.41
293.2	0.7305	1051.64	27.4
293.2	0.7674	1051.71	27.4
293.2	0.8039	1049.56	27.41
293.2	0.8464	1044.49	27.42
293.2	0.8931	1035.56	27.44
293.2	0.9165	1029.51	27.47
293.2	0.9415	1021.9	27.5
293.2	0.9607	1014.93	27.55
293.2	0.9998	998.14	27.4
313.2	0.049	849.614	27.443
313.2	0.187	879.428	27.458
313.2	0.2636	904.457	27.477
313.2	0.3308	921.136	27.461
313.2	0.3857	935.961	27.475
313.2	0.4265	948.689	27.435
313.2	0.4599	949.838	27.409
313.2	0.5061	955.634	27.545
313.2	0.5389	982.837	27.689
313.2	0.6008	1010.803	27.53
313.2	0.6352	1018.365	27.443
313.2	0.6725	1026.344	27.42
313.2	0.7374	1033.394	27.408
313.2	0.7663	1034.077	27.401
313.2	0.802	1033.252	27.404
313.2	0.8462	1029.81	27.414
313.2	0.8984	1021.865	27.425
313.2	0.9165	1018.097	27.449
313.2	0.9409	1012.002	27.471
313.2	0.9696	1003.247	27.503
313.2	0.9997	992.093	27.401

System: water + acetic acid + 3-methylbutyl propanoate; phases: Liquid mixture 1, Liquid mixture 2
Fixed: Pressure, kPa = 95
Property: Refractive index (Na D-line) (Liquid mixture 1); method: Standard Abbe refractometry
Temperature, K	Mole fraction of water	Refractive index (Na D-line)	uncertainty
293.2	0.0142	1.406	0.0322
293.2	0.1616	1.4003	0.0322
293.2	0.2528	1.3962	0.0322
293.2	0.3047	1.3933	0.0322
293.2	0.3577	1.391	0.0322
293.2	0.4027	1.3889	0.0322
293.2	0.4384	1.3877	0.0322
293.2	0.484	1.3822	0.0322
293.2	0.5202	1.3807	0.0322
293.2	0.5707	1.3793	0.0322
293.2	0.605	1.3772	0.0322
293.2	0.6332	1.3753	0.0322
293.2	0.6881	1.3718	0.0322
293.2	0.7305	1.3693	0.0322
293.2	0.7674	1.3661	0.0322
293.2	0.8039	1.3629	0.0322
293.2	0.8464	1.3585	0.0322
293.2	0.8931	1.3528	0.0322
293.2	0.9165	1.3494	0.0322
293.2	0.9415	1.3452	0.0322
293.2	0.9607	1.3416	0.0322
293.2	0.9998	1.333	0.0322
313.2	0.049	1.3966	0.0322
313.2	0.187	1.391	0.0322
313.2	0.2636	1.3873	0.0322
313.2	0.3308	1.3843	0.0322
313.2	0.3857	1.3805	0.0322
313.2	0.4265	1.3743	0.0322
313.2	0.4599	1.3724	0.0322
313.2	0.5061	1.3727	0.0322
313.2	0.5389	1.3726	0.0322
313.2	0.6008	1.3705	0.0322
313.2	0.6352	1.3686	0.0322
313.2	0.6725	1.3664	0.0322
313.2	0.7374	1.3622	0.0322
313.2	0.7663	1.3602	0.0322
313.2	0.802	1.3574	0.0322
313.2	0.8462	1.3534	0.0322
313.2	0.8984	1.3475	0.0322
313.2	0.9165	1.3451	0.0322
313.2	0.9409	1.3415	0.0322
313.2	0.9696	1.3365	0.0322
313.2	0.9997	1.3305	0.0322

System: water + acetic acid + 3-methylbutyl propanoate; phases: Liquid mixture 1, Liquid mixture 2
Fixed: Pressure, kPa = 95
Property: Speed of sound, m/s (Liquid mixture 1); method: Single path-length method
Temperature, K	Mole fraction of water	Speed of sound, m/s	uncertainty
293.2	0.0142	1225.6	31.62
293.2	0.1616	1226.24	31.62
293.2	0.2528	1232.97	31.63
293.2	0.3047	1241.76	31.65
293.2	0.3577	1253.46	31.66
293.2	0.4027	1262.83	31.69
293.2	0.4384	1277.39	31.67
293.2	0.484	1284.73	31.96
293.2	0.5202	1332.85	32.08
293.2	0.5707	1353.14	31.83
293.2	0.605	1378.58	32.08
293.2	0.6332	1401.96	32
293.2	0.6881	1438.2	31.94
293.2	0.7305	1465.08	31.9
293.2	0.7674	1486.78	31.85
293.2	0.8039	1505.75	31.78
293.2	0.8464	1523.97	31.7
293.2	0.8931	1535.6	31.64
293.2	0.9165	1536.32	31.62
293.2	0.9415	1531.35	31.69
293.2	0.9607	1521.8	32.15
293.2	0.9998	1484.03	31.61
313.2	0.049	1148.57	31.62
313.2	0.187	1152.26	31.62
313.2	0.2636	1161.7	31.64
313.2	0.3308	1173.24	31.64
313.2	0.3857	1179.79	31.65
313.2	0.4265	1192.44	31.68
313.2	0.4599	1199.72	31.63
313.2	0.5061	1202.63	32.41
313.2	0.5389	1285.05	32.65
313.2	0.6008	1320.78	31.89
313.2	0.6352	1342.92	32.05
313.2	0.6725	1374.74	32.13
313.2	0.7374	1426.5	32.09
313.2	0.7663	1448.36	32.01
313.2	0.802	1473.13	31.95
313.2	0.8462	1501.51	31.87
313.2	0.8984	1528.71	31.8
313.2	0.9165	1535.46	31.67
313.2	0.9409	1540.98	31.62
313.2	0.9696	1540.39	31.64
313.2	0.9997	1529.34	31.61

System: water + acetic acid + 3-methylbutyl propanoate; phases: Liquid mixture 2, Liquid mixture 1
Fixed: Pressure, kPa = 95
Property: Mole fraction of acetic acid (Liquid mixture 2); method: Density calibration data
Property: Mole fraction of acetic acid (Liquid mixture 1); method: Density calibration data
Property: Mole fraction of water (Liquid mixture 1); method: Density calibration data
Temperature, K	Mole fraction of water	Mole fraction of acetic acid	uncertainty	Mole fraction of acetic acid	uncertainty	Mole fraction of water	uncertainty
293.2	0.9488	0.0509	0.0509	0.0975	0.079	0.0565	
293.2	0.8959	0.1023	0.079	0.1654	0.0791	0.0917	
293.2	0.8388	0.1583	0.0791	0.2276	0.0792	0.1288	
293.2	0.7827	0.2123	0.0791	0.285	0.0792	0.1696	
293.2	0.7327	0.2583	0.0792	0.3358	0.0793	0.2143	
293.2	0.6735	0.3084	0.0793	0.3786	0.0794	0.2644	
313.2	0.9499	0.0498	0.0498	0.0853	0.079	0.0829	
313.2	0.9003	0.0967	0.079	0.1482	0.0791	0.1144	
313.2	0.847	0.1481	0.0791	0.2073	0.0791	0.1483	
313.2	0.7983	0.1947	0.0791	0.2567	0.0792	0.1811	
313.2	0.7505	0.239	0.0792	0.3046	0.0793	0.2191	
313.2	0.6987	0.284	0.0792	0.3512	0.0794	0.2664	

System: water + acetic acid + 3-methylbutyl propanoate; phases: Liquid mixture 1, Liquid mixture 2
Fixed: Pressure, kPa = 95
Property: Mass density, kg/m3 (Liquid mixture 1); method: Vibrating tube method
Temperature, K	Mole fraction of water	Mass density, kg/m3	uncertainty
293.2	0.0565	875.461	15.455
293.2	0.0917	883.251	15.716
293.2	0.1288	891.791	15.736
293.2	0.1696	901.748	15.76
293.2	0.2143	912.265	15.784
293.2	0.2644	926.917	15.82
313.2	0.0829	856.219	15.652
313.2	0.1144	863.655	15.669
313.2	0.1483	871.926	15.688
313.2	0.1811	880.328	15.708
313.2	0.2191	890.564	15.732
313.2	0.2664	903.642	15.763

System: water + acetic acid + 3-methylbutyl propanoate; phases: Liquid mixture 2, Liquid mixture 1
Fixed: Pressure, kPa = 95
Property: Mass density, kg/m3 (Liquid mixture 2); method: Vibrating tube method
Temperature, K	Mole fraction of water	Mass density, kg/m3	uncertainty
293.2	0.9488	1021.362	15.547
293.2	0.8959	1035.823	16.098
293.2	0.8388	1045.417	16.124
293.2	0.7827	1050.33	16.138
293.2	0.7327	1051.97	16.142
293.2	0.6735	1047.472	16.13
313.2	0.9499	1008.859	15.489
313.2	0.9003	1020.805	16.058
313.2	0.847	1029.592	16.082
313.2	0.7983	1033.312	16.092
313.2	0.7505	1033.786	16.093
313.2	0.6987	1030.149	16.083

System: water + acetic acid + 3-methylbutyl propanoate; phases: Liquid mixture 1, Liquid mixture 2
Fixed: Pressure, kPa = 95
Property: Refractive index (Na D-line) (Liquid mixture 1); method: Standard Abbe refractometry
Temperature, K	Mole fraction of water	Refractive index (Na D-line)	uncertainty
293.2	0.0565	1.4047	0.0024
293.2	0.0917	1.4031	0.0024
293.2	0.1288	1.4014	0.0024
293.2	0.1696	1.3996	0.0024
293.2	0.2143	1.3973	0.0024
293.2	0.2644	1.3953	0.0024
313.2	0.0829	1.3954	0.0024
313.2	0.1144	1.3939	0.0024
313.2	0.1483	1.3923	0.0024
313.2	0.1811	1.3908	0.0024
313.2	0.2191	1.3891	0.0024
313.2	0.2664	1.3869	0.0024

System: water + acetic acid + 3-methylbutyl propanoate; phases: Liquid mixture 2, Liquid mixture 1
Fixed: Pressure, kPa = 95
Property: Refractive index (Na D-line) (Liquid mixture 2); method: Standard Abbe refractometry
Temperature, K	Mole fraction of water	Refractive index (Na D-line)	uncertainty
293.2	0.9488	1.3449	0.0024
293.2	0.8959	1.353	0.0024
293.2	0.8388	1.3593	0.0024
293.2	0.7827	1.3644	0.0024
293.2	0.7327	1.3684	0.0024
293.2	0.6735	1.3729	0.0024
313.2	0.9499	1.3404	0.0024
313.2	0.9003	1.3475	0.0024
313.2	0.847	1.3532	0.0024
313.2	0.7983	1.3575	0.0024
313.2	0.7505	1.3612	0.0024
313.2	0.6987	1.3647	0.0024

System: water + acetic acid + 3-methylbutyl propanoate; phases: Liquid mixture 1, Liquid mixture 2
Fixed: Pressure, kPa = 95
Property: Speed of sound, m/s (Liquid mixture 1); method: Single path-length method
Temperature, K	Mole fraction of water	Speed of sound, m/s	uncertainty
293.2	0.0565	1225.76	3.91
293.2	0.0917	1225.44	3.91
293.2	0.1288	1225.79	3.91
293.2	0.1696	1227.17	3.91
293.2	0.2143	1229.47	3.9
293.2	0.2644	1234.05	3.9
313.2	0.0829	1148.76	3.91
313.2	0.1144	1149.25	3.91
313.2	0.1483	1150.41	3.91
313.2	0.1811	1152.31	3.9
313.2	0.2191	1155.73	3.9
313.2	0.2664	1161.89	3.9

System: water + acetic acid + 3-methylbutyl propanoate; phases: Liquid mixture 2, Liquid mixture 1
Fixed: Pressure, kPa = 95
Property: Speed of sound, m/s (Liquid mixture 2); method: Single path-length method
Temperature, K	Mole fraction of water	Speed of sound, m/s	uncertainty
293.2	0.9488	1530.69	3.83
293.2	0.8959	1535.87	3.83
293.2	0.8388	1521.88	3.84
293.2	0.7827	1498.11	3.84
293.2	0.7327	1470.29	3.84
293.2	0.6735	1433.74	3.85
313.2	0.9499	1541.62	3.83
313.2	0.9003	1529.27	3.83
313.2	0.847	1502.92	3.84
313.2	0.7983	1472.97	3.84
313.2	0.7505	1438.93	3.88
313.2	0.6987	1396.89	3.85

System: water + butan-1-ol; phases: Liquid mixture 1, Liquid mixture 2
Fixed: Pressure, kPa = 95
Property: Mole fraction of water (Liquid mixture 1); method: Titration method
Temperature, K	Mole fraction of water	uncertainty
293.2	0.5064	0.0099
293.2	0.9798	0.0083
313.2	0.5304	0.0097
313.2	0.9829	0.0085

System: water + 3-methylbutan-1-ol; phases: Liquid mixture 1, Liquid mixture 2
Fixed: Pressure, kPa = 95
Property: Mole fraction of water (Liquid mixture 1); method: Titration method
Temperature, K	Mole fraction of water	uncertainty
293.2	0.3283	0.0084
293.2	0.9941	0.0059
313.2	0.3461	0.0085
313.2	0.995	0.005

System: water + 2-methoxy-2-methylpropane; phases: Liquid mixture 1, Liquid mixture 2
Fixed: Pressure, kPa = 95
Property: Mole fraction of water (Liquid mixture 1); method: Titration method
Temperature, K	Mole fraction of water	uncertainty
293.2	0.0636	0.0071
293.2	0.9879	0.0116
313.2	0.0654	0.0071
313.2	0.9863	0.0116

System: water + 4-methylpentan-2-one; phases: Liquid mixture 1, Liquid mixture 2
Fixed: Pressure, kPa = 95
Property: Mole fraction of water (Liquid mixture 1); method: Titration method
Temperature, K	Mole fraction of water	uncertainty
293.2	0.0915	0.0071
293.2	0.9953	0.0047
313.2	0.138	0.0073
313.2	0.9966	0.0034

System: water + 2,6-dimethyl-4-heptanone; phases: Liquid mixture 1, Liquid mixture 2
Fixed: Pressure, kPa = 95
Property: Mole fraction of water (Liquid mixture 1); method: Titration method
Temperature, K	Mole fraction of water	uncertainty
293.2	0.0148	0.007
293.2	0.9998	0.0002
313.2	0.0277	0.007
313.2	0.9997	0.0003

System: water + 3-methylbutyl propanoate; phases: Liquid mixture 1, Liquid mixture 2
Fixed: Pressure, kPa = 95
Property: Mole fraction of water (Liquid mixture 1); method: Titration method
Temperature, K	Mole fraction of water	uncertainty
293.2	0.0142	0.007
293.2	0.9998	0.0002
313.2	0.049	0.007
313.2	0.9997	0.0003
