Measured thermophysical data. Experimental study on equilibrium solubility (at low partial pressures), density, viscosity and corrosion rate of carbon dioxide in aqueous solutions of ascorbic acid
Source: Fluid Phase Equilib., 2011, 10.1016/j.fluid.2011.02.017
Compound 1: L-ascorbic acid, C6H8O6, InChI=1S/C6H8O6/c7-1-2(8)5-3(9)4(10)6(11)12-5/h2,5,7-10H,1H2/t2-,5+/m0/s1, purity 99%
Compound 2: water, H2O, InChI=1S/H2O/h1H2, purity 99.8%
Compound 3: carbon dioxide, CO2, InChI=1S/CO2/c2-1-3, purity 99.9%

System: L-ascorbic acid + water; phases: Liquid
Fixed: Pressure, kPa = 101
Property: Viscosity, Pa*s (Liquid); method: Capillary tube (Ostwald; Ubbelohde) method
Temperature, K	Amount concentration (molarity), mol/dm3 of L-ascorbic acid	Viscosity, Pa*s	uncertainty
298	0.5	0.001227	5.2e-05
298	1	0.001618	6.7e-05
298	1.5	0.001894	7.7e-05
308	0.5	0.000965	4e-05
308	1	0.00117	4.8e-05
308	1.5	0.001479	6.1e-05
313	0.5	0.000802	3.3e-05
313	1	0.000986	4.1e-05
313	1.5	0.001222	5e-05

System: L-ascorbic acid + water; phases: Liquid
Fixed: Pressure, kPa = 101
Property: Mass density, kg/m3 (Liquid); method: Pycnometric method
Temperature, K	Amount concentration (molarity), mol/dm3 of L-ascorbic acid	Mass density, kg/m3	uncertainty
298	0.5	1025.091	1.738
298	1	1066.913	1.599
298	1.5	1101.385	1.463
308	0.5	1011.179	2.105
308	1	1063.935	1.82
308	1.5	1098.839	1.423
313	0.5	1007.767	2.202
313	1	1061.471	1.792
313	1.5	1093.845	1.391

System: L-ascorbic acid + carbon dioxide + water; phases: Liquid, Gas
Property: Mole fraction of carbon dioxide (Liquid); method: Declining pressure during CO2 absorption
Temperature, K	Pressure, kPa	Solvent: Amount concentration (molarity), mol/dm3 of L-ascorbic acid	Mole fraction of carbon dioxide	uncertainty
298	4.899	1	0.0025	0.0002
298	5.878	1.5	0.0035	0.0003
298	6.806	1	0.0022	0.0002
298	7.649	0.5	0.0009	0.0001
298	13.976	1.5	0.0038	0.0003
298	15.876	0.5	0.0011	0.0001
298	22.13	1.5	0.004	0.0003
298	23.101	1	0.0026	0.0002
298	24.078	0.5	0.0012	0.0001
298	30.063	1.5	0.0045	0.0003
298	31.303	1	0.0027	0.0002
298	32.336	0.5	0.0013	0.0001
298	38.144	1.5	0.0048	0.0003
298	39.396	1	0.003	0.0002
298	40.587	0.5	0.0013	0.0001
308	6.281	1.5	0.0029	0.0003
308	7.063	1	0.0018	0.0002
308	7.772	0.5	0.0008	0.0001
308	14.325	1.5	0.0033	0.0003
308	15.168	1	0.0021	0.0002
308	15.98	0.5	0.0009	0.0001
308	22.35	1.5	0.0037	0.0003
308	23.394	1	0.0022	0.0002
308	24.225	0.5	0.001	0.0001
308	30.522	1.5	0.0038	0.0003
308	31.523	1	0.0024	0.0002
308	32.47	0.5	0.0011	0.0001
308	38.492	1.5	0.0043	0.0003
308	39.665	1	0.0027	0.0002
308	40.666	0.5	0.0012	0.0001
313	7.066	1.5	0.0027	0.0003
313	7.772	1	0.0016	0.0002
313	8.357	0.5	0.0006	0.0001
313	15.662	1.5	0.003	0.0003
313	16.383	1	0.0018	0.0002
313	17.05	0.5	0.0007	0.0001
313	24.243	1.5	0.0032	0.0003
313	25.005	1	0.002	0.0002
313	25.755	0.5	0.0008	0.0001
313	32.65	1.5	0.0038	0.0003
313	33.659	1	0.0022	0.0002
313	34.41	0.5	0.001	0.0001
313	41.255	1.5	0.004	0.0003
313	42.248	1	0.0024	0.0002
313	43.109	0.5	0.0011	0.0001
