Measured thermophysical data. Study on thermo physical properties of binary mixture containing aromatic alcohol with aromatic, substituted aromatic amines at different temperatures interms of FT-IR, 1H NMR spectroscopic and DFT method
Source: Fluid Phase Equilib., 2018, 10.1016/j.fluid.2018.01.025
Compound 1: benzenemethanol, C7H8O, InChI=1S/C7H8O/c8-6-7-4-2-1-3-5-7/h1-5,8H,6H2
Compound 2: aniline, C6H7N, InChI=1S/C6H7N/c7-6-4-2-1-3-5-6/h1-5H,7H2
Compound 3: N-methylaniline, C7H9N, InChI=1S/C7H9N/c1-8-7-5-3-2-4-6-7/h2-6,8H,1H3
Compound 4: N,N-dimethylaniline, C8H11N, InChI=1S/C8H11N/c1-9(2)8-6-4-3-5-7-8/h3-7H,1-2H3
Compound 5: 2-chlorobenzeneamine, C6H6ClN, InChI=1S/C6H6ClN/c7-5-3-1-2-4-6(5)8/h1-4H,8H2
Compound 6: 3-chlorobenzenamine, C6H6ClN, InChI=1S/C6H6ClN/c7-5-2-1-3-6(8)4-5/h1-4H,8H2

System: benzenemethanol; phases: Liquid
Fixed: Pressure, kPa = 101.325
Property: Mass density, kg/m3 (Liquid); method: Vibrating tube method
Temperature, K	Mass density, kg/m3	uncertainty
303.15	1037.18	0.14
308.15	1033.45	0.14
313.15	1029.36	0.14
318.15	1025.57	0.14
323.15	1021.78	0.14

System: benzenemethanol; phases: Liquid
Fixed: Pressure, kPa = 101.325
Fixed: Frequency, MHz = 2
Property: Speed of sound, m/s (Liquid); method: Linear variable-path acoustic interferometer
Temperature, K	Speed of sound, m/s	uncertainty
303.15	1512	2
313.15	1487	2

System: aniline; phases: Liquid
Fixed: Pressure, kPa = 101.325
Property: Mass density, kg/m3 (Liquid); method: Vibrating tube method
Temperature, K	Mass density, kg/m3	uncertainty
303.15	1012.78	0.4
308.15	1008.64	0.4
313.15	1004.49	0.4
318.15	1000.36	0.4
323.15	996.43	0.4

System: aniline; phases: Liquid
Fixed: Pressure, kPa = 101.325
Fixed: Frequency, MHz = 2
Property: Speed of sound, m/s (Liquid); method: Linear variable-path acoustic interferometer
Temperature, K	Speed of sound, m/s	uncertainty
303.15	1615	2
313.15	1578	2

System: N-methylaniline; phases: Liquid
Fixed: Pressure, kPa = 101.325
Property: Mass density, kg/m3 (Liquid); method: Vibrating tube method
Temperature, K	Mass density, kg/m3	uncertainty
303.15	981.72	0.44
308.15	976.04	0.44
313.15	970.89	0.44
318.15	965.81	0.44
323.15	961.13	0.44

System: N-methylaniline; phases: Liquid
Fixed: Pressure, kPa = 101.325
Fixed: Frequency, MHz = 2
Property: Speed of sound, m/s (Liquid); method: Linear variable-path acoustic interferometer
Temperature, K	Speed of sound, m/s	uncertainty
303.15	1549	2
313.15	1511	2

System: N,N-dimethylaniline; phases: Liquid
Fixed: Pressure, kPa = 101.325
Property: Mass density, kg/m3 (Liquid); method: Vibrating tube method
Temperature, K	Mass density, kg/m3	uncertainty
303.15	948.18	0.41
308.15	943.55	0.41
313.15	939.78	0.41
318.15	935.3	0.41
323.15	931.45	0.41

System: N,N-dimethylaniline; phases: Liquid
Fixed: Pressure, kPa = 101.325
Fixed: Frequency, MHz = 2
Property: Speed of sound, m/s (Liquid); method: Linear variable-path acoustic interferometer
Temperature, K	Speed of sound, m/s	uncertainty
303.15	1470	2
313.15	1432	2

System: 2-chlorobenzeneamine; phases: Liquid
Fixed: Pressure, kPa = 101.325
Property: Mass density, kg/m3 (Liquid); method: Vibrating tube method
Temperature, K	Mass density, kg/m3	uncertainty
303.15	1202.38	0.54
308.15	1197.56	0.54
313.15	1192.97	0.54
318.15	1187.92	0.53
323.15	1183.26	0.53

System: 2-chlorobenzeneamine; phases: Liquid
Fixed: Pressure, kPa = 101.325
Fixed: Frequency, MHz = 2
Property: Speed of sound, m/s (Liquid); method: Linear variable-path acoustic interferometer
Temperature, K	Speed of sound, m/s	uncertainty
303.15	1468	2
313.15	1437	2

System: 3-chlorobenzenamine; phases: Liquid
Fixed: Pressure, kPa = 101.325
Property: Mass density, kg/m3 (Liquid); method: Vibrating tube method
Temperature, K	Mass density, kg/m3	uncertainty
303.15	1205.75	0.58
308.15	1201.14	0.58
313.15	1196.56	0.58
318.15	1191.98	0.57
323.15	1187.41	0.57

System: 3-chlorobenzenamine; phases: Liquid
Fixed: Pressure, kPa = 101.325
Fixed: Frequency, MHz = 2
Property: Speed of sound, m/s (Liquid); method: Linear variable-path acoustic interferometer
Temperature, K	Speed of sound, m/s	uncertainty
303.15	1516	2
313.15	1484	2

System: benzenemethanol + aniline; phases: Liquid
Fixed: Pressure, kPa = 101
Property: Mass density, kg/m3 (Liquid); method: Vibrating tube method
Temperature, K	Mole fraction of benzenemethanol	Mass density, kg/m3	uncertainty
303.15	0.0895	1015.86	0.4
303.15	0.181	1018.68	0.41
303.15	0.2748	1021.37	0.41
303.15	0.3709	1023.88	0.41
303.15	0.4693	1026.28	0.41
303.15	0.5701	1028.61	0.41
303.15	0.6735	1030.85	0.41
303.15	0.7796	1033.02	0.41
303.15	0.8884	1035.14	0.41
308.15	0.0895	1011.46	0.4
308.15	0.181	1014.15	0.4
308.15	0.2748	1016.76	0.41
308.15	0.3709	1019.29	0.41
308.15	0.4693	1021.76	0.41
308.15	0.5701	1024.17	0.41
308.15	0.6735	1026.55	0.41
308.15	0.7796	1028.88	0.41
308.15	0.8884	1031.18	0.41
313.15	0.0895	1007.17	0.4
313.15	0.181	1009.79	0.4
313.15	0.2748	1012.36	0.4
313.15	0.3709	1014.9	0.41
313.15	0.4693	1017.36	0.41
313.15	0.5701	1019.82	0.41
313.15	0.6735	1022.24	0.41
313.15	0.7796	1024.64	0.41
313.15	0.8884	1027.03	0.41
318.15	0.0895	1003.04	0.4
318.15	0.181	1005.68	0.4
318.15	0.2748	1008.28	0.4
318.15	0.3709	1010.83	0.4
318.15	0.4693	1013.33	0.41
318.15	0.5701	1015.83	0.41
318.15	0.6735	1018.31	0.41
318.15	0.7796	1020.74	0.41
318.15	0.8884	1023.15	0.41
323.15	0.0895	999.07	0.4
323.15	0.181	1001.68	0.4
323.15	0.2748	1004.27	0.4
323.15	0.3709	1006.82	0.4
323.15	0.4693	1009.35	0.4
323.15	0.5701	1011.87	0.41
323.15	0.6735	1014.35	0.41
323.15	0.7796	1016.84	0.41
323.15	0.8884	1019.33	0.41

System: benzenemethanol + aniline; phases: Liquid
Fixed: Pressure, kPa = 101
Fixed: Frequency, MHz = 2
Property: Speed of sound, m/s (Liquid); method: Linear variable-path acoustic interferometer
Temperature, K	Mole fraction of benzenemethanol	Speed of sound, m/s	uncertainty
303.15	0.0895	1605.7	9.8
303.15	0.181	1596.1	9.7
303.15	0.2748	1586.4	9.6
303.15	0.3709	1576.5	9.6
303.15	0.4693	1566.6	9.5
303.15	0.5701	1556.3	9.5
303.15	0.6735	1545.9	9.4
303.15	0.7796	1535.2	9.3
303.15	0.8884	1523.9	9.3
313.15	0.0895	1570.1	9.5
313.15	0.181	1561.9	9.5
313.15	0.2748	1553.5	9.4
313.15	0.3709	1544.9	9.4
313.15	0.4693	1536	9.3
313.15	0.5701	1526.9	9.3
313.15	0.6735	1517.5	9.2
313.15	0.7796	1507.8	9.2
313.15	0.8884	1497.7	9.1

System: benzenemethanol + N-methylaniline; phases: Liquid
Fixed: Pressure, kPa = 101
Property: Mass density, kg/m3 (Liquid); method: Vibrating tube method
Temperature, K	Mole fraction of benzenemethanol	Mass density, kg/m3	uncertainty
303.15	0.1044	987.67	0.43
303.15	0.2078	993.53	0.43
303.15	0.3102	999.29	0.42
303.15	0.4116	1004.92	0.42
303.15	0.512	1010.45	0.42
303.15	0.6115	1015.9	0.41
303.15	0.71	1021.26	0.41
303.15	0.8076	1026.57	0.41
303.15	0.9042	1031.88	0.41
308.15	0.1044	980.39	0.43
308.15	0.2078	986.48	0.43
308.15	0.3102	992.49	0.42
308.15	0.4116	998.45	0.42
308.15	0.512	1004.34	0.42
308.15	0.6115	1010.22	0.41
308.15	0.71	1016.06	0.41
308.15	0.8076	1021.85	0.41
308.15	0.9042	1027.64	0.41
313.15	0.1044	976.87	0.43
313.15	0.2078	982.82	0.43
313.15	0.3102	988.73	0.42
313.15	0.4116	994.6	0.42
313.15	0.512	1000.43	0.41
313.15	0.6115	1006.25	0.41
313.15	0.71	1012.02	0.41
313.15	0.8076	1017.82	0.41
313.15	0.9042	1023.58	0.41
318.15	0.1044	971.88	0.43
318.15	0.2078	977.93	0.43
318.15	0.3102	983.96	0.42
318.15	0.4116	989.97	0.42
318.15	0.512	995.91	0.41
318.15	0.6115	1001.87	0.41
318.15	0.71	1007.8	0.41
318.15	0.8076	1013.73	0.41
318.15	0.9042	1019.63	0.41
323.15	0.1044	967.24	0.43
323.15	0.2078	973.34	0.43
323.15	0.3102	979.41	0.42
323.15	0.4116	985.5	0.42
323.15	0.512	991.54	0.42
323.15	0.6115	997.59	0.41
323.15	0.71	1003.64	0.41
323.15	0.8076	1009.68	0.41
323.15	0.9042	1015.72	0.41

System: benzenemethanol + N-methylaniline; phases: Liquid
Fixed: Pressure, kPa = 101
Fixed: Frequency, MHz = 2
Property: Speed of sound, m/s (Liquid); method: Linear variable-path acoustic interferometer
Temperature, K	Mole fraction of benzenemethanol	Speed of sound, m/s	uncertainty
303.15	0.1044	1545	9.4
303.15	0.2078	1540.9	9.4
303.15	0.3102	1537.1	9.4
303.15	0.4116	1533.3	9.3
303.15	0.512	1529.6	9.3
303.15	0.6115	1526.1	9.3
303.15	0.71	1522.5	9.3
303.15	0.8076	1518.8	9.2
303.15	0.9042	1515.3	9.2
313.15	0.1044	1507.9	9.2
313.15	0.2078	1505.2	9.2
313.15	0.3102	1502.6	9.2
313.15	0.4116	1500.1	9.1
313.15	0.512	1497.7	9.1
313.15	0.6115	1495.3	9.1
313.15	0.71	1493	9.1
313.15	0.8076	1490.8	9.1
313.15	0.9042	1488.7	9.1

System: benzenemethanol + N,N-dimethylaniline; phases: Liquid
Fixed: Pressure, kPa = 101
Property: Mass density, kg/m3 (Liquid); method: Vibrating tube method
Temperature, K	Mole fraction of benzenemethanol	Mass density, kg/m3	uncertainty
303.15	0.12	957.18	0.41
303.15	0.2348	966.14	0.41
303.15	0.3447	974.99	0.41
303.15	0.4501	983.81	0.41
303.15	0.5511	992.59	0.41
303.15	0.6481	1001.4	0.41
303.15	0.7412	1010.24	0.41
303.15	0.8308	1019.15	0.41
303.15	0.917	1028.12	0.41
308.15	0.12	952.61	0.41
308.15	0.2348	961.64	0.41
308.15	0.3447	970.58	0.41
308.15	0.4501	979.48	0.41
308.15	0.5511	988.35	0.41
308.15	0.6481	997.24	0.41
308.15	0.7412	1006.19	0.41
308.15	0.8308	1015.2	0.41
308.15	0.917	1024.28	0.41
313.15	0.12	948.78	0.41
313.15	0.2348	957.75	0.41
313.15	0.3447	966.64	0.41
313.15	0.4501	975.5	0.41
313.15	0.5511	984.36	0.41
313.15	0.6481	993.26	0.41
313.15	0.7412	1002.16	0.41
313.15	0.8308	1011.16	0.41
313.15	0.917	1020.19	0.41
318.15	0.12	944.35	0.41
318.15	0.2348	953.35	0.41
318.15	0.3447	962.3	0.41
318.15	0.4501	971.22	0.41
318.15	0.5511	980.15	0.41
318.15	0.6481	989.1	0.41
318.15	0.7412	998.09	0.41
318.15	0.8308	1007.16	0.41
318.15	0.917	1016.31	0.41
323.15	0.12	940.48	0.41
323.15	0.2348	949.47	0.41
323.15	0.3447	958.43	0.41
323.15	0.4501	967.35	0.41
323.15	0.5511	976.28	0.41
323.15	0.6481	985.25	0.41
323.15	0.7412	994.24	0.41
323.15	0.8308	1003.34	0.41
323.15	0.917	1012.49	0.41

System: benzenemethanol + N,N-dimethylaniline; phases: Liquid
Fixed: Pressure, kPa = 101
Fixed: Frequency, MHz = 2
Property: Speed of sound, m/s (Liquid); method: Linear variable-path acoustic interferometer
Temperature, K	Mole fraction of benzenemethanol	Speed of sound, m/s	uncertainty
303.15	0.12	1475.2	9
303.15	0.2348	1480.2	9
303.15	0.3447	1484.8	9
303.15	0.4501	1489.2	9.1
303.15	0.5511	1493.5	9.1
303.15	0.6481	1497.6	9.1
303.15	0.7412	1501.5	9.1
303.15	0.8308	1505.1	9.2
303.15	0.917	1508.5	9.2
313.15	0.12	1438	8.8
313.15	0.2348	1443.8	8.8
313.15	0.3447	1449.3	8.8
313.15	0.4501	1454.8	8.9
313.15	0.5511	1460.3	8.9
313.15	0.6481	1465.7	8.9
313.15	0.7412	1471.1	8.9
313.15	0.8308	1476.4	9
313.15	0.917	1481.7	9

System: benzenemethanol + 2-chlorobenzeneamine; phases: Liquid
Fixed: Pressure, kPa = 101
Property: Mass density, kg/m3 (Liquid); method: Vibrating tube method
Temperature, K	Mole fraction of benzenemethanol	Mass density, kg/m3	uncertainty
303.15	0.1018	1188.36	0.51
303.15	0.2031	1173.95	0.49
303.15	0.3041	1158.94	0.47
303.15	0.4047	1143.31	0.46
303.15	0.5049	1126.98	0.44
303.15	0.6047	1110.07	0.43
303.15	0.7041	1092.58	0.43
303.15	0.8031	1074.51	0.42
303.15	0.9017	1056	0.41
308.15	0.1018	1183.05	0.51
308.15	0.2031	1168.26	0.49
308.15	0.3041	1153	0.47
308.15	0.4047	1137.27	0.46
308.15	0.5049	1121.04	0.44
308.15	0.6047	1104.31	0.43
308.15	0.7041	1087.09	0.42
308.15	0.8031	1069.49	0.42
308.15	0.9017	1051.53	0.41
313.15	0.1018	1178.05	0.51
313.15	0.2031	1162.88	0.49
313.15	0.3041	1147.35	0.47
313.15	0.4047	1131.48	0.45
313.15	0.5049	1115.21	0.44
313.15	0.6047	1098.62	0.43
313.15	0.7041	1081.73	0.42
313.15	0.8031	1064.51	0.42
313.15	0.9017	1047	0.41
318.15	0.1018	1172.74	0.51
318.15	0.2031	1157.37	0.49
318.15	0.3041	1141.76	0.47
318.15	0.4047	1125.89	0.45
318.15	0.5049	1109.7	0.44
318.15	0.6047	1093.31	0.43
318.15	0.7041	1076.67	0.42
318.15	0.8031	1059.84	0.42
318.15	0.9017	1042.77	0.41
323.15	0.1018	1167.93	0.51
323.15	0.2031	1152.55	0.48
323.15	0.3041	1136.87	0.47
323.15	0.4047	1121.03	0.45
323.15	0.5049	1104.91	0.44
323.15	0.6047	1088.6	0.43
323.15	0.7041	1072.12	0.42
323.15	0.8031	1055.47	0.42
323.15	0.9017	1038.7	0.41

System: benzenemethanol + 2-chlorobenzeneamine; phases: Liquid
Fixed: Pressure, kPa = 101
Fixed: Frequency, MHz = 2
Property: Speed of sound, m/s (Liquid); method: Linear variable-path acoustic interferometer
Temperature, K	Mole fraction of benzenemethanol	Speed of sound, m/s	uncertainty
303.15	0.1018	1470.9	9
303.15	0.2031	1474.4	9
303.15	0.3041	1478	9
303.15	0.4047	1482.1	9
303.15	0.5049	1486.4	9.1
303.15	0.6047	1490.9	9.1
303.15	0.7041	1495.6	9.1
303.15	0.8031	1500.6	9.1
303.15	0.9017	1506	9.2
313.15	0.1018	1440.8	8.8
313.15	0.2031	1445.4	8.8
313.15	0.3041	1450.2	8.8
313.15	0.4047	1455	8.9
313.15	0.5049	1459.9	8.9
313.15	0.6047	1464.9	8.9
313.15	0.7041	1470.1	8.9
313.15	0.8031	1475.4	9
313.15	0.9017	1481	9

System: benzenemethanol + 3-chlorobenzenamine; phases: Liquid
Fixed: Pressure, kPa = 101
Property: Mass density, kg/m3 (Liquid); method: Vibrating tube method
Temperature, K	Mole fraction of benzenemethanol	Mass density, kg/m3	uncertainty
303.15	0.1021	1189.69	0.54
303.15	0.2037	1173.42	0.51
303.15	0.3048	1156.94	0.49
303.15	0.4055	1140.31	0.47
303.15	0.5057	1123.48	0.45
303.15	0.6054	1106.48	0.44
303.15	0.7048	1089.33	0.43
303.15	0.8036	1072.05	0.42
303.15	0.902	1054.66	0.41
308.15	0.1021	1184.95	0.54
308.15	0.2037	1168.65	0.51
308.15	0.3048	1152.15	0.49
308.15	0.4055	1135.57	0.46
308.15	0.5057	1118.82	0.45
308.15	0.6054	1101.95	0.44
308.15	0.7048	1084.96	0.43
308.15	0.8036	1067.86	0.42
308.15	0.902	1050.79	0.41
313.15	0.1021	1180.24	0.54
313.15	0.2037	1163.79	0.51
313.15	0.3048	1147.27	0.48
313.15	0.4055	1130.63	0.46
313.15	0.5057	1113.94	0.45
313.15	0.6054	1097.12	0.43
313.15	0.7048	1080.3	0.42
313.15	0.8036	1063.4	0.42
313.15	0.902	1046.44	0.41
318.15	0.1021	1175.53	0.54
318.15	0.2037	1159.09	0.51
318.15	0.3048	1142.57	0.48
318.15	0.4055	1125.95	0.46
318.15	0.5057	1109.34	0.45
318.15	0.6054	1092.63	0.43
318.15	0.7048	1075.88	0.42
318.15	0.8036	1059.13	0.42
318.15	0.902	1042.37	0.41
323.15	0.1021	1170.9	0.53
323.15	0.2037	1154.36	0.5
323.15	0.3048	1137.82	0.48
323.15	0.4055	1121.26	0.46
323.15	0.5057	1104.71	0.44
323.15	0.6054	1088.14	0.43
323.15	0.7048	1071.54	0.42
323.15	0.8036	1054.96	0.42
323.15	0.902	1038.37	0.41

System: benzenemethanol + 3-chlorobenzenamine; phases: Liquid
Fixed: Pressure, kPa = 101
Fixed: Frequency, MHz = 2
Property: Speed of sound, m/s (Liquid); method: Linear variable-path acoustic interferometer
Temperature, K	Mole fraction of benzenemethanol	Speed of sound, m/s	uncertainty
303.15	0.1021	1515.4	9.3
303.15	0.2037	1514.9	9.3
303.15	0.3048	1514.5	9.2
303.15	0.4055	1514.1	9.2
303.15	0.5057	1513.7	9.2
303.15	0.6054	1513.3	9.2
303.15	0.7048	1512.9	9.2
303.15	0.8036	1512.6	9.2
303.15	0.902	1512.3	9.2
313.15	0.1021	1484.3	9.1
313.15	0.2037	1484.6	9.1
313.15	0.3048	1484.9	9.1
313.15	0.4055	1485.2	9.1
313.15	0.5057	1485.5	9.1
313.15	0.6054	1485.8	9.1
313.15	0.7048	1486.1	9
313.15	0.8036	1486.4	9
313.15	0.902	1486.7	9
