Measured thermophysical data. A water - urea - ammonium sulfamate system: Experimental investigation and thermodynamic modelling
Source: Fluid Phase Equilib., 2016, 10.1016/j.fluid.2016.06.021
Compound 1: urea, CH4N2O, InChI=1S/CH4N2O/c2-1(3)4/h(H4,2,3,4), purity 99%
Compound 2: ammonium sulfamate, H6N2O3S, InChI=1S/H3NO3S.H3N/c1-5(2,3)4;/h(H3,1,2,3,4);1H3, purity 99%
Compound 3: water, H2O, InChI=1S/H2O/h1H2, purity 99.8%

System: urea + ammonium sulfamate; phases: Crystal, Liquid, Crystal, Air at 1 atmosphere
Property: Eutectic temperature, K (Crystal); method: Derived from phase diagram analysis
Eutectic temperature, K	uncertainty
338.5	0.5

System: urea + ammonium sulfamate; phases: Crystal, Crystal, Liquid, Air at 1 atmosphere
Property: Eutectic composition: mole fraction of ammonium sulfamate (Crystal); method: Derived from phase diagram analysis
Eutectic composition: mole fraction of ammonium sulfamate	uncertainty
0.388	0.022

System: urea + ammonium sulfamate; phases: Liquid, Crystal
Fixed: Pressure, kPa = 101
Property: Solid-liquid equilibrium temperature, K (Liquid); method: DTA
Mole fraction of ammonium sulfamate	Solid-liquid equilibrium temperature, K	uncertainty
0.0026	406.7	0.8
0.0107	404.9	0.8
0.0274	402.1	0.8
0.0557	395.8	0.8
0.085	390.5	0.8
0.1156	382.2	0.8
0.1831	368.5	0.8
0.2615	356.6	0.8
0.3	351.2	0.8

System: urea + ammonium sulfamate; phases: Liquid, Crystal
Fixed: Pressure, kPa = 101
Property: Solid-liquid equilibrium temperature, K (Liquid); method: DTA
Mole fraction of ammonium sulfamate	Solid-liquid equilibrium temperature, K	uncertainty
0.4929	357.1	0.7
0.5495	361.5	0.7
0.5962	369.7	0.7
0.6752	378.3	0.7
0.7432	385.4	0.7
0.8247	391.2	0.7
0.9122	398.5	0.7

System: urea + ammonium sulfamate; phases: Liquid, Crystal of intercomponent compound 1
Fixed: Pressure, kPa = 101
Property: Solid-liquid equilibrium temperature, K (Liquid); method: DTA
Mole fraction of ammonium sulfamate	Solid-liquid equilibrium temperature, K	uncertainty
0.0026	337.6	0.5
0.0107	338.4	0.4
0.0274	338.9	0.4
0.0557	338.3	0.4
0.085	338.9	0.4
0.1156	338.3	0.4
0.1831	338.4	0.4
0.2615	338.5	0.4
0.3	338.7	0.4
0.4358	338.7	0.4
0.4929	339	0.4
0.5495	338.6	0.4
0.5962	338.6	0.4
0.6752	338.5	0.4
0.6789	338.8	0.4
0.7432	338.2	0.4
0.8247	338.3	0.4
0.9122	337.7	0.4

System: water + ammonium sulfamate; phases: Crystal, Liquid, Crystal, Air at 1 atmosphere
Property: Eutectic temperature, K (Crystal); method: Derived from phase diagram analysis
Eutectic temperature, K	uncertainty
254.9	0.4

System: water + ammonium sulfamate; phases: Crystal, Crystal, Liquid, Air at 1 atmosphere
Property: Eutectic composition: mole fraction of ammonium sulfamate (Crystal); method: Derived from phase diagram analysis
Eutectic composition: mole fraction of ammonium sulfamate	uncertainty
0.2563	0.0167

System: water + ammonium sulfamate; phases: Liquid, Gas
Fixed: Temperature, K = 298.15
Property: Vapor or sublimation pressure, kPa (Liquid); method: Closed cell (Static) method
Mole fraction of ammonium sulfamate	Vapor or sublimation pressure, kPa	uncertainty
0.014	3.1	0.07
0.0341	3	0.07
0.0837	2.78	0.06
0.1414	2.51	0.06
0.1848	2.32	0.06
0.2329	2.13	0.05

System: water + ammonium sulfamate; phases: Liquid, Crystal
Fixed: Pressure, kPa = 101
Property: Solid-liquid equilibrium temperature, K (Liquid); method: DTA
Mole fraction of ammonium sulfamate	Solid-liquid equilibrium temperature, K	uncertainty
0.0087	272.3	0.6
0.0184	271.1	0.6
0.0278	268.8	0.6
0.0396	267.8	0.6
0.0524	264.9	0.7
0.0651	263.1	0.6

System: water + ammonium sulfamate; phases: Liquid, Crystal of intercomponent compound 1
Fixed: Pressure, kPa = 101
Property: Solid-liquid equilibrium temperature, K (Liquid); method: DTA
Mole fraction of ammonium sulfamate	Solid-liquid equilibrium temperature, K	uncertainty
0.0087	254.9	0.4
0.0184	254.8	0.4
0.0278	254.9	0.4
0.0396	254.9	0.4
0.0524	254.9	0.4
0.0651	254.9	0.4
0.1368	254.8	0.4
0.1631	254.9	0.4
0.1991	254.9	0.4
0.2356	254.8	0.4

System: urea + water + ammonium sulfamate; phases: Crystal, Crystal, Crystal, Liquid, Air at 1 atmosphere
Property: Eutectic temperature, K (Crystal); method: Derived from phase diagram analysis
Eutectic temperature, K	uncertainty
244.3	0.4

System: urea + water + ammonium sulfamate; phases: Liquid, Gas
Fixed: Temperature, K = 298.15
Property: Vapor or sublimation pressure, kPa (Liquid); method: Closed cell (Static) method
Mole fraction of water	Mole fraction of ammonium sulfamate	Vapor or sublimation pressure, kPa	uncertainty
0.9535	0.0116	3.01	0.03
0.868	0.033	2.73	0.03
0.7617	0.0596	2.36	0.03
0.9608	0.0196	3	0.03
0.8819	0.059	2.69	0.03
0.7806	0.1097	2.33	0.03
0.9621	0.0284	2.98	0.03
0.8753	0.0624	2.72	0.03
0.8321	0.1259	2.45	0.03

System: urea + water + ammonium sulfamate; phases: Liquid, Crystal of intercomponent compound 1
Fixed: Pressure, kPa = 101
Property: Solid-liquid equilibrium temperature, K (Liquid); method: DTA
Mole fraction of urea	Mole fraction of ammonium sulfamate	Solid-liquid equilibrium temperature, K	uncertainty
0.1974	0.0667	244.2	0.4
0.0785	0.0495	244.3	0.4
0.0324	0.0204	244.4	0.4

System: urea + water + ammonium sulfamate; phases: Liquid, Crystal of intercomponent compound 2
Fixed: Pressure, kPa = 101
Property: Solid-liquid equilibrium temperature, K (Liquid); method: DTA
Mole fraction of urea	Mole fraction of ammonium sulfamate	Solid-liquid equilibrium temperature, K	uncertainty
0.1974	0.0667	249.6	0.6
0.0785	0.0495	257.8	0.6
0.0324	0.0204	264.9	0.6
