Measured thermophysical data. High-pressure vapor liquid and vapor liquid liquid equilibria in the carbon dioxide + 1-heptanol system
Source: Fluid Phase Equilib., 2008, 10.1016/j.fluid.2008.06.020
Compound 1: carbon dioxide, CO2, InChI=1S/CO2/c2-1-3, purity 99.7%
Compound 2: heptan-1-ol, C7H16O, InChI=1S/C7H16O/c1-2-3-4-5-6-7-8/h8H,2-7H2,1H3, purity 98%

System: heptan-1-ol + carbon dioxide; phases: Liquid mixture 1, Liquid mixture 2, Gas
Property: Vapor or sublimation pressure, kPa (Liquid mixture 1); method: Closed cell (Static) method
Temperature, K	Vapor or sublimation pressure, kPa	uncertainty
284.95	44900	1100
285.05	45200	1000
285.45	45700	1000
285.85	46200	1100
286.25	47100	1100
286.75	47800	1000
287.55	48400	1000
288.55	49600	1000
288.95	50100	1100
289.85	51300	1100
290.05	51400	1000
290.35	51900	1100
293.15	55500	1100
293.95	56600	1100
294.15	56800	1100
294.25	56900	1000
294.75	57500	1100
295.15	58100	1100
295.65	58800	1100
296.15	59500	1100
296.55	60000	1000
297.15	60600	1100
297.25	61000	1100
297.85	61500	1000
298.25	62000	1100
298.65	62800	1100
298.95	63400	1100
299.15	63500	1100
299.25	63900	1100
299.95	64800	1100
300.45	65400	1100
300.65	65800	1100
300.95	66100	1000
301.15	66300	1000
301.55	66700	1100
301.65	67100	1100
302.85	68900	1100
303.15	69200	1100
303.25	69600	1100
303.35	69700	1100
304.95	72100	1100
305.35	72600	1100
306.65	74800	1100
306.75	75000	1000
307.05	75200	1100
307.25	75500	1100
308.05	76800	1100
308.15	76900	1100
308.25	77100	1100
308.85	77800	1100
309.15	78600	1100
309.45	78800	1100
309.65	79100	1100
309.95	80300	1100
310.15	80900	1200
310.55	81300	1100

System: heptan-1-ol + carbon dioxide; phases: Liquid mixture 1, Liquid mixture 2, Gas
Property: Mole fraction of carbon dioxide (Liquid mixture 1); method: samples were collected by depressurization and expansion into glass traps by using manually operated valves.
Temperature, K	Mole fraction of carbon dioxide	uncertainty
289.85	0.6448	0.006
290.05	0.645	0.006
293.15	0.6528	0.006
293.95	0.6538	0.006
294.15	0.6543	0.006
294.25	0.654	0.006
295.75	0.6576	0.006
298.65	0.6676	0.006
298.95	0.6685	0.006
299.15	0.6686	0.006
300.95	0.6744	0.006
301.55	0.6739	0.006
303.15	0.6762	0.006
303.25	0.6764	0.006
303.35	0.6781	0.006
306.75	0.6798	0.006
307.05	0.6801	0.006
308.15	0.6824	0.006
308.25	0.6829	0.006
309.15	0.6844	0.006
309.95	0.6816	0.006
310.15	0.6825	0.006

System: heptan-1-ol + carbon dioxide; phases: Liquid mixture 2, Liquid mixture 1, Gas
Property: Mole fraction of carbon dioxide (Liquid mixture 2); method: samples were collected by depressurization and expansion into glass traps by using manually operated valves.
Temperature, K	Mole fraction of carbon dioxide	uncertainty
289.85	0.9664	0.006
290.05	0.9666	0.006
293.15	0.9656	0.006
293.95	0.9678	0.006
294.15	0.9683	0.006
294.25	0.9684	0.006
295.75	0.9686	0.006
298.65	0.9698	0.006
298.95	0.9697	0.006
299.15	0.9702	0.006
300.95	0.9707	0.006
301.55	0.971	0.006
303.15	0.973	0.006
303.25	0.9727	0.006
303.35	0.9723	0.006
306.75	0.9768	0.006
307.05	0.9766	0.006
308.15	0.9786	0.006
308.25	0.9794	0.006
309.15	0.9817	0.006
309.95	0.9829	0.006
310.15	0.984	0.006

System: heptan-1-ol + carbon dioxide; phases: Gas, Liquid mixture 1, Liquid mixture 2
Property: Mole fraction of carbon dioxide (Gas); method: Phase equilibration
Temperature, K	Mole fraction of carbon dioxide	uncertainty
293.15	0.9905	0.006
303.15	0.9914	0.006

System: heptan-1-ol + carbon dioxide; phases: Liquid, Gas
Property: Vapor or sublimation pressure, kPa (Liquid); method: CCELL:UFactor:24
Temperature, K	Mole fraction of carbon dioxide	Vapor or sublimation pressure, kPa	uncertainty
293.15	0.0618	680	130
293.15	0.141	1590	160
293.15	0.2189	2460	210
293.15	0.3308	3580	270
293.15	0.4204	4410	330
293.15	0.4399	4580	350
293.15	0.4666	4820	360
293.15	0.5832	5360	400
303.15	0.0464	580	130
303.15	0.1169	1420	160
303.15	0.2059	2600	220
303.15	0.3087	3880	300
303.15	0.3899	4830	360
303.15	0.4663	5480	410
303.15	0.5214	6010	450
303.15	0.5948	6510	490
313.15	0.136	1680	170
313.15	0.2229	2750	230
313.15	0.3095	3990	310
313.15	0.3845	4790	370
313.15	0.4502	5830	450
313.15	0.4797	6370	480
313.15	0.525	6930	520
313.15	0.6016	7820	590
313.15	0.6571	8630	650
313.15	0.6659	8750	660
313.15	0.706	10050	770
313.15	0.7383	10990	830
313.15	0.7441	11190	850
313.15	0.7655	11550	870
333.15	0.0723	1140	150
333.15	0.1388	2000	190
333.15	0.1992	3020	250
333.15	0.261	4260	340
333.15	0.3108	5180	400
333.15	0.3356	5720	440
333.15	0.4154	6860	520
333.15	0.4738	8150	620
333.15	0.4923	8560	650
333.15	0.5276	9340	710
333.15	0.7396	12920	980
333.15	0.7799	14020	1060
353.15	0.0871	1540	170
353.15	0.1607	2570	220
353.15	0.2245	3570	290
353.15	0.2521	4550	380
353.15	0.3037	5750	450
353.15	0.3617	7230	550
353.15	0.4058	7800	600
353.15	0.4248	8710	670
353.15	0.4492	9080	690
353.15	0.4885	10160	770

System: heptan-1-ol + carbon dioxide; phases: Gas, Liquid
Property: Mole fraction of carbon dioxide (Gas); method: Chromatography
Temperature, K	Mole fraction of carbon dioxide	Mole fraction of carbon dioxide	uncertainty
293.15	0.0618	0.9919	0.006
293.15	0.141	0.9955	0.0045
293.15	0.2189	0.9968	0.0032
293.15	0.3308	0.997	0.003
293.15	0.4204	0.9985	0.0015
293.15	0.4399	0.9983	0.0017
293.15	0.4666	0.9984	0.0016
293.15	0.5832	0.9967	0.0033
303.15	0.0464	0.9935	0.006
303.15	0.1169	0.995	0.005
303.15	0.2059	0.9967	0.0033
303.15	0.3087	0.9978	0.0022
303.15	0.3899	0.9985	0.0015
303.15	0.4663	0.9984	0.0016
303.15	0.5214	0.9972	0.0028
303.15	0.5948	0.9947	0.0053
313.15	0.136	0.9942	0.0058
313.15	0.2229	0.9967	0.0033
313.15	0.3095	0.9971	0.0029
313.15	0.3845	0.9965	0.0035
313.15	0.4502	0.9954	0.0046
313.15	0.4797	0.9947	0.0053
313.15	0.525	0.9938	0.006
313.15	0.6016	0.9923	0.006
313.15	0.6571	0.9904	0.006
313.15	0.6659	0.9895	0.006
313.15	0.706	0.9758	0.0068
313.15	0.7383	0.9506	0.0095
313.15	0.7441	0.9323	0.0095
313.15	0.7655	0.9025	0.0104
333.15	0.0723	0.9967	0.0033
333.15	0.1388	0.9973	0.0027
333.15	0.1992	0.9977	0.0023
333.15	0.261	0.9979	0.0021
333.15	0.3108	0.9979	0.0021
333.15	0.3356	0.9979	0.0021
333.15	0.4154	0.9977	0.0023
333.15	0.4738	0.9973	0.0027
333.15	0.4923	0.9972	0.0028
333.15	0.5276	0.9964	0.0036
333.15	0.7396	0.9676	0.0064
333.15	0.7799	0.9523	0.0065
353.15	0.0871	0.9941	0.0059
353.15	0.1607	0.9959	0.0041
353.15	0.2245	0.9965	0.0035
353.15	0.2521	0.9968	0.0032
353.15	0.3037	0.9971	0.0029
353.15	0.3617	0.9971	0.0029
353.15	0.4058	0.9971	0.0029
353.15	0.4248	0.9971	0.0029
353.15	0.4492	0.997	0.003
353.15	0.4885	0.9965	0.0035

System: heptan-1-ol + carbon dioxide; phases: Liquid mixture 2, Liquid mixture 1
Property: Mole fraction of carbon dioxide (Liquid mixture 2); method: Phase equilibration
Temperature, K	Pressure, kPa	Mole fraction of carbon dioxide	uncertainty
293.15	56000	0.9581	0.006
293.15	58000	0.9621	0.006
293.15	60500	0.958	0.006
293.15	63800	0.955	0.006
293.15	67900	0.9574	0.006
293.15	69500	0.9553	0.006
293.15	73000	0.9573	0.006
293.15	73100	0.9588	0.006
293.15	78100	0.9522	0.006
293.15	81600	0.9545	0.006
293.15	87300	0.955	0.006
293.15	92700	0.9504	0.006
293.15	98700	0.9562	0.006
293.15	102500	0.954	0.006
293.15	106600	0.9534	0.006
293.15	116700	0.9519	0.006
293.15	118600	0.9546	0.006
293.15	121500	0.9472	0.006
293.15	123300	0.9497	0.006
293.15	123900	0.9482	0.006
303.15	75300	0.9712	0.006
303.15	80300	0.9688	0.006
303.15	84400	0.9604	0.006
303.15	90300	0.9512	0.006
303.15	96400	0.9535	0.006
303.15	102700	0.9428	0.006
303.15	105000	0.9389	0.006
303.15	105700	0.9384	0.006

System: heptan-1-ol + carbon dioxide; phases: Liquid mixture 1, Liquid mixture 2
Property: Mole fraction of carbon dioxide (Liquid mixture 1); method: Phase equilibration
Temperature, K	Pressure, kPa	Mole fraction of carbon dioxide	uncertainty
293.15	56000	0.6539	0.006
293.15	58000	0.6651	0.006
293.15	60500	0.6724	0.006
293.15	63800	0.6879	0.0061
293.15	67900	0.7061	0.0061
293.15	69500	0.7175	0.0061
293.15	73000	0.7298	0.006
293.15	73100	0.7297	0.006
293.15	78100	0.7285	0.006
293.15	81600	0.7385	0.006
293.15	87300	0.7376	0.006
293.15	92700	0.7505	0.006
293.15	98700	0.7538	0.006
293.15	102500	0.7623	0.006
293.15	106600	0.7657	0.006
293.15	116700	0.7678	0.006
293.15	118600	0.7725	0.006
293.15	121500	0.7712	0.006
293.15	123300	0.7753	0.006
293.15	123900	0.7758	0.006
303.15	75300	0.6894	0.0061
303.15	80300	0.6973	0.006
303.15	84400	0.7085	0.006
303.15	90300	0.7197	0.006
303.15	96400	0.7261	0.006
303.15	102700	0.7357	0.006
303.15	105000	0.7461	0.006
303.15	105700	0.7474	0.006
