Measured thermophysical data. Solubility of sodium diclofenac in different solvents
Source: Fluid Phase Equilib., 2007, 10.1016/j.fluid.2007.07.020
Compound 1: sodium diclofenac, C14H10Cl2NNaO2, InChI=1S/C14H11Cl2NO2.Na/c15-10-5-3-6-11(16)14(10)17-12-7-2-1-4-9(12)8-13(18)19;/h1-7,17H,8H2,(H,18,19);/q;+1/p-1
Compound 2: acetone, C3H6O, InChI=1S/C3H6O/c1-3(2)4/h1-2H3, purity 99.8%
Compound 3: ethyl acetate, C4H8O2, InChI=1S/C4H8O2/c1-3-6-4(2)5/h3H2,1-2H3, purity 99.8%
Compound 4: dimethyl sulfoxide, C2H6OS, InChI=1S/C2H6OS/c1-4(2)3/h1-2H3, purity 99.5%

System: sodium diclofenac; phases: Crystal, Liquid, Air at 1 atmosphere
Property: Molar enthalpy of transition or fusion, kJ/mol (Crystal); method: DSC
Molar enthalpy of transition or fusion, kJ/mol	uncertainty
31.812991	6.3625982

System: sodium diclofenac; phases: Crystal, Liquid, Air at 1 atmosphere
Property: Molar enthalpy of transition or fusion, kJ/mol (Crystal); method: DSC
Molar enthalpy of transition or fusion, kJ/mol	uncertainty
39.76623875	7.95324775

System: sodium diclofenac; phases: Crystal, Liquid, Air at 1 atmosphere
Property: Normal melting temperature, K (Crystal); method: DTA
Normal melting temperature, K	uncertainty
560	3

System: dimethyl sulfoxide + sodium diclofenac; phases: Liquid, Crystal
Fixed: Pressure, kPa = 101.3
Property: Mass fraction of sodium diclofenac (Liquid); method: Spectrophotometer
Temperature, K	Mass fraction of sodium diclofenac	uncertainty
293.15	0.112	0.005
298.15	0.135	0.012
303.15	0.151	0.016
308.15	0.182	0.005
313.15	0.212	0.006

System: ethyl acetate + sodium diclofenac; phases: Liquid, Crystal
Fixed: Pressure, kPa = 101.3
Property: Mass fraction of sodium diclofenac (Liquid); method: Spectrophotometer
Temperature, K	Mass fraction of sodium diclofenac	uncertainty
293.15	0.00119	0.00013
298.15	0.00126	0.00011
303.15	0.0014	6e-05
308.15	0.0016	0.00013

System: acetone + sodium diclofenac; phases: Liquid, Crystal
Fixed: Pressure, kPa = 101.3
Property: Mass fraction of sodium diclofenac (Liquid); method: Spectrophotometer
Temperature, K	Mass fraction of sodium diclofenac	uncertainty
293.15	0.00449	0.00025
298.15	0.00445	0.00032
303.15	0.00467	0.00031
308.15	0.00488	0.00018
313.15	0.00525	0.00027
