Measured thermophysical data. Solubility and partition coefficient of p-toluic acid in p-xylene and water
Source: Fluid Phase Equilib., 2013, 10.1016/j.fluid.2012.12.009
Compound 1: 4-methylbenzoic acid, C8H8O2, InChI=1S/C8H8O2/c1-6-2-4-7(5-3-6)8(9)10/h2-5H,1H3,(H,9,10), purity 99%
Compound 2: 1,4-dimethylbenzene, C8H10, InChI=1S/C8H10/c1-7-3-5-8(2)6-4-7/h3-6H,1-2H3, purity 99%
Compound 3: water, H2O, InChI=1S/H2O/h1H2, purity 99.9%

System: 4-methylbenzoic acid + 1,4-dimethylbenzene; phases: Liquid, Crystal
Fixed: Pressure, kPa = 100
Property: Mole fraction of 4-methylbenzoic acid (Liquid); method: Chromatography
Temperature, K	Mole fraction of 4-methylbenzoic acid	uncertainty
303.2	0.01332	0.001
308.2	0.01525	0.001
313.2	0.01776	0.00101
318.2	0.02338	0.00102
323.2	0.0284	0.00103
328.2	0.03544	0.00104
333.2	0.04217	0.00107
338.2	0.05326	0.00115
343.2	0.06917	0.00115
348.2	0.07925	0.00115
353.2	0.09555	0.00123

System: 4-methylbenzoic acid + 1,4-dimethylbenzene + water; phases: Liquid mixture 2, Liquid mixture 1
Fixed: Pressure, kPa = 100
Property: Mole fraction of water (Liquid mixture 2); method: Chromatography
Property: Mole fraction of water (Liquid mixture 1); method: Chromatography
Property: Mole fraction of 4-methylbenzoic acid (Liquid mixture 1); method: Chromatography
Temperature, K	Mole fraction of 4-methylbenzoic acid	Mole fraction of water	uncertainty	Mole fraction of water	uncertainty	Mole fraction of 4-methylbenzoic acid	uncertainty
303.2	3.34e-06	2.132e-05	2.132e-05	2.714e-05	2.714e-05	6.03e-06	
313.2	3.54e-06	2.361e-05	2.361e-05	3.483e-05	3.483e-05	5.97e-06	
323.2	3.61e-06	2.664e-05	2.664e-05	4.751e-05	4.751e-05	5.91e-06	
333.2	3.63e-06	3.06e-05	3.06e-05	6.51e-05	6.51e-05	5.87e-06	
343.2	3.65e-06	3.692e-05	3.692e-05	8.701e-05	8.701e-05	5.83e-06	
353.2	3.73e-06	4.463e-05	4.463e-05	0.000115	0.000115	5.79e-06	
303.2	8.72e-06	2.132e-05	2.132e-05	2.714e-05	2.714e-05	3.015e-05	
313.2	9.64e-06	2.361e-05	2.361e-05	3.483e-05	3.483e-05	3.035e-05	
323.2	1.029e-05	2.664e-05	2.664e-05	4.751e-05	4.751e-05	2.976e-05	
333.2	1.04e-05	3.06e-05	3.06e-05	6.51e-05	6.51e-05	2.786e-05	
343.2	1.109e-05	3.692e-05	3.692e-05	8.701e-05	8.701e-05	2.768e-05	
353.2	1.118e-05	4.463e-05	4.463e-05	0.000115	0.000115	2.719e-05	
303.2	1.017e-05	2.132e-05	2.132e-05	2.714e-05	2.714e-05	4.102e-05	
313.2	1.124e-05	2.361e-05	2.361e-05	3.483e-05	3.483e-05	4.046e-05	
323.2	1.203e-05	2.664e-05	2.664e-05	4.751e-05	4.751e-05	3.967e-05	
333.2	1.223e-05	3.06e-05	3.06e-05	6.51e-05	6.51e-05	3.682e-05	
343.2	1.293e-05	3.692e-05	3.692e-05	8.701e-05	8.701e-05	3.629e-05	
353.2	1.3e-05	4.463e-05	4.463e-05	0.000115	0.000115	3.449e-05	
303.2	1.395e-05	2.132e-05	2.132e-05	2.714e-05	2.714e-05	7.104e-05	
313.2	1.479e-05	2.361e-05	2.361e-05	3.483e-05	3.483e-05	6.923e-05	
323.2	1.626e-05	2.664e-05	2.664e-05	4.751e-05	4.751e-05	6.837e-05	
333.2	1.758e-05	3.06e-05	3.06e-05	6.51e-05	6.51e-05	6.759e-05	
343.2	1.899e-05	3.692e-05	3.692e-05	8.701e-05	8.701e-05	6.676e-05	
353.2	2.108e-05	4.463e-05	4.463e-05	0.000115	0.000115	6.569e-05	
303.2	1.482e-05	2.132e-05	2.132e-05	2.714e-05	2.714e-05	8.831e-05	
313.2	1.6e-05	2.361e-05	2.361e-05	3.483e-05	3.483e-05	8.678e-05	
323.2	1.775e-05	2.664e-05	2.664e-05	4.751e-05	4.751e-05	8.124e-05	
333.2	1.912e-05	3.06e-05	3.06e-05	6.51e-05	6.51e-05	7.808e-05	
343.2	2.061e-05	3.692e-05	3.692e-05	8.701e-05	8.701e-05	7.724e-05	
353.2	2.296e-05	4.463e-05	4.463e-05	0.000115	0.000115	7.634e-05	
303.2	2.205e-05	2.132e-05	2.132e-05	2.714e-05	2.714e-05	0.000195	
313.2	2.459e-05	2.361e-05	2.361e-05	3.483e-05	3.483e-05	0.0001901	
323.2	2.721e-05	2.664e-05	2.664e-05	4.751e-05	4.751e-05	0.0001823	
333.2	3.044e-05	3.06e-05	3.06e-05	6.51e-05	6.51e-05	0.0001787	
343.2	3.274e-05	3.692e-05	3.692e-05	8.701e-05	8.701e-05	0.0001656	
353.2	3.678e-05	4.463e-05	4.463e-05	0.000115	0.000115	0.0001595	

System: 4-methylbenzoic acid + water; phases: Liquid, Crystal
Fixed: Pressure, kPa = 100
Property: Mole fraction of 4-methylbenzoic acid (Liquid); method: Chromatography
Temperature, K	Mole fraction of 4-methylbenzoic acid	uncertainty
303.2	6.43e-05	6.43e-05
308.2	7.12e-05	7.12e-05
313.2	8.05e-05	8.05e-05
318.2	0.0001023	0.0001023
323.2	0.0001202	0.0001202
328.2	0.0001461	0.0001461
333.2	0.0001687	0.0001687
338.2	0.0002074	0.0002074
343.2	0.0002556	0.0002556
348.2	0.0002926	0.0002926
353.2	0.0003433	0.0003433
