Measured thermophysical data. Liquid-liquid equilibrium for ternary systems, methyl isobutyl ketone +(catechol, resorcinol and hydroquinone) + water at 333.15 K, 343.15 K and 353.15 K
Source: Fluid Phase Equilib., 2017, 10.1016/j.fluid.2016.11.005
Compound 1: 4-methylpentan-2-one, C6H12O, InChI=1S/C6H12O/c1-5(2)4-6(3)7/h5H,4H2,1-3H3, purity 99%
Compound 2: 1,2-benzenediol, C6H6O2, InChI=1S/C6H6O2/c7-5-3-1-2-4-6(5)8/h1-4,7-8H, purity 99%
Compound 3: water, H2O, InChI=1S/H2O/h1H2
Compound 4: 1,3-benzenediol, C6H6O2, InChI=1S/C6H6O2/c7-5-2-1-3-6(8)4-5/h1-4,7-8H, purity 99%
Compound 5: 1,4-benzenediol, C6H6O2, InChI=1S/C6H6O2/c7-5-1-2-6(8)4-3-5/h1-4,7-8H, purity 99%

System: 4-methylpentan-2-one + 1,2-benzenediol + water; phases: Liquid mixture 2, Liquid mixture 1
Fixed: Pressure, kPa = 100
Property: Mole fraction of 4-methylpentan-2-one (Liquid mixture 2); method: Chromatography
Property: Mole fraction of 1,2-benzenediol (Liquid mixture 1); method: Chromatography
Property: Mole fraction of 4-methylpentan-2-one (Liquid mixture 1); method: Chromatography
Temperature, K	Mole fraction of 1,2-benzenediol	Mole fraction of 4-methylpentan-2-one	uncertainty	Mole fraction of 1,2-benzenediol	uncertainty	Mole fraction of 4-methylpentan-2-one	uncertainty
333.15	0.0036	0.001	0.001	0.1486	0.002	0.3423	
333.15	0.0028	0.001	0.001	0.1269	0.0019	0.4009	
333.15	0.0025	0.0011	0.0011	0.1168	0.0019	0.427	
333.15	0.002	0.0012	0.0012	0.1024	0.0019	0.4632	
333.15	0.0017	0.0014	0.0014	0.091	0.0018	0.4912	
333.15	0.0014	0.0015	0.0015	0.0789	0.0018	0.5342	
333.15	0.0012	0.0016	0.0016	0.0655	0.0018	0.5514	
333.15	0.0008	0.0018	0.0016	0.047	0.0018	0.6012	
333.15	0.0003	0.002	0.0016	0.0211	0.0017	0.6675	
333.15	0	0.0023	0.0016	0		0.8109	
343.15	0.004	0.001	0.001	0.1411	0.002	0.3225	
343.15	0.0029	0.001	0.001	0.1208	0.0019	0.3838	
343.15	0.0026	0.0011	0.0011	0.1121	0.0019	0.4088	
343.15	0.0022	0.0011	0.0011	0.101	0.0019	0.4397	
343.15	0.0019	0.0012	0.0012	0.0901	0.0018	0.4693	
343.15	0.0015	0.0014	0.0014	0.078	0.0018	0.5012	
343.15	0.0013	0.0015	0.0015	0.0685	0.0018	0.5258	
343.15	0.0008	0.0017	0.0016	0.0466	0.0017	0.5732	
343.15	0.0004	0.0018	0.0016	0.0236	0.0017	0.6521	
343.15	0	0.0022	0.0016	0		0.741	
353.15	0.0043	0.0009	0.0009	0.1399	0.0019	0.3099	
353.15	0.0033	0.001	0.001	0.1238	0.0019	0.3719	
353.15	0.0029	0.0011	0.0011	0.1126	0.0019	0.3981	
353.15	0.0025	0.0011	0.0011	0.102	0.0018	0.4227	
353.15	0.0022	0.0012	0.0012	0.0951	0.0018	0.4639	
353.15	0.0018	0.0013	0.0013	0.0843	0.0019	0.4882	
353.15	0.0015	0.0014	0.0014	0.0705	0.0018	0.5186	
353.15	0.001	0.0015	0.0015	0.0514	0.0018	0.5597	
353.15	0.0005	0.0018	0.0016	0.0271	0.0017	0.6224	
353.15	0	0.0019	0.0016	0		0.6924	

System: 4-methylpentan-2-one + 1,3-benzenediol + water; phases: Liquid mixture 2, Liquid mixture 1
Fixed: Pressure, kPa = 100
Property: Mole fraction of 4-methylpentan-2-one (Liquid mixture 2); method: Chromatography
Property: Mole fraction of 1,3-benzenediol (Liquid mixture 1); method: Chromatography
Property: Mole fraction of 4-methylpentan-2-one (Liquid mixture 1); method: Chromatography
Temperature, K	Mole fraction of 1,3-benzenediol	Mole fraction of 4-methylpentan-2-one	uncertainty	Mole fraction of 1,3-benzenediol	uncertainty	Mole fraction of 4-methylpentan-2-one	uncertainty
333.15	0.0034	0.001	0.001	0.147	0.002	0.4106	
333.15	0.0026	0.001	0.001	0.1238	0.0019	0.4722	
333.15	0.0023	0.0012	0.0012	0.113	0.0019	0.5004	
333.15	0.002	0.0012	0.0012	0.1019	0.0019	0.5251	
333.15	0.0017	0.0014	0.0014	0.0879	0.0019	0.5495	
333.15	0.0013	0.0016	0.0016	0.0712	0.0018	0.5873	
333.15	0.001	0.0017	0.0016	0.0602	0.0017	0.6197	
333.15	0.0007	0.0018	0.0016	0.0412	0.0017	0.6901	
333.15	0.0004	0.0019	0.0016	0.0231	0.0018	0.7325	
333.15	0	0.0023	0.0016	0		0.8109	
343.15	0.0039	0.001	0.001	0.1509	0.002	0.3796	
343.15	0.0031	0.001	0.001	0.132	0.0019	0.431	
343.15	0.0028	0.0011	0.0011	0.1216	0.002	0.4606	
343.15	0.0024	0.0012	0.0012	0.1087	0.002	0.4837	
343.15	0.002	0.0014	0.0014	0.096	0.0019	0.5083	
343.15	0.0018	0.0015	0.0015	0.0869	0.0019	0.5333	
343.15	0.0012	0.0017	0.0016	0.0616	0.0018	0.5849	
343.15	0.0007	0.0018	0.0016	0.0412	0.0017	0.6494	
343.15	0.0005	0.0019	0.0016	0.0284	0.0018	0.6808	
343.15	0	0.0022	0.0016	0		0.741	
353.15	0.0041	0.0009	0.0009	0.1519	0.0022	0.3752	
353.15	0.0034	0.001	0.001	0.1303	0.002	0.4114	
353.15	0.003	0.0011	0.0011	0.1189	0.002	0.4406	
353.15	0.0027	0.0012	0.0012	0.1078	0.0019	0.4572	
353.15	0.0023	0.0014	0.0014	0.0967	0.0018	0.4865	
353.15	0.002	0.0015	0.0015	0.0904	0.0018	0.5131	
353.15	0.0015	0.0016	0.0016	0.0675	0.0018	0.5597	
353.15	0.0008	0.0017	0.0016	0.0438	0.0018	0.614	
353.15	0.0006	0.0018	0.0016	0.0307	0.0019	0.6533	
353.15	0	0.0019	0.0016	0		0.6924	

System: 4-methylpentan-2-one + 1,4-benzenediol + water; phases: Liquid mixture 2, Liquid mixture 1
Fixed: Pressure, kPa = 100
Property: Mole fraction of 4-methylpentan-2-one (Liquid mixture 2); method: Chromatography
Property: Mole fraction of 1,4-benzenediol (Liquid mixture 1); method: Chromatography
Property: Mole fraction of 4-methylpentan-2-one (Liquid mixture 1); method: Chromatography
Temperature, K	Mole fraction of 1,4-benzenediol	Mole fraction of 4-methylpentan-2-one	uncertainty	Mole fraction of 1,4-benzenediol	uncertainty	Mole fraction of 4-methylpentan-2-one	uncertainty
333.15	0.0041	0.0012	0.0012	0.0986	0.0018	0.4524	
333.15	0.0036	0.0013	0.0013	0.0913	0.0018	0.4773	
333.15	0.0034	0.0014	0.0014	0.0885	0.0018	0.4871	
333.15	0.0029	0.0015	0.0015	0.0802	0.0018	0.5143	
333.15	0.0023	0.0016	0.0016	0.0684	0.0018	0.5515	
333.15	0.0017	0.0017	0.0016	0.0556	0.0017	0.5906	
333.15	0.0015	0.0018	0.0016	0.0483	0.0017	0.612	
333.15	0.0009	0.0019	0.0016	0.0335	0.0017	0.6543	
333.15	0.0004	0.002	0.0016	0.0165	0.0016	0.7011	
333.15	0	0.0023	0.0016	0		0.8109	
343.15	0.0047	0.0012	0.0012	0.0976	0.0019	0.4346	
343.15	0.0041	0.0013	0.0013	0.0902	0.0018	0.4546	
343.15	0.0039	0.0014	0.0014	0.088	0.0019	0.4608	
343.15	0.0033	0.0015	0.0015	0.081	0.0017	0.5074	
343.15	0.0026	0.0016	0.0016	0.0692	0.0018	0.5383	
343.15	0.002	0.0016	0.0016	0.0556	0.0018	0.5734	
343.15	0.0016	0.0017	0.0016	0.0482	0.0018	0.5921	
343.15	0.0012	0.0018	0.0016	0.036	0.0017	0.6226	
343.15	0.0005	0.0019	0.0016	0.0189	0.0017	0.6967	
343.15	0	0.0022	0.0016	0		0.741	
353.15	0.0049	0.0012	0.0012	0.0985	0.0018	0.4304	
353.15	0.0044	0.0012	0.0012	0.091	0.0018	0.452	
353.15	0.0041	0.0013	0.0013	0.0874	0.0018	0.4606	
353.15	0.0036	0.0014	0.0014	0.0804	0.0018	0.4951	
353.15	0.0029	0.0016	0.0016	0.0689	0.0018	0.5211	
353.15	0.0023	0.0016	0.0016	0.056	0.0018	0.5499	
353.15	0.002	0.0017	0.0016	0.0517	0.0017	0.5701	
353.15	0.0014	0.0018	0.0016	0.0392	0.0017	0.6182	
353.15	0.0007	0.0019	0.0016	0.0207	0.0152	0.6902	
353.15	0	0.0019	0.0016	0		0.6924	

System: 4-methylpentan-2-one + water; phases: Liquid mixture 2, Liquid mixture 1
Fixed: Pressure, kPa = 100
Property: Mole fraction of 4-methylpentan-2-one (Liquid mixture 2); method: Chromatography
Temperature, K	Mole fraction of 4-methylpentan-2-one	uncertainty
333.15	0.0023	0.0016
343.15	0.0022	0.0016
353.15	0.0019	0.0016

System: 4-methylpentan-2-one + water; phases: Liquid mixture 1, Liquid mixture 2
Fixed: Pressure, kPa = 100
Property: Mole fraction of 4-methylpentan-2-one (Liquid mixture 1); method: Chromatography
Temperature, K	Mole fraction of 4-methylpentan-2-one	uncertainty
333.15	0.8109	
343.15	0.741	
353.15	0.6924	
