Measured thermophysical data. Conductivities for ZnSO4/MgSO4 + sucrose/trehalose + water systems at 298.15 K
Source: Fluid Phase Equilib., 2015, 10.1016/j.fluid.2014.12.038
Compound 1: D-sucrose, C12H22O11, InChI=1S/C12H22O11/c13-1-4-6(16)8(18)9(19)11(21-4)23-12(3-15)10(20)7(17)5(2-14)22-12/h4-11,13-20H,1-3H2/t4-,5-,6-,7-,8+,9-,10+,11-,12+/m1/s1, purity 99.5%
Compound 2: .alpha.-trehalose, C12H22O11, InChI=1S/C12H22O11/c13-1-3-5(15)7(17)9(19)11(21-3)23-12-10(20)8(18)6(16)4(2-14)22-12/h3-20H,1-2H2/t3-,4-,5-,6-,7+,8+,9-,10-,11-,12-/m1/s1, purity 99.5%
Compound 3: zinc sulfate, O4SZn, InChI=1S/H2O4S.Zn/c1-5(2,3)4;/h(H2,1,2,3,4);/q;+2/p-2, purity 99.5%
Compound 4: magnesium sulfate, MgO4S, InChI=1S/Mg.H2O4S/c;1-5(2,3)4/h;(H2,1,2,3,4)/q+2;/p-2, purity 99.5%
Compound 5: water, H2O, InChI=1S/H2O/h1H2, purity 99.8%

System: water + zinc sulfate; phases: Liquid
Fixed: Pressure, kPa = 101
Fixed: Temperature, K = 298.15
Property: Molar conductivity, S*m2/mol (Liquid); method: Alternating current cell with electrodes
Amount concentration (molarity), mol/dm3 of zinc sulfate	Molar conductivity, S*m2/mol	uncertainty
7.857e-05	0.02604	0.00026
0.00015923	0.02546	0.00026
0.00023629	0.02496	0.00024
0.00031127	0.02454	0.00024
0.0003854	0.0242	0.00024
0.00045421	0.02388	0.00024
0.00053113	0.0236	0.00024
0.00063391	0.02322	0.00024
0.00072204	0.02292	0.00022
0.00081407	0.02266	0.00022

System: D-sucrose + water + zinc sulfate; phases: Liquid
Fixed: Pressure, kPa = 101
Fixed: Temperature, K = 298.15
Property: Molar conductivity, S*m2/mol (Liquid); method: Alternating current cell with electrodes
Amount concentration (molarity), mol/dm3 of zinc sulfate	Solvent: Molality, mol/kg of D-sucrose	Molar conductivity, S*m2/mol	uncertainty
7.338e-05	0.05	0.02496	0.00024
0.00014528	0.05	0.02442	0.00024
0.0002223	0.05	0.02392	0.00024
0.0002911	0.05	0.02352	0.00024
0.00036272	0.05	0.02318	0.00024
0.00042966	0.05	0.0229	0.00024
0.00049794	0.05	0.02262	0.00022
0.00056355	0.05	0.02238	0.00022
0.00065407	0.05	0.02208	0.00022
0.00075426	0.05	0.02178	0.00022
9.056e-05	0.1	0.02404	0.00024
0.00018268	0.1	0.02332	0.00024
0.00027407	0.1	0.02282	0.00024
0.00035963	0.1	0.02242	0.00024
0.00044127	0.1	0.02208	0.00022
0.00052308	0.1	0.02178	0.00044
0.00060346	0.1	0.0215	0.00026
0.00068468	0.1	0.02124	0.00022
0.00077129	0.1	0.021	0.00024
0.00085485	0.1	0.02076	0.00022
9.37e-05	0.15	0.02294	0.00024
0.00019371	0.15	0.02228	0.00022
0.00028135	0.15	0.0218	0.00022
0.00036388	0.15	0.02144	0.00022
0.00044453	0.15	0.02112	0.00024
0.00052433	0.15	0.02084	0.00044
0.00059968	0.15	0.0206	0.00026
0.00067641	0.15	0.02036	0.0002
0.00076586	0.15	0.02012	0.00024
0.00087463	0.15	0.01984	0.0002
0.00020993	0.2	0.02132	0.00022
0.00029003	0.2	0.02092	0.00022
0.00036563	0.2	0.0206	0.00028
0.00043917	0.2	0.02034	0.00022
0.0005097	0.2	0.02008	0.0002
0.00057995	0.2	0.01986	0.0002
0.000647	0.2	0.01966	0.0002
0.00071906	0.2	0.01946	0.0002
0.00077575	0.2	0.0193	0.0002
0.00085584	0.2	0.01908	0.0002
0.00016466	0.25	0.02086	0.00022
0.00024848	0.25	0.02042	0.00022
0.00032822	0.25	0.02004	0.0002
0.00040452	0.25	0.01974	0.00024
0.0004804	0.25	0.01946	0.00032
0.00055661	0.25	0.0192	0.0002
0.00063102	0.25	0.01896	0.00018
0.00075854	0.25	0.01862	0.00018
0.00087276	0.25	0.01834	0.00018
0.00098423	0.25	0.01808	0.00018
0.00016127	0.3	0.02004	0.0002
0.00024456	0.3	0.0196	0.0002
0.00040259	0.3	0.01904	0.00024
0.00048174	0.3	0.01874	0.00032
0.000564	0.3	0.01846	0.0002
0.00065755	0.3	0.01818	0.00018
0.00077781	0.3	0.01788	0.00018
0.00089512	0.3	0.01758	0.00018
0.00101383	0.3	0.01734	0.00018
0.00107155	0.3	0.01722	0.00018

System: .alpha.-trehalose + water + zinc sulfate; phases: Liquid
Fixed: Pressure, kPa = 101
Fixed: Temperature, K = 298.15
Property: Molar conductivity, S*m2/mol (Liquid); method: Alternating current cell with electrodes
Amount concentration (molarity), mol/dm3 of zinc sulfate	Solvent: Molality, mol/kg of .alpha.-trehalose	Molar conductivity, S*m2/mol	uncertainty
9.45e-05	0.05	0.02472	0.00024
0.00017635	0.05	0.02416	0.00024
0.00025024	0.05	0.02372	0.00024
0.00033557	0.05	0.02332	0.00024
0.00040812	0.05	0.02302	0.00028
0.00047768	0.05	0.02272	0.00024
0.00055483	0.05	0.02242	0.00026
0.00062904	0.05	0.02218	0.00026
0.00070083	0.05	0.02194	0.00022
0.0008395	0.05	0.02152	0.00022
8.461e-05	0.1	0.02386	0.00024
0.00015892	0.1	0.02332	0.00024
0.00023922	0.1	0.02282	0.00022
0.00032321	0.1	0.02242	0.00026
0.00040547	0.1	0.02202	0.00022
0.00048257	0.1	0.02174	0.00024
0.00055929	0.1	0.02146	0.00024
0.00063427	0.1	0.0212	0.00024
0.00071095	0.1	0.02096	0.00022
0.00080941	0.1	0.02066	0.0002
9.393e-05	0.15	0.02278	0.00022
0.00017415	0.15	0.0222	0.00024
0.00024945	0.15	0.0218	0.00022
0.00032585	0.15	0.02142	0.00024
0.00039851	0.15	0.02108	0.00022
0.00047021	0.15	0.0208	0.0002
0.00053928	0.15	0.02054	0.0002
0.00061515	0.15	0.0203	0.00022
0.00068819	0.15	0.02006	0.0002
0.00077574	0.15	0.0198	0.0002
8.21e-05	0.2	0.02186	0.00022
0.00017188	0.2	0.0213	0.00022
0.00024127	0.2	0.02092	0.00022
0.00031178	0.2	0.02054	0.0002
0.00038245	0.2	0.02024	0.0002
0.0004595	0.2	0.01994	0.0002
0.00053996	0.2	0.01966	0.0002
0.00062503	0.2	0.0194	0.0002
0.0007095	0.2	0.01914	0.00024
0.00082565	0.2	0.01884	0.0002
8.932e-05	0.25	0.02092	0.0002
0.00018417	0.25	0.02028	0.0002
0.00026647	0.25	0.01988	0.0002
0.00034346	0.25	0.01952	0.0002
0.00042586	0.25	0.01922	0.0002
0.00050462	0.25	0.01894	0.00018
0.0005876	0.25	0.01868	0.00018
0.00070526	0.25	0.01834	0.00018
0.00081458	0.25	0.01806	0.00018
0.00090593	0.25	0.01784	0.00022
9.369e-05	0.3	0.01996	0.0002
0.00019023	0.3	0.0194	0.0002
0.00028577	0.3	0.01894	0.00018
0.00036923	0.3	0.0186	0.00018
0.00045488	0.3	0.01828	0.00018
0.00053643	0.3	0.01802	0.00018
0.00061565	0.3	0.0178	0.00018
0.0006991	0.3	0.01756	0.0002
0.0007949	0.3	0.01732	0.00018
0.00091226	0.3	0.01704	0.0002

System: magnesium sulfate + water; phases: Liquid
Fixed: Pressure, kPa = 101
Fixed: Temperature, K = 298.15
Property: Molar conductivity, S*m2/mol (Liquid); method: Alternating current cell with electrodes
Amount concentration (molarity), mol/dm3 of magnesium sulfate	Molar conductivity, S*m2/mol	uncertainty
7.543e-05	0.0254	0.00026
0.00013583	0.02502	0.00026
0.00019389	0.02468	0.00024
0.00025718	0.02432	0.00024
0.00032626	0.02402	0.00024
0.00046741	0.02358	0.00024
0.00054232	0.02332	0.00024
0.00061704	0.02308	0.00024
0.0007054	0.02284	0.00022
0.00080752	0.02256	0.00022

System: D-sucrose + magnesium sulfate + water; phases: Liquid
Fixed: Pressure, kPa = 101
Fixed: Temperature, K = 298.15
Property: Molar conductivity, S*m2/mol (Liquid); method: Alternating current cell with electrodes
Amount concentration (molarity), mol/dm3 of magnesium sulfate	Solvent: Molality, mol/kg of D-sucrose	Molar conductivity, S*m2/mol	uncertainty
7.532e-05	0.05	0.02444	0.00024
0.00015364	0.05	0.02394	0.00024
0.00022382	0.05	0.02354	0.00024
0.00028951	0.05	0.02326	0.00024
0.00036269	0.05	0.02296	0.00024
0.00043186	0.05	0.02272	0.00022
0.00049518	0.05	0.02248	0.00022
0.00056787	0.05	0.02226	0.00022
0.00065804	0.05	0.022	0.00022
0.00074609	0.05	0.02178	0.00022
0.00010082	0.1	0.02344	0.00024
0.00019616	0.1	0.02282	0.00024
0.00029021	0.1	0.02236	0.00022
0.00037918	0.1	0.02204	0.00022
0.00046772	0.1	0.02172	0.00022
0.00055427	0.1	0.02144	0.00022
0.00062737	0.1	0.02124	0.00022
0.00070056	0.1	0.02104	0.00022
0.00077448	0.1	0.02086	0.00024
0.00085866	0.1	0.02066	0.00022
9.919e-05	0.15	0.0225	0.00022
0.00018985	0.15	0.02194	0.00022
0.000278	0.15	0.02152	0.00022
0.00036407	0.15	0.02118	0.00022
0.0004437	0.15	0.02092	0.0002
0.00052675	0.15	0.02066	0.0002
0.00060062	0.15	0.02044	0.0002
0.00068322	0.15	0.02022	0.0002
0.00076861	0.15	0.02	0.0002
0.00086666	0.15	0.01978	0.00022
9.632e-05	0.2	0.02164	0.00022
0.00019666	0.2	0.02108	0.00022
0.00029543	0.2	0.02064	0.00022
0.00038394	0.2	0.02032	0.00028
0.00047055	0.2	0.02002	0.0002
0.00056168	0.2	0.01976	0.00022
0.00065671	0.2	0.01948	0.0002
0.00074991	0.2	0.01926	0.0002
0.00083775	0.2	0.01906	0.0002
0.00092188	0.2	0.01888	0.0003
0.00010034	0.25	0.02082	0.0002
0.00019451	0.25	0.02032	0.0002
0.00029095	0.25	0.01988	0.0002
0.00038552	0.25	0.01952	0.00028
0.00047828	0.25	0.01924	0.0002
0.00056709	0.25	0.01898	0.00022
0.00064677	0.25	0.01878	0.0002
0.00072618	0.25	0.0186	0.00018
0.00080642	0.25	0.01842	0.00018
0.00091905	0.25	0.0182	0.00028
9.375e-05	0.3	0.02014	0.0002
0.00018972	0.3	0.01954	0.0002
0.00028612	0.3	0.01914	0.0002
0.00037982	0.3	0.01882	0.0002
0.00046465	0.3	0.01858	0.00018
0.00056308	0.3	0.0183	0.0002
0.00065297	0.3	0.01806	0.0002
0.0007418	0.3	0.01788	0.00018
0.00084675	0.3	0.01766	0.00018
0.00094349	0.3	0.01746	0.00018

System: .alpha.-trehalose + magnesium sulfate + water; phases: Liquid
Fixed: Pressure, kPa = 101
Fixed: Temperature, K = 298.15
Property: Molar conductivity, S*m2/mol (Liquid); method: Alternating current cell with electrodes
Amount concentration (molarity), mol/dm3 of magnesium sulfate	Solvent: Molality, mol/kg of .alpha.-trehalose	Molar conductivity, S*m2/mol	uncertainty
9.143e-05	0.05	0.02422	0.00024
0.00017636	0.05	0.02378	0.00024
0.00025882	0.05	0.02334	0.00024
0.00034325	0.05	0.02296	0.00024
0.00042501	0.05	0.02264	0.00046
0.0005009	0.05	0.02238	0.00024
0.00057109	0.05	0.02216	0.00022
0.00063808	0.05	0.02196	0.00022
0.00069872	0.05	0.0218	0.00022
0.00077948	0.05	0.02158	0.00024
0.00010428	0.1	0.0231	0.00024
0.00018763	0.1	0.0226	0.00022
0.00026665	0.1	0.02224	0.00022
0.00035114	0.1	0.02186	0.00022
0.00042393	0.1	0.0216	0.00046
0.00049403	0.1	0.02136	0.00022
0.00055538	0.1	0.02118	0.00022
0.00062852	0.1	0.02096	0.00022
0.00071129	0.1	0.02074	0.0002
0.00078733	0.1	0.02056	0.00022
8.848e-05	0.15	0.02228	0.00022
0.00017938	0.15	0.0216	0.00022
0.0002698	0.15	0.0212	0.00024
0.00035681	0.15	0.02088	0.00022
0.00044517	0.15	0.02058	0.0002
0.00051326	0.15	0.02036	0.00022
0.00058273	0.15	0.02016	0.0002
0.00065551	0.15	0.01998	0.0002
0.00073955	0.15	0.01974	0.0002
0.00082027	0.15	0.01956	0.0002
9.311e-05	0.2	0.02138	0.00022
0.0001793	0.2	0.02084	0.0002
0.000263	0.2	0.02044	0.0002
0.00034382	0.2	0.02014	0.0002
0.00042336	0.2	0.01984	0.0002
0.00050744	0.2	0.0196	0.0002
0.00058977	0.2	0.01936	0.0002
0.00066612	0.2	0.01916	0.0002
0.00073909	0.2	0.01898	0.0002
0.00082888	0.2	0.0188	0.00018
8.501e-05	0.25	0.02056	0.0002
0.00016814	0.25	0.02	0.0002
0.00025349	0.25	0.0196	0.0002
0.00033694	0.25	0.01932	0.0002
0.00041144	0.25	0.01906	0.0002
0.00048496	0.25	0.01884	0.00028
0.00055403	0.25	0.01864	0.00018
0.00062545	0.25	0.01846	0.00018
0.00072516	0.25	0.01822	0.00018
0.00084916	0.25	0.01796	0.00018
8.938e-05	0.3	0.01966	0.0002
0.00017375	0.3	0.01914	0.0002
0.00024835	0.3	0.0188	0.0002
0.00031954	0.3	0.01856	0.00018
0.0004024	0.3	0.01826	0.00018
0.00048314	0.3	0.01804	0.00028
0.00057027	0.3	0.0178	0.00018
0.00065456	0.3	0.0176	0.00018
0.0007834	0.3	0.0173	0.00018
0.00091573	0.3	0.01704	0.00018
