Measured thermophysical data. Phase equilibrium of (water + formic or acetic acid + ethyl heptanoate) ternary liquid systems at different temperatures
Source: Fluid Phase Equilib., 2013, 10.1016/j.fluid.2013.07.015
Compound 1: water, H2O, InChI=1S/H2O/h1H2
Compound 2: formic acid, CH2O2, InChI=1S/CH2O2/c2-1-3/h1H,(H,2,3), purity 98%
Compound 3: acetic acid, C2H4O2, InChI=1S/C2H4O2/c1-2(3)4/h1H3,(H,3,4), purity 99%
Compound 4: ethyl heptanoate, C9H18O2, InChI=1S/C9H18O2/c1-3-5-6-7-8-9(10)11-4-2/h3-8H2,1-2H3, purity 98%

System: water; phases: Liquid
Property: Mass density, kg/m3 (Liquid); method: Vibrating tube method
Temperature, K	Pressure, kPa	Mass density, kg/m3	uncertainty
293.15	101.325	999.9	0.24

System: water; phases: Liquid
Property: Refractive index (Na D-line) (Liquid); method: Standard Abbe refractometry
Temperature, K	Pressure, kPa	Refractive index (Na D-line)	uncertainty
298.15	101.325	1.33244	0.00033

System: water; phases: Liquid, Gas
Property: Normal boiling temperature, K (Liquid); method: Closed cell (Static) method
Normal boiling temperature, K	uncertainty
373.2	1.01

System: formic acid; phases: Liquid
Property: Mass density, kg/m3 (Liquid); method: Vibrating tube method
Temperature, K	Pressure, kPa	Mass density, kg/m3	uncertainty
293.15	101.325	1218.5	1.35

System: formic acid; phases: Liquid
Property: Refractive index (Na D-line) (Liquid); method: Standard Abbe refractometry
Temperature, K	Pressure, kPa	Refractive index (Na D-line)	uncertainty
298.15	101.325	1.3721	0.00052

System: formic acid; phases: Liquid, Gas
Property: Normal boiling temperature, K (Liquid); method: Closed cell (Static) method
Normal boiling temperature, K	uncertainty
374.2	1.09

System: acetic acid; phases: Liquid
Property: Mass density, kg/m3 (Liquid); method: Vibrating tube method
Temperature, K	Pressure, kPa	Mass density, kg/m3	uncertainty
293.15	101.325	1044.3	0.96

System: acetic acid; phases: Liquid
Property: Refractive index (Na D-line) (Liquid); method: Standard Abbe refractometry
Temperature, K	Pressure, kPa	Refractive index (Na D-line)	uncertainty
298.15	101.325	1.37104	0.00052

System: acetic acid; phases: Liquid, Gas
Property: Normal boiling temperature, K (Liquid); method: Closed cell (Static) method
Normal boiling temperature, K	uncertainty
390.2	1.09

System: ethyl heptanoate; phases: Liquid
Property: Mass density, kg/m3 (Liquid); method: Vibrating tube method
Temperature, K	Pressure, kPa	Mass density, kg/m3	uncertainty
293.15	101.325	881.3	0.74

System: ethyl heptanoate; phases: Liquid
Property: Refractive index (Na D-line) (Liquid); method: Standard Abbe refractometry
Temperature, K	Pressure, kPa	Refractive index (Na D-line)	uncertainty
298.15	101.325	1.41123	0.00052

System: ethyl heptanoate; phases: Liquid, Gas
Property: Normal boiling temperature, K (Liquid); method: Closed cell (Static) method
Normal boiling temperature, K	uncertainty
460.3	1.09

System: formic acid + ethyl heptanoate + water; phases: Liquid mixture 2, Liquid mixture 1
Fixed: Pressure, kPa = 101
Property: Mole fraction of water (Liquid mixture 2); method: Chromatography
Property: Mole fraction of formic acid (Liquid mixture 1); method: Chromatography
Property: Mole fraction of water (Liquid mixture 1); method: Chromatography
Temperature, K	Mole fraction of formic acid	Mole fraction of water	uncertainty	Mole fraction of formic acid	uncertainty	Mole fraction of water	uncertainty
288.15	0.092	0.1482	0.0042	0.0977	0.0057	0.9016	
288.15	0.1397	0.1487	0.0042	0.1918	0.0058	0.8073	
288.15	0.2161	0.1403	0.0042	0.2899	0.006	0.7088	
288.15	0.3151	0.1291	0.0041	0.387	0.0063	0.6112	
288.15	0.4218	0.1407	0.0042	0.4695	0.0065	0.5281	
288.15	0.4989	0.1418	0.0041	0.5454	0.0064	0.4481	
298.15	0.0634	0.1107	0.0041	0.0796	0.0057	0.9199	
298.15	0.116	0.1115	0.0041	0.1668	0.0058	0.8326	
298.15	0.1845	0.1086	0.0041	0.2582	0.0059	0.7411	
298.15	0.255	0.112	0.0041	0.3383	0.0061	0.6603	
298.15	0.3373	0.1206	0.0043	0.4227	0.0064	0.5758	
298.15	0.3974	0.1616	0.0045	0.5029	0.0067	0.4949	
298.15	0.4297	0.1623	0.0042	0.5847	0.0064	0.4126	
308.15	0.0781	0.0841	0.0046	0.0973	0.0057	0.9015	
308.15	0.1308	0.1109	0.0043	0.1964	0.0058	0.8018	
308.15	0.1955	0.1247	0.0042	0.2958	0.006	0.7008	
308.15	0.2539	0.139	0.0041	0.3649	0.0062	0.6314	
308.15	0.3847	0.1381	0.0041	0.4665	0.0065	0.5293	
308.15	0.4861	0.14	0.0041	0.5423	0.0065	0.453	

System: acetic acid + ethyl heptanoate + water; phases: Liquid mixture 2, Liquid mixture 1
Fixed: Pressure, kPa = 101
Property: Mole fraction of water (Liquid mixture 2); method: Chromatography
Property: Mole fraction of acetic acid (Liquid mixture 1); method: Chromatography
Property: Mole fraction of water (Liquid mixture 1); method: Chromatography
Temperature, K	Mole fraction of acetic acid	Mole fraction of water	uncertainty	Mole fraction of acetic acid	uncertainty	Mole fraction of water	uncertainty
288.15	0.084	0.1478	0.0043	0.0599	0.0057	0.9398	
288.15	0.1655	0.1423	0.0042	0.1125	0.0057	0.8869	
288.15	0.269	0.1475	0.0043	0.1716	0.0058	0.8276	
288.15	0.3102	0.1725	0.0044	0.2375	0.0058	0.7605	
288.15	0.4233	0.2051	0.005	0.3366	0.0059	0.6556	
288.15	0.4808	0.2991	0.008	0.3872	0.0059	0.5941	
298.15	0.0426	0.096	0.0041	0.0333	0.0056	0.9664	
298.15	0.1136	0.0937	0.0042	0.0832	0.0057	0.9162	
298.15	0.208	0.1028	0.0042	0.1509	0.0057	0.8482	
298.15	0.2815	0.1255	0.0044	0.2164	0.0058	0.7817	
298.15	0.3247	0.1517	0.005	0.2784	0.0057	0.7168	
298.15	0.4273	0.239	0.0054	0.37	0.0059	0.6117	
308.15	0.0741	0.0941	0.0041	0.0667	0.0057	0.9317	
308.15	0.1665	0.1058	0.0043	0.1331	0.0057	0.8648	
308.15	0.2393	0.1459	0.0046	0.2004	0.0058	0.7962	
308.15	0.3259	0.1884	0.0048	0.2747	0.0058	0.7191	
308.15	0.421	0.2435	0.0049	0.3462	0.006	0.6412	
