Measured thermophysical data. Diffusion coefficients and molar conductivities in aqueous solutions of 1-ethyl-3-methylimidazolium-based ionic liquids
Source: Fluid Phase Equilib., 2008, 10.1016/j.fluid.2008.07.006
Compound 1: 1-ethyl-3-methylimidazolium dicyanamide, C8H11N5, InChI=1S/C6H11N2.C2N3/c1-3-8-5-4-7(2)6-8;3-1-5-2-4/h4-6H,3H2,1-2H3;/q+1;-1
Compound 2: 1-ethyl-3-methylimidazolium tetrafluoroborate, C6H11BF4N2, InChI=1S/C6H11N2.BF4/c1-3-8-5-4-7(2)6-8;2-1(3,4)5/h4-6H,3H2,1-2H3;/q+1;-1
Compound 3: 1-ethyl-3-methylimidazolium ethyl sulfate, C8H16N2O4S, InChI=1S/C6H11N2.C2H6O4S/c1-3-8-5-4-7(2)6-8;1-2-6-7(3,4)5/h4-6H,3H2,1-2H3;2H2,1H3,(H,3,4,5)/q+1;/p-1
Compound 4: 1-ethyl-3-methylimidazolium trifluoromethanesulfonate, C7H11F3N2O3S, InChI=1S/C6H11N2.CHF3O3S/c1-3-8-5-4-7(2)6-8;2-1(3,4)8(5,6)7/h4-6H,3H2,1-2H3;(H,5,6,7)/q+1;/p-1
Compound 5: 1-ethyl-3-methylimidazolium 2-(2-methoxyethoxy) ethylsulfate, C11H22N2O6S, InChI=1S/C6H11N2.C5H12O6S/c1-3-8-5-4-7(2)6-8;1-9-2-3-10-4-5-11-12(6,7)8/h4-6H,3H2,1-2H3;2-5H2,1H3,(H,6,7,8)/q+1;/p-1
Compound 6: water, H2O, InChI=1S/H2O/h1H2
Compound 7: lithium fluoroborate, BF4Li, InChI=1S/BF4.Li/c2-1(3,4)5;/q-1;+1

System: 1-ethyl-3-methylimidazolium dicyanamide; phases: Liquid
Fixed: Pressure, kPa = 101.325
Property: Mass density, kg/m3 (Liquid); method: VIBTUB:UFactor:8
Temperature, K	Mass density, kg/m3	uncertainty
303.2	1105.8	0.6
308.2	1102.6	0.6
313.2	1099.4	0.6
318.2	1096.2	0.6
323.2	1093	0.6

System: 1-ethyl-3-methylimidazolium tetrafluoroborate; phases: Liquid
Fixed: Pressure, kPa = 101.325
Property: Mass density, kg/m3 (Liquid); method: VIBTUB:UFactor:24
Temperature, K	Mass density, kg/m3	uncertainty
303.2	1278.7	6.4
308.2	1275	6.4
313.2	1271.4	6.3
318.2	1267.8	6.3
323.2	1264.2	6.2

System: 1-ethyl-3-methylimidazolium ethyl sulfate; phases: Liquid
Fixed: Pressure, kPa = 101.325
Property: Mass density, kg/m3 (Liquid); method: VIBTUB:UFactor:12
Temperature, K	Mass density, kg/m3	uncertainty
303.2	1232.7	1.7
308.2	1229.4	1.7
313.2	1226.2	1.6
318.2	1222.9	1.6
323.2	1219.7	1.6

System: 1-ethyl-3-methylimidazolium trifluoromethanesulfonate; phases: Liquid
Fixed: Pressure, kPa = 101.325
Property: Mass density, kg/m3 (Liquid); method: VIBTUB:UFactor:16
Temperature, K	Mass density, kg/m3	uncertainty
303.2	1377.3	4.4
308.2	1373.3	4.4
313.2	1369.3	4.4
318.2	1365.3	4.3
323.2	1361.2	4.3

System: 1-ethyl-3-methylimidazolium 2-(2-methoxyethoxy) ethylsulfate; phases: Liquid
Fixed: Pressure, kPa = 101.325
Property: Mass density, kg/m3 (Liquid); method: VIBTUB:UFactor:16
Temperature, K	Mass density, kg/m3	uncertainty
303.2	1233.4	3
308.2	1230	2.9
313.2	1226.6	2.9
318.2	1223.3	2.9
323.2	1219.9	2.9

System: water + 1-ethyl-3-methylimidazolium dicyanamide; phases: Fluid (supercritical or subcritical phases)
Fixed: Mole fraction of 1-ethyl-3-methylimidazolium dicyanamide = 0
Fixed: Pressure, kPa = 101
Property: Binary diffusion coefficient, m2/s (Fluid (supercritical or subcritical phases)); method: TAYLOR:UFactor:4
Temperature, K	Binary diffusion coefficient, m2/s	uncertainty
303.2	1.253e-09	0.109
308.2	1.407e-09	0.118
313.2	1.538e-09	0.126
318.2	1.706e-09	0.137
323.2	1.849e-09	0.146

System: water + 1-ethyl-3-methylimidazolium dicyanamide; phases: Liquid
Fixed: Pressure, kPa = 101
Property: Molar conductivity, S*m2/mol (Liquid); method: Direct current cell with electrodes
Amount concentration (molarity), mol/dm3 of 1-ethyl-3-methylimidazolium dicyanamide	Temperature, K	Molar conductivity, S*m2/mol	uncertainty
1.2e-09	303.2	0.0095	0.0004
1.2e-09	308.2	0.0103	0.0004
1.2e-09	313.2	0.011	0.0004
1.2e-09	318.2	0.0123	0.0005
1.2e-09	323.2	0.0133	0.0005
6.6e-09	303.2	0.009	0.0004
6.6e-09	308.2	0.0098	0.0004
6.6e-09	313.2	0.0108	0.0004
6.6e-09	318.2	0.0118	0.0005
6.6e-09	323.2	0.0128	0.0005
1.19e-08	303.2	0.0087	0.0004
1.19e-08	308.2	0.0095	0.0004
1.19e-08	313.2	0.0105	0.0004
1.19e-08	318.2	0.0113	0.0005
1.19e-08	323.2	0.0125	0.0005
2.28e-08	303.2	0.0083	0.0003
2.28e-08	308.2	0.0092	0.0004
2.28e-08	313.2	0.01	0.0004
2.28e-08	318.2	0.0109	0.0004
2.28e-08	323.2	0.0119	0.0005
4.15e-08	303.2	0.0079	0.0003
4.15e-08	308.2	0.0088	0.0004
4.15e-08	313.2	0.0095	0.0004
4.15e-08	318.2	0.0103	0.0004
4.15e-08	323.2	0.0114	0.0005

System: water + 1-ethyl-3-methylimidazolium tetrafluoroborate; phases: Fluid (supercritical or subcritical phases)
Fixed: Mole fraction of 1-ethyl-3-methylimidazolium tetrafluoroborate = 0
Fixed: Pressure, kPa = 101
Property: Binary diffusion coefficient, m2/s (Fluid (supercritical or subcritical phases)); method: TAYLOR:UFactor:4
Temperature, K	Binary diffusion coefficient, m2/s	uncertainty
303.2	1.499e-09	0.124
308.2	1.571e-09	0.128
313.2	1.692e-09	0.136
318.2	1.882e-09	0.148
323.2	2.011e-09	0.156

System: water + 1-ethyl-3-methylimidazolium tetrafluoroborate; phases: Liquid
Fixed: Pressure, kPa = 101
Property: Molar conductivity, S*m2/mol (Liquid); method: Direct current cell with electrodes
Amount concentration (molarity), mol/dm3 of 1-ethyl-3-methylimidazolium tetrafluoroborate	Temperature, K	Molar conductivity, S*m2/mol	uncertainty
1e-09	303.2	0.0119	0.0005
1e-09	308.2	0.013	0.0005
1e-09	313.2	0.0139	0.0006
1e-09	318.2	0.0149	0.0006
1e-09	323.2	0.0162	0.0007
5.5e-09	303.2	0.0111	0.0004
5.5e-09	308.2	0.0121	0.0005
5.5e-09	313.2	0.0131	0.0005
5.5e-09	318.2	0.0142	0.0006
5.5e-09	323.2	0.0153	0.0006
1.32e-08	303.2	0.0105	0.0004
1.32e-08	308.2	0.0116	0.0005
1.32e-08	313.2	0.0125	0.0005
1.32e-08	318.2	0.0136	0.0005
1.32e-08	323.2	0.0146	0.0006
2.22e-08	303.2	0.0101	0.0004
2.22e-08	308.2	0.0111	0.0004
2.22e-08	313.2	0.012	0.0005
2.22e-08	318.2	0.013	0.0005
2.22e-08	323.2	0.014	0.0006
4.15e-08	303.2	0.009	0.0004
4.15e-08	308.2	0.0099	0.0004
4.15e-08	313.2	0.0108	0.0004
4.15e-08	318.2	0.0117	0.0005
4.15e-08	323.2	0.0127	0.0005

System: water + 1-ethyl-3-methylimidazolium ethyl sulfate; phases: Fluid (supercritical or subcritical phases)
Fixed: Mole fraction of 1-ethyl-3-methylimidazolium ethyl sulfate = 0
Fixed: Pressure, kPa = 101
Property: Binary diffusion coefficient, m2/s (Fluid (supercritical or subcritical phases)); method: TAYLOR:UFactor:4
Temperature, K	Binary diffusion coefficient, m2/s	uncertainty
303.2	1.036e-09	0.095
308.2	1.195e-09	0.105
313.2	1.401e-09	0.118
318.2	1.504e-09	0.124
323.2	1.641e-09	0.133

System: water + 1-ethyl-3-methylimidazolium ethyl sulfate; phases: Liquid
Fixed: Pressure, kPa = 101
Property: Molar conductivity, S*m2/mol (Liquid); method: Direct current cell with electrodes
Amount concentration (molarity), mol/dm3 of 1-ethyl-3-methylimidazolium ethyl sulfate	Temperature, K	Molar conductivity, S*m2/mol	uncertainty
1.6e-09	303.2	0.008	0.0003
1.6e-09	308.2	0.0089	0.0004
1.6e-09	313.2	0.0097	0.0004
1.6e-09	318.2	0.0106	0.0004
1.6e-09	323.2	0.0116	0.0005
4.6e-09	303.2	0.0076	0.0003
4.6e-09	308.2	0.0084	0.0003
4.6e-09	313.2	0.0092	0.0004
4.6e-09	318.2	0.0101	0.0004
4.6e-09	323.2	0.011	0.0004
8.6e-09	303.2	0.0074	0.0003
8.6e-09	308.2	0.0081	0.0003
8.6e-09	313.2	0.0089	0.0004
8.6e-09	318.2	0.0097	0.0004
8.6e-09	323.2	0.0106	0.0004
1.72e-08	303.2	0.0071	0.0003
1.72e-08	308.2	0.0079	0.0003
1.72e-08	313.2	0.0086	0.0003
1.72e-08	318.2	0.0095	0.0004
1.72e-08	323.2	0.0102	0.0004
3.58e-08	303.2	0.0065	0.0003
3.58e-08	308.2	0.0073	0.0003
3.58e-08	313.2	0.0082	0.0003
3.58e-08	318.2	0.0091	0.0004
3.58e-08	323.2	0.0098	0.0004

System: water + 1-ethyl-3-methylimidazolium trifluoromethanesulfonate; phases: Fluid (supercritical or subcritical phases)
Fixed: Mole fraction of 1-ethyl-3-methylimidazolium trifluoromethanesulfonate = 0
Fixed: Pressure, kPa = 101
Property: Binary diffusion coefficient, m2/s (Fluid (supercritical or subcritical phases)); method: TAYLOR:UFactor:4
Temperature, K	Binary diffusion coefficient, m2/s	uncertainty
303.2	1.156e-09	0.103
308.2	1.274e-09	0.11
313.2	1.514e-09	0.125
318.2	1.661e-09	0.134
323.2	1.797e-09	0.142

System: water + 1-ethyl-3-methylimidazolium trifluoromethanesulfonate; phases: Liquid
Fixed: Pressure, kPa = 101
Property: Molar conductivity, S*m2/mol (Liquid); method: Direct current cell with electrodes
Amount concentration (molarity), mol/dm3 of 1-ethyl-3-methylimidazolium trifluoromethanesulfonate	Temperature, K	Molar conductivity, S*m2/mol	uncertainty
1.2e-09	303.2	0.0083	0.0003
1.2e-09	308.2	0.0093	0.0004
1.2e-09	313.2	0.0101	0.0004
1.2e-09	318.2	0.011	0.0004
1.2e-09	323.2	0.012	0.0005
3.8e-09	303.2	0.0079	0.0003
3.8e-09	308.2	0.0088	0.0004
3.8e-09	313.2	0.0097	0.0004
3.8e-09	318.2	0.0106	0.0004
3.8e-09	323.2	0.0114	0.0005
8.7e-09	303.2	0.0077	0.0003
8.7e-09	308.2	0.0085	0.0003
8.7e-09	313.2	0.0093	0.0004
8.7e-09	318.2	0.0102	0.0004
8.7e-09	323.2	0.0111	0.0004
1.86e-08	303.2	0.0073	0.0003
1.86e-08	308.2	0.008	0.0003
1.86e-08	313.2	0.0088	0.0004
1.86e-08	318.2	0.0095	0.0004
1.86e-08	323.2	0.0103	0.0004
3.19e-08	303.2	0.0069	0.0003
3.19e-08	308.2	0.0077	0.0003
3.19e-08	313.2	0.0084	0.0003
3.19e-08	318.2	0.0092	0.0004
3.19e-08	323.2	0.01	0.0004

System: water + 1-ethyl-3-methylimidazolium 2-(2-methoxyethoxy) ethylsulfate; phases: Fluid (supercritical or subcritical phases)
Fixed: Mole fraction of water = 0
Fixed: Pressure, kPa = 101
Property: Binary diffusion coefficient, m2/s (Fluid (supercritical or subcritical phases)); method: TAYLOR:UFactor:4
Temperature, K	Binary diffusion coefficient, m2/s	uncertainty
303.2	9.95e-10	0.093
308.2	1.056e-09	0.096
313.2	1.27e-09	0.11
318.2	1.318e-09	0.113
323.2	1.508e-09	0.124

System: water + 1-ethyl-3-methylimidazolium 2-(2-methoxyethoxy) ethylsulfate; phases: Liquid
Fixed: Pressure, kPa = 101
Property: Molar conductivity, S*m2/mol (Liquid); method: Direct current cell with electrodes
Amount concentration (molarity), mol/dm3 of 1-ethyl-3-methylimidazolium 2-(2-methoxyethoxy) ethylsulfate	Temperature, K	Molar conductivity, S*m2/mol	uncertainty
9e-10	303.2	0.0074	0.0004
9e-10	308.2	0.0081	0.0005
9e-10	313.2	0.009	0.0005
9e-10	318.2	0.0098	0.0006
9e-10	323.2	0.0107	0.0006
3.9e-09	303.2	0.0067	0.0004
3.9e-09	308.2	0.0075	0.0005
3.9e-09	313.2	0.0082	0.0005
3.9e-09	318.2	0.0091	0.0005
3.9e-09	323.2	0.0097	0.0006
1.06e-08	303.2	0.0062	0.0004
1.06e-08	308.2	0.007	0.0004
1.06e-08	313.2	0.0077	0.0005
1.06e-08	318.2	0.0084	0.0005
1.06e-08	323.2	0.0091	0.0005
1.82e-08	303.2	0.006	0.0004
1.82e-08	308.2	0.0067	0.0004
1.82e-08	313.2	0.0074	0.0004
1.82e-08	318.2	0.0081	0.0005
1.82e-08	323.2	0.0088	0.0005
2.57e-08	303.2	0.0059	0.0004
2.57e-08	308.2	0.0065	0.0004
2.57e-08	313.2	0.0072	0.0004
2.57e-08	318.2	0.0076	0.0005
2.57e-08	323.2	0.0083	0.0005

System: water + lithium fluoroborate; phases: Liquid
Fixed: Pressure, kPa = 101
Property: Molar conductivity, S*m2/mol (Liquid); method: Direct current cell with electrodes
Amount concentration (molarity), mol/dm3 of lithium fluoroborate	Temperature, K	Molar conductivity, S*m2/mol	uncertainty
3e-09	303.2	0.0117	0.0005
3e-09	308.2	0.0126	0.0005
3e-09	313.2	0.0134	0.0005
3e-09	318.2	0.0144	0.0006
3e-09	323.2	0.0158	0.0006
1.11e-08	303.2	0.0111	0.0004
1.11e-08	308.2	0.0122	0.0005
1.11e-08	313.2	0.0129	0.0005
1.11e-08	318.2	0.0139	0.0006
1.11e-08	323.2	0.0155	0.0006
2.73e-08	303.2	0.0106	0.0004
2.73e-08	308.2	0.0119	0.0005
2.73e-08	313.2	0.0125	0.0005
2.73e-08	318.2	0.0135	0.0005
2.73e-08	323.2	0.0152	0.0006
4.81e-08	303.2	0.0103	0.0004
4.81e-08	308.2	0.0115	0.0005
4.81e-08	313.2	0.0121	0.0005
4.81e-08	318.2	0.0131	0.0005
4.81e-08	323.2	0.0149	0.0006
7.55e-08	303.2	0.01	0.0004
7.55e-08	308.2	0.0112	0.0005
7.55e-08	313.2	0.0118	0.0005
7.55e-08	318.2	0.0127	0.0005
7.55e-08	323.2	0.0145	0.0006
