Measured thermophysical data. Measurement and correlation of liquid liquid equilibria for acetonitrile + n-alkane systems
Source: Fluid Phase Equilib., 2007, 10.1016/j.fluid.2007.01.024
Compound 1: acetonitrile, C2H3N, InChI=1S/C2H3N/c1-2-3/h1H3
Compound 2: hexadecane, C16H34, InChI=1S/C16H34/c1-3-5-7-9-11-13-15-16-14-12-10-8-6-4-2/h3-16H2,1-2H3

System: acetonitrile + hexadecane; phases: Liquid mixture 1, Liquid mixture 2
Fixed: Pressure, kPa = 101
Property: Mole fraction of acetonitrile (Liquid mixture 1); method: Chromatography
Temperature, K	Mole fraction of acetonitrile	uncertainty
298.15	0.103	0.01
303.15	0.108	0.01
313.15	0.134	0.01
323.15	0.145	0.01
333.15	0.168	0.01
343.15	0.194	0.01
353.15	0.238	0.01

System: acetonitrile + hexadecane; phases: Liquid mixture 2, Liquid mixture 1
Fixed: Pressure, kPa = 101
Property: Mole fraction of acetonitrile (Liquid mixture 2); method: Chromatography
Temperature, K	Mole fraction of acetonitrile	uncertainty
298.15	0.998	0.002
303.15	0.997	0.003
313.15	0.996	0.004
323.15	0.995	0.004
333.15	0.994	0.004
343.15	0.992	0.004
353.15	0.99	0.004
