Measured thermophysical data. Densities, electrical conductances, and spectroscopic properties of glycyl dipeptide + ionic liquid ([C12mim]Br) + water mixtures at different temperatures
Source: Fluid Phase Equilib., 2014, 10.1016/j.fluid.2014.01.038
Compound 1: glycylglycine, C4H8N2O3, InChI=1S/C4H8N2O3/c5-1-3(7)6-2-4(8)9/h1-2,5H2,(H,6,7)(H,8,9)
Compound 2: glycyl-L-valine, C7H14N2O3, InChI=1S/C7H14N2O3/c1-4(2)6(7(11)12)9-5(10)3-8/h4,6H,3,8H2,1-2H3,(H,9,10)(H,11,12)/t6-/m0/s1
Compound 3: glycyl-L-leucine, C8H16N2O3, InChI=1S/C8H16N2O3/c1-5(2)3-6(8(12)13)10-7(11)4-9/h5-6H,3-4,9H2,1-2H3,(H,10,11)(H,12,13)/t6-/m0/s1
Compound 4: 1-dodecyl-3-methylimidazolium bromide, C16H31BrN2, InChI=1S/C16H31N2.BrH/c1-3-4-5-6-7-8-9-10-11-12-13-18-15-14-17(2)16-18;/h14-16H,3-13H2,1-2H3;1H/q+1;/p-1, purity 99%
Compound 5: water, H2O, InChI=1S/H2O/h1H2

System: glycylglycine + water; phases: Liquid
Fixed: Pressure, kPa = 101
Fixed: Temperature, K = 288.15
Property: Mass density, kg/m3 (Liquid); method: Pycnometric method
Molality, mol/kg of glycylglycine	Mass density, kg/m3	uncertainty
0	999.14	20
0.06148	1002.65	20
0.09135	1004.36	20
0.1538	1007.96	20
0.1823	1009.6	20
0.2128	1011.36	20
0.2534	1013.73	20
0.3028	1016.61	20

System: glycyl-L-valine + water; phases: Liquid
Fixed: Pressure, kPa = 101
Fixed: Temperature, K = 288.15
Property: Mass density, kg/m3 (Liquid); method: Pycnometric method
Molality, mol/kg of glycyl-L-valine	Mass density, kg/m3	uncertainty
0	999.14	20
0.04051	1001.29	20
0.08097	1003.45	20
0.1203	1005.55	20
0.1403	1006.63	20
0.1594	1007.68	20
0.1799	1008.79	20
0.1995	1009.84	20

System: glycyl-L-leucine + water; phases: Liquid
Fixed: Pressure, kPa = 101
Fixed: Temperature, K = 288.15
Property: Mass density, kg/m3 (Liquid); method: Pycnometric method
Molality, mol/kg of glycyl-L-leucine	Mass density, kg/m3	uncertainty
0	999.14	20
0.03301	1000.8	20
0.04936	1001.65	20
0.05894	1002.14	20
0.06889	1002.67	20
0.07838	1003.17	20
0.08821	1003.69	20
0.09745	1004.12	20

System: glycylglycine + water + 1-dodecyl-3-methylimidazolium bromide; phases: Liquid
Fixed: Pressure, kPa = 101
Property: Mass density, kg/m3 (Liquid); method: Pycnometric method
Solvent: Molality, mol/kg of 1-dodecyl-3-methylimidazolium bromide	Temperature, K	Molality, mol/kg of glycylglycine	Mass density, kg/m3	uncertainty
0.05	288.15	0	1000.29	0.33
0.05	288.15	0.01991	1001.82	0.33
0.05	288.15	0.04058	1003	0.33
0.05	288.15	0.05945	1004.05	0.33
0.05	288.15	0.12	1007.5	0.33
0.05	288.15	0.1406	1008.63	0.33
0.05	288.15	0.16	1009.74	0.33
0.05	288.15	0.1792	1010.86	0.33
0.05	293.15	0	999.58	0.32
0.05	293.15	0.01991	1000.8	0.32
0.05	293.15	0.05945	1003	0.32
0.05	293.15	0.08037	1004.18	0.32
0.05	293.15	0.1005	1005.32	0.32
0.05	293.15	0.12	1006.44	0.32
0.05	293.15	0.1406	1007.6	0.32
0.05	293.15	0.16	1008.66	0.32
0.05	293.15	0.1792	1009.83	0.32
0.05	298.15	0	998.4	0.33
0.05	298.15	0.04058	1000.66	0.33
0.05	298.15	0.05945	1001.73	0.33
0.05	298.15	0.08037	1002.93	0.33
0.05	298.15	0.1005	1004.06	0.33
0.05	298.15	0.12	1005.18	0.33
0.05	298.15	0.1406	1006.34	0.33
0.05	298.15	0.16	1007.48	0.33
0.05	298.15	0.1792	1008.57	0.33
0.05	298.15	0.1996	1009.77	0.33
0.05	303.15	0	996.99	0.34
0.05	303.15	0.03831	999.09	0.34
0.05	303.15	0.05641	1000.11	0.34
0.05	303.15	0.07612	1001.21	0.34
0.05	303.15	0.09494	1002.28	0.34
0.05	303.15	0.1136	1003.37	0.34
0.05	303.15	0.1335	1004.42	0.34
0.05	303.15	0.1509	1005.41	0.34
0.05	303.15	0.1701	1006.47	0.34
0.1	288.15	0	1002.09	0.33
0.1	288.15	0.04079	1004.39	0.33
0.1	288.15	0.08156	1006.67	0.33
0.1	288.15	0.1021	1007.81	0.33
0.1	288.15	0.1225	1008.96	0.33
0.1	288.15	0.1423	1010.09	0.33
0.1	288.15	0.1639	1011.31	0.33
0.1	288.15	0.1849	1012.51	0.33
0.1	293.15	0	1001.15	0.32
0.1	293.15	0.04079	1003.4	0.32
0.1	293.15	0.06061	1004.5	0.32
0.1	293.15	0.08156	1005.7	0.32
0.1	293.15	0.1021	1006.84	0.32
0.1	293.15	0.1225	1007.97	0.32
0.1	293.15	0.1423	1009.07	0.32
0.1	293.15	0.1849	1011.43	0.32
0.1	298.15	0	999.93	0.33
0.1	298.15	0.04079	1002.16	0.33
0.1	298.15	0.08156	1004.41	0.33
0.1	298.15	0.1021	1005.54	0.33
0.1	298.15	0.1423	1007.74	0.33
0.1	298.15	0.1639	1008.91	0.33
0.1	298.15	0.1849	1010.13	0.33
0.1	303.15	0	999.841	0.335
0.1	303.15	0.04079	1000.6	0.34
0.1	303.15	0.06061	1001.67	0.34
0.1	303.15	0.08156	1002.81	0.34
0.1	303.15	0.1021	1003.9	0.34
0.1	303.15	0.1423	1006.07	0.34
0.1	303.15	0.1849	1008.34	0.34

System: glycylglycine + water + 1-dodecyl-3-methylimidazolium bromide; phases: Liquid
Fixed: Pressure, kPa = 101
Property: Electrical conductivity, S/m (Liquid); method: Alternating current cell with electrodes
Solvent: Molality, mol/kg of glycylglycine	Temperature, K	Amount concentration (molarity), mol/dm3 of 1-dodecyl-3-methylimidazolium bromide	Electrical conductivity, S/m	uncertainty
0.02	283.15	0.003242	0.0205042	0.0024252
0.02	283.15	0.004985	0.0310716	0.0024182
0.02	283.15	0.006789	0.0419458	0.0023892
0.02	283.15	0.008409	0.0515153	0.0022604
0.02	283.15	0.01007	0.0604839	0.001648
0.02	283.15	0.01165	0.0648183	0.0008577
0.02	283.15	0.01336	0.0675403	0.0006246
0.02	283.15	0.01561	0.0709685	0.0005914
0.02	283.15	0.01749	0.0735903	0.0005665
0.02	283.15	0.01906	0.075809	0.0005857
0.02	283.15	0.02076	0.0783306	0.0005926
0.02	283.15	0.02209	0.0802471	0.0005832
0.05	283.15	0.003795	0.023656	0.0023971
0.05	283.15	0.005476	0.0337215	0.0023726
0.05	283.15	0.007239	0.0440935	0.0023472
0.05	283.15	0.008646	0.0523541	0.0022074
0.05	283.15	0.01007	0.0598113	0.0014935
0.05	283.15	0.01165	0.0639439	0.0008535
0.05	283.15	0.01321	0.066565	0.0006461
0.05	283.15	0.01485	0.0690856	0.0006112
0.05	283.15	0.01668	0.0718081	0.0005997
0.05	283.15	0.01853	0.074531	0.0005844
0.05	283.15	0.0203	0.0770524	0.0005926
0.05	283.15	0.02252	0.0803811	0.0006103
0.08	283.15	0.002629	0.0159691	0.002525
0.08	283.15	0.004239	0.026132	0.0024605
0.08	283.15	0.005674	0.0346884	0.0023766
0.08	283.15	0.0069	0.0419386	0.0023466
0.08	283.15	0.008215	0.049594	0.0022818
0.08	283.15	0.009497	0.056748	0.001654
0.08	283.15	0.01129	0.062493	0.000995
0.08	283.15	0.01311	0.0657188	0.0006717
0.08	283.15	0.01503	0.0687435	0.0006258
0.08	283.15	0.01739	0.0723735	0.0006036
0.08	283.15	0.01968	0.0757016	0.000603
0.08	283.15	0.0213	0.0782232	0.0006285
0.02	288.15	0.003242	0.0232312	0.0027422
0.02	288.15	0.004985	0.0352093	0.0027477
0.02	288.15	0.006789	0.0475965	0.0027088
0.02	288.15	0.008409	0.0583776	0.0025428
0.02	288.15	0.01007	0.0684579	0.0018031
0.02	288.15	0.01165	0.0728946	0.0009531
0.02	288.15	0.01336	0.0763236	0.0007281
0.02	288.15	0.01561	0.0801565	0.0006923
0.02	288.15	0.01749	0.0833847	0.0006885
0.02	288.15	0.01906	0.0860079	0.0007073
0.02	288.15	0.02076	0.089136	0.0007213
0.02	288.15	0.02209	0.0913562	0.0007838
0.05	288.15	0.003795	0.02678	0.0027251
0.05	288.15	0.005476	0.0382566	0.0027011
0.05	288.15	0.007239	0.0500411	0.0026565
0.05	288.15	0.008646	0.0593116	0.0024832
0.05	288.15	0.01007	0.0676784	0.0016444
0.05	288.15	0.01165	0.0720142	0.0009508
0.05	288.15	0.01321	0.0751404	0.000758
0.05	288.15	0.01485	0.0780654	0.0007157
0.05	288.15	0.01668	0.0813942	0.0006946
0.05	288.15	0.01853	0.0845218	0.0007034
0.05	288.15	0.0203	0.0876497	0.0006993
0.05	288.15	0.02252	0.0914845	0.0007809
0.08	288.15	0.002629	0.0180769	0.0027968
0.08	288.15	0.004239	0.0295594	0.0027944
0.08	288.15	0.005674	0.0393255	0.0026973
0.08	288.15	0.0069	0.0474838	0.0026638
0.08	288.15	0.008215	0.0562495	0.002578
0.08	288.15	0.009497	0.0642121	0.0017941
0.08	288.15	0.01129	0.0704631	0.0011056
0.08	288.15	0.01311	0.0741943	0.0007782
0.08	288.15	0.01503	0.0777244	0.0007256
0.08	288.15	0.01739	0.0819611	0.0007255
0.08	288.15	0.01968	0.0860978	0.0007261
0.08	288.15	0.0213	0.0889232	0.0008156
0.02	293.15	0.003242	0.026046	0.0031054
0.02	293.15	0.004985	0.0396368	0.0030888
0.02	293.15	0.006789	0.0534369	0.0030387
0.02	293.15	0.008409	0.0656321	0.0028506
0.02	293.15	0.01007	0.076825	0.0020287
0.02	293.15	0.01165	0.0819695	0.0011003
0.02	293.15	0.01336	0.0859042	0.0008609
0.02	293.15	0.01561	0.090546	0.000819
0.02	293.15	0.01749	0.0942804	0.0008055
0.02	293.15	0.01906	0.0974096	0.0008314
0.02	293.15	0.02076	0.101044	0.000831
0.02	293.15	0.02209	0.103568	0.000915
0.05	293.15	0.003795	0.0300716	0.003061
0.05	293.15	0.005476	0.0429598	0.0030397
0.05	293.15	0.007239	0.0562582	0.0030007
0.05	293.15	0.008646	0.0667411	0.0027671
0.05	293.15	0.01007	0.0759174	0.0018438
0.05	293.15	0.01165	0.0809609	0.0011053
0.05	293.15	0.01321	0.0845928	0.0008844
0.05	293.15	0.01485	0.0880235	0.0008443
0.05	293.15	0.01668	0.0919593	0.0008165
0.05	293.15	0.01853	0.095593	0.000837
0.05	293.15	0.0203	0.0994291	0.0008299
0.05	293.15	0.02252	0.103872	0.000905
0.08	293.15	0.002629	0.0208621	0.0031075
0.08	293.15	0.004239	0.0332421	0.003069
0.08	293.15	0.005674	0.0442184	0.0030305
0.08	293.15	0.0069	0.0533861	0.0029816
0.08	293.15	0.008215	0.0631622	0.0028894
0.08	293.15	0.009497	0.0721355	0.0020095
0.08	293.15	0.01129	0.0790947	0.0012624
0.08	293.15	0.01311	0.0835336	0.0009184
0.08	293.15	0.01503	0.0876705	0.0008571
0.08	293.15	0.01739	0.0927166	0.0008564
0.08	293.15	0.01968	0.0975618	0.0008615
0.08	293.15	0.0213	0.100994	0.000989
0.02	298.15	0.003242	0.0290384	0.0034596
0.02	298.15	0.004985	0.0441417	0.0034414
0.02	298.15	0.006789	0.0595571	0.0033929
0.02	298.15	0.008409	0.0731673	0.0031956
0.02	298.15	0.01007	0.0857763	0.0023292
0.02	298.15	0.01165	0.091932	0.0012954
0.02	298.15	0.01336	0.096474	0.0009696
0.02	298.15	0.01561	0.101623	0.000959
0.02	298.15	0.01749	0.106268	0.000975
0.02	298.15	0.01906	0.109904	0.000979
0.02	298.15	0.02076	0.114247	0.000993
0.02	298.15	0.02209	0.117278	0.001089
0.05	298.15	0.003795	0.0335237	0.0034021
0.05	298.15	0.005476	0.0478242	0.0033915
0.05	298.15	0.007239	0.0627383	0.0033424
0.05	298.15	0.008646	0.0743334	0.0031063
0.05	298.15	0.01007	0.0848244	0.0021329
0.05	298.15	0.01165	0.090778	0.0012952
0.05	298.15	0.01321	0.0950172	0.0010489
0.05	298.15	0.01485	0.0991561	0.0009921
0.05	298.15	0.01668	0.1037	0.000946
0.05	298.15	0.01853	0.107941	0.000985
0.05	298.15	0.0203	0.112486	0.000982
0.05	298.15	0.02252	0.11774	0.001025
0.08	298.15	0.002629	0.0232653	0.0034246
0.08	298.15	0.004239	0.0370564	0.0034136
0.08	298.15	0.005674	0.0492435	0.0033937
0.08	298.15	0.0069	0.0596227	0.0033474
0.08	298.15	0.008215	0.0705106	0.0032317
0.08	298.15	0.009497	0.0805965	0.0023253
0.08	298.15	0.01129	0.0888702	0.0014862
0.08	298.15	0.01311	0.0940174	0.0010812
0.08	298.15	0.01503	0.0989639	0.0009987
0.08	298.15	0.01739	0.104719	0.000987
0.08	298.15	0.01968	0.110375	0.001035
0.08	298.15	0.0213	0.114719	0.001147
0.02	303.15	0.003242	0.0321158	0.0038308
0.02	303.15	0.004985	0.0488329	0.0038171
0.02	303.15	0.006789	0.0659652	0.0037702
0.02	303.15	0.008409	0.0810923	0.0036029
0.02	303.15	0.01007	0.0955224	0.002716
0.02	303.15	0.01165	0.102993	0.001564
0.02	303.15	0.01336	0.108446	0.001196
0.02	303.15	0.01561	0.114911	0.001135
0.02	303.15	0.01749	0.120064	0.001101
0.02	303.15	0.01906	0.124308	0.001092
0.02	303.15	0.02076	0.128958	0.001124
0.02	303.15	0.02209	0.132698	0.001272
0.05	303.15	0.003795	0.0370268	0.0037523
0.05	303.15	0.005476	0.0528409	0.0037542
0.05	303.15	0.007239	0.0693715	0.003699
0.05	303.15	0.008646	0.0821806	0.0035034
0.05	303.15	0.01007	0.09429	0.0025159
0.05	303.15	0.01165	0.101559	0.001565
0.05	303.15	0.01321	0.106608	0.001238
0.05	303.15	0.01485	0.111456	0.001187
0.05	303.15	0.01668	0.116911	0.001129
0.05	303.15	0.01853	0.121862	0.001106
0.05	303.15	0.0203	0.126815	0.001093
0.05	303.15	0.02252	0.132779	0.001193
0.08	303.15	0.002629	0.025691	0.0037937
0.08	303.15	0.004239	0.0409943	0.003785
0.08	303.15	0.005674	0.0544936	0.0037431
0.08	303.15	0.0069	0.0658833	0.003697
0.08	303.15	0.008215	0.0779847	0.0036058
0.08	303.15	0.009497	0.0892849	0.0027055
0.08	303.15	0.01129	0.0992779	0.001788
0.08	303.15	0.01311	0.105437	0.001297
0.08	303.15	0.01503	0.111396	0.001177
0.08	303.15	0.01739	0.118064	0.001154
0.08	303.15	0.01968	0.124734	0.001164
0.08	303.15	0.0213	0.129283	0.00128
0.02	308.15	0.003242	0.0352671	0.0042301
0.02	308.15	0.004985	0.0536994	0.004193
0.02	308.15	0.006789	0.0724487	0.0041587
0.02	308.15	0.008409	0.0892955	0.0040105
0.02	308.15	0.01007	0.105346	0.003221
0.02	308.15	0.01165	0.115346	0.001997
0.02	308.15	0.01336	0.121813	0.001398
0.02	308.15	0.01561	0.129191	0.001288
0.02	308.15	0.01749	0.135054	0.001271
0.02	308.15	0.01906	0.14011	0.001255
0.02	308.15	0.02076	0.145269	0.001248
0.02	308.15	0.02209	0.149518	0.001285
0.05	308.15	0.003795	0.0406815	0.0041573
0.05	308.15	0.005476	0.0582115	0.0041294
0.05	308.15	0.007239	0.0762589	0.0040653
0.05	308.15	0.008646	0.0904847	0.0039129
0.05	308.15	0.01007	0.104113	0.003036
0.05	308.15	0.01165	0.113809	0.001971
0.05	308.15	0.01321	0.11977	0.001456
0.05	308.15	0.01485	0.12543	0.001341
0.05	308.15	0.01668	0.131293	0.001305
0.05	308.15	0.01853	0.137258	0.001262
0.05	308.15	0.0203	0.142719	0.00125
0.05	308.15	0.02252	0.1497	0.001287
0.08	308.15	0.002629	0.0282177	0.004203
0.08	308.15	0.004239	0.0451345	0.0041559
0.08	308.15	0.005674	0.0598458	0.0041206
0.08	308.15	0.0069	0.0725493	0.0040796
0.08	308.15	0.008215	0.0857641	0.0039793
0.08	308.15	0.009497	0.0983806	0.0032814
0.08	308.15	0.01129	0.111206	0.002225
0.08	308.15	0.01311	0.11848	0.001483
0.08	308.15	0.01503	0.125049	0.001364
0.08	308.15	0.01739	0.133035	0.001319
0.08	308.15	0.01968	0.140316	0.001298
0.08	308.15	0.0213	0.145677	0.00133

System: glycyl-L-valine + water + 1-dodecyl-3-methylimidazolium bromide; phases: Liquid
Fixed: Pressure, kPa = 101
Property: Mass density, kg/m3 (Liquid); method: Pycnometric method
Solvent: Molality, mol/kg of 1-dodecyl-3-methylimidazolium bromide	Temperature, K	Molality, mol/kg of glycyl-L-valine	Mass density, kg/m3	uncertainty
0.05	288.15	0	1000.28	0.3
0.05	288.15	0.0203	1001.351	0.305
0.05	288.15	0.04017	1002.413	0.305
0.05	288.15	0.08023	1004.601	0.306
0.05	288.15	0.09994	1005.699	0.307
0.05	288.15	0.1193	1006.772	0.307
0.05	288.15	0.14	1007.912	0.308
0.05	288.15	0.1594	1009.012	0.308
0.05	288.15	0.1795	1010.154	0.309
0.05	293.15	0	999.54	0.29
0.05	293.15	0.0203	1000.59	0.29
0.05	293.15	0.04017	1001.64	0.29
0.05	293.15	0.05936	1002.66	0.3
0.05	293.15	0.08023	1003.76	0.29
0.05	293.15	0.09994	1004.83	0.3
0.05	293.15	0.14	1006.96	0.3
0.05	293.15	0.1594	1008.05	0.3
0.05	293.15	0.1795	1009.12	0.3
0.05	298.15	0	998.33	0.3
0.05	298.15	0.0203	999.387	0.304
0.05	298.15	0.04017	1000.421	0.305
0.05	298.15	0.08023	1002.517	0.306
0.05	298.15	0.09994	1003.564	0.306
0.05	298.15	0.14	1005.701	0.307
0.05	298.15	0.1594	1006.784	0.308
0.05	298.15	0.1795	1007.863	0.308
0.05	298.15	0.1992	1008.902	0.308
0.05	303.15	0	996.88	0.31
0.05	303.15	0.03988	998.95	0.32
0.05	303.15	0.05904	999.96	0.32
0.05	303.15	0.07976	1001.05	0.32
0.05	303.15	0.11909	1003.17	0.32
0.05	303.15	0.13891	1004.23	0.32
0.05	303.15	0.15815	1005.24	0.32
0.05	303.15	0.17843	1006.35	0.32
0.1	288.15	0	1002.12	0.31
0.1	288.15	0.0406	1004.31	0.31
0.1	288.15	0.06038	1005.34	0.31
0.1	288.15	0.082	1006.47	0.31
0.1	288.15	0.101	1007.46	0.31
0.1	288.15	0.1234	1008.59	0.31
0.1	288.15	0.1451	1009.72	0.31
0.1	288.15	0.1655	1010.78	0.31
0.1	288.15	0.1859	1011.82	0.31
0.1	293.15	0	1001.12	0.29
0.1	293.15	0.0406	1003.21	0.29
0.1	293.15	0.06038	1004.22	0.29
0.1	293.15	0.082	1005.34	0.3
0.1	293.15	0.101	1006.31	0.3
0.1	293.15	0.1234	1007.53	0.3
0.1	293.15	0.1655	1009.6	0.3
0.1	293.15	0.1859	1010.72	0.3
0.1	298.15	0	999.95	0.3
0.1	298.15	0.0406	1001.99	0.3
0.1	298.15	0.06038	1003	0.31
0.1	298.15	0.082	1004.12	0.31
0.1	298.15	0.1234	1006.18	0.31
0.1	298.15	0.1451	1007.31	0.31
0.1	298.15	0.1655	1008.35	0.31
0.1	298.15	0.1859	1009.37	0.31
0.1	303.15	0	998.35	0.31
0.1	303.15	0.0392	1000.3	0.32
0.1	303.15	0.05809	1001.23	0.32
0.1	303.15	0.07872	1002.25	0.32
0.1	303.15	0.09851	1003.21	0.32
0.1	303.15	0.1385	1005.16	0.32
0.1	303.15	0.1583	1006.12	0.32
0.1	303.15	0.1792	1007.13	0.32
0.1	303.15	0.1999	1008.16	0.32

System: glycyl-L-valine + water + 1-dodecyl-3-methylimidazolium bromide; phases: Liquid
Fixed: Pressure, kPa = 101
Property: Electrical conductivity, S/m (Liquid); method: Alternating current cell with electrodes
Temperature, K	Solvent: Amount concentration (molarity), mol/dm3 of glycyl-L-valine	Amount concentration (molarity), mol/dm3 of 1-dodecyl-3-methylimidazolium bromide	Electrical conductivity, S/m	uncertainty
283.15	0.02	0.003067	0.0186542	0.0025834
283.15	0.02	0.004432	0.0274696	0.0024838
283.15	0.02	0.005752	0.0353217	0.0023745
283.15	0.02	0.007197	0.0438814	0.0023452
283.15	0.02	0.008553	0.0517389	0.0021947
283.15	0.02	0.01006	0.0595991	0.0015238
283.15	0.02	0.01181	0.0642358	0.0008687
283.15	0.02	0.01364	0.0673611	0.0006265
283.15	0.02	0.01569	0.0702851	0.000581
283.15	0.02	0.01791	0.073512	0.0005791
283.15	0.02	0.02005	0.0765377	0.0005822
283.15	0.02	0.02197	0.0793619	0.0005948
283.15	0.05	0.00313	0.0190997	0.0024378
283.15	0.05	0.004511	0.0272512	0.0023384
283.15	0.05	0.00613	0.0367145	0.0023081
283.15	0.05	0.007518	0.0446707	0.0022414
283.15	0.05	0.008782	0.051622	0.0019363
283.15	0.05	0.01035	0.0585753	0.0013091
283.15	0.05	0.01198	0.0625063	0.0008035
283.15	0.05	0.01389	0.0658331	0.0006443
283.15	0.05	0.01589	0.0688579	0.0006048
283.15	0.05	0.01841	0.0726898	0.0005858
283.15	0.05	0.0207	0.0759171	0.0005832
283.15	0.05	0.02209	0.0779345	0.0006306
283.15	0.08	0.002549	0.0149953	0.0024862
283.15	0.08	0.003883	0.0232865	0.002386
283.15	0.08	0.005505	0.0326479	0.0022634
283.15	0.08	0.007104	0.0415094	0.0021891
283.15	0.08	0.008488	0.0489637	0.0020301
283.15	0.08	0.009845	0.0554126	0.0014053
283.15	0.08	0.01174	0.0605528	0.0009234
283.15	0.08	0.01357	0.0639802	0.0007001
283.15	0.08	0.01533	0.0668032	0.0006335
283.15	0.08	0.01754	0.0702315	0.0006113
283.15	0.08	0.01972	0.0734587	0.0006063
283.15	0.08	0.0215	0.0761819	0.0006179
288.15	0.02	0.003067	0.0217242	0.0027801
288.15	0.02	0.004432	0.0310844	0.0027449
288.15	0.02	0.005752	0.0401461	0.0027089
288.15	0.02	0.007197	0.0498158	0.0026486
288.15	0.02	0.008553	0.0586832	0.0024302
288.15	0.02	0.01006	0.0672515	0.0016582
288.15	0.02	0.01181	0.072394	0.0009679
288.15	0.02	0.01364	0.0759238	0.0007382
288.15	0.02	0.01569	0.079555	0.0007018
288.15	0.02	0.01791	0.0833885	0.0006907
288.15	0.02	0.02005	0.0870208	0.0006842
288.15	0.02	0.02197	0.0902501	0.0007616
288.15	0.05	0.00313	0.0216759	0.0026372
288.15	0.05	0.004511	0.0308351	0.0026467
288.15	0.05	0.00613	0.0416092	0.0026156
288.15	0.05	0.007518	0.0505747	0.0025284
288.15	0.05	0.008782	0.0584349	0.0021364
288.15	0.05	0.01035	0.0659952	0.001458
288.15	0.05	0.01198	0.0704317	0.0009277
288.15	0.05	0.01389	0.0743648	0.0007716
288.15	0.05	0.01589	0.0779959	0.0007004
288.15	0.05	0.01841	0.0823338	0.0007006
288.15	0.05	0.0207	0.0863698	0.0007254
288.15	0.05	0.02209	0.0887917	0.0008469
288.15	0.08	0.002549	0.0175108	0.0027178
288.15	0.08	0.003883	0.0264674	0.0026402
288.15	0.08	0.005505	0.0370385	0.0025766
288.15	0.08	0.007104	0.0472115	0.0025154
288.15	0.08	0.008488	0.0557763	0.0022375
288.15	0.08	0.009845	0.0625295	0.0015102
288.15	0.08	0.01174	0.0683772	0.0010549
288.15	0.08	0.01357	0.0723101	0.0008246
288.15	0.08	0.01533	0.0757393	0.0007496
288.15	0.08	0.01754	0.0797743	0.000731
288.15	0.08	0.01972	0.0837091	0.0007238
288.15	0.08	0.0215	0.0868372	0.0008158
293.15	0.02	0.003067	0.0244143	0.0028697
293.15	0.02	0.004432	0.0349837	0.0030802
293.15	0.02	0.005752	0.0450542	0.0030107
293.15	0.02	0.007197	0.0559353	0.0030069
293.15	0.02	0.008553	0.0660148	0.0027272
293.15	0.02	0.01006	0.0755943	0.001848
293.15	0.02	0.01181	0.0813439	0.0011147
293.15	0.02	0.01364	0.0855814	0.0008858
293.15	0.02	0.01569	0.0899205	0.0008171
293.15	0.02	0.01791	0.0942604	0.0008013
293.15	0.02	0.02005	0.0986011	0.0008043
293.15	0.02	0.02197	0.102337	0.000989
293.15	0.05	0.00313	0.024343	0.0030008
293.15	0.05	0.004511	0.0348123	0.0029963
293.15	0.05	0.00613	0.046898	0.0029381
293.15	0.05	0.007518	0.0569741	0.0028318
293.15	0.05	0.008782	0.0657439	0.0024076
293.15	0.05	0.01035	0.0743152	0.001669
293.15	0.05	0.01198	0.0794595	0.0010772
293.15	0.05	0.01389	0.0839995	0.000908
293.15	0.05	0.01589	0.0883386	0.0008447
293.15	0.05	0.01841	0.0935869	0.0008287
293.15	0.05	0.0207	0.0982306	0.0008426
293.15	0.05	0.02209	0.101159	0.000971
293.15	0.08	0.002549	0.0197047	0.0029868
293.15	0.08	0.003883	0.029669	0.0029679
293.15	0.08	0.005505	0.0416518	0.0029148
293.15	0.08	0.007104	0.0531369	0.0028143
293.15	0.08	0.008488	0.0626113	0.0025032
293.15	0.08	0.009845	0.0702742	0.001732
293.15	0.08	0.01174	0.0770318	0.0012181
293.15	0.08	0.01357	0.0815715	0.0009711
293.15	0.08	0.01533	0.0857085	0.0008917
293.15	0.08	0.01754	0.0904518	0.0008603
293.15	0.08	0.01972	0.095095	0.0008675
293.15	0.08	0.0215	0.0989315	0.0009672
298.15	0.02	0.003067	0.0294358	0.0043532
298.15	0.02	0.004432	0.0436332	0.004227
298.15	0.02	0.005752	0.0578392	0.0036456
298.15	0.02	0.007197	0.068827	0.0028737
298.15	0.02	0.008553	0.0780043	0.0024567
298.15	0.02	0.01006	0.0863779	0.0016428
298.15	0.02	0.01181	0.0915245	0.0010155
298.15	0.02	0.01364	0.095461	0.0008427
298.15	0.02	0.01569	0.099701	0.0009387
298.15	0.02	0.01791	0.105456	0.001062
298.15	0.02	0.02005	0.111213	0.00118
298.15	0.02	0.02197	0.117376	0.001286
298.15	0.05	0.00313	0.0271716	0.0031365
298.15	0.05	0.004511	0.03875	0.0032055
298.15	0.05	0.00613	0.0521478	0.0030687
298.15	0.05	0.007518	0.063436	0.0030249
298.15	0.05	0.008782	0.0734185	0.0026342
298.15	0.05	0.01035	0.0831026	0.0018662
298.15	0.05	0.01198	0.0890562	0.0012775
298.15	0.05	0.01389	0.0946076	0.0010909
298.15	0.05	0.01589	0.0996554	0.0010013
298.15	0.05	0.01841	0.105714	0.001006
298.15	0.05	0.0207	0.111472	0.001008
298.15	0.05	0.02209	0.114805	0.001086
298.15	0.08	0.002549	0.021909	0.0033293
298.15	0.08	0.003883	0.0330826	0.0033084
298.15	0.08	0.005505	0.046377	0.0032408
298.15	0.08	0.007104	0.059175	0.0031528
298.15	0.08	0.008488	0.0698621	0.0028131
298.15	0.08	0.009845	0.0784355	0.0019919
298.15	0.08	0.01174	0.0864065	0.0014464
298.15	0.08	0.01357	0.0918565	0.0011405
298.15	0.08	0.01533	0.0966011	0.0010432
298.15	0.08	0.01754	0.102256	0.001036
298.15	0.08	0.01972	0.107911	0.001032
298.15	0.08	0.0215	0.112356	0.001089
303.15	0.02	0.003067	0.0324852	0.0046077
303.15	0.02	0.004432	0.0482963	0.0046972
303.15	0.02	0.005752	0.0640173	0.0039906
303.15	0.02	0.007197	0.0760167	0.0031876
303.15	0.02	0.008553	0.0863067	0.0028128
303.15	0.02	0.01006	0.0961974	0.0019562
303.15	0.02	0.01181	0.102457	0.001218
303.15	0.02	0.01364	0.107102	0.001032
303.15	0.02	0.01569	0.112456	0.001112
303.15	0.02	0.01791	0.118921	0.001211
303.15	0.02	0.02005	0.125591	0.00133
303.15	0.02	0.02197	0.132364	0.001548
303.15	0.05	0.00313	0.0302523	0.0034644
303.15	0.05	0.004511	0.0428396	0.0035324
303.15	0.05	0.00613	0.0577517	0.0034054
303.15	0.05	0.007518	0.0702529	0.0033479
303.15	0.05	0.008782	0.0812473	0.0029833
303.15	0.05	0.01035	0.0924487	0.0022218
303.15	0.05	0.01198	0.0998183	0.0015241
303.15	0.05	0.01389	0.10618	0.001304
303.15	0.05	0.01589	0.112443	0.001184
303.15	0.05	0.01841	0.119414	0.001147
303.15	0.05	0.0207	0.125883	0.001142
303.15	0.05	0.02209	0.129724	0.001276
303.15	0.08	0.002549	0.024325	0.003687
303.15	0.08	0.003883	0.0366077	0.0036499
303.15	0.08	0.005505	0.0513151	0.0035794
303.15	0.08	0.007104	0.0654268	0.0034922
303.15	0.08	0.008488	0.0773275	0.0031675
303.15	0.08	0.009845	0.0871147	0.002309
303.15	0.08	0.01174	0.0965022	0.0017085
303.15	0.08	0.01357	0.102965	0.001401
303.15	0.08	0.01533	0.109025	0.001243
303.15	0.08	0.01754	0.115389	0.001184
303.15	0.08	0.01972	0.121958	0.001179
303.15	0.08	0.0215	0.126911	0.001284
308.15	0.02	0.003067	0.0357978	0.005077
308.15	0.02	0.004432	0.0531227	0.0051486
308.15	0.02	0.005752	0.0703596	0.0044379
308.15	0.02	0.007197	0.0838756	0.0035184
308.15	0.02	0.008553	0.0949767	0.0031866
308.15	0.02	0.01006	0.106689	0.002429
308.15	0.02	0.01181	0.114871	0.001524
308.15	0.02	0.01364	0.120327	0.001171
308.15	0.02	0.01569	0.126188	0.001285
308.15	0.02	0.01791	0.133973	0.001397
308.15	0.02	0.02005	0.141355	0.001508
308.15	0.02	0.02197	0.149245	0.001649
308.15	0.05	0.00313	0.0329309	0.0037798
308.15	0.05	0.004511	0.0471317	0.0039259
308.15	0.05	0.00613	0.0634581	0.003809
308.15	0.05	0.007518	0.0773747	0.0037208
308.15	0.05	0.008782	0.0893818	0.0034091
308.15	0.05	0.01035	0.102607	0.00266
308.15	0.05	0.01198	0.111697	0.00185
308.15	0.05	0.01389	0.119376	0.001486
308.15	0.05	0.01589	0.126249	0.001376
308.15	0.05	0.01841	0.134741	0.001304
308.15	0.05	0.0207	0.141821	0.001277
308.15	0.05	0.02209	0.146373	0.001473
308.15	0.08	0.002549	0.0267011	0.0040761
308.15	0.08	0.003883	0.0402947	0.0040194
308.15	0.08	0.005505	0.0564159	0.0039555
308.15	0.08	0.007104	0.0721446	0.0038699
308.15	0.08	0.008488	0.08526	0.0035944
308.15	0.08	0.009845	0.0967671	0.0028067
308.15	0.08	0.01174	0.10828	0.002075
308.15	0.08	0.01357	0.116059	0.001603
308.15	0.08	0.01533	0.122628	0.001449
308.15	0.08	0.01754	0.130412	0.001369
308.15	0.08	0.01972	0.137592	0.001343
308.15	0.08	0.0215	0.143661	0.00137

System: glycyl-L-leucine + water + 1-dodecyl-3-methylimidazolium bromide; phases: Liquid
Fixed: Pressure, kPa = 101
Property: Mass density, kg/m3 (Liquid); method: Pycnometric method
Solvent: Molality, mol/kg of 1-dodecyl-3-methylimidazolium bromide	Temperature, K	Molality, mol/kg of glycyl-L-leucine	Mass density, kg/m3	uncertainty
0.05	288.15	0	1000.22	0.32
0.05	288.15	0.00999	1000.716	0.319
0.05	288.15	0.01995	1001.225	0.319
0.05	288.15	0.02959	1001.719	0.319
0.05	288.15	0.0501	1002.807	0.32
0.05	288.15	0.05965	1003.33	0.32
0.05	288.15	0.07047	1003.927	0.321
0.05	288.15	0.07981	1004.43	0.321
0.05	288.15	0.0893	1004.997	0.322
0.05	293.15	0	999.56	0.31
0.05	293.15	0.00999	1000.048	0.307
0.05	293.15	0.01995	1000.538	0.308
0.05	293.15	0.02959	1001.018	0.308
0.05	293.15	0.04028	1001.561	0.307
0.05	293.15	0.0501	1002.055	0.309
0.05	293.15	0.07047	1003.1	0.31
0.05	293.15	0.07981	1003.572	0.309
0.05	293.15	0.0893	1004.063	0.308
0.05	298.15	0	998.25	0.32
0.05	298.15	0.00999	998.73	0.32
0.05	298.15	0.01995	999.23	0.32
0.05	298.15	0.02959	999.71	0.32
0.05	298.15	0.04028	1000.27	0.32
0.05	298.15	0.0501	1000.78	0.32
0.05	298.15	0.05965	1001.26	0.32
0.05	298.15	0.07047	1001.83	0.32
0.05	298.15	0.07981	1002.38	0.32
0.05	298.15	0.0893	1002.88	0.32
0.05	303.15	0	996.92	0.33
0.05	303.15	0.02214	997.96	0.33
0.05	303.15	0.02964	998.33	0.33
0.05	303.15	0.04013	998.86	0.33
0.05	303.15	0.05015	999.35	0.33
0.05	303.15	0.06005	999.85	0.33
0.05	303.15	0.07052	1000.38	0.33
0.05	303.15	0.07977	1000.85	0.33
0.1	288.15	0	1002.11	0.32
0.1	288.15	0.02018	1003.09	0.32
0.1	288.15	0.03018	1003.58	0.32
0.1	288.15	0.04039	1004.08	0.32
0.1	288.15	0.05055	1004.58	0.32
0.1	288.15	0.06084	1005.08	0.32
0.1	288.15	0.07103	1005.6	0.32
0.1	288.15	0.0814	1006.1	0.32
0.1	293.15	0	1001.14	0.31
0.1	293.15	0.02018	1002.1	0.31
0.1	293.15	0.03018	1002.59	0.31
0.1	293.15	0.04039	1003.1	0.31
0.1	293.15	0.05055	1003.59	0.31
0.1	293.15	0.06084	1004.1	0.31
0.1	293.15	0.0814	1005.13	0.31
0.1	293.15	0.1018	1006.13	0.31
0.1	298.15	0	999.95	0.32
0.1	298.15	0.02018	1000.9	0.32
0.1	298.15	0.03018	1001.38	0.32
0.1	298.15	0.04039	1001.88	0.32
0.1	298.15	0.06084	1002.85	0.32
0.1	298.15	0.07103	1003.35	0.32
0.1	298.15	0.09185	1004.35	0.32
0.1	298.15	0.1018	1004.88	0.32
0.1	303.15	0	998.42	0.33
0.1	303.15	0.03905	1000.23	0.33
0.1	303.15	0.05865	1001.13	0.33
0.1	303.15	0.07816	1002.03	0.33
0.1	303.15	0.09846	1002.97	0.33
0.1	303.15	0.1187	1003.88	0.33
0.1	303.15	0.1384	1004.79	0.33
0.1	303.15	0.1582	1005.66	0.33
0.1	303.15	0.179	1006.62	0.33
0.1	303.15	0.2	1007.57	0.33

System: glycyl-L-leucine + water + 1-dodecyl-3-methylimidazolium bromide; phases: Liquid
Fixed: Pressure, kPa = 101
Property: Electrical conductivity, S/m (Liquid); method: Alternating current cell with electrodes
Temperature, K	Solvent: Amount concentration (molarity), mol/dm3 of glycyl-L-leucine	Amount concentration (molarity), mol/dm3 of 1-dodecyl-3-methylimidazolium bromide	Electrical conductivity, S/m	uncertainty
283.15	0.02	0.003066	0.0185382	0.0026593
283.15	0.02	0.003956	0.0244548	0.0024859
283.15	0.02	0.005482	0.0336145	0.0023923
283.15	0.02	0.006835	0.0416699	0.0023795
283.15	0.02	0.007988	0.0485191	0.0022986
283.15	0.02	0.009271	0.0556727	0.0019516
283.15	0.02	0.01059	0.0612156	0.0013333
283.15	0.02	0.01185	0.0642396	0.0007745
283.15	0.02	0.01379	0.0674657	0.0006293
283.15	0.02	0.0161	0.0708938	0.0005857
283.15	0.02	0.01858	0.0744233	0.0005693
283.15	0.02	0.02104	0.0778524	0.0005641
283.15	0.05	0.003525	0.0207117	0.0022048
283.15	0.05	0.005012	0.029266	0.0022988
283.15	0.05	0.006464	0.0374207	0.0022917
283.15	0.05	0.008055	0.0465855	0.0022566
283.15	0.05	0.009487	0.0544439	0.0017104
283.15	0.05	0.01095	0.0591804	0.001044
283.15	0.05	0.01221	0.0617001	0.0006815
283.15	0.05	0.01384	0.0645226	0.0006186
283.15	0.05	0.01594	0.0676479	0.0006276
283.15	0.05	0.0177	0.0703702	0.0006346
283.15	0.05	0.01967	0.0731938	0.0005637
283.15	0.05	0.02159	0.0762193	0.0007825
283.15	0.08	0.003525	0.0207117	0.0023012
283.15	0.08	0.005012	0.029266	0.0022744
283.15	0.08	0.006464	0.0374207	0.0022774
283.15	0.08	0.008055	0.0465855	0.002254
283.15	0.08	0.009487	0.0544439	0.0017399
283.15	0.08	0.01095	0.0591804	0.0010741
283.15	0.08	0.01221	0.0617001	0.0007402
283.15	0.08	0.01384	0.0645226	0.0006397
283.15	0.08	0.01594	0.0676479	0.0006101
283.15	0.08	0.0177	0.0703702	0.0005994
283.15	0.08	0.01967	0.0731938	0.000607
283.15	0.08	0.02159	0.0762193	0.0006362
288.15	0.02	0.003066	0.0216543	0.0027883
288.15	0.02	0.003956	0.0276925	0.0027138
288.15	0.02	0.005482	0.0380618	0.0027423
288.15	0.02	0.006835	0.0474282	0.0027202
288.15	0.02	0.007988	0.0550853	0.0025444
288.15	0.02	0.009271	0.0629464	0.0021675
288.15	0.02	0.01059	0.0691969	0.001478
288.15	0.02	0.01185	0.0724236	0.000863
288.15	0.02	0.01379	0.0762559	0.0007292
288.15	0.02	0.0161	0.0801897	0.0006941
288.15	0.02	0.01858	0.0845277	0.0006835
288.15	0.02	0.02104	0.0885638	0.0007216
288.15	0.05	0.003525	0.0232345	0.0026435
288.15	0.05	0.005012	0.0331992	0.0026598
288.15	0.05	0.006464	0.0425638	0.002604
288.15	0.05	0.008055	0.052839	0.002536
288.15	0.05	0.009487	0.0617075	0.0019187
288.15	0.05	0.01095	0.0669495	0.0011757
288.15	0.05	0.01221	0.0698734	0.0007901
288.15	0.05	0.01384	0.0731003	0.0007387
288.15	0.05	0.01594	0.0769327	0.0007443
288.15	0.05	0.0177	0.0800597	0.0007539
288.15	0.05	0.01967	0.0835906	0.000675
288.15	0.05	0.02159	0.0870211	0.0008442
288.15	0.08	0.003525	0.0232345	0.0026825
288.15	0.08	0.005012	0.0331992	0.0026315
288.15	0.08	0.006464	0.0425638	0.0025814
288.15	0.08	0.008055	0.052839	0.0025363
288.15	0.08	0.009487	0.0617075	0.001947
288.15	0.08	0.01095	0.0669495	0.0012155
288.15	0.08	0.01221	0.0698734	0.0008428
288.15	0.08	0.01384	0.0731003	0.000753
288.15	0.08	0.01594	0.0769327	0.0007299
288.15	0.08	0.0177	0.0800597	0.000716
288.15	0.08	0.01967	0.0835906	0.0007217
288.15	0.08	0.02159	0.0870211	0.0008098
293.15	0.02	0.003066	0.0242738	0.0030483
293.15	0.02	0.003956	0.031118	0.0030629
293.15	0.02	0.005482	0.042798	0.0030655
293.15	0.02	0.006835	0.0531739	0.0030576
293.15	0.02	0.007988	0.0619416	0.0028742
293.15	0.02	0.009271	0.0707126	0.0024159
293.15	0.02	0.01059	0.0776712	0.0016673
293.15	0.02	0.01185	0.0814034	0.000997
293.15	0.02	0.01379	0.0858426	0.0008713
293.15	0.02	0.0161	0.0906862	0.0008204
293.15	0.02	0.01858	0.0956318	0.0007906
293.15	0.02	0.02104	0.100377	0.000875
293.15	0.05	0.003525	0.0257355	0.0030044
293.15	0.05	0.005012	0.037413	0.0030627
293.15	0.05	0.006464	0.0479882	0.0029235
293.15	0.05	0.008055	0.0594752	0.0028304
293.15	0.05	0.009487	0.0693545	0.0021685
293.15	0.05	0.01095	0.0754051	0.0013805
293.15	0.05	0.01221	0.0789353	0.000939
293.15	0.05	0.01384	0.0826678	0.0008814
293.15	0.05	0.01594	0.0873091	0.0008824
293.15	0.05	0.0177	0.090942	0.000873
293.15	0.05	0.01967	0.0950802	0.0008026
293.15	0.05	0.02159	0.0991182	0.0009794
293.15	0.08	0.003525	0.0257355	0.0030373
293.15	0.08	0.005012	0.037413	0.0030297
293.15	0.08	0.006464	0.0479882	0.0028997
293.15	0.08	0.008055	0.0594752	0.0028307
293.15	0.08	0.009487	0.0693545	0.0021979
293.15	0.08	0.01095	0.0754051	0.0014234
293.15	0.08	0.01221	0.0789353	0.0009951
293.15	0.08	0.01384	0.0826678	0.0008958
293.15	0.08	0.01594	0.0873091	0.0008672
293.15	0.08	0.0177	0.090942	0.0008358
293.15	0.08	0.01967	0.0950802	0.000847
293.15	0.08	0.02159	0.0991182	0.0009491
298.15	0.02	0.003066	0.0270787	0.0034261
298.15	0.02	0.003956	0.0347292	0.0034325
298.15	0.02	0.005482	0.0478213	0.0033888
298.15	0.02	0.006835	0.0591065	0.0034094
298.15	0.02	0.007988	0.0691872	0.003255
298.15	0.02	0.009271	0.0789695	0.0027427
298.15	0.02	0.01059	0.0870405	0.00195
298.15	0.02	0.01185	0.0914807	0.0011864
298.15	0.02	0.01379	0.0967293	0.0010242
298.15	0.02	0.0161	0.102383	0.000956
298.15	0.02	0.01858	0.108139	0.000947
298.15	0.02	0.02104	0.113997	0.001035
298.15	0.05	0.003525	0.0293963	0.0033377
298.15	0.05	0.005012	0.0417807	0.0033248
298.15	0.05	0.006464	0.053567	0.0032683
298.15	0.05	0.008055	0.0664683	0.0032164
298.15	0.05	0.009487	0.0778635	0.0024418
298.15	0.05	0.01095	0.0844208	0.0015734
298.15	0.05	0.01221	0.0887597	0.0011212
298.15	0.05	0.01384	0.0930994	0.0010527
298.15	0.05	0.01594	0.0987523	0.0010532
298.15	0.05	0.0177	0.102993	0.001013
298.15	0.05	0.01967	0.10784	0.000962
298.15	0.05	0.02159	0.112688	0.00116
298.15	0.08	0.003525	0.0293963	0.0033897
298.15	0.08	0.005012	0.0417807	0.0032903
298.15	0.08	0.006464	0.053567	0.0032448
298.15	0.08	0.008055	0.0664683	0.0032168
298.15	0.08	0.009487	0.0778635	0.0024771
298.15	0.08	0.01095	0.0844208	0.0016172
298.15	0.08	0.01221	0.0887597	0.0011842
298.15	0.08	0.01384	0.0930994	0.0010679
298.15	0.08	0.01594	0.0987523	0.0010361
298.15	0.08	0.0177	0.102993	0.000977
298.15	0.08	0.01967	0.10784	0.001004
298.15	0.08	0.02159	0.112688	0.001126
303.15	0.02	0.003066	0.0299666	0.0037928
303.15	0.02	0.003956	0.0384236	0.0037807
303.15	0.02	0.005482	0.0528276	0.0037667
303.15	0.02	0.006835	0.0655266	0.0037658
303.15	0.02	0.007988	0.0764169	0.0035865
303.15	0.02	0.009271	0.0874131	0.0031624
303.15	0.02	0.01059	0.0970011	0.0023275
303.15	0.02	0.01185	0.102352	0.001415
303.15	0.02	0.01379	0.108613	0.001222
303.15	0.02	0.0161	0.115381	0.001142
303.15	0.02	0.01858	0.122251	0.001111
303.15	0.02	0.02104	0.129023	0.001166
303.15	0.05	0.003525	0.0324074	0.0036832
303.15	0.05	0.005012	0.0464052	0.003712
303.15	0.05	0.006464	0.0594033	0.0036037
303.15	0.05	0.008055	0.0736189	0.0035391
303.15	0.05	0.009487	0.0861275	0.0028778
303.15	0.05	0.01095	0.0947059	0.0019694
303.15	0.05	0.01221	0.0997534	0.001344
303.15	0.05	0.01384	0.105004	0.001199
303.15	0.05	0.01594	0.111165	0.00123
303.15	0.05	0.0177	0.11662	0.001254
303.15	0.05	0.01967	0.122481	0.001111
303.15	0.05	0.02159	0.127837	0.001279
303.15	0.08	0.003525	0.0324074	0.0037252
303.15	0.08	0.005012	0.0464052	0.003675
303.15	0.08	0.006464	0.0594033	0.0035771
303.15	0.08	0.008055	0.0736189	0.0035394
303.15	0.08	0.009487	0.0861275	0.0029102
303.15	0.08	0.01095	0.0947059	0.0020218
303.15	0.08	0.01221	0.0997534	0.0014085
303.15	0.08	0.01384	0.105004	0.001215
303.15	0.08	0.01594	0.111165	0.001214
303.15	0.08	0.0177	0.11662	0.001215
303.15	0.08	0.01967	0.122481	0.001161
303.15	0.08	0.02159	0.127837	0.001246
308.15	0.02	0.003066	0.0329092	0.0042088
308.15	0.02	0.003956	0.0422737	0.004149
308.15	0.02	0.005482	0.0579902	0.0041442
308.15	0.02	0.006835	0.0721038	0.0042004
308.15	0.02	0.007988	0.0843087	0.0040059
308.15	0.02	0.009271	0.09652	0.0035687
308.15	0.02	0.01059	0.107526	0.002824
308.15	0.02	0.01185	0.114697	0.001796
308.15	0.02	0.01379	0.122073	0.001409
308.15	0.02	0.0161	0.129653	0.001288
308.15	0.02	0.01858	0.137438	0.001259
308.15	0.02	0.02104	0.145125	0.001257
308.15	0.05	0.003525	0.0358681	0.0039389
308.15	0.05	0.005012	0.051077	0.0040527
308.15	0.05	0.006464	0.0653884	0.0039972
308.15	0.05	0.008055	0.0813226	0.0039567
308.15	0.05	0.009487	0.0952487	0.0032933
308.15	0.05	0.01095	0.105446	0.002415
308.15	0.05	0.01221	0.11191	0.001706
308.15	0.05	0.01384	0.118477	0.001445
308.15	0.05	0.01594	0.125652	0.001398
308.15	0.05	0.0177	0.131717	0.001396
308.15	0.05	0.01967	0.13829	0.001304
308.15	0.05	0.02159	0.144763	0.001487
308.15	0.08	0.003525	0.0358681	0.0040913
308.15	0.08	0.005012	0.051077	0.0040182
308.15	0.08	0.006464	0.0653884	0.0039765
308.15	0.08	0.008055	0.0813226	0.0039526
308.15	0.08	0.009487	0.0952487	0.0033317
308.15	0.08	0.01095	0.105446	0.002458
308.15	0.08	0.01221	0.11191	0.001797
308.15	0.08	0.01384	0.118477	0.001472
308.15	0.08	0.01594	0.125652	0.001377
308.15	0.08	0.0177	0.131717	0.00136
308.15	0.08	0.01967	0.13829	0.001347
308.15	0.08	0.02159	0.144763	0.001355

System: water + 1-dodecyl-3-methylimidazolium bromide; phases: Liquid
Fixed: Pressure, kPa = 101
Property: Electrical conductivity, S/m (Liquid); method: Alternating current cell with electrodes
Temperature, K	Amount concentration (molarity), mol/dm3 of 1-dodecyl-3-methylimidazolium bromide	Electrical conductivity, S/m	uncertainty
283.15	0.0006629	0.0043185	0.00262224
283.15	0.001064	0.00694795	0.00262849
283.15	0.001497	0.00979938	0.00259358
283.15	0.00184	0.0119874	0.0024913
283.15	0.002146	0.013969	0.0019563
283.15	0.00249	0.0158167	0.0018341
283.15	0.002909	0.0167569	0.0007858
283.15	0.003361	0.0175302	0.0006294
283.15	0.003884	0.0182933	0.0005986
283.15	0.00448	0.0192032	0.0005832
283.15	0.004998	0.0199146	0.0004945
283.15	0.005625	0.0206218	0.0004518
288.15	0.0006629	0.00490524	0.00297215
288.15	0.001064	0.00788915	0.00297822
288.15	0.001497	0.011117	0.002931
288.15	0.00184	0.013588	0.0028027
288.15	0.002146	0.0158322	0.0021899
288.15	0.00249	0.0178488	0.0021098
288.15	0.002909	0.0189572	0.0009093
288.15	0.003361	0.019836	0.0005853
288.15	0.003884	0.0204034	0.0006009
288.15	0.00448	0.0215202	0.0007364
288.15	0.004998	0.0224339	0.0007018
288.15	0.005625	0.0235508	0.0007993
293.15	0.0006629	0.00550274	0.00341309
293.15	0.001064	0.00893508	0.00334331
293.15	0.001497	0.0124773	0.0032683
293.15	0.00184	0.0152528	0.0031377
293.15	0.002146	0.017781	0.0024351
293.15	0.00249	0.0200924	0.0023367
293.15	0.002909	0.0212004	0.0009702
293.15	0.003361	0.0222157	0.0008675
293.15	0.003884	0.0233325	0.0007958
293.15	0.00448	0.0244493	0.0008051
293.15	0.004998	0.0255661	0.0008458
293.15	0.005625	0.0268861	0.0009069
298.15	0.0006629	0.00612984	0.00379784
298.15	0.001064	0.00993811	0.00372415
298.15	0.001497	0.0138994	0.0036448
298.15	0.00184	0.0169902	0.003451
298.15	0.002146	0.019803	0.0028069
298.15	0.00249	0.0221987	0.0027015
298.15	0.002909	0.0239247	0.0013438
298.15	0.003361	0.0251431	0.0009932
298.15	0.003884	0.0263614	0.0009773
298.15	0.00448	0.0278844	0.0009885
298.15	0.004998	0.0291028	0.0009164
298.15	0.005625	0.0305242	0.0010152
303.15	0.0006629	0.00675692	0.00419088
303.15	0.001064	0.0109727	0.0041202
303.15	0.001497	0.0153535	0.0039048
303.15	0.00184	0.0187811	0.0038615
303.15	0.002146	0.0215724	0.0032588
303.15	0.00249	0.0247198	0.0031527
303.15	0.002909	0.0269535	0.001666
303.15	0.003361	0.0283749	0.0012002
303.15	0.003884	0.0298979	0.0011203
303.15	0.00448	0.0315224	0.0011349
303.15	0.004998	0.0330454	0.0010908
303.15	0.005625	0.03467	0.0011662
308.15	0.0006629	0.00742415	0.00464219
308.15	0.001064	0.0120791	0.0045284
308.15	0.001497	0.0168698	0.0042837
308.15	0.00184	0.0201322	0.0042768
308.15	0.002146	0.0236857	0.00382
308.15	0.00249	0.0273408	0.0038888
308.15	0.002909	0.0303868	0.002183
308.15	0.003361	0.0321129	0.001414
308.15	0.003884	0.0338389	0.0013067
308.15	0.00448	0.0357681	0.001277
308.15	0.004998	0.0373927	0.0012781
308.15	0.005625	0.0394234	0.0012961
