Measured thermophysical data. An experimental study of PVTx properties in the gas phase for binary mixtures of HFC-161 and HFC-32
Source: Fluid Phase Equilib., 2006, 10.1016/j.fluid.2006.03.003
Compound 1: fluoroethane, C2H5F, InChI=1S/C2H5F/c1-2-3/h2H2,1H3, purity 99.74%
Compound 2: difluoromethane, CH2F2, InChI=1S/CH2F2/c2-1-3/h1H2, purity 99.98%

System: difluoromethane + fluoroethane; phases: Gas
Property: Amount density, mol/m3 (Gas); method: ISOCHOR
Temperature, K	Pressure, kPa	Mole fraction of fluoroethane	Amount density, mol/m3	uncertainty
303.179	1182.9	0.5084	1730.4	5.9
308.151	1216.7	0.5084	1730.7	5.9
313.152	1248.7	0.5084	1731.3	5.9
313.157	1847.3	0.1597	1077	4.5
318.154	1280.2	0.5084	1731.6	5.8
318.163	2131.5	0.2227	905.8	4.4
318.188	1901.8	0.1597	1077.4	4.3
323.147	1310.7	0.5084	1731.9	5.8
323.155	1954.5	0.1597	1077.6	4.2
323.157	2198.6	0.2227	906	2.7
323.17	2210.3	0.383	882.5	3.9
328.152	1341.1	0.5084	1732.5	5.8
328.158	2002.7	0.1597	1077.8	6.4
328.161	2279.9	0.383	882.8	4
328.162	2263.4	0.2227	906.2	2.7
333.144	2327.5	0.2227	906.5	3.3
333.149	1371	0.5084	1732.8	5.8
333.154	2054	0.1597	1078.2	6.3
333.156	2347.7	0.383	883	3.9
338.147	1400.5	0.5084	1733.4	5.8
338.156	2104.4	0.1597	1078.4	3.7
338.156	2414	0.383	883.2	3.8
338.157	2390.9	0.2227	906.7	2.8
338.174	2090.9	0.8989	997.6	3.2
338.176	2630.9	0.5399	750.5	3.4
343.147	2452.5	0.2227	906.9	2.8
343.156	1429.4	0.5084	1733.7	5.7
343.156	2479	0.383	883.4	2.8
343.164	2154.4	0.1597	1078.6	3.6
343.166	2149.6	0.8989	997.9	3.2
343.167	2712.8	0.5399	750.7	3.3
348.157	2513.6	0.2227	907.1	2.8
348.157	2543.5	0.383	883.6	2.8
348.159	1458.6	0.5084	1734.3	5.7
348.16	2203.9	0.1597	1079	3.6
348.165	2792.7	0.5399	750.9	3.3
348.177	2207.5	0.8989	998.1	3.2
353.149	1487.1	0.5084	1734.6	5.7
353.154	2606.9	0.383	883.9	2.8
353.155	2574.4	0.2227	907.4	2.8
353.159	2252.8	0.1597	1079.2	3.6
353.166	2871.3	0.5399	751.1	3.2
353.18	2264.1	0.8989	998.4	3.2
358.151	2634.6	0.2227	907.6	3.1
358.152	1515.5	0.5084	1734.9	5.7
358.168	3771.6	0.576	499.6	1.8
358.174	2949	0.5399	751.3	3.6
358.178	2301.6	0.1597	1079.4	3.6
358.182	2319.9	0.8989	998.6	3.1
358.198	2670	0.383	884.1	2.8
361.135	2995	0.5399	751.4	3.1
363.148	3899.7	0.576	499.7	1.8
363.149	2693.7	0.2227	907.8	3.1
363.155	2350.2	0.1597	1079.8	3.6
363.157	1545.2	0.5084	1735.5	5.7
363.16	3026.2	0.5399	751.5	3.7
363.16	4411.2	0.6132	384.5	1.5
363.164	2732	0.383	884.3	2.8
363.187	2375.4	0.8989	998.9	3.1
366.249	5121.2	0.5194	310.8	1.5
368.128	3102.1	0.5399	751.7	3.6
368.128	4026	0.576	499.8	1.9
368.132	2398.1	0.1597	1080	3.6
368.137	5208.2	0.5194	310.8	1.6
368.139	2794	0.383	884.5	2.8
368.148	1573.6	0.5084	1735.8	5.6
368.15	2752.8	0.2227	908	3.1
368.162	2429.8	0.8989	999.1	3.1
368.19	4589.1	0.6132	384.6	1.5
370.162	5300.1	0.5194	310.9	1.5
371.138	4692	0.6132	384.7	1.4
372.181	5391.1	0.5194	310.9	1.6
373.143	4150.9	0.576	500	1.9
373.144	2445.5	0.1597	1080.3	3.5
373.146	2484.1	0.8989	999.4	3.1
373.16	2855.6	0.383	884.7	2.8
373.186	3177.9	0.5399	751.8	3.7
373.194	2811.5	0.2227	908.3	3.1
373.254	1602.1	0.5084	1736.4	5.6
374.203	4796.7	0.6132	384.7	1.4
374.207	5481.1	0.5194	310.9	1.5
376.215	4226.5	0.576	500	1.9
376.224	5571.3	0.5194	311	1.6
377.165	4898	0.6132	384.8	1.4
378.131	3251.3	0.5399	752	3.7
378.133	2492.5	0.1597	1080.5	3.5
378.145	1629.7	0.5084	1736.7	5.6
378.155	5656.4	0.5194	311	1.6
378.159	2537.8	0.8989	999.6	3.1
378.178	2869.2	0.2227	908.5	3.1
378.244	2916.9	0.383	885	2.8
379.18	4299.3	0.576	500.1	2.5
380.152	5744.1	0.5194	311	1.4
380.265	5002.5	0.6132	384.8	1.4
382.144	4371.4	0.576	500.2	3.7
382.149	5830.6	0.5194	311.1	1.5
383.201	2591.2	0.8989	999.9	3.1
383.214	1657.5	0.5084	1737.3	5.6
383.218	2927.4	0.2227	908.7	3
383.219	2976.3	0.383	885.2	2.7
383.223	5101.5	0.6132	384.9	1.4
383.225	3326.2	0.5399	752.2	3.6
383.257	2540.3	0.1597	1080.8	3.5
384.164	5918.2	0.5194	311.1	1.5
385.233	4446.2	0.576	500.3	2.9
386.191	5200.4	0.6132	384.9	1.4
388.188	2586.3	0.1597	1081.1	3.5
388.189	2643.6	0.8989	1000.1	3.1
388.189	3398.8	0.5399	752.4	3.7
388.193	1685.4	0.5084	1737.6	5.6
388.193	4517.5	0.576	500.3	2.5
388.198	2984.7	0.2227	908.9	3
388.205	3035.1	0.383	885.4	2.7
389.187	5298.9	0.6132	385	1.4
391.159	4588.7	0.576	500.4	3.8
392.164	5396.6	0.6132	385.1	1.4
393.173	2695.7	0.8989	1000.4	3.1
393.177	2632.1	0.1597	1081.3	3.5
393.177	3471.2	0.5399	752.6	3.6
393.182	3094.8	0.383	885.6	2.7
393.183	1713.3	0.5084	1737.9	5.6
393.183	3041.7	0.2227	909.2	3
394.189	4660.6	0.576	500.5	1.9
395.215	5495.6	0.6132	385.1	1.4
397.221	4732.3	0.576	500.5	1.9
398.159	3543.3	0.5399	752.8	2.4
398.161	2747.5	0.8989	1000.6	3.1
398.162	2678.2	0.1597	1081.7	3.5
398.162	3098.3	0.2227	909.3	3
398.169	3153.4	0.383	885.8	3.3
398.18	5591.7	0.6132	385.2	1.3
400.183	4802.3	0.576	500.6	2
401.184	5688.1	0.6132	385.2	1.3
403.14	2799	0.8989	1000.9	3.1
403.144	3154.3	0.2227	909.6	3
403.144	3614.4	0.5399	753	2.4
403.149	4872.2	0.576	500.7	2
403.157	3212.1	0.383	886.1	3.3
403.17	2724	0.1597	1081.9	3.5
403.19	5752.9	0.6132	385.3	1.2
