Measured thermophysical data. Thermodynamic study of aqueous two phase systems for some aliphatic  alcohols + sodium thiosulfate + water
Source: Fluid Phase Equilib., 2012, 10.1016/j.fluid.2012.02.015
Compound 1: propan-1-ol, C3H8O, InChI=1S/C3H8O/c1-2-3-4/h4H,2-3H2,1H3, purity 99.5%
Compound 2: water, H2O, InChI=1S/H2O/h1H2, purity 99.9%
Compound 3: sodium thiosulfate, Na2O3S2, InChI=1S/2Na.H2O3S2/c;;1-5(2,3)4/h;;(H2,1,2,3,4)/q2*+1;/p-2, purity 99%
Compound 4: propan-2-ol, C3H8O, InChI=1S/C3H8O/c1-3(2)4/h3-4H,1-2H3, purity 99.7%
Compound 5: 2-methylpropan-2-ol, C4H10O, InChI=1S/C4H10O/c1-4(2,3)5/h5H,1-3H3, purity 99%
Compound 6: butan-2-ol, C4H10O, InChI=1S/C4H10O/c1-3-4(2)5/h4-5H,3H2,1-2H3, purity 99%
Compound 7: ethanol, C2H6O, InChI=1S/C2H6O/c1-2-3/h3H,2H2,1H3, purity 99.5%

System: propan-1-ol + water + sodium thiosulfate; phases: Liquid mixture 1, Liquid mixture 2
Fixed: Pressure, kPa = 101
Fixed: Temperature, K = 298.15
Property: Mass fraction of sodium thiosulfate (Liquid mixture 1); method: Titration method
Mass fraction of propan-1-ol	Mass fraction of sodium thiosulfate	uncertainty
0.0825	0.127	0.004
0.1002	0.1148	0.0036
0.1098	0.1087	0.0034
0.1231	0.1022	0.0032
0.1376	0.0931	0.0029
0.1534	0.0858	0.0027
0.1753	0.0778	0.0024
0.1822	0.0759	0.0024
0.1911	0.0716	0.0023
0.203	0.0684	0.0022
0.2173	0.0641	0.0021
0.2307	0.0607	0.002
0.2474	0.0569	0.0019
0.2635	0.0535	0.0018
0.2755	0.051	0.0018
0.2842	0.0495	0.0017
0.3067	0.045	0.0016
0.3205	0.0424	0.0016
0.3344	0.0396	0.0015
0.3443	0.0382	0.0015
0.3559	0.0364	0.0014
0.3802	0.0319	0.0014
0.3857	0.031	0.0013
0.4022	0.0281	0.0013
0.4363	0.024	0.0012
0.4536	0.0219	0.0012
0.4904	0.0171	0.0011

System: propan-1-ol + water + sodium thiosulfate; phases: Liquid mixture 1, Liquid mixture 2
Fixed: Pressure, kPa = 101
Fixed: Solvent: Amount ratio of component to other component of binary solvent of sodium thiosulfate = 0.00892
Property: Mole fraction of propan-1-ol (Liquid mixture 1); method: Titration method
Temperature, K	Mole fraction of propan-1-ol	uncertainty
293.15	0.108	0.007
298.15	0.103	0.007
303.15	0.1	0.1
308.15	0.098	0.007
313.15	0.098	0.007
318.15	0.098	0.007
323.15	0.098	0.007
328.15	0.098	0.007

System: propan-1-ol + water + sodium thiosulfate; phases: Liquid mixture 1, Liquid mixture 2
Fixed: Temperature, K = 298.15
Fixed: Pressure, kPa = 101
Property: Mass fraction of sodium thiosulfate (Liquid mixture 1); method: Titration method
Property: Mass fraction of sodium thiosulfate (Liquid mixture 2); method: Titration method
Property: Mass fraction of propan-1-ol (Liquid mixture 2); method: Titration method
Mass fraction of propan-1-ol	Mass fraction of sodium thiosulfate	uncertainty	Mass fraction of sodium thiosulfate	uncertainty	Mass fraction of propan-1-ol	uncertainty
0.5493	0.0119	0.0011	0.0884	0.0027	0.1502	
0.5999	0.0088	0.001	0.1061	0.0033	0.117	
0.6449	0.0069	0.001	0.1303	0.0041	0.0801	
0.6759	0.0055	0.001	0.1485	0.0049	0.0669	
0.6944	0.0045	0.001	0.1691	0.0058	0.0591	
0.7123	0.0039	0.001	0.1902	0.0059	0.05	

System: propan-2-ol + water + sodium thiosulfate; phases: Liquid mixture 1, Liquid mixture 2
Fixed: Pressure, kPa = 101
Fixed: Temperature, K = 298.15
Property: Mass fraction of sodium thiosulfate (Liquid mixture 1); method: Titration method
Mass fraction of propan-2-ol	Mass fraction of sodium thiosulfate	uncertainty
0.0443	0.2275	0.0071
0.0691	0.1994	0.0063
0.0984	0.1732	0.0054
0.1248	0.1544	0.0048
0.1376	0.1471	0.0046
0.1546	0.1376	0.0043
0.1667	0.1302	0.0041
0.1798	0.1226	0.0038
0.1931	0.116	0.0036
0.2014	0.1117	0.0035
0.2096	0.108	0.0034
0.2184	0.1039	0.0033
0.2276	0.0998	0.0031
0.2361	0.0962	0.003
0.2474	0.0911	0.0029
0.2603	0.085	0.0027
0.2744	0.0796	0.0025
0.2913	0.0729	0.0023
0.303	0.0682	0.0022
0.316	0.0634	0.0021
0.3232	0.0604	0.002
0.3386	0.055	0.0019
0.3484	0.0516	0.0018
0.3592	0.0483	0.0017
0.3681	0.0456	0.0017
0.3797	0.0418	0.0016

System: propan-2-ol + water + sodium thiosulfate; phases: Liquid mixture 1, Liquid mixture 2
Fixed: Pressure, kPa = 101
Fixed: Solvent: Amount ratio of component to other component of binary solvent of sodium thiosulfate = 0.00896
Property: Mole fraction of propan-2-ol (Liquid mixture 1); method: Titration method
Temperature, K	Mole fraction of propan-2-ol	uncertainty
293.15	0.199	0.008
298.15	0.199	0.008
303.15	0.199	0.008
308.15	0.199	0.008
313.15	0.199	0.008
318.15	0.199	0.008
323.15	0.199	0.008
328.15	0.196	0.008

System: propan-2-ol + water + sodium thiosulfate; phases: Liquid mixture 2, Liquid mixture 1
Fixed: Temperature, K = 298.15
Fixed: Pressure, kPa = 101
Property: Mass fraction of propan-2-ol (Liquid mixture 2); method: Titration method
Property: Mass fraction of sodium thiosulfate (Liquid mixture 1); method: Titration method
Property: Mass fraction of propan-2-ol (Liquid mixture 1); method: Titration method
Mass fraction of sodium thiosulfate	Mass fraction of propan-2-ol	uncertainty	Mass fraction of sodium thiosulfate	uncertainty	Mass fraction of propan-2-ol	uncertainty
0.1387	0.1481	0.0059	0.0347	0.0014	0.4114	
0.0951	0.1762	0.007	0.022	0.0009	0.4803	
0.0773	0.1979	0.0079	0.015	0.0006	0.5252	
0.0568	0.2194	0.0088	0.0105	0.0004	0.5745	
0.0494	0.2342	0.0094	0.0066	0.0003	0.6206	
0.027	0.2607	0.0104	0.0057	0.0002	0.6436	

System: 2-methylpropan-2-ol + water + sodium thiosulfate; phases: Liquid mixture 1, Liquid mixture 2
Fixed: Pressure, kPa = 101
Fixed: Temperature, K = 298.15
Property: Mass fraction of sodium thiosulfate (Liquid mixture 1); method: Titration method
Mass fraction of 2-methylpropan-2-ol	Mass fraction of sodium thiosulfate	uncertainty
0.0418	0.2684	0.0105
0.0446	0.2504	0.0091
0.0486	0.2353	0.0082
0.0516	0.2236	0.0081
0.054	0.213	0.0075
0.0595	0.195	0.007
0.0636	0.179	0.0063
0.0673	0.1712	0.0059
0.0729	0.156	0.0054
0.078	0.1446	0.0048
0.0825	0.1393	0.0045
0.0869	0.1323	0.0044
0.0935	0.1217	0.004
0.1008	0.1119	0.0037
0.1051	0.1055	0.0035
0.1137	0.0952	0.0031
0.1279	0.0822	0.0027
0.1424	0.0715	0.0024
0.153	0.0643	0.0022
0.1637	0.0567	0.002

System: 2-methylpropan-2-ol + water + sodium thiosulfate; phases: Liquid mixture 1, Liquid mixture 2
Fixed: Pressure, kPa = 101
Fixed: Solvent: Amount ratio of component to other component of binary solvent of sodium thiosulfate = 0.00891
Property: Mole fraction of 2-methylpropan-2-ol (Liquid mixture 1); method: Titration method
Temperature, K	Mole fraction of 2-methylpropan-2-ol	uncertainty
293.15	0.071	0.006
298.15	0.066	0.006
303.15	0.057	0.006
308.15	0.05	0.01
313.15	0.045	0.006
318.15	0.043	0.006
323.15	0.04	0.01
328.15	0.038	0.006

System: 2-methylpropan-2-ol + water + sodium thiosulfate; phases: Liquid mixture 2, Liquid mixture 1
Fixed: Temperature, K = 298.15
Fixed: Pressure, kPa = 101
Property: Mass fraction of sodium thiosulfate (Liquid mixture 2); method: Titration method
Property: Mass fraction of sodium thiosulfate (Liquid mixture 1); method: Titration method
Property: Mass fraction of 2-methylpropan-2-ol (Liquid mixture 1); method: Titration method
Mass fraction of 2-methylpropan-2-ol	Mass fraction of sodium thiosulfate	uncertainty	Mass fraction of sodium thiosulfate	uncertainty	Mass fraction of 2-methylpropan-2-ol	uncertainty
0.1035	0.1013	0.0031	0.0043	0.001	0.6109	
0.0848	0.1218	0.0039	0.0036	0.001	0.6443	
0.0639	0.1442	0.0046	0.0027	0.001	0.6721	
0.0535	0.1604	0.0052	0.0023	0.001	0.6892	
0.0434	0.1775	0.0057	0.0018	0.001	0.7041	
0.0267	0.2033	0.0063	0.0017	0.001	0.7246	

System: butan-2-ol + water + sodium thiosulfate; phases: Liquid mixture 1, Liquid mixture 2
Fixed: Pressure, kPa = 101
Fixed: Temperature, K = 298.15
Property: Mass fraction of sodium thiosulfate (Liquid mixture 1); method: Titration method
Mass fraction of butan-2-ol	Mass fraction of sodium thiosulfate	uncertainty
0.0362	0.1548	0.0057
0.0427	0.1352	0.005
0.0497	0.117	0.004
0.0553	0.1028	0.0039
0.061	0.0918	0.0034
0.0668	0.0815	0.003
0.0732	0.0714	0.0027
0.0811	0.0603	0.0024
0.0857	0.0545	0.0022
0.0924	0.0467	0.002
0.0924	0.0467	0.002
0.0958	0.043	0.0019
0.0984	0.0403	0.0018
0.1071	0.0322	0.0016
0.1153	0.0248	0.0015
0.1221	0.0187	0.0013
0.1301	0.0139	0.0012

System: butan-2-ol + water + sodium thiosulfate; phases: Liquid mixture 1, Liquid mixture 2
Fixed: Pressure, kPa = 101
Fixed: Solvent: Amount ratio of component to other component of binary solvent of sodium thiosulfate = 0.0089
Property: Mole fraction of butan-2-ol (Liquid mixture 1); method: Titration method
Temperature, K	Mole fraction of butan-2-ol	uncertainty
293.15	0.026	0.006
298.15	0.026	0.006
303.15	0.022	0.006
308.15	0.022	0.006
313.15	0.022	0.006
318.15	0.022	0.006
323.15	0.022	0.006
328.15	0.022	0.006

System: butan-2-ol + water + sodium thiosulfate; phases: Liquid mixture 2, Liquid mixture 1
Fixed: Temperature, K = 298.15
Fixed: Pressure, kPa = 101
Property: Mass fraction of butan-2-ol (Liquid mixture 2); method: Titration method
Property: Mass fraction of sodium thiosulfate (Liquid mixture 1); method: Titration method
Property: Mass fraction of butan-2-ol (Liquid mixture 1); method: Titration method
Mass fraction of sodium thiosulfate	Mass fraction of butan-2-ol	uncertainty	Mass fraction of sodium thiosulfate	uncertainty	Mass fraction of butan-2-ol	uncertainty
0.0929	0.0693	0.0022	0.0004	0.0004	0.7823	
0.1099	0.0552	0.002	0.0005	0.0005	0.7915	
0.1305	0.0438	0.0017	0.0005	0.0005	0.7994	
0.1428	0.0407	0.0016	0.0004	0.0004	0.8036	
0.1654	0.0314	0.0014	0.0004	0.0004	0.8109	
0.1862	0.0243	0.0012	0.0004	0.0004	0.813	

System: ethanol + water + sodium thiosulfate; phases: Liquid mixture 1, Liquid mixture 2
Fixed: Pressure, kPa = 101
Fixed: Temperature, K = 298.15
Property: Mass fraction of sodium thiosulfate (Liquid mixture 1); method: Titration method
Mass fraction of ethanol	Mass fraction of sodium thiosulfate	uncertainty
0.1918	0.1897	0.0059
0.2049	0.1786	0.0056
0.2185	0.169	0.0053
0.2271	0.1625	0.0051
0.2377	0.1539	0.0048
0.2457	0.1489	0.0047
0.2602	0.1387	0.0044
0.2689	0.1326	0.0042
0.2835	0.1232	0.0039
0.2911	0.118	0.0037
0.3036	0.1101	0.0035
0.3187	0.1006	0.0032
0.3286	0.0945	0.003
0.3382	0.0903	0.0029
0.3542	0.0805	0.0026
0.3708	0.0719	0.0023
0.3884	0.0643	0.0021
0.3983	0.0599	0.002
0.4085	0.0542	0.0019
0.4205	0.049	0.0018
0.4368	0.0418	0.0016
0.4448	0.0391	0.0015

System: ethanol + water + sodium thiosulfate; phases: Liquid mixture 1, Liquid mixture 2
Fixed: Pressure, kPa = 101
Fixed: Solvent: Amount ratio of component to other component of binary solvent of sodium thiosulfate = 0.00894
Property: Mole fraction of ethanol (Liquid mixture 1); method: Titration method
Temperature, K	Mole fraction of ethanol	uncertainty
293.15	0.255	0.009
298.15	0.264	0.01
303.15	0.274	0.01
308.15	0.281	0.01
313.15	0.29	0.01
318.15	0.296	0.01
323.15	0.303	0.01
328.15	0.311	0.011

System: ethanol + water + sodium thiosulfate; phases: Liquid mixture 2, Liquid mixture 1
Fixed: Temperature, K = 298.15
Fixed: Pressure, kPa = 101
Property: Mass fraction of sodium thiosulfate (Liquid mixture 2); method: Titration method
Property: Mass fraction of sodium thiosulfate (Liquid mixture 1); method: Titration method
Property: Mass fraction of ethanol (Liquid mixture 1); method: Titration method
Mass fraction of ethanol	Mass fraction of sodium thiosulfate	uncertainty	Mass fraction of sodium thiosulfate	uncertainty	Mass fraction of ethanol	uncertainty
0.1208	0.2546	0.0079	0.0619	0.002	0.3957	
0.0843	0.2898	0.009	0.0415	0.0016	0.4491	
0.0602	0.3172	0.0099	0.0321	0.0014	0.4913	
0.0464	0.3374	0.0106	0.0254	0.0012	0.5227	
0.0336	0.3604	0.0114	0.0192	0.0011	0.5639	
0.0254	0.3821	0.0118	0.0164	0.0011	0.5965	
