Measured thermophysical data. Isobaric vapor liquid equilibria for the n-hexane + 2-isopropoxyethanol and n-heptane + 2-isopropoxyethanol systems
Source: Fluid Phase Equilib., 2009, 10.1016/j.fluid.2008.09.026
Compound 1: heptane, C7H16, InChI=1S/C7H16/c1-3-5-7-6-4-2/h3-7H2,1-2H3
Compound 2: hexane, C6H14, InChI=1S/C6H14/c1-3-5-6-4-2/h3-6H2,1-2H3
Compound 3: 2-isopropoxyethanol, C5H12O2, InChI=1S/C5H12O2/c1-5(2)7-4-3-6/h5-6H,3-4H2,1-2H3

System: heptane; phases: Liquid, Gas
Property: Vapor or sublimation pressure, kPa (Liquid); method: Ebulliometric method (Recirculating still)
Temperature, K	Vapor or sublimation pressure, kPa	uncertainty
354.72	60	0.1
363.74	80	1
371.2	100	0.1

System: hexane; phases: Liquid, Gas
Property: Vapor or sublimation pressure, kPa (Liquid); method: Ebulliometric method (Recirculating still)
Temperature, K	Vapor or sublimation pressure, kPa	uncertainty
326.11	60	0.1
334.61	80	0.1
341.48	100	0.1

System: 2-isopropoxyethanol; phases: Liquid, Gas
Property: Vapor or sublimation pressure, kPa (Liquid); method: Ebulliometric method (Recirculating still)
Temperature, K	Vapor or sublimation pressure, kPa	uncertainty
398.12	60	0.1
407.13	80	0.1
414.21	100	0.1

System: 2-isopropoxyethanol + hexane; phases: Gas, Liquid
Property: Boiling temperature at pressure P, K (Gas); method: Ebulliometric method (Recirculating still)
Mole fraction of hexane	Pressure, kPa	Boiling temperature at pressure P, K	uncertainty
0	60	398.12	0.13
0	80	407.13	0.15
0	100	414.21	0.17
0.094	100	411.51	0.17
0.163	60	393.52	0.13
0.276	100	405.08	0.14
0.336	80	395.7	0.1
0.415	60	384.55	0.13
0.452	100	396.61	0.36
0.496	80	378.76	0.14
0.511	100	393.65	0.35
0.547	100	391.6	0.4
0.613	60	373.41	0.03
0.658	100	383.76	0.09
0.751	80	371.16	0.09
0.774	60	361.22	0.14
0.81	100	370.08	0.08
0.821	80	364.26	0.12
0.903	80	350.85	0.11
0.903	100	358.91	0.12
0.918	60	344.22	0.09
0.929	100	350.63	0.14
0.951	80	340.06	0.09
0.958	60	335.15	0.06
0.961	100	344.34	0.14
0.972	100	342.91	0.14
0.977	60	329.01	0.09
0.978	80	336.21	0.12
0.984	80	335.72	0.13
0.985	100	342.11	0.14
0.989	60	327.48	0.11
1	60	326.11	0.12
1	80	334.61	0.14
1	100	341.48	0.15

System: 2-isopropoxyethanol + hexane; phases: Liquid, Gas
Property: Mole fraction of hexane (Liquid); method: Chromatography
Mole fraction of hexane	Pressure, kPa	Mole fraction of hexane	uncertainty
0	60	0	0.001
0	80	0	0.001
0	100	0	0.001
0.094	100	0.011	0.001
0.163	60	0.018	0.001
0.276	100	0.031	0.001
0.336	80	0.041	0.001
0.415	60	0.049	0.001
0.452	100	0.061	0.001
0.496	80	0.069	0.001
0.511	100	0.074	0.001
0.547	100	0.083	0.001
0.613	60	0.093	0.001
0.658	100	0.121	0.001
0.751	80	0.143	0.002
0.774	60	0.158	0.002
0.81	100	0.206	0.002
0.821	80	0.195	0.002
0.903	80	0.325	0.003
0.903	100	0.31	0.003
0.918	60	0.318	0.003
0.929	100	0.429	0.005
0.951	80	0.529	0.005
0.958	60	0.454	0.005
0.961	100	0.617	0.004
0.972	100	0.739	0.003
0.977	60	0.621	0.004
0.978	80	0.722	0.003
0.984	80	0.891	0.001
0.985	100	0.864	0.002
0.989	60	0.82	0.002
1	60	1	0.001
1	80	1	0.001
1	100	1	0.001

System: 2-isopropoxyethanol + heptane; phases: Gas, Liquid
Property: Boiling temperature at pressure P, K (Gas); method: Ebulliometric method (Recirculating still)
Mole fraction of heptane	Pressure, kPa	Boiling temperature at pressure P, K	uncertainty
0	60	398.12	0.13
0	80	407.13	0.15
0	100	414.21	0.17
0.087	80	404.4	0.16
0.097	100	411.41	0.16
0.143	60	393.55	0.13
0.215	100	406.53	0.15
0.238	80	399.11	0.14
0.279	60	389.21	0.13
0.329	100	402.25	0.13
0.361	80	394.38	0.14
0.399	60	384.65	0.12
0.51	80	387.13	0.13
0.577	60	376.84	0.11
0.605	100	388.08	0.12
0.644	80	380.24	0.12
0.719	60	368.41	0.12
0.733	80	375.14	0.12
0.739	100	379.87	0.1
0.783	80	370.82	0.13
0.818	60	360.09	0.11
0.825	100	373.51	0.13
0.839	100	372.35	0.13
0.851	80	365.53	0.12
0.858	60	357.72	0.11
0.875	60	355.87	0.1
0.887	60	355.17	0.12
0.917	80	363.57	0.14
0.921	100	370.76	0.16
0.924	60	354.63	0.12
0.926	80	363.51	0.15
0.93	80	363.47	0.14
0.931	100	370.71	0.16
0.938	100	370.63	0.16
0.944	80	363.45	0.14
0.958	80	363.44	0.15
0.959	60	354.48	0.12
0.961	100	370.67	0.16
1	60	354.72	0.13
1	80	363.74	0.15
1	100	371.2	0.16

System: 2-isopropoxyethanol + heptane; phases: Liquid, Gas
Property: Mole fraction of heptane (Liquid); method: Chromatography
Mole fraction of heptane	Pressure, kPa	Mole fraction of heptane	uncertainty
0	60	0	0.001
0	80	0	0.001
0	100	0	0.001
0.087	80	0.009	0.001
0.097	100	0.011	0.001
0.143	60	0.017	0.001
0.215	100	0.023	0.001
0.238	80	0.031	0.001
0.279	60	0.036	0.001
0.329	100	0.042	0.001
0.361	80	0.051	0.001
0.399	60	0.059	0.001
0.51	80	0.086	0.001
0.577	60	0.108	0.001
0.605	100	0.126	0.001
0.644	80	0.133	0.001
0.719	60	0.198	0.002
0.733	80	0.19	0.002
0.739	100	0.221	0.002
0.783	80	0.276	0.003
0.818	60	0.33	0.003
0.825	100	0.443	0.005
0.839	100	0.534	0.005
0.851	80	0.495	0.005
0.858	60	0.465	0.005
0.875	60	0.574	0.005
0.887	60	0.698	0.003
0.917	80	0.888	0.001
0.921	100	0.897	0.001
0.924	60	0.905	0.001
0.926	80	0.902	0.001
0.93	80	0.914	0.001
0.931	100	0.916	0.001
0.938	100	0.929	0.001
0.944	80	0.933	0.001
0.958	80	0.956	0.001
0.959	60	0.957	0.001
0.961	100	0.956	0.001
1	60	1	0.001
1	80	1	0.001
1	100	1	0.001
