Measured thermophysical data. Activity coefficients at infinite dilution measurements for organic solutes and  water in the ionic liquid 1-butyl-1-methylpyrrolidinium  trifluoromethanesulfonate using GLC
Source: Fluid Phase Equilib., 2009, 10.1016/j.fluid.2009.01.011
Compound 1: pentane, C5H12, InChI=1S/C5H12/c1-3-5-4-2/h3-5H2,1-2H3, purity 0.99%
Compound 2: 1-butyl-1-methylpyrrolidinium trifluoromethanesulfonate, C10H20F3NO3S, InChI=1S/C9H20N.CHF3O3S/c1-3-4-7-10(2)8-5-6-9-10;2-1(3,4)8(5,6)7/h3-9H2,1-2H3;(H,5,6,7)/q+1;/p-1, purity 0.99%
Compound 3: hexane, C6H14, InChI=1S/C6H14/c1-3-5-6-4-2/h3-6H2,1-2H3, purity 0.99%
Compound 4: heptane, C7H16, InChI=1S/C7H16/c1-3-5-7-6-4-2/h3-7H2,1-2H3, purity 0.99%
Compound 5: octane, C8H18, InChI=1S/C8H18/c1-3-5-7-8-6-4-2/h3-8H2,1-2H3, purity 0.99%
Compound 6: nonane, C9H20, InChI=1S/C9H20/c1-3-5-7-9-8-6-4-2/h3-9H2,1-2H3, purity 0.99%
Compound 7: decane, C10H22, InChI=1S/C10H22/c1-3-5-7-9-10-8-6-4-2/h3-10H2,1-2H3, purity 0.99%
Compound 8: cyclopentane, C5H10, InChI=1S/C5H10/c1-2-4-5-3-1/h1-5H2, purity 0.99%
Compound 9: cyclohexane, C6H12, InChI=1S/C6H12/c1-2-4-6-5-3-1/h1-6H2, purity 0.99%
Compound 10: cycloheptane, C7H14, InChI=1S/C7H14/c1-2-4-6-7-5-3-1/h1-7H2, purity 0.99%
Compound 11: cyclooctane, C8H16, InChI=1S/C8H16/c1-2-4-6-8-7-5-3-1/h1-8H2, purity 0.99%
Compound 12: 1-pentene, C5H10, InChI=1S/C5H10/c1-3-5-4-2/h3H,1,4-5H2,2H3, purity 0.99%
Compound 13: 1-heptene, C7H14, InChI=1S/C7H14/c1-3-5-7-6-4-2/h3H,1,4-7H2,2H3, purity 0.99%
Compound 14: oct-1-ene, C8H16, InChI=1S/C8H16/c1-3-5-7-8-6-4-2/h3H,1,4-8H2,2H3, purity 0.99%
Compound 15: 1-pentyne, C5H8, InChI=1S/C5H8/c1-3-5-4-2/h1H,4-5H2,2H3, purity 0.99%
Compound 16: 1-hexyne, C6H10, InChI=1S/C6H10/c1-3-5-6-4-2/h1H,4-6H2,2H3, purity 0.99%
Compound 17: 1-heptyne, C7H12, InChI=1S/C7H12/c1-3-5-7-6-4-2/h1H,4-7H2,2H3, purity 0.99%
Compound 18: 1-octyne, C8H14, InChI=1S/C8H14/c1-3-5-7-8-6-4-2/h1H,4-8H2,2H3, purity 0.99%
Compound 19: benzene, C6H6, InChI=1S/C6H6/c1-2-4-6-5-3-1/h1-6H, purity 0.99%
Compound 20: toluene, C7H8, InChI=1S/C7H8/c1-7-5-3-2-4-6-7/h2-6H,1H3, purity 0.99%
Compound 21: 1,2-dimethylbenzene, C8H10, InChI=1S/C8H10/c1-7-5-3-4-6-8(7)2/h3-6H,1-2H3, purity 0.99%
Compound 22: 1,3-dimethylbenzene, C8H10, InChI=1S/C8H10/c1-7-4-3-5-8(2)6-7/h3-6H,1-2H3, purity 0.99%
Compound 23: 1,4-dimethylbenzene, C8H10, InChI=1S/C8H10/c1-7-3-5-8(2)6-4-7/h3-6H,1-2H3, purity 0.99%
Compound 24: methanol, CH4O, InChI=1S/CH4O/c1-2/h2H,1H3, purity 0.99%
Compound 25: ethanol, C2H6O, InChI=1S/C2H6O/c1-2-3/h3H,2H2,1H3, purity 0.99%
Compound 26: water, H2O, InChI=1S/H2O/h1H2
Compound 27: propan-1-ol, C3H8O, InChI=1S/C3H8O/c1-2-3-4/h4H,2-3H2,1H3, purity 0.99%
Compound 28: butan-1-ol, C4H10O, InChI=1S/C4H10O/c1-2-3-4-5/h5H,2-4H2,1H3, purity 0.99%
Compound 29: tetrahydrofuran, C4H8O, InChI=1S/C4H8O/c1-2-4-5-3-1/h1-4H2, purity 0.99%
Compound 30: thiophene, C4H4S, InChI=1S/C4H4S/c1-2-4-5-3-1/h1-4H, purity 0.99%
Compound 31: 2-methoxy-2-methylpropane, C5H12O, InChI=1S/C5H12O/c1-5(2,3)6-4/h1-4H3, purity 0.99%
Compound 32: hex-1-ene, C6H12, InChI=1S/C6H12/c1-3-5-6-4-2/h3H,1,4-6H2,2H3, purity 0.99%
Compound 33: ethylbenzene, C8H10, InChI=1S/C8H10/c1-2-8-6-4-3-5-7-8/h3-7H,2H2,1H3, purity 0.99%

System: pentane + 1-butyl-1-methylpyrrolidinium trifluoromethanesulfonate; phases: Liquid, Gas
Fixed: Mole fraction of pentane = 0
Property: Activity coefficient of pentane (Liquid); method: Chromatography
Temperature, K	Activity coefficient of pentane	uncertainty
298.15	52.1	2.3
308.15	46.1	2.1
318.15	40.3	1.8
328.15	35.9	1.6
338.15	32.2	1.4
348.15	28.9	1.3
358.15	26.1	1.2

System: hexane + 1-butyl-1-methylpyrrolidinium trifluoromethanesulfonate; phases: Liquid, Gas
Fixed: Mole fraction of hexane = 0
Property: Activity coefficient of hexane (Liquid); method: Chromatography
Temperature, K	Activity coefficient of hexane	uncertainty
298.15	55.8	2.5
308.15	50.6	2.3
318.15	46.4	2.1
328.15	42.2	1.9
338.15	38.8	1.7
348.15	35.8	1.6
358.15	33.3	1.5
368.15	31.3	1.4

System: heptane + 1-butyl-1-methylpyrrolidinium trifluoromethanesulfonate; phases: Liquid, Gas
Fixed: Mole fraction of heptane = 0
Property: Activity coefficient of heptane (Liquid); method: Chromatography
Temperature, K	Activity coefficient of heptane	uncertainty
298.15	71.5	3.2
308.15	64.7	2.9
318.15	59.3	2.6
328.15	54.2	2.4
338.15	50.4	2.2
348.15	46.7	2.1
358.15	43.3	1.9
368.15	40.8	1.8

System: octane + 1-butyl-1-methylpyrrolidinium trifluoromethanesulfonate; phases: Liquid, Gas
Fixed: Mole fraction of octane = 0
Property: Activity coefficient of octane (Liquid); method: Chromatography
Temperature, K	Activity coefficient of octane	uncertainty
298.15	95.2	4.3
308.15	86.9	3.9
318.15	79.4	3.5
328.15	73.1	3.3
338.15	67.2	3
348.15	62.9	2.8
358.15	58.4	2.6
368.15	54.4	2.4

System: nonane + 1-butyl-1-methylpyrrolidinium trifluoromethanesulfonate; phases: Liquid, Gas
Fixed: Mole fraction of nonane = 0
Property: Activity coefficient of nonane (Liquid); method: Chromatography
Temperature, K	Activity coefficient of nonane	uncertainty
298.15	135	6
308.15	122	5
318.15	111	5
328.15	100	5
338.15	92.4	4.1
348.15	85.2	3.8
358.15	78.9	3.5
368.15	73.3	3.3

System: decane + 1-butyl-1-methylpyrrolidinium trifluoromethanesulfonate; phases: Liquid, Gas
Fixed: Mole fraction of decane = 0
Property: Activity coefficient of decane (Liquid); method: Chromatography
Temperature, K	Activity coefficient of decane	uncertainty
298.15	195	9
308.15	174	8
318.15	157	7
328.15	143	6
338.15	130	6
348.15	120	5
358.15	110	5
368.15	101	5

System: cyclopentane + 1-butyl-1-methylpyrrolidinium trifluoromethanesulfonate; phases: Liquid, Gas
Fixed: Mole fraction of cyclopentane = 0
Property: Activity coefficient of cyclopentane (Liquid); method: Chromatography
Temperature, K	Activity coefficient of cyclopentane	uncertainty
298.15	19.2	0.9
308.15	17.4	0.8
318.15	15.9	0.7
328.15	14.6	0.6
338.15	13.5	0.6
348.15	12.6	0.6
358.15	11.7	0.5
368.15	11	0.5

System: cyclohexane + 1-butyl-1-methylpyrrolidinium trifluoromethanesulfonate; phases: Liquid, Gas
Fixed: Mole fraction of cyclohexane = 0
Property: Activity coefficient of cyclohexane (Liquid); method: Chromatography
Temperature, K	Activity coefficient of cyclohexane	uncertainty
298.15	25.7	1.1
308.15	23.4	1
318.15	21.4	1
328.15	19.7	0.9
338.15	18.1	0.8
348.15	16.8	0.7
358.15	15.6	0.7
368.15	14.6	0.6

System: cycloheptane + 1-butyl-1-methylpyrrolidinium trifluoromethanesulfonate; phases: Liquid, Gas
Fixed: Mole fraction of cycloheptane = 0
Property: Activity coefficient of cycloheptane (Liquid); method: Chromatography
Temperature, K	Activity coefficient of cycloheptane	uncertainty
298.15	29.3	1.3
308.15	27	1.2
318.15	24.9	1.1
328.15	23.1	1
338.15	21.6	1
348.15	20.1	0.9
358.15	18.9	0.8
368.15	17.9	0.8

System: cyclooctane + 1-butyl-1-methylpyrrolidinium trifluoromethanesulfonate; phases: Liquid, Gas
Fixed: Mole fraction of cyclooctane = 0
Property: Activity coefficient of cyclooctane (Liquid); method: Chromatography
Temperature, K	Activity coefficient of cyclooctane	uncertainty
298.15	37.4	1.7
308.15	34	1.5
318.15	31.4	1.4
328.15	29.1	1.3
338.15	26.9	1.2
348.15	25.1	1.1
358.15	23.5	1
368.15	22.2	1

System: 1-pentene + 1-butyl-1-methylpyrrolidinium trifluoromethanesulfonate; phases: Liquid, Gas
Fixed: Mole fraction of 1-pentene = 0
Property: Activity coefficient of 1-pentene (Liquid); method: Chromatography
Temperature, K	Activity coefficient of 1-pentene	uncertainty
298.15	17.6	0.8
308.15	16.3	0.7
318.15	15.3	0.7
328.15	14.4	0.6
338.15	13.5	0.6
348.15	12.8	0.6
358.15	12.2	0.5

System: 1-heptene + 1-butyl-1-methylpyrrolidinium trifluoromethanesulfonate; phases: Liquid, Gas
Fixed: Mole fraction of 1-heptene = 0
Property: Activity coefficient of 1-heptene (Liquid); method: Chromatography
Temperature, K	Activity coefficient of 1-heptene	uncertainty
298.15	29	1.3
308.15	27.5	1.2
318.15	26.1	1.2
328.15	24.8	1.1
338.15	23.6	1
348.15	22.6	1
358.15	21.6	1
368.15	20.8	0.9

System: oct-1-ene + 1-butyl-1-methylpyrrolidinium trifluoromethanesulfonate; phases: Liquid, Gas
Fixed: Mole fraction of oct-1-ene = 0
Property: Activity coefficient of oct-1-ene (Liquid); method: Chromatography
Temperature, K	Activity coefficient of oct-1-ene	uncertainty
298.15	40.9	1.8
308.15	38.4	1.7
318.15	36.2	1.6
328.15	34.3	1.5
338.15	32.7	1.5
348.15	31.2	1.4
358.15	29.8	1.3
368.15	28.6	1.3

System: 1-pentyne + 1-butyl-1-methylpyrrolidinium trifluoromethanesulfonate; phases: Liquid, Gas
Fixed: Mole fraction of 1-pentyne = 0
Property: Activity coefficient of 1-pentyne (Liquid); method: Chromatography
Temperature, K	Activity coefficient of 1-pentyne	uncertainty
298.15	2.59	0.11
308.15	2.66	0.12
318.15	2.74	0.12
328.15	2.82	0.12
338.15	2.88	0.13
348.15	2.95	0.13
358.15	3.01	0.13
368.15	3.08	0.14

System: 1-hexyne + 1-butyl-1-methylpyrrolidinium trifluoromethanesulfonate; phases: Liquid, Gas
Fixed: Mole fraction of 1-hexyne = 0
Property: Activity coefficient of 1-hexyne (Liquid); method: Chromatography
Temperature, K	Activity coefficient of 1-hexyne	uncertainty
298.15	3.57	0.16
308.15	3.66	0.16
318.15	3.76	0.17
328.15	3.85	0.17
338.15	3.94	0.17
348.15	4.02	0.18
358.15	4.09	0.18
368.15	4.18	0.18

System: 1-heptyne + 1-butyl-1-methylpyrrolidinium trifluoromethanesulfonate; phases: Liquid, Gas
Fixed: Mole fraction of 1-heptyne = 0
Property: Activity coefficient of 1-heptyne (Liquid); method: Chromatography
Temperature, K	Activity coefficient of 1-heptyne	uncertainty
298.15	5.21	0.23
308.15	5.3	0.23
318.15	5.39	0.24
328.15	5.47	0.24
338.15	5.56	0.25
348.15	5.64	0.25
358.15	5.7	0.25
368.15	5.78	0.25

System: 1-octyne + 1-butyl-1-methylpyrrolidinium trifluoromethanesulfonate; phases: Liquid, Gas
Fixed: Mole fraction of 1-octyne = 0
Property: Activity coefficient of 1-octyne (Liquid); method: Chromatography
Temperature, K	Activity coefficient of 1-octyne	uncertainty
298.15	7.56	0.33
308.15	7.63	0.34
318.15	7.7	0.34
328.15	7.76	0.34
338.15	7.83	0.35
348.15	7.88	0.35
358.15	7.94	0.35
368.15	7.99	0.35

System: benzene + 1-butyl-1-methylpyrrolidinium trifluoromethanesulfonate; phases: Liquid, Gas
Fixed: Mole fraction of benzene = 0
Property: Activity coefficient of benzene (Liquid); method: Chromatography
Temperature, K	Activity coefficient of benzene	uncertainty
298.15	1.41	0.06
308.15	1.44	0.06
318.15	1.46	0.06
328.15	1.48	0.06
338.15	1.5	0.06
348.15	1.53	0.06
358.15	1.54	0.06
368.15	1.56	0.06

System: toluene + 1-butyl-1-methylpyrrolidinium trifluoromethanesulfonate; phases: Liquid, Gas
Fixed: Mole fraction of toluene = 0
Property: Activity coefficient of toluene (Liquid); method: Chromatography
Temperature, K	Activity coefficient of toluene	uncertainty
298.15	2.16	0.09
308.15	2.19	0.1
318.15	2.22	0.1
328.15	2.25	0.1
338.15	2.27	0.1
348.15	2.3	0.1
358.15	2.32	0.1
368.15	2.35	0.1

System: 1,2-dimethylbenzene + 1-butyl-1-methylpyrrolidinium trifluoromethanesulfonate; phases: Liquid, Gas
Fixed: Mole fraction of 1,2-dimethylbenzene = 0
Property: Activity coefficient of 1,2-dimethylbenzene (Liquid); method: Chromatography
Temperature, K	Activity coefficient of 1,2-dimethylbenzene	uncertainty
308.15	2.91	0.13
318.15	2.93	0.13
328.15	2.95	0.13
338.15	2.97	0.13
348.15	2.99	0.13
358.15	3.01	0.13
368.15	3.03	0.13

System: 1,3-dimethylbenzene + 1-butyl-1-methylpyrrolidinium trifluoromethanesulfonate; phases: Liquid, Gas
Fixed: Mole fraction of 1,3-dimethylbenzene = 0
Property: Activity coefficient of 1,3-dimethylbenzene (Liquid); method: Chromatography
Temperature, K	Activity coefficient of 1,3-dimethylbenzene	uncertainty
308.15	3.44	0.15
318.15	3.45	0.15
328.15	3.47	0.15
338.15	3.48	0.15
348.15	3.5	0.15
358.15	3.51	0.15
368.15	3.53	0.16

System: 1,4-dimethylbenzene + 1-butyl-1-methylpyrrolidinium trifluoromethanesulfonate; phases: Liquid, Gas
Fixed: Mole fraction of 1,4-dimethylbenzene = 0
Property: Activity coefficient of 1,4-dimethylbenzene (Liquid); method: Chromatography
Temperature, K	Activity coefficient of 1,4-dimethylbenzene	uncertainty
308.15	3.32	0.15
318.15	3.35	0.15
328.15	3.38	0.15
338.15	3.4	0.15
348.15	3.43	0.15
358.15	3.45	0.15
368.15	3.48	0.15

System: methanol + 1-butyl-1-methylpyrrolidinium trifluoromethanesulfonate; phases: Liquid, Gas
Fixed: Mole fraction of methanol = 0
Property: Activity coefficient of methanol (Liquid); method: Chromatography
Temperature, K	Activity coefficient of methanol	uncertainty
298.15	0.717	0.03
308.15	0.684	0.029
318.15	0.655	0.029
328.15	0.628	0.029
338.15	0.604	0.028
348.15	0.581	0.028
358.15	0.563	0.028
368.15	0.543	0.028

System: ethanol + 1-butyl-1-methylpyrrolidinium trifluoromethanesulfonate; phases: Liquid, Gas
Fixed: Mole fraction of ethanol = 0
Property: Activity coefficient of ethanol (Liquid); method: Chromatography
Temperature, K	Activity coefficient of ethanol	uncertainty
298.15	1.05	0.04
308.15	1	0.04
318.15	0.948	0.034
328.15	0.9	0.033
338.15	0.862	0.032
348.15	0.827	0.032
358.15	0.791	0.031
368.15	0.763	0.031

System: water + 1-butyl-1-methylpyrrolidinium trifluoromethanesulfonate; phases: Liquid, Gas
Fixed: Mole fraction of water = 0
Property: Activity coefficient of water (Liquid); method: Chromatography
Temperature, K	Activity coefficient of water	uncertainty
318.15	0.865	0.032
328.15	0.83	0.032
338.15	0.794	0.031
348.15	0.765	0.031
358.15	0.739	0.03
368.15	0.712	0.03

System: propan-1-ol + 1-butyl-1-methylpyrrolidinium trifluoromethanesulfonate; phases: Liquid, Gas
Fixed: Mole fraction of propan-1-ol = 0
Property: Activity coefficient of propan-1-ol (Liquid); method: Chromatography
Temperature, K	Activity coefficient of propan-1-ol	uncertainty
308.15	1.26	0.05
318.15	1.2	0.05
328.15	1.14	0.04
338.15	1.08	0.04
348.15	1.04	0.04
358.15	0.995	0.035
368.15	0.953	0.034

System: butan-1-ol + 1-butyl-1-methylpyrrolidinium trifluoromethanesulfonate; phases: Liquid, Gas
Fixed: Mole fraction of butan-1-ol = 0
Property: Activity coefficient of butan-1-ol (Liquid); method: Chromatography
Temperature, K	Activity coefficient of butan-1-ol	uncertainty
328.15	1.49	0.06
338.15	1.42	0.06
348.15	1.35	0.05
358.15	1.29	0.05
368.15	1.24	0.05

System: tetrahydrofuran + 1-butyl-1-methylpyrrolidinium trifluoromethanesulfonate; phases: Liquid, Gas
Fixed: Mole fraction of tetrahydrofuran = 0
Property: Activity coefficient of tetrahydrofuran (Liquid); method: Chromatography
Temperature, K	Activity coefficient of tetrahydrofuran	uncertainty
298.15	1.38	0.05
308.15	1.39	0.06
318.15	1.41	0.06
328.15	1.42	0.06
338.15	1.43	0.06
348.15	1.44	0.06
358.15	1.45	0.06
368.15	1.46	0.06

System: thiophene + 1-butyl-1-methylpyrrolidinium trifluoromethanesulfonate; phases: Liquid, Gas
Fixed: Mole fraction of thiophene = 0
Property: Activity coefficient of thiophene (Liquid); method: Chromatography
Temperature, K	Activity coefficient of thiophene	uncertainty
298.15	1.02	0.04
308.15	1.04	0.04
318.15	1.06	0.04
328.15	1.08	0.04
338.15	1.1	0.04
348.15	1.11	0.04
358.15	1.13	0.04
368.15	1.14	0.04

System: 2-methoxy-2-methylpropane + 1-butyl-1-methylpyrrolidinium trifluoromethanesulfonate; phases: Liquid, Gas
Fixed: Mole fraction of 2-methoxy-2-methylpropane = 0
Property: Activity coefficient of 2-methoxy-2-methylpropane (Liquid); method: Chromatography
Temperature, K	Activity coefficient of 2-methoxy-2-methylpropane	uncertainty
298.15	5.67	0.25
308.15	5.65	0.25
318.15	5.64	0.25
328.15	5.63	0.25
338.15	5.62	0.25
348.15	5.6	0.25
358.15	5.59	0.25
368.15	5.58	0.25

System: hex-1-ene + 1-butyl-1-methylpyrrolidinium trifluoromethanesulfonate; phases: Liquid, Gas
Fixed: Mole fraction of hex-1-ene = 0
Property: Activity coefficient of hex-1-ene (Liquid); method: Chromatography
Temperature, K	Activity coefficient of hex-1-ene	uncertainty
298.15	21.6	1
308.15	20.2	0.9
318.15	19.2	0.9
328.15	18.1	0.8
338.15	17.3	0.8
348.15	16.4	0.7
358.15	15.7	0.7
368.15	15	0.7

System: ethylbenzene + 1-butyl-1-methylpyrrolidinium trifluoromethanesulfonate; phases: Liquid, Gas
Fixed: Mole fraction of ethylbenzene = 0
Property: Activity coefficient of ethylbenzene (Liquid); method: Chromatography
Temperature, K	Activity coefficient of ethylbenzene	uncertainty
298.15	3.43	0.15
308.15	3.45	0.15
318.15	3.46	0.15
328.15	3.48	0.15
338.15	3.5	0.15
348.15	3.51	0.15
358.15	3.53	0.16
368.15	3.54	0.16
