Measured thermophysical data. Solubility of naproxen in several organic solvents at different temperatures
Source: Fluid Phase Equilib., 2007, 10.1016/j.fluid.2007.03.029
Compound 1: (S)-(+)-naproxen, C14H14O3, InChI=1S/C14H14O3/c1-9(14(15)16)10-3-4-12-8-13(17-2)6-5-11(12)7-10/h3-9H,1-2H3,(H,15,16)/t9-/m0/s1
Compound 2: octan-1-ol, C8H18O, InChI=1S/C8H18O/c1-2-3-4-5-6-7-8-9/h9H,2-8H2,1H3
Compound 3: 1-methylethyl tetradecanoate, C17H34O2, InChI=1S/C17H34O2/c1-4-5-6-7-8-9-10-11-12-13-14-15-17(18)19-16(2)3/h16H,4-15H2,1-3H3
Compound 4: trichloromethane, CHCl3, InChI=1S/CHCl3/c2-1(3)4/h1H
Compound 5: cyclohexane, C6H12, InChI=1S/C6H12/c1-2-4-6-5-3-1/h1-6H2
Compound 6: water, H2O, InChI=1S/H2O/h1H2

System: octan-1-ol + (S)-(+)-naproxen; phases: Liquid, Crystal
Fixed: Pressure, kPa = 101
Property: Mole fraction of (S)-(+)-naproxen (Liquid); method: UV Spectra
Temperature, K	Mole fraction of (S)-(+)-naproxen	uncertainty
293.15	0.01342	0.00135
298.15	0.01742	0.00174
303.15	0.02024	0.00203
308.15	0.02499	0.0025
313.15	0.02949	0.00295

System: 1-methylethyl tetradecanoate + (S)-(+)-naproxen; phases: Liquid, Crystal
Fixed: Pressure, kPa = 101
Property: Mole fraction of (S)-(+)-naproxen (Liquid); method: UV Spectra
Temperature, K	Mole fraction of (S)-(+)-naproxen	uncertainty
293.15	0.00569	0.00057
298.15	0.00679	0.00068
303.15	0.00766	0.000767
308.15	0.00922	0.00092
313.15	0.01051	0.00105

System: trichloromethane + (S)-(+)-naproxen; phases: Liquid, Crystal
Fixed: Pressure, kPa = 101
Property: Mole fraction of (S)-(+)-naproxen (Liquid); method: UV Spectra
Temperature, K	Mole fraction of (S)-(+)-naproxen	uncertainty
293.15	0.0197	0.002
298.15	0.0241	0.0024
303.15	0.0272	0.0027
308.15	0.03278	0.00328
313.15	0.03809	0.00381

System: cyclohexane + (S)-(+)-naproxen; phases: Liquid, Crystal
Fixed: Pressure, kPa = 101
Property: Mole fraction of (S)-(+)-naproxen (Liquid); method: UV Spectra
Temperature, K	Mole fraction of (S)-(+)-naproxen	uncertainty
293.15	3.55e-05	3.6e-06
298.15	5.867e-05	5.9e-06
303.15	8.4e-05	8.4e-06
308.15	0.0001183	1.19e-05
313.15	0.0001639	1.64e-05

System: octan-1-ol + water + (S)-(+)-naproxen; phases: Liquid mixture 1, Crystal, Liquid
Fixed: Pressure, kPa = 101
Property: Mole fraction of (S)-(+)-naproxen (Liquid mixture 1); method: UV Spectra
Temperature, K	Mole fraction of (S)-(+)-naproxen	uncertainty
293.15	0.01405	0.00141
298.15	0.01762	0.00177
303.15	0.0195	0.002
308.15	0.02383	0.00239
313.15	0.0279	0.0028

System: 1-methylethyl tetradecanoate + water + (S)-(+)-naproxen; phases: Liquid mixture 1, Crystal, Liquid
Fixed: Pressure, kPa = 101
Property: Mole fraction of (S)-(+)-naproxen (Liquid mixture 1); method: UV Spectra
Temperature, K	Mole fraction of (S)-(+)-naproxen	uncertainty
293.15	0.00637	0.00064
298.15	0.00757	0.00076
303.15	0.00851	0.00085
308.15	0.00961	0.00096
313.15	0.01107	0.00111

System: trichloromethane + water + (S)-(+)-naproxen; phases: Liquid mixture 1, Crystal, Liquid
Fixed: Pressure, kPa = 101
Property: Mole fraction of (S)-(+)-naproxen (Liquid mixture 1); method: UV Spectra
Temperature, K	Mole fraction of (S)-(+)-naproxen	uncertainty
293.15	0.01939	0.00194
298.15	0.0231	0.0023
303.15	0.02564	0.00257
308.15	0.03071	0.00308
313.15	0.0364	0.0036
