Measured thermophysical data. Total vapour pressure and excess Gibbs energy for binary mixtures of 1,1,2,2-tetrachlorethane or tetrachloroethene with benzene at nine temperatures
Source: Fluid Phase Equilib., 2005, 10.1016/j.fluid.2004.02.021
Compound 1: 1,1,2,2-tetrachloroethane, C2H2Cl4, InChI=1S/C2H2Cl4/c3-1(4)2(5)6/h1-2H
Compound 2: tetrachloroethene, C2Cl4, InChI=1S/C2Cl4/c3-1(4)2(5)6
Compound 3: benzene, C6H6, InChI=1S/C6H6/c1-2-4-6-5-3-1/h1-6H

System: 1,1,2,2-tetrachloroethane; phases: Liquid, Gas
Property: Vapor or sublimation pressure, kPa (Liquid); method: CCELL:UFactor:2
Temperature, K	Vapor or sublimation pressure, kPa	uncertainty
283.15	0.263	0.008
288.15	0.373	0.01
293.15	0.521	0.013
298.15	0.711	0.017
303.15	0.98	0.022
308.15	1.289	0.028
313.15	1.701	0.027
318.15	2.236	0.029
323.15	2.86	0.032

System: tetrachloroethene; phases: Liquid, Gas
Property: Vapor or sublimation pressure, kPa (Liquid); method: CCELL:UFactor:2
Temperature, K	Vapor or sublimation pressure, kPa	uncertainty
283.15	1.023	0.023
288.15	1.4	0.026
293.15	1.861	0.028
298.15	2.462	0.03
303.15	3.205	0.033
308.15	4.117	0.037
313.15	5.253	0.041
318.15	6.621	0.047
323.15	8.286	0.054

System: benzene; phases: Liquid, Gas
Property: Vapor or sublimation pressure, kPa (Liquid); method: CCELL:UFactor:2
Temperature, K	Vapor or sublimation pressure, kPa	uncertainty
283.15	6.078	0.045
288.15	7.849	0.052
293.15	10.027	0.061
298.15	12.691	0.072
303.15	15.925	0.085
308.15	19.812	0.101
313.15	24.398	0.119
318.15	29.847	0.141
323.15	36.24	0.167

System: benzene + 1,1,2,2-tetrachloroethane; phases: Liquid, Gas
Property: Vapor or sublimation pressure, kPa (Liquid); method: CCELL:UFactor:2
Temperature, K	Mole fraction of 1,1,2,2-tetrachloroethane	Vapor or sublimation pressure, kPa	uncertainty
283.15	0.0679	5.668	0.086
283.15	0.1613	5.073	0.081
283.15	0.2371	4.554	0.077
283.15	0.3366	3.898	0.071
283.15	0.4657	3.058	0.065
283.15	0.5502	2.528	0.06
283.15	0.647	1.955	0.056
283.15	0.6595	1.892	0.055
283.15	0.7771	1.244	0.055
283.15	0.8391	0.948	0.043
283.15	0.9212	0.567	0.028
288.15	0.068	7.306	0.099
288.15	0.1613	6.549	0.093
288.15	0.2372	5.9	0.087
288.15	0.3367	5.048	0.081
288.15	0.4658	3.97	0.072
288.15	0.5503	3.292	0.066
288.15	0.6471	2.557	0.061
288.15	0.6595	2.465	0.06
288.15	0.7771	1.655	0.053
288.15	0.8392	1.271	0.056
288.15	0.9212	0.785	0.037
293.15	0.068	9.363	0.115
293.15	0.1614	8.391	0.107
293.15	0.2373	7.559	0.101
293.15	0.3369	6.469	0.092
293.15	0.4659	5.104	0.081
293.15	0.5504	4.245	0.074
293.15	0.6472	3.321	0.067
293.15	0.6596	3.198	0.066
293.15	0.7772	2.168	0.057
293.15	0.8392	1.653	0.053
293.15	0.9212	1.057	0.048
298.15	0.068	11.85	0.135
298.15	0.1614	10.65	0.126
298.15	0.2375	9.583	0.117
298.15	0.3372	8.234	0.106
298.15	0.466	6.517	0.092
298.15	0.5506	5.426	0.084
298.15	0.6473	4.245	0.074
298.15	0.6597	4.102	0.073
298.15	0.7773	2.796	0.062
298.15	0.8393	2.176	0.057
298.15	0.9213	1.395	0.051
303.15	0.068	14.892	0.16
303.15	0.1616	13.348	0.147
303.15	0.2377	12.064	0.137
303.15	0.3375	10.364	0.123
303.15	0.4663	8.225	0.106
303.15	0.5509	6.909	0.096
303.15	0.6475	5.394	0.083
303.15	0.6599	5.228	0.082
303.15	0.7774	3.616	0.069
303.15	0.8395	2.816	0.063
303.15	0.9213	1.828	0.055
308.15	0.068	18.49	0.189
308.15	0.1615	16.649	0.174
308.15	0.2375	15.037	0.161
308.15	0.338	12.922	0.144
308.15	0.4666	10.298	0.123
308.15	0.5512	8.634	0.109
308.15	0.6478	6.807	0.095
308.15	0.66	6.574	0.093
308.15	0.7776	4.605	0.077
308.15	0.8396	3.602	0.069
308.15	0.9214	2.35	0.059
313.15	0.068	22.801	0.223
313.15	0.1615	20.532	0.205
313.15	0.2376	18.574	0.189
313.15	0.3375	16.041	0.169
313.15	0.4663	12.79	0.143
313.15	0.5517	10.704	0.126
313.15	0.6482	8.498	0.108
313.15	0.6603	8.223	0.106
313.15	0.7778	5.788	0.087
313.15	0.8397	4.524	0.076
313.15	0.9215	3.042	0.064
318.15	0.0681	27.884	0.264
318.15	0.1616	25.078	0.242
318.15	0.2379	22.709	0.223
318.15	0.3378	19.618	0.198
318.15	0.4666	15.712	0.166
318.15	0.5512	13.27	0.147
318.15	0.6486	10.51	0.125
318.15	0.6606	10.187	0.122
318.15	0.7781	7.203	0.098
318.15	0.84	5.666	0.086
318.15	0.9216	3.857	0.071
323.15	0.0681	33.853	0.312
323.15	0.1616	30.444	0.285
323.15	0.2381	27.636	0.262
323.15	0.3382	23.851	0.232
323.15	0.4669	19.154	0.194
323.15	0.5515	16.227	0.17
323.15	0.6493	12.855	0.143
323.15	0.661	12.503	0.141
323.15	0.7785	8.877	0.111
323.15	0.8403	7.045	0.097
323.15	0.9217	4.84	0.079

System: benzene + tetrachloroethene; phases: Liquid, Gas
Property: Vapor or sublimation pressure, kPa (Liquid); method: CCELL:UFactor:2
Temperature, K	Mole fraction of tetrachloroethene	Vapor or sublimation pressure, kPa	uncertainty
283.15	0.0798	5.758	0.086
283.15	0.1262	5.542	0.085
283.15	0.2205	5.137	0.081
283.15	0.3153	4.717	0.078
283.15	0.3909	4.392	0.075
283.15	0.4419	4.162	0.073
283.15	0.4981	3.906	0.071
283.15	0.6046	3.408	0.067
283.15	0.6779	3.028	0.064
283.15	0.7759	2.48	0.06
283.15	0.8844	1.797	0.054
288.15	0.0798	7.415	0.1
288.15	0.1262	7.143	0.097
288.15	0.2206	6.63	0.093
288.15	0.3154	6.103	0.089
288.15	0.3909	5.685	0.086
288.15	0.442	5.408	0.083
288.15	0.4982	5.057	0.081
288.15	0.6047	4.425	0.076
288.15	0.678	3.917	0.071
288.15	0.776	3.234	0.066
288.15	0.8844	2.4	0.059
293.15	0.0799	9.447	0.116
293.15	0.1262	9.118	0.113
293.15	0.2207	8.479	0.108
293.15	0.3154	7.81	0.103
293.15	0.3911	7.27	0.098
293.15	0.4422	6.913	0.096
293.15	0.4984	6.489	0.092
293.15	0.6047	5.642	0.085
293.15	0.678	5.041	0.08
293.15	0.7761	4.161	0.073
293.15	0.8845	3.124	0.065
298.15	0.0799	11.979	0.136
298.15	0.1262	11.586	0.133
298.15	0.2207	10.748	0.126
298.15	0.3155	9.886	0.119
298.15	0.3912	9.218	0.114
298.15	0.4426	8.746	0.11
298.15	0.4986	8.221	0.106
298.15	0.6049	7.195	0.098
298.15	0.6781	6.443	0.092
298.15	0.7762	5.314	0.083
298.15	0.8845	4.005	0.072
303.15	0.0799	15.075	0.161
303.15	0.1262	14.555	0.157
303.15	0.2206	13.524	0.149
303.15	0.3154	12.472	0.14
303.15	0.3915	11.603	0.133
303.15	0.4431	11.002	0.128
303.15	0.4989	10.335	0.123
303.15	0.605	9.043	0.113
303.15	0.6782	8.106	0.105
303.15	0.7765	6.733	0.094
303.15	0.8846	5.121	0.081
308.15	0.0799	18.718	0.19
308.15	0.1262	18.097	0.185
308.15	0.2207	16.815	0.175
308.15	0.3155	15.508	0.165
308.15	0.3912	14.471	0.156
308.15	0.4426	13.748	0.15
308.15	0.4994	12.871	0.143
308.15	0.6052	11.287	0.131
308.15	0.6784	10.129	0.121
308.15	0.7767	8.455	0.108
308.15	0.8848	6.471	0.092
313.15	0.0799	23.063	0.225
313.15	0.1262	22.307	0.219
313.15	0.2208	20.752	0.207
313.15	0.3155	19.138	0.194
313.15	0.3914	17.888	0.184
313.15	0.4431	16.965	0.176
313.15	0.4988	15.969	0.168
313.15	0.605	13.979	0.152
313.15	0.6786	12.542	0.141
313.15	0.7771	10.484	0.124
313.15	0.8849	8.099	0.105
318.15	0.0799	28.224	0.267
318.15	0.1263	27.275	0.259
318.15	0.2208	25.363	0.244
318.15	0.3157	23.419	0.228
318.15	0.3916	21.842	0.215
318.15	0.4432	20.756	0.207
318.15	0.499	19.585	0.197
318.15	0.6051	17.164	0.178
318.15	0.6783	15.471	0.164
318.15	0.7776	12.907	0.144
318.15	0.8851	10.039	0.121
323.15	0.08	34.225	0.315
323.15	0.1264	33.073	0.306
323.15	0.221	30.837	0.288
323.15	0.3157	28.571	0.269
323.15	0.3917	26.654	0.254
323.15	0.4438	25.202	0.242
323.15	0.4994	23.845	0.231
323.15	0.6052	20.898	0.208
323.15	0.6784	18.858	0.191
323.15	0.7769	15.881	0.167
323.15	0.8855	12.296	0.139
