Measured thermophysical data. Solubility of daidzein in propylene glycol plus water cosolvent mixtures
Source: Fluid Phase Equilib., 2014, 10.1016/j.fluid.2013.12.024
Compound 1: daidzein, C15H10O4, InChI=1S/C15H10O4/c16-10-3-1-9(2-4-10)13-8-19-14-7-11(17)5-6-12(14)15(13)18/h1-8,16-17H, purity 99%
Compound 2: 1,2-propanediol, C3H8O2, InChI=1S/C3H8O2/c1-3(5)2-4/h3-5H,2H2,1H3, purity 99.8%
Compound 3: water, H2O, InChI=1S/H2O/h1H2

System: daidzein; phases: Crystal, Liquid, Air at 1 atmosphere
Property: Molar enthalpy of transition or fusion, kJ/mol (Crystal); method: DSC
Molar enthalpy of transition or fusion, kJ/mol	uncertainty
35.05	0.98

System: daidzein; phases: Crystal, Liquid, Air at 1 atmosphere
Property: Normal melting temperature, K (Crystal); method: DTA
Normal melting temperature, K	uncertainty
588.82	0.5

System: 1,2-propanediol + daidzein + water; phases: Liquid, Crystal
Fixed: Pressure, kPa = 103
Property: Amount concentration (molarity), mol/dm3 of daidzein (Liquid); method: SPECTR
Solvent: Mass fraction of 1,2-propanediol	Temperature, K	Amount concentration (molarity), mol/dm3 of daidzein	uncertainty
0	298.15	7.1e-06	9e-07
0.1	298.15	1.12e-05	1.1e-06
0.2	298.15	1.7e-05	1.4e-06
0.3	298.15	3.97e-05	2.8e-06
0.4	298.15	9.84e-05	6.6e-06
0.5	298.15	0.000244	1.61e-05
0.6	298.15	0.000554	3.63e-05
0.7	298.15	0.00118	7.72e-05
0.8	298.15	0.00204	0.0001333
0.9	298.15	0.00319	0.0002083
1	298.15	0.00457	0.0002985
0	303.15	1.06e-05	1.1e-06
0.1	303.15	1.61e-05	1.4e-06
0.2	303.15	2.57e-05	2e-06
0.3	303.15	6.1e-05	4.2e-06
0.4	303.15	0.000141	9.4e-06
0.5	303.15	0.00031	2.04e-05
0.6	303.15	0.000679	4.45e-05
0.7	303.15	0.00147	9.62e-05
0.8	303.15	0.00243	0.0001588
0.9	303.15	0.00375	0.000245
1	303.15	0.00533	0.000348
0	308.15	1.43e-05	1.3e-06
0.1	308.15	2.09e-05	1.7e-06
0.2	308.15	3.56e-05	2.6e-06
0.3	308.15	7.64e-05	5.2e-06
0.4	308.15	0.000189	1.25e-05
0.5	308.15	0.000406	2.67e-05
0.6	308.15	0.000863	5.66e-05
0.7	308.15	0.00179	0.0001171
0.8	308.15	0.00287	0.0001875
0.9	308.15	0.00445	0.0002907
1	308.15	0.0061	0.0003982
0	313.15	1.75e-05	1.5e-06
0.1	313.15	2.75e-05	2.1e-06
0.2	313.15	4.67e-05	3.3e-06
0.3	313.15	0.0001	6.7e-06
0.4	313.15	0.000234	1.55e-05
0.5	313.15	0.000536	3.52e-05
0.6	313.15	0.00108	7.08e-05
0.7	313.15	0.00216	0.0001412
0.8	313.15	0.00344	0.0002248
0.9	313.15	0.00531	0.0003467
1	313.15	0.00696	0.0004543
0	318.15	2.39e-05	1.9e-06
0.1	318.15	3.87e-05	2.8e-06
0.2	318.15	6.26e-05	4.3e-06
0.3	318.15	0.000143	9.6e-06
0.4	318.15	0.000299	1.98e-05
0.5	318.15	0.000661	4.36e-05
0.6	318.15	0.00142	9.32e-05
0.7	318.15	0.00255	0.0001668
0.8	318.15	0.00418	0.0002732
0.9	318.15	0.00608	0.0003968
1	318.15	0.00799	0.0005214

System: daidzein + water; phases: Liquid, Crystal
Fixed: Pressure, kPa = 101
Property: Amount concentration (molarity), mol/dm3 of daidzein (Liquid); method: SPECTR
Temperature, K	Amount concentration (molarity), mol/dm3 of daidzein	uncertainty
298.15	7.1e-06	9.3e-07
303.15	1.06e-05	1.1e-06
308.15	1.43e-05	1.3e-06
313.15	1.75e-05	1.5e-06
318.15	2.39e-05	1.9e-06

System: 1,2-propanediol + daidzein; phases: Liquid, Crystal
Fixed: Pressure, kPa = 101
Property: Amount concentration (molarity), mol/dm3 of daidzein (Liquid); method: SPECTR
Temperature, K	Amount concentration (molarity), mol/dm3 of daidzein	uncertainty
298.15	0.00457	0.0003
303.15	0.00533	0.00035
308.15	0.0061	0.0004
313.15	0.00696	0.00045
318.15	0.00799	0.00052
