Measured thermophysical data. Solid liquid equilibria of mixtures containing tert-butanol, m-chlorophenol, and p-chlorophenol and development of adductive crystallization processes
Source: Fluid Phase Equilib., 2005, 10.1016/j.fluid.2005.08.021
Compound 1: 2-methylpropan-2-ol, C4H10O, InChI=1S/C4H10O/c1-4(2,3)5/h5H,1-3H3, purity 99.9%
Compound 2: 3-chlorophenol, C6H5ClO, InChI=1S/C6H5ClO/c7-5-2-1-3-6(8)4-5/h1-4,8H, purity 99.9%
Compound 3: 4-chlorophenol, C6H5ClO, InChI=1S/C6H5ClO/c7-5-1-3-6(8)4-2-5/h1-4,8H, purity 99.5%

System: 2-methylpropan-2-ol; phases: Crystal, Liquid, Air at 1 atmosphere
Property: Normal melting temperature, K (Crystal); method: VISOBS
Normal melting temperature, K	uncertainty
298.7	0.4

System: 3-chlorophenol; phases: Crystal, Liquid, Air at 1 atmosphere
Property: Normal melting temperature, K (Crystal); method: VISOBS
Normal melting temperature, K	uncertainty
305.5	0.4

System: 4-chlorophenol; phases: Crystal, Liquid, Air at 1 atmosphere
Property: Normal melting temperature, K (Crystal); method: VISOBS
Normal melting temperature, K	uncertainty
315.6	0.4

System: 4-chlorophenol + 3-chlorophenol; phases: Liquid, Crystal
Fixed: Pressure, kPa = 101.325
Property: Solid-liquid equilibrium temperature, K (Liquid); method: VISOBS:UFactor:6
Mole fraction of 3-chlorophenol	Solid-liquid equilibrium temperature, K	uncertainty
0	315.6	0.9
0.0511	314.5	0.9
0.0994	313.6	0.9
0.1264	311.6	0.9
0.1989	306.4	0.9
0.2995	297.9	0.9
0.4006	286.7	0.9
0.4349	282.9	0.9
0.4707	279.2	0.9
0.4986	276.7	0.9

System: 4-chlorophenol + 3-chlorophenol; phases: Liquid, Crystal
Fixed: Pressure, kPa = 101.3
Property: Solid-liquid equilibrium temperature, K (Liquid); method: VISOBS:UFactor:6
Mole fraction of 3-chlorophenol	Solid-liquid equilibrium temperature, K	uncertainty
0.5158	276	1.2
0.5503	279.6	1.2
0.5961	283.1	1.2
0.6979	290	1.2
0.7628	294.3	1.2
0.7987	297	1.2
0.8983	301.4	1.2
0.9682	304	1.2
1	305.5	1.2

System: 2-methylpropan-2-ol + 3-chlorophenol; phases: Liquid, Crystal
Fixed: Pressure, kPa = 101.325
Property: Solid-liquid equilibrium temperature, K (Liquid); method: VISOBS:UFactor:12
Mole fraction of 2-methylpropan-2-ol	Solid-liquid equilibrium temperature, K	uncertainty
0	305.5	1.9
0.0502	302.9	1.9
0.1141	302.4	1.9
0.2091	297	1.9
0.2825	290.3	1.9
0.343	284.8	1.9
0.4094	276.3	1.9
0.4463	271.9	1.9
0.48	260.5	1.9

System: 2-methylpropan-2-ol + 3-chlorophenol; phases: Liquid, Crystal
Fixed: Pressure, kPa = 101.325
Property: Solid-liquid equilibrium temperature, K (Liquid); method: VISOBS:UFactor:12
Mole fraction of 2-methylpropan-2-ol	Solid-liquid equilibrium temperature, K	uncertainty
0.7921	270.5	1.9
0.858	280.6	1.9
0.8835	287.5	1.9
0.9319	291	1.9
1	298.7	1.9

System: 2-methylpropan-2-ol + 3-chlorophenol; phases: Liquid, Crystal of intercomponent compound 1
Fixed: Pressure, kPa = 101.325
Property: Solid-liquid equilibrium temperature, K (Liquid); method: VISOBS:UFactor:12
Mole fraction of 2-methylpropan-2-ol	Solid-liquid equilibrium temperature, K	uncertainty
0.5091	262.8	1.9
0.5547	265.5	1.9
0.6075	270.4	1.9
0.6602	272.9	1.9
0.716	272.6	1.9
0.7517	271.3	1.9

System: 2-methylpropan-2-ol + 4-chlorophenol; phases: Liquid, Crystal
Fixed: Pressure, kPa = 101.325
Property: Solid-liquid equilibrium temperature, K (Liquid); method: VISOBS:UFactor:6
Mole fraction of 2-methylpropan-2-ol	Solid-liquid equilibrium temperature, K	uncertainty
0	315.6	0.9
0.1059	300	0.9
0.2078	280.5	0.9
0.2204	278.1	0.9

System: 2-methylpropan-2-ol + 4-chlorophenol; phases: Liquid, Crystal of intercomponent compound 1
Fixed: Pressure, kPa = 101.325
Property: Solid-liquid equilibrium temperature, K (Liquid); method: VISOBS:UFactor:6
Mole fraction of 2-methylpropan-2-ol	Solid-liquid equilibrium temperature, K	uncertainty
0.241	280	0.9
0.3033	285.3	0.9
0.4088	296.4	0.9
0.5038	306.5	0.9
0.603	313	0.9
0.6446	314.9	0.9
0.669	315.9	0.9
0.6837	315.8	0.9
0.7007	315.7	0.9
0.7366	313.4	0.9
0.7504	312.5	0.9
0.7757	310.3	0.9
0.7995	307.4	0.9
0.8239	305	0.9
0.8325	303.4	0.9
0.868	297.7	0.9

System: 2-methylpropan-2-ol + 4-chlorophenol; phases: Liquid, Crystal
Fixed: Pressure, kPa = 101.325
Property: Solid-liquid equilibrium temperature, K (Liquid); method: VISOBS:UFactor:6
Mole fraction of 2-methylpropan-2-ol	Solid-liquid equilibrium temperature, K	uncertainty
0.8887	295.5	0.9
0.9052	296.9	0.9
1	298.7	0.9

System: 2-methylpropan-2-ol + 4-chlorophenol + 3-chlorophenol; phases: Liquid, Crystal
Fixed: Pressure, kPa = 101.325
Property: Solid-liquid equilibrium temperature, K (Liquid); method: VISOBS:UFactor:12
Solvent: Amount ratio of component to other component of binary solvent of 3-chlorophenol	Mole fraction of 2-methylpropan-2-ol	Solid-liquid equilibrium temperature, K	uncertainty
0.25	0	306.4	1.9
0.25	0.0497	302	1.9
0.25	0.1026	293.6	1.9
0.25	0.1511	288.8	1.9
0.25	0.2192	282.4	1.9
0.25	0.2204	282.1	1.9
0.25	0.2829	287.1	1.9
0.25	0.3008	288.3	1.9
0.25	0.3512	292.6	1.9
0.25	0.3993	297.4	1.9
0.25	0.4464	302	1.9
0.25	0.5013	306.5	1.9
0.25	0.5555	310	1.9
0.25	0.6528	314.8	1.9
0.25	0.6659	315	1.9
0.25	0.6792	314.9	1.9
0.25	0.7005	314.4	1.9
0.25	0.7261	313.3	1.9
0.25	0.7618	310.8	1.9
0.25	0.8338	304	1.9
0.25	0.8887	292	1.9
0.25	0.8894	292.9	1.9
0.25	0.9586	295.6	1.9
0.25	1	298.7	1.9
0.42857	0	297.9	1.9
0.42857	0.0478	292.6	1.9
0.42857	0.1067	285.7	1.9
0.42857	0.1543	281.4	1.9
0.42857	0.2034	276	1.9
0.42857	0.2485	271	1.9
0.42857	0.3003	274.7	1.9
0.42857	0.3524	282.1	1.9
0.42857	0.3995	287.7	1.9
0.42857	0.4513	294.3	1.9
0.42857	0.5012	300.6	1.9
0.42857	0.5503	304.9	1.9
0.42857	0.5966	307	1.9
0.42857	0.6475	308.6	1.9
0.42857	0.6669	308.8	1.9
0.42857	0.7084	308.4	1.9
0.42857	0.7505	306.3	1.9
0.42857	0.7923	302.6	1.9
0.42857	0.8489	298.5	1.9
0.42857	0.8929	291.3	1.9
0.42857	0.9467	294.6	1.9
0.42857	1	298.7	1.9
0.66667	0	286.6	1.9
0.66667	0.1026	282.1	1.9
0.66667	0.2024	275.3	1.9
0.66667	0.239	273.5	1.9
0.66667	0.2558	276.1	1.9
0.66667	0.3218	287.6	1.9
0.66667	0.4218	297.2	1.9
0.66667	0.5331	304.6	1.9
0.66667	0.6506	307.4	1.9
0.66667	0.6665	307.7	1.9
0.66667	0.6791	307.6	1.9
0.66667	0.7235	306.5	1.9
0.66667	0.8056	303.8	1.9
0.66667	0.8627	300.4	1.9
0.66667	0.8898	297.4	1.9
0.66667	0.9485	298.6	1.9
0.66667	1	298.7	1.9
1	0	276.7	1.9
1	0.0946	274.3	1.9
1	0.1951	271.2	1.9
1	0.2008	271	1.9
1	0.2105	276.8	1.9
1	0.3088	289.5	1.9
1	0.4076	300.4	1.9
1	0.5196	307.4	1.9
1	0.6031	308.6	1.9
1	0.6505	308.9	1.9
1	0.6604	309	1.9
1	0.6799	308.9	1.9
1	0.7133	308	1.9
1	0.8099	297.9	1.9
1	0.8624	290.4	1.9
1	0.8894	281.4	1.9
1	0.9186	286.4	1.9
1	0.9601	291.8	1.9
1	1	298.7	1.9
1.5	0	283.1	1.9
1.5	0.1026	280.5	1.9
1.5	0.2024	277.6	1.9
1.5	0.3098	270.4	1.9
1.5	0.3377	264.9	1.9
1.5	0.3404	266	1.9
1.5	0.3764	275.3	1.9
1.5	0.4509	288.4	1.9
1.5	0.5551	295	1.9
1.5	0.6506	296.3	1.9
1.5	0.6588	296.4	1.9
1.5	0.6999	296.3	1.9
1.5	0.8015	290.8	1.9
1.5	0.8267	285.2	1.9
1.5	0.8359	283.4	1.9
1.5	0.8545	285.6	1.9
1.5	0.8696	287.1	1.9
1.5	0.9215	292.8	1.9
1.5	1	298.7	1.9
2.3333	0	290	1.9
2.3333	0.1026	286.9	1.9
2.3333	0.2027	284.5	1.9
2.3333	0.3008	279.8	1.9
2.3333	0.4018	273.9	1.9
2.3333	0.5015	265.8	1.9
2.3333	0.5299	262.5	1.9
2.3333	0.5348	262	1.9
2.3333	0.5497	264.2	1.9
2.3333	0.6077	269.4	1.9
2.3333	0.6468	273.6	1.9
2.3333	0.6682	275	1.9
2.3333	0.6968	274.1	1.9
2.3333	0.7158	272.4	1.9
2.3333	0.7322	271.4	1.9
2.3333	0.7381	270.8	1.9
2.3333	0.7692	273.4	1.9
2.3333	0.8512	282.4	1.9
2.3333	0.9244	290.4	1.9
2.3333	1	298.7	1.9
4	0	297	1.9
4	0.1064	286.3	1.9
4	0.2053	274.4	1.9
4	0.3166	265	1.9
4	0.4195	257.4	1.9
4	0.4328	260.3	1.9
4	0.5108	274.5	1.9
4	0.5778	288.7	1.9
4	0.655	294.2	1.9
4	0.6671	294.3	1.9
4	0.6703	294.2	1.9
4	0.7159	292.3	1.9
4	0.8024	283.8	1.9
4	0.8655	274.9	1.9
4	0.8886	271	1.9
4	0.8892	269.9	1.9
4	0.9103	274.6	1.9
4	0.9467	284.6	1.9
4	1	298.7	1.9
