Measured thermophysical data. High-pressure solubility of naproxen, nicotinamide and their mixture in acetone with supercritical CO2 as an anti-solvent
Source: Fluid Phase Equilib., 2014, 10.1016/j.fluid.2014.03.029
Compound 1: 3-pyridinecarboxamide, C6H6N2O, InChI=1S/C6H6N2O/c7-6(9)5-2-1-3-8-4-5/h1-4H,(H2,7,9), purity 99.5%
Compound 2: carbon dioxide, CO2, InChI=1S/CO2/c2-1-3, purity 99.995%
Compound 3: acetone, C3H6O, InChI=1S/C3H6O/c1-3(2)4/h1-2H3, purity 99.5%
Compound 4: (S)-(+)-naproxen, C14H14O3, InChI=1S/C14H14O3/c1-9(14(15)16)10-3-4-12-8-13(17-2)6-5-11(12)7-10/h3-9H,1-2H3,(H,15,16)/t9-/m0/s1, purity 98%

System: acetone + carbon dioxide + (S)-(+)-naproxen; phases: Liquid, Crystal
Fixed: Temperature, K = 298.15
Fixed: Pressure, kPa = 10000
Property: Amount ratio of solute to solvent of (S)-(+)-naproxen (Liquid); method: chromatography
Solvent: Mole fraction of carbon dioxide	Amount ratio of solute to solvent of (S)-(+)-naproxen	uncertainty
0	0.0441	0.0031
0.32	0.0217	0.0015
0.468	0.0142	0.001
0.753	0.0032	0.0002
0.952	0.0001	0.0001
1	1.2e-05	1e-06

System: acetone + 3-pyridinecarboxamide + carbon dioxide; phases: Liquid, Crystal
Fixed: Temperature, K = 298.15
Fixed: Pressure, kPa = 10000
Property: Amount ratio of solute to solvent of 3-pyridinecarboxamide (Liquid); method: chromatography
Solvent: Mole fraction of carbon dioxide	Amount ratio of solute to solvent of 3-pyridinecarboxamide	uncertainty
0	0.0215	0.0015
0.051	0.0194	0.0014
0.195	0.014	0.001
0.441	0.0061	0.0004
0.578	0.0035	0.0003
1	0.0005	0.0001
