Measured thermophysical data. Experimental densities, vapor pressures, and critical point, and a fundamental equation of state for dimethyl ether
Source: Fluid Phase Equilib., 2007, 10.1016/j.fluid.2006.09.016
Compound 1: dimethyl ether, C2H6O, InChI=1S/C2H6O/c1-3-2/h1-2H3, purity 99.9%

System: dimethyl ether; phases: Liquid, Gas
Property: Critical pressure, kPa (Liquid); method: Derived from PVT data
Critical pressure, kPa	uncertainty
5340.5	10.2

System: dimethyl ether; phases: Liquid, Gas
Property: Critical temperature, K (Liquid); method: Visual observation in an unstirred cell
Critical temperature, K	uncertainty
400.3	0.2

System: dimethyl ether; phases: Liquid, Gas
Property: Critical density, kg/m3 (Liquid); method: Closed cell
Critical density, kg/m3	uncertainty
277	6

System: dimethyl ether; phases: Liquid, Gas
Property: Vapor or sublimation pressure, kPa (Liquid); method: Closed cell (Static) method
Temperature, K	Vapor or sublimation pressure, kPa	uncertainty
264.3	193.5	1.8
274.63	281.6	2
280.5	342.4	2.5
290.14	465.4	2.9
295.12	540.1	3.8
307.86	773.2	4.2
312.92	880.9	5.5
326.76	1245.9	6.9
327.44	1267.1	7
333.81	1467.9	8.4
334.79	1504.9	8.4
340.67	1712	9.1
354.66	2297.8	10.4
361.18	2620.5	12.7
376.03	3463.4	14.7
383.17	3950.7	17.2
390.42	4486.5	18.8
394.44	4812.1	20.6
397.46	5083.6	21.9

System: dimethyl ether; phases: Fluid (supercritical or subcritical phases)
Property: Mass density, kg/m3 (Fluid (supercritical or subcritical phases)); method: VIBTUB:mpoint
Temperature, K	Pressure, kPa	Mass density, kg/m3	uncertainty
273.22	877	700.79	0.11
273.23	4990	706.75	0.12
273.23	9990	713.44	0.12
273.23	15009	719.62	0.13
273.23	20004	725.34	0.14
273.23	25005	730.68	0.15
273.23	29992	735.71	0.16
273.23	34995	740.46	0.17
273.23	40004	744.95	0.18
278.23	880	693.36	0.11
278.23	9991	706.71	0.12
278.23	14995	713.18	0.13
278.23	19994	719.15	0.14
278.23	25006	724.73	0.15
278.23	29989	729.93	0.16
278.23	34996	734.86	0.17
278.24	4998	699.68	0.12
278.24	39991	739.5	0.18
283.24	910	685.8	0.12
283.25	4995	692.46	0.12
283.25	9986	699.88	0.12
283.25	14999	706.67	0.13
283.25	19995	712.92	0.14
283.25	24987	718.7	0.15
283.25	29992	724.13	0.16
283.25	35004	729.24	0.17
283.25	39989	734.06	0.18
288.25	909	678.03	0.12
288.26	4982	685.1	0.12
288.26	10010	693	0.12
288.26	14994	700.1	0.13
288.26	19986	706.62	0.14
288.26	24993	712.67	0.15
288.26	29993	718.31	0.16
288.26	34996	723.6	0.17
288.26	39987	728.59	0.18
293.27	909	670.08	0.12
293.27	4998	677.66	0.12
293.27	9998	685.98	0.13
293.27	14994	693.46	0.13
293.27	19996	700.29	0.14
293.27	24988	706.6	0.15
293.27	29991	712.46	0.16
293.27	35000	717.94	0.17
293.27	40002	723.12	0.18
298.28	906	661.92	0.12
298.28	4995	670.04	0.12
298.28	9992	678.86	0.13
298.28	14993	686.76	0.13
298.28	19995	693.93	0.14
298.28	25012	700.51	0.15
298.28	30006	706.62	0.16
298.28	35002	712.29	0.17
298.28	40007	717.61	0.18
303.29	1000	653.78	0.13
303.3	4987	662.26	0.12
303.3	10002	671.67	0.13
303.3	14991	679.99	0.13
303.3	19989	687.5	0.14
303.3	24998	694.37	0.15
303.3	29999	700.74	0.16
303.3	34991	706.62	0.17
303.3	40004	712.17	0.18
308.31	1105	645.43	0.13
308.31	4991	654.33	0.13
308.31	10014	664.37	0.13
308.31	15004	673.15	0.13
308.31	20005	681.03	0.14
308.31	25005	688.23	0.15
308.31	29992	694.81	0.16
308.31	35001	700.95	0.17
308.31	40012	706.66	0.18
313.21	1397	637.53	0.13
313.21	4989	646.35	0.13
313.21	9994	657	0.13
313.21	15001	666.32	0.14
313.21	19997	674.6	0.14
313.21	24995	682.09	0.15
313.21	29991	688.96	0.16
313.21	34992	695.31	0.17
313.21	40004	701.22	0.18
318.22	1345	628.29	0.13
318.22	4991	638.01	0.13
318.22	9986	649.41	0.13
318.22	15015	659.3	0.14
318.22	20005	668	0.14
318.22	24987	675.8	0.15
318.22	30001	682.98	0.16
318.22	35007	689.57	0.17
318.22	39994	695.71	0.18
323.22	1480	619.24	0.14
323.22	39986	690.14	0.18
323.23	4996	629.43	0.13
323.23	9988	641.66	0.13
323.23	14994	652.11	0.14
323.23	19984	661.28	0.14
323.23	24989	669.49	0.15
323.23	29986	676.94	0.16
323.23	34997	683.81	0.17
328.23	1626	609.9	0.15
328.23	4983	620.53	0.14
328.23	9993	633.76	0.14
328.23	15000	644.87	0.14
328.23	20005	654.54	0.14
328.23	24992	663.11	0.15
328.23	29999	670.92	0.16
328.23	35001	678.03	0.17
328.23	39997	684.6	0.18
333.23	1756	600.12	0.15
333.23	4989	611.37	0.14
333.23	14998	637.49	0.14
333.23	19985	647.66	0.14
333.23	25003	656.72	0.15
333.23	30007	664.81	0.16
333.23	35006	672.22	0.17
333.24	9997	625.66	0.14
338.23	1958	590.18	0.16
338.24	4998	601.88	0.15
338.24	10012	617.39	0.14
338.24	15003	629.99	0.14
338.24	19984	640.73	0.15
338.24	24986	650.2	0.15
338.24	30004	658.7	0.16
338.24	34991	666.37	0.17
343.24	2158	579.8	0.17
343.24	4991	591.92	0.15
343.24	9998	608.84	0.14
343.24	15006	622.36	0.14
343.24	20006	633.76	0.15
343.24	25003	643.68	0.15
343.24	29996	652.52	0.16
343.24	35006	660.51	0.17
348.24	2331	568.71	0.17
348.24	4984	581.48	0.16
348.24	14988	614.53	0.14
348.25	9985	600.02	0.15
348.25	19993	626.62	0.15
348.25	25000	637.06	0.15
348.25	30002	646.3	0.16
348.25	34994	654.61	0.17
353.24	2571	557.37	0.18
353.25	4990	570.54	0.17
353.25	9991	591	0.15
353.25	14989	606.58	0.15
353.25	20004	619.43	0.15
353.25	24985	630.35	0.15
353.25	30003	640.04	0.16
353.25	35012	648.69	0.17
358.25	2813	545.31	0.19
358.25	4988	558.91	0.17
358.25	9992	581.65	0.15
358.25	15001	598.5	0.15
358.25	20005	612.1	0.15
358.25	25002	623.64	0.15
358.25	29996	633.72	0.16
358.25	34991	642.71	0.17
363.25	3057	532.4	0.21
363.25	4999	546.53	0.19
363.25	20013	604.7	0.15
363.25	25006	616.81	0.16
363.25	35003	636.74	0.17
363.26	9999	572.01	0.16
363.26	14993	590.17	0.15
363.26	29996	627.36	0.16
368.26	3329	518.62	0.23
368.26	4993	533.02	0.2
368.26	10002	561.96	0.16
368.26	14990	581.67	0.15
368.26	20010	597.14	0.15
368.26	24993	609.9	0.16
368.26	29996	620.95	0.16
368.26	34994	630.7	0.17
373.26	3610	503.51	0.26
373.26	4992	518.21	0.22
373.26	9993	551.46	0.17
373.26	14987	572.95	0.16
373.26	20012	589.46	0.15
373.26	24996	602.93	0.16
373.26	29991	614.48	0.16
373.26	34996	624.65	0.17
378.26	3908	486.95	0.3
378.26	4988	501.49	0.28
378.26	19995	581.63	0.16
378.26	24996	595.88	0.16
378.26	29996	607.99	0.16
378.26	35015	618.53	0.17
378.26	40001	627.97	0.18
378.27	10000	540.53	0.18
378.27	15005	564.09	0.16
383.26	4228	468.41	0.37
383.26	4995	482.23	0.33
383.26	19997	573.7	0.16
383.26	24996	588.78	0.16
383.26	29990	601.42	0.17
383.26	34995	612.43	0.17
383.27	10006	529.06	0.19
383.27	14994	554.89	0.16
388.26	4559	446.74	0.49
388.26	4995	458.35	0.42
388.26	34985	606.25	0.17
388.26	40008	616.4	0.18
388.27	9998	516.89	0.2
388.27	14993	545.44	0.17
388.27	19989	565.63	0.16
388.27	25000	581.57	0.16
388.27	29995	594.82	0.17
393.26	4913	420.4	7.01
393.26	4993	424.35	7.01
393.27	9986	504.06	0.23
393.27	14997	535.78	0.17
393.27	19989	557.39	0.16
393.27	24988	574.2	0.16
393.27	29995	588.14	0.17
393.27	35000	600.05	0.17
393.27	39978	610.56	0.18
398.24	5281	385.81	2.91
398.27	9999	490.42	0.26
398.27	14999	525.78	0.18
398.27	19997	549.06	0.16
398.27	24998	566.84	0.16
398.27	29989	581.38	0.17
398.27	34998	593.82	0.18
398.27	39990	604.68	0.18
403.27	5018	137.43	1.46
403.27	15004	515.69	0.18
403.27	19984	540.57	0.17
403.27	25005	559.42	0.16
403.27	30000	574.63	0.17
403.27	34993	587.51	0.18
403.27	40005	598.79	0.18
403.28	9997	476.07	0.48
408.19	6071	306.98	1.38
408.27	5018	121.72	2.09
408.27	14983	504.92	0.19
408.27	25009	552	0.17
408.27	39979	593.07	0.18
408.28	9993	459.93	0.34
408.28	20010	532.09	0.17
408.28	29991	567.91	0.17
408.28	34992	581.38	0.18
413.28	5019	113.4	0.8
413.28	9992	442.27	0.26
413.28	15007	493.84	0.2
413.28	20006	523.02	0.17
413.28	25009	544.18	0.17
413.28	29996	560.89	0.17
413.28	35002	574.91	0.18
418.28	5019	106.83	0.77
418.28	10000	423.38	0.52
418.28	14991	482.36	0.21
418.28	19997	514.01	0.17
418.28	25007	536.4	0.17
418.28	30000	554.01	0.17
418.28	35001	568.61	0.18
423.28	5018	101.5	0.73
423.28	9987	402.16	0.52
423.28	15000	470.72	0.22
423.28	19989	504.83	0.18
423.28	24993	528.6	0.17
423.28	29999	547.07	0.17
423.28	34987	562.23	0.18
428.28	5016	97	0.69
428.28	9992	379.3	0.53
428.28	15005	458.33	0.23
428.28	19992	495.56	0.18
428.28	24999	520.76	0.17
428.28	29999	540.1	0.18
428.28	35007	555.9	0.18
433.28	5013	93.12	0.64
433.29	9988	354.32	0.53
433.29	14989	445.7	0.25
433.29	20001	486.18	0.19
433.29	25001	512.86	0.18
433.29	29994	533.08	0.18
433.29	34994	549.54	0.18
438.29	5012	89.79	0.58
438.29	9994	328.67	0.52
438.29	14983	432.73	0.26
438.29	19989	476.53	0.19
438.29	24989	504.81	0.18
438.29	29998	526.05	0.18
438.29	34984	543.12	0.18
443.28	5015	86.95	0.53
443.29	9989	302.97	0.51
443.29	14992	419.57	0.28
443.29	19991	466.84	0.2
443.29	24983	496.7	0.18
443.29	29994	518.95	0.18
443.29	34983	536.69	0.19
448.29	5015	84.36	0.48
448.29	9994	279.7	0.48
448.29	15005	406.2	0.29
448.29	20009	457.16	0.2
448.29	24990	488.6	0.18
448.29	29997	511.82	0.18
448.29	34993	530.23	0.19
448.29	39997	545.66	0.2
453.29	5019	82.06	0.44
453.29	9992	258.86	0.45
453.29	14991	392.27	0.3
453.29	20007	447.34	0.21
453.29	24990	480.43	0.19
453.29	29992	504.67	0.18
453.29	34994	523.84	0.19
453.29	39989	539.76	0.2
458.29	5019	79.9	0.4
458.29	9989	241.02	0.42
458.29	14984	378.31	0.31
458.29	19995	436.8	0.21
458.29	25014	472.28	0.19
458.29	29998	497.54	0.19
458.29	34987	517.38	0.19
458.29	39998	533.83	0.2
463.29	5018	77.86	0.37
463.29	9991	225.94	0.4
463.29	15002	364.83	0.32
463.29	19996	426.86	0.22
463.29	25009	464.08	0.19
463.29	29990	490.33	0.19
463.29	34992	510.93	0.19
463.29	40009	527.91	0.2
468.29	5016	75.97	0.35
468.29	9983	212.83	0.38
468.29	19984	416.67	0.22
468.29	25012	455.83	0.2
468.29	29988	483.15	0.19
468.29	34990	504.51	0.2
468.29	39997	522.01	0.2
468.3	14995	351.07	0.32
473.29	5015	74.24	0.32
473.29	9991	202.05	0.36
473.29	20000	406.74	0.23
473.29	25010	447.57	0.2
473.29	29993	476.02	0.19
473.29	34983	498.05	0.2
473.29	39982	516.11	0.21
473.3	15001	337.83	0.32
478.29	5019	72.69	0.31
478.3	9989	192.49	0.34
478.3	14995	324.82	0.32
478.3	20005	396.77	0.23
478.3	25004	439.28	0.2
478.3	29997	468.88	0.2
478.3	34990	491.65	0.2
478.3	40007	510.2	0.21
483.29	5014	71.08	0.29
483.29	14993	312.38	0.31
483.29	19999	386.72	0.24
483.29	29996	461.73	0.2
483.29	34989	485.24	0.2
483.29	39989	504.33	0.21
483.3	9997	184.48	0.33
483.3	25010	431.13	0.21
488.29	5018	69.74	0.28
488.29	9996	177.16	0.31
488.29	25009	422.98	0.21
488.29	29989	454.58	0.2
488.29	34985	478.85	0.21
488.3	15003	300.8	0.31
488.3	20006	376.95	0.24
488.3	39998	498.48	0.22
493.29	5015	68.33	0.27
493.29	9990	170.57	0.3
493.29	19982	367	0.24
493.29	35002	472.46	0.21
493.29	40002	492.65	0.22
493.3	14991	289.51	0.3
493.3	24987	414.83	0.21
493.3	29989	447.48	0.21
498.29	5014	67.02	0.26
498.29	9990	164.73	0.29
498.29	29990	440.45	0.21
498.29	34987	466.18	0.21
498.3	14995	279.16	0.3
498.3	19987	357.56	0.24
498.3	24994	406.26	0.22
498.3	39988	486.84	0.22
503.29	5017	65.83	0.26
503.29	9984	159.37	0.29
503.29	19995	348.45	0.25
503.29	24986	398.39	0.22
503.29	29997	433.53	0.22
503.29	34985	459.88	0.22
503.29	39990	481.11	0.23
503.3	14998	269.5	0.29
508.29	5017	64.68	0.25
508.29	10000	154.87	0.28
508.29	14991	260.28	0.29
508.29	20003	339.57	0.25
508.29	24989	390.63	0.22
508.29	29992	426.58	0.22
508.29	34993	453.66	0.22
508.29	39984	475.38	0.23
513.29	5017	63.54	0.25
513.29	9999	150.52	0.27
513.29	14983	251.73	0.28
513.29	20009	330.95	0.25
513.29	25007	383.08	0.23
513.29	29991	419.74	0.22
513.29	34991	447.49	0.23
513.29	39992	469.7	0.24
518.29	5018	62.5	0.24
518.29	10005	146.6	0.27
518.29	14984	243.95	0.28
518.29	20002	322.53	0.25
518.29	24988	375.36	0.23
518.29	29992	413	0.23
518.29	34986	441.33	0.23
518.29	39985	464.06	0.24
523.29	5018	61.47	0.24
523.29	9992	142.61	0.26
523.29	14998	236.92	0.31
523.29	19987	314.25	0.31
523.29	24996	368.03	0.27
523.29	29997	406.36	0.25
523.29	34990	435.28	0.25
523.29	39984	458.46	0.25
