Measured thermophysical data. Interfacial tension measurements in water-methane system at temperatures from 278.15 K to 298.15 K and pressures up to 10 MPa
Source: Fluid Phase Equilib., 2016, 10.1016/j.fluid.2015.10.006
Compound 1: methane, CH4, InChI=1S/CH4/h1H4, purity 99.99%
Compound 2: water, H2O, InChI=1S/H2O/h1H2

System: methane + water; phases: Liquid, Gas
Property: Interfacial tension, N/m (Liquid); method: Pendant drop shape
Temperature, K	Pressure, kPa	Interfacial tension, N/m	uncertainty
298.2	440	0.07164	0.00232
298.2	460	0.07164	0.00302
298.1	1040	0.07081	0.00242
298.2	1040	0.07068	0.00254
298.2	2010	0.07014	0.0027
298.2	2020	0.06903	0.00204
298.1	2600	0.06885	0.0022
298.2	2620	0.06895	0.00262
298.1	3030	0.06787	0.00243
298.1	3040	0.06677	0.00284
298.1	5000	0.06502	0.00146
298.2	5030	0.06595	0.0024
298.2	5050	0.06471	0.00179
298.1	5220	0.06421	0.00259
298.1	5220	0.06395	0.00212
298.1	7000	0.06265	0.00266
298.2	7060	0.06249	0.00248
298.1	9010	0.06091	0.0019
298.2	9010	0.06049	0.0024
298.1	9990	0.05931	0.00242
298.2	10010	0.05891	0.00244
293.2	1000	0.07173	0.00258
293.2	1000	0.07182	0.0031
293.1	3030	0.06842	0.0027
293.1	3030	0.06814	0.00234
293.2	4960	0.06619	0.00197
293.1	5010	0.06518	0.0029
293.1	7040	0.06264	0.0025
293.1	7040	0.0629	0.00178
293.1	9010	0.06024	0.00252
293.1	9030	0.06059	0.00224
288.1	1000	0.07152	0.00244
288.2	1000	0.07131	0.00216
288.1	2990	0.06914	0.0028
288.2	3010	0.0678	0.0034
288.1	4980	0.06531	0.00238
288.2	5020	0.06789	0.00248
288.1	7010	0.06254	0.00212
288.2	7010	0.06364	0.00244
288.2	8990	0.06113	0.00214
288.1	9020	0.06112	0.00212
283.2	1000	0.07346	0.00264
283.1	1010	0.07186	0.00288
283.1	2990	0.06879	0.00264
283.1	3010	0.07067	0.00226
283.2	5010	0.06492	0.00382
283.2	5010	0.06677	0.00315
283.1	6980	0.06368	0.0024
283.1	7000	0.06386	0.00258
283.2	7260	0.06406	0.00248
283.1	7270	0.06391	0.00216
278.1	1000	0.07314	0.00394
278.1	1000	0.07326	0.00269
278.1	3000	0.0676	0.0028
278.2	3000	0.06916	0.00248
278.1	4290	0.06718	0.00173
278.2	4300	0.06668	0.00146

System: methane + water; phases: Liquid, Air at 1 atmosphere
Property: Surface tension liquid-gas, N/m (Liquid); method: Pendant drop shape
Temperature, K	Pressure, kPa	Surface tension liquid-gas, N/m	uncertainty
298.1	20	0.07153	0.00284
298.1	20	0.07154	0.00284
298.1	20	0.072	0.00294
298.2	20	0.07193	0.00255
298.2	20	0.07125	0.00235
293	10	0.07307	0.00245
293.2	10	0.07224	0.0022
293.3	10	0.07333	0.00278
288.2	10	0.07386	0.00261
288.2	10	0.07286	0.00255
283.1	10	0.07368	0.00216
283.2	10	0.07448	0.00253
278.1	20	0.0747	0.00322
278.2	20	0.07508	0.00287
