Measured thermophysical data. Isothermal vapour liquid equilibria in the binary and ternary systems composed of 2-propanol, diisopropyl ether and 4-methyl-2-pentanone
Source: Fluid Phase Equilib., 2005, 10.1016/j.fluid.2005.05.024
Compound 1: propan-2-ol, C3H8O, InChI=1S/C3H8O/c1-3(2)4/h3-4H,1-2H3
Compound 2: diisopropyl ether, C6H14O, InChI=1S/C6H14O/c1-5(2)7-6(3)4/h5-6H,1-4H3
Compound 3: 4-methylpentan-2-one, C6H12O, InChI=1S/C6H12O/c1-5(2)4-6(3)7/h5H,4H2,1-3H3

System: propan-2-ol; phases: Liquid
Property: Mass density, kg/m3 (Liquid); method: VIBTUB:UFactor:2
Temperature, K	Pressure, kPa	Mass density, kg/m3	uncertainty
298.15	101.325	780.91	0.31

System: propan-2-ol; phases: Liquid, Gas
Property: Vapor or sublimation pressure, kPa (Liquid); method: EBULLIO:UFactor:4
Temperature, K	Vapor or sublimation pressure, kPa	uncertainty
330	33.25	0.42
340	52.97	0.48

System: diisopropyl ether; phases: Liquid
Property: Mass density, kg/m3 (Liquid); method: VIBTUB:UFactor:3
Temperature, K	Pressure, kPa	Mass density, kg/m3	uncertainty
298.15	101.325	718.38	0.56

System: diisopropyl ether; phases: Liquid, Gas
Property: Vapor or sublimation pressure, kPa (Liquid); method: EBULLIO:UFactor:4
Temperature, K	Vapor or sublimation pressure, kPa	uncertainty
330	69.33	0.54
340	96.96	0.62

System: 4-methylpentan-2-one; phases: Liquid
Property: Mass density, kg/m3 (Liquid); method: VIBTUB:UFactor:3
Temperature, K	Pressure, kPa	Mass density, kg/m3	uncertainty
298.15	101.325	796.5	0.44

System: 4-methylpentan-2-one; phases: Liquid, Gas
Property: Vapor or sublimation pressure, kPa (Liquid); method: EBULLIO:UFactor:4
Temperature, K	Vapor or sublimation pressure, kPa	uncertainty
330	12.7	0.35
340	19.27	0.37

System: propan-2-ol + 4-methylpentan-2-one; phases: Liquid, Gas
Property: Vapor or sublimation pressure, kPa (Liquid); method: EBULLIO:UFactor:4
Mole fraction of propan-2-ol	Temperature, K	Vapor or sublimation pressure, kPa	uncertainty
0	330	12.7	0.35
0	340	19.27	0.37
0.0108	330	13.3	0.35
0.0136	340	20.31	0.37
0.0309	330	14.53	0.36
0.0378	340	22.16	0.38
0.073	330	16.36	0.36
0.077	340	24.86	0.39
0.1225	330	18.43	0.37
0.1301	340	28.04	0.4
0.1896	330	20.62	0.38
0.1931	340	31.36	0.41
0.266	330	22.74	0.38
0.2709	340	34.71	0.42
0.2748	330	22.86	0.38
0.2769	340	34.86	0.42
0.3479	340	37.72	0.43
0.349	330	24.57	0.39
0.3918	340	39.13	0.43
0.427	330	26.17	0.4
0.4297	340	40.28	0.44
0.5024	330	27.47	0.4
0.5042	340	42.41	0.45
0.5054	340	42.65	0.45
0.5058	330	27.62	0.4
0.5715	330	28.56	0.4
0.5742	340	44.3	0.45
0.6104	340	45.39	0.46
0.6137	330	29.26	0.41
0.6602	340	46.28	0.46
0.6609	330	29.74	0.41
0.7038	330	30.36	0.41
0.7041	340	47.38	0.46
0.782	330	31.31	0.41
0.7824	340	49.04	0.47
0.8471	340	50.29	0.47
0.8482	330	31.98	0.42
0.8989	340	51.25	0.47
0.9	330	32.46	0.42
0.939	340	51.88	0.48
0.9398	330	32.75	0.42
0.9691	340	52.36	0.48
0.9698	330	32.96	0.42
0.9895	340	52.66	0.48
0.9897	330	33.07	0.42
1	330	33.25	0.42
1	340	52.97	0.48

System: propan-2-ol + 4-methylpentan-2-one; phases: Gas, Liquid
Property: Mole fraction of propan-2-ol (Gas); method: CHROM:UFactor:4
Mole fraction of propan-2-ol	Temperature, K	Mole fraction of propan-2-ol	uncertainty
0	330	0	0.0001
0	340	0	0.0001
0.0108	330	0.0504	0.0099
0.0136	340	0.0624	0.0088
0.0309	330	0.1471	0.0089
0.0378	340	0.1587	0.009
0.073	330	0.2734	0.0114
0.077	340	0.2797	0.0116
0.1225	330	0.3829	0.0147
0.1301	340	0.3942	0.0151
0.1896	330	0.4864	0.0183
0.1931	340	0.4927	0.0185
0.266	330	0.5695	0.016
0.2709	340	0.5763	0.0158
0.2748	330	0.5736	0.0159
0.2769	340	0.5809	0.0157
0.3479	340	0.6413	0.0134
0.349	330	0.6329	0.0137
0.3918	340	0.6675	0.0124
0.427	330	0.6857	0.0118
0.4297	340	0.6912	0.0115
0.5024	330	0.7257	0.0102
0.5042	340	0.7353	0.0099
0.5054	340	0.7376	0.0098
0.5058	330	0.7266	0.0102
0.5715	330	0.7609	0.0089
0.5742	340	0.7705	0.0086
0.6104	340	0.7901	0.0079
0.6137	330	0.7797	0.0082
0.6602	340	0.8122	0.007
0.6609	330	0.8035	0.0074
0.7038	330	0.8239	0.0066
0.7041	340	0.8336	0.0063
0.782	330	0.8618	0.0052
0.7824	340	0.872	0.0049
0.8471	340	0.9048	0.0039
0.8482	330	0.8975	0.0042
0.8989	340	0.9341	0.0032
0.9	330	0.9283	0.0034
0.939	340	0.9583	0.0028
0.9398	330	0.9541	0.0029
0.9691	340	0.9782	0.0025
0.9698	330	0.9761	0.0026
0.9895	340	0.9924	0.0025
0.9897	330	0.9915	0.0026
1	330	1	0.0001
1	340	1	0.0001

System: 4-methylpentan-2-one + diisopropyl ether; phases: Liquid, Gas
Property: Vapor or sublimation pressure, kPa (Liquid); method: EBULLIO:UFactor:4
Mole fraction of diisopropyl ether	Temperature, K	Vapor or sublimation pressure, kPa	uncertainty
0	330	12.7	0.35
0	340	19.27	0.37
0.0214	330	14.45	0.39
0.0242	340	21.9	0.44
0.0401	330	15.96	0.4
0.0463	340	24.39	0.44
0.109	330	21.52	0.41
0.1209	340	32.29	0.46
0.1768	330	26.5	0.42
0.1872	340	38.85	0.47
0.3608	330	38.14	0.45
0.3722	340	54.6	0.51
0.4733	330	44.5	0.47
0.4818	340	63.03	0.53
0.5801	330	50.42	0.48
0.5816	340	70	0.55
0.6936	330	55.58	0.51
0.7935	330	59.92	0.51
0.805	340	84.04	0.59
0.8758	330	63.52	0.52
0.8836	340	88.96	0.61
0.9392	330	66.31	0.53
0.9424	340	92.73	0.62
0.9794	330	68.12	0.54
0.9804	340	95.19	0.63
1	330	69.33	0.54
1	340	96.96	0.62

System: 4-methylpentan-2-one + diisopropyl ether; phases: Gas, Liquid
Property: Mole fraction of diisopropyl ether (Gas); method: CHROM:UFactor:4
Mole fraction of diisopropyl ether	Temperature, K	Mole fraction of diisopropyl ether	uncertainty
0	330	0	0.0001
0	340	0	0.0001
0.0214	330	0.1411	0.0129
0.0242	340	0.1444	0.0118
0.0401	330	0.2347	0.0113
0.0463	340	0.2439	0.0112
0.109	330	0.462	0.018
0.1209	340	0.4679	0.0181
0.1768	330	0.5968	0.0152
0.1872	340	0.5855	0.0156
0.3608	330	0.7738	0.0086
0.3722	340	0.7641	0.0089
0.4733	330	0.8348	0.0062
0.4818	340	0.8263	0.0066
0.5801	330	0.878	0.0047
0.5816	340	0.871	0.0049
0.6936	330	0.9097	0.0044
0.7935	330	0.9413	0.0029
0.805	340	0.9368	0.003
0.8758	330	0.9638	0.0024
0.8836	340	0.9615	0.0025
0.9392	330	0.9813	0.0022
0.9424	340	0.9803	0.0022
0.9794	330	0.9933	0.0021
0.9804	340	0.9929	0.0021
1	330	1	0.0001
1	340	1	0.0001

System: propan-2-ol + 4-methylpentan-2-one + diisopropyl ether; phases: Gas, Liquid
Property: Mole fraction of propan-2-ol (Gas); method: CHROM:UFactor:4
Property: Mole fraction of diisopropyl ether (Liquid); method: CHROM:UFactor:4
Property: Mole fraction of propan-2-ol (Liquid); method: CHROM:UFactor:4
Temperature, K	Pressure, kPa	Mole fraction of diisopropyl ether	Mole fraction of propan-2-ol	uncertainty	Mole fraction of diisopropyl ether	uncertainty	Mole fraction of propan-2-ol	uncertainty
330	58.48	0.5561	0.4275	0.0159	0.2755	0.0085	0.6772	
330	55.9	0.5376	0.4309	0.016	0.2579	0.008	0.6506	
330	52.6	0.5063	0.4419	0.0164	0.2297	0.0071	0.6199	
330	48.71	0.4599	0.4599	0.0171	0.1958	0.0061	0.581	
330	44.26	0.3952	0.4848	0.018	0.1502	0.0047	0.5338	
330	39.37	0.3481	0.4902	0.0182	0.1235	0.004	0.4675	
330	34.45	0.2772	0.5	0.0186	0.0886	0.0032	0.3955	
330	30.08	0.2144	0.4927	0.0183	0.0608	0.0026	0.32	
330	26.33	0.1481	0.4568	0.017	0.0342	0.0022	0.2301	
330	22.76	0.1126	0.4041	0.015	0.0252	0.0021	0.1706	
330	19.71	0.0761	0.3361	0.0125	0.0146	0.002	0.1153	
330	16.46	0.0375	0.224	0.0083	0.0061	0.002	0.0605	
330	14.87	0.0195	0.1451	0.0054	0.0031	0.002	0.0354	
330	13.8	0.01	0.0854	0.0035	0.0014	0.0014	0.0187	
330	64.51	0.6467	0.3402	0.0127	0.4101	0.0127	0.5433	
330	61.99	0.6311	0.3428	0.0127	0.3989	0.0124	0.5122	
330	58.56	0.6077	0.3478	0.0129	0.3614	0.0112	0.4874	
330	54.42	0.5784	0.3534	0.0131	0.3186	0.0099	0.4544	
330	49.72	0.5324	0.3665	0.0136	0.2689	0.0083	0.4152	
330	44.23	0.4861	0.3739	0.0139	0.2136	0.0066	0.3654	
330	38.35	0.4206	0.3822	0.0142	0.16	0.005	0.308	
330	32.34	0.3446	0.3825	0.0142	0.1098	0.0037	0.2441	
330	26.44	0.2536	0.362	0.0135	0.0638	0.0027	0.1747	
330	22.69	0.1958	0.3219	0.012	0.0454	0.0024	0.1298	
330	69.38	0.7676	0.217	0.0081	0.7089	0.009	0.237	
330	66.6	0.7648	0.2073	0.0077	0.6613	0.0105	0.2285	
330	62.98	0.7513	0.2023	0.0075	0.6072	0.0122	0.2133	
330	58.56	0.7318	0.1984	0.0074	0.541	0.0142	0.1939	
330	53.31	0.7062	0.1922	0.0071	0.4452	0.0138	0.1712	
330	47.35	0.672	0.1866	0.0069	0.3753	0.0116	0.1481	
330	41.35	0.6262	0.1796	0.0067	0.2955	0.0092	0.1225	
330	35.2	0.5673	0.1704	0.0063	0.2203	0.0068	0.0964	
330	29.46	0.4936	0.1557	0.0058	0.1504	0.0047	0.072	
330	24.41	0.4065	0.1367	0.0051	0.1065	0.0036	0.0538	
330	72.25	0.8336	0.1608	0.006	0.8231	0.0055	0.1563	
330	70.11	0.8243	0.1595	0.0059	0.791	0.0065	0.1509	
330	67.26	0.8158	0.1533	0.0057	0.7426	0.008	0.1444	
330	63.58	0.8044	0.147	0.0055	0.6803	0.0099	0.1344	
330	59.1	0.7877	0.1405	0.0052	0.6084	0.0121	0.1215	
330	53.87	0.764	0.1328	0.0049	0.5149	0.015	0.1073	
330	47.67	0.7306	0.1253	0.0047	0.422	0.0131	0.0914	
330	40.91	0.6795	0.1177	0.0045	0.3213	0.01	0.0738	
330	33.48	0.6048	0.1088	0.0042	0.2225	0.0069	0.0556	
330	27.89	0.514	0.0973	0.0039	0.1563	0.0049	0.0418	
330	23.18	0.426	0.0843	0.0035	0.1049	0.0036	0.0301	
340	86.24	0.531	0.4533	0.0169	0.2975	0.0092	0.6567	
340	82.68	0.5108	0.4585	0.0171	0.2747	0.0085	0.6362	
340	77.97	0.4776	0.4706	0.0175	0.2401	0.0074	0.611	
340	72.38	0.4402	0.4817	0.0179	0.2049	0.0063	0.5733	
340	66.06	0.3905	0.4954	0.0184	0.1696	0.0053	0.5231	
340	59.19	0.3345	0.5067	0.0183	0.1297	0.0042	0.4642	
340	52.11	0.2703	0.5109	0.0182	0.0946	0.0033	0.3906	
340	45.97	0.2191	0.4979	0.0185	0.0683	0.0028	0.3175	
340	39.98	0.1626	0.467	0.0174	0.0457	0.0024	0.2454	
340	34.65	0.1187	0.4089	0.0152	0.0292	0.0022	0.1753	
340	30.04	0.0803	0.3371	0.0125	0.0175	0.0021	0.1198	
340	25.09	0.0392	0.2254	0.0084	0.0074	0.002	0.0648	
340	22.51	0.0214	0.1512	0.0056	0.0037	0.002	0.0378	
340	20.9	0.0104	0.0869	0.0036	0.0017	0.0017	0.0227	
340	93.69	0.6148	0.3718	0.0138	0.4204	0.013	0.5336	
340	90.2	0.6031	0.3706	0.0138	0.4153	0.0129	0.4989	
340	85.45	0.5816	0.3734	0.0139	0.3796	0.0118	0.4751	
340	79.61	0.553	0.3779	0.0141	0.336	0.0104	0.4452	
340	72.94	0.5132	0.3856	0.0143	0.2825	0.0088	0.4085	
340	65.19	0.4677	0.3917	0.0146	0.2215	0.0069	0.3615	
340	56.86	0.407	0.3953	0.0147	0.1666	0.0052	0.3054	
340	48.2	0.3354	0.3909	0.0145	0.1163	0.0039	0.2417	
340	39.65	0.2498	0.3658	0.0136	0.0715	0.0028	0.1779	
340	34.27	0.1973	0.3284	0.0122	0.0493	0.0024	0.1314	
340	98.94	0.7589	0.2261	0.0084	0.7064	0.0091	0.237	
340	94.97	0.7471	0.2234	0.0083	0.6713	0.0102	0.2233	
340	89.85	0.7352	0.2161	0.008	0.6181	0.0118	0.2085	
340	83.64	0.7161	0.2105	0.0078	0.5557	0.0138	0.1912	
340	76.26	0.6826	0.206	0.0077	0.4773	0.0148	0.1706	
340	68.03	0.6566	0.1965	0.0073	0.3888	0.012	0.1474	
340	59.64	0.6116	0.186	0.0069	0.3043	0.0094	0.1218	
340	51.23	0.5553	0.1753	0.0065	0.2293	0.0071	0.0959	
340	43.29	0.4827	0.1585	0.0059	0.1667	0.0052	0.074	
340	36.43	0.405	0.1394	0.0052	0.1137	0.0038	0.0536	
340	102.39	0.8216	0.1725	0.0064	0.8257	0.0054	0.1529	
340	99.57	0.814	0.1691	0.0063	0.7935	0.0064	0.1471	
340	95.21	0.8035	0.1639	0.0061	0.745	0.0079	0.1419	
340	90.2	0.7921	0.1562	0.0058	0.6919	0.0096	0.1334	
340	83.9	0.7751	0.1486	0.0055	0.6192	0.0118	0.1216	
340	76.63	0.751	0.1398	0.0052	0.5285	0.0146	0.1071	
340	68.14	0.7185	0.1315	0.0049	0.429	0.0133	0.0902	
340	58.99	0.6684	0.1217	0.0046	0.3323	0.0103	0.0732	
340	48.7	0.5947	0.1112	0.0043	0.2335	0.0072	0.0558	
340	41.15	0.5128	0.0992	0.0039	0.1662	0.0051	0.0422	
340	34.74	0.4264	0.0857	0.0035	0.1144	0.0038	0.031	
