Measured thermophysical data. Isobaric vapor-liquid equilibrium of trifluoroacetic acid + water, trifluoroacetic acid + ethyl trifluoroacetate and ethyl trifluoroacetate + ethanol binary mixtures
Source: Fluid Phase Equilib., 2016, 10.1016/j.fluid.2015.08.012
Compound 1: ethyl trifluoroacetate, C4H5F3O2, InChI=1S/C4H5F3O2/c1-2-9-3(8)4(5,6)7/h2H2,1H3, purity 99%
Compound 2: ethanol, C2H6O, InChI=1S/C2H6O/c1-2-3/h3H,2H2,1H3, purity 99.7%
Compound 3: trifluoroethanoic acid, C2HF3O2, InChI=1S/C2HF3O2/c3-2(4,5)1(6)7/h(H,6,7), purity 99.5%
Compound 4: water, H2O, InChI=1S/H2O/h1H2, purity 99.8%

System: ethyl trifluoroacetate; phases: Liquid, Gas
Property: Boiling temperature at pressure P, K (Liquid); method: Closed cell (Static) method
Pressure, kPa	Boiling temperature at pressure P, K	uncertainty
101.3	335.65	0.2

System: ethyl trifluoroacetate; phases: Liquid
Property: Mass density, kg/m3 (Liquid); method: Vibrating tube method
Temperature, K	Pressure, kPa	Mass density, kg/m3	uncertainty
293.15	101.325	1189.7	0.4

System: ethyl trifluoroacetate; phases: Liquid
Property: Refractive index (Na D-line) (Liquid); method: Standard Abbe refractometry
Temperature, K	Pressure, kPa	Refractive index (Na D-line)	uncertainty
293.15	101.325	1.3086	0.0008

System: ethanol; phases: Liquid, Gas
Property: Boiling temperature at pressure P, K (Liquid); method: Closed cell (Static) method
Pressure, kPa	Boiling temperature at pressure P, K	uncertainty
101.3	351.55	0.2

System: ethanol; phases: Liquid
Property: Mass density, kg/m3 (Liquid); method: Vibrating tube method
Temperature, K	Pressure, kPa	Mass density, kg/m3	uncertainty
293.15	101.325	789.1	0.2

System: ethanol; phases: Liquid
Property: Refractive index (Na D-line) (Liquid); method: Standard Abbe refractometry
Temperature, K	Pressure, kPa	Refractive index (Na D-line)	uncertainty
293.15	101.325	1.3634	0.0007

System: trifluoroethanoic acid; phases: Liquid, Gas
Property: Boiling temperature at pressure P, K (Liquid); method: Closed cell (Static) method
Pressure, kPa	Boiling temperature at pressure P, K	uncertainty
101.3	344.91	0.2

System: trifluoroethanoic acid; phases: Liquid
Property: Mass density, kg/m3 (Liquid); method: Vibrating tube method
Temperature, K	Pressure, kPa	Mass density, kg/m3	uncertainty
293.15	101.325	1489.1	0.4

System: trifluoroethanoic acid; phases: Liquid
Property: Refractive index (Na D-line) (Liquid); method: Standard Abbe refractometry
Temperature, K	Pressure, kPa	Refractive index (Na D-line)	uncertainty
293.15	101.325	1.2852	0.0007

System: water; phases: Liquid, Gas
Property: Boiling temperature at pressure P, K (Liquid); method: Closed cell (Static) method
Pressure, kPa	Boiling temperature at pressure P, K	uncertainty
101.3	373.15	0.2

System: water; phases: Liquid
Property: Mass density, kg/m3 (Liquid); method: Vibrating tube method
Temperature, K	Pressure, kPa	Mass density, kg/m3	uncertainty
293.15	101.325	998.1	0.2

System: water; phases: Liquid
Property: Refractive index (Na D-line) (Liquid); method: Standard Abbe refractometry
Temperature, K	Pressure, kPa	Refractive index (Na D-line)	uncertainty
293.15	101.325	1.3332	0.0007

System: trifluoroethanoic acid + water; phases: Liquid, Gas
Fixed: Pressure, kPa = 101.3
Property: Boiling temperature at pressure P, K (Liquid); method: Ebulliometric method (Recirculating still)
Mole fraction of trifluoroethanoic acid	Boiling temperature at pressure P, K	uncertainty
1	344.91	0.22
0.984	345.35	0.23
0.9465	347.15	0.24
0.9259	348.44	0.24
0.8991	349.66	0.23
0.8703	350.95	0.27
0.833	355.15	0.27
0.7883	357.75	0.25
0.7763	359	0.26
0.744	361.2	0.26
0.7265	362.43	0.28
0.7188	363.53	0.27
0.7003	364.62	0.27
0.6804	366.63	0.28
0.6554	368.55	0.26
0.6309	370.12	0.26
0.6143	371.52	0.26
0.5933	372.99	0.25
0.5745	374.15	0.25
0.5419	376.23	0.25
0.5194	377.85	0.23
0.4891	378.55	0.22
0.4619	378.85	0.22
0.4159	378.97	0.22
0.3091	377.83	0.22
0.2487	376.65	0.22
0.2009	375.63	0.22
0.1568	374.77	0.22
0.0688	373.83	0.22
0.0199	373.43	0.22
0.0038	373.17	0.22

System: trifluoroethanoic acid + water; phases: Gas, Liquid
Fixed: Pressure, kPa = 101.3
Property: Mole fraction of trifluoroethanoic acid (Gas); method: Chromatography
Mole fraction of trifluoroethanoic acid	Mole fraction of trifluoroethanoic acid	uncertainty
1	1	
0.984	0.9962	0.002
0.9465	0.9909	0.002
0.9259	0.9872	0.002
0.8991	0.9839	0.002
0.8703	0.9794	0.002
0.833	0.99	0.002
0.7883	0.9828	0.0021
0.7763	0.9742	0.0022
0.744	0.9636	0.0022
0.7265	0.955	0.0024
0.7188	0.9471	0.0023
0.7003	0.94	0.0023
0.6804	0.9302	0.0027
0.6554	0.9016	0.0035
0.6309	0.8646	0.0039
0.6143	0.8384	0.004
0.5933	0.8063	0.0037
0.5745	0.7888	0.0054
0.5419	0.6926	0.007
0.5194	0.623	0.0061
0.4891	0.5694	0.0055
0.4619	0.5264	0.0058
0.4159	0.4451	0.0059
0.3091	0.2212	0.0045
0.2487	0.1499	0.0031
0.2009	0.1124	0.0027
0.1568	0.0817	0.0024
0.0688	0.0432	0.0023
0.0199	0.0138	0.0024
0.0038	0.0018	0.0018

System: ethanol + ethyl trifluoroacetate; phases: Liquid, Gas
Fixed: Pressure, kPa = 101.3
Property: Boiling temperature at pressure P, K (Liquid); method: Ebulliometric method (Recirculating still)
Mole fraction of ethyl trifluoroacetate	Boiling temperature at pressure P, K	uncertainty
1	335.67	0.22
0.9916	334.77	0.25
0.9685	333.77	0.24
0.9398	332.46	0.22
0.8888	331.47	0.22
0.8586	331.08	0.22
0.8178	330.78	0.22
0.7228	330.56	0.22
0.6423	330.65	0.22
0.4711	331.49	0.22
0.4081	331.93	0.22
0.3424	332.46	0.22
0.3028	332.97	0.22
0.2537	333.74	0.22
0.2222	334.34	0.22
0.1815	335.55	0.22
0.1561	336.35	0.22
0.142	336.72	0.24
0.124	338.15	0.24
0.0964	339.27	0.24
0.0874	340.13	0.27
0.0716	341.35	0.28
0.0632	342.36	0.27
0.0414	343.85	0.3
0.0406	344.74	0.31
0.0323	345.93	0.36
0.0264	346.75	0.37
0.021	347.6	0.46
0.018	348.53	0.37
0.0091	349.5	0.35
0.0045	350.5	0.5
0	351.55	0.21

System: ethanol + ethyl trifluoroacetate; phases: Gas, Liquid
Fixed: Pressure, kPa = 101.3
Property: Mole fraction of ethyl trifluoroacetate (Gas); method: Chromatography
Mole fraction of ethyl trifluoroacetate	Mole fraction of ethyl trifluoroacetate	uncertainty
1	1	
0.9916	0.9935	0.0036
0.9685	0.954	0.004
0.9398	0.9064	0.0035
0.8888	0.8521	0.0033
0.8586	0.8395	0.0033
0.8178	0.7984	0.0034
0.7228	0.7711	0.0035
0.6423	0.746	0.0037
0.4711	0.7103	0.004
0.4081	0.693	0.0041
0.3424	0.6703	0.0042
0.3028	0.6631	0.0043
0.2537	0.6305	0.0046
0.2222	0.6179	0.0048
0.1815	0.5745	0.0052
0.1561	0.5482	0.0055
0.142	0.5271	0.0062
0.124	0.493	0.0062
0.0964	0.4501	0.0059
0.0874	0.4222	0.0066
0.0716	0.3871	0.0068
0.0632	0.3536	0.0063
0.0414	0.308	0.0078
0.0406	0.2741	0.0081
0.0323	0.2359	0.0091
0.0264	0.213	0.0108
0.021	0.1764	0.0196
0.018	0.1281	0.0128
0.0091	0.093	0.0113
0.0045	0.05	0.0205
0	0	

System: trifluoroethanoic acid + ethyl trifluoroacetate; phases: Liquid, Gas
Fixed: Pressure, kPa = 101.3
Property: Boiling temperature at pressure P, K (Liquid); method: Ebulliometric method (Recirculating still)
Mole fraction of ethyl trifluoroacetate	Boiling temperature at pressure P, K	uncertainty
1	335.65	0.22
0.874	337.83	0.22
0.8573	338.27	0.22
0.8453	338.52	0.22
0.8042	339.13	0.22
0.7502	340.52	0.22
0.784	339.63	0.22
0.7055	341.46	0.22
0.6872	341.97	0.23
0.6764	342.47	0.24
0.63	343.03	0.22
0.6153	343.43	0.23
0.5494	344.65	0.22
0.5932	344.13	0.22
0.518	345.18	0.22
0.4802	345.95	0.22
0.4678	346.28	0.22
0.4505	346.63	0.22
0.4293	346.95	0.22
0.3892	347.55	0.22
0.3615	347.77	0.22
0.3344	348.1	0.22
0.299	348.35	0.22
0.2633	348.56	0.22
0.2324	348.65	0.22
0.1991	348.62	0.22
0.1552	348.28	0.22
0.1228	347.88	0.22
0.1069	347.57	0.22
0.0904	347.23	0.22
0.074	346.87	0.22
0.0612	346.67	0.22
0.0502	346.46	0.22
0.0402	346.23	0.22
0.0321	346.03	0.22
0.018	345.6	0.23
0	344.95	0.22
0.409	347.25	0.22

System: trifluoroethanoic acid + ethyl trifluoroacetate; phases: Gas, Liquid
Fixed: Pressure, kPa = 101.3
Property: Mole fraction of ethyl trifluoroacetate (Gas); method: Chromatography
Mole fraction of ethyl trifluoroacetate	Mole fraction of ethyl trifluoroacetate	uncertainty
0.874	0.977	0.002
0.8573	0.969	0.002
0.8453	0.959	0.002
0.8042	0.947	0.002
0.7502	0.899	0.003
0.784	0.927	0.003
0.7055	0.869	0.003
0.6872	0.855	0.004
0.6764	0.827	0.006
0.63	0.802	0.004
0.6153	0.784	0.004
0.5494	0.706	0.005
0.5932	0.754	0.004
0.518	0.66	0.005
0.4802	0.602	0.006
0.4678	0.58	0.006
0.4505	0.565	0.006
0.4293	0.529	0.006
0.409	0.5	0.007
0.3892	0.458	0.006
0.3615	0.435	0.006
0.3344	0.375	0.005
0.299	0.329	0.004
0.2633	0.289	0.004
0.2324	0.239	0.004
0.1991	0.197	0.004
0.1552	0.134	0.003
0.1228	0.101	0.003
0.1069	0.084	0.003
0.0904	0.065	0.003
0.074	0.047	0.003
0.0612	0.039	0.002
0.0502	0.032	0.002
0.0402	0.025	0.003
0.0321	0.019	0.002
0.018	0.01	0.002
