Measured thermophysical data. Solubility and solution thermodynamics of myo-inositol in (water + acetic acid) binary solvent mixtures
Source: Fluid Phase Equilib., 2014, 10.1016/j.fluid.2013.11.045
Compound 1: cis-1,2,3,5-trans-4,6-cyclohexanehexol, C6H12O6, InChI=1S/C6H12O6/c7-1-2(8)4(10)6(12)5(11)3(1)9/h1-12H/t1-,2-,3-,4+,5-,6-, purity 99%
Compound 2: acetic acid, C2H4O2, InChI=1S/C2H4O2/c1-2(3)4/h1H3,(H,3,4), purity 99.5%
Compound 3: water, H2O, InChI=1S/H2O/h1H2
Compound 4: sodium chloride, ClNa, InChI=1S/ClH.Na/h1H;/q;+1/p-1, purity 98%

System: acetic acid + cis-1,2,3,5-trans-4,6-cyclohexanehexol + water; phases: Liquid, Crystal
Fixed: Pressure, kPa = 101
Property: Mole fraction of cis-1,2,3,5-trans-4,6-cyclohexanehexol (Liquid); method: Gravimetric
Temperature, K	Solvent: Mole fraction of acetic acid	Mole fraction of cis-1,2,3,5-trans-4,6-cyclohexanehexol	uncertainty
278.15	0	0.007867	4.9e-05
278.15	0.053	0.006007	4.5e-05
278.15	0.119	0.003738	4.1e-05
278.15	0.205	0.002002	4e-05
278.15	0.321	0.001019	4e-05
278.15	0.486	0.000485	4e-05
278.15	0.739	0.000205	4e-05
278.15	1	0.000125	4e-05
283.15	0	0.009048	5.2e-05
283.15	0.053	0.006848	4.6e-05
283.15	0.119	0.004114	4.2e-05
283.15	0.205	0.002273	4.1e-05
283.15	0.321	0.001179	4e-05
283.15	0.486	0.000589	4e-05
283.15	0.739	0.000261	4e-05
283.15	1	0.000154	4e-05
288.15	0	0.01054	5.6e-05
288.15	0.053	0.007858	4.8e-05
288.15	0.119	0.004825	4.3e-05
288.15	0.205	0.002613	4.1e-05
288.15	0.321	0.001366	4e-05
288.15	0.486	0.000703	4e-05
288.15	0.739	0.000315	4e-05
288.15	1	0.00019	4e-05
293.15	0	0.012303	6.2e-05
293.15	0.053	0.00902	5e-05
293.15	0.119	0.005396	4.3e-05
293.15	0.205	0.003013	4.1e-05
293.15	0.321	0.001572	4e-05
293.15	0.486	0.000821	4e-05
293.15	0.739	0.00037	4e-05
293.15	1	0.000231	4e-05
298.15	0	0.014486	6.8e-05
298.15	0.053	0.010211	5.2e-05
298.15	0.119	0.006056	4.4e-05
298.15	0.205	0.003454	4.2e-05
298.15	0.321	0.00184	4.1e-05
298.15	0.486	0.000961	4e-05
298.15	0.739	0.000457	4e-05
298.15	1	0.000285	4e-05
303.15	0	0.016929	7.4e-05
303.15	0.053	0.011612	5.5e-05
303.15	0.119	0.006857	4.6e-05
303.15	0.205	0.003924	4.2e-05
303.15	0.321	0.002092	4.1e-05
303.15	0.486	0.001111	4e-05
303.15	0.739	0.00055	4e-05
303.15	1	0.000345	4e-05
308.15	0	0.019601	7.6e-05
308.15	0.053	0.013123	5.9e-05
308.15	0.119	0.007758	4.8e-05
308.15	0.205	0.004414	4.3e-05
308.15	0.321	0.002422	4.1e-05
308.15	0.486	0.001304	4e-05
308.15	0.739	0.000648	4e-05
308.15	1	0.000397	4e-05
313.15	0	0.021943	8.2e-05
313.15	0.053	0.014855	6.3e-05
313.15	0.119	0.008979	5.1e-05
313.15	0.205	0.005255	4.4e-05
313.15	0.321	0.002853	4.1e-05
313.15	0.486	0.001501	4e-05
313.15	0.739	0.000757	4e-05
313.15	1	0.000478	4e-05
318.15	0	0.025106	9.4e-05
318.15	0.053	0.016747	6.9e-05
318.15	0.119	0.01033	5.4e-05
318.15	0.205	0.005936	4.6e-05
318.15	0.321	0.003233	4.2e-05
318.15	0.486	0.001734	4e-05
318.15	0.739	0.00088	4e-05
318.15	1	0.000549	4e-05
323.15	0	0.028559	0.000104
323.15	0.053	0.019139	7.6e-05
323.15	0.119	0.011802	5.8e-05
323.15	0.205	0.007037	4.8e-05
323.15	0.321	0.003724	4.2e-05
323.15	0.486	0.001942	4e-05
323.15	0.739	0.001051	4e-05
323.15	1	0.000626	4e-05
328.15	0	0.032563	0.000114
328.15	0.053	0.021812	8.6e-05
328.15	0.119	0.013753	6.7e-05
328.15	0.205	0.008088	4.8e-05
328.15	0.321	0.004234	4.3e-05
328.15	0.486	0.002202	4.1e-05
328.15	0.739	0.001181	4e-05
328.15	1	0.000751	4e-05
333.15	0	0.036656	0.00012
333.15	0.053	0.025215	0.00012
333.15	0.119	0.016246	9.3e-05
333.15	0.205	0.00913	6.8e-05
333.15	0.321	0.005016	5.4e-05
333.15	0.486	0.002553	4.5e-05
333.15	0.739	0.001341	4.1e-05
333.15	1	0.000834	4e-05

System: sodium chloride + water; phases: Liquid, Crystal
Fixed: Pressure, kPa = 101
Property: Mole fraction of sodium chloride (Liquid); method: Gravimetric
Temperature, K	Mole fraction of sodium chloride	uncertainty
293.15	0.0998	0.0003
303.15	0.1004	0.0003
313.15	0.1012	0.0003
323.15	0.1023	0.0003

System: cis-1,2,3,5-trans-4,6-cyclohexanehexol + water; phases: Liquid, Crystal
Fixed: Pressure, kPa = 101
Property: Mole fraction of cis-1,2,3,5-trans-4,6-cyclohexanehexol (Liquid); method: Gravimetric
Temperature, K	Mole fraction of cis-1,2,3,5-trans-4,6-cyclohexanehexol	uncertainty
278.15	0.007867	4.9e-05
283.15	0.009048	5.2e-05
288.15	0.01054	5.6e-05
293.15	0.012303	6.2e-05
298.15	0.014486	6.8e-05
303.15	0.016929	7.4e-05
308.15	0.019601	7.6e-05
313.15	0.021943	8.2e-05
318.15	0.025106	9.4e-05
323.15	0.028559	0.000104
328.15	0.032563	0.000114
333.15	0.036656	0.00012

System: acetic acid + cis-1,2,3,5-trans-4,6-cyclohexanehexol; phases: Liquid, Crystal
Fixed: Pressure, kPa = 101
Property: Mole fraction of cis-1,2,3,5-trans-4,6-cyclohexanehexol (Liquid); method: Gravimetric
Temperature, K	Mole fraction of cis-1,2,3,5-trans-4,6-cyclohexanehexol	uncertainty
278.15	0.000125	4e-05
283.15	0.000154	4e-05
288.15	0.00019	4e-05
293.15	0.000231	4e-05
298.15	0.000285	4e-05
303.15	0.000345	4e-05
308.15	0.000397	4e-05
313.15	0.000478	4e-05
318.15	0.000549	4e-05
323.15	0.000626	4e-05
328.15	0.000751	4e-05
333.15	0.000834	4e-05
