Measured thermophysical data. Ammonium ionic liquids in separation of water/butan-1-ol using liquid-liquid equilibrium diagrams in ternary systems
Source: Fluid Phase Equilib., 2019, 10.1016/j.fluid.2018.12.009
Compound 1: butan-1-ol, C4H10O, InChI=1S/C4H10O/c1-2-3-4-5/h5H,2-4H2,1H3, purity 99.8%
Compound 2: water, H2O, InChI=1S/H2O/h1H2, purity 99.8%
Compound 3: dimethyldodecylphenoxyethylammonium bis(trifluoromethylsulfonyl)imide, C24H40F6N2O5S2, InChI=1S/C22H40NO.C2F6NO4S2/c1-4-5-6-7-8-9-10-11-12-16-19-23(2,3)20-21-24-22-17-14-13-15-18-22;3-1(4,5)14(10,11)9-15(12,13)2(6,7)8/h13-15,17-18H,4-12,16,19-21H2,1-3H3;/q+1;-1
Compound 4: dimethyldodecylphenoxyethylammonium dicyanamide, C24H40N4O, InChI=1S/C22H40NO.C2N3/c1-4-5-6-7-8-9-10-11-12-16-19-23(2,3)20-21-24-22-17-14-13-15-18-22;3-1-5-2-4/h13-15,17-18H,4-12,16,19-21H2,1-3H3;/q+1;-1
Compound 5: benzyldimethyldodecylammonium bis(trifluoromethylsulfonyl)imide, C23H38F6N2O4S2, InChI=1S/C21H38N.C2F6NO4S2/c1-4-5-6-7-8-9-10-11-12-16-19-22(2,3)20-21-17-14-13-15-18-21;3-1(4,5)14(10,11)9-15(12,13)2(6,7)8/h13-15,17-18H,4-12,16,19-20H2,1-3H3;/q+1;-1
Compound 6: benzyldimethyldodecylammonium dicyanamide, C23H38N4, InChI=1S/C21H38N.C2N3/c1-4-5-6-7-8-9-10-11-12-16-19-22(2,3)20-21-17-14-13-15-18-21;3-1-5-2-4/h13-15,17-18H,4-12,16,19-20H2,1-3H3;/q+1;-1

System: dimethyldodecylphenoxyethylammonium bis(trifluoromethylsulfonyl)imide + butan-1-ol + water; phases: Liquid mixture 2, Liquid mixture 1
Fixed: Temperature, K = 328.15
Fixed: Pressure, kPa = 101
Property: Mole fraction of butan-1-ol (Liquid mixture 2); method: Gas chromatography
Property: Mole fraction of dimethyldodecylphenoxyethylammonium bis(trifluoromethylsulfonyl)imide (Liquid mixture 1); method: Gas chromatography
Property: Mole fraction of butan-1-ol (Liquid mixture 1); method: Gas chromatography
Mole fraction of dimethyldodecylphenoxyethylammonium bis(trifluoromethylsulfonyl)imide	Mole fraction of butan-1-ol	uncertainty	Mole fraction of dimethyldodecylphenoxyethylammonium bis(trifluoromethylsulfonyl)imide	uncertainty	Mole fraction of butan-1-ol	uncertainty
0.556	0		0		0	
0.545	0.017	0.004	0		0.001	
0.535	0.031	0.004	0		0.001	
0.522	0.05	0.004	0		0.002	
0.507	0.068	0.003	0.003	0.003	0.002	
0.491	0.087	0.004	0.001	0.001	0.003	
0.471	0.113	0.004	0		0.004	
0.442	0.147	0.004	0		0.005	
0.413	0.18	0.005	0		0.006	
0.394	0.202	0.005	0.001	0.001	0.007	
0.381	0.217	0.006	0		0.007	
0.363	0.236	0.006	0		0.008	
0.348	0.249	0.006	0		0.008	
0.335	0.262	0.006	0		0.009	
0.315	0.281	0.007	0.001	0.001	0.009	
0.299	0.296	0.007	0		0.01	
0.277	0.315	0.008	0.001	0.001	0.011	
0.26	0.329	0.008	0		0.011	
0.237	0.349	0.008	0		0.012	
0.223	0.36	0.009	0.001	0.001	0.012	
0.199	0.379	0.009	0.001	0.001	0.013	
0.174	0.399	0.009	0.001	0.001	0.014	
0.155	0.413	0.01	0		0.015	
0.132	0.43	0.01	0.001	0.001	0.015	
0.113	0.442	0.01	0		0.015	
0.091	0.456	0.011	0.001	0.001	0.016	
0.065	0.464	0.011	0.001	0.001	0.016	
0.051	0.467	0.011	0		0.017	
0.039	0.464	0.011	0		0.017	
0.028	0.457	0.011	0		0.018	
0.013	0.446	0.011	0		0.018	
0.005	0.434	0.011	0.001	0.001	0.018	
0	0.418	0.01	0		0.018	

System: dimethyldodecylphenoxyethylammonium dicyanamide + butan-1-ol + water; phases: Liquid mixture 2, Liquid mixture 1
Fixed: Temperature, K = 328.15
Fixed: Pressure, kPa = 101
Property: Mole fraction of dimethyldodecylphenoxyethylammonium dicyanamide (Liquid mixture 2); method: OTHER
Property: Mole fraction of dimethyldodecylphenoxyethylammonium dicyanamide (Liquid mixture 1); method: OTHER
Property: Mole fraction of butan-1-ol (Liquid mixture 1); method: OTHER
Mole fraction of butan-1-ol	Mole fraction of dimethyldodecylphenoxyethylammonium dicyanamide	uncertainty	Mole fraction of dimethyldodecylphenoxyethylammonium dicyanamide	uncertainty	Mole fraction of butan-1-ol	uncertainty
0.001	0.122	0.003	0		0	
0.019	0.123	0.003	0		0.002	
0.035	0.122	0.003	0		0.003	
0.046	0.123	0.003	0		0.004	
0.068	0.116	0.003	0		0.005	
0.091	0.111	0.003	0		0.006	
0.111	0.107	0.003	0		0.007	
0.138	0.099	0.003	0		0.008	
0.174	0.089	0.003	0		0.009	
0.198	0.081	0.003	0		0.01	
0.219	0.075	0.003	0		0.011	
0.234	0.07	0.003	0		0.012	
0.268	0.059	0.003	0		0.013	
0.301	0.045	0.002	0		0.014	
0.324	0.035	0.002	0		0.015	
0.339	0.028	0.002	0		0.016	
0.359	0.019	0.002	0		0.016	
0.389	0.006	0.002	0		0.017	
0.418	0		0		0.018	

System: benzyldimethyldodecylammonium bis(trifluoromethylsulfonyl)imide + butan-1-ol + water; phases: Liquid mixture 2, Liquid mixture 1
Fixed: Temperature, K = 328.15
Fixed: Pressure, kPa = 101
Property: Mole fraction of butan-1-ol (Liquid mixture 2); method: OTHER
Property: Mole fraction of benzyldimethyldodecylammonium bis(trifluoromethylsulfonyl)imide (Liquid mixture 1); method: OTHER
Property: Mole fraction of butan-1-ol (Liquid mixture 1); method: OTHER
Mole fraction of benzyldimethyldodecylammonium bis(trifluoromethylsulfonyl)imide	Mole fraction of butan-1-ol	uncertainty	Mole fraction of benzyldimethyldodecylammonium bis(trifluoromethylsulfonyl)imide	uncertainty	Mole fraction of butan-1-ol	uncertainty
0.591	0		0		0	
0.56	0.035	0.003	0.001	0.001	0.001	
0.541	0.056	0.003	0.001	0.001	0.002	
0.515	0.083	0.003	0		0.003	
0.499	0.1	0.004	0		0.003	
0.483	0.118	0.004	0.001	0.001	0.004	
0.462	0.139	0.004	0		0.004	
0.413	0.186	0.005	0.001	0.001	0.006	
0.377	0.221	0.006	0		0.007	
0.339	0.258	0.006	0.001	0.001	0.008	
0.308	0.289	0.007	0		0.008	
0.28	0.319	0.008	0.001	0.001	0.01	
0.254	0.344	0.008	0		0.01	
0.239	0.358	0.009	0		0.011	
0.221	0.376	0.009	0		0.012	
0.199	0.397	0.009	0		0.012	
0.176	0.418	0.01	0		0.013	
0.151	0.442	0.01	0.001	0.001	0.014	
0.13	0.459	0.011	0		0.014	
0.105	0.477	0.011	0.001	0.001	0.015	
0.086	0.486	0.011	0		0.015	
0.069	0.49	0.011	0.001	0.001	0.015	
0.055	0.49	0.011	0		0.016	
0.047	0.486	0.011	0		0.016	
0.033	0.479	0.011	0.001	0.001	0.016	
0.023	0.471	0.011	0		0.017	
0.013	0.459	0.011	0		0.017	
0.009	0.45	0.012	0.001	0.001	0.018	
0.004	0.434	0.012	0		0.018	
0	0.418	0.01	0		0.018	

System: benzyldimethyldodecylammonium dicyanamide + butan-1-ol + water; phases: Liquid mixture 2, Liquid mixture 1
Fixed: Temperature, K = 328.15
Fixed: Pressure, kPa = 101
Property: Mole fraction of benzyldimethyldodecylammonium dicyanamide (Liquid mixture 2); method: OTHER
Property: Mole fraction of benzyldimethyldodecylammonium dicyanamide (Liquid mixture 1); method: OTHER
Property: Mole fraction of butan-1-ol (Liquid mixture 1); method: OTHER
Mole fraction of butan-1-ol	Mole fraction of benzyldimethyldodecylammonium dicyanamide	uncertainty	Mole fraction of benzyldimethyldodecylammonium dicyanamide	uncertainty	Mole fraction of butan-1-ol	uncertainty
0	0.129	0.003	0		0	
0.025	0.123	0.003	0		0.001	
0.047	0.117	0.003	0		0.002	
0.071	0.111	0.003	0		0.003	
0.107	0.101	0.003	0		0.004	
0.145	0.094	0.003	0		0.005	
0.178	0.085	0.003	0		0.006	
0.209	0.077	0.003	0		0.007	
0.237	0.069	0.003	0		0.008	
0.268	0.059	0.003	0		0.009	
0.299	0.048	0.002	0		0.011	
0.322	0.04	0.002	0		0.012	
0.352	0.029	0.002	0		0.013	
0.374	0.019	0.002	0		0.014	
0.39	0.013	0.002	0		0.015	
0.408	0.004	0.002	0		0.016	
0.418	0		0		0.018	
