Measured thermophysical data. Non-random two-liquid modelling of switchable-hydrophilicity solvent systems: N,N-Dimethylcyclohexanamine, water, and toluene
Source: Fluid Phase Equilib., 2016, 10.1016/j.fluid.2015.09.032
Compound 1: N,N-dimethylcyclohexylamine, C8H17N, InChI=1S/C8H17N/c1-9(2)8-6-4-3-5-7-8/h8H,3-7H2,1-2H3, purity 99%
Compound 2: toluene, C7H8, InChI=1S/C7H8/c1-7-5-3-2-4-6-7/h2-6H,1H3, purity 99.5%
Compound 3: water, H2O, InChI=1S/H2O/h1H2, purity 99.9%

System: N,N-dimethylcyclohexylamine + toluene + water; phases: Liquid mixture 1, Liquid mixture 2
Fixed: Temperature, K = 303.15
Fixed: Pressure, kPa = 101
Property: Mass fraction of toluene (Liquid mixture 1); method: Chromatography
Property: Mass fraction of water (Liquid mixture 1); method: Chromatography
Property: Mass fraction of N,N-dimethylcyclohexylamine (Liquid mixture 2); method: Chromatography
Property: Mass fraction of toluene (Liquid mixture 2); method: Chromatography
Property: Mass fraction of water (Liquid mixture 2); method: Chromatography
Mass fraction of N,N-dimethylcyclohexylamine	Mass fraction of toluene	uncertainty	Mass fraction of water	uncertainty	Mass fraction of N,N-dimethylcyclohexylamine	uncertainty	Mass fraction of toluene	uncertainty	Mass fraction of water	uncertainty
0.012	0		0.988	0.004	0.82	0.004	0		0.18	0.004
0.0081	0.0001	0.0001	0.9918	0.004	0.7765	0.0047	0.13		0.0935	0.0045
0.0078	0.0001	0.0001	0.9921	0.004	0.6896	0.0055	0.2633		0.0471	0.0041
0.0059	0.0002	0.0002	0.9939	0.004	0.5679	0.0062	0.4068		0.0253	0.004
0.0036	0.0002	0.0002	0.9962	0.0038	0.4328	0.0063	0.5522		0.0148	0.004
0.0028	0.0002	0.0002	0.997	0.003	0.2872	0.0059	0.7045		0.0083	0.004
0.0017	0.0003	0.0003	0.998	0.002	0.1429	0.0057	0.851		0.0061	0.004
0	0.0003	0.0003	0.9997	0.0003	0		0.995		0.005	0.004
