Measured thermophysical data. Evaluation of Cd(II) transport with imidazolium bromides bearing butyl and isobutyl groups as extractants from acidic iodide solutions by liquid-liquid solvent extraction
Source: Fluid Phase Equilib., 2015, 10.1016/j.fluid.2015.03.003
Compound 1: 1-butyl-3-methylimidazolium bromide, C8H15BrN2, InChI=1S/C8H15N2.BrH/c1-3-4-5-10-7-6-9(2)8-10;/h6-8H,3-5H2,1-2H3;1H/q+1;/p-1, purity 75%
Compound 2: 1,3-dibutylimidazolium bromide, C11H21BrN2, InChI=1S/C11H21N2.BrH/c1-3-5-7-12-9-10-13(11-12)8-6-4-2;/h9-11H,3-8H2,1-2H3;1H/q+1;/p-1, purity 69%
Compound 3: 1-isobutyl-3-methylimidazolium bromide, C8H15BrN2, InChI=1S/C8H15N2.BrH/c1-8(2)6-10-5-4-9(3)7-10;/h4-5,7-8H,6H2,1-3H3;1H/q+1;/p-1, purity 75%
Compound 4: 1,3-diisobutylimidazolium bromide, C11H21BrN2, InChI=1S/C11H21N2.BrH/c1-10(2)7-12-5-6-13(9-12)8-11(3)4;/h5-6,9-11H,7-8H2,1-4H3;1H/q+1;/p-1, purity 69%

System: 1-butyl-3-methylimidazolium bromide; phases: Liquid
Property: Electrical conductivity, S/m (Liquid); method: Alternating current cell with electrodes
Temperature, K	Pressure, kPa	Electrical conductivity, S/m	uncertainty
298.15	101.325	0.08	0.01

System: 1-butyl-3-methylimidazolium bromide; phases: Liquid
Property: Mass density, kg/m3 (Liquid); method: Pycnometric method
Temperature, K	Pressure, kPa	Mass density, kg/m3	uncertainty
298.15	101.325	1230	326

System: 1-butyl-3-methylimidazolium bromide; phases: Liquid
Property: Viscosity, Pa*s (Liquid); method: Vibrating wire viscometry
Temperature, K	Pressure, kPa	Viscosity, Pa*s	uncertainty
298.15	101.325	0.363	0.1113

System: 1,3-dibutylimidazolium bromide; phases: Liquid
Property: Electrical conductivity, S/m (Liquid); method: Alternating current cell with electrodes
Temperature, K	Pressure, kPa	Electrical conductivity, S/m	uncertainty
298.15	101.325	0.918	0.006

System: 1,3-dibutylimidazolium bromide; phases: Liquid
Property: Mass density, kg/m3 (Liquid); method: Pycnometric method
Temperature, K	Pressure, kPa	Mass density, kg/m3	uncertainty
298.15	101.325	1200	563

System: 1,3-dibutylimidazolium bromide; phases: Liquid
Property: Viscosity, Pa*s (Liquid); method: Vibrating wire viscometry
Temperature, K	Pressure, kPa	Viscosity, Pa*s	uncertainty
298.15	101.325	0.0111	0.0018

System: 1-isobutyl-3-methylimidazolium bromide; phases: Liquid
Property: Electrical conductivity, S/m (Liquid); method: Alternating current cell with electrodes
Temperature, K	Pressure, kPa	Electrical conductivity, S/m	uncertainty
298.15	101.325	0.2	0.004

System: 1-isobutyl-3-methylimidazolium bromide; phases: Liquid
Property: Mass density, kg/m3 (Liquid); method: Pycnometric method
Temperature, K	Pressure, kPa	Mass density, kg/m3	uncertainty
298.15	101.325	1260	342

System: 1-isobutyl-3-methylimidazolium bromide; phases: Liquid
Property: Viscosity, Pa*s (Liquid); method: Vibrating wire viscometry
Temperature, K	Pressure, kPa	Viscosity, Pa*s	uncertainty
298.15	101.325	0.134	0.0282

System: 1,3-diisobutylimidazolium bromide; phases: Liquid
Property: Electrical conductivity, S/m (Liquid); method: Alternating current cell with electrodes
Temperature, K	Pressure, kPa	Electrical conductivity, S/m	uncertainty
298.15	101.325	0.403	0.006

System: 1,3-diisobutylimidazolium bromide; phases: Liquid
Property: Mass density, kg/m3 (Liquid); method: Pycnometric method
Temperature, K	Pressure, kPa	Mass density, kg/m3	uncertainty
298.15	101.325	1250	611

System: 1,3-diisobutylimidazolium bromide; phases: Liquid
Property: Viscosity, Pa*s (Liquid); method: Vibrating wire viscometry
Temperature, K	Pressure, kPa	Viscosity, Pa*s	uncertainty
298.15	101.325	0.0676	0.0133
