Measured thermophysical data. Measurement of water activities of alanine + tri-potassium citrate + water system at temperatures between 293.15 and 313 K Experimental and modeling
Source: Fluid Phase Equilib., 2008, 10.1016/j.fluid.2008.02.015
Compound 1: (S)-2-aminopropanoic acid, C3H7NO2, InChI=1S/C3H7NO2/c1-2(4)3(5)6/h2H,4H2,1H3,(H,5,6)/t2-/m0/s1
Compound 2: potassium dihydrogen citrate, C6H7KO7, InChI=1S/C6H8O7.K/c7-3(8)1-6(13,5(11)12)2-4(9)10;/h13H,1-2H2,(H,7,8)(H,9,10)(H,11,12);/q;+1/p-1
Compound 3: potassium citrate, C6H5K3O7, InChI=1S/C6H8O7.3K/c7-3(8)1-6(13,5(11)12)2-4(9)10;;;/h13H,1-2H2,(H,7,8)(H,9,10)(H,11,12);;;/q;3*+1/p-3
Compound 4: water, H2O, InChI=1S/H2O/h1H2

System: (S)-2-aminopropanoic acid + potassium dihydrogen citrate + water; phases: Liquid
Fixed: Pressure, kPa = 101
Property: Speed of sound, m/s (Liquid); method: Sing-around technique in a fixed-path interferometer
Molality, mol/kg of potassium dihydrogen citrate	Temperature, K	Molality, mol/kg of (S)-2-aminopropanoic acid	Speed of sound, m/s	uncertainty
0	283.15	0	1447.59	1.23
0	283.15	0.1019	1455.35	1.26
0	283.15	0.151	1459.07	1.28
0	283.15	0.2012	1462.67	1.29
0	283.15	0.2512	1466.31	1.31
0	283.15	0.2986	1469.71	1.32
0	283.15	0.3478	1473.12	1.33
0	283.15	0.3947	1476.49	1.35
0	283.15	0.4908	1483.19	1.38
0	283.15	0.6999	1497.44	1.44
0	283.15	0.9024	1510.84	1.49
0	283.15	1.1999	1530.08	1.58
0	288.15	0	1466.25	1.23
0	288.15	0.1019	1473.34	1.26
0	288.15	0.151	1476.76	1.28
0	288.15	0.2012	1480.33	1.29
0	288.15	0.2512	1483.75	1.31
0	288.15	0.2986	1487	1.32
0	288.15	0.3478	1490.26	1.34
0	288.15	0.3947	1493.65	1.35
0	288.15	0.4908	1500.07	1.38
0	288.15	0.6999	1513.72	1.44
0	288.15	0.9024	1526.6	1.5
0	288.15	1.1999	1545.04	1.58
0	293.15	0	1482.66	1.24
0	293.15	0.1019	1489.35	1.27
0	293.15	0.151	1492.64	1.28
0	293.15	0.2012	1496.06	1.3
0	293.15	0.2512	1499.35	1.31
0	293.15	0.2986	1502.47	1.33
0	293.15	0.3478	1505.6	1.34
0	293.15	0.3947	1508.82	1.36
0	293.15	0.4908	1515.01	1.38
0	293.15	0.6999	1528.17	1.44
0	293.15	0.9024	1540.52	1.5
0	293.15	1.1999	1558.28	1.58
0	298.15	0	1497	1.24
0	298.15	0.1019	1503.37	1.27
0	298.15	0.151	1506.53	1.29
0	298.15	0.2012	1509.8	1.3
0	298.15	0.2512	1512.97	1.32
0	298.15	0.2986	1515.99	1.33
0	298.15	0.3478	1519.04	1.34
0	298.15	0.3947	1522.13	1.36
0	298.15	0.4908	1528.09	1.39
0	298.15	0.6999	1540.76	1.45
0	298.15	0.9024	1552.68	1.5
0	298.15	1.1999	1569.77	1.58
0	303.15	0	1509.44	1.24
0	303.15	0.1019	1515.57	1.27
0	303.15	0.151	1518.64	1.29
0	303.15	0.2012	1521.79	1.3
0	303.15	0.2512	1524.87	1.32
0	303.15	0.2986	1527.8	1.33
0	303.15	0.3478	1530.74	1.35
0	303.15	0.3947	1533.69	1.36
0	303.15	0.4908	1539.45	1.39
0	303.15	0.6999	1551.67	1.45
0	303.15	0.9024	1563.21	1.5
0	303.15	1.1999	1579.68	1.58
0	308.15	0	1520.12	1.25
0	308.15	0.1019	1526.09	1.28
0	308.15	0.151	1529.06	1.29
0	308.15	0.2012	1532.08	1.31
0	308.15	0.2512	1535.07	1.32
0	308.15	0.2986	1537.9	1.33
0	308.15	0.3478	1540.76	1.35
0	308.15	0.3947	1543.59	1.36
0	308.15	0.4908	1549.15	1.39
0	308.15	0.6999	1561.02	1.45
0	308.15	0.9024	1572.15	1.51
0	308.15	1.1999	1588.1	1.59
0.18	283.15	0	1466.5	1.37
0.18	283.15	0.1	1473.64	1.4
0.18	283.15	0.1226	1475.26	1.4
0.18	283.15	0.17	1478.63	1.42
0.18	283.15	0.1992	1480.69	1.42
0.18	283.15	0.249	1484.22	1.44
0.18	283.15	0.2963	1487.57	1.45
0.18	283.15	0.3989	1494.77	1.48
0.18	283.15	0.4997	1501.74	1.51
0.18	283.15	0.5985	1508.42	1.54
0.18	283.15	0.687	1514.38	1.56
0.18	283.15	0.7981	1521.76	1.59
0.18	283.15	0.9998	1534.99	1.64
0.18	288.15	0	1483.51	1.37
0.18	288.15	0.1	1490.44	1.4
0.18	288.15	0.1226	1492.01	1.41
0.18	288.15	0.17	1495.25	1.42
0.18	288.15	0.1992	1497.22	1.43
0.18	288.15	0.249	1500.61	1.44
0.18	288.15	0.2963	1503.83	1.46
0.18	288.15	0.3989	1510.73	1.48
0.18	288.15	0.4997	1517.43	1.51
0.18	288.15	0.5985	1523.87	1.54
0.18	288.15	0.687	1529.6	1.56
0.18	288.15	0.7981	1536.66	1.59
0.18	288.15	0.9998	1549.36	1.65
0.18	293.15	0	1498.62	1.37
0.18	293.15	0.1	1505.25	1.4
0.18	293.15	0.1226	1506.76	1.41
0.18	293.15	0.17	1509.87	1.42
0.18	293.15	0.1992	1511.75	1.43
0.18	293.15	0.249	1515.04	1.44
0.18	293.15	0.2963	1518.12	1.46
0.18	293.15	0.3989	1524.8	1.49
0.18	293.15	0.4997	1531.25	1.51
0.18	293.15	0.5985	1537.44	1.54
0.18	293.15	0.687	1542.94	1.57
0.18	293.15	0.7981	1549.73	1.59
0.18	293.15	0.9998	1561.96	1.65
0.18	298.15	0	1511.79	1.38
0.18	298.15	0.1	1518.2	1.4
0.18	298.15	0.1226	1519.65	1.41
0.18	298.15	0.17	1522.68	1.42
0.18	298.15	0.1992	1524.51	1.43
0.18	298.15	0.249	1527.65	1.45
0.18	298.15	0.2963	1530.65	1.46
0.18	298.15	0.3989	1537.06	1.49
0.18	298.15	0.4997	1543.27	1.52
0.18	298.15	0.5985	1549.23	1.54
0.18	298.15	0.687	1554.55	1.57
0.18	298.15	0.7981	1561.14	1.6
0.18	298.15	0.9998	1572.93	1.65
0.18	303.15	0	1523.25	1.38
0.18	303.15	0.1	1529.42	1.41
0.18	303.15	0.1226	1530.84	1.41
0.18	303.15	0.17	1533.75	1.43
0.18	303.15	0.1992	1535.52	1.44
0.18	303.15	0.249	1538.55	1.45
0.18	303.15	0.2963	1541.46	1.46
0.18	303.15	0.3989	1547.64	1.49
0.18	303.15	0.4997	1553.66	1.52
0.18	303.15	0.5985	1559.43	1.55
0.18	303.15	0.687	1564.57	1.57
0.18	303.15	0.7981	1570.93	1.6
0.18	303.15	0.9998	1582.3	1.65
0.18	308.15	0	1533.06	1.38
0.18	308.15	0.1	1539	1.41
0.18	308.15	0.1226	1540.38	1.42
0.18	308.15	0.17	1543.2	1.43
0.18	308.15	0.1992	1544.93	1.44
0.18	308.15	0.249	1547.85	1.45
0.18	308.15	0.2963	1550.65	1.46
0.18	308.15	0.3989	1556.67	1.49
0.18	308.15	0.4997	1562.49	1.52
0.18	308.15	0.5985	1568.08	1.55
0.18	308.15	0.687	1573.05	1.57
0.18	308.15	0.7981	1579.2	1.6
0.18	308.15	0.9998	1590.22	1.65
0.5	283.15	0	1493.91	1.59
0.5	283.15	0.0482	1497.4	1.61
0.5	283.15	0.0741	1499.2	1.61
0.5	283.15	0.0997	1501.09	1.62
0.5	283.15	0.1491	1504.6	1.63
0.5	283.15	0.1992	1508.14	1.64
0.5	283.15	0.2495	1511.68	1.66
0.5	283.15	0.3	1515.2	1.67
0.5	283.15	0.3818	1520.93	1.69
0.5	283.15	0.4996	1529.05	1.72
0.5	283.15	0.5977	1535.64	1.75
0.5	283.15	0.6967	1542.29	1.77
0.5	283.15	0.7916	1548.6	1.79
0.5	283.15	0.8731	1553.82	1.81
0.5	288.15	0	1509.32	1.6
0.5	288.15	0.0482	1512.64	1.61
0.5	288.15	0.0741	1514.38	1.61
0.5	288.15	0.0997	1516.2	1.62
0.5	288.15	0.1491	1519.59	1.63
0.5	288.15	0.1992	1523	1.65
0.5	288.15	0.2495	1526.42	1.66
0.5	288.15	0.3	1529.78	1.67
0.5	288.15	0.3818	1535.27	1.69
0.5	288.15	0.4996	1543.07	1.72
0.5	288.15	0.5977	1549.42	1.75
0.5	288.15	0.6967	1555.84	1.77
0.5	288.15	0.7916	1561.89	1.8
0.5	288.15	0.8731	1566.95	1.81
0.5	293.15	0	1522.8	1.6
0.5	293.15	0.0482	1526	1.61
0.5	293.15	0.0741	1527.69	1.62
0.5	293.15	0.0997	1529.45	1.62
0.5	293.15	0.1491	1532.7	1.64
0.5	293.15	0.1992	1536	1.65
0.5	293.15	0.2495	1539.27	1.66
0.5	293.15	0.3	1542.52	1.68
0.5	293.15	0.3818	1547.8	1.7
0.5	293.15	0.4996	1555.35	1.73
0.5	293.15	0.5977	1561.46	1.75
0.5	293.15	0.6967	1567.64	1.77
0.5	293.15	0.7916	1573.43	1.8
0.5	293.15	0.8731	1578.32	1.82
0.5	298.15	0	1534.49	1.6
0.5	298.15	0.0482	1537.63	1.61
0.5	298.15	0.0741	1539.2	1.62
0.5	298.15	0.0997	1540.92	1.63
0.5	298.15	0.1491	1544.05	1.64
0.5	298.15	0.1992	1547.22	1.65
0.5	298.15	0.2495	1550.4	1.66
0.5	298.15	0.3	1553.54	1.68
0.5	298.15	0.3818	1558.67	1.7
0.5	298.15	0.4996	1565.94	1.73
0.5	298.15	0.5977	1571.83	1.75
0.5	298.15	0.6967	1577.79	1.78
0.5	298.15	0.7916	1583.41	1.8
0.5	298.15	0.8731	1588.13	1.82
0.5	303.15	0	1544.54	1.6
0.5	303.15	0.0482	1547.56	1.61
0.5	303.15	0.0741	1549.11	1.62
0.5	303.15	0.0997	1550.76	1.63
0.5	303.15	0.1491	1553.79	1.64
0.5	303.15	0.1992	1556.89	1.65
0.5	303.15	0.2495	1559.96	1.67
0.5	303.15	0.3	1563	1.68
0.5	303.15	0.3818	1567.95	1.7
0.5	303.15	0.4996	1574.98	1.73
0.5	303.15	0.5977	1580.66	1.75
0.5	303.15	0.6967	1586.44	1.78
0.5	303.15	0.7916	1591.88	1.8
0.5	303.15	0.8731	1596.44	1.82
0.5	308.15	0	1553.05	1.6
0.5	308.15	0.0482	1555.97	1.62
0.5	308.15	0.0741	1557.49	1.62
0.5	308.15	0.0997	1559.08	1.63
0.5	308.15	0.1491	1562.04	1.64
0.5	308.15	0.1992	1565.04	1.65
0.5	308.15	0.2495	1568	1.67
0.5	308.15	0.3	1570.94	1.68
0.5	308.15	0.3818	1575.73	1.7
0.5	308.15	0.4996	1582.56	1.73
0.5	308.15	0.5977	1588.07	1.75
0.5	308.15	0.6967	1593.67	1.78
0.5	308.15	0.7916	1598.93	1.8
0.5	308.15	0.8731	1603.36	1.82
1	283.15	0	1523.63	1.9
1	283.15	0.1535	1534.64	1.94
1	283.15	0.1992	1537.87	1.95
1	283.15	0.2502	1541.46	1.96
1	283.15	0.2994	1544.86	1.97
1	283.15	0.4036	1550.7	1.99
1	283.15	0.502	1557.3	2.01
1	283.15	0.5999	1563.9	2.03
1	283.15	0.7535	1574.12	2.06
1	283.15	0.9026	1583.77	2.09
1	283.15	0.998	1589.92	2.11
1	288.15	0	1537.34	1.9
1	288.15	0.1535	1547.97	1.94
1	288.15	0.1992	1551.09	1.95
1	288.15	0.2502	1554.55	1.96
1	288.15	0.2994	1557.83	1.97
1	288.15	0.4036	1563.33	1.99
1	288.15	0.502	1569.66	2.01
1	288.15	0.5999	1576.01	2.03
1	288.15	0.7535	1585.87	2.07
1	288.15	0.9026	1595.13	2.1
1	288.15	0.998	1601.04	2.11
1	293.15	0	1549.27	1.9
1	293.15	0.1535	1559.53	1.94
1	293.15	0.1992	1562.54	1.95
1	293.15	0.2502	1565.87	1.96
1	293.15	0.2994	1569.01	1.97
1	293.15	0.4036	1574.2	1.99
1	293.15	0.502	1580.34	2.01
1	293.15	0.5999	1586.45	2.04
1	293.15	0.7535	1595.97	2.07
1	293.15	0.9026	1604.87	2.1
1	293.15	0.998	1610.55	2.12
1	298.15	0	1559.52	1.91
1	298.15	0.1535	1569.41	1.94
1	298.15	0.1992	1572.3	1.95
1	298.15	0.2502	1575.54	1.96
1	298.15	0.2994	1578.56	1.97
1	298.15	0.4036	1583.53	1.99
1	298.15	0.502	1589.43	2.02
1	298.15	0.5999	1595.37	2.04
1	298.15	0.7535	1604.53	2.07
1	298.15	0.9026	1613.12	2.1
1	298.15	0.998	1618.61	2.12
1	303.15	0	1568.2	1.91
1	303.15	0.1535	1577.75	1.94
1	303.15	0.1992	1580.56	1.95
1	303.15	0.2502	1583.69	1.96
1	303.15	0.2994	1586.63	1.97
1	303.15	0.4036	1591.36	2
1	303.15	0.502	1597.08	2.02
1	303.15	0.5999	1602.82	2.04
1	303.15	0.7535	1611.68	2.07
1	303.15	0.9026	1619.98	2.1
1	303.15	0.998	1625.32	2.12
1	308.15	0	1575.42	1.91
1	308.15	0.1535	1584.67	1.94
1	308.15	0.1992	1587.39	1.95
1	308.15	0.2502	1590.45	1.96
1	308.15	0.2994	1593.29	1.97
1	308.15	0.4036	1597.82	2
1	308.15	0.502	1603.37	2.02
1	308.15	0.5999	1608.91	2.04
1	308.15	0.7535	1617.5	2.1
1	308.15	0.9026	1625.57	2.1
1	308.15	0.998	1630.73	2.12

System: (S)-2-aminopropanoic acid + potassium dihydrogen citrate + water; phases: Liquid
Fixed: Pressure, kPa = 101
Property: Mass density, kg/m3 (Liquid); method: Vibrating tube method
Molality, mol/kg of potassium dihydrogen citrate	Temperature, K	Molality, mol/kg of (S)-2-aminopropanoic acid	Mass density, kg/m3	uncertainty
0	283.15	0	999.699	0.258
0	283.15	0.1019	1002.709	0.273
0	283.15	0.151	1004.132	0.28
0	283.15	0.2012	1005.575	0.288
0	283.15	0.2512	1007.016	0.296
0	283.15	0.2986	1008.381	0.303
0	283.15	0.3478	1009.751	0.311
0	283.15	0.3947	1011.099	0.319
0	283.15	0.4908	1013.749	0.335
0	283.15	0.6999	1019.368	0.371
0	283.15	0.9024	1024.605	0.408
0	283.15	1.1999	1032	0.463
0	288.15	0	999.099	0.258
0	288.15	0.1019	1002.066	0.272
0	288.15	0.151	1003.472	0.279
0	288.15	0.2012	1004.897	0.287
0	288.15	0.2512	1006.322	0.295
0	288.15	0.2986	1007.665	0.302
0	288.15	0.3478	1009.019	0.31
0	288.15	0.3947	1010.351	0.318
0	288.15	0.4908	1012.968	0.334
0	288.15	0.6999	1018.518	0.37
0	288.15	0.9024	1023.692	0.407
0	288.15	1.1999	1031.002	0.461
0	293.15	0	998.203	0.257
0	293.15	0.1019	1001.136	0.27
0	293.15	0.151	1002.525	0.278
0	293.15	0.2012	1003.939	0.285
0	293.15	0.2512	1005.346	0.293
0	293.15	0.2986	1006.674	0.301
0	293.15	0.3478	1008.012	0.309
0	293.15	0.3947	1009.335	0.316
0	293.15	0.4908	1011.924	0.332
0	293.15	0.6999	1017.419	0.369
0	293.15	0.9024	1022.539	0.405
0	293.15	1.1999	1029.778	0.46
0	298.15	0	997.043	0.256
0	298.15	0.1019	999.949	0.269
0	298.15	0.151	1001.329	0.276
0	298.15	0.2012	1002.729	0.284
0	298.15	0.2512	1004.126	0.292
0	298.15	0.2986	1005.439	0.299
0	298.15	0.3478	1006.765	0.307
0	298.15	0.3947	1008.075	0.315
0	298.15	0.4908	1010.643	0.331
0	298.15	0.6999	1016.093	0.367
0	298.15	0.9024	1021.17	0.403
0	298.15	1.1999	1028.35	0.458
0	303.15	0	995.645	0.256
0	303.15	0.1019	998.528	0.269
0	303.15	0.151	999.896	0.275
0	303.15	0.2012	1001.289	0.282
0	303.15	0.2512	1002.676	0.29
0	303.15	0.2986	1003.978	0.298
0	303.15	0.3478	1005.297	0.305
0	303.15	0.3947	1006.598	0.313
0	303.15	0.4908	1009.148	0.329
0	303.15	0.6999	1014.558	0.365
0	303.15	0.9024	1019.6	0.402
0	303.15	1.1999	1026.733	0.456
0	308.15	0	994.029	0.255
0	308.15	0.1019	996.894	0.268
0	308.15	0.151	998.254	0.274
0	308.15	0.2012	999.64	0.281
0	308.15	0.2512	1001.019	0.288
0	308.15	0.2986	1002.312	0.296
0	308.15	0.3478	1003.623	0.304
0	308.15	0.3947	1004.916	0.311
0	308.15	0.4908	1007.453	0.327
0	308.15	0.6999	1012.831	0.363
0	308.15	0.9024	1017.848	0.399
0	308.15	1.1999	1024.937	0.454
0.18	283.15	0	1020.573	0.336
0.18	283.15	0.1	1023.404	0.359
0.18	283.15	0.1226	1024.024	0.358
0.18	283.15	0.17	1025.344	0.366
0.18	283.15	0.1992	1026.146	0.37
0.18	283.15	0.249	1027.506	0.379
0.18	283.15	0.2963	1028.793	0.388
0.18	283.15	0.3989	1031.547	0.407
0.18	283.15	0.4997	1034.206	0.426
0.18	283.15	0.5985	1036.749	0.444
0.18	283.15	0.687	1039.007	0.463
0.18	283.15	0.7981	1041.794	0.484
0.18	283.15	0.9998	1046.751	0.523
0.18	288.15	0	1019.692	0.334
0.18	288.15	0.1	1022.488	0.354
0.18	288.15	0.1226	1023.104	0.357
0.18	288.15	0.17	1024.405	0.364
0.18	288.15	0.1992	1025.2	0.37
0.18	288.15	0.249	1026.546	0.378
0.18	288.15	0.2963	1027.817	0.387
0.18	288.15	0.3989	1030.54	0.406
0.18	288.15	0.4997	1033.171	0.425
0.18	288.15	0.5985	1035.685	0.443
0.18	288.15	0.687	1037.923	0.461
0.18	288.15	0.7981	1040.677	0.483
0.18	288.15	0.9998	1045.582	0.521
0.18	293.15	0	1018.547	0.333
0.18	293.15	0.1	1021.316	0.352
0.18	293.15	0.1226	1021.927	0.355
0.18	293.15	0.17	1023.218	0.363
0.18	293.15	0.1992	1024.003	0.367
0.18	293.15	0.249	1025.336	0.376
0.18	293.15	0.2963	1026.596	0.385
0.18	293.15	0.3989	1029.295	0.404
0.18	293.15	0.4997	1031.901	0.423
0.18	293.15	0.5985	1034.393	0.441
0.18	293.15	0.687	1036.61	0.46
0.18	293.15	0.7981	1039.34	0.481
0.18	293.15	0.9998	1044.202	0.52
0.18	298.15	0	1017.168	0.331
0.18	298.15	0.1	1019.914	0.351
0.18	298.15	0.1226	1020.521	0.354
0.18	298.15	0.17	1021.8	0.361
0.18	298.15	0.1992	1022.582	0.366
0.18	298.15	0.249	1023.904	0.375
0.18	298.15	0.2963	1025.155	0.383
0.18	298.15	0.3989	1027.832	0.402
0.18	298.15	0.4997	1030.42	0.421
0.18	298.15	0.5985	1032.894	0.44
0.18	298.15	0.687	1035.093	0.458
0.18	298.15	0.7981	1037.804	0.479
0.18	298.15	0.9998	1042.631	0.518
0.18	303.15	0	1015.574	0.329
0.18	303.15	0.1	1018.303	0.349
0.18	303.15	0.1226	1018.905	0.352
0.18	303.15	0.17	1020.179	0.36
0.18	303.15	0.1992	1020.954	0.364
0.18	303.15	0.249	1022.269	0.373
0.18	303.15	0.2963	1023.511	0.382
0.18	303.15	0.3989	1026.172	0.4
0.18	303.15	0.4997	1028.745	0.419
0.18	303.15	0.5985	1031.203	0.438
0.18	303.15	0.687	1033.39	0.455
0.18	303.15	0.7981	1036.084	0.477
0.18	303.15	0.9998	1040.882	0.515
0.18	308.15	0	1013.78	0.328
0.18	308.15	0.1	1016.498	0.35
0.18	308.15	0.1226	1017.096	0.35
0.18	308.15	0.17	1018.366	0.357
0.18	308.15	0.1992	1019.136	0.362
0.18	308.15	0.249	1020.442	0.371
0.18	308.15	0.2963	1021.68	0.38
0.18	308.15	0.3989	1024.329	0.398
0.18	308.15	0.4997	1026.888	0.417
0.18	308.15	0.5985	1029.335	0.435
0.18	308.15	0.687	1031.51	0.453
0.18	308.15	0.7981	1034.192	0.474
0.18	308.15	0.9998	1038.967	0.513
0.5	283.15	0	1052.939	0.511
0.5	283.15	0.0482	1054.202	0.517
0.5	283.15	0.0741	1054.875	0.523
0.5	283.15	0.0997	1055.53	0.521
0.5	283.15	0.1491	1056.798	0.531
0.5	283.15	0.1992	1058.072	0.542
0.5	283.15	0.2495	1059.341	0.553
0.5	283.15	0.3	1060.596	0.564
0.5	283.15	0.3818	1062.636	0.582
0.5	283.15	0.4996	1065.505	0.607
0.5	283.15	0.5977	1067.84	0.629
0.5	283.15	0.6967	1070.178	0.651
0.5	283.15	0.7916	1072.374	0.673
0.5	283.15	0.8731	1074.214	0.691
0.5	288.15	0	1051.691	0.503
0.5	288.15	0.0482	1052.944	0.516
0.5	288.15	0.0741	1053.61	0.523
0.5	288.15	0.0997	1054.259	0.519
0.5	288.15	0.1491	1055.517	0.529
0.5	288.15	0.1992	1056.779	0.54
0.5	288.15	0.2495	1058.034	0.551
0.5	288.15	0.3	1059.279	0.562
0.5	288.15	0.3818	1061.299	0.579
0.5	288.15	0.4996	1064.145	0.605
0.5	288.15	0.5977	1066.456	0.627
0.5	288.15	0.6967	1068.776	0.649
0.5	288.15	0.7916	1070.949	0.671
0.5	288.15	0.8731	1072.773	0.689
0.5	293.15	0	1050.223	0.501
0.5	293.15	0.0482	1051.465	0.514
0.5	293.15	0.0741	1052.126	0.521
0.5	293.15	0.0997	1052.769	0.517
0.5	293.15	0.1491	1054.018	0.527
0.5	293.15	0.1992	1055.269	0.538
0.5	293.15	0.2495	1056.516	0.549
0.5	293.15	0.3	1057.752	0.56
0.5	293.15	0.3818	1059.756	0.577
0.5	293.15	0.4996	1062.582	0.603
0.5	293.15	0.5977	1064.875	0.625
0.5	293.15	0.6967	1067.177	0.647
0.5	293.15	0.7916	1069.335	0.668
0.5	293.15	0.8731	1071.146	0.687
0.5	298.15	0	1048.551	0.499
0.5	298.15	0.0482	1049.786	0.511
0.5	298.15	0.0741	1050.443	0.518
0.5	298.15	0.0997	1051.083	0.515
0.5	298.15	0.1491	1052.324	0.525
0.5	298.15	0.1992	1053.568	0.536
0.5	298.15	0.2495	1054.808	0.547
0.5	298.15	0.3	1056.034	0.558
0.5	298.15	0.3818	1058.029	0.575
0.5	298.15	0.4996	1060.835	0.601
0.5	298.15	0.5977	1063.114	0.622
0.5	298.15	0.6967	1065.402	0.644
0.5	298.15	0.7916	1067.548	0.665
0.5	298.15	0.8731	1069.348	0.684
0.5	303.15	0	1046.694	0.496
0.5	303.15	0.0482	1047.925	0.509
0.5	303.15	0.0741	1048.58	0.516
0.5	303.15	0.0997	1049.215	0.512
0.5	303.15	0.1491	1050.45	0.522
0.5	303.15	0.1992	1051.688	0.533
0.5	303.15	0.2495	1052.921	0.544
0.5	303.15	0.3	1054.142	0.555
0.5	303.15	0.3818	1056.126	0.572
0.5	303.15	0.4996	1058.919	0.598
0.5	303.15	0.5977	1061.188	0.619
0.5	303.15	0.6967	1063.466	0.641
0.5	303.15	0.7916	1065.6	0.662
0.5	303.15	0.8731	1067.393	0.681
0.5	308.15	0	1044.666	0.499
0.5	308.15	0.0482	1045.89	0.505
0.5	308.15	0.0741	1046.545	0.511
0.5	308.15	0.0997	1047.177	0.51
0.5	308.15	0.1491	1048.407	0.52
0.5	308.15	0.1992	1049.64	0.531
0.5	308.15	0.2495	1050.869	0.541
0.5	308.15	0.3	1052.085	0.553
0.5	308.15	0.3818	1054.062	0.569
0.5	308.15	0.4996	1056.846	0.595
0.5	308.15	0.5977	1059.106	0.616
0.5	308.15	0.6967	1061.373	0.638
0.5	308.15	0.7916	1063.501	0.659
0.5	308.15	0.8731	1065.284	0.677
1	283.15	0	1088.067	0.795
1	283.15	0.1535	1091.707	0.832
1	283.15	0.1992	1092.758	0.843
1	283.15	0.2502	1093.934	0.855
1	283.15	0.2994	1095.049	0.867
1	283.15	0.4036	1097.398	0.892
1	283.15	0.502	1099.552	0.916
1	283.15	0.5999	1101.652	0.94
1	283.15	0.7535	1104.898	0.977
1	283.15	0.9026	1107.955	1.014
1	283.15	0.998	1109.887	1.037
1	288.15	0	1086.494	0.792
1	288.15	0.1535	1090.104	0.829
1	288.15	0.1992	1091.145	0.84
1	288.15	0.2502	1092.314	0.852
1	288.15	0.2994	1093.42	0.864
1	288.15	0.4036	1095.751	0.889
1	288.15	0.502	1097.891	0.913
1	288.15	0.5999	1099.971	0.937
1	288.15	0.7535	1103.193	0.974
1	288.15	0.9026	1106.226	1.01
1	288.15	0.998	1108.147	1.034
1	293.15	0	1084.725	0.789
1	293.15	0.1535	1088.314	0.826
1	293.15	0.1992	1089.347	0.837
1	293.15	0.2502	1090.509	0.849
1	293.15	0.2994	1091.608	0.861
1	293.15	0.4036	1093.924	0.886
1	293.15	0.502	1096.053	0.909
1	293.15	0.5999	1098.119	0.933
1	293.15	0.7535	1101.325	0.97
1	293.15	0.9026	1104.336	1.006
1	293.15	0.998	1106.244	1.03
1	298.15	0	1082.782	0.786
1	298.15	0.1535	1086.352	0.822
1	298.15	0.1992	1087.381	0.833
1	298.15	0.2502	1088.539	0.845
1	298.15	0.2994	1089.631	0.857
1	298.15	0.4036	1091.937	0.882
1	298.15	0.502	1094.055	0.905
1	298.15	0.5999	1096.112	0.929
1	298.15	0.7535	1099.299	0.966
1	298.15	0.9026	1102.298	1.002
1	298.15	0.998	1104.195	1.025
1	303.15	0	1080.678	0.782
1	303.15	0.1535	1084.235	0.818
1	303.15	0.1992	1085.262	0.829
1	303.15	0.2502	1086.415	0.841
1	303.15	0.2994	1087.505	0.853
1	303.15	0.4036	1089.8	0.878
1	303.15	0.502	1091.908	0.901
1	303.15	0.5999	1093.959	0.925
1	303.15	0.7535	1097.134	0.962
1	303.15	0.9026	1100.123	0.997
1	303.15	0.998	1102.013	1.021
1	308.15	0	1078.423	0.778
1	308.15	0.1535	1081.971	0.814
1	308.15	0.1992	1082.995	0.825
1	308.15	0.2502	1084.145	0.837
1	308.15	0.2994	1085.231	0.849
1	308.15	0.4036	1087.521	0.874
1	308.15	0.502	1089.624	0.897
1	308.15	0.5999	1091.668	0.92
1	308.15	0.7535	1094.838	0.957
1	308.15	0.9026	1097.817	0.993
1	308.15	0.998	1099.703	1.016

System: (S)-2-aminopropanoic acid + potassium citrate + water; phases: Liquid
Fixed: Pressure, kPa = 101
Property: Speed of sound, m/s (Liquid); method: Sing-around technique in a fixed-path interferometer
Molality, mol/kg of potassium citrate	Temperature, K	Molality, mol/kg of (S)-2-aminopropanoic acid	Speed of sound, m/s	uncertainty
0.14	283.15	0	1475.05	1.37
0.14	283.15	0.1514	1485.96	1.42
0.14	283.15	0.1817	1488.19	1.43
0.14	283.15	0.251	1493.07	1.45
0.14	283.15	0.2996	1496.57	1.46
0.14	283.15	0.3976	1503.29	1.49
0.14	283.15	0.5038	1510.4	1.52
0.14	283.15	0.6069	1518.07	1.54
0.14	283.15	0.7016	1524.01	1.57
0.14	283.15	0.7987	1530.44	1.6
0.14	288.15	0	1492.45	1.38
0.14	288.15	0.1514	1502.89	1.42
0.14	288.15	0.1817	1504.97	1.43
0.14	288.15	0.251	1509.65	1.45
0.14	288.15	0.2996	1513.01	1.46
0.14	288.15	0.3976	1519.48	1.49
0.14	288.15	0.5038	1526.31	1.52
0.14	288.15	0.6069	1533.8	1.55
0.14	288.15	0.7016	1539.35	1.57
0.14	288.15	0.7987	1545.52	1.6
0.14	293.15	0	1507.79	1.38
0.14	293.15	0.1514	1517.86	1.42
0.14	293.15	0.1817	1519.85	1.43
0.14	293.15	0.251	1524.37	1.45
0.14	293.15	0.2996	1527.6	1.47
0.14	293.15	0.3976	1533.81	1.49
0.14	293.15	0.5038	1540.36	1.52
0.14	293.15	0.6069	1547.5	1.55
0.14	293.15	0.7016	1552.92	1.58
0.14	293.15	0.7987	1558.88	1.6
0.14	298.15	0	1521.25	1.38
0.14	298.15	0.1514	1530.96	1.43
0.14	298.15	0.1817	1532.86	1.43
0.14	298.15	0.251	1537.21	1.45
0.14	298.15	0.2996	1540.32	1.47
0.14	298.15	0.3976	1546.3	1.49
0.14	298.15	0.5038	1552.64	1.52
0.14	298.15	0.6069	1559.5	1.55
0.14	298.15	0.7016	1564.76	1.58
0.14	298.15	0.7987	1570.47	1.6
0.14	303.15	0	1532.97	1.38
0.14	303.15	0.1514	1542.32	1.43
0.14	303.15	0.1817	1544.14	1.44
0.14	303.15	0.251	1548.37	1.46
0.14	303.15	0.2996	1551.36	1.47
0.14	303.15	0.3976	1557.15	1.5
0.14	303.15	0.5038	1563.29	1.53
0.14	303.15	0.6069	1570.14	1.55
0.14	303.15	0.7016	1574.97	1.58
0.14	303.15	0.7987	1580.48	1.6
0.14	308.15	0	1543	1.39
0.14	308.15	0.1514	1552.05	1.43
0.14	308.15	0.1817	1553.82	1.44
0.14	308.15	0.251	1557.95	1.46
0.14	308.15	0.2996	1560.83	1.47
0.14	308.15	0.3976	1566.43	1.5
0.14	308.15	0.5038	1572.34	1.53
0.14	308.15	0.6069	1579	1.56
0.14	308.15	0.7016	1583.64	1.58
0.14	308.15	0.7987	1588.98	1.61
0.5	283.15	0	1536.08	1.71
0.5	283.15	0.1498	1546.96	1.74
0.5	283.15	0.1997	1550.5	1.76
0.5	283.15	0.2282	1552.54	1.76
0.5	283.15	0.2495	1553.91	1.77
0.5	283.15	0.3004	1557.4	1.78
0.5	283.15	0.3308	1559.69	1.79
0.5	283.15	0.4307	1566.51	1.81
0.5	283.15	0.4977	1570.9	1.83
0.5	283.15	0.6039	1578.05	1.85
0.5	283.15	0.7004	1584.42	1.88
0.5	283.15	0.7858	1590.43	1.9
0.5	283.15	0.8442	1594.71	1.91
0.5	283.15	0.8945	1597.05	1.92
0.5	283.15	1.0187	1606.15	1.95
0.5	288.15	0	1551.15	1.71
0.5	288.15	0.1498	1561.65	1.75
0.5	288.15	0.1997	1565.02	1.76
0.5	288.15	0.2282	1567.02	1.77
0.5	288.15	0.2495	1568.27	1.77
0.5	288.15	0.3004	1571.65	1.78
0.5	288.15	0.3308	1573.86	1.79
0.5	288.15	0.4307	1580.42	1.82
0.5	288.15	0.4977	1584.63	1.83
0.5	288.15	0.6039	1591.5	1.86
0.5	288.15	0.7004	1597.69	1.88
0.5	288.15	0.7858	1603.34	1.9
0.5	288.15	0.8442	1607.59	1.91
0.5	288.15	0.8945	1609.8	1.92
0.5	288.15	1.0187	1618.58	1.95
0.5	293.15	0	1564.52	1.71
0.5	293.15	0.1498	1574.58	1.75
0.5	293.15	0.1997	1577.83	1.76
0.5	293.15	0.2282	1579.74	1.77
0.5	293.15	0.2495	1580.97	1.77
0.5	293.15	0.3004	1584.22	1.79
0.5	293.15	0.3308	1586.33	1.79
0.5	293.15	0.4307	1592.66	1.82
0.5	293.15	0.4977	1596.73	1.83
0.5	293.15	0.6039	1603.33	1.86
0.5	293.15	0.7004	1609.29	1.88
0.5	293.15	0.7858	1614.72	1.9
0.5	293.15	0.8442	1618.87	1.91
0.5	293.15	0.8945	1620.93	1.92
0.5	293.15	1.0187	1629.47	1.95
0.5	298.15	0	1576.12	1.71
0.5	298.15	0.1498	1585.84	1.75
0.5	298.15	0.1997	1588.99	1.76
0.5	298.15	0.2282	1590.83	1.77
0.5	298.15	0.2495	1592.01	1.78
0.5	298.15	0.3004	1595.17	1.79
0.5	298.15	0.3308	1597.22	1.79
0.5	298.15	0.4307	1603.3	1.82
0.5	298.15	0.4977	1607.18	1.83
0.5	298.15	0.6039	1613.56	1.86
0.5	298.15	0.7004	1619.33	1.88
0.5	298.15	0.7858	1624.61	1.9
0.5	298.15	0.8442	1628.61	1.91
0.5	298.15	0.8945	1630.57	1.92
0.5	298.15	1.0187	1638.83	1.95
0.5	303.15	0	1586.17	1.71
0.5	303.15	0.1498	1595.57	1.75
0.5	303.15	0.1997	1598.62	1.76
0.5	303.15	0.2282	1600.39	1.77
0.5	303.15	0.2495	1601.54	1.78
0.5	303.15	0.3004	1604.56	1.79
0.5	303.15	0.3308	1606.54	1.8
0.5	303.15	0.4307	1612.43	1.82
0.5	303.15	0.4977	1616.18	1.84
0.5	303.15	0.6039	1622.34	1.86
0.5	303.15	0.7004	1627.92	1.88
0.5	303.15	0.7858	1633.04	1.9
0.5	303.15	0.8442	1636.97	1.91
0.5	303.15	0.8945	1638.78	1.93
0.5	303.15	1.0187	1646.82	1.95
0.5	308.15	0	1594.75	1.72
0.5	308.15	0.1498	1603.83	1.75
0.5	308.15	0.1997	1606.78	1.77
0.5	308.15	0.2282	1608.5	1.77
0.5	308.15	0.2495	1609.6	1.78
0.5	308.15	0.3004	1612.52	1.79
0.5	308.15	0.3308	1614.43	1.8
0.5	308.15	0.4307	1620.13	1.82
0.5	308.15	0.4977	1623.76	1.84
0.5	308.15	0.6039	1629.72	1.86
0.5	308.15	0.7004	1635.12	1.88
0.5	308.15	0.7858	1640.14	1.9
0.5	308.15	0.8442	1643.98	1.92
0.5	308.15	0.8945	1645.62	1.93
0.5	308.15	1.0187	1653.5	1.95
1	283.15	0	1597.32	2.09
1	283.15	0.1511	1608.06	2.12
1	283.15	0.2008	1611.64	2.13
1	283.15	0.2992	1618.4	2.15
1	283.15	0.3712	1623.88	2.16
1	283.15	0.4983	1632.58	2.19
1	283.15	0.5627	1636.68	2.2
1	283.15	0.6998	1645.54	2.22
1	283.15	0.8017	1652.04	2.24
1	283.15	0.8901	1657.52	2.26
1	283.15	1.0063	1664.51	2.28
1	288.15	0	1610.13	2.09
1	288.15	0.1511	1620.43	2.12
1	288.15	0.2008	1623.94	2.13
1	288.15	0.2992	1630.45	2.15
1	288.15	0.3712	1635.76	2.16
1	288.15	0.4983	1644.13	2.19
1	288.15	0.5627	1648.07	2.2
1	288.15	0.6998	1656.59	2.23
1	288.15	0.8017	1663.04	2.24
1	288.15	0.8901	1668.12	2.26
1	288.15	1.0063	1674.84	2.28
1	293.15	0	1621.4	2.09
1	293.15	0.1511	1631.32	2.12
1	293.15	0.2008	1634.72	2.13
1	293.15	0.2992	1640.99	2.15
1	293.15	0.3712	1646.12	2.16
1	293.15	0.4983	1654.22	2.19
1	293.15	0.5627	1658.03	2.2
1	293.15	0.6998	1666.24	2.23
1	293.15	0.8017	1672.3	2.25
1	293.15	0.8901	1677.34	2.26
1	293.15	1.0063	1683.8	2.28
1	298.15	0	1631.18	2.09
1	298.15	0.1511	1640.72	2.12
1	298.15	0.2008	1644.03	2.13
1	298.15	0.2992	1650.08	2.15
1	298.15	0.3712	1655.05	2.17
1	298.15	0.4983	1662.9	2.19
1	298.15	0.5627	1666.54	2.2
1	298.15	0.6998	1674.5	2.23
1	298.15	0.8017	1680.35	2.25
1	298.15	0.8901	1685.21	2.26
1	298.15	1.0063	1691.44	2.28
1	303.15	0	1639.56	2.09
1	303.15	0.1511	1648.76	2.12
1	303.15	0.2008	1651.99	2.13
1	303.15	0.2992	1657.83	2.15
1	303.15	0.3712	1662.66	2.17
1	303.15	0.4983	1670.29	2.19
1	303.15	0.5627	1673.8	2.2
1	303.15	0.6998	1681.49	2.23
1	303.15	0.8017	1687.14	2.25
1	303.15	0.8901	1691.83	2.26
1	303.15	1.0063	1697.86	2.28
1	308.15	0	1646.62	2.09
1	308.15	0.1511	1655.51	2.12
1	308.15	0.2008	1658.64	2.13
1	308.15	0.2992	1664.3	2.2
1	308.15	0.3712	1669	2.17
1	308.15	0.4983	1676.4	2.19
1	308.15	0.5627	1679.81	2.2
1	308.15	0.6998	1687.26	2.23
1	308.15	0.8017	1692.71	2.25
1	308.15	0.8901	1697.24	2.26
1	308.15	1.0063	1703.08	2.28

System: (S)-2-aminopropanoic acid + potassium citrate + water; phases: Liquid
Fixed: Pressure, kPa = 101
Property: Mass density, kg/m3 (Liquid); method: Vibrating tube method
Molality, mol/kg of potassium citrate	Temperature, K	Molality, mol/kg of (S)-2-aminopropanoic acid	Mass density, kg/m3	uncertainty
0.14	283.15	0	1025.048	0.361
0.14	283.15	0.1514	1029.194	0.386
0.14	283.15	0.1817	1030.024	0.391
0.14	283.15	0.251	1031.866	0.403
0.14	283.15	0.2996	1033.147	0.411
0.14	283.15	0.3976	1035.664	0.429
0.14	283.15	0.5038	1038.393	0.449
0.14	283.15	0.6069	1040.997	0.468
0.14	283.15	0.7016	1043.33	0.486
0.14	283.15	0.7987	1045.73	0.505
0.14	288.15	0	1024.201	0.36
0.14	288.15	0.1514	1028.294	0.385
0.14	288.15	0.1817	1029.116	0.39
0.14	288.15	0.251	1030.934	0.402
0.14	288.15	0.2996	1032.204	0.41
0.14	288.15	0.3976	1034.692	0.427
0.14	288.15	0.5038	1037.383	0.447
0.14	288.15	0.6069	1039.967	0.466
0.14	288.15	0.7016	1042.272	0.484
0.14	288.15	0.7987	1044.647	0.503
0.14	293.15	0	1023.095	0.358
0.14	293.15	0.1514	1027.148	0.383
0.14	293.15	0.1817	1027.962	0.388
0.14	293.15	0.251	1029.761	0.4
0.14	293.15	0.2996	1031.017	0.409
0.14	293.15	0.3976	1033.483	0.426
0.14	293.15	0.5038	1036.155	0.446
0.14	293.15	0.6069	1038.709	0.465
0.14	293.15	0.7016	1040.994	0.483
0.14	293.15	0.7987	1043.345	0.501
0.14	298.15	0	1021.763	0.357
0.14	298.15	0.1514	1025.781	0.382
0.14	298.15	0.1817	1026.587	0.387
0.14	298.15	0.251	1028.373	0.399
0.14	298.15	0.2996	1029.619	0.407
0.14	298.15	0.3976	1032.063	0.424
0.14	298.15	0.5038	1034.715	0.444
0.14	298.15	0.6069	1037.248	0.463
0.14	298.15	0.7016	1039.515	0.481
0.14	298.15	0.7987	1041.849	0.499
0.14	303.15	0	1020.221	0.355
0.14	303.15	0.1514	1024.208	0.38
0.14	303.15	0.1817	1025.009	0.385
0.14	303.15	0.251	1026.781	0.397
0.14	303.15	0.2996	1028.02	0.405
0.14	303.15	0.3976	1030.45	0.422
0.14	303.15	0.5038	1033.082	0.442
0.14	303.15	0.6069	1035.599	0.461
0.14	303.15	0.7016	1037.851	0.479
0.14	303.15	0.7987	1040.17	0.497
0.14	308.15	0	1018.486	0.353
0.14	308.15	0.1514	1022.445	0.378
0.14	308.15	0.1817	1023.242	0.383
0.14	308.15	0.251	1025.004	0.395
0.14	308.15	0.2996	1026.237	0.403
0.14	308.15	0.3976	1028.652	0.42
0.14	308.15	0.5038	1031.272	0.44
0.14	308.15	0.6069	1033.775	0.459
0.14	308.15	0.7016	1036.015	0.476
0.14	308.15	0.7987	1038.322	0.495
0.5	283.15	0	1081.767	0.628
0.5	283.15	0.1498	1085.308	0.658
0.5	283.15	0.1997	1086.463	0.67
0.5	283.15	0.2282	1087.087	0.675
0.5	283.15	0.2495	1087.569	0.69
0.5	283.15	0.3004	1088.601	0.691
0.5	283.15	0.3308	1089.396	0.702
0.5	283.15	0.4307	1091.427	0.723
0.5	283.15	0.4977	1092.991	0.737
0.5	283.15	0.6039	1095.257	0.762
0.5	283.15	0.7004	1097.242	0.784
0.5	283.15	0.7858	1098.874	0.803
0.5	283.15	0.8442	1100.206	0.821
0.5	283.15	0.8945	1101.274	0.831
0.5	283.15	1.0187	1103.644	0.856
0.5	288.15	0	1080.476	0.624
0.5	288.15	0.1498	1083.985	0.656
0.5	288.15	0.1997	1085.128	0.668
0.5	288.15	0.2282	1085.748	0.673
0.5	288.15	0.2495	1086.222	0.688
0.5	288.15	0.3004	1087.246	0.689
0.5	288.15	0.3308	1088.037	0.7
0.5	288.15	0.4307	1090.049	0.721
0.5	288.15	0.4977	1091.598	0.735
0.5	288.15	0.6039	1093.843	0.759
0.5	288.15	0.7004	1095.811	0.781
0.5	288.15	0.7858	1097.428	0.801
0.5	288.15	0.8442	1098.749	0.819
0.5	288.15	0.8945	1099.808	0.828
0.5	288.15	1.0187	1102.155	0.854
0.5	293.15	0	1078.997	0.622
0.5	293.15	0.1498	1082.474	0.653
0.5	293.15	0.1997	1083.609	0.666
0.5	293.15	0.2282	1084.224	0.67
0.5	293.15	0.2495	1084.695	0.686
0.5	293.15	0.3004	1085.71	0.687
0.5	293.15	0.3308	1086.496	0.697
0.5	293.15	0.4307	1088.492	0.718
0.5	293.15	0.4977	1090.03	0.732
0.5	293.15	0.6039	1092.259	0.757
0.5	293.15	0.7004	1094.211	0.778
0.5	293.15	0.7858	1095.817	0.798
0.5	293.15	0.8442	1097.127	0.817
0.5	293.15	0.8945	1098.18	0.825
0.5	293.15	1.0187	1100.508	0.851
0.5	298.15	0	1077.343	0.62
0.5	298.15	0.1498	1080.795	0.651
0.5	298.15	0.1997	1081.922	0.663
0.5	298.15	0.2282	1082.534	0.668
0.5	298.15	0.2495	1083.003	0.683
0.5	298.15	0.3004	1084.011	0.684
0.5	298.15	0.3308	1084.791	0.695
0.5	298.15	0.4307	1086.773	0.716
0.5	298.15	0.4977	1088.303	0.729
0.5	298.15	0.6039	1090.516	0.754
0.5	298.15	0.7004	1092.456	0.775
0.5	298.15	0.7858	1094.052	0.795
0.5	298.15	0.8442	1095.355	0.813
0.5	298.15	0.8945	1096.4	0.822
0.5	298.15	1.0187	1098.714	0.847
0.5	303.15	0	1075.527	0.617
0.5	303.15	0.1498	1078.958	0.648
0.5	303.15	0.1997	1080.079	0.66
0.5	303.15	0.2282	1080.689	0.665
0.5	303.15	0.2495	1081.153	0.68
0.5	303.15	0.3004	1082.156	0.681
0.5	303.15	0.3308	1082.931	0.692
0.5	303.15	0.4307	1084.904	0.713
0.5	303.15	0.4977	1086.423	0.726
0.5	303.15	0.6039	1088.626	0.751
0.5	303.15	0.7004	1090.556	0.772
0.5	303.15	0.7858	1092.144	0.792
0.5	303.15	0.8442	1093.44	0.81
0.5	303.15	0.8945	1094.479	0.819
0.5	303.15	1.0187	1096.782	0.844
0.5	308.15	0	1073.56	0.616
0.5	308.15	0.1498	1076.972	0.645
0.5	308.15	0.1997	1078.09	0.657
0.5	308.15	0.2282	1078.694	0.662
0.5	308.15	0.2495	1079.157	0.677
0.5	308.15	0.3004	1080.153	0.678
0.5	308.15	0.3308	1080.928	0.689
0.5	308.15	0.4307	1082.889	0.709
0.5	308.15	0.4977	1084.405	0.723
0.5	308.15	0.6039	1086.596	0.747
0.5	308.15	0.7004	1088.518	0.769
0.5	308.15	0.7858	1090.099	0.788
0.5	308.15	0.8442	1091.39	0.806
0.5	308.15	0.8945	1092.425	0.815
0.5	308.15	1.0187	1094.717	0.84
1	283.15	0	1136.184	1.067
1	283.15	0.1511	1139.123	1.105
1	283.15	0.2008	1140.024	1.117
1	283.15	0.2992	1141.812	1.142
1	283.15	0.3712	1143.186	1.161
1	283.15	0.4983	1145.501	1.193
1	283.15	0.5627	1146.695	1.21
1	283.15	0.6998	1148.835	1.244
1	283.15	0.8017	1150.675	1.27
1	283.15	0.8901	1152.065	1.293
1	283.15	1.0063	1153.625	1.321
1	288.15	0	1134.57	1.063
1	288.15	0.1511	1137.485	1.101
1	288.15	0.2008	1138.382	1.114
1	288.15	0.2992	1140.154	1.139
1	288.15	0.3712	1141.518	1.157
1	288.15	0.4983	1143.817	1.189
1	288.15	0.5627	1145.003	1.206
1	288.15	0.6998	1147.127	1.24
1	288.15	0.8017	1148.957	1.266
1	288.15	0.8901	1150.335	1.288
1	288.15	1.0063	1151.881	1.317
1	293.15	0	1132.808	1.059
1	293.15	0.1511	1135.704	1.097
1	293.15	0.2008	1136.595	1.11
1	293.15	0.2992	1138.358	1.135
1	293.15	0.3712	1139.712	1.153
1	293.15	0.4983	1141.998	1.185
1	293.15	0.5627	1143.177	1.201
1	293.15	0.6998	1145.286	1.236
1	293.15	0.8017	1147.104	1.262
1	293.15	0.8901	1148.475	1.284
1	293.15	1.0063	1150.01	1.312
1	298.15	0	1130.913	1.055
1	298.15	0.1511	1133.792	1.093
1	298.15	0.2008	1134.678	1.106
1	298.15	0.2992	1136.431	1.13
1	298.15	0.3712	1137.779	1.149
1	298.15	0.4983	1140.052	1.181
1	298.15	0.5627	1141.225	1.197
1	298.15	0.6998	1143.324	1.231
1	298.15	0.8017	1145.131	1.257
1	298.15	0.8901	1146.493	1.279
1	298.15	1.0063	1148.023	1.307
1	303.15	0	1128.892	1.051
1	303.15	0.1511	1131.753	1.089
1	303.15	0.2008	1132.635	1.101
1	303.15	0.2992	1134.381	1.126
1	303.15	0.3712	1135.721	1.144
1	303.15	0.4983	1137.986	1.176
1	303.15	0.5627	1139.155	1.192
1	303.15	0.6998	1141.246	1.226
1	303.15	0.8017	1143.044	1.252
1	303.15	0.8901	1144.403	1.274
1	303.15	1.0063	1145.922	1.302
1	308.15	0	1126.747	1.047
1	308.15	0.1511	1129.597	1.084
1	308.15	0.2008	1130.474	1.096
1	308.15	0.2992	1132.215	1.121
1	308.15	0.3712	1133.55	1.139
1	308.15	0.4983	1135.807	1.171
1	308.15	0.5627	1136.972	1.187
1	308.15	0.6998	1139.052	1.221
1	308.15	0.8017	1140.846	1.246
1	308.15	0.8901	1142.2	1.268
1	308.15	1.0063	1143.713	1.296
