Measured thermophysical data. Activity coefficients in binary mixtures formed by cyclohexanone with a variety of compounds at 94.7 kPa
Source: Fluid Phase Equilib., 2005, 10.1016/j.fluid.2005.06.022
Compound 1: cyclohexanone, C6H10O, InChI=1S/C6H10O/c7-6-4-2-1-3-5-6/h1-5H2
Compound 2: acrylonitrile, C3H3N, InChI=1S/C3H3N/c1-2-3-4/h2H,1H2
Compound 3: tetrachloromethane, CCl4, InChI=1S/CCl4/c2-1(3,4)5
Compound 4: 2-cyanopyrazine, C5H3N3, InChI=1S/C5H3N3/c6-3-5-4-7-1-2-8-5/h1-2,4H
Compound 5: cyclohexane, C6H12, InChI=1S/C6H12/c1-2-4-6-5-3-1/h1-6H2
Compound 6: 2-methylpyrazine, C5H6N2, InChI=1S/C5H6N2/c1-5-4-6-2-3-7-5/h2-4H,1H3

System: cyclohexanone; phases: Liquid
Property: Refractive index (Na D-line) (Liquid); method: Standard Abbe refractometry
Temperature, K	Pressure, kPa	Refractive index (Na D-line)	uncertainty
293.15	101.325	1.451	0.0012

System: cyclohexanone; phases: Liquid
Property: Molar volume, m3/mol (Liquid); method: PYCNOM:UFactor:16
Temperature, K	Pressure, kPa	Molar volume, m3/mol	uncertainty
293.15	101.325	0.00010384	5.68e-07

System: cyclohexanone; phases: Liquid, Gas
Property: Vapor or sublimation pressure, kPa (Liquid); method: EBULLIO:UFactor:32
Temperature, K	Vapor or sublimation pressure, kPa	uncertainty
426.35	94.7	4.8
426.85	94.7	4.8

System: acrylonitrile; phases: Liquid
Property: Refractive index (Na D-line) (Liquid); method: Standard Abbe refractometry
Temperature, K	Pressure, kPa	Refractive index (Na D-line)	uncertainty
298.15	101.325	1.3888	0.0012

System: acrylonitrile; phases: Liquid
Property: Molar volume, m3/mol (Liquid); method: PYCNOM:UFactor:16
Temperature, K	Pressure, kPa	Molar volume, m3/mol	uncertainty
298.15	101.325	6.6292e-05	3.62e-07

System: acrylonitrile; phases: Liquid, Gas
Property: Vapor or sublimation pressure, kPa (Liquid); method: EBULLIO:UFactor:32
Temperature, K	Vapor or sublimation pressure, kPa	uncertainty
348.55	94.7	4.8

System: tetrachloromethane; phases: Liquid
Property: Refractive index (Na D-line) (Liquid); method: Standard Abbe refractometry
Temperature, K	Pressure, kPa	Refractive index (Na D-line)	uncertainty
298.15	101.325	1.4574	0.0012

System: tetrachloromethane; phases: Liquid
Property: Molar volume, m3/mol (Liquid); method: PYCNOM:UFactor:16
Temperature, K	Pressure, kPa	Molar volume, m3/mol	uncertainty
298.15	101.325	9.7084e-05	6.02e-07

System: tetrachloromethane; phases: Liquid, Gas
Property: Vapor or sublimation pressure, kPa (Liquid); method: EBULLIO:UFactor:32
Temperature, K	Vapor or sublimation pressure, kPa	uncertainty
347.85	94.7	4.8

System: 2-cyanopyrazine; phases: Liquid
Property: Refractive index (Na D-line) (Liquid); method: Standard Abbe refractometry
Temperature, K	Pressure, kPa	Refractive index (Na D-line)	uncertainty
293.15	101.325	1.534	0.0012

System: 2-cyanopyrazine; phases: Liquid
Property: Molar volume, m3/mol (Liquid); method: PYCNOM:UFactor:16
Temperature, K	Pressure, kPa	Molar volume, m3/mol	uncertainty
293.15	101.325	8.952e-05	5.15e-07

System: 2-cyanopyrazine; phases: Liquid, Gas
Property: Vapor or sublimation pressure, kPa (Liquid); method: EBULLIO:UFactor:32
Temperature, K	Vapor or sublimation pressure, kPa	uncertainty
476.05	94.7	4.8

System: cyclohexane; phases: Liquid
Property: Refractive index (Na D-line) (Liquid); method: Standard Abbe refractometry
Temperature, K	Pressure, kPa	Refractive index (Na D-line)	uncertainty
298.15	101.325	1.4235	0.0012

System: cyclohexane; phases: Liquid
Property: Molar volume, m3/mol (Liquid); method: PYCNOM:UFactor:16
Temperature, K	Pressure, kPa	Molar volume, m3/mol	uncertainty
298.15	101.325	0.000108748	5.89e-07

System: cyclohexane; phases: Liquid, Gas
Property: Vapor or sublimation pressure, kPa (Liquid); method: EBULLIO:UFactor:32
Temperature, K	Vapor or sublimation pressure, kPa	uncertainty
351.85	94.7	4.8

System: 2-methylpyrazine; phases: Liquid
Property: Refractive index (Na D-line) (Liquid); method: Standard Abbe refractometry
Temperature, K	Pressure, kPa	Refractive index (Na D-line)	uncertainty
293.15	101.325	1.505	0.0012

System: 2-methylpyrazine; phases: Liquid
Property: Molar volume, m3/mol (Liquid); method: PYCNOM:UFactor:16
Temperature, K	Pressure, kPa	Molar volume, m3/mol	uncertainty
293.15	101.325	9.1379e-05	5.1e-07

System: 2-methylpyrazine; phases: Liquid, Gas
Property: Vapor or sublimation pressure, kPa (Liquid); method: EBULLIO:UFactor:32
Temperature, K	Vapor or sublimation pressure, kPa	uncertainty
396.65	94.7	4.8

System: acrylonitrile + cyclohexanone; phases: Liquid, Gas
Fixed: Pressure, kPa = 94.7
Property: Boiling temperature at pressure P, K (Liquid); method: EBULLIO:UFactor:32
Mole fraction of acrylonitrile	Boiling temperature at pressure P, K	uncertainty
0	426.35	1.33
0.1002	410.55	1.33
0.2079	397.25	1.33
0.3003	388.05	1.33
0.3962	379.95	1.33
0.5002	372.45	1.33
0.6116	365.55	1.33
0.7002	360.75	1.33
0.7902	356.45	1.33
0.9002	351.95	1.33
1	348.55	1.33

System: tetrachloromethane + cyclohexanone; phases: Liquid, Gas
Fixed: Pressure, kPa = 94.7
Property: Boiling temperature at pressure P, K (Liquid); method: EBULLIO:UFactor:32
Mole fraction of tetrachloromethane	Boiling temperature at pressure P, K	uncertainty
0	426.35	1.33
0.1002	397.15	1.33
0.2106	385.25	1.33
0.3002	378.65	1.33
0.4157	371.65	1.33
0.5002	367.15	1.33
0.6115	361.95	1.33
0.7001	358.15	1.33
0.9002	350.95	1.33
1	347.85	1.33

System: cyclohexanone + 2-cyanopyrazine; phases: Liquid, Gas
Fixed: Pressure, kPa = 94.7
Property: Boiling temperature at pressure P, K (Liquid); method: EBULLIO:UFactor:32
Mole fraction of cyclohexanone	Boiling temperature at pressure P, K	uncertainty
0	476.05	1.33
0.1662	467.85	1.33
0.285	461.95	1.33
0.4436	453.95	1.33
0.6019	445.65	1.33
0.7514	437.95	1.33
0.9236	429.45	1.33
1	426.35	1.33

System: cyclohexanone + cyclohexane; phases: Liquid, Gas
Fixed: Pressure, kPa = 94.7
Property: Boiling temperature at pressure P, K (Liquid); method: EBULLIO:UFactor:32
Mole fraction of cyclohexane	Boiling temperature at pressure P, K	uncertainty
0	426.35	1.33
0.1001	397.65	1.33
0.1934	384.95	1.33
0.3002	376.85	1.33
0.39	371.65	1.33
0.5001	366.95	1.33
0.6092	363.15	1.33
0.7002	360.35	1.33
0.806	357.25	1.33
0.9002	354.55	1.33
1	351.85	1.33

System: cyclohexanone + 2-methylpyrazine; phases: Liquid, Gas
Fixed: Pressure, kPa = 94.7
Property: Boiling temperature at pressure P, K (Liquid); method: EBULLIO:UFactor:32
Mole fraction of 2-methylpyrazine	Boiling temperature at pressure P, K	uncertainty
0	426.85	1.33
0.1394	416.55	1.33
0.2882	412.85	1.33
0.4475	409.15	1.33
0.6135	405.25	1.33
0.7605	401.65	1.33
0.8881	398.95	1.33
1	396.65	1.33
