Measured thermophysical data. Isobaric vapor-liquid equilibria for the binary systems 1-propyl alcohol + dipropyl ether and 1-butyl alcohol + dibutyl ether at 20 and 101.3 kPa
Source: Fluid Phase Equilib., 2006, 10.1016/j.fluid.2006.06.017
Compound 1: propan-1-ol, C3H8O, InChI=1S/C3H8O/c1-2-3-4/h4H,2-3H2,1H3, purity 99.5%
Compound 2: butan-1-ol, C4H10O, InChI=1S/C4H10O/c1-2-3-4-5/h5H,2-4H2,1H3, purity 99.8%
Compound 3: dipropyl ether, C6H14O, InChI=1S/C6H14O/c1-3-5-7-6-4-2/h3-6H2,1-2H3, purity 90%
Compound 4: dibutyl ether, C8H18O, InChI=1S/C8H18O/c1-3-5-7-9-8-6-4-2/h3-8H2,1-2H3, purity 99.5%

System: propan-1-ol; phases: Liquid
Property: Refractive index (Na D-line) (Liquid); method: Standard Abbe refractometry
Temperature, K	Pressure, kPa	Refractive index (Na D-line)	uncertainty
298.15	101.325	1.3836	0.0005

System: propan-1-ol; phases: Liquid
Property: Mass density, kg/m3 (Liquid); method: VIBTUB:UFactor:4
Temperature, K	Pressure, kPa	Mass density, kg/m3	uncertainty
298.15	101.325	799.62	0.48

System: propan-1-ol; phases: Liquid, Gas
Property: Vapor or sublimation pressure, kPa (Liquid); method: Ebulliometric method (Recirculating still)
Temperature, K	Vapor or sublimation pressure, kPa	uncertainty
332.63	20	1
369.75	101.3	0.2

System: butan-1-ol; phases: Liquid
Property: Refractive index (Na D-line) (Liquid); method: Standard Abbe refractometry
Temperature, K	Pressure, kPa	Refractive index (Na D-line)	uncertainty
298.15	101.325	1.3976	0.0005

System: butan-1-ol; phases: Liquid
Property: Mass density, kg/m3 (Liquid); method: VIBTUB:UFactor:2
Temperature, K	Pressure, kPa	Mass density, kg/m3	uncertainty
298.15	101.325	805.65	0.22

System: butan-1-ol; phases: Liquid, Gas
Property: Vapor or sublimation pressure, kPa (Liquid); method: Ebulliometric method (Recirculating still)
Temperature, K	Vapor or sublimation pressure, kPa	uncertainty
351.18	20	1
390.75	101.3	0.2

System: dipropyl ether; phases: Liquid
Property: Refractive index (Na D-line) (Liquid); method: Standard Abbe refractometry
Temperature, K	Pressure, kPa	Refractive index (Na D-line)	uncertainty
298.15	101.325	1.3784	0.0005

System: dipropyl ether; phases: Liquid
Property: Mass density, kg/m3 (Liquid); method: VIBTUB:UFactor:4
Temperature, K	Pressure, kPa	Mass density, kg/m3	uncertainty
298.15	101.325	741.81	0.56

System: dipropyl ether; phases: Liquid, Gas
Property: Vapor or sublimation pressure, kPa (Liquid); method: Ebulliometric method (Recirculating still)
Temperature, K	Vapor or sublimation pressure, kPa	uncertainty
302.6	10.47	0.2
306.36	12.43	0.2
310.41	14.95	0.2
313.39	16.91	0.2
315.97	18.97	0.2
317.33	20	1
318.45	20.97	0.2
320.69	22.93	0.2
323.79	25.95	0.2
326.58	28.97	0.21
329.15	31.95	0.21
331.52	34.95	0.21
333.76	37.95	0.21
335.79	40.9	0.21
337.8	43.95	0.21
339.62	46.85	0.21
341.27	49.7	0.21
343.07	52.91	0.22
345.22	56.95	0.22
347.19	60.85	0.22
349.07	64.87	0.22
351.36	69.9	0.22
353.45	74.84	0.23
355.48	79.91	0.23
357.37	84.8	0.23
359.21	89.75	0.23
360.93	94.65	0.24
363.16	101.3	0.24

System: dibutyl ether; phases: Liquid
Property: Refractive index (Na D-line) (Liquid); method: Standard Abbe refractometry
Temperature, K	Pressure, kPa	Refractive index (Na D-line)	uncertainty
298.15	101.325	1.397	0.0005

System: dibutyl ether; phases: Liquid
Property: Mass density, kg/m3 (Liquid); method: VIBTUB:UFactor:4
Temperature, K	Pressure, kPa	Mass density, kg/m3	uncertainty
298.15	101.325	764.04	0.53

System: dibutyl ether; phases: Liquid, Gas
Property: Vapor or sublimation pressure, kPa (Liquid); method: Ebulliometric method (Recirculating still)
Temperature, K	Vapor or sublimation pressure, kPa	uncertainty
346.03	10.04	0.2
350.43	12.03	0.2
354.18	14.02	0.2
359.28	17.1	0.2
363.41	20.02	0.2
363.51	20	1
367.17	23.04	0.2
370.72	26.18	0.2
373.59	28.95	0.2
376.37	31.96	0.21
379.91	35.96	0.21
383.09	39.94	0.21
386.03	43.95	0.21
388.78	47.95	0.21
391.29	51.85	0.21
393.59	55.85	0.21
395.84	59.9	0.22
398.48	64.9	0.22
400.94	69.92	0.22
403.18	74.81	0.22
405.4	79.93	0.22
407.43	84.78	0.23
409.2	89.87	0.23
411.12	94.88	0.23
413.11	100.12	0.23
413.67	101.3	0.22

System: propan-1-ol + dipropyl ether; phases: Liquid, Gas
Property: Azeotropic temperature, K (Liquid); method: By T(X) extreme
Pressure, kPa	Azeotropic temperature, K	uncertainty
20	315.75	0.32
101.3	358.31	0.32

System: propan-1-ol + dipropyl ether; phases: Liquid, Gas
Property: Azeotropic composition: mole fraction of propan-1-ol (Liquid); method: By T or P extreme
Pressure, kPa	Azeotropic composition: mole fraction of propan-1-ol	uncertainty
20	0.1771	0.0031
101.3	0.3353	0.005

System: propan-1-ol + dipropyl ether; phases: Liquid, Gas
Property: Boiling temperature at pressure P, K (Liquid); method: Ebulliometric method (Recirculating still)
Mole fraction of propan-1-ol	Pressure, kPa	Boiling temperature at pressure P, K	uncertainty
0	20	317.33	0.18
0	101.3	363.16	0.28
0.051	101.3	361.38	0.36
0.058	20	316.35	0.19
0.104	101.3	360.07	0.32
0.152	20	315.86	0.17
0.166	101.3	359.17	0.28
0.21	20	315.84	0.16
0.234	101.3	358.65	0.27
0.268	20	315.91	0.16
0.296	101.3	358.45	0.26
0.327	20	316.09	0.16
0.354	101.3	358.38	0.26
0.406	20	316.41	0.17
0.413	101.3	358.44	0.26
0.471	20	316.79	0.17
0.474	101.3	358.66	0.26
0.524	20	317.2	0.17
0.529	101.3	358.94	0.26
0.582	101.3	359.29	0.27
0.583	20	317.77	0.18
0.629	20	318.31	0.19
0.636	101.3	359.84	0.27
0.674	20	318.94	0.2
0.688	101.3	360.44	0.28
0.72	20	319.71	0.22
0.742	101.3	361.25	0.29
0.764	20	320.7	0.25
0.787	101.3	362.09	0.3
0.806	20	321.84	0.3
0.836	101.3	363.25	0.33
0.848	20	323.33	0.34
0.884	101.3	364.69	0.36
0.886	20	324.89	0.4
0.91	101.3	365.64	0.4
0.923	20	326.82	0.49
0.94	101.3	366.91	0.43
0.957	20	329.05	0.59
0.975	101.3	368.5	0.44
0.984	20	331.22	0.68
1	20	332.63	0.14
1	101.3	369.75	0.23

System: propan-1-ol + dipropyl ether; phases: Gas, Liquid
Property: Mole fraction of propan-1-ol (Gas); method: Chromatography
Mole fraction of propan-1-ol	Pressure, kPa	Mole fraction of propan-1-ol	uncertainty
0	20	0	0.001
0	101.3	0	0.001
0.051	101.3	0.096	0.015
0.058	20	0.091	0.012
0.104	101.3	0.168	0.012
0.152	20	0.165	0.01
0.166	101.3	0.229	0.011
0.21	20	0.193	0.009
0.234	101.3	0.28	0.01
0.268	20	0.216	0.009
0.296	101.3	0.316	0.01
0.327	20	0.236	0.009
0.354	101.3	0.344	0.01
0.406	20	0.26	0.009
0.413	101.3	0.376	0.009
0.471	20	0.281	0.009
0.474	101.3	0.401	0.01
0.524	20	0.308	0.009
0.529	101.3	0.429	0.01
0.582	101.3	0.456	0.01
0.583	20	0.326	0.009
0.629	20	0.348	0.01
0.636	101.3	0.489	0.01
0.674	20	0.375	0.01
0.688	101.3	0.521	0.011
0.72	20	0.407	0.011
0.742	101.3	0.561	0.011
0.764	20	0.444	0.012
0.787	101.3	0.602	0.012
0.806	20	0.487	0.013
0.836	101.3	0.654	0.013
0.848	20	0.547	0.015
0.884	101.3	0.717	0.014
0.886	20	0.611	0.018
0.91	101.3	0.764	0.018
0.923	20	0.694	0.023
0.94	101.3	0.829	0.02
0.957	20	0.802	0.03
0.975	101.3	0.911	0.024
0.984	20	0.919	0.037
1	20	1	0.001
1	101.3	1	0.001

System: butan-1-ol + dibutyl ether; phases: Liquid, Gas
Property: Azeotropic temperature, K (Liquid); method: By T(X) extreme
Pressure, kPa	Azeotropic temperature, K	uncertainty
20	349.45	0.32
101.3	390.29	0.32

System: butan-1-ol + dibutyl ether; phases: Liquid, Gas
Property: Azeotropic composition: mole fraction of butan-1-ol (Liquid); method: By T or P extreme
Pressure, kPa	Azeotropic composition: mole fraction of butan-1-ol	uncertainty
20	0.7087	0.0045
101.3	0.8858	0.0024

System: butan-1-ol + dibutyl ether; phases: Liquid, Gas
Property: Boiling temperature at pressure P, K (Liquid); method: Ebulliometric method (Recirculating still)
Mole fraction of butan-1-ol	Pressure, kPa	Boiling temperature at pressure P, K	uncertainty
0	20	363.51	0.19
0	101.3	413.67	0.31
0.011	20	362.77	0.75
0.025	101.3	411.08	0.9
0.03	20	360.85	0.73
0.05	101.3	408.39	0.8
0.052	20	359.17	0.58
0.082	101.3	405.77	0.67
0.083	20	357.21	0.47
0.116	101.3	403.47	0.6
0.119	20	355.56	0.37
0.141	101.3	401.9	0.57
0.157	20	354.24	0.31
0.196	101.3	398.58	0.47
0.197	20	353.11	0.24
0.25	101.3	396.73	0.38
0.256	20	352.13	0.21
0.289	101.3	395.51	0.34
0.336	20	351.06	0.19
0.339	101.3	394.47	0.3
0.389	101.3	393.78	0.29
0.393	20	350.4	0.18
0.436	101.3	393.09	0.28
0.451	20	350.06	0.17
0.492	101.3	392.49	0.27
0.509	20	349.75	0.17
0.555	101.3	391.74	0.27
0.569	20	349.48	0.16
0.621	101.3	391.21	0.26
0.631	20	349.38	0.16
0.677	101.3	390.98	0.26
0.69	20	349.32	0.16
0.739	101.3	390.51	0.25
0.75	20	349.36	0.16
0.8	101.3	390.33	0.25
0.809	20	349.49	0.16
0.863	101.3	390.28	0.25
0.87	20	349.85	0.16
0.929	101.3	390.41	0.25
0.934	20	350.3	0.17
1	20	351.18	0.15
1	101.3	390.75	0.24

System: butan-1-ol + dibutyl ether; phases: Gas, Liquid
Property: Mole fraction of butan-1-ol (Gas); method: Chromatography
Mole fraction of butan-1-ol	Pressure, kPa	Mole fraction of butan-1-ol	uncertainty
0	20	0	0.001
0	101.3	0	0.001
0.011	20	0.052	0.035
0.025	101.3	0.101	0.03
0.03	20	0.129	0.029
0.05	101.3	0.181	0.024
0.052	20	0.196	0.024
0.082	101.3	0.265	0.02
0.083	20	0.276	0.019
0.116	101.3	0.334	0.018
0.119	20	0.342	0.016
0.141	101.3	0.385	0.016
0.157	20	0.396	0.013
0.196	101.3	0.475	0.014
0.197	20	0.438	0.011
0.25	101.3	0.523	0.011
0.256	20	0.481	0.011
0.289	101.3	0.557	0.011
0.336	20	0.538	0.01
0.339	101.3	0.59	0.01
0.389	101.3	0.622	0.01
0.393	20	0.556	0.01
0.436	101.3	0.645	0.009
0.451	20	0.585	0.01
0.492	101.3	0.67	0.009
0.509	20	0.611	0.009
0.555	101.3	0.7	0.009
0.569	20	0.637	0.009
0.621	101.3	0.729	0.009
0.631	20	0.667	0.009
0.677	101.3	0.759	0.009
0.69	20	0.697	0.01
0.739	101.3	0.788	0.009
0.75	20	0.734	0.01
0.8	101.3	0.824	0.01
0.809	20	0.776	0.01
0.863	101.3	0.868	0.01
0.87	20	0.83	0.011
0.929	101.3	0.919	0.011
0.934	20	0.899	0.013
1	20	1	0.001
1	101.3	1	0.001
