Measured thermophysical data. Solubility of ethyl-(2-hydroxyethyl)-dimethylammonium bromide in alcohols (C2 C12)
Source: Fluid Phase Equilib., 2005, 10.1016/j.fluid.2005.05.015
Compound 1: butan-1-ol, C4H10O, InChI=1S/C4H10O/c1-2-3-4-5/h5H,2-4H2,1H3
Compound 2: hexan-1-ol, C6H14O, InChI=1S/C6H14O/c1-2-3-4-5-6-7/h7H,2-6H2,1H3
Compound 3: octan-1-ol, C8H18O, InChI=1S/C8H18O/c1-2-3-4-5-6-7-8-9/h9H,2-8H2,1H3
Compound 4: decan-1-ol, C10H22O, InChI=1S/C10H22O/c1-2-3-4-5-6-7-8-9-10-11/h11H,2-10H2,1H3
Compound 5: dodecan-1-ol, C12H26O, InChI=1S/C12H26O/c1-2-3-4-5-6-7-8-9-10-11-12-13/h13H,2-12H2,1H3
Compound 6: butan-2-ol, C4H10O, InChI=1S/C4H10O/c1-3-4(2)5/h4-5H,3H2,1-2H3
Compound 7: 2-methylpropan-2-ol, C4H10O, InChI=1S/C4H10O/c1-4(2,3)5/h5H,1-3H3
Compound 8: ethyl(2-hydroxyethyl)dimethylammonium bromide, C6H16BrNO, InChI=1S/C6H16NO.BrH/c1-4-7(2,3)5-6-8;/h8H,4-6H2,1-3H3;1H/q+1;/p-1
Compound 9: ethanol, C2H6O, InChI=1S/C2H6O/c1-2-3/h3H,2H2,1H3

System: ethyl(2-hydroxyethyl)dimethylammonium bromide; phases: Crystal 1, Liquid, Air at 1 atmosphere
Property: Normal melting temperature, K (Crystal 1); method: VISOBS
Normal melting temperature, K	uncertainty
541.45	1

System: butan-1-ol + ethyl(2-hydroxyethyl)dimethylammonium bromide; phases: Liquid, Crystal 1
Fixed: Pressure, kPa = 101.325
Property: Solid-liquid equilibrium temperature, K (Liquid); method: VISOBS:UFactor:8
Mole fraction of ethyl(2-hydroxyethyl)dimethylammonium bromide	Solid-liquid equilibrium temperature, K	uncertainty
0.1275	351.11	1.27
0.1392	357.87	1.27
0.1508	362.99	1.26
0.1751	375.86	1.26
0.2154	394.13	1.26
0.3084	432.93	1.26
1	541.45	1.24

System: butan-1-ol + ethyl(2-hydroxyethyl)dimethylammonium bromide; phases: Liquid, Crystal 2
Fixed: Pressure, kPa = 101.325
Property: Solid-liquid equilibrium temperature, K (Liquid); method: VISOBS:UFactor:8
Mole fraction of ethyl(2-hydroxyethyl)dimethylammonium bromide	Solid-liquid equilibrium temperature, K	uncertainty
0.0313	278.99	1.59
0.0362	288.78	1.52
0.0411	296.22	1.41
0.0512	308.99	1.37
0.0573	315.14	1.3
0.0756	328.98	1.29
0.0846	335.51	1.27
0.0982	341.75	1.25
0.1158	346.02	1.25

System: ethanol + ethyl(2-hydroxyethyl)dimethylammonium bromide; phases: Liquid, Crystal 2
Fixed: Pressure, kPa = 101.325
Property: Solid-liquid equilibrium temperature, K (Liquid); method: VISOBS:UFactor:16
Mole fraction of ethyl(2-hydroxyethyl)dimethylammonium bromide	Solid-liquid equilibrium temperature, K	uncertainty
0.0775	275.71	2.51
0.0842	280.94	2.49
0.1024	288.02	2.48
0.105	287.62	2.48
0.1234	295.3	2.49
0.135	300.45	2.48
0.1456	302.58	2.49
0.1458	303.98	2.49
0.1567	308.35	2.49
0.1679	313.48	2.48
0.2013	322.41	2.48
0.223	327.29	2.48
0.2231	328.18	2.48
0.2453	334	2.48
0.2456	334.19	2.48
0.2677	337.78	2.48
0.3033	342.48	2.48

System: ethanol + ethyl(2-hydroxyethyl)dimethylammonium bromide; phases: Liquid, Crystal 1
Fixed: Pressure, kPa = 101.325
Property: Solid-liquid equilibrium temperature, K (Liquid); method: VISOBS:UFactor:8
Mole fraction of ethyl(2-hydroxyethyl)dimethylammonium bromide	Solid-liquid equilibrium temperature, K	uncertainty
0.3457	349.33	1.26
0.3679	360.32	1.28
0.3913	378.68	1.31
0.4256	407.71	1.29
0.4588	424.85	1.27
1	541.45	1.24

System: butan-2-ol + ethyl(2-hydroxyethyl)dimethylammonium bromide; phases: Liquid, Crystal 1
Fixed: Pressure, kPa = 101.325
Property: Solid-liquid equilibrium temperature, K (Liquid); method: VISOBS:UFactor:8
Mole fraction of ethyl(2-hydroxyethyl)dimethylammonium bromide	Solid-liquid equilibrium temperature, K	uncertainty
0.1105	350.26	1.3
0.1179	356.06	1.28
0.1352	366.11	1.27
0.1428	370.86	1.27
0.1645	382.99	1.27
0.1895	397.45	1.26
0.2415	416.09	1.25
0.2745	428.32	1.25
1	541.45	1.24

System: butan-2-ol + ethyl(2-hydroxyethyl)dimethylammonium bromide; phases: Liquid, Crystal 2
Fixed: Pressure, kPa = 101.325
Property: Solid-liquid equilibrium temperature, K (Liquid); method: VISOBS:UFactor:8
Mole fraction of ethyl(2-hydroxyethyl)dimethylammonium bromide	Solid-liquid equilibrium temperature, K	uncertainty
0.058	276.1	2.84
0.0598	285.3	1.88
0.0654	298.14	1.71
0.0738	318.23	1.6
0.08	327.3	1.43
0.0841	333.1	1.34
0.0906	338.52	1.29
0.0989	344.18	1.27
0.1044	346.14	1.25

System: 2-methylpropan-2-ol + ethyl(2-hydroxyethyl)dimethylammonium bromide; phases: Crystal 2, Crystal, Liquid, Air at 1 atmosphere
Property: Eutectic temperature, K (Crystal 2); method: PHASDIA:
Eutectic temperature, K	uncertainty
294.16	1

System: 2-methylpropan-2-ol + ethyl(2-hydroxyethyl)dimethylammonium bromide; phases: Crystal 2, Crystal, Liquid, Air at 1 atmosphere
Property: Eutectic composition: mole fraction of ethyl(2-hydroxyethyl)dimethylammonium bromide (Crystal 2); method: Derived from phase diagram analysis
Eutectic composition: mole fraction of ethyl(2-hydroxyethyl)dimethylammonium bromide	uncertainty
0.0053	0.0005

System: 2-methylpropan-2-ol + ethyl(2-hydroxyethyl)dimethylammonium bromide; phases: Liquid, Crystal 1
Fixed: Pressure, kPa = 101.325
Property: Solid-liquid equilibrium temperature, K (Liquid); method: VISOBS:UFactor:8
Mole fraction of ethyl(2-hydroxyethyl)dimethylammonium bromide	Solid-liquid equilibrium temperature, K	uncertainty
0.0142	347.81	2.34
0.0149	351.66	2.1
0.0168	358.11	2.07
0.0199	366.77	1.9
0.0212	370.57	1.76
0.0227	375.08	1.7
0.0256	380.08	1.54
0.0323	392.54	1.45
0.0399	401.91	1.3
0.0642	418.26	1.28
1	541.45	1.24

System: 2-methylpropan-2-ol + ethyl(2-hydroxyethyl)dimethylammonium bromide; phases: Liquid, Crystal 2
Fixed: Pressure, kPa = 101.325
Property: Solid-liquid equilibrium temperature, K (Liquid); method: VISOBS:UFactor:8
Mole fraction of ethyl(2-hydroxyethyl)dimethylammonium bromide	Solid-liquid equilibrium temperature, K	uncertainty
0.0053	294.16	3.91
0.0066	303.8	4.3
0.0078	314.8	4.22
0.0088	321.93	3.91
0.0093	325.66	3.33
0.0102	330.19	3.01
0.0111	335.29	2.74
0.0121	340.07	2.56
0.0129	343.27	2.54
0.0136	345.29	2.14

System: 2-methylpropan-2-ol + ethyl(2-hydroxyethyl)dimethylammonium bromide; phases: Liquid, Crystal
Fixed: Pressure, kPa = 101.325
Property: Solid-liquid equilibrium temperature, K (Liquid); method: VISOBS:UFactor:8
Mole fraction of ethyl(2-hydroxyethyl)dimethylammonium bromide	Solid-liquid equilibrium temperature, K	uncertainty
0	297.99	1.24
0.0005	297.53	1.24
0.0007	297.24	1.24
0.0031	295.91	1.24

System: hexan-1-ol + ethyl(2-hydroxyethyl)dimethylammonium bromide; phases: Liquid, Crystal 1
Fixed: Pressure, kPa = 101.325
Property: Solid-liquid equilibrium temperature, K (Liquid); method: VISOBS:UFactor:8
Mole fraction of ethyl(2-hydroxyethyl)dimethylammonium bromide	Solid-liquid equilibrium temperature, K	uncertainty
0.0444	349.38	1.59
0.0466	353.76	1.66
0.0501	361.92	1.47
0.0539	365.37	1.33
0.0685	380.04	1.28
0.116	405.82	1.27
1	541.45	1.24

System: hexan-1-ol + ethyl(2-hydroxyethyl)dimethylammonium bromide; phases: Liquid, Crystal 2
Fixed: Pressure, kPa = 101.325
Property: Solid-liquid equilibrium temperature, K (Liquid); method: VISOBS:UFactor:8
Mole fraction of ethyl(2-hydroxyethyl)dimethylammonium bromide	Solid-liquid equilibrium temperature, K	uncertainty
0.0028	275.96	3.25
0.0044	285.59	3
0.0056	291.19	2.42
0.007	296.42	2.15
0.0084	301.06	1.97
0.0098	304.96	1.77
0.0117	309.4	1.75
0.0134	313.84	1.68
0.0157	318.5	1.54
0.018	322.2	1.46
0.0196	324.53	1.44
0.0215	327.27	1.43
0.0243	331.27	1.38
0.0271	334.15	1.34
0.0289	335.99	1.32
0.0311	337.85	1.36
0.0335	341.05	1.31
0.034	341.61	1.32
0.0373	343.44	1.26
0.0404	344.63	1.25
0.0413	345.13	1.26

System: octan-1-ol + ethyl(2-hydroxyethyl)dimethylammonium bromide; phases: Crystal, Crystal 2, Liquid, Air at 1 atmosphere
Property: Eutectic temperature, K (Crystal); method: Derived from phase diagram analysis
Eutectic temperature, K	uncertainty
245.88	1

System: octan-1-ol + ethyl(2-hydroxyethyl)dimethylammonium bromide; phases: Crystal, Crystal 2, Liquid, Air at 1 atmosphere
Property: Eutectic composition: mole fraction of ethyl(2-hydroxyethyl)dimethylammonium bromide (Crystal); method: Derived from phase diagram analysis
Eutectic composition: mole fraction of ethyl(2-hydroxyethyl)dimethylammonium bromide	uncertainty
0.0023	0.0005

System: octan-1-ol + ethyl(2-hydroxyethyl)dimethylammonium bromide; phases: Liquid, Crystal 1
Fixed: Pressure, kPa = 101.325
Property: Solid-liquid equilibrium temperature, K (Liquid); method: VISOBS:UFactor:8
Mole fraction of ethyl(2-hydroxyethyl)dimethylammonium bromide	Solid-liquid equilibrium temperature, K	uncertainty
0.0265	346.65	2.05
0.028	351.78	2.11
0.0295	356.46	2.06
0.0295	356.59	2.06
0.0306	360.26	2.04
0.0315	363.71	2.05
0.0328	367.33	1.44
0.0419	376.11	1.32
0.0507	383.32	1.28
0.07	393.78	1.27
1	541.45	1.24

System: octan-1-ol + ethyl(2-hydroxyethyl)dimethylammonium bromide; phases: Liquid, Crystal 2
Fixed: Pressure, kPa = 101.325
Property: Solid-liquid equilibrium temperature, K (Liquid); method: VISOBS:UFactor:8
Mole fraction of ethyl(2-hydroxyethyl)dimethylammonium bromide	Solid-liquid equilibrium temperature, K	uncertainty
0.0029	256.22	8.19
0.0035	267.43	7.49
0.0041	275.65	6.92
0.0047	285.17	6.36
0.0049	292.16	6.07
0.0058	296.05	3.13
0.006	296.48	2.56
0.0066	300.93	2.54
0.0085	308.16	2.11
0.0118	318.78	1.81
0.0154	326.49	1.64
0.0164	328.41	1.64
0.02	336.41	1.63
0.0218	339.79	1.56
0.0225	341.53	1.51
0.023	342.14	1.46
0.0235	343.84	1.39
0.0242	343.49	1.33
0.0244	343.85	1.33
0.0255	344.49	1.27

System: octan-1-ol + ethyl(2-hydroxyethyl)dimethylammonium bromide; phases: Liquid, Crystal
Fixed: Pressure, kPa = 101.325
Property: Solid-liquid equilibrium temperature, K (Liquid); method: VISOBS:UFactor:8
Mole fraction of ethyl(2-hydroxyethyl)dimethylammonium bromide	Solid-liquid equilibrium temperature, K	uncertainty
0	258.17	1.24
0.0008	255.46	1.24
0.0017	249.31	1.24
0.0023	245.88	1.24

System: decan-1-ol + ethyl(2-hydroxyethyl)dimethylammonium bromide; phases: Crystal, Crystal 2, Liquid, Air at 1 atmosphere
Property: Eutectic temperature, K (Crystal); method: PHASDIA:
Eutectic temperature, K	uncertainty
273.16	1

System: decan-1-ol + ethyl(2-hydroxyethyl)dimethylammonium bromide; phases: Crystal, Crystal 2, Liquid, Air at 1 atmosphere
Property: Eutectic composition: mole fraction of ethyl(2-hydroxyethyl)dimethylammonium bromide (Crystal); method: OTHER:::sMethod:synthetic method
Eutectic composition: mole fraction of ethyl(2-hydroxyethyl)dimethylammonium bromide	uncertainty
0.0015	0.0005

System: decan-1-ol + ethyl(2-hydroxyethyl)dimethylammonium bromide; phases: Liquid, Crystal 1
Fixed: Pressure, kPa = 101.325
Property: Solid-liquid equilibrium temperature, K (Liquid); method: VISOBS:UFactor:8
Mole fraction of ethyl(2-hydroxyethyl)dimethylammonium bromide	Solid-liquid equilibrium temperature, K	uncertainty
0.0079	345.84	2.97
0.0102	357.3	2.96
0.0119	367.45	2.65
0.0158	382.84	2.14
0.0191	392.5	1.82
0.0221	399.63	1.71
0.0246	405.51	1.62
0.0269	409.98	1.57
0.0285	413.06	1.5
0.0328	419.27	1.41
0.0419	430.94	1.4
1	541.45	1.24

System: decan-1-ol + ethyl(2-hydroxyethyl)dimethylammonium bromide; phases: Liquid, Crystal 2
Fixed: Pressure, kPa = 101.325
Property: Solid-liquid equilibrium temperature, K (Liquid); method: VISOBS:UFactor:8
Mole fraction of ethyl(2-hydroxyethyl)dimethylammonium bromide	Solid-liquid equilibrium temperature, K	uncertainty
0.0015	273.16	8.47
0.002	280.04	9.14
0.0031	299.96	7.87
0.0039	314.54	8.08
0.005	327.11	5.26
0.0063	339.15	4.79
0.0071	344.2	4.25
0.0073	344.24	3.92

System: decan-1-ol + ethyl(2-hydroxyethyl)dimethylammonium bromide; phases: Liquid, Crystal
Fixed: Pressure, kPa = 101.325
Property: Solid-liquid equilibrium temperature, K (Liquid); method: VISOBS:UFactor:8
Mole fraction of ethyl(2-hydroxyethyl)dimethylammonium bromide	Solid-liquid equilibrium temperature, K	uncertainty
0	280.5	1.24
0.0005	278.34	1.24
0.0012	275.08	1.24

System: dodecan-1-ol + ethyl(2-hydroxyethyl)dimethylammonium bromide; phases: Crystal, Crystal 2, Liquid, Air at 1 atmosphere
Property: Eutectic temperature, K (Crystal); method: PHASDIA:
Eutectic temperature, K	uncertainty
291.87	1

System: dodecan-1-ol + ethyl(2-hydroxyethyl)dimethylammonium bromide; phases: Crystal, Crystal 2, Liquid, Air at 1 atmosphere
Property: Eutectic composition: mole fraction of ethyl(2-hydroxyethyl)dimethylammonium bromide (Crystal); method: PHASDIA:
Eutectic composition: mole fraction of ethyl(2-hydroxyethyl)dimethylammonium bromide	uncertainty
0.0011	0.0005

System: dodecan-1-ol + ethyl(2-hydroxyethyl)dimethylammonium bromide; phases: Liquid, Crystal 1
Fixed: Pressure, kPa = 101.325
Property: Solid-liquid equilibrium temperature, K (Liquid); method: VISOBS:UFactor:8
Mole fraction of ethyl(2-hydroxyethyl)dimethylammonium bromide	Solid-liquid equilibrium temperature, K	uncertainty
0.0063	351.54	4.63
0.0071	357.53	4.8
0.0079	363.99	4.66
0.0104	388.14	4.65
0.013	410.32	4.15
0.0166	437.47	3.97
1	541.45	1.24

System: dodecan-1-ol + ethyl(2-hydroxyethyl)dimethylammonium bromide; phases: Liquid, Crystal 2
Fixed: Pressure, kPa = 101.325
Property: Solid-liquid equilibrium temperature, K (Liquid); method: VISOBS:UFactor:16
Mole fraction of ethyl(2-hydroxyethyl)dimethylammonium bromide	Solid-liquid equilibrium temperature, K	uncertainty
0.0011	291.87	2.48
0.0013	298.88	2.48
0.002	309.13	2.48
0.0027	325.28	2.48
0.0039	340.33	2.48
0.0045	344.22	2.48
0.005	345.46	2.48

System: dodecan-1-ol + ethyl(2-hydroxyethyl)dimethylammonium bromide; phases: Liquid, Crystal
Fixed: Pressure, kPa = 101.325
Property: Solid-liquid equilibrium temperature, K (Liquid); method: VISOBS:UFactor:8
Mole fraction of ethyl(2-hydroxyethyl)dimethylammonium bromide	Solid-liquid equilibrium temperature, K	uncertainty
0	296.84	1.24
0.0004	294.34	1.24
