Measured thermophysical data. Solubility of CO2 in triglycerides using Monte Carlo simulations
Source: Fluid Phase Equilib., 2018, 10.1016/j.fluid.2018.01.003
Compound 1: carbon dioxide, CO2, InChI=1S/CO2/c2-1-3, purity 99.9%
Compound 2: 1,2,3-propanetriyl tributanoate, C15H26O6, InChI=1S/C15H26O6/c1-4-7-13(16)19-10-12(21-15(18)9-6-3)11-20-14(17)8-5-2/h12H,4-11H2,1-3H3, purity 98.5%

System: carbon dioxide + 1,2,3-propanetriyl tributanoate; phases: Liquid, Gas
Property: Mole fraction of carbon dioxide (Liquid); method: Pressure drop gas apparatus
Temperature, K	Pressure, kPa	Mole fraction of carbon dioxide	uncertainty
283.2	768	0.291	0.003
283.2	986	0.348	0.005
283.2	1203	0.406	0.004
283.2	1352	0.443	0.004
283.2	1501	0.475	0.004
288.2	778	0.271	0.003
288.2	997	0.323	0.013
288.2	1203	0.377	0.004
288.2	1356	0.409	0.004
288.2	1488	0.439	0.007
288.2	1652	0.47	0.008
293.2	798	0.249	0.003
293.2	998	0.298	0.003
293.2	1219	0.344	0.004
293.2	1353	0.373	0.003
293.2	1495	0.402	0.004
293.2	1665	0.431	0.004
298.2	820	0.226	0.005
298.2	1007	0.272	0.003
298.2	1240	0.318	0.005
298.2	1360	0.344	0.003
298.2	1524	0.368	0.006
298.2	1698	0.399	0.004
303.2	814	0.212	0.003
303.2	1003	0.252	0.003
303.2	1241	0.295	0.005
303.2	1368	0.316	0.003
303.2	1535	0.342	0.003
303.2	1695	0.371	0.003
