Measured thermophysical data. Vapor-liquid equilibria for binary system of 2,3,3,3-tetrafluoroprop-1-ene (HFO-1234yf) + isobutane (HC-600a)
Source: Fluid Phase Equilib., 2014, 10.1016/j.fluid.2013.12.015
Compound 1: 2,3,3,3-tetrafluoro-1-propene, C3H2F4, InChI=1S/C3H2F4/c1-2(4)3(5,6)7/h1H2, purity 99.9%
Compound 2: 2-methylpropane, C4H10, InChI=1S/C4H10/c1-4(2)3/h4H,1-3H3, purity 99.85%

System: 2,3,3,3-tetrafluoro-1-propene; phases: Liquid, Gas
Property: Vapor or sublimation pressure, kPa (Liquid); method: Closed cell (Static) method
Temperature, K	Vapor or sublimation pressure, kPa	uncertainty
283.15	436.5	7
293.15	591	7.1
303.15	780.5	7.1
313.15	1015.6	7.2
323.15	1300.7	7.2

System: 2-methylpropane; phases: Liquid, Gas
Property: Vapor or sublimation pressure, kPa (Liquid); method: Closed cell (Static) method
Temperature, K	Vapor or sublimation pressure, kPa	uncertainty
283.15	222.2	7
293.15	303.3	7
303.15	406	7
313.15	530.3	7
323.15	684.4	7.1

System: 2-methylpropane + 2,3,3,3-tetrafluoro-1-propene; phases: Liquid, Gas
Property: Vapor or sublimation pressure, kPa (Liquid); method: Closed cell (Static) method
Temperature, K	Mole fraction of 2,3,3,3-tetrafluoro-1-propene	Vapor or sublimation pressure, kPa	uncertainty
283.15	0	222.2	7
283.15	0.2605	370.3	7.4
283.15	0.333	387.1	7.1
283.15	0.4333	408.5	7.1
283.15	0.5665	427.8	7.1
283.15	0.6531	435	7.1
283.15	0.7542	443	7.1
283.15	0.803	445.6	7.1
283.15	0.8413	446.5	7.1
283.15	0.9059	443.7	7.1
283.15	0.9366	442.5	7.1
283.15	1	436.5	7.1
293.15	0	303.3	7.1
293.15	0.2605	494	7.7
293.15	0.333	517.5	7.3
293.15	0.4333	547.3	7.2
293.15	0.5665	574	7.2
293.15	0.6531	585.4	7.2
293.15	0.7542	597.2	7.2
293.15	0.803	600	7.2
293.15	0.8413	601.1	7.2
293.15	0.9059	600	7.2
293.15	0.9366	598.8	7.2
293.15	1	591	7.2
303.15	0	406	7.1
303.15	0.2605	644.6	8
303.15	0.333	677.4	7.4
303.15	0.4333	716.6	7.4
303.15	0.5665	754.4	7.4
303.15	0.6531	771.1	7.4
303.15	0.7542	786.2	7.4
303.15	0.803	790.7	7.4
303.15	0.8413	792.5	7.4
303.15	0.9059	792.3	7.4
303.15	0.9366	789	7.4
303.15	1	780.5	7.3
313.15	0	530.3	7.2
313.15	0.2605	826.2	8.6
313.15	0.333	869.3	7.7
313.15	0.4333	921.3	7.7
313.15	0.5665	970.4	7.7
313.15	0.6531	994.6	7.6
313.15	0.7542	1017.3	7.6
313.15	0.803	1021	7.6
313.15	0.8413	1026.3	7.6
313.15	0.9059	1023	7.6
313.15	0.9366	1026	7.6
313.15	1	1015.6	7.6
323.15	0	684.4	7.3
323.15	0.2605	1041.7	9.2
323.15	0.333	1100	8.2
323.15	0.4333	1166.6	8.1
323.15	0.5665	1232.5	8
323.15	0.6531	1265.9	8
323.15	0.7542	1295.8	8
323.15	0.803	1304.2	8
323.15	0.8413	1308.9	7.9
323.15	0.9059	1310.8	7.9
323.15	0.9366	1310.7	8
323.15	1	1300.7	7.9

System: 2-methylpropane + 2,3,3,3-tetrafluoro-1-propene; phases: Gas, Liquid
Property: Mole fraction of 2,3,3,3-tetrafluoro-1-propene (Gas); method: Chromatography
Temperature, K	Mole fraction of 2,3,3,3-tetrafluoro-1-propene	Mole fraction of 2,3,3,3-tetrafluoro-1-propene	uncertainty
283.15	0	0	
283.15	0.2605	0.4875	0.0089
283.15	0.333	0.5387	0.0062
283.15	0.4333	0.6013	0.0057
283.15	0.5665	0.672	0.0054
283.15	0.6531	0.7255	0.0052
283.15	0.7542	0.7838	0.005
283.15	0.803	0.816	0.0051
283.15	0.8413	0.8448	0.0053
283.15	0.9059	0.899	0.0054
283.15	0.9366	0.9279	0.0059
283.15	1	1	
293.15	0	0	
293.15	0.2605	0.47	0.0088
293.15	0.333	0.525	0.0064
293.15	0.4333	0.5945	0.0058
293.15	0.5665	0.67	0.0054
293.15	0.6531	0.7245	0.0052
293.15	0.7542	0.7833	0.005
293.15	0.803	0.8175	0.0052
293.15	0.8413	0.8463	0.0053
293.15	0.9059	0.9005	0.0054
293.15	0.9366	0.9302	0.0059
293.15	1	1	
303.15	0	0	
303.15	0.2605	0.4553	0.0086
303.15	0.333	0.5159	0.0065
303.15	0.4333	0.5829	0.0059
303.15	0.5665	0.6626	0.0055
303.15	0.6531	0.7221	0.0053
303.15	0.7542	0.7843	0.0051
303.15	0.803	0.8195	0.0052
303.15	0.8413	0.8484	0.0053
303.15	0.9059	0.9027	0.0054
303.15	0.9366	0.9317	0.0058
303.15	1	1	
313.15	0	0	
313.15	0.2605	0.4455	0.0084
313.15	0.333	0.5032	0.0065
313.15	0.4333	0.5735	0.006
313.15	0.5665	0.6595	0.0056
313.15	0.6531	0.7177	0.0054
313.15	0.7542	0.7846	0.0051
313.15	0.803	0.8181	0.0052
313.15	0.8413	0.8497	0.0054
313.15	0.9059	0.9038	0.0054
313.15	0.9366	0.9339	0.0058
313.15	1	1	
323.15	0	0	
323.15	0.2605	0.4304	0.0082
323.15	0.333	0.4949	0.0066
323.15	0.4333	0.5641	0.0061
323.15	0.5665	0.6532	0.0057
323.15	0.6531	0.7137	0.0055
323.15	0.7542	0.7834	0.0052
323.15	0.803	0.8205	0.0053
323.15	0.8413	0.8509	0.0053
323.15	0.9059	0.9053	0.0054
323.15	0.9366	0.9345	0.0057
323.15	1	1	

System: 2-methylpropane + 2,3,3,3-tetrafluoro-1-propene; phases: Liquid, Gas
Property: Azeotropic composition: mole fraction of 2,3,3,3-tetrafluoro-1-propene (Liquid); method: By X=Y
Temperature, K	Azeotropic composition: mole fraction of 2,3,3,3-tetrafluoro-1-propene	uncertainty
283.15	0.8542	0.0028
293.15	0.8659	0.0026
303.15	0.8883	0.0023
313.15	0.8989	0.0022
323.15	0.9262	0.0019

System: 2-methylpropane + 2,3,3,3-tetrafluoro-1-propene; phases: Liquid, Gas
Property: Azeotropic pressure, kPa (Liquid); method: By X=Y
Temperature, K	Azeotropic pressure, kPa	uncertainty
283.15	446	2.9
293.15	601.4	3.8
303.15	793.6	5
313.15	1027	6.4
323.15	1313.9	8.1
