Measured thermophysical data. Isobaric vapour liquid equilibria for binary systems of 2-butanone with ethanol, 1-propanol, and 2-propanol at 20 and 101.3 kPa
Source: Fluid Phase Equilib., 2008, 10.1016/j.fluid.2008.06.004
Compound 1: butanone, C4H8O, InChI=1S/C4H8O/c1-3-4(2)5/h3H2,1-2H3, purity 99.7%
Compound 2: ethanol, C2H6O, InChI=1S/C2H6O/c1-2-3/h3H,2H2,1H3, purity 99.5%
Compound 3: propan-1-ol, C3H8O, InChI=1S/C3H8O/c1-2-3-4/h4H,2-3H2,1H3, purity 99.9%
Compound 4: propan-2-ol, C3H8O, InChI=1S/C3H8O/c1-3(2)4/h3-4H,1-2H3, purity 99.9%

System: butanone; phases: Liquid
Property: Refractive index (Na D-line) (Liquid); method: Standard Abbe refractometry
Temperature, K	Pressure, kPa	Refractive index (Na D-line)	uncertainty
298.15	101.325	1.37614	0.00068

System: butanone; phases: Liquid
Property: Mass density, kg/m3 (Liquid); method: VIBTUB:UFactor:3
Temperature, K	Pressure, kPa	Mass density, kg/m3	uncertainty
298.15	101.325	799.62	0.35

System: butanone; phases: Liquid, Gas
Property: Vapor or sublimation pressure, kPa (Liquid); method: Ebulliometric method (Recirculating still)
Temperature, K	Vapor or sublimation pressure, kPa	uncertainty
308.22	18.73	0.43
309.55	20	0.4
310.48	20.76	0.42
312.56	22.74	0.44
313.8	24.01	0.46
316.39	26.73	0.47
318.16	28.71	0.53
319.63	30.72	0.56
321.2	32.71	0.58
324.08	36.72	0.6
326.86	40.72	0.64
329.31	44.73	0.72
331.49	48.73	0.77
333.61	52.73	0.8
335.64	56.74	0.84
337.53	60.73	0.88
339.37	64.72	0.93
341.07	68.73	0.98
342.7	72.72	1.02
344.29	76.74	1.07
345.74	80.72	1.12
347.19	84.73	1.14
348.59	88.73	1.18
349.95	92.74	1.21
350.49	94.41	1.27
351.4	97.29	1.28
352.68	101.32	1.33
352.68	101.3	1.3
354.04	105.95	1.38
355.29	110.24	1.4
356.39	114.07	1.43
357.91	119.51	1.48
359.12	124.08	1.54
360.32	128.72	1.61
361.22	132.46	1.65
362.08	135.91	1.62

System: ethanol; phases: Liquid
Property: Refractive index (Na D-line) (Liquid); method: Standard Abbe refractometry
Temperature, K	Pressure, kPa	Refractive index (Na D-line)	uncertainty
298.15	101.325	1.35939	0.00068

System: ethanol; phases: Liquid
Property: Mass density, kg/m3 (Liquid); method: VIBTUB:UFactor:4
Temperature, K	Pressure, kPa	Mass density, kg/m3	uncertainty
298.15	101.325	786.47	0.5

System: ethanol; phases: Liquid, Gas
Property: Vapor or sublimation pressure, kPa (Liquid); method: Ebulliometric method (Recirculating still)
Temperature, K	Vapor or sublimation pressure, kPa	uncertainty
315.41	20	0.9
351.46	101.3	0.9

System: propan-1-ol; phases: Liquid
Property: Refractive index (Na D-line) (Liquid); method: Standard Abbe refractometry
Temperature, K	Pressure, kPa	Refractive index (Na D-line)	uncertainty
298.15	101.325	1.38305	0.00068

System: propan-1-ol; phases: Liquid
Property: Mass density, kg/m3 (Liquid); method: VIBTUB:UFactor:2
Temperature, K	Pressure, kPa	Mass density, kg/m3	uncertainty
298.15	101.325	799.44	0.23

System: propan-1-ol; phases: Liquid, Gas
Property: Vapor or sublimation pressure, kPa (Liquid); method: EBULLIO:UFactor:4
Temperature, K	Vapor or sublimation pressure, kPa	uncertainty
332.67	20	0.9
370.21	101.3	0.9

System: propan-2-ol; phases: Liquid
Property: Refractive index (Na D-line) (Liquid); method: Standard Abbe refractometry
Temperature, K	Pressure, kPa	Refractive index (Na D-line)	uncertainty
298.15	101.325	1.37497	0.00068

System: propan-2-ol; phases: Liquid
Property: Mass density, kg/m3 (Liquid); method: VIBTUB:UFactor:2
Temperature, K	Pressure, kPa	Mass density, kg/m3	uncertainty
298.15	101.325	780.75	0.24

System: propan-2-ol; phases: Liquid, Gas
Property: Vapor or sublimation pressure, kPa (Liquid); method: Ebulliometric method (Recirculating still)
Temperature, K	Vapor or sublimation pressure, kPa	uncertainty
319.8	20	0.9
355.4	101.3	0.9

System: ethanol + butanone; phases: Liquid, Gas
Property: Boiling temperature at pressure P, K (Liquid); method: Ebulliometric method (Recirculating still)
Mole fraction of butanone	Pressure, kPa	Boiling temperature at pressure P, K	uncertainty
0	20	315.41	0.42
0	101.3	351.46	0.46
0.074	101.3	350.53	0.46
0.118	20	313.91	0.42
0.141	101.3	349.78	0.46
0.191	20	312.87	0.42
0.198	101.3	349.19	0.46
0.245	101.3	348.73	0.46
0.256	20	311.87	0.42
0.3	101.3	348.29	0.46
0.313	20	311	0.42
0.344	101.3	347.94	0.46
0.366	20	310.3	0.42
0.383	101.3	347.72	0.46
0.418	101.3	347.58	0.46
0.42	20	309.69	0.42
0.455	101.3	347.51	0.46
0.462	20	309.23	0.43
0.494	101.3	347.5	0.46
0.501	20	308.82	0.43
0.533	20	308.5	0.43
0.533	101.3	347.54	0.46
0.564	20	308.29	0.43
0.57	101.3	347.66	0.47
0.595	20	308.12	0.43
0.604	101.3	347.87	0.47
0.624	20	307.82	0.43
0.64	101.3	348.1	0.47
0.658	20	307.7	0.43
0.688	101.3	348.56	0.47
0.689	20	307.64	0.43
0.726	20	307.73	0.43
0.734	101.3	348.99	0.47
0.766	20	307.87	0.43
0.785	101.3	349.68	0.47
0.813	20	308	0.43
0.852	101.3	350.44	0.48
0.868	20	308.41	0.43
0.917	101.3	351.34	0.48
0.938	20	308.94	0.43
1	20	309.55	0.43
1	101.3	352.68	0.48

System: ethanol + butanone; phases: Liquid, Gas
Property: Mole fraction of butanone (Liquid); method: CHROM:UFactor:4
Mole fraction of butanone	Pressure, kPa	Mole fraction of butanone	uncertainty
0	20	0	0.001
0	101.3	0	0.001
0.074	101.3	0.043	0.003
0.118	20	0.046	0.003
0.141	101.3	0.088	0.004
0.191	20	0.078	0.003
0.198	101.3	0.134	0.005
0.245	101.3	0.179	0.006
0.256	20	0.121	0.004
0.3	101.3	0.236	0.008
0.313	20	0.168	0.005
0.344	101.3	0.291	0.009
0.366	20	0.208	0.007
0.383	101.3	0.343	0.011
0.418	101.3	0.392	0.012
0.42	20	0.267	0.009
0.455	101.3	0.441	0.014
0.462	20	0.32	0.01
0.494	101.3	0.499	0.016
0.501	20	0.37	0.012
0.533	20	0.421	0.013
0.533	101.3	0.554	0.014
0.564	20	0.472	0.015
0.57	101.3	0.608	0.013
0.595	20	0.523	0.015
0.604	101.3	0.655	0.011
0.624	20	0.573	0.014
0.64	101.3	0.704	0.01
0.658	20	0.628	0.012
0.688	101.3	0.755	0.008
0.689	20	0.678	0.011
0.726	20	0.737	0.009
0.734	101.3	0.801	0.007
0.766	20	0.793	0.007
0.785	101.3	0.86	0.005
0.813	20	0.853	0.005
0.852	101.3	0.913	0.004
0.868	20	0.908	0.004
0.917	101.3	0.96	0.003
0.938	20	0.964	0.003
1	20	1	0.001
1	101.3	1	0.001

System: propan-1-ol + butanone; phases: Liquid, Gas
Property: Boiling temperature at pressure P, K (Liquid); method: EBULLIO:UFactor:4
Mole fraction of butanone	Pressure, kPa	Boiling temperature at pressure P, K	uncertainty
0	20	332.67	0.64
0	101.3	370.21	0.95
0.082	101.3	368.67	0.94
0.131	101.3	367.82	0.95
0.144	20	330.55	0.64
0.188	101.3	366.95	0.95
0.27	101.3	365.44	0.95
0.282	20	327.89	0.65
0.312	101.3	364.86	0.95
0.378	20	325.75	0.65
0.381	101.3	363.13	0.95
0.428	101.3	362.27	0.96
0.449	20	323.8	0.65
0.511	101.3	360.69	0.96
0.531	20	322.14	0.65
0.55	101.3	359.79	0.96
0.592	20	320.54	0.65
0.606	101.3	358.77	0.97
0.621	20	319.16	0.65
0.641	101.3	358.07	0.98
0.667	20	317.91	0.65
0.69	101.3	357.07	0.98
0.715	20	316.81	0.65
0.726	101.3	356.37	0.99
0.741	20	315.87	0.65
0.745	101.3	356.06	0.99
0.772	20	315.03	0.66
0.789	20	314.37	0.66
0.796	101.3	355.2	1.01
0.813	20	313.67	0.66
0.836	101.3	354.6	1.01
0.841	20	312.99	0.66
0.868	20	312.37	0.66
0.876	101.3	354.06	1.02
0.899	20	311.76	0.66
0.917	20	311.17	0.66
0.918	101.3	353.54	1.03
0.946	20	310.61	0.66
0.961	101.3	353.15	1.03
0.977	20	310.07	0.66
1	20	309.55	0.66
1	101.3	352.68	1.04

System: propan-1-ol + butanone; phases: Liquid, Gas
Property: Mole fraction of butanone (Liquid); method: CHROM:UFactor:8
Mole fraction of butanone	Pressure, kPa	Mole fraction of butanone	uncertainty
0	20	0	0.001
0	101.3	0	0.001
0.082	101.3	0.033	0.003
0.131	101.3	0.054	0.004
0.144	20	0.034	0.003
0.188	101.3	0.082	0.005
0.27	101.3	0.126	0.008
0.282	20	0.075	0.005
0.312	101.3	0.148	0.009
0.378	20	0.114	0.007
0.381	101.3	0.211	0.013
0.428	101.3	0.243	0.015
0.449	20	0.156	0.01
0.511	101.3	0.32	0.02
0.531	20	0.201	0.013
0.55	101.3	0.368	0.023
0.592	20	0.251	0.016
0.606	101.3	0.429	0.027
0.621	20	0.3	0.019
0.641	101.3	0.474	0.03
0.667	20	0.359	0.022
0.69	101.3	0.544	0.028
0.715	20	0.415	0.026
0.726	101.3	0.599	0.025
0.741	20	0.464	0.029
0.745	101.3	0.626	0.023
0.772	20	0.516	0.03
0.789	20	0.563	0.028
0.796	101.3	0.705	0.019
0.813	20	0.614	0.024
0.836	101.3	0.764	0.015
0.841	20	0.668	0.021
0.868	20	0.724	0.018
0.876	101.3	0.824	0.011
0.899	20	0.777	0.014
0.917	20	0.833	0.011
0.918	101.3	0.888	0.008
0.946	20	0.892	0.008
0.961	101.3	0.947	0.005
0.977	20	0.952	0.005
1	20	1	0.001
1	101.3	1	0.001

System: propan-2-ol + butanone; phases: Liquid, Gas
Property: Boiling temperature at pressure P, K (Liquid); method: Ebulliometric method (Recirculating still)
Mole fraction of butanone	Pressure, kPa	Boiling temperature at pressure P, K	uncertainty
0	20	319.8	0.42
0	101.3	355.4	0.45
0.064	101.3	354.6	0.45
0.094	20	318.69	0.42
0.113	101.3	354.06	0.45
0.164	20	317.79	0.42
0.171	101.3	353.46	0.45
0.243	20	316.63	0.42
0.249	101.3	352.66	0.46
0.302	101.3	352.22	0.46
0.349	101.3	351.84	0.46
0.359	20	314.84	0.42
0.393	101.3	351.5	0.46
0.414	20	313.9	0.42
0.441	101.3	351.22	0.46
0.473	20	313.11	0.43
0.483	101.3	350.95	0.46
0.51	20	312.41	0.43
0.525	101.3	350.79	0.46
0.553	20	311.85	0.43
0.565	101.3	350.67	0.46
0.589	20	311.33	0.43
0.605	101.3	350.63	0.46
0.626	20	310.88	0.43
0.644	101.3	350.61	0.47
0.663	20	310.5	0.43
0.684	101.3	350.67	0.47
0.688	20	310.18	0.43
0.718	20	309.9	0.43
0.728	101.3	350.78	0.47
0.75	20	309.67	0.43
0.773	101.3	350.98	0.47
0.783	20	309.45	0.43
0.817	20	309.36	0.43
0.821	101.3	351.24	0.47
0.854	20	309.27	0.43
0.876	101.3	351.6	0.47
0.896	20	309.24	0.43
0.934	101.3	352.1	0.48
0.944	20	309.34	0.43
1	20	309.55	0.43
1	101.3	352.68	0.48

System: propan-2-ol + butanone; phases: Liquid, Gas
Property: Mole fraction of butanone (Liquid); method: CHROM:UFactor:4
Mole fraction of butanone	Pressure, kPa	Mole fraction of butanone	uncertainty
0	20	0	0.001
0	101.3	0	0.001
0.064	101.3	0.04	0.003
0.094	20	0.032	0.002
0.113	101.3	0.073	0.003
0.164	20	0.058	0.003
0.171	101.3	0.117	0.004
0.243	20	0.095	0.004
0.249	101.3	0.182	0.006
0.302	101.3	0.23	0.007
0.349	101.3	0.28	0.009
0.359	20	0.167	0.005
0.393	101.3	0.33	0.01
0.414	20	0.221	0.007
0.441	101.3	0.385	0.012
0.473	20	0.271	0.009
0.483	101.3	0.439	0.014
0.51	20	0.324	0.01
0.525	101.3	0.493	0.016
0.553	20	0.376	0.012
0.565	101.3	0.547	0.014
0.589	20	0.431	0.014
0.605	101.3	0.6	0.013
0.626	20	0.486	0.015
0.644	101.3	0.651	0.011
0.663	20	0.542	0.015
0.684	101.3	0.702	0.01
0.688	20	0.595	0.013
0.718	20	0.642	0.012
0.728	101.3	0.75	0.008
0.75	20	0.694	0.01
0.773	101.3	0.8	0.007
0.783	20	0.746	0.008
0.817	20	0.798	0.007
0.821	101.3	0.851	0.005
0.854	20	0.848	0.005
0.876	101.3	0.901	0.004
0.896	20	0.898	0.004
0.934	101.3	0.95	0.003
0.944	20	0.948	0.003
1	20	1	0.001
1	101.3	1	0.001
