Measured thermophysical data. Using COSMO-RS to design choline chloride pharmaceutical eutectic solvents
Source: Fluid Phase Equilib., 2019, 10.1016/j.fluid.2019.06.0055
Compound 1: choline chloride, C5H14ClNO, InChI=1S/C5H14NO.ClH/c1-6(2,3)4-5-7;/h7H,4-5H2,1-3H3;1H/q+1;/p-1, purity 98%
Compound 2: urea, CH4N2O, InChI=1S/CH4N2O/c2-1(3)4/h(H4,2,3,4), purity 99.5%
Compound 3: methylurea, C2H6N2O, InChI=1S/C2H6N2O/c1-4-2(3)5/h1H3,(H3,3,4,5), purity 97%
Compound 4: N,N-dimethylurea, C3H8N2O, InChI=1S/C3H8N2O/c1-5(2)3(4)6/h1-2H3,(H2,4,6), purity 98%
Compound 5: 1,3-dimethylurea, C3H8N2O, InChI=1S/C3H8N2O/c1-4-3(6)5-2/h1-2H3,(H2,4,5,6), purity 98%
Compound 6: thiourea, CH4N2S, InChI=1S/CH4N2S/c2-1(3)4/h(H4,2,3,4), purity 99%
Compound 7: benzoic acid, C7H6O2, InChI=1S/C7H6O2/c8-7(9)6-4-2-1-3-5-6/h1-5H,(H,8,9), purity 99%
Compound 8: 2-hydroxybenzoic acid, C7H6O3, InChI=1S/C7H6O3/c8-6-4-2-1-3-5(6)7(9)10/h1-4,8H,(H,9,10), purity 99%
Compound 9: 5-phenylvaleric acid, C11H14O2, InChI=1S/C11H14O2/c12-11(13)9-5-4-8-10-6-2-1-3-7-10/h1-3,6-7H,4-5,8-9H2,(H,12,13), purity 99%
Compound 10: D-mannitol, C6H14O6, InChI=1S/C6H14O6/c7-1-3(9)5(11)6(12)4(10)2-8/h3-12H,1-2H2/t3-,4-,5-,6-/m1/s1, purity 99%
Compound 11: meso-1,2,3,4-butanetetrol, C4H10O4, InChI=1S/C4H10O4/c5-1-3(7)4(8)2-6/h3-8H,1-2H2/t3-,4+, purity 99%
Compound 12: propanedioic acid, C3H4O4, InChI=1S/C3H4O4/c4-2(5)1-3(6)7/h1H2,(H,4,5)(H,6,7), purity 98%
Compound 13: citric acid, C6H8O7, InChI=1S/C6H8O7/c7-3(8)1-6(13,5(11)12)2-4(9)10/h13H,1-2H2,(H,7,8)(H,9,10)(H,11,12), purity 99.9%
Compound 14: butanedioic acid, C4H6O4, InChI=1S/C4H6O4/c5-3(6)1-2-4(7)8/h1-2H2,(H,5,6)(H,7,8), purity 99%
Compound 15: ethanamide, C2H5NO, InChI=1S/C2H5NO/c1-2(3)4/h1H3,(H2,3,4), purity 99%
Compound 16: benzamide, C7H7NO, InChI=1S/C7H7NO/c8-7(9)6-4-2-1-3-5-6/h1-5H,(H2,8,9), purity 99%
Compound 17: 2-acetoxybenzoic acid, C9H8O4, InChI=1S/C9H8O4/c1-6(10)13-8-5-3-2-4-7(8)9(11)12/h2-5H,1H3,(H,11,12), purity 99%
Compound 18: ibuprofen, C13H18O2, InChI=1S/C13H18O2/c1-9(2)8-11-4-6-12(7-5-11)10(3)13(14)15/h4-7,9-10H,8H2,1-3H3,(H,14,15), purity 98%
Compound 19: ketoprofen, C16H14O3, InChI=1S/C16H14O3/c1-11(16(18)19)13-8-5-9-14(10-13)15(17)12-6-3-2-4-7-12/h2-11H,1H3,(H,18,19), purity 98%
Compound 20: N-acetyl-p-aminophenol, C8H9NO2, InChI=1S/C8H9NO2/c1-6(10)9-7-2-4-8(11)5-3-7/h2-5,11H,1H3,(H,9,10), purity 99%

System: choline chloride + urea; phases: Crystal, Crystal, Liquid, Air at 1 atmosphere
Property: Eutectic composition: mole fraction of choline chloride (Crystal); method: melting point device
Eutectic composition: mole fraction of choline chloride	uncertainty
0.42	0.02

System: choline chloride + urea; phases: Crystal, Crystal, Liquid, Air at 1 atmosphere
Property: Eutectic temperature, K (Crystal); method: melting point device
Eutectic temperature, K	uncertainty
289.15	6

System: choline chloride + methylurea; phases: Crystal, Crystal, Liquid, Air at 1 atmosphere
Property: Eutectic composition: mole fraction of choline chloride (Crystal); method: melting point device
Eutectic composition: mole fraction of choline chloride	uncertainty
0.4	0.02

System: choline chloride + methylurea; phases: Crystal, Crystal, Liquid, Air at 1 atmosphere
Property: Eutectic temperature, K (Crystal); method: melting point device
Eutectic temperature, K	uncertainty
304.15	6

System: choline chloride + N,N-dimethylurea; phases: Crystal, Crystal, Liquid, Air at 1 atmosphere
Property: Eutectic composition: mole fraction of choline chloride (Crystal); method: melting point device
Eutectic composition: mole fraction of choline chloride	uncertainty
0.38	0.06

System: choline chloride + N,N-dimethylurea; phases: Crystal, Crystal, Liquid, Air at 1 atmosphere
Property: Eutectic temperature, K (Crystal); method: melting point device
Eutectic temperature, K	uncertainty
392.15	14

System: choline chloride + 1,3-dimethylurea; phases: Crystal, Crystal, Liquid, Air at 1 atmosphere
Property: Eutectic composition: mole fraction of choline chloride (Crystal); method: melting point device
Eutectic composition: mole fraction of choline chloride	uncertainty
0.39	0.02

System: choline chloride + 1,3-dimethylurea; phases: Crystal, Crystal, Liquid, Air at 1 atmosphere
Property: Eutectic temperature, K (Crystal); method: melting point device
Eutectic temperature, K	uncertainty
329.15	4

System: choline chloride + thiourea; phases: Crystal, Crystal, Liquid, Air at 1 atmosphere
Property: Eutectic composition: mole fraction of choline chloride (Crystal); method: melting point device
Eutectic composition: mole fraction of choline chloride	uncertainty
0.42	0.06

System: choline chloride + thiourea; phases: Crystal, Crystal, Liquid, Air at 1 atmosphere
Property: Eutectic temperature, K (Crystal); method: melting point device
Eutectic temperature, K	uncertainty
373.15	14

System: choline chloride + benzoic acid; phases: Crystal, Crystal, Liquid, Air at 1 atmosphere
Property: Eutectic composition: mole fraction of choline chloride (Crystal); method: melting point device
Eutectic composition: mole fraction of choline chloride	uncertainty
0.28	0.02

System: choline chloride + benzoic acid; phases: Crystal, Crystal, Liquid, Air at 1 atmosphere
Property: Eutectic temperature, K (Crystal); method: melting point device
Eutectic temperature, K	uncertainty
351.15	4

System: choline chloride + 2-hydroxybenzoic acid; phases: Crystal, Crystal, Liquid, Air at 1 atmosphere
Property: Eutectic composition: mole fraction of choline chloride (Crystal); method: melting point device
Eutectic composition: mole fraction of choline chloride	uncertainty
0.48	0.04

System: choline chloride + 2-hydroxybenzoic acid; phases: Crystal, Crystal, Liquid, Air at 1 atmosphere
Property: Eutectic temperature, K (Crystal); method: melting point device
Eutectic temperature, K	uncertainty
334.15	12

System: choline chloride + 5-phenylvaleric acid; phases: Crystal, Crystal, Liquid, Air at 1 atmosphere
Property: Eutectic composition: mole fraction of choline chloride (Crystal); method: melting point device
Eutectic composition: mole fraction of choline chloride	uncertainty
0.4	0.06

System: choline chloride + 5-phenylvaleric acid; phases: Crystal, Crystal, Liquid, Air at 1 atmosphere
Property: Eutectic temperature, K (Crystal); method: melting point device
Eutectic temperature, K	uncertainty
293.15	14

System: choline chloride + D-mannitol; phases: Crystal, Crystal, Liquid, Air at 1 atmosphere
Property: Eutectic composition: mole fraction of choline chloride (Crystal); method: melting point device
Eutectic composition: mole fraction of choline chloride	uncertainty
0.5	0.04

System: choline chloride + D-mannitol; phases: Crystal, Crystal, Liquid, Air at 1 atmosphere
Property: Eutectic temperature, K (Crystal); method: melting point device
Eutectic temperature, K	uncertainty
385.15	8

System: choline chloride + meso-1,2,3,4-butanetetrol; phases: Crystal, Crystal, Liquid, Air at 1 atmosphere
Property: Eutectic composition: mole fraction of choline chloride (Crystal); method: melting point device
Eutectic composition: mole fraction of choline chloride	uncertainty
0.44	0.04

System: choline chloride + meso-1,2,3,4-butanetetrol; phases: Crystal, Crystal, Liquid, Air at 1 atmosphere
Property: Eutectic temperature, K (Crystal); method: melting point device
Eutectic temperature, K	uncertainty
351.15	12

System: choline chloride + propanedioic acid; phases: Crystal, Crystal, Liquid, Air at 1 atmosphere
Property: Eutectic composition: mole fraction of choline chloride (Crystal); method: melting point device
Eutectic composition: mole fraction of choline chloride	uncertainty
0.48	0.04

System: choline chloride + propanedioic acid; phases: Crystal, Crystal, Liquid, Air at 1 atmosphere
Property: Eutectic temperature, K (Crystal); method: melting point device
Eutectic temperature, K	uncertainty
285.15	8

System: choline chloride + citric acid; phases: Crystal, Crystal, Liquid, Air at 1 atmosphere
Property: Eutectic composition: mole fraction of choline chloride (Crystal); method: melting point device
Eutectic composition: mole fraction of choline chloride	uncertainty
0.68	0.08

System: choline chloride + citric acid; phases: Crystal, Crystal, Liquid, Air at 1 atmosphere
Property: Eutectic temperature, K (Crystal); method: melting point device
Eutectic temperature, K	uncertainty
352.15	12

System: choline chloride + butanedioic acid; phases: Crystal, Crystal, Liquid, Air at 1 atmosphere
Property: Eutectic composition: mole fraction of choline chloride (Crystal); method: melting point device
Eutectic composition: mole fraction of choline chloride	uncertainty
0.52	0.04

System: choline chloride + butanedioic acid; phases: Crystal, Crystal, Liquid, Air at 1 atmosphere
Property: Eutectic temperature, K (Crystal); method: melting point device
Eutectic temperature, K	uncertainty
339.15	8

System: choline chloride + ethanamide; phases: Crystal, Crystal, Liquid, Air at 1 atmosphere
Property: Eutectic composition: mole fraction of choline chloride (Crystal); method: melting point device
Eutectic composition: mole fraction of choline chloride	uncertainty
0.44	0.04

System: choline chloride + ethanamide; phases: Crystal, Crystal, Liquid, Air at 1 atmosphere
Property: Eutectic temperature, K (Crystal); method: melting point device
Eutectic temperature, K	uncertainty
321.15	4

System: choline chloride + benzamide; phases: Crystal, Crystal, Liquid, Air at 1 atmosphere
Property: Eutectic composition: mole fraction of choline chloride (Crystal); method: melting point device
Eutectic composition: mole fraction of choline chloride	uncertainty
0.42	0.04

System: choline chloride + benzamide; phases: Crystal, Crystal, Liquid, Air at 1 atmosphere
Property: Eutectic temperature, K (Crystal); method: melting point device
Eutectic temperature, K	uncertainty
362.15	6

System: choline chloride + 2-acetoxybenzoic acid; phases: Crystal, Crystal, Liquid, Air at 1 atmosphere
Property: Eutectic temperature, K (Crystal); method: melting point device
Eutectic temperature, K	uncertainty
336.15	4

System: choline chloride + 2-acetoxybenzoic acid; phases: Liquid, Crystal
Fixed: Pressure, kPa = 101
Property: Mole fraction of choline chloride (Liquid); method: melting point device
Temperature, K	Mole fraction of choline chloride	uncertainty
340.65	0.286	0.005
382.48	0.414	0.005
418.25	0.499	0.005
527.48	0.8	0.005
555.58	0.893	0.005

System: choline chloride + 2-acetoxybenzoic acid; phases: Liquid, Crystal
Fixed: Pressure, kPa = 101
Property: Mole fraction of choline chloride (Liquid); method: melting point device
Temperature, K	Mole fraction of choline chloride	uncertainty
381.52	0.101	0.005
354.85	0.206	0.005

System: choline chloride + ibuprofen; phases: Crystal, Crystal, Liquid, Air at 1 atmosphere
Property: Eutectic temperature, K (Crystal); method: melting point device
Eutectic temperature, K	uncertainty
324.15	6

System: choline chloride + ibuprofen; phases: Liquid, Crystal
Fixed: Pressure, kPa = 101
Property: Mole fraction of choline chloride (Liquid); method: melting point device
Temperature, K	Mole fraction of choline chloride	uncertainty
326.05	0.396	0.006
351.25	0.513	0.005
395.82	0.613	0.005
443.15	0.695	0.005
495.92	0.797	0.005
547.62	0.895	0.005

System: choline chloride + ibuprofen; phases: Liquid, Crystal
Fixed: Pressure, kPa = 101
Property: Mole fraction of choline chloride (Liquid); method: melting point device
Temperature, K	Mole fraction of choline chloride	uncertainty
344.52	0.111	0.017
338.62	0.229	0.017
335.08	0.303	0.017

System: choline chloride + ketoprofen; phases: Crystal, Crystal, Liquid, Air at 1 atmosphere
Property: Eutectic temperature, K (Crystal); method: melting point device
Eutectic temperature, K	uncertainty
348.15	4

System: choline chloride + ketoprofen; phases: Liquid, Crystal
Fixed: Pressure, kPa = 101
Property: Mole fraction of choline chloride (Liquid); method: melting point device
Temperature, K	Mole fraction of choline chloride	uncertainty
349.75	0.31	0.006
366.25	0.398	0.006
390.52	0.505	0.005
418.68	0.603	0.005
465.85	0.695	0.005
500.92	0.789	0.005
541.85	0.881	0.005

System: choline chloride + ketoprofen; phases: Liquid, Crystal
Fixed: Pressure, kPa = 101
Property: Mole fraction of choline chloride (Liquid); method: melting point device
Temperature, K	Mole fraction of choline chloride	uncertainty
361.62	0.103	0.013
354.72	0.213	0.013

System: choline chloride + N-acetyl-p-aminophenol; phases: Crystal, Crystal, Liquid, Air at 1 atmosphere
Property: Eutectic temperature, K (Crystal); method: melting point device
Eutectic temperature, K	uncertainty
312.15	16

System: choline chloride + N-acetyl-p-aminophenol; phases: Liquid, Crystal
Fixed: Pressure, kPa = 101
Property: Mole fraction of choline chloride (Liquid); method: melting point device
Temperature, K	Mole fraction of choline chloride	uncertainty
321.18	0.504	0.006
339.62	0.597	0.005
407.92	0.695	0.004
461.02	0.794	0.005
537.55	0.893	0.005

System: choline chloride + N-acetyl-p-aminophenol; phases: Liquid, Crystal
Fixed: Pressure, kPa = 101
Property: Mole fraction of choline chloride (Liquid); method: melting point device
Temperature, K	Mole fraction of choline chloride	uncertainty
425.82	0.101	0.005
387.82	0.207	0.005
371.52	0.302	0.006
352.08	0.407	0.006
