Measured thermophysical data. Measurement of the solubility of the salt of 2- mercaptobenzothiazole with cyclohexylamine and tert-butylamine in various solvents at low temperatures: Models and thermodynamic parameters
Source: Fluid Phase Equilib., 2017, 10.1016/j.fluid.2016.12.002
Compound 1: 2-mercaptobenzothiazole cyclohexylamine, C13H18N2S2, InChI=1S/C7H5NS2.C6H13N/c9-7-8-5-3-1-2-4-6(5)10-7;7-6-4-2-1-3-5-6/h1-4H,(H,8,9);6H,1-5,7H2, purity 98%
Compound 2: 2-mercaptobenzothiazole tert-butylamine, C11H16N2S2, InChI=1S/C7H5NS2.C4H11N/c9-7-8-5-3-1-2-4-6(5)10-7;1-4(2,3)5/h1-4H,(H,8,9);5H2,1-3H3, purity 98%
Compound 3: 4-methylpentan-2-one, C6H12O, InChI=1S/C6H12O/c1-5(2)4-6(3)7/h5H,4H2,1-3H3
Compound 4: 1,4-dioxane, C4H8O2, InChI=1S/C4H8O2/c1-2-6-4-3-5-1/h1-4H2
Compound 5: toluene, C7H8, InChI=1S/C7H8/c1-7-5-3-2-4-6-7/h2-6H,1H3
Compound 6: water, H2O, InChI=1S/H2O/h1H2

System: 4-methylpentan-2-one + 2-mercaptobenzothiazole cyclohexylamine; phases: Liquid, Crystal
Fixed: Pressure, kPa = 101
Property: Mole fraction of 2-mercaptobenzothiazole cyclohexylamine (Liquid); method: Titration method
Temperature, K	Mole fraction of 2-mercaptobenzothiazole cyclohexylamine	uncertainty
303.15	0.00038854	0.00038854
308.15	0.00050588	0.00050588
313.15	0.00067172	0.00060004
318.15	0.00084964	0.00060007
323.15	0.00110712	0.00060011
328.15	0.00140789	0.00060015
333.15	0.0017711	0.0006002
338.15	0.00215232	0.00060021
343.15	0.00252406	0.0006003
348.15	0.0030596	0.00060042

System: 1,4-dioxane + 2-mercaptobenzothiazole cyclohexylamine; phases: Liquid, Crystal
Fixed: Pressure, kPa = 101
Property: Mole fraction of 2-mercaptobenzothiazole cyclohexylamine (Liquid); method: Titration method
Temperature, K	Mole fraction of 2-mercaptobenzothiazole cyclohexylamine	uncertainty
303.15	0.00020791	0.00020791
308.15	0.00029092	0.00029092
313.15	0.00041763	0.00041763
318.15	0.00060822	0.00060005
323.15	0.00079289	0.00060007
328.15	0.00104918	0.00060013
333.15	0.00140792	0.00060015
338.15	0.00169346	0.00060021
343.15	0.00217432	0.00060033
348.15	0.0026649	0.00060035

System: toluene + 2-mercaptobenzothiazole cyclohexylamine; phases: Liquid, Crystal
Fixed: Pressure, kPa = 101
Property: Mole fraction of 2-mercaptobenzothiazole cyclohexylamine (Liquid); method: Titration method
Temperature, K	Mole fraction of 2-mercaptobenzothiazole cyclohexylamine	uncertainty
303.15	2.002e-05	2.002e-05
308.15	4.264e-05	4.264e-05
313.15	5.642e-05	5.642e-05
318.15	6.778e-05	6.778e-05
323.15	8.017e-05	8.017e-05
328.15	0.00012123	0.00012123
333.15	0.00017528	0.00017528
338.15	0.00026021	0.00026021
343.15	0.00034432	0.00034432
348.15	0.00042051	0.00042051

System: water + 2-mercaptobenzothiazole cyclohexylamine; phases: Liquid, Crystal
Fixed: Pressure, kPa = 101
Property: Mole fraction of 2-mercaptobenzothiazole cyclohexylamine (Liquid); method: Titration method
Temperature, K	Mole fraction of 2-mercaptobenzothiazole cyclohexylamine	uncertainty
303.15	1.316e-05	1.316e-05
308.15	1.951e-05	1.951e-05
313.15	2.587e-05	2.587e-05
318.15	3.244e-05	3.244e-05
323.15	4.005e-05	4.005e-05
328.15	5.402e-05	5.402e-05
333.15	7.555e-05	7.555e-05
338.15	8.968e-05	8.968e-05
343.15	0.00012394	0.00012394
348.15	0.00016414	0.00016414

System: 4-methylpentan-2-one + 2-mercaptobenzothiazole tert-butylamine; phases: Liquid, Crystal
Fixed: Pressure, kPa = 101
Property: Mole fraction of 2-mercaptobenzothiazole tert-butylamine (Liquid); method: Titration method
Temperature, K	Mole fraction of 2-mercaptobenzothiazole tert-butylamine	uncertainty
303.15	0.00022693	0.00022693
308.15	0.00027177	0.00027177
313.15	0.00031468	0.00031468
318.15	0.00035608	0.00035608
323.15	0.00039985	0.00039985
328.15	0.00045058	0.00045058
333.15	0.00051719	0.00051719
338.15	0.00057846	0.00057846
343.15	0.00066686	0.00060002
348.15	0.00079884	0.00060003

System: 1,4-dioxane + 2-mercaptobenzothiazole tert-butylamine; phases: Liquid, Crystal
Fixed: Pressure, kPa = 101
Property: Mole fraction of 2-mercaptobenzothiazole tert-butylamine (Liquid); method: Titration method
Temperature, K	Mole fraction of 2-mercaptobenzothiazole tert-butylamine	uncertainty
303.15	0.00011234	0.00011234
308.15	0.00015636	0.00015636
313.15	0.00019932	0.00019932
318.15	0.00021877	0.00021877
323.15	0.00027644	0.00027644
328.15	0.00035381	0.00035381
333.15	0.00039214	0.00039214
338.15	0.00049156	0.00049156
343.15	0.00059705	0.00059705
348.15	0.00068612	0.00060001

System: toluene + 2-mercaptobenzothiazole tert-butylamine; phases: Liquid, Crystal
Fixed: Pressure, kPa = 101
Property: Mole fraction of 2-mercaptobenzothiazole tert-butylamine (Liquid); method: Titration method
Temperature, K	Mole fraction of 2-mercaptobenzothiazole tert-butylamine	uncertainty
303.15	8.68e-06	8.68e-06
308.15	1.929e-05	1.929e-05
313.15	2.081e-05	2.081e-05
318.15	3.169e-05	3.169e-05
323.15	4.021e-05	4.021e-05
328.15	6.036e-05	6.036e-05
333.15	8.193e-05	8.193e-05
338.15	0.0001068	0.0001068
343.15	0.00014405	0.00014405
348.15	0.00019595	0.00019595

System: water + 2-mercaptobenzothiazole tert-butylamine; phases: Liquid, Crystal
Fixed: Pressure, kPa = 101
Property: Mole fraction of 2-mercaptobenzothiazole tert-butylamine (Liquid); method: Titration method
Temperature, K	Mole fraction of 2-mercaptobenzothiazole tert-butylamine	uncertainty
303.15	3.94e-06	3.94e-06
308.15	4.22e-06	4.22e-06
313.15	4.36e-06	4.36e-06
318.15	4.5e-06	4.5e-06
323.15	4.64e-06	4.64e-06
328.15	4.78e-06	4.78e-06
333.15	4.92e-06	4.92e-06
338.15	5.07e-06	5.07e-06
343.15	5.35e-06	5.35e-06
348.15	5.49e-06	5.49e-06
