Measured thermophysical data. Indirect assessment of the fusion properties of choline chloride from solid-liquid equilibria data
Source: Fluid Phase Equilib., 2017, 10.1016/j.fluid.2017.03.015
Compound 1: choline chloride, C5H14ClNO, InChI=1S/C5H14NO.ClH/c1-6(2,3)4-5-7;/h7H,4-5H2,1-3H3;1H/q+1;/p-1, purity 98%
Compound 2: choline acetate, C7H17NO3, InChI=1S/C5H14NO.C2H4O2/c1-6(2,3)4-5-7;1-2(3)4/h7H,4-5H2,1-3H3;1H3,(H,3,4)/q+1;/p-1, purity 99%
Compound 3: cholinium propanoate, C8H19NO3, InChI=1S/C5H14NO.C3H6O2/c1-6(2,3)4-5-7;1-2-3(4)5/h7H,4-5H2,1-3H3;2H2,1H3,(H,4,5)/q+1;/p-1
Compound 4: choline butanoate, C9H21NO3, InChI=1S/C5H14NO.C4H8O2/c1-6(2,3)4-5-7;1-2-3-4(5)6/h7H,4-5H2,1-3H3;2-3H2,1H3,(H,5,6)/q+1;/p-1
Compound 5: tetrabutylammonium chloride, C16H36ClN, InChI=1S/C16H36N.ClH/c1-5-9-13-17(14-10-6-2,15-11-7-3)16-12-8-4;/h5-16H2,1-4H3;1H/q+1;/p-1, purity 97%
Compound 6: tetrabutylphosphonium chloride, C16H36ClP, InChI=1S/C16H36P.ClH/c1-5-9-13-17(14-10-6-2,15-11-7-3)16-12-8-4;/h5-16H2,1-4H3;1H/q+1;/p-1, purity 97%
Compound 7: benzyldimethyl-2-(1-hydroxyethyl)decylammonium chloride, C21H38ClNO, InChI=1S/C21H38NO.ClH/c1-5-6-7-8-9-13-16-21(19(2)23)18-22(3,4)17-20-14-11-10-12-15-20;/h10-12,14-15,19,21,23H,5-9,13,16-18H2,1-4H3;1H/q+1;/p-1, purity 97%
Compound 8: 1-butyl-1-methylpyrrolidinium chloride, C9H20ClN, InChI=1S/C9H20N.ClH/c1-3-4-7-10(2)8-5-6-9-10;/h3-9H2,1-2H3;1H/q+1;/p-1, purity 99%
Compound 9: choline bis(trifluoromethylsulfonyl)imide, C7H14F6N2O5S2, InChI=1S/C5H14NO.C2F6NO4S2/c1-6(2,3)4-5-7;3-1(4,5)14(10,11)9-15(12,13)2(6,7)8/h7H,4-5H2,1-3H3;/q+1;-1, purity 99%
Compound 10: 1-ethyl-3-methylimidazolium chloride, C6H11ClN2, InChI=1S/C6H11N2.ClH/c1-3-8-5-4-7(2)6-8;/h4-6H,3H2,1-2H3;1H/q+1;/p-1, purity 99%
Compound 11: 1-(2-hydroxyethyl)-3-methyl-1H-imidazolium chloride, C6H11ClN2O, InChI=1S/C6H11N2O.ClH/c1-7-2-3-8(6-7)4-5-9;/h2-3,6,9H,4-5H2,1H3;1H/q+1;/p-1, purity 99%

System: choline acetate; phases: Crystal, Liquid, Air at 1 atmosphere
Property: Normal melting temperature, K (Crystal); method: VISOBS
Normal melting temperature, K	uncertainty
362.62	0.41

System: cholinium propanoate; phases: Crystal, Liquid, Air at 1 atmosphere
Property: Normal melting temperature, K (Crystal); method: VISOBS
Normal melting temperature, K	uncertainty
282.57	0.41

System: choline butanoate; phases: Crystal, Liquid, Air at 1 atmosphere
Property: Normal melting temperature, K (Crystal); method: VISOBS
Normal melting temperature, K	uncertainty
315.98	0.41

System: tetrabutylammonium chloride; phases: Crystal, Liquid, Air at 1 atmosphere
Property: Normal melting temperature, K (Crystal); method: VISOBS
Normal melting temperature, K	uncertainty
342.82	0.41

System: tetrabutylphosphonium chloride; phases: Crystal, Liquid, Air at 1 atmosphere
Property: Normal melting temperature, K (Crystal); method: VISOBS
Normal melting temperature, K	uncertainty
339.46	0.41

System: benzyldimethyl-2-(1-hydroxyethyl)decylammonium chloride; phases: Crystal, Liquid, Air at 1 atmosphere
Property: Normal melting temperature, K (Crystal); method: VISOBS
Normal melting temperature, K	uncertainty
351.42	0.41

System: 1-butyl-1-methylpyrrolidinium chloride; phases: Crystal, Liquid, Air at 1 atmosphere
Property: Normal melting temperature, K (Crystal); method: VISOBS
Normal melting temperature, K	uncertainty
472.98	0.41

System: choline bis(trifluoromethylsulfonyl)imide; phases: Crystal, Liquid, Air at 1 atmosphere
Property: Normal melting temperature, K (Crystal); method: VISOBS
Normal melting temperature, K	uncertainty
305.65	0.41

System: 1-ethyl-3-methylimidazolium chloride; phases: Crystal, Liquid, Air at 1 atmosphere
Property: Normal melting temperature, K (Crystal); method: VISOBS
Normal melting temperature, K	uncertainty
350.42	0.41

System: 1-(2-hydroxyethyl)-3-methyl-1H-imidazolium chloride; phases: Crystal, Liquid, Air at 1 atmosphere
Property: Normal melting temperature, K (Crystal); method: VISOBS
Normal melting temperature, K	uncertainty
358.88	0.41

System: choline chloride + choline acetate; phases: Liquid, Crystal
Fixed: Pressure, kPa = 101
Property: Solid-liquid equilibrium temperature, K (Liquid); method: DTA
Mole fraction of choline chloride	Solid-liquid equilibrium temperature, K	uncertainty
0.119	353.5	0.5
0.198	338.9	0.5
0.302	323.6	0.5
0.406	313.3	0.5

System: choline chloride + choline acetate; phases: Liquid, Crystal
Fixed: Pressure, kPa = 101
Property: Solid-liquid equilibrium temperature, K (Liquid); method: DTA
Mole fraction of choline chloride	Solid-liquid equilibrium temperature, K	uncertainty
0.408	313.6	0.5
0.501	340.8	0.5
0.501	341.5	0.5
0.6	382.9	0.5
0.601	383.6	0.5
0.667	415.5	0.5
0.668	416.7	0.5
0.754	459.4	0.5
0.785	471.4	0.5
0.841	498.7	0.5
0.9	535.5	0.5
0.902	535.6	0.5
0.94	557.2	0.5

System: choline chloride + cholinium propanoate; phases: Liquid, Crystal
Fixed: Pressure, kPa = 101
Property: Solid-liquid equilibrium temperature, K (Liquid); method: DTA
Mole fraction of choline chloride	Solid-liquid equilibrium temperature, K	uncertainty
0.49	324.2	0.53
0.497	324.58	0.53
0.585	351.8	0.53
0.599	352.13	0.53
0.648	381.55	0.53
0.652	380.25	0.53
0.676	396.75	0.53
0.748	432.9	0.53
0.751	433.23	0.53
0.798	462.25	0.53
0.798	464	0.53
0.847	493.13	0.53
0.853	494.6	0.53
0.884	516.65	0.53
0.893	517.65	0.53
0.941	558.4	0.53
0.949	560.7	0.53

System: choline chloride + choline butanoate; phases: Liquid, Crystal
Fixed: Pressure, kPa = 101
Property: Solid-liquid equilibrium temperature, K (Liquid); method: DTA
Mole fraction of choline chloride	Solid-liquid equilibrium temperature, K	uncertainty
0.399	320.5	0.5
0.401	320.7	0.5
0.491	358.5	0.5
0.498	357.7	0.5
0.589	401.8	0.5
0.629	410	0.5
0.696	447.5	0.5
0.699	450	0.5
0.794	498.6	0.5
0.797	498.7	0.5
0.9	553.4	0.5
0.901	555.8	0.5

System: choline chloride + tetrabutylphosphonium chloride; phases: Liquid, Crystal
Fixed: Pressure, kPa = 101
Property: Solid-liquid equilibrium temperature, K (Liquid); method: DTA
Mole fraction of choline chloride	Solid-liquid equilibrium temperature, K	uncertainty
0.946	551.4	0.5
0.941	551.6	0.5
0.899	519.6	0.5
0.887	519.9	0.5
0.849	505.7	0.5
0.847	503.7	0.5
0.807	473.9	0.5
0.797	473.1	0.5
0.752	447.7	0.5
0.75	449.5	0.5
0.7	421.8	0.5
0.696	423.3	0.5
0.654	394	0.5
0.652	394.4	0.5
0.601	349.5	0.5
0.585	348.8	0.5
0.509	315.7	0.5
0.509	317.6	0.5

System: choline chloride + benzyldimethyl-2-(1-hydroxyethyl)decylammonium chloride; phases: Liquid, Crystal
Fixed: Pressure, kPa = 101
Property: Solid-liquid equilibrium temperature, K (Liquid); method: DTA
Mole fraction of choline chloride	Solid-liquid equilibrium temperature, K	uncertainty
0.101	345.8	0.5
0.114	338.8	0.5
0.197	331.5	0.5
0.222	330.5	0.5
0.303	317.6	0.5
0.319	316	0.5
0.356	307.7	0.5
0.399	305.7	0.5

System: choline chloride + benzyldimethyl-2-(1-hydroxyethyl)decylammonium chloride; phases: Liquid, Crystal
Fixed: Pressure, kPa = 101
Property: Solid-liquid equilibrium temperature, K (Liquid); method: DTA
Mole fraction of choline chloride	Solid-liquid equilibrium temperature, K	uncertainty
0.499	341.7	0.5
0.5	341.3	0.5
0.599	393.5	0.5
0.601	397.5	0.5
0.672	431.6	0.5
0.677	432.1	0.5
0.798	482	0.5
0.8	479.5	0.5
0.899	535.7	0.5
0.906	535.4	0.5

System: choline chloride + 1-butyl-1-methylpyrrolidinium chloride; phases: Liquid, Crystal
Fixed: Pressure, kPa = 101
Property: Solid-liquid equilibrium temperature, K (Liquid); method: DTA
Mole fraction of choline chloride	Solid-liquid equilibrium temperature, K	uncertainty
0.12	463.4	0.5
0.122	463.3	0.5
0.211	458.6	0.5
0.212	458.6	0.5
0.315	445.5	0.5
0.323	445.9	0.5
0.428	437.8	0.5
0.431	437.3	0.5
0.523	429.4	0.5
0.537	430	0.5
0.622	419.6	0.5
0.626	419.9	0.5

System: choline chloride + 1-butyl-1-methylpyrrolidinium chloride; phases: Liquid, Crystal
Fixed: Pressure, kPa = 101
Property: Solid-liquid equilibrium temperature, K (Liquid); method: DTA
Mole fraction of choline chloride	Solid-liquid equilibrium temperature, K	uncertainty
0.715	456.7	0.5
0.717	456.6	0.5
0.8	493.5	0.5
0.805	493.5	0.5
0.867	528.9	0.5
0.91	546.4	0.5
0.91	547	0.5
0.945	560.7	0.5

System: choline chloride + choline bis(trifluoromethylsulfonyl)imide; phases: Liquid, Crystal
Fixed: Pressure, kPa = 101
Property: Solid-liquid equilibrium temperature, K (Liquid); method: DTA
Mole fraction of choline chloride	Solid-liquid equilibrium temperature, K	uncertainty
0.402	295.95	0.53
0.405	297.65	0.53
0.499	349.05	0.53
0.601	389.05	0.53
0.601	389.25	0.53
0.703	447.65	0.53
0.706	448.75	0.53
0.8	497.75	0.53
0.799	498.35	0.53
0.9	546.25	0.53
0.9	547.25	0.53

System: choline chloride + 1-ethyl-3-methylimidazolium chloride; phases: Liquid, Crystal
Fixed: Pressure, kPa = 101
Property: Solid-liquid equilibrium temperature, K (Liquid); method: DTA
Mole fraction of choline chloride	Solid-liquid equilibrium temperature, K	uncertainty
0.1	343.5	0.5
0.103	344.1	0.5
0.2	334.3	0.5
0.202	333.4	0.5
0.299	321.5	0.5
0.301	322.5	0.5
0.4	303.4	0.5
0.401	303.5	0.5

System: choline chloride + 1-ethyl-3-methylimidazolium chloride; phases: Liquid, Crystal
Fixed: Pressure, kPa = 101
Property: Solid-liquid equilibrium temperature, K (Liquid); method: DTA
Mole fraction of choline chloride	Solid-liquid equilibrium temperature, K	uncertainty
0.497	337.1	0.5
0.501	337.1	0.5
0.6	377	0.5
0.601	377.5	0.5
0.698	427.6	0.5
0.699	425.5	0.5
0.797	478.9	0.5
0.798	478.8	0.5
0.898	525.6	0.5
0.9	525.7	0.5

System: choline chloride + 1-(2-hydroxyethyl)-3-methyl-1H-imidazolium chloride; phases: Liquid, Crystal
Fixed: Pressure, kPa = 101
Property: Solid-liquid equilibrium temperature, K (Liquid); method: DTA
Mole fraction of choline chloride	Solid-liquid equilibrium temperature, K	uncertainty
0.899	517.4	0.5
0.899	517.5	0.5
0.799	473.6	0.5
0.797	473.9	0.5
0.699	404	0.5
0.699	403.2	0.5
0.6	352	0.5
0.6	351.7	0.5
0.501	323.5	0.5
0.499	323.5	0.5

System: choline chloride + 1-(2-hydroxyethyl)-3-methyl-1H-imidazolium chloride; phases: Liquid, Crystal
Fixed: Pressure, kPa = 101
Property: Solid-liquid equilibrium temperature, K (Liquid); method: DTA
Mole fraction of choline chloride	Solid-liquid equilibrium temperature, K	uncertainty
0.4	333.7	0.5
0.398	333.5	0.5
0.302	340.5	0.5
0.301	340.9	0.5
0.201	345.5	0.5
0.2	346.1	0.5
0.102	352.6	0.5
0.1	352.8	0.5

System: choline chloride + tetrabutylammonium chloride; phases: Liquid, Crystal
Fixed: Pressure, kPa = 101
Property: Solid-liquid equilibrium temperature, K (Liquid); method: DTA
Mole fraction of choline chloride	Solid-liquid equilibrium temperature, K	uncertainty
0.114	341.6	0.5
0.125	341.3	0.5
0.189	340.9	0.5
0.191	341.3	0.5
0.289	333.3	0.5
0.296	331.6	0.5
0.412	328.3	0.5
0.425	326.9	0.5
0.488	317.7	0.5
0.49	316.3	0.5

System: choline chloride + tetrabutylammonium chloride; phases: Liquid, Crystal
Fixed: Pressure, kPa = 101
Property: Solid-liquid equilibrium temperature, K (Liquid); method: DTA
Mole fraction of choline chloride	Solid-liquid equilibrium temperature, K	uncertainty
0.906	518.3	0.5
0.901	520.4	0.5
0.803	471.2	0.5
0.803	472.6	0.5
0.696	421.4	0.5
0.692	422.7	0.5
0.606	368.4	0.5
