Measured thermophysical data. Dielectric properties of 1,1,1-trifluoroethane (HFC-143a) in the liquid phase
Source: Fluid Phase Equilib., 2009, 10.1016/j.fluid.2008.09.022
Compound 1: 1,1,1-trifluoroethane, C2H3F3, InChI=1S/C2H3F3/c1-2(3,4)5/h1H3

System: 1,1,1-trifluoroethane; phases: Liquid
Fixed: Frequency, MHz = 0.01
Property: Relative permittivity at various frequencies (Liquid); method: Parallel plate capacitor
Temperature, K	Pressure, kPa	Relative permittivity at various frequencies	uncertainty
218.12	2000	16.968	0.035
218.13	3000	17.006	0.035
218.16	4000	17.043	0.035
218.17	5000	17.076	0.035
218.18	11000	17.303	0.034
218.19	6000	17.111	0.035
218.21	7000	17.147	0.034
218.22	10000	17.264	0.034
218.23	8000	17.184	0.034
218.23	9000	17.224	0.035
218.24	12000	17.326	0.034
218.43	13000	17.338	0.034
218.45	14000	17.37	0.034
218.48	15000	17.403	0.034
223.96	15000	16.732	0.034
223.97	13000	16.66	0.034
223.97	14000	16.696	0.034
223.98	12000	16.622	0.034
224	2000	16.227	0.034
224	3000	16.267	0.034
224	4000	16.308	0.034
224	5000	16.349	0.034
224	6000	16.389	0.034
224	7000	16.432	0.034
224	8000	16.486	0.034
224	9000	16.506	0.034
224	10000	16.547	0.034
224	11000	16.582	0.034
232.97	14000	15.659	0.033
232.97	15000	15.697	0.033
232.98	13000	15.622	0.033
232.99	9000	15.465	0.033
232.99	10000	15.503	0.033
232.99	12000	15.581	0.033
233	6000	15.343	0.033
233	7000	15.387	0.033
233	8000	15.424	0.033
233	11000	15.543	0.033
233.01	2000	15.164	0.033
233.01	3000	15.207	0.033
233.01	4000	15.253	0.033
233.01	5000	15.298	0.033
243.15	14000	14.59	0.031
243.15	15000	14.629	0.031
243.16	2000	14.061	0.032
243.16	3000	14.108	0.032
243.16	4000	14.158	0.032
243.16	5000	14.203	0.032
243.16	6000	14.254	0.032
243.16	7000	14.298	0.032
243.16	9000	14.386	0.032
243.16	10000	14.43	0.031
243.16	11000	14.469	0.031
243.16	12000	14.51	0.031
243.16	13000	14.552	0.031
243.17	8000	14.34	0.032
253.13	2000	13.05	0.031
253.13	6000	13.264	0.031
253.13	8000	13.362	0.03
253.13	9000	13.407	0.03
253.13	15000	13.669	0.03
253.14	3000	13.106	0.031
253.14	4000	13.16	0.031
253.14	5000	13.209	0.031
253.14	7000	13.311	0.031
253.14	10000	13.455	0.03
253.14	11000	13.5	0.03
253.14	12000	13.543	0.03
253.14	14000	13.628	0.03
253.15	13000	13.585	0.03
263.02	2000	12.145	0.03
263.02	12000	12.685	0.029
263.02	13000	12.733	0.029
263.03	3000	12.203	0.03
263.03	4000	12.264	0.03
263.03	6000	12.379	0.03
263.03	7000	12.431	0.03
263.03	8000	12.485	0.03
263.03	10000	12.586	0.029
263.03	11000	12.636	0.029
263.03	14000	12.777	0.029
263.03	15000	12.821	0.029
263.04	5000	12.319	0.03
263.04	9000	12.536	0.029
274.42	2000	11.141	0.029
274.42	3000	11.215	0.029
274.42	4000	11.284	0.029
274.43	5000	11.346	0.029
274.43	6000	11.411	0.028
274.43	7000	11.471	0.028
274.43	9000	11.588	0.028
274.43	10000	11.644	0.028
274.43	12000	11.749	0.028
274.44	8000	11.528	0.028
274.44	11000	11.696	0.028
274.44	13000	11.798	0.028
274.44	14000	11.846	0.028
274.44	15000	11.895	0.028
283.16	2000	10.568	0.029
283.16	3000	10.641	0.029
283.16	4000	10.72	0.028
283.16	5000	10.796	0.028
283.17	6000	10.867	0.028
283.17	7000	10.936	0.028
283.17	8000	11.002	0.028
283.17	9000	11.066	0.028
283.18	10000	11.125	0.028
283.18	11000	11.183	0.028
283.18	12000	11.239	0.028
283.19	13000	11.293	0.028
283.19	14000	11.346	0.028
283.2	15000	11.397	0.027
294.1	2000	9.617	0.0297
294.1	3000	9.7189	0.0294
294.11	4000	9.8137	0.0292
294.11	5000	9.9019	0.0291
294.11	6000	9.9864	0.029
294.11	7000	10.066	0.029
294.11	9000	10.213	0.029
294.11	10000	10.281	0.029
294.11	11000	10.347	0.029
294.11	15000	10.585	0.028
294.12	8000	10.141	0.029
294.12	12000	10.409	0.028
294.12	13000	10.469	0.028
294.12	14000	10.526	0.028
