Measured thermophysical data. High-pressure phase behavior of the ternary system CO2 + ionic liquid [bmim][PF6] + naphthalene
Source: Fluid Phase Equilib., 2007, 10.1016/j.fluid.2006.11.010
Compound 1: carbon dioxide, CO2, InChI=1S/CO2/c2-1-3
Compound 2: naphthalene, C10H8, InChI=1S/C10H8/c1-2-6-10-8-4-3-7-9(10)5-1/h1-8H
Compound 3: 1-butyl-3-methylimidazolium hexafluorophosphate, C8H15F6N2P, InChI=1S/C8H15N2.F6P/c1-3-4-5-10-7-6-9(2)8-10;1-7(2,3,4,5)6/h6-8H,3-5H2,1-2H3;/q+1;-1

System: naphthalene + carbon dioxide; phases: Fluid (supercritical or subcritical phases), Crystal
Property: Mole fraction of naphthalene (Fluid (supercritical or subcritical phases)); method: UV detection
Temperature, K	Pressure, kPa	Mole fraction of naphthalene	uncertainty
313	8000	0.00104	0.00094
313	9000	0.00565	0.0016
323	8000	0.00108	0.00029
323	9000	0.00204	0.00064
323	10000	0.00425	0.00099
333	8000	0.00102	0.00024
333	9000	0.00171	0.00037
333	10000	0.00265	0.00063

System: naphthalene + carbon dioxide + 1-butyl-3-methylimidazolium hexafluorophosphate; phases: Gas, Liquid
Property: Mass concentration, kg/m3 of naphthalene (Gas); method: UV detection
Temperature, K	Pressure, kPa	Molality, mol/kg of naphthalene	Mass concentration, kg/m3 of naphthalene	uncertainty
313	8000	0.0932	0.11	0.105
313	8000	0.186	0.227	0.155
313	8000	0.375	0.322	0.17
313	9000	0.0851	0.595	0.168
313	9000	0.175	0.912	0.298
313	9000	0.363	1.07	3.941
313	10000	0.0828	0.724	0.242
313	10000	0.163	1.58	0.624
313	10000	0.315	3.83	1.323
313	12000	0.0777	1.03	0.349
313	12000	0.15	2.36	0.693
313	12000	0.302	4.6	1.252
313	15000	0.297	4.91	1.33
313	20000	0.289	5.36	1.44
323	8000	0.0234	0.025	0.006
323	8000	0.0471	0.033	0.01
323	8000	0.0943	0.047	0.016
323	8000	0.189	0.087	0.032
323	8000	0.378	0.182	0.076
323	9000	0.0231	0.04	0.014
323	9000	0.0463	0.066	0.023
323	9000	0.0932	0.108	0.065
323	9000	0.187	0.206	0.165
323	9000	0.374	0.411	0.203
323	10000	0.0218	0.114	0.032
323	10000	0.0445	0.176	0.057
323	10000	0.0895	0.337	0.113
323	10000	0.18	0.593	0.254
323	10000	0.357	1.41	0.478
323	12000	0.0195	0.252	0.065
323	12000	0.0406	0.412	0.122
323	12000	0.0814	0.816	0.209
323	12000	0.167	1.35	0.383
323	12000	0.337	2.53	0.705
323	15000	0.0177	0.356	0.091
323	15000	0.037	0.629	0.167
323	15000	0.0747	1.2	0.304
323	15000	0.153	2.17	0.606
323	15000	0.305	4.43	1.207
323	20000	0.0169	0.404	0.101
323	20000	0.0348	0.747	0.2
323	20000	0.07	1.47	0.356
323	20000	0.147	2.54	0.7
323	20000	0.291	5.27	1.466
333	8000	0.0235	0.017	0.005
333	8000	0.0471	0.031	0.007
333	8000	0.0947	0.038	0.012
333	8000	0.189	0.095	0.027
333	8000	0.378	0.162	0.046
333	9000	0.0234	0.025	0.006
333	9000	0.0471	0.036	0.011
333	9000	0.0939	0.067	0.023
333	9000	0.188	0.15	0.043
333	9000	0.376	0.261	0.091
333	10000	0.0231	0.044	0.017
333	10000	0.0463	0.066	0.029
333	10000	0.0928	0.141	0.059
333	10000	0.186	0.278	0.101
333	10000	0.372	0.519	0.234
333	12000	0.0217	0.124	0.039
333	12000	0.0445	0.186	0.075
333	12000	0.0869	0.483	0.151
333	12000	0.176	0.859	0.262
333	12000	0.352	1.7	0.514
333	15000	0.0196	0.245	0.076
333	15000	0.0395	0.474	0.149
333	15000	0.0777	1.03	0.278
333	15000	0.158	1.88	0.515
333	15000	0.318	3.66	1.006
333	20000	0.0177	0.355	0.094
333	20000	0.0359	0.683	0.201
333	20000	0.07	1.47	0.375
333	20000	0.145	2.67	0.687
333	20000	0.294	5.04	1.337
