Measured thermophysical data. Isobaric vapor liquid equilibrium and isothermal surface tensions of  2,2 -oxybis[propane] + 2,5-Dimethylfuran
Source: Fluid Phase Equilib., 2013, 10.1016/j.fluid.2013.02.005
Compound 1: 2,5-dimethylfuran, C6H8O, InChI=1S/C6H8O/c1-5-3-4-6(2)7-5/h3-4H,1-2H3, purity 99.9%
Compound 2: diisopropyl ether, C6H14O, InChI=1S/C6H14O/c1-5(2)7-6(3)4/h5-6H,1-4H3, purity 99.9%

System: 2,5-dimethylfuran; phases: Liquid
Property: Refractive index (Na D-line) (Liquid); method: Standard Abbe refractometry
Temperature, K	Pressure, kPa	Refractive index (Na D-line)	uncertainty
298.15	101.325	1.44012	0.00035

System: 2,5-dimethylfuran; phases: Liquid
Property: Mass density, kg/m3 (Liquid); method: Vibrating tube method
Temperature, K	Pressure, kPa	Mass density, kg/m3	uncertainty
298.15	101.325	895.63	0.08

System: 2,5-dimethylfuran; phases: Liquid, Gas
Property: Boiling temperature at pressure P, K (Liquid); method: Ebulliometric method (Recirculating still)
Pressure, kPa	Boiling temperature at pressure P, K	uncertainty
101.33	366.83	0.02

System: 2,5-dimethylfuran; phases: Liquid, Gas
Property: Surface tension liquid-gas, N/m (Liquid); method: Maximal bubble pressure
Temperature, K	Surface tension liquid-gas, N/m	uncertainty
303.15	0.02405	0.00019
283.15	0.02634	0.0002
330.15	0.02058	0.00017

System: 2,5-dimethylfuran; phases: Liquid, Gas
Property: Vapor or sublimation pressure, kPa (Liquid); method: Ebulliometric method (Recirculating still)
Temperature, K	Vapor or sublimation pressure, kPa	uncertainty
345.24	50	0.3
357.21	75	0.6
364.37	94	0.7

System: diisopropyl ether; phases: Liquid
Property: Refractive index (Na D-line) (Liquid); method: Standard Abbe refractometry
Temperature, K	Pressure, kPa	Refractive index (Na D-line)	uncertainty
298.15	101.325	1.36652	0.00035

System: diisopropyl ether; phases: Liquid
Property: Mass density, kg/m3 (Liquid); method: Vibrating tube method
Temperature, K	Pressure, kPa	Mass density, kg/m3	uncertainty
298.15	101.325	718.75	0.14

System: diisopropyl ether; phases: Liquid, Gas
Property: Boiling temperature at pressure P, K (Liquid); method: Ebulliometric method (Recirculating still)
Pressure, kPa	Boiling temperature at pressure P, K	uncertainty
101.33	341.67	0.02

System: diisopropyl ether; phases: Liquid, Gas
Property: Surface tension liquid-gas, N/m (Liquid); method: Maximal bubble pressure
Temperature, K	Surface tension liquid-gas, N/m	uncertainty
303.15	0.0167	0.00016
283.15	0.01888	0.00017
330.15	0.01388	0.00014

System: diisopropyl ether; phases: Liquid, Gas
Property: Vapor or sublimation pressure, kPa (Liquid); method: Ebulliometric method (Recirculating still)
Temperature, K	Vapor or sublimation pressure, kPa	uncertainty
321.03	50	0.3
332.65	75	0.5
339.57	94	0.7
307.64	30.01	0.08
311.53	35.01	0.08
314.98	40.01	0.09
318.08	45.01	0.09
320.94	50.01	0.1
323.56	55.01	0.1
326	60.01	0.1
328.29	65.01	0.11
330.45	70.01	0.11
332.48	75.01	0.12
334.41	80.01	0.12
336.23	85.01	0.13
339.65	95.01	0.14
341.52	100.89	0.14

System: diisopropyl ether + 2,5-dimethylfuran; phases: Liquid, Air at 1 atmosphere
Property: Surface tension liquid-gas, N/m (Liquid); method: Maximal bubble pressure
Temperature, K	Mole fraction of diisopropyl ether	Surface tension liquid-gas, N/m	uncertainty
283.15	0	0.02634	0.0002
283.15	0.067	0.02479	0.0002
283.15	0.112	0.02427	0.00019
283.15	0.234	0.02331	0.00019
283.15	0.323	0.02256	0.00018
283.15	0.42	0.02187	0.00018
283.15	0.52	0.02131	0.00018
283.15	0.626	0.02086	0.00018
283.15	1	0.01888	0.00017
330.15	0	0.02058	0.00017
330.15	0.153	0.01928	0.00017
330.15	0.192	0.01893	0.00017
330.15	0.245	0.01831	0.00016
330.15	0.342	0.01766	0.00016
330.15	0.434	0.01701	0.00016
330.15	0.543	0.01648	0.00015
330.15	0.664	0.01579	0.00015
330.15	0.782	0.01516	0.00015
330.15	0.897	0.01465	0.00015
330.15	1	0.01388	0.00014

System: diisopropyl ether + 2,5-dimethylfuran; phases: Liquid, Gas
Property: Boiling temperature at pressure P, K (Liquid); method: Ebulliometric method (Recirculating still)
Mole fraction of diisopropyl ether	Pressure, kPa	Boiling temperature at pressure P, K	uncertainty
0	50	345.24	0.12
0.05	50	343.13	0.14
0.096	50	341.34	0.14
0.134	50	339.86	0.13
0.179	50	338.32	0.13
0.231	50	336.7	0.13
0.335	50	333.69	0.13
0.396	50	332.03	0.12
0.445	50	330.95	0.12
0.499	50	329.69	0.12
0.553	50	328.63	0.12
0.601	50	327.52	0.11
0.646	50	326.78	0.12
0.75	50	324.85	0.11
0.81	50	323.8	0.11
0.869	50	322.85	0.11
0.93	50	321.82	0.11
1	50	321.03	0.11
0	75	357.21	0.15
0.051	75	355.03	0.17
0.097	75	353	0.17
0.139	75	351.47	0.16
0.185	75	349.93	0.16
0.227	75	348.62	0.16
0.274	75	347.19	0.15
0.329	75	345.78	0.15
0.396	75	343.67	0.15
0.443	75	342.62	0.15
0.496	75	341.54	0.15
0.551	75	340.22	0.15
0.601	75	338.83	0.15
0.649	75	338.38	0.15
0.755	75	336	0.15
0.809	75	335.23	0.14
0.87	75	334.17	0.14
0.931	75	333.37	0.14
1	75	332.65	0.14
0	94	364.37	0.15
0.046	94	362.32	0.18
0.096	94	360.27	0.18
0.133	94	358.83	0.17
0.182	94	357.17	0.17
0.23	94	355.55	0.16
0.273	94	354.36	0.16
0.295	94	353.55	0.17
0.325	94	352.64	0.16
0.394	94	350.69	0.16
0.441	94	349.47	0.15
0.496	94	348.22	0.15
0.55	94	347.38	0.16
0.596	94	346.27	0.16
0.649	94	345.25	0.15
0.704	94	344	0.16
0.751	94	343.28	0.16
0.806	94	342.32	0.15
0.87	94	341.09	0.15
0.931	94	340.13	0.15
1	94	339.57	0.15

System: diisopropyl ether + 2,5-dimethylfuran; phases: Gas, Liquid
Property: Mole fraction of diisopropyl ether (Gas); method: Chromatography
Mole fraction of diisopropyl ether	Pressure, kPa	Mole fraction of diisopropyl ether	uncertainty
0	50	0	
0.05	50	0.121	0.005
0.096	50	0.213	0.005
0.134	50	0.285	0.005
0.179	50	0.357	0.005
0.231	50	0.434	0.005
0.335	50	0.561	0.005
0.396	50	0.623	0.004
0.445	50	0.669	0.004
0.499	50	0.714	0.004
0.553	50	0.755	0.003
0.601	50	0.789	0.003
0.646	50	0.817	0.003
0.75	50	0.88	0.003
0.81	50	0.912	0.002
0.869	50	0.941	0.002
0.93	50	0.97	0.002
1	50	1	
0	75	0	
0.051	75	0.115	0.005
0.097	75	0.214	0.005
0.139	75	0.287	0.005
0.185	75	0.358	0.005
0.227	75	0.417	0.005
0.274	75	0.478	0.005
0.329	75	0.535	0.005
0.396	75	0.614	0.004
0.443	75	0.662	0.004
0.496	75	0.702	0.004
0.551	75	0.745	0.003
0.601	75	0.784	0.003
0.649	75	0.813	0.003
0.755	75	0.878	0.003
0.809	75	0.908	0.002
0.87	75	0.939	0.002
0.931	75	0.969	0.002
1	75	1	
0	94	0	
0.046	94	0.103	0.005
0.096	94	0.203	0.005
0.133	94	0.272	0.005
0.182	94	0.346	0.005
0.23	94	0.414	0.005
0.273	94	0.467	0.005
0.295	94	0.493	0.005
0.325	94	0.533	0.005
0.394	94	0.604	0.004
0.441	94	0.654	0.004
0.496	94	0.7	0.004
0.55	94	0.736	0.003
0.596	94	0.771	0.003
0.649	94	0.809	0.003
0.704	94	0.845	0.003
0.751	94	0.872	0.003
0.806	94	0.903	0.002
0.87	94	0.937	0.002
0.931	94	0.968	0.002
1	94	1	
