Measured thermophysical data. Liquid-liquid equilibrium for the ternary system of 1-butanol + 3-methyl-1-butanol + water at different temperatures
Source: Fluid Phase Equilib., 2012, 10.1016/j.fluid.2012.08.012
Compound 1: butan-1-ol, C4H10O, InChI=1S/C4H10O/c1-2-3-4-5/h5H,2-4H2,1H3, purity 99%
Compound 2: 3-methylbutan-1-ol, C5H12O, InChI=1S/C5H12O/c1-5(2)3-4-6/h5-6H,3-4H2,1-2H3, purity 98.5%
Compound 3: water, H2O, InChI=1S/H2O/h1H2, purity 99.9%

System: butan-1-ol + 3-methylbutan-1-ol + water; phases: Liquid mixture 1, Liquid mixture 2
Fixed: Pressure, kPa = 101
Property: Mole fraction of 3-methylbutan-1-ol (Liquid mixture 1); method: Chromatography
Property: Mole fraction of 3-methylbutan-1-ol (Liquid mixture 2); method: Chromatography
Property: Mole fraction of butan-1-ol (Liquid mixture 2); method: Chromatography
Temperature, K	Mole fraction of butan-1-ol	Mole fraction of 3-methylbutan-1-ol	uncertainty	Mole fraction of 3-methylbutan-1-ol	uncertainty	Mole fraction of butan-1-ol	uncertainty
298.15	0.9404	0		0		0.2534	
298.15	0.1609	0.8064	0.002	0.1018	0.0013	0.0485	
298.15	0.3356	0.6267	0.0031	0.0784	0.0013	0.0978	
298.15	0.5227	0.4337	0.0035	0.0541	0.0012	0.1477	
298.15	0.7239	0.2253	0.0021	0.0282	0.0012	0.1992	
298.15	0.8519	0.0922	0.0016	0.0116	0.0011	0.2313	
368.15	0.9325	0		0		0.3567	
368.15	0.835	0.1028	0.0016	0.0209	0.0012	0.32	
368.15	0.6931	0.2518	0.0023	0.0502	0.0012	0.2677	
368.15	0.5939	0.3553	0.0029	0.0701	0.0013	0.2313	
368.15	0.5736	0.3765	0.0031	0.0748	0.0013	0.2238	
368.15	0.5546	0.3963	0.0032	0.078	0.0012	0.2168	
368.15	0.4667	0.487	0.0039	0.1263	0.0015	0.1605	
368.15	0.3549	0.603	0.0032	0.1504	0.0016	0.1086	
368.15	0.2351	0.7289	0.0024	0.172	0.0017	0.0667	
368.15	0.0946	0.8736	0.0017	0.1952	0.0018	0.018	
