Measured thermophysical data. Bubble points of the systems isopropanol-water, isopropanol-water-sodium acetate and isopropanol-water-sodium oleate at high pressure
Source: Fluid Phase Equilib., 2006, 10.1016/j.fluid.2006.03.021
Compound 1: propan-2-ol, C3H8O, InChI=1S/C3H8O/c1-3(2)4/h3-4H,1-2H3
Compound 2: sodium ethanoate, C2H3NaO2, InChI=1S/C2H4O2.Na/c1-2(3)4;/h1H3,(H,3,4);/q;+1/p-1
Compound 3: water, H2O, InChI=1S/H2O/h1H2
Compound 4: sodium oleate, C18H33NaO2, InChI=1S/C18H34O2.Na/c1-2-3-4-5-6-7-8-9-10-11-12-13-14-15-16-17-18(19)20;/h9-10H,2-8,11-17H2,1H3,(H,19,20);/q;+1/p-1/b10-9-;

System: propan-2-ol + water; phases: Liquid, Gas
Property: Boiling temperature at pressure P, K (Liquid); method: CCELL:UFactor:4
Pressure, kPa	Mole fraction of propan-2-ol	Boiling temperature at pressure P, K	uncertainty
404	0.005969	410.65	1.32
420	0.01691	405.76	1.23
426	0.05447	400.97	1.03
431	0.02391	405.82	1.35
459	0.005969	415.51	1.28
465	0.01691	410.7	1.35
486	0.02391	410.78	1.24
496	0.05447	405.76	1.09
519	0.005969	420.38	1.2
535	0.01691	416.1	1.13
551	0.02391	415.62	1.08
561	0.05447	410.65	1.12
584	0.005969	425.29	1.09
600	0.01691	420.41	1.05
626	0.02391	420.57	1
631	0.05447	415.51	1
659	0.005969	430.14	1
675	0.01691	425.29	1.04
706	0.02391	425.42	0.92
716	0.05447	420.41	0.92
739	0.005969	434.98	0.95
755	0.01691	430.17	0.97
796	0.02391	430.28	0.87
806	0.05447	425.31	0.87
829	0.005969	439.91	0.91
845	0.01691	435.04	0.9
891	0.02391	435.17	0.83
906	0.05447	430.14	0.83
924	0.005969	444.79	0.82
945	0.01691	439.91	0.87
996	0.02391	440.07	0.79
1011	0.05447	435.04	0.79
1039	0.005969	449.65	0.78
1050	0.01691	444.79	0.78
1111	0.02391	444.95	0.8
1131	0.05447	439.88	0.75
1154	0.005969	454.52	0.79
1170	0.01691	449.65	0.75
1236	0.02391	449.87	0.78
1261	0.05447	444.79	0.75
1279	0.005969	459.4	0.8
1295	0.01691	454.52	0.73
1371	0.02391	454.63	0.76
1396	0.05447	449.68	0.73
1435	0.01691	459.4	0.76
1516	0.02391	459.59	0.79
1546	0.05447	454.58	0.7
1711	0.05447	459.43	0.71

System: propan-2-ol + sodium ethanoate + water; phases: Liquid, Gas
Property: Boiling temperature at pressure P, K (Liquid); method: CCELL:UFactor:4
Pressure, kPa	Mole fraction of sodium ethanoate	Mole fraction of propan-2-ol	Boiling temperature at pressure P, K	uncertainty
407	0.08068	0.01046	405.76	1.82
408	0.04741	0.05	396.31	1.27
418	0.0815	0.01611	405.82	1.34
430	0.04971	0.004071	415.54	1.36
433	0.04911	0.01607	405.74	1.19
434	0.08153	0	425.37	1.32
437	0.04991	0	420.49	1.33
438	0.08075	0.004221	415.56	0.82
447	0.08068	0.01046	410.65	1.38
461	0.0501	0.02237	405.82	1.27
463	0.04741	0.05	400.99	1.2
473	0.0815	0.01611	410.75	1.28
480	0.04971	0.004071	420.41	1.29
483	0.08075	0.004221	420.41	1.33
488	0.04911	0.01607	410.65	1.18
489	0.08153	0	430.22	1.29
492	0.04991	0	425.34	1.28
512	0.08068	0.01046	415.54	1.29
516	0.0501	0.02237	410.65	1.2
528	0.04741	0.05	405.87	1.14
533	0.0815	0.01611	415.56	1.1
545	0.04971	0.004071	425.26	1.17
548	0.04911	0.01607	415.51	1.02
549	0.08153	0	435.09	1.11
552	0.04991	0	430.17	1.2
553	0.08075	0.004221	425.31	1.2
562	0.08068	0.01046	420.41	1.31
581	0.0501	0.02237	415.56	1.07
603	0.04741	0.05	410.75	1.11
608	0.0815	0.01611	420.41	1.02
610	0.04971	0.004071	430.14	1.15
613	0.08075	0.004221	430.17	1.3
617	0.04991	0	435.01	1.15
623	0.04911	0.01607	420.41	1.14
624	0.08153	0	439.94	1.04
627	0.08068	0.01046	425.29	1.06
656	0.0501	0.02237	420.49	0.96
678	0.08075	0.004221	435.01	1.17
680	0.04971	0.004071	435.04	0.99
683	0.04741	0.05	415.59	1.1
683	0.0815	0.01611	425.23	1.02
687	0.04991	0	439.94	1.03
693	0.04911	0.01607	425.31	0.92
699	0.08153	0	444.87	1.03
707	0.08068	0.01046	430.14	1.02
741	0.0501	0.02237	425.34	0.96
758	0.08075	0.004221	439.88	1.1
763	0.0815	0.01611	430.17	0.93
768	0.04741	0.05	420.46	1.07
770	0.04971	0.004071	439.94	0.91
772	0.04991	0	444.85	0.94
777	0.04911	0.01607	430.2	0.88
779	0.08153	0	449.71	0.93
782	0.08068	0.01046	434.98	0.99
831	0.0501	0.02237	430.22	0.92
838	0.08075	0.004221	444.82	0.96
858	0.0815	0.01611	435.01	0.86
860	0.04971	0.004071	444.82	0.91
862	0.04991	0	449.79	0.92
867	0.04911	0.01607	435.09	0.84
868	0.04741	0.05	425.34	1.06
872	0.08068	0.01046	439.91	0.94
874	0.08153	0	454.58	0.87
931	0.0501	0.02237	435.12	0.89
933	0.08075	0.004221	449.68	0.87
955	0.04971	0.004071	449.71	0.86
957	0.04991	0	454.66	0.85
958	0.0815	0.01611	439.83	0.85
962	0.08068	0.01046	444.74	0.85
967	0.04911	0.01607	439.99	0.77
973	0.04741	0.05	430.25	1.05
974	0.08153	0	459.43	0.88
1036	0.0501	0.02237	440.02	0.87
1037	0.08075	0.004221	454.52	0.89
1063	0.0815	0.01611	444.74	0.84
1065	0.04971	0.004071	454.63	0.82
1067	0.04991	0	459.51	0.83
1072	0.08068	0.01046	449.57	0.83
1082	0.04911	0.01607	444.85	0.79
1093	0.04741	0.05	435.12	1.05
1137	0.08075	0.004221	459.43	0.95
1146	0.0501	0.02237	444.76	0.78
1178	0.0815	0.01611	449.65	0.79
1180	0.04971	0.004071	459.51	0.83
1182	0.08068	0.01046	454.47	0.83
1187	0.04911	0.01607	449.68	0.74
1213	0.04741	0.05	439.96	1.05
1281	0.0501	0.02237	449.71	0.78
1307	0.08068	0.01046	459.51	0.83
1308	0.0815	0.01611	454.58	0.76
1322	0.04911	0.01607	454.52	0.74
1348	0.04741	0.05	444.82	1.06
1416	0.0501	0.02237	454.6	0.77
1443	0.0815	0.01611	459.45	0.79
1462	0.04911	0.01607	459.4	0.77
1498	0.04741	0.05	449.71	1.07
1561	0.0501	0.02237	459.53	0.73
1653	0.04741	0.05	454.6	1.09
1828	0.04741	0.05	459.48	1.15

System: propan-2-ol + sodium oleate + water; phases: Liquid, Gas
Property: Boiling temperature at pressure P, K (Liquid); method: CCELL:UFactor:4
Pressure, kPa	Mole fraction of sodium oleate	Mole fraction of propan-2-ol	Boiling temperature at pressure P, K	uncertainty
412.9	0.001077	0.05035	400.76	1.12
414.2	0.002326	0.050948	400.76	1.33
420.6	0.001134	0	415.48	1.48
426.3	0.001106	0.024102	405.66	1.12
435.2	0.00239	0.024997	405.79	1.05
446.6	0.002695	0	420.35	1.14
453.2	0.001095	0.03403	405.68	1.06
458	0.002409	0.017094	410.67	1.22
469.2	0.002326	0.050948	405.66	1.23
470.6	0.001134	0	420.41	1.34
477.9	0.001077	0.05035	405.63	1.14
486.3	0.001106	0.024102	410.65	1.25
495.2	0.00239	0.024997	410.65	1.22
511.6	0.002695	0	425.26	1.15
518	0.002409	0.017094	415.51	1.15
518.3	0.001095	0.03403	410.62	1.14
530.6	0.001134	0	425.26	1.2
534.1	0.002326	0.050948	410.54	1.08
542.9	0.001077	0.05035	410.54	1.08
551.3	0.001106	0.024102	415.51	1.17
560.2	0.00239	0.024997	415.54	1.12
576.6	0.002695	0	430.12	1.09
583.3	0.001095	0.03403	415.51	1.04
588	0.002409	0.017094	420.43	1.06
595.6	0.001134	0	430.17	1.06
609.1	0.002326	0.050948	415.46	1
617.9	0.001077	0.05035	415.43	1
621.3	0.001106	0.024102	420.38	0.94
635.2	0.00239	0.024997	420.41	1.04
651.6	0.002695	0	435.01	0.95
663	0.002409	0.017094	425.29	1.01
663.3	0.001095	0.03403	420.38	1.02
675.6	0.001134	0	435.04	0.98
689.1	0.002326	0.050948	420.38	0.93
697.9	0.001077	0.05035	420.3	0.93
701.3	0.001106	0.024102	425.29	0.9
715.1	0.00239	0.024997	425.31	0.97
741.6	0.002695	0	439.88	0.89
743	0.002409	0.017094	430.17	0.95
743.3	0.001095	0.03403	425.26	0.91
755.6	0.001134	0	439.91	0.95
779.1	0.002326	0.050948	425.26	0.91
786.3	0.001106	0.024102	430.17	0.83
787.9	0.001077	0.05035	425.18	0.89
805.1	0.00239	0.024997	430.2	0.92
831.6	0.002695	0	444.71	0.87
833	0.002409	0.017094	435.04	0.9
838.3	0.001095	0.03403	430.12	0.9
845.6	0.001134	0	444.79	0.86
869.1	0.002326	0.050948	430.14	0.82
881.3	0.001106	0.024102	435.01	0.79
882.9	0.001077	0.05035	430.09	0.83
900.1	0.00239	0.024997	435.06	0.87
928	0.002409	0.017094	439.94	0.84
931.6	0.002695	0	449.57	0.83
938.3	0.001095	0.03403	435.04	0.86
950.6	0.001134	0	449.65	0.81
984.1	0.002326	0.050948	435.01	0.77
986.3	0.001106	0.024102	439.91	0.77
992.9	0.001077	0.05035	435.01	0.79
1005.1	0.00239	0.024997	439.86	0.83
1038	0.002409	0.017094	444.79	0.8
1041.6	0.002695	0	454.5	0.8
1048.3	0.001095	0.03403	439.88	0.79
1060.6	0.001134	0	454.55	0.8
1096.4	0.001106	0.024102	444.79	0.74
1099.1	0.002326	0.050948	439.88	0.77
1107.9	0.001077	0.05035	439.86	0.77
1120.1	0.00239	0.024997	444.76	0.82
1153	0.002409	0.017094	449.68	0.77
1161.6	0.002695	0	459.43	0.8
1168.3	0.001095	0.03403	444.79	0.79
1180.6	0.001134	0	459.43	0.8
1221.4	0.001106	0.024102	449.65	0.72
1224.1	0.002326	0.050948	444.79	0.75
1232.9	0.001077	0.05035	444.74	0.75
1240.1	0.00239	0.024997	449.65	0.8
1282.9	0.002409	0.017094	454.55	0.75
1293.3	0.001095	0.03403	449.68	0.75
1351.4	0.001106	0.024102	454.55	0.75
1359.1	0.002326	0.050948	449.65	0.72
1367.9	0.001077	0.05035	449.6	0.72
1375.1	0.00239	0.024997	454.55	0.77
1417.9	0.002409	0.017094	459.45	0.78
1438.3	0.001095	0.03403	454.55	0.72
1496.3	0.001106	0.024102	459.4	0.75
1509	0.002326	0.050948	454.5	0.7
1517.9	0.001077	0.05035	454.47	0.7
1520.1	0.00239	0.024997	459.43	0.73
1588.3	0.001095	0.03403	459.43	0.75
1669	0.002326	0.050948	459.4	0.73
1677.9	0.001077	0.05035	459.32	0.73
