Measured thermophysical data. The effect of temperature on the liquid-liquid equilibria of somealiphatic alcohols + di-sodium hydrogen citrate + water systems: Experimental and correlation
Source: Fluid Phase Equilib., 2013, 10.1016/j.fluid.2013.05.031
Compound 1: propan-1-ol, C3H8O, InChI=1S/C3H8O/c1-2-3-4/h4H,2-3H2,1H3, purity 99.5%
Compound 2: propan-2-ol, C3H8O, InChI=1S/C3H8O/c1-3(2)4/h3-4H,1-2H3, purity 99.5%
Compound 3: butan-1-ol, C4H10O, InChI=1S/C4H10O/c1-2-3-4-5/h5H,2-4H2,1H3, purity 99.5%
Compound 4: butan-2-ol, C4H10O, InChI=1S/C4H10O/c1-3-4(2)5/h4-5H,3H2,1-2H3, purity 99.5%
Compound 5: 2-methylpropan-2-ol, C4H10O, InChI=1S/C4H10O/c1-4(2,3)5/h5H,1-3H3, purity 99.5%
Compound 6: disodium hydrogen citrate, C6H6Na2O7, InChI=1S/C6H8O7.2Na/c7-3(8)1-6(13,5(11)12)2-4(9)10;;/h13H,1-2H2,(H,7,8)(H,9,10)(H,11,12);;/q;2*+1/p-2, purity 99.9%
Compound 7: water, H2O, InChI=1S/H2O/h1H2, purity 99.9%

System: propan-1-ol + disodium hydrogen citrate + water; phases: Liquid mixture 1, Liquid mixture 2
Fixed: Pressure, kPa = 101
Property: Mass fraction of propan-1-ol (Liquid mixture 1); method: Titration method
Temperature, K	Mass fraction of disodium hydrogen citrate	Mass fraction of propan-1-ol	uncertainty
298.15	0.1303	0.1595	0.0094
298.15	0.1288	0.1636	0.0087
298.15	0.128	0.1651	0.0086
298.15	0.1271	0.1663	0.0087
298.15	0.1256	0.1679	0.0089
298.15	0.1245	0.1702	0.0086
298.15	0.1225	0.1732	0.0086
298.15	0.1147	0.1843	0.0094
298.15	0.1111	0.1909	0.0096
298.15	0.1078	0.1975	0.0103
298.15	0.1034	0.2057	0.0113
298.15	0.0998	0.2141	0.0114
298.15	0.0952	0.2247	0.0123
298.15	0.0911	0.2351	0.0133
298.15	0.0868	0.2474	0.0145
298.15	0.0828	0.2589	0.0146
298.15	0.0783	0.2736	0.0157
308.15	0.4663	0.0289	0.0042
308.15	0.4356	0.0317	0.0045
308.15	0.43	0.0343	0.0045
308.15	0.3983	0.0397	0.0043
308.15	0.3767	0.0441	0.0043
308.15	0.3525	0.0479	0.0043
308.15	0.329	0.0526	0.0044
308.15	0.3155	0.0582	0.0046
308.15	0.2952	0.0658	0.0048
308.15	0.2823	0.0734	0.0051
308.15	0.2656	0.0831	0.0053
308.15	0.252	0.0921	0.006
308.15	0.2145	0.1278	0.0106
308.15	0.2078	0.1428	0.0107
318.15	0.0975	0.3869	0.0123
318.15	0.0972	0.3876	0.0123
318.15	0.097	0.3881	0.0123
318.15	0.0966	0.3887	0.0123
318.15	0.0961	0.389	0.0122
318.15	0.0955	0.39	0.0125
318.15	0.0945	0.3899	0.0126
318.15	0.0929	0.3891	0.0126
318.15	0.092	0.3908	0.0135
318.15	0.0906	0.3937	0.0143
318.15	0.0888	0.3951	0.0178
318.15	0.0876	0.4015	0.0176
318.15	0.0859	0.4078	0.0181
318.15	0.0843	0.4166	0.0195
318.15	0.0818	0.4221	0.0182
318.15	0.0793	0.4299	0.0171
318.15	0.0769	0.4363	0.0178

System: propan-1-ol + disodium hydrogen citrate + water; phases: Liquid mixture 2, Liquid mixture 1
Fixed: Pressure, kPa = 101
Property: Mass fraction of disodium hydrogen citrate (Liquid mixture 2); method: Index of refraction calibration data
Property: Mass fraction of propan-1-ol (Liquid mixture 1); method: Index of refraction calibration data
Property: Mass fraction of disodium hydrogen citrate (Liquid mixture 1); method: Index of refraction calibration data
Temperature, K	Mass fraction of propan-1-ol	Mass fraction of disodium hydrogen citrate	uncertainty	Mass fraction of propan-1-ol	uncertainty	Mass fraction of disodium hydrogen citrate	uncertainty
298.15	0.42374	0.03651	0.00413	0.13207	0.00631	0.15289	
308.15	0.73378	0.00046	0.00046	0.05014	0.00455	0.34883	
318.15	0.63927	0.00919	0.00401	0.1242	0.00538	0.22048	
318.15	0.65322	0.00857	0.00406	0.11739	0.00475	0.23156	
318.15	0.66585	0.00479	0.00402	0.11603	0.0049	0.26385	
318.15	0.70654	0.00248	0.00248	0.09647	0.00477	0.28914	
318.15	0.72004	0.00214	0.00214	0.09403	0.0045	0.31786	
318.15	0.74815	0.0011	0.0011	0.09063	0.00452	0.33345	
298.15	0.46557	0.02828	0.0041	0.1044	0.00608	0.17211	
298.15	0.50818	0.02202	0.00405	0.07739	0.00487	0.20623	
298.15	0.54661	0.02046	0.00403	0.0689	0.00441	0.23611	
308.15	0.65219	2e-05	2e-05	0.09509	0.00537	0.26376	
308.15	0.6798	0.00085	0.00085	0.08362	0.00514	0.2793	
308.15	0.69656	0.00134	0.00134	0.0677	0.00469	0.3043	
308.15	0.70727	0.00163	0.00163	0.06164	0.0045	0.32437	
308.15	0.73008	0.00066	0.00066	0.05643	0.00425	0.35108	

System: propan-2-ol + disodium hydrogen citrate + water; phases: Liquid mixture 1, Liquid mixture 2
Fixed: Pressure, kPa = 101
Property: Mass fraction of propan-2-ol (Liquid mixture 1); method: Titration method
Temperature, K	Mass fraction of disodium hydrogen citrate	Mass fraction of propan-2-ol	uncertainty
298.15	0.1344	0.2394	0.0098
298.15	0.1334	0.2413	0.0103
298.15	0.133	0.2416	0.0105
298.15	0.1326	0.2427	0.0103
298.15	0.132	0.2431	0.0106
298.15	0.1313	0.2445	0.0106
298.15	0.1303	0.2454	0.0105
298.15	0.1294	0.248	0.0104
298.15	0.1281	0.2501	0.0106
298.15	0.1262	0.2533	0.011
298.15	0.1242	0.2561	0.0106
298.15	0.1217	0.2611	0.0108
298.15	0.119	0.2653	0.011
298.15	0.1155	0.2716	0.0111
298.15	0.1121	0.2772	0.0112
298.15	0.108	0.2846	0.0115
298.15	0.1041	0.2914	0.0116
308.15	0.4191	0.0337	0.0045
308.15	0.4144	0.0353	0.0045
308.15	0.407	0.0376	0.0045
308.15	0.4001	0.0396	0.0045
308.15	0.3925	0.0425	0.0045
308.15	0.3773	0.045	0.0045
308.15	0.3652	0.0493	0.0046
308.15	0.3537	0.0536	0.0046
308.15	0.3359	0.0601	0.0047
308.15	0.319	0.0665	0.0049
308.15	0.3033	0.075	0.005
308.15	0.286	0.0814	0.0051
308.15	0.2702	0.0919	0.0055
308.15	0.2561	0.1012	0.0056
308.15	0.2398	0.1127	0.0059
308.15	0.2267	0.1234	0.0062
318.15	0.1394	0.2217	0.0118
318.15	0.1384	0.224	0.0116
318.15	0.1378	0.2258	0.0113
318.15	0.137	0.2273	0.011
318.15	0.1361	0.2294	0.0108
318.15	0.1352	0.2313	0.0109
318.15	0.1337	0.2344	0.0106
318.15	0.132	0.2373	0.0111
318.15	0.1293	0.2413	0.0111
318.15	0.1273	0.2467	0.0111
318.15	0.1242	0.2529	0.0118
318.15	0.1209	0.2587	0.0115
318.15	0.117	0.2674	0.0117
318.15	0.113	0.2748	0.0121
318.15	0.1084	0.2847	0.0123
318.15	0.1042	0.2933	0.0123

System: propan-2-ol + disodium hydrogen citrate + water; phases: Liquid mixture 1, Liquid mixture 2
Fixed: Pressure, kPa = 101
Property: Mass fraction of disodium hydrogen citrate (Liquid mixture 1); method: Index of refraction calibration data
Property: Mass fraction of propan-2-ol (Liquid mixture 2); method: Index of refraction calibration data
Property: Mass fraction of disodium hydrogen citrate (Liquid mixture 2); method: Index of refraction calibration data
Temperature, K	Mass fraction of propan-2-ol	Mass fraction of disodium hydrogen citrate	uncertainty	Mass fraction of propan-2-ol	uncertainty	Mass fraction of disodium hydrogen citrate	uncertainty
298.15	0.45736	0.03971	0.0044	0.08749	0.00485	0.27127	
308.15	0.6378	0.0001	0.0001	0.04052	0.00437	0.40211	
318.15	0.39171	0.05074	0.00441	0.15739	0.00579	0.19335	
318.15	0.4482	0.02935	0.00432	0.1399	0.00538	0.22111	
318.15	0.47285	0.02004	0.00419	0.13573	0.0051	0.23731	
318.15	0.49184	0.01694	0.00406	0.13054	0.00515	0.24967	
318.15	0.51245	0.01394	0.00402	0.12254	0.00498	0.26879	
318.15	0.52894	0.015	0.00402	0.11529	0.00485	0.29199	
298.15	0.48491	0.02845	0.00435	0.07636	0.00443	0.29323	
298.15	0.51054	0.01829	0.00414	0.07336	0.00431	0.32541	
298.15	0.54248	0.01362	0.00405	0.06806	0.00428	0.37028	
308.15	0.5124	0.0192	0.00402	0.0626	0.00473	0.3312	
308.15	0.54531	0.01824	0.00416	0.05867	0.00471	0.3385	
308.15	0.55708	0.00407	0.00407	0.05184	0.00721	0.3385	
308.15	0.59969	0.00395	0.00395	0.04904	0.00427	0.37082	
308.15	0.63717	0.00644	0.00401	0.04555	0.00425	0.38904	

System: butan-1-ol + disodium hydrogen citrate + water; phases: Liquid mixture 1, Liquid mixture 2
Fixed: Pressure, kPa = 101
Property: Mass fraction of butan-1-ol (Liquid mixture 1); method: Titration method
Temperature, K	Mass fraction of disodium hydrogen citrate	Mass fraction of butan-1-ol	uncertainty
298.15	0.1437	0.045	0.0043
298.15	0.1301	0.0427	0.0042
298.15	0.1216	0.0418	0.0042
298.15	0.1146	0.0412	0.0042
298.15	0.1123	0.0436	0.0042
298.15	0.1058	0.0438	0.0042
298.15	0.0962	0.0443	0.0042
298.15	0.0836	0.0447	0.0042
298.15	0.0762	0.0465	0.0043
298.15	0.0673	0.0486	0.0044
298.15	0.0608	0.0507	0.0043
298.15	0.0516	0.0512	0.0043
298.15	0.0466	0.0537	0.0045
298.15	0.0405	0.0549	0.0044
298.15	0.0357	0.0558	0.0044
298.15	0.0319	0.0586	0.0047
308.15	0.1307	0.0394	0.0061
308.15	0.1248	0.0412	0.0052
308.15	0.1206	0.0421	0.0042
308.15	0.1157	0.0434	0.0046
308.15	0.1108	0.0443	0.0042
308.15	0.1023	0.0456	0.0042
308.15	0.0951	0.0464	0.0042
308.15	0.0838	0.0471	0.0043
308.15	0.0781	0.0494	0.0043
308.15	0.067	0.0499	0.0043
308.15	0.0609	0.052	0.0043
308.15	0.0454	0.053	0.0043
318.15	0.1512	0.0671	0.0046
318.15	0.1428	0.0645	0.0046
318.15	0.1218	0.0578	0.0045
318.15	0.1122	0.0552	0.0044
318.15	0.1059	0.0547	0.0043
318.15	0.101	0.055	0.0043
318.15	0.091	0.0536	0.0043
318.15	0.0839	0.0545	0.0043
318.15	0.0779	0.056	0.0044
318.15	0.0491	0.0539	0.0043
318.15	0.0465	0.0559	0.0045
318.15	0.0389	0.0537	0.0043
318.15	0.0345	0.0548	0.0044

System: butan-1-ol + disodium hydrogen citrate + water; phases: Liquid mixture 1, Liquid mixture 2
Fixed: Pressure, kPa = 101
Property: Mass fraction of disodium hydrogen citrate (Liquid mixture 1); method: Index of refraction calibration data
Property: Mass fraction of butan-1-ol (Liquid mixture 2); method: Index of refraction calibration data
Property: Mass fraction of disodium hydrogen citrate (Liquid mixture 2); method: Index of refraction calibration data
Temperature, K	Mass fraction of butan-1-ol	Mass fraction of disodium hydrogen citrate	uncertainty	Mass fraction of butan-1-ol	uncertainty	Mass fraction of disodium hydrogen citrate	uncertainty
298.15	0.69822	0.00279	0.00279	0.05196	0.00419	0.0795	
308.15	0.76714	0.00035	0.00035	0.03425	0.00408	0.15732	
308.15	0.77647	1e-05	1e-05	0.02984	0.0045	0.16637	
318.15	0.70663	0.00073	0.00073	0.05956	0.00429	0.08073	
318.15	0.73536	0.00048	0.00048	0.05522	0.00418	0.1	
318.15	0.75409	0.00053	0.00053	0.05502	0.0042	0.13025	
318.15	0.7617	0.00043	0.00043	0.06259	0.00429	0.14628	
318.15	0.7417	0.00015	0.00015	0.06482	0.00445	0.15275	
318.15	0.76432	0.00013	0.00013	0.05734	0.00608	0.15104	
298.15	0.71883	0.00155	0.00155	0.04818	0.00413	0.10669	
298.15	0.73284	0.00122	0.00122	0.04961	0.00414	0.12751	
298.15	0.74422	0.00051	0.00051	0.04556	0.00413	0.14574	
298.15	0.7486	0.0002	0.0002	0.05235	0.00443	0.16347	
308.15	0.74605	0.00498	0.00421	0.04671	0.00458	0.08256	
308.15	0.75487	0.00398	0.00398	0.04306	0.00417	0.10192	
308.15	0.75262	0.00354	0.00354	0.03892	0.00415	0.12081	
308.15	0.7641	0.00308	0.00308	0.03646	0.00411	0.13778	

System: butan-2-ol + disodium hydrogen citrate + water; phases: Liquid mixture 1, Liquid mixture 2
Fixed: Pressure, kPa = 101
Property: Mass fraction of disodium hydrogen citrate (Liquid mixture 1); method: Titration method
Temperature, K	Mass fraction of butan-2-ol	Mass fraction of disodium hydrogen citrate	uncertainty
298.15	0.0615	0.1546	0.0168
298.15	0.0631	0.1496	0.0177
298.15	0.0638	0.1418	0.0134
298.15	0.0681	0.1287	0.013
298.15	0.0711	0.1195	0.0126
298.15	0.0738	0.1122	0.0128
298.15	0.0774	0.1028	0.0113
298.15	0.0799	0.094	0.0112
298.15	0.0845	0.0855	0.0097
298.15	0.0883	0.0785	0.0088
298.15	0.0914	0.0697	0.009
298.15	0.0958	0.0639	0.0078
298.15	0.0994	0.0571	0.0076
298.15	0.1027	0.0517	0.0083
308.15	0.07	0.1282	0.0056
308.15	0.072	0.1247	0.0053
308.15	0.0725	0.1211	0.0058
308.15	0.073	0.1163	0.0055
308.15	0.0744	0.1132	0.0132
308.15	0.0766	0.1084	0.0182
308.15	0.0779	0.1016	0.0139
308.15	0.0812	0.0863	0.0125
308.15	0.0841	0.0792	0.0112
308.15	0.0878	0.074	0.0089
308.15	0.0911	0.0669	0.0092
308.15	0.0944	0.0614	0.0093
308.15	0.0966	0.0544	0.0082
308.15	0.0996	0.0495	0.0069
308.15	0.1032	0.0442	0.0065
308.15	0.1078	0.0407	0.0052
318.15	0.0204	0.1722	0.0075
318.15	0.0222	0.1709	0.0089
318.15	0.0249	0.1676	0.0081
318.15	0.0281	0.1615	0.0084
318.15	0.032	0.1571	0.0084
318.15	0.0399	0.1453	0.0082
318.15	0.0442	0.1393	0.01
318.15	0.05	0.1247	0.0095
318.15	0.0555	0.1171	0.0089
318.15	0.061	0.1048	0.0101
318.15	0.0656	0.0949	0.0084
318.15	0.0721	0.0856	0.0072
318.15	0.0782	0.0777	0.0078
318.15	0.0829	0.0684	0.0077
318.15	0.0885	0.0613	0.0067
318.15	0.0916	0.0535	0.0081

System: butan-2-ol + disodium hydrogen citrate + water; phases: Liquid mixture 1, Liquid mixture 2
Fixed: Pressure, kPa = 101
Property: Mass fraction of disodium hydrogen citrate (Liquid mixture 1); method: Index of refraction calibration data
Property: Mass fraction of butan-2-ol (Liquid mixture 2); method: Index of refraction calibration data
Property: Mass fraction of disodium hydrogen citrate (Liquid mixture 2); method: Index of refraction calibration data
Temperature, K	Mass fraction of butan-2-ol	Mass fraction of disodium hydrogen citrate	uncertainty	Mass fraction of butan-2-ol	uncertainty	Mass fraction of disodium hydrogen citrate	uncertainty
298.15	0.67773	0.00145	0.00145	0.04856	0.00416	0.15113	
308.15	0.83453	4e-05	4e-05	0.06147	0.00498	0.17976	
308.15	0.83872	1e-05	1e-05	0.05746	0.00462	0.19139	
318.15	0.81193	0.00203	0.00203	0.06879	0.0043	0.08329	
318.15	0.76896	0.00192	0.00192	0.06338	0.00456	0.11825	
318.15	0.77679	0.00159	0.00159	0.04186	0.00463	0.14286	
318.15	0.79769	0.00125	0.00125	0.02479	0.00418	0.18728	
318.15	0.78904	0.00086	0.00086	0.0191	0.00407	0.2286	
318.15	0.80835	0.00055	0.00055	0.01213	0.00408	0.26532	
298.15	0.7	0.00122	0.00122	0.04502	0.00412	0.17902	
298.15	0.72796	0.00095	0.00095	0.04455	0.00411	0.20998	
298.15	0.73845	0.00083	0.00083	0.04376	0.00411	0.23138	
298.15	0.7446	0.00058	0.00058	0.04291	0.00411	0.25506	
308.15	0.80516	0.00364	0.00364	0.08224	0.00471	0.08831	
308.15	0.80976	7e-05	7e-05	0.07176	0.00444	0.11212	
308.15	0.81086	6e-05	6e-05	0.06938	0.00427	0.13309	
308.15	0.82559	0.00012	0.00012	0.06839	0.00426	0.15873	

System: 2-methylpropan-2-ol + disodium hydrogen citrate + water; phases: Liquid mixture 1, Liquid mixture 2
Fixed: Pressure, kPa = 101
Property: Mass fraction of disodium hydrogen citrate (Liquid mixture 1); method: Titration method
Temperature, K	Mass fraction of 2-methylpropan-2-ol	Mass fraction of disodium hydrogen citrate	uncertainty
298.15	0.1728	0.0969	0.0053
298.15	0.1764	0.0952	0.0055
298.15	0.1808	0.0924	0.0052
298.15	0.1929	0.0863	0.0051
298.15	0.1995	0.0837	0.0049
298.15	0.2062	0.081	0.0049
298.15	0.2136	0.078	0.0048
298.15	0.2214	0.0754	0.0047
298.15	0.2308	0.0721	0.0047
298.15	0.2397	0.0693	0.0046
298.15	0.2521	0.0655	0.0046
298.15	0.2631	0.0626	0.0045
298.15	0.2751	0.0591	0.0045
298.15	0.2905	0.0555	0.0044
298.15	0.3081	0.0509	0.0044
308.15	0.1174	0.1399	0.0058
308.15	0.1196	0.1392	0.0069
308.15	0.1231	0.1377	0.0071
308.15	0.1243	0.1344	0.0074
308.15	0.1293	0.1272	0.0088
308.15	0.1314	0.1225	0.0073
308.15	0.1346	0.1164	0.007
308.15	0.1409	0.1135	0.0062
308.15	0.1454	0.1069	0.0061
308.15	0.1525	0.103	0.0059
308.15	0.1586	0.0964	0.0054
308.15	0.1681	0.0927	0.0052
308.15	0.1768	0.0867	0.0053
308.15	0.1852	0.0821	0.0051
318.15	0.0405	0.1716	0.0068
318.15	0.0414	0.171	0.0067
318.15	0.0431	0.17	0.0067
318.15	0.0447	0.1688	0.0067
318.15	0.0475	0.1674	0.0068
318.15	0.0514	0.1647	0.0067
318.15	0.0554	0.1613	0.0067
318.15	0.0595	0.1592	0.0071
318.15	0.0648	0.1527	0.0067
318.15	0.0708	0.1499	0.0064
318.15	0.0759	0.1454	0.0064
318.15	0.0842	0.1406	0.0063
318.15	0.0942	0.1326	0.0066
318.15	0.1024	0.1242	0.0059
318.15	0.1154	0.1183	0.0057
318.15	0.1259	0.1113	0.0059
318.15	0.1367	0.1027	0.0059

System: 2-methylpropan-2-ol + disodium hydrogen citrate + water; phases: Liquid mixture 1, Liquid mixture 2
Fixed: Pressure, kPa = 101
Property: Mass fraction of disodium hydrogen citrate (Liquid mixture 1); method: Index of refraction calibration data
Property: Mass fraction of disodium hydrogen citrate (Liquid mixture 2); method: Index of refraction calibration data
Property: Mass fraction of 2-methylpropan-2-ol (Liquid mixture 2); method: Index of refraction calibration data
Temperature, K	Mass fraction of 2-methylpropan-2-ol	Mass fraction of disodium hydrogen citrate	uncertainty	Mass fraction of disodium hydrogen citrate	uncertainty	Mass fraction of 2-methylpropan-2-ol	uncertainty
298.15	0.45665	0.021	0.00404	0.11279	0.00836	0.14284	
308.15	0.61032	0.00533	0.004	0.17573	0.00671	0.08086	
308.15	0.60702	0.0059	0.004	0.14534	0.01118	0.15044	
318.15	0.5631	0.01131	0.00402	0.11735	0.0055	0.11756	
318.15	0.58488	0.0094	0.00401	0.15155	0.00611	0.06925	
318.15	0.6279	0.00687	0.00401	0.18732	0.03939	0.03412	
318.15	0.64411	0.00558	0.00401	0.21906	0.03459	0.03164	
318.15	0.66602	0.00438	0.004	0.25188	0.01662	0.03061	
318.15	0.70187	0.00319	0.00319	0.27135	0.01675	0.02549	
298.15	0.51177	0.01611	0.00403	0.1774	0.00684	0.10557	
298.15	0.54542	0.01412	0.00402	0.17736	0.00613	0.07696	
298.15	0.57923	0.01184	0.00401	0.21178	0.01126	0.06151	
298.15	0.61104	0.01088	0.00401	0.24336	0.01223	0.04929	
308.15	0.50268	0.01183	0.00402	0.09984	0.00543	0.1507	
308.15	0.53774	0.00931	0.00401	0.11053	0.00617	0.13648	
308.15	0.57588	0.00874	0.00401	0.12484	0.00786	0.12732	
308.15	0.58305	0.00756	0.00403	0.14009	0.00655	0.11749	
