Measured thermophysical data. Solubility and diffusivity of 1,1,1,2-tetrafluoroethane in room-temperature ionic liquids
Source: Fluid Phase Equilib., 2006, 10.1016/j.fluid.2006.01.026
Compound 1: 1H-Imidazolium, 3-butyl-1-methyl-, 1,1,2,3,3,3-hexafluoro-1-propanesulfonate (1:1), C11H16F6N2O3S, InChI=1S/C8H15N2.C3H2F6O3S/c1-3-4-5-10-7-6-9(2)8-10;4-1(2(5,6)7)3(8,9)13(10,11)12/h6-8H,3-5H2,1-2H3;1H,(H,10,11,12)/q+1;/p-1
Compound 2: 1-butyl-3-methylimidazolium 1,1,2-trifluoro-2-(perfluoroethoxy)ethanesulfonate, C12H16F8N2O4S, InChI=1S/C8H15N2.C4H2F8O4S/c1-3-4-5-10-7-6-9(2)8-10;5-1(2(6,7)17(13,14)15)16-4(11,12)3(8,9)10/h6-8H,3-5H2,1-2H3;1H,(H,13,14,15)/q+1;/p-1
Compound 3: 1-butyl-3-methylimidazolium 1,1,2-trifluoro-2-(trifluoromethoxy)ethanesulfonate, C11H16F6N2O4S, InChI=1S/C8H15N2.C3H2F6O4S/c1-3-4-5-10-7-6-9(2)8-10;4-1(13-3(7,8)9)2(5,6)14(10,11)12/h6-8H,3-5H2,1-2H3;1H,(H,10,11,12)/q+1;/p-1
Compound 4: 1-ethyl-3-methylimidazolium 1,1,2,2,2-pentafluoro-N-[(pentafluoroethyl)sulfonyl]ethanesulfonamide, C10H11F10N3O4S2, InChI=1S/C6H11N2.C4F10NO4S2/c1-3-8-5-4-7(2)6-8;5-1(6,7)3(11,12)20(16,17)15-21(18,19)4(13,14)2(8,9)10/h4-6H,3H2,1-2H3;/q+1;-1
Compound 5: trihexyl(tetradecyl)phosphonium 1,1,2-trifluoro-2-(perfluoroethoxy)ethane-1-sulfonate, C36H69F8O4PS, InChI=1S/C32H68P.C4H2F8O4S/c1-5-9-13-17-18-19-20-21-22-23-24-28-32-33(29-25-14-10-6-2,30-26-15-11-7-3)31-27-16-12-8-4;5-1(2(6,7)17(13,14)15)16-4(11,12)3(8,9)10/h5-32H2,1-4H3;1H,(H,13,14,15)/q+1;/p-1
Compound 6: tributyltetradecylphosphonium 1,1,2,3,3,3-hexafluoro-1-propanesulfonate, C29H57F6O3PS, InChI=1S/C26H56P.C3H2F6O3S/c1-5-9-13-14-15-16-17-18-19-20-21-22-26-27(23-10-6-2,24-11-7-3)25-12-8-4;4-1(2(5,6)7)3(8,9)13(10,11)12/h5-26H2,1-4H3;1H,(H,10,11,12)/q+1;/p-1
Compound 7: 1,1,1,2-tetrafluoroethane, C2H2F4, InChI=1S/C2H2F4/c3-1-2(4,5)6/h1H2

System: 1H-Imidazolium, 3-butyl-1-methyl-, 1,1,2,3,3,3-hexafluoro-1-propanesulfonate (1:1); phases: Liquid
Fixed: Pressure, kPa = 101.325
Property: Viscosity, Pa*s (Liquid); method: Capillary tube (Ostwald; Ubbelohde) method
Temperature, K	Viscosity, Pa*s	uncertainty
283.15	0.853	0.094
293.15	0.378	0.04
303.15	0.192	0.02
313.15	0.108	0.011
323.15	0.0668	0.0068
333.15	0.0442	0.0045
343.15	0.0308	0.0031
353.15	0.0223	0.0022
363.15	0.0166	0.0017
373.15	0.0125	0.0013

System: 1-butyl-3-methylimidazolium 1,1,2-trifluoro-2-(perfluoroethoxy)ethanesulfonate; phases: Liquid
Fixed: Pressure, kPa = 101.325
Property: Viscosity, Pa*s (Liquid); method: Capillary tube (Ostwald; Ubbelohde) method
Temperature, K	Viscosity, Pa*s	uncertainty
283.15	1.021	0.114
293.15	0.444	0.048
303.15	0.218	0.023
313.15	0.119	0.012
323.15	0.0712	0.0072
333.15	0.0459	0.0046
343.15	0.0316	0.0032
353.15	0.0229	0.0023
363.15	0.0173	0.0017
373.15	0.0135	0.0014

System: 1-butyl-3-methylimidazolium 1,1,2-trifluoro-2-(trifluoromethoxy)ethanesulfonate; phases: Liquid
Fixed: Pressure, kPa = 101.325
Property: Viscosity, Pa*s (Liquid); method: Capillary tube (Ostwald; Ubbelohde) method
Temperature, K	Viscosity, Pa*s	uncertainty
283.15	0.626	0.068
293.15	0.298	0.031
303.15	0.159	0.016
313.15	0.093	0.009
323.15	0.059	0.006
333.15	0.0398	0.004
343.15	0.0282	0.0028
353.15	0.0207	0.0021
363.15	0.0156	0.0016
373.15	0.0119	0.0012

System: trihexyl(tetradecyl)phosphonium 1,1,2-trifluoro-2-(perfluoroethoxy)ethane-1-sulfonate; phases: Liquid
Fixed: Pressure, kPa = 101.325
Property: Mass density, kg/m3 (Liquid); method: Vibrating tube method
Temperature, K	Mass density, kg/m3	uncertainty
283.15	1075	2
298.15	1063	2
323.15	1044	2
348.15	1025	2

System: trihexyl(tetradecyl)phosphonium 1,1,2-trifluoro-2-(perfluoroethoxy)ethane-1-sulfonate; phases: Liquid
Fixed: Pressure, kPa = 101.325
Property: Viscosity, Pa*s (Liquid); method: Capillary tube (Ostwald; Ubbelohde) method
Temperature, K	Viscosity, Pa*s	uncertainty
283.15	1.319	0.149
293.15	0.625	0.068
303.15	0.33	0.035
313.15	0.191	0.02
323.15	0.118	0.012
333.15	0.0774	0.0078
343.15	0.0529	0.0053
353.15	0.0372	0.0038
363.15	0.0267	0.0027
373.15	0.0193	0.0019

System: tributyltetradecylphosphonium 1,1,2,3,3,3-hexafluoro-1-propanesulfonate; phases: Liquid
Fixed: Pressure, kPa = 101.325
Property: Mass density, kg/m3 (Liquid); method: Vibrating tube method
Temperature, K	Mass density, kg/m3	uncertainty
283.15	1082	2
298.15	1070	2
323.15	1052	2
348.15	1034	2

System: tributyltetradecylphosphonium 1,1,2,3,3,3-hexafluoro-1-propanesulfonate; phases: Liquid
Fixed: Pressure, kPa = 101.325
Property: Viscosity, Pa*s (Liquid); method: Capillary tube (Ostwald; Ubbelohde) method
Temperature, K	Viscosity, Pa*s	uncertainty
283.15	2.512	0.296
293.15	1.103	0.124
303.15	0.539	0.058
313.15	0.289	0.03
323.15	0.167	0.017
333.15	0.103	0.01
343.15	0.0666	0.0067
353.15	0.045	0.0045
363.15	0.0315	0.0032
373.15	0.0226	0.0023

System: 1,1,1,2-tetrafluoroethane + 1-ethyl-3-methylimidazolium 1,1,2,2,2-pentafluoro-N-[(pentafluoroethyl)sulfonyl]ethanesulfonamide; phases: Liquid, Gas
Property: Mole fraction of 1,1,1,2-tetrafluoroethane (Liquid); method: gravimetric microbalance
Temperature, K	Pressure, kPa	Mole fraction of 1,1,1,2-tetrafluoroethane	uncertainty
283.1	10.3	0.03	0.013
283.15	50.4	0.137	0.013
283.1	100.3	0.258	0.013
283.15	150.2	0.368	0.013
283.15	200.1	0.473	0.013
283.1	250.1	0.575	0.013
283.1	300.4	0.673	0.013
283.1	350.5	0.795	0.013
298.05	10.5	0.019	0.012
298.1	50.5	0.086	0.012
298.1	100.5	0.164	0.012
298.1	150.4	0.236	0.012
298.1	200.4	0.305	0.012
298.1	250.3	0.37	0.012
298.1	300.4	0.432	0.013
298.05	350.5	0.491	0.013
323.15	10.5	0.011	0.011
323.15	50.5	0.046	0.012
323.15	100.4	0.089	0.012
323.15	150.5	0.13	0.012
323.15	200.4	0.169	0.012
323.15	250.3	0.207	0.012
323.15	300.3	0.243	0.012
323.15	350.4	0.278	0.012
348.1	10.4	0.006	0.006
348.1	50.6	0.027	0.012
348.1	100.4	0.053	0.012
348.1	150.4	0.079	0.012
348.1	200.4	0.103	0.012
348.05	249.6	0.126	0.012
348.1	300.5	0.149	0.012
348.05	350.3	0.171	0.012

System: 1,1,1,2-tetrafluoroethane + 1-ethyl-3-methylimidazolium 1,1,2,2,2-pentafluoro-N-[(pentafluoroethyl)sulfonyl]ethanesulfonamide; phases: Liquid, Gas
Property: Binary diffusion coefficient, m2/s (Liquid); method: gravimetric microbalance
Temperature, K	Pressure, kPa	Binary diffusion coefficient, m2/s	uncertainty
283.1	10.3	1.9e-11	0.015
283.1	100.3	3e-11	0.024
283.15	150.2	3.7e-11	0.03
283.15	200.1	4.9e-11	0.039
283.1	250.1	6.6e-11	0.053
283.1	300.4	8.7e-11	0.07
298.05	10.5	2.6e-11	0.021
298.1	50.5	3.8e-11	0.03
298.1	100.5	4.2e-11	0.034
298.1	150.4	4.8e-11	0.038
298.1	200.4	5.7e-11	0.046
298.1	250.3	6.7e-11	0.054
298.1	300.4	7.9e-11	0.063
323.15	10.5	5.8e-11	0.046
323.15	50.5	6.7e-11	0.054
323.15	100.4	8.2e-11	0.066
323.15	150.5	7.7e-11	0.062
323.15	200.4	8.4e-11	0.067
323.15	250.3	8.8e-11	0.07
323.15	300.3	9.4e-11	0.075
348.1	10.4	1.3e-10	0.1
348.1	50.6	1.4e-10	0.11
348.1	100.4	1.4e-10	0.11
348.1	150.4	1.3e-10	0.1
348.1	200.4	1.5e-10	0.12
348.05	249.6	1.4e-10	0.11
348.1	300.5	1.7e-10	0.14

System: 1,1,1,2-tetrafluoroethane + 1-butyl-3-methylimidazolium 1,1,2-trifluoro-2-(trifluoromethoxy)ethanesulfonate; phases: Liquid, Gas
Property: Mole fraction of 1,1,1,2-tetrafluoroethane (Liquid); method: gravimetric microbalance
Temperature, K	Pressure, kPa	Mole fraction of 1,1,1,2-tetrafluoroethane	uncertainty
283.2	10.3	0.026	0.013
283.2	50	0.117	0.013
283.15	100.3	0.225	0.013
283.15	150.2	0.327	0.013
282.1	200.2	0.426	0.013
283.1	250.5	0.516	0.013
283.1	299.5	0.63	0.013
283.1	350.5	0.748	0.013
298.1	10.2	0.017	0.012
298.1	50.3	0.075	0.012
298.2	100.2	0.144	0.012
298	150.2	0.209	0.012
298.1	200.3	0.273	0.012
298.15	250.4	0.333	0.012
298.1	300.1	0.392	0.012
297.9	350.1	0.453	0.013
323.15	10.5	0.009	0.009
323.15	50.3	0.039	0.012
323.15	100.2	0.076	0.012
323.15	150.2	0.112	0.012
323.15	200.3	0.146	0.012
323.15	250.3	0.18	0.012
323.15	300.4	0.213	0.012
323.15	350.2	0.245	0.012
348.15	10.3	0.005	0.005
348.1	50.5	0.023	0.012
348.1	100.5	0.045	0.012
348.05	150.3	0.067	0.012
348.05	200.4	0.088	0.012
348.1	250.4	0.109	0.012
348.1	300.2	0.129	0.012
348.1	350.4	0.149	0.012

System: 1,1,1,2-tetrafluoroethane + 1-butyl-3-methylimidazolium 1,1,2-trifluoro-2-(trifluoromethoxy)ethanesulfonate; phases: Liquid, Gas
Property: Binary diffusion coefficient, m2/s (Liquid); method: gravimetric microbalance
Temperature, K	Pressure, kPa	Binary diffusion coefficient, m2/s	uncertainty
283.2	10.3	1e-11	0.008
283.2	50	1.3e-11	0.01
283.15	100.3	1.6e-11	0.013
283.15	150.2	2.2e-11	0.018
282.1	200.2	3.3e-11	0.026
283.1	250.5	5.3e-11	0.042
283.1	299.5	5.3e-11	0.042
298.1	10.2	1.2e-11	0.01
298.1	50.3	2.2e-11	0.018
298.2	100.2	2.6e-11	0.021
298	150.2	3e-11	0.024
298.1	200.3	3.3e-11	0.026
298.15	250.4	4.4e-11	0.035
298.1	300.1	5.1e-11	0.041
297.9	350.1	4.5e-11	0.036
323.15	10.5	5.8e-11	0.046
323.15	50.3	5.4e-11	0.043
323.15	100.2	5.8e-11	0.046
323.15	150.2	6.4e-11	0.051
323.15	200.3	6.6e-11	0.053
323.15	250.3	7e-11	0.056
323.15	300.4	7.2e-11	0.058
323.15	350.2	6.9e-11	0.055
348.15	10.3	1e-10	0.08
348.1	50.5	1.2e-10	0.1
348.1	100.5	1.2e-10	0.1
348.05	150.3	1.2e-10	0.1
348.05	200.4	1.3e-10	0.1
348.1	250.4	1.3e-10	0.1
348.1	300.2	1.4e-10	0.11

System: 1,1,1,2-tetrafluoroethane + 1-butyl-3-methylimidazolium 1,1,2-trifluoro-2-(perfluoroethoxy)ethanesulfonate; phases: Liquid, Gas
Property: Mole fraction of 1,1,1,2-tetrafluoroethane (Liquid); method: gravimetric microbalance
Temperature, K	Pressure, kPa	Mole fraction of 1,1,1,2-tetrafluoroethane	uncertainty
283.15	10.2	0.028	0.013
283.1	50.4	0.132	0.013
283.15	100.4	0.253	0.013
283.1	150.3	0.363	0.013
283.05	200.2	0.466	0.013
283.1	250.2	0.568	0.013
283.1	300.4	0.673	0.013
283.1	350.4	0.798	0.013
298.05	10.3	0.018	0.012
298.1	50.3	0.084	0.012
298.1	100.2	0.162	0.012
298.1	150.2	0.236	0.012
298.05	200.3	0.304	0.012
298.1	250.4	0.368	0.012
298.1	300.3	0.431	0.012
298.1	350.1	0.494	0.013
323.15	10.4	0.011	0.011
323.15	50.3	0.045	0.012
323.15	100.2	0.087	0.012
323.15	150.2	0.129	0.012
323.15	200.2	0.168	0.012
323.15	250.4	0.206	0.012
323.1	300.4	0.241	0.012
323.15	350.3	0.276	0.012
348.1	10.5	0.006	0.006
348.1	50.5	0.027	0.012
348.1	100.5	0.053	0.012
348.1	150.5	0.078	0.012
347.9	200.6	0.103	0.012
348.1	250.5	0.126	0.012
348.1	300.4	0.149	0.012
348.1	350.5	0.171	0.012

System: 1,1,1,2-tetrafluoroethane + 1-butyl-3-methylimidazolium 1,1,2-trifluoro-2-(perfluoroethoxy)ethanesulfonate; phases: Liquid, Gas
Property: Binary diffusion coefficient, m2/s (Liquid); method: gravimetric microbalance
Temperature, K	Pressure, kPa	Binary diffusion coefficient, m2/s	uncertainty
283.15	10.2	9e-12	0.007
283.1	50.4	1.2e-11	0.01
283.15	100.4	1.7e-11	0.014
283.1	150.3	2.5e-11	0.02
283.05	200.2	3.7e-11	0.03
283.1	250.2	5.4e-11	0.043
283.1	300.4	7.1e-11	0.057
298.05	10.3	1.8e-11	0.014
298.1	50.3	2.3e-11	0.018
298.1	100.2	2.6e-11	0.021
298.1	150.2	3.2e-11	0.026
298.05	200.3	4.1e-11	0.033
298.1	250.4	5e-11	0.04
298.1	300.3	5.7e-11	0.046
298.1	350.1	4.9e-11	0.039
323.15	50.3	6e-11	0.048
323.15	100.2	5.7e-11	0.046
323.15	150.2	6.6e-11	0.053
323.15	200.2	6.9e-11	0.055
323.15	250.4	7.4e-11	0.059
323.1	300.4	8.6e-11	0.069
323.15	350.3	8e-11	0.064
348.1	10.5	1.1e-10	0.09
348.1	50.5	1.2e-10	0.1
348.1	100.5	1.2e-10	0.1
347.9	200.6	1.1e-10	0.09
348.1	250.5	1.5e-10	0.12
348.1	300.4	1.3e-10	0.1
348.1	350.5	1.4e-10	0.11

System: 1,1,1,2-tetrafluoroethane + trihexyl(tetradecyl)phosphonium 1,1,2-trifluoro-2-(perfluoroethoxy)ethane-1-sulfonate; phases: Liquid, Gas
Property: Mole fraction of 1,1,1,2-tetrafluoroethane (Liquid); method: gravimetric microbalance
Temperature, K	Pressure, kPa	Mole fraction of 1,1,1,2-tetrafluoroethane	uncertainty
283.1	9.8	0.038	0.013
282.9	50	0.19	0.013
283.05	100	0.338	0.013
282.9	149.9	0.452	0.013
283.2	199.4	0.551	0.013
282.9	249.6	0.634	0.013
282.85	300	0.718	0.013
282.8	349.5	0.799	0.013
298.1	10	0.018	0.013
298.1	50	0.121	0.013
298.1	100	0.228	0.012
298.05	149.9	0.32	0.012
298.1	200	0.397	0.012
298.1	250.3	0.462	0.012
298.05	300.4	0.52	0.012
298.1	350.4	0.574	0.013
323.15	10.1	0.011	0.011
323.15	50.1	0.068	0.012
323.15	100.1	0.134	0.012
323.15	150	0.193	0.012
323.15	200.1	0.246	0.012
323.15	250.1	0.294	0.012
323.15	300	0.339	0.012
323.2	349.7	0.381	0.012
348.05	10.1	0.003	0.003
348.1	50.2	0.039	0.012
348.05	100.1	0.083	0.012
348.1	149.6	0.122	0.012
348.1	200.1	0.16	0.012
348.1	250.3	0.194	0.012
348.1	300.3	0.227	0.012
348.1	350.5	0.256	0.012

System: 1,1,1,2-tetrafluoroethane + trihexyl(tetradecyl)phosphonium 1,1,2-trifluoro-2-(perfluoroethoxy)ethane-1-sulfonate; phases: Liquid, Gas
Property: Binary diffusion coefficient, m2/s (Liquid); method: gravimetric microbalance
Temperature, K	Pressure, kPa	Binary diffusion coefficient, m2/s	uncertainty
283.1	9.8	1.7e-11	0.014
282.9	50	2e-11	0.016
283.05	100	2.7e-11	0.022
282.9	149.9	3.3e-11	0.026
283.2	199.4	5.6e-11	0.045
282.9	249.6	1e-10	0.08
282.85	300	1.2e-10	0.1
298.1	10	2.8e-11	0.022
298.1	50	4.2e-11	0.034
298.1	100	4.6e-11	0.037
298.05	149.9	5.5e-11	0.044
298.1	200	6.6e-11	0.053
298.1	250.3	8.9e-11	0.071
298.05	300.4	9.6e-11	0.077
298.1	350.4	1.1e-10	0.09
323.15	50.1	9.5e-11	0.076
323.15	100.1	9.9e-11	0.079
323.15	150	1.1e-10	0.09
323.15	200.1	9.8e-11	0.078
323.15	250.1	1.2e-10	0.1
323.15	300	1.2e-10	0.1
323.2	349.7	1.1e-10	0.09
348.05	10.1	1.8e-10	0.14
348.1	50.2	1.8e-10	0.14
348.05	100.1	2e-10	0.16
348.1	149.6	2.1e-10	0.17
348.1	200.1	2.3e-10	0.18
348.1	250.3	2.3e-10	0.18
348.1	300.3	2.1e-10	0.17
348.1	350.5	2.1e-10	0.17

System: 1,1,1,2-tetrafluoroethane + 1H-Imidazolium, 3-butyl-1-methyl-, 1,1,2,3,3,3-hexafluoro-1-propanesulfonate (1:1); phases: Liquid, Gas
Property: Mole fraction of 1,1,1,2-tetrafluoroethane (Liquid); method: gravimetric microbalance
Temperature, K	Pressure, kPa	Mole fraction of 1,1,1,2-tetrafluoroethane	uncertainty
283.1	9.9	0.015	0.012
283.1	50.2	0.082	0.012
283.1	100	0.171	0.012
283.15	150	0.264	0.012
283.1	200.1	0.35	0.013
283.15	250	0.447	0.013
283.15	300.2	0.55	0.013
283.2	350.6	0.677	0.013
298	10.1	0.01	0.01
298.1	50.1	0.055	0.012
298.1	100	0.109	0.012
298.05	149.9	0.163	0.012
298.1	199.4	0.219	0.012
298.15	250.4	0.269	0.012
298.1	300	0.321	0.012
298	350.4	0.374	0.013
323.15	10.1	0.006	0.006
323.15	50	0.029	0.012
323.15	100	0.058	0.012
323.1	150	0.088	0.012
323.15	199.3	0.117	0.012
323.15	250.4	0.145	0.012
323.15	300.4	0.172	0.012
323.15	350.2	0.198	0.012
348.05	9.9	0.003	0.003
348.05	50.1	0.017	0.012
348.05	100	0.035	0.012
348.1	149.9	0.053	0.012
348.1	200	0.07	0.012
348.05	249.5	0.087	0.012
348.05	300.1	0.103	0.012
348.05	349.4	0.12	0.012

System: 1,1,1,2-tetrafluoroethane + 1H-Imidazolium, 3-butyl-1-methyl-, 1,1,2,3,3,3-hexafluoro-1-propanesulfonate (1:1); phases: Liquid, Gas
Property: Binary diffusion coefficient, m2/s (Liquid); method: gravimetric microbalance
Temperature, K	Pressure, kPa	Binary diffusion coefficient, m2/s	uncertainty
283.1	50.2	9e-12	0.007
283.1	100	1.1e-11	0.009
283.15	150	1.4e-11	0.011
283.15	250	2.4e-11	0.019
283.15	300.2	4.8e-11	0.038
283.2	350.6	7.1e-11	0.057
298	10.1	1.6e-11	0.013
298.05	149.9	1.5e-11	0.012
298.1	199.4	1.8e-11	0.014
298.15	250.4	2.7e-11	0.022
298.1	300	2.5e-11	0.02
298	350.4	3.1e-11	0.025
323.15	10.1	3.9e-11	0.031
323.15	50	3.5e-11	0.028
323.15	100	2.8e-11	0.022
323.1	150	3.3e-11	0.026
323.15	250.4	4.2e-11	0.034
323.15	300.4	4.8e-11	0.038
323.15	350.2	4.8e-11	0.038
348.05	9.9	5.1e-11	0.041
348.05	100	6.7e-11	0.054
348.1	149.9	7.6e-11	0.061
348.1	200	6.7e-11	0.054
348.05	249.5	8.1e-11	0.065
348.05	300.1	8.1e-11	0.065

System: 1,1,1,2-tetrafluoroethane + tributyltetradecylphosphonium 1,1,2,3,3,3-hexafluoro-1-propanesulfonate; phases: Liquid, Gas
Property: Mole fraction of 1,1,1,2-tetrafluoroethane (Liquid); method: gravimetric microbalance
Temperature, K	Pressure, kPa	Mole fraction of 1,1,1,2-tetrafluoroethane	uncertainty
283.3	9.9	0.032	0.013
283.05	50	0.152	0.013
283.35	100	0.289	0.013
283.2	150	0.403	0.013
283.15	200	0.494	0.013
283.2	250.3	0.587	0.013
283.15	300.2	0.672	0.013
283.15	349.3	0.763	0.013
298.1	10	0.019	0.012
298.1	50	0.104	0.012
298.05	99.9	0.194	0.012
298.1	149.9	0.273	0.012
298.1	200.2	0.35	0.012
298.1	250	0.418	0.012
298.1	299.9	0.477	0.012
298.1	350.2	0.53	0.013
323.15	10.1	0.01	0.01
323.15	50	0.056	0.012
323.15	99.9	0.111	0.012
323.15	149.9	0.161	0.012
323.15	200	0.209	0.012
323.15	249.5	0.254	0.012
323.15	299.9	0.293	0.012
323.15	349.6	0.333	0.012
348.1	10.1	0.009	0.009
348.1	50.4	0.037	0.012
348.1	100.1	0.072	0.012
348.05	150	0.105	0.012
348.1	200.1	0.136	0.012
348.05	250.4	0.165	0.012
348.1	300.4	0.194	0.012
348.05	350.4	0.221	0.012

System: 1,1,1,2-tetrafluoroethane + tributyltetradecylphosphonium 1,1,2,3,3,3-hexafluoro-1-propanesulfonate; phases: Liquid, Gas
Property: Binary diffusion coefficient, m2/s (Liquid); method: gravimetric microbalance
Temperature, K	Pressure, kPa	Binary diffusion coefficient, m2/s	uncertainty
283.05	50	1.3e-11	0.01
283.35	100	1.7e-11	0.014
283.2	150	2.7e-11	0.022
283.15	200	4.8e-11	0.038
283.2	250.3	5.4e-11	0.043
283.15	300.2	1.49e-10	0.119
283.15	349.3	2.02e-10	0.162
298.1	10	1.7e-11	0.014
298.1	50	2.6e-11	0.021
298.05	99.9	3.2e-11	0.026
298.1	149.9	3.7e-11	0.03
298.1	200.2	3.6e-11	0.029
298.1	250	4.8e-11	0.038
298.1	299.9	7.4e-11	0.059
298.1	350.2	1.01e-10	0.081
323.15	10.1	6.8e-11	0.054
323.15	50	6.6e-11	0.053
323.15	99.9	6.7e-11	0.054
323.15	149.9	6.5e-11	0.052
323.15	200	7.5e-11	0.06
323.15	249.5	8.2e-11	0.066
323.15	299.9	1.11e-10	0.089
348.1	10.1	1.36e-10	0.109
348.1	50.4	1.39e-10	0.111
348.1	100.1	1.37e-10	0.11
348.05	150	1.43e-10	0.114
348.1	200.1	1.63e-10	0.13
348.05	250.4	1.7e-10	0.136
348.1	300.4	1.51e-10	0.121
348.05	350.4	1.7e-10	0.136
