Measured thermophysical data. Acoustic, volumetric, transport, optical and rheological properties of benzyltripropylammonium based Deep Eutectic Solvents
Source: Fluid Phase Equilib., 2017, 10.1016/j.fluid.2017.03.011
Compound 1: benzyltripropylammonium chloride, C16H28ClN, InChI=1S/C16H28N.ClH/c1-4-12-17(13-5-2,14-6-3)15-16-10-8-7-9-11-16;/h7-11H,4-6,12-15H2,1-3H3;1H/q+1;/p-1
Compound 2: phenol, C6H6O, InChI=1S/C6H6O/c7-6-4-2-1-3-5-6/h1-5,7H
Compound 3: 1,2-ethanediol, C2H6O2, InChI=1S/C2H6O2/c3-1-2-4/h3-4H,1-2H2
Compound 4: 2-hydroxypropanoic acid, C3H6O3, InChI=1S/C3H6O3/c1-2(4)3(5)6/h2,4H,1H3,(H,5,6)
Compound 5: glycerol, C3H8O3, InChI=1S/C3H8O3/c4-1-3(6)2-5/h3-6H,1-2H2

System: phenol + benzyltripropylammonium chloride; phases: Liquid
Fixed: Pressure, kPa = 101
Fixed: Amount ratio of solute to solvent of phenol = 3
Property: Refractive index (Na D-line) (Liquid); method: Standard Abbe refractometry
Temperature, K	Refractive index (Na D-line)	uncertainty
293.15	1.5486	0.0008
298.15	1.5471	0.0008
303.15	1.5452	0.0008
308.15	1.5436	0.0008
313.15	1.542	0.0008
318.15	1.5403	0.0008
323.15	1.5386	0.0008
328.15	1.5369	0.0008
333.15	1.5352	0.0008
338.15	1.5334	0.0008
343.15	1.5317	0.0008

System: phenol + benzyltripropylammonium chloride; phases: Liquid
Fixed: Pressure, kPa = 101
Fixed: Amount ratio of solute to solvent of phenol = 3
Property: Mass density, kg/m3 (Liquid); method: Vibrating tube method
Temperature, K	Mass density, kg/m3	uncertainty
293.15	1060.26	0.96
298.15	1056.98	0.95
303.15	1053.73	0.95
308.15	1050.47	0.94
313.15	1047.19	0.93
318.15	1043.91	0.93
323.15	1040.64	0.92
328.15	1037.37	0.91
333.15	1034.12	0.91
338.15	1030.87	0.9
343.15	1027.64	0.89

System: phenol + benzyltripropylammonium chloride; phases: Liquid
Fixed: Pressure, kPa = 101
Fixed: Amount ratio of solute to solvent of phenol = 3
Property: Speed of sound, m/s (Liquid); method: Sing-around technique in a fixed-path interferometer
Temperature, K	Speed of sound, m/s	uncertainty
293.15	1699.74	2.16
298.15	1679.8	2.16
303.15	1661.66	2.15
308.15	1644.49	2.15
313.15	1628.02	2.15
318.15	1611.92	2.15
323.15	1596.19	2.15
328.15	1580.68	2.14
333.15	1565.45	2.14
338.15	1550.48	2.14
343.15	1536.07	2.14

System: phenol + benzyltripropylammonium chloride; phases: Liquid
Fixed: Pressure, kPa = 101
Fixed: Amount ratio of solute to solvent of phenol = 3
Property: Viscosity, Pa*s (Liquid); method: Falling or rolling sphere viscometry
Temperature, K	Viscosity, Pa*s	uncertainty
293.15	0.6384	0.0552
298.15	0.3815	0.0266
303.15	0.2371	0.0128
308.15	0.1567	0.0063
313.15	0.107	0.003
318.15	0.0768	0.0014
323.15	0.0576	0.0007
328.15	0.0431	0.0006
333.15	0.0326	0.0004
338.15	0.0258	0.0003
343.15	0.0204	0.0003

System: phenol + benzyltripropylammonium chloride; phases: Liquid
Fixed: Pressure, kPa = 101
Fixed: Amount ratio of solute to solvent of phenol = 3
Property: Electrical conductivity, S/m (Liquid); method: Alternating current cell with electrodes
Temperature, K	Electrical conductivity, S/m	uncertainty
293.15	0.0213	0.0009
298.15	0.0295	0.0012
303.15	0.0397	0.0016
308.15	0.0523	0.0021
313.15	0.0669	0.0027
318.15	0.0838	0.0034
323.15	0.0999	0.004
328.15	0.1178	0.0047
333.15	0.1379	0.0055
338.15	0.1617	0.0065
343.15	0.1833	0.0074

System: 1,2-ethanediol + benzyltripropylammonium chloride; phases: Liquid
Fixed: Pressure, kPa = 101
Fixed: Amount ratio of solute to solvent of 1,2-ethanediol = 3
Property: Refractive index (Na D-line) (Liquid); method: Standard Abbe refractometry
Temperature, K	Refractive index (Na D-line)	uncertainty
293.15	1.4981	0.0008
298.15	1.4965	0.0008
303.15	1.4952	0.0008
308.15	1.4939	0.0008
313.15	1.4924	0.0008
318.15	1.4911	0.0008
323.15	1.4895	0.0008
328.15	1.4879	0.0008
333.15	1.4864	0.0008
338.15	1.4849	0.0008
343.15	1.4831	0.0008

System: 1,2-ethanediol + benzyltripropylammonium chloride; phases: Liquid
Fixed: Pressure, kPa = 101
Fixed: Amount ratio of solute to solvent of 1,2-ethanediol = 3
Property: Mass density, kg/m3 (Liquid); method: Vibrating tube method
Temperature, K	Mass density, kg/m3	uncertainty
293.15	1063.63	0.97
298.15	1060.58	0.96
303.15	1057.52	0.96
308.15	1054.44	0.95
313.15	1051.35	0.94
318.15	1048.27	0.94
323.15	1045.19	0.93
328.15	1042.11	0.92
333.15	1039.03	0.92
338.15	1035.95	0.91
343.15	1032.88	0.9

System: 1,2-ethanediol + benzyltripropylammonium chloride; phases: Liquid
Fixed: Pressure, kPa = 101
Fixed: Amount ratio of solute to solvent of 1,2-ethanediol = 3
Property: Speed of sound, m/s (Liquid); method: Sing-around technique in a fixed-path interferometer
Temperature, K	Speed of sound, m/s	uncertainty
293.15	1762.41	2.17
298.15	1746.5	2.17
303.15	1731	2.16
308.15	1715.9	2.16
313.15	1701.07	2.16
318.15	1686.38	2.16
323.15	1671.91	2.16
328.15	1657.53	2.15
333.15	1643.31	2.15
338.15	1629.25	2.15
343.15	1615.71	2.15

System: 1,2-ethanediol + benzyltripropylammonium chloride; phases: Liquid
Fixed: Pressure, kPa = 101
Fixed: Amount ratio of solute to solvent of 1,2-ethanediol = 3
Property: Viscosity, Pa*s (Liquid); method: Falling or rolling sphere viscometry
Temperature, K	Viscosity, Pa*s	uncertainty
293.15	0.3279	0.0211
298.15	0.2292	0.012
303.15	0.1646	0.0069
308.15	0.121	0.0038
313.15	0.0908	0.0021
318.15	0.0706	0.0011
323.15	0.0544	0.0006
328.15	0.0421	0.0006
333.15	0.0335	0.0004
338.15	0.027	0.0004
343.15	0.0222	0.0003

System: 1,2-ethanediol + benzyltripropylammonium chloride; phases: Liquid
Fixed: Pressure, kPa = 101
Fixed: Amount ratio of solute to solvent of 1,2-ethanediol = 3
Property: Electrical conductivity, S/m (Liquid); method: Alternating current cell with electrodes
Temperature, K	Electrical conductivity, S/m	uncertainty
293.15	0.0734	0.003
298.15	0.0883	0.0036
303.15	0.1049	0.0042
308.15	0.1249	0.005
313.15	0.1464	0.0059
318.15	0.1703	0.0068
323.15	0.2	0.008
328.15	0.228	0.0091
333.15	0.26	0.0104
338.15	0.292	0.0117
343.15	0.328	0.0131

System: 2-hydroxypropanoic acid + benzyltripropylammonium chloride; phases: Liquid
Fixed: Pressure, kPa = 101
Fixed: Amount ratio of solute to solvent of 2-hydroxypropanoic acid = 3
Property: Refractive index (Na D-line) (Liquid); method: Standard Abbe refractometry
Temperature, K	Refractive index (Na D-line)	uncertainty
293.15	1.4944	0.0015
298.15	1.4926	0.0015
303.15	1.4908	0.0015
308.15	1.4892	0.0015
313.15	1.4876	0.0015
318.15	1.4858	0.0015
323.15	1.4844	0.0015
328.15	1.4824	0.0015
333.15	1.4811	0.0015
338.15	1.4791	0.0015
343.15	1.4778	0.0015

System: 2-hydroxypropanoic acid + benzyltripropylammonium chloride; phases: Liquid
Fixed: Pressure, kPa = 101
Fixed: Amount ratio of solute to solvent of 2-hydroxypropanoic acid = 3
Property: Mass density, kg/m3 (Liquid); method: Vibrating tube method
Temperature, K	Mass density, kg/m3	uncertainty
293.15	1120.61	11.83
298.15	1117.05	11.75
303.15	1113.49	11.68
308.15	1109.92	11.6
313.15	1106.36	11.53
318.15	1102.71	11.45
323.15	1099.19	11.38
328.15	1095.66	11.3
333.15	1092.1	11.23
338.15	1088.54	11.16
343.15	1084.99	11.08

System: 2-hydroxypropanoic acid + benzyltripropylammonium chloride; phases: Liquid
Fixed: Pressure, kPa = 101
Fixed: Amount ratio of solute to solvent of 2-hydroxypropanoic acid = 3
Property: Speed of sound, m/s (Liquid); method: Sing-around technique in a fixed-path interferometer
Temperature, K	Speed of sound, m/s	uncertainty
293.15	1658.17	6.55
298.15	1640.83	6.55
303.15	1624.66	6.55
308.15	1607.88	6.55
313.15	1592.53	6.55
318.15	1577.61	6.55
323.15	1563.68	6.54
328.15	1550.08	6.54
333.15	1537.26	6.54
338.15	1525.13	6.54
343.15	1513.64	6.54

System: 2-hydroxypropanoic acid + benzyltripropylammonium chloride; phases: Liquid
Fixed: Pressure, kPa = 101
Fixed: Amount ratio of solute to solvent of 2-hydroxypropanoic acid = 3
Property: Viscosity, Pa*s (Liquid); method: Falling or rolling sphere viscometry
Temperature, K	Viscosity, Pa*s	uncertainty
303.15	2.2767	0.3021
308.15	1.2883	0.1474
313.15	0.7805	0.0767
318.15	0.4892	0.0409
323.15	0.319	0.0225
328.15	0.2156	0.0128
333.15	0.1506	0.0075
338.15	0.1085	0.0046
343.15	0.0813	0.003

System: 2-hydroxypropanoic acid + benzyltripropylammonium chloride; phases: Liquid
Fixed: Pressure, kPa = 101
Fixed: Amount ratio of solute to solvent of 2-hydroxypropanoic acid = 3
Property: Electrical conductivity, S/m (Liquid); method: Alternating current cell with electrodes
Temperature, K	Electrical conductivity, S/m	uncertainty
293.15	0.0011	0.0001
298.15	0.0018	0.0001
303.15	0.003	0.0001
308.15	0.0047	0.0002
313.15	0.0071	0.0003
318.15	0.0103	0.0004
323.15	0.0146	0.0006
328.15	0.0201	0.0008
333.15	0.0267	0.0011
338.15	0.035	0.0014
343.15	0.0443	0.0018

System: glycerol + benzyltripropylammonium chloride; phases: Liquid
Fixed: Pressure, kPa = 101
Fixed: Amount ratio of solute to solvent of glycerol = 3
Property: Refractive index (Na D-line) (Liquid); method: Standard Abbe refractometry
Temperature, K	Refractive index (Na D-line)	uncertainty
293.15	1.5051	0.0008
298.15	1.5036	0.0008
303.15	1.5026	0.0008
308.15	1.5011	0.0008
313.15	1.4999	0.0008
318.15	1.4982	0.0008
323.15	1.4966	0.0008
328.15	1.4953	0.0008
333.15	1.4936	0.0008
338.15	1.4922	0.0008
343.15	1.4908	0.0008

System: glycerol + benzyltripropylammonium chloride; phases: Liquid
Fixed: Pressure, kPa = 101
Fixed: Amount ratio of solute to solvent of glycerol = 3
Property: Mass density, kg/m3 (Liquid); method: Vibrating tube method
Temperature, K	Mass density, kg/m3	uncertainty
293.15	1133.02	0.87
298.15	1129.97	0.87
303.15	1126.92	0.86
308.15	1123.81	0.86
313.15	1120.62	0.85
318.15	1117.51	0.84
323.15	1114.45	0.84
328.15	1111.39	0.83
333.15	1108.32	0.83
338.15	1105.24	0.82
343.15	1102.17	0.82

System: glycerol + benzyltripropylammonium chloride; phases: Liquid
Fixed: Pressure, kPa = 101
Fixed: Amount ratio of solute to solvent of glycerol = 3
Property: Speed of sound, m/s (Liquid); method: Sing-around technique in a fixed-path interferometer
Temperature, K	Speed of sound, m/s	uncertainty
293.15	1898.34	1.97
298.15	1868.91	1.96
303.15	1844.92	1.96
308.15	1824.4	1.95
313.15	1806.46	1.95
318.15	1790.06	1.95
323.15	1774.66	1.94
328.15	1760.1	1.94
333.15	1745.93	1.94
338.15	1732.23	1.94
343.15	1719.19	1.93

System: glycerol + benzyltripropylammonium chloride; phases: Liquid
Fixed: Pressure, kPa = 101
Fixed: Amount ratio of solute to solvent of glycerol = 3
Property: Viscosity, Pa*s (Liquid); method: Falling or rolling sphere viscometry
Temperature, K	Viscosity, Pa*s	uncertainty
303.15	1.8905	0.2319
308.15	1.1796	0.1262
313.15	0.7798	0.0726
318.15	0.5193	0.0413
323.15	0.3592	0.0241
328.15	0.2516	0.0139
333.15	0.1801	0.008
338.15	0.1314	0.0045
343.15	0.097	0.0024

System: glycerol + benzyltripropylammonium chloride; phases: Liquid
Fixed: Pressure, kPa = 101
Fixed: Amount ratio of solute to solvent of glycerol = 3
Property: Electrical conductivity, S/m (Liquid); method: Alternating current cell with electrodes
Temperature, K	Electrical conductivity, S/m	uncertainty
293.15	0.0058	0.0002
298.15	0.0085	0.0004
303.15	0.0117	0.0005
308.15	0.016	0.0007
313.15	0.022	0.0009
318.15	0.0289	0.0012
323.15	0.0374	0.0015
328.15	0.048	0.0019
333.15	0.0596	0.0024
338.15	0.0741	0.003
343.15	0.0894	0.0036
