Measured thermophysical data. Isobaric vapor-liquid equilibrium for chloroform + ethanol + 1,3- dimethylimidazolium dimethylphosphate at 101.3 kPa
Source: Fluid Phase Equilib., 2018, 10.1016/j.fluid.2018.03.015
Compound 1: trichloromethane, CHCl3, InChI=1S/CHCl3/c2-1(3)4/h1H, purity 99.9%
Compound 2: ethanol, C2H6O, InChI=1S/C2H6O/c1-2-3/h3H,2H2,1H3, purity 99.9%
Compound 3: 1,3-dimethylimidazolium dimethylphosphate, C7H15N2O4P, InChI=1S/C5H9N2.C2H7O4P/c1-6-3-4-7(2)5-6;1-5-7(3,4)6-2/h3-5H,1-2H3;1-2H3,(H,3,4)/q+1;/p-1, purity 99%

System: trichloromethane + ethanol; phases: Liquid, Gas
Fixed: Pressure, kPa = 101.3
Property: Boiling temperature at pressure P, K (Liquid); method: Ebulliometric method (Recirculating still)
Mole fraction of trichloromethane	Boiling temperature at pressure P, K	uncertainty
0.085	346.4	0.28
0.183	341.95	0.27
0.28	338.65	0.25
0.362	336.15	0.24
0.472	334.35	0.23
0.567	333.15	0.22
0.679	332.55	0.22
0.776	332.25	0.22
0.881	332.25	0.22
0.951	332.65	0.22

System: trichloromethane + ethanol; phases: Gas, Liquid
Fixed: Pressure, kPa = 101.3
Property: Mole fraction of trichloromethane (Gas); method: Chromatography
Mole fraction of trichloromethane	Mole fraction of trichloromethane	uncertainty
0.085	0.229	0.009
0.183	0.415	0.008
0.28	0.543	0.007
0.362	0.624	0.006
0.472	0.695	0.005
0.567	0.738	0.005
0.679	0.784	0.005
0.776	0.819	0.005
0.881	0.87	0.005
0.951	0.926	0.005

System: trichloromethane + ethanol + 1,3-dimethylimidazolium dimethylphosphate; phases: Liquid, Gas
Fixed: Pressure, kPa = 101.3
Property: Boiling temperature at pressure P, K (Liquid); method: Ebulliometric method (Recirculating still)
Mole fraction of 1,3-dimethylimidazolium dimethylphosphate	Solvent: Mole fraction of trichloromethane	Boiling temperature at pressure P, K	uncertainty
0.051	0.083	348.55	0.44
0.05	0.178	344.05	0.39
0.049	0.301	340.25	0.36
0.05	0.401	337.15	0.33
0.05	0.47	335.65	0.32
0.05	0.566	334.55	0.29
0.05	0.687	333.85	0.27
0.05	0.774	333.55	0.25
0.05	0.878	333.45	0.25
0.049	0.94	333.45	0.25
0.102	0.102	351.95	0.44
0.1	0.183	347.95	0.44
0.1	0.276	344.25	0.4
0.1	0.371	341.05	0.41
0.1	0.47	338.65	0.38
0.1	0.565	337.05	0.33
0.1	0.658	335.95	0.29
0.1	0.762	335.25	0.27
0.1	0.874	335.05	0.25
0.101	0.942	334.95	0.25
0.15	0.084	356.65	0.43
0.151	0.206	351.5	0.45
0.151	0.28	348.55	0.45
0.15	0.378	345.95	0.46
0.15	0.462	343.25	0.44
0.15	0.563	340.55	0.38
0.15	0.652	338.95	0.33
0.15	0.75	337.45	0.29
0.15	0.85	336.75	0.26
0.15	0.931	336.55	0.25

System: trichloromethane + ethanol + 1,3-dimethylimidazolium dimethylphosphate; phases: Gas, Liquid
Fixed: Pressure, kPa = 101.3
Property: Mole fraction of 1,3-dimethylimidazolium dimethylphosphate (Gas); method: Chromatography
Mole fraction of 1,3-dimethylimidazolium dimethylphosphate	Solvent: Mole fraction of trichloromethane	Mole fraction of 1,3-dimethylimidazolium dimethylphosphate	uncertainty
0.051	0.083	0	
0.05	0.178	0	
0.049	0.301	0	
0.05	0.401	0	
0.05	0.47	0	
0.05	0.566	0	
0.05	0.687	0	
0.05	0.774	0	
0.05	0.878	0	
0.049	0.94	0	
0.102	0.102	0	
0.1	0.183	0	
0.1	0.276	0	
0.1	0.371	0	
0.1	0.47	0	
0.1	0.565	0	
0.1	0.658	0	
0.1	0.762	0	
0.1	0.874	0	
0.101	0.942	0	
0.15	0.084	0	
0.151	0.206	0	
0.151	0.28	0	
0.15	0.378	0	
0.15	0.462	0	
0.15	0.563	0	
0.15	0.652	0	
0.15	0.75	0	
0.15	0.85	0	
0.15	0.931	0	

System: trichloromethane + ethanol + 1,3-dimethylimidazolium dimethylphosphate; phases: Gas, Liquid
Fixed: Pressure, kPa = 101.3
Property: Mole fraction of trichloromethane (Gas); method: Chromatography
Mole fraction of 1,3-dimethylimidazolium dimethylphosphate	Solvent: Mole fraction of trichloromethane	Mole fraction of trichloromethane	uncertainty
0.051	0.083	0.21	0.009
0.05	0.178	0.386	0.008
0.049	0.301	0.556	0.007
0.05	0.401	0.652	0.006
0.05	0.47	0.705	0.006
0.05	0.566	0.761	0.005
0.05	0.687	0.821	0.005
0.05	0.774	0.851	0.005
0.05	0.878	0.899	0.005
0.049	0.94	0.942	0.005
0.102	0.102	0.243	0.009
0.1	0.183	0.389	0.008
0.1	0.276	0.52	0.008
0.1	0.371	0.626	0.007
0.1	0.47	0.712	0.006
0.1	0.565	0.779	0.005
0.1	0.658	0.829	0.005
0.1	0.762	0.877	0.005
0.1	0.874	0.934	0.005
0.101	0.942	0.967	0.005
0.15	0.084	0.196	0.008
0.151	0.206	0.412	0.009
0.151	0.28	0.515	0.008
0.15	0.378	0.635	0.007
0.15	0.462	0.713	0.006
0.15	0.563	0.793	0.005
0.15	0.652	0.855	0.005
0.15	0.75	0.906	0.005
0.15	0.85	0.949	0.005
0.15	0.931	0.978	0.004
