Measured thermophysical data. High-temperature vapour liquid equilibrium for the water alcohol systems and  modeling with SAFT-VR: 1. Water ethanol
Source: Fluid Phase Equilib., 2013, 10.1016/j.fluid.2012.12.014
Compound 1: water, H2O, InChI=1S/H2O/h1H2, purity 99.9%
Compound 2: ethanol, C2H6O, InChI=1S/C2H6O/c1-2-3/h3H,2H2,1H3, purity 99.8%

System: water; phases: Liquid, Gas
Property: Vapor or sublimation pressure, kPa (Liquid); method: Closed cell (Static) method
Temperature, K	Vapor or sublimation pressure, kPa	uncertainty
383.2	142.5	2.1
393.2	198.7	2.2
403.2	270	2.5
413.2	361.7	2.8
423.2	476.1	3

System: ethanol + water; phases: Liquid, Gas
Property: Mole fraction of ethanol (Liquid); method: Density calibration data
Temperature, K	Pressure, kPa	Mole fraction of ethanol	uncertainty
423.2	808.2	0.1803	0.0092
423.2	826.7	0.229	0.0059
423.2	823.3	0.2292	0.0056
423.2	828.8	0.2296	0.0126
423.2	836.3	0.2505	0.0107
423.2	861	0.3141	0.0071
423.2	862.4	0.315	0.0069
423.2	873.7	0.3399	0.0124
423.2	886.7	0.3702	0.0149
423.2	886.4	0.3712	0.015
423.2	890.1	0.3941	0.0278
423.2	918.3	0.4564	0.0313
423.2	919	0.4598	0.0329
423.2	923.1	0.491	0.0329
423.2	923.8	0.4913	0.0288
423.2	967.4	0.9983	0.0017
363.3	125.7	0.1601	0.0188
363.3	137.5	0.2791	0.0216
363.3	143.3	0.3696	0.0313
363.3	144.4	0.3963	0.0339
363.3	144	0.3993	0.0323
363.3	144.4	0.4223	0.035
363.3	146	0.4261	0.0414
363.3	147.8	0.4722	0.0398
363.3	155.4	0.6363	0.082
363.3	156.1	0.7085	0.0523
363.3	158.9	0.7923	0.0544
363.3	157.6	0.9973	0.0027
381.4	156.1	0.0172	0.0071
381.4	183	0.043	0.0087
381.4	192.7	0.0563	0.009
381.4	234.8	0.1592	0.0112
381.4	252	0.2643	0.0164
381.4	256.1	0.2894	0.0179
381.4	265.8	0.3585	0.0192
381.4	265.8	0.3618	0.0193
381.4	269.9	0.4173	0.022
381.4	271.1	0.4215	0.0218
381.4	270.4	0.4256	0.0225
381.4	271.5	0.4271	0.0221
381.4	271.6	0.4367	0.0226
381.4	273.5	0.4371	0.0237
381.4	274	0.4404	0.023
381.4	275	0.4535	0.0165
381.4	275.2	0.4587	0.0163
381.4	276.1	0.4771	0.0197
381.4	279.9	0.4974	0.0182
381.4	280.6	0.5015	0.0185
381.4	282.7	0.5333	0.0371
381.4	283	0.5389	0.0391
381.4	287.8	0.6382	0.045
381.4	290.6	0.7099	0.0409
381.4	295.4	0.7938	0.0359
381.4	288.4	0.9967	0.0033
403.5	361.5	0.0431	0.0077
403.5	453.1	0.145	0.0044
403.5	501.9	0.2971	0.0072
403.5	521.8	0.3778	0.0107
403.5	532.2	0.4679	0.0658
403.5	563.1	0.638	0.0377
403.5	566.5	0.7067	0.0223
403.5	576.1	0.7953	0.0185
403.5	536	0.9991	0.0009
423.7	532.8	0.0137	0.0045
423.7	582.5	0.0256	0.0076
423.7	622.9	0.0415	0.0076
423.7	629.7	0.0427	0.0076
423.7	760.8	0.1204	0.0079
423.7	845.9	0.2507	0.0147
423.7	855	0.2825	0.0076
423.7	898.7	0.3926	0.0112
423.7	948.8	0.5669	0.0172
423.7	964.6	0.6417	0.1309
423.7	972.1	0.7094	0.1365
423.7	987.9	0.7947	0.1426
423.7	986.3	0.998	0.002

System: ethanol + water; phases: Gas, Liquid
Property: Mole fraction of ethanol (Gas); method: Density calibration data
Temperature, K	Pressure, kPa	Mole fraction of ethanol	uncertainty
423.2	808.2	0.449	0.0058
423.2	826.7	0.4867	0.0152
423.2	823.3	0.4704	0.0177
423.2	828.8	0.4919	0.002
423.2	836.3	0.4799	0.0067
423.2	861	0.5252	0.0053
423.2	862.4	0.525	0.005
423.2	873.7	0.5301	0.0057
423.2	886.7	0.5453	0.0079
423.2	886.4	0.5457	0.008
423.2	890.1	0.5572	0.0125
423.2	918.3	0.5952	0.0114
423.2	919	0.5947	0.0135
423.2	923.1	0.6068	0.0135
423.2	923.8	0.6063	0.0114
423.2	967.4	0.9993	0.0007
363.3	125.7	0.4717	0.0107
363.3	137.5	0.5328	0.0123
363.3	143.3	0.581	0.0182
363.3	144.4	0.5787	0.0139
363.3	144	0.5784	0.0174
363.3	144.4	0.5971	0.0146
363.3	146	0.6157	0.0125
363.3	147.8	0.6061	0.0225
363.3	155.4	0.7076	0.06
363.3	156.1	0.7468	0.0332
363.3	158.9	0.8101	0.0412
363.3	157.6	0.9971	0.0029
381.4	156.1	0.1495	0.0102
381.4	183	0.2713	0.0113
381.4	192.7	0.3314	0.0135
381.4	234.8	0.4736	0.0091
381.4	252	0.5375	0.0136
381.4	256.1	0.561	0.0058
381.4	265.8	0.5664	0.0058
381.4	265.8	0.5687	0.0059
381.4	269.9	0.5925	0.0108
381.4	271.1	0.5886	0.0117
381.4	270.4	0.5979	0.011
381.4	271.5	0.5979	0.012
381.4	271.6	0.5977	0.012
381.4	273.5	0.6017	0.0108
381.4	274	0.6092	0.0111
381.4	275	0.6144	0.0092
381.4	275.2	0.6198	0.0091
381.4	276.1	0.6119	0.0102
381.4	279.9	0.6294	0.0135
381.4	280.6	0.6312	0.0119
381.4	282.7	0.6526	0.0196
381.4	283	0.6491	0.021
381.4	287.8	0.7024	0.0238
381.4	290.6	0.7371	0.0287
381.4	295.4	0.8089	0.0303
381.4	288.4	0.9977	0.0023
403.5	361.5	0.2594	0.007
403.5	453.1	0.4336	0.0059
403.5	501.9	0.5298	0.0058
403.5	521.8	0.5628	0.0065
403.5	532.2	0.6041	0.0456
403.5	563.1	0.701	0.0221
403.5	566.5	0.7404	0.0155
403.5	576.1	0.8059	0.0139
403.5	536	0.9994	0.0006
423.7	532.8	0.11	0.0059
423.7	582.5	0.2017	0.0067
423.7	622.9	0.239	0.0087
423.7	629.7	0.2587	0.0087
423.7	760.8	0.4009	0.0062
423.7	845.9	0.4881	0.0021
423.7	855	0.4975	0.0088
423.7	898.7	0.5603	0.0046
423.7	948.8	0.643	0.0094
423.7	964.6	0.696	0.114
423.7	972.1	0.739	0.1184
423.7	987.9	0.8071	0.1668
423.7	986.3	0.9981	0.0019
