Measured thermophysical data. KCl effect on the solubility of five different amino acids in water
Source: Fluid Phase Equilib., 2007, 10.1016/j.fluid.2007.04.004
Compound 1: DL-2-aminopropanoic acid, C3H7NO2, InChI=1S/C3H7NO2/c1-2(4)3(5)6/h2H,4H2,1H3,(H,5,6)
Compound 2: water, H2O, InChI=1S/H2O/h1H2
Compound 3: 2-amino-3-methylpentanoic acid, C6H13NO2, InChI=1S/C6H13NO2/c1-3-4(2)5(7)6(8)9/h4-5H,3,7H2,1-2H3,(H,8,9)/t4-,5-/m0/s1
Compound 4: L-threonine, C4H9NO3, InChI=1S/C4H9NO3/c1-2(6)3(5)4(7)8/h2-3,6H,5H2,1H3,(H,7,8)/t2-,3+/m1/s1
Compound 5: 2-aminoacetic acid, C2H5NO2, InChI=1S/C2H5NO2/c3-1-2(4)5/h1,3H2,(H,4,5)
Compound 6: L-serine, C3H7NO3, InChI=1S/C3H7NO3/c4-2(1-5)3(6)7/h2,5H,1,4H2,(H,6,7)/t2-/m0/s1
Compound 7: potassium chloride, ClK, InChI=1S/ClH.K/h1H;/q;+1/p-1

System: DL-2-aminopropanoic acid + water; phases: Liquid, Crystal
Property: Mass ratio of solute to solvent of DL-2-aminopropanoic acid (Liquid); method: gravimetric method
Temperature, K	Pressure, kPa	Mass ratio of solute to solvent of DL-2-aminopropanoic acid	uncertainty
323.15	101	0.2299	0.0009

System: 2-amino-3-methylpentanoic acid + water; phases: Liquid, Crystal
Fixed: Pressure, kPa = 101
Property: Mass ratio of solute to solvent of 2-amino-3-methylpentanoic acid (Liquid); method: gravimetric method
Temperature, K	Mass ratio of solute to solvent of 2-amino-3-methylpentanoic acid	uncertainty
298.15	0.03359	0.0001
323.15	0.04057	0.00012

System: L-threonine + water; phases: Liquid, Crystal
Fixed: Pressure, kPa = 101
Property: Mass ratio of solute to solvent of L-threonine (Liquid); method: gravimetric method
Temperature, K	Mass ratio of solute to solvent of L-threonine	uncertainty
298.15	0.09746	0.00029
323.15	0.1406	0.0004

System: 2-aminoacetic acid + water; phases: Liquid, Crystal
Property: Mass ratio of solute to solvent of 2-aminoacetic acid (Liquid); method: gravimetric method
Temperature, K	Pressure, kPa	Mass ratio of solute to solvent of 2-aminoacetic acid	uncertainty
323.15	101	0.3723	0.0015

System: L-serine + water; phases: Liquid, Crystal
Property: Mass ratio of solute to solvent of L-serine (Liquid); method: gravimetric method
Temperature, K	Pressure, kPa	Mass ratio of solute to solvent of L-serine	uncertainty
323.15	101	0.6908	0.0021

System: L-serine + water; phases: Liquid, Crystal of intercomponent compound 1
Property: Mass ratio of solute to solvent of L-serine (Liquid); method: gravimetric method
Temperature, K	Pressure, kPa	Mass ratio of solute to solvent of L-serine	uncertainty
298.15	101	0.4286	0.0013

System: 2-aminoacetic acid + potassium chloride + water; phases: Liquid, Crystal
Fixed: Temperature, K = 323.15
Fixed: Pressure, kPa = 101
Property: Mass ratio of solute to solvent of 2-aminoacetic acid (Liquid); method: gravimetric method
Molality, mol/kg of potassium chloride	Mass ratio of solute to solvent of 2-aminoacetic acid	uncertainty
0	0.3723	0.0011
0.1	0.3755	0.0011
0.3	0.377	0.0011
0.5	0.3779	0.0011
0.7	0.3781	0.0011
1	0.3798	0.0011
1.5	0.3816	0.0011
2	0.3821	0.0011

System: DL-2-aminopropanoic acid + potassium chloride + water; phases: Liquid, Crystal
Fixed: Temperature, K = 323.15
Fixed: Pressure, kPa = 101
Property: Mass ratio of solute to solvent of DL-2-aminopropanoic acid (Liquid); method: gravimetric method
Molality, mol/kg of potassium chloride	Mass ratio of solute to solvent of DL-2-aminopropanoic acid	uncertainty
0	0.2299	0.0007
0.1	0.2315	0.0007
0.3	0.2306	0.0007
0.5	0.2298	0.0007
0.7	0.2292	0.0007
1	0.2269	0.0007
1.5	0.2236	0.0007
2	0.2186	0.0007

System: 2-amino-3-methylpentanoic acid + potassium chloride + water; phases: Liquid, Crystal
Fixed: Pressure, kPa = 101
Property: Mass ratio of solute to solvent of 2-amino-3-methylpentanoic acid (Liquid); method: gravimetric method
Temperature, K	Molality, mol/kg of potassium chloride	Mass ratio of solute to solvent of 2-amino-3-methylpentanoic acid	uncertainty
298.15	0	0.03359	0.0001
298.15	0.1	0.03411	0.0001
298.15	0.3	0.03332	0.0001
298.15	0.5	0.03286	0.0001
298.15	0.7	0.03197	0.0001
298.15	1	0.03066	9e-05
298.15	1.5	0.0288	9e-05
298.15	2	0.0264	8e-05
323.15	0	0.04057	0.00012
323.15	0.1	0.04109	0.00012
323.15	0.3	0.04044	0.00012
323.15	0.5	0.04004	0.00012
323.15	0.7	0.03926	0.00012
323.15	1	0.03764	0.00011
323.15	1.5	0.03534	0.00011
323.15	2	0.03333	0.0001

System: L-threonine + potassium chloride + water; phases: Liquid, Crystal
Fixed: Pressure, kPa = 101
Property: Mass ratio of solute to solvent of L-threonine (Liquid); method: gravimetric method
Temperature, K	Molality, mol/kg of potassium chloride	Mass ratio of solute to solvent of L-threonine	uncertainty
298.15	0	0.09746	0.00029
298.15	0.1	0.0995	0.0003
298.15	0.3	0.1006	0.0003
298.15	0.5	0.1014	0.0003
298.15	0.7	0.1022	0.0003
298.15	1	0.1023	0.0003
298.15	1.5	0.1024	0.0003
298.15	2	0.1018	0.0003
323.15	0	0.1406	0.0004
323.15	0.1	0.1421	0.0004
323.15	0.3	0.1439	0.0004
323.15	0.5	0.1446	0.0004
323.15	0.7	0.145	0.0004
323.15	1	0.1455	0.0004
323.15	1.5	0.1446	0.0004
323.15	2	0.1433	0.0004

System: L-serine + potassium chloride + water; phases: Liquid, Crystal
Fixed: Temperature, K = 323.15
Fixed: Pressure, kPa = 101
Property: Mass ratio of solute to solvent of L-serine (Liquid); method: gravimetric method
Molality, mol/kg of potassium chloride	Mass ratio of solute to solvent of L-serine	uncertainty
0	0.6908	0.0021
0.1	0.6935	0.0021
0.3	0.6969	0.0021
0.5	0.7009	0.0021
0.7	0.7047	0.0021
1	0.7068	0.0021
1.5	0.7132	0.0021
2	0.7197	0.0022

System: L-serine + potassium chloride + water; phases: Liquid, Crystal of intercomponent compound 1
Fixed: Temperature, K = 298.15
Fixed: Pressure, kPa = 101
Property: Mass ratio of solute to solvent of L-serine (Liquid); method: gravimetric method
Molality, mol/kg of potassium chloride	Mass ratio of solute to solvent of L-serine	uncertainty
0	0.4286	0.0013
0.1	0.433	0.0013
0.3	0.4458	0.0013
0.5	0.4533	0.0014
0.7	0.4638	0.0014
1	0.4726	0.0014
1.5	0.4952	0.0015
2	0.5109	0.0015
