Measured thermophysical data. Formation of type III deep eutectic solvents and effect of water on their intermolecular interactions
Source: Fluid Phase Equilib., 2017, 10.1016/j.fluid.2017.01.022
Compound 1: choline chloride, C5H14ClNO, InChI=1S/C5H14NO.ClH/c1-6(2,3)4-5-7;/h7H,4-5H2,1-3H3;1H/q+1;/p-1, purity 98%
Compound 2: urea, CH4N2O, InChI=1S/CH4N2O/c2-1(3)4/h(H4,2,3,4), purity 99%
Compound 3: 1,2-ethanediol, C2H6O2, InChI=1S/C2H6O2/c3-1-2-4/h3-4H,1-2H2, purity 99.5%
Compound 4: glycerol, C3H8O3, InChI=1S/C3H8O3/c4-1-3(6)2-5/h3-6H,1-2H2, purity 99.5%
Compound 5: water, H2O, InChI=1S/H2O/h1H2, purity 99.8%

System: urea + choline chloride + water; phases: Liquid
Fixed: Temperature, K = 303.15
Fixed: Pressure, kPa = 101
Property: Mass density, kg/m3 (Liquid); method: Vibrating tube method
Mole fraction of choline chloride	Mole fraction of urea	Mass density, kg/m3	uncertainty
0	0	995.7	1
0.08	0.17	1113.5	237.3
0.19	0.38	1142.2	7.4
0.25	0.5	1163.2	8.4
0.29	0.58	1179.2	8.2
0.32	0.64	1190.8	29.1
0.33	0.66	1250	29.1

System: choline chloride + 1,2-ethanediol + water; phases: Liquid
Fixed: Temperature, K = 303.15
Fixed: Pressure, kPa = 101
Property: Mass density, kg/m3 (Liquid); method: Vibrating tube method
Mole fraction of choline chloride	Mole fraction of 1,2-ethanediol	Mass density, kg/m3	uncertainty
0	0	995.7	1
0.08	0.17	1040	28.4
0.19	0.38	1081.7	6.3
0.25	0.5	1099.2	6.3
0.29	0.58	1110.8	2.7
0.32	0.64	1112.5	2.9
0.33	0.66	1114.2	2.9

System: glycerol + choline chloride + water; phases: Liquid
Fixed: Temperature, K = 303.15
Fixed: Pressure, kPa = 101
Property: Mass density, kg/m3 (Liquid); method: Vibrating tube method
Mole fraction of choline chloride	Mole fraction of glycerol	Mass density, kg/m3	uncertainty
0	0	995.7	1
0.08	0.17	1071.9	62.6
0.19	0.38	1136.6	9.3
0.25	0.5	1163.4	7.3
0.29	0.58	1177.1	6.2
0.32	0.64	1185.6	6.3
0.33	0.66	1188.5	6.3
