Measured thermophysical data. Surface tension of 1-alkyl-3-methylimidazolium based ionic liquids with trifluoromethanesulfonate and tetrafluoroborate anion
Source: Fluid Phase Equilib., 2011, 10.1016/j.fluid.2011.01.027
Compound 1: 1-ethyl-3-methylimidazolium trifluoromethanesulfonate, C7H11F3N2O3S, InChI=1S/C6H11N2.CHF3O3S/c1-3-8-5-4-7(2)6-8;2-1(3,4)8(5,6)7/h4-6H,3H2,1-2H3;(H,5,6,7)/q+1;/p-1, purity 99%
Compound 2: 1-butyl-3-methylimidazolium trifluoromethanesulfonate, C9H15F3N2O3S, InChI=1S/C8H15N2.CHF3O3S/c1-3-4-5-10-7-6-9(2)8-10;2-1(3,4)8(5,6)7/h6-8H,3-5H2,1-2H3;(H,5,6,7)/q+1;/p-1, purity 99%
Compound 3: 1-hexyl-3-methylimidazolium trifluoromethanesulfonate, C11H19F3N2O3S, InChI=1S/C10H19N2.CHF3O3S/c1-3-4-5-6-7-12-9-8-11(2)10-12;2-1(3,4)8(5,6)7/h8-10H,3-7H2,1-2H3;(H,5,6,7)/q+1;/p-1, purity 99%
Compound 4: 1-ethyl-3-methylimidazolium tetrafluoroborate, C6H11BF4N2, InChI=1S/C6H11N2.BF4/c1-3-8-5-4-7(2)6-8;2-1(3,4)5/h4-6H,3H2,1-2H3;/q+1;-1, purity 99.8%
Compound 5: 1-hexyl-3-methylimidazolium tetrafluoroborate, C10H19BF4N2, InChI=1S/C10H19N2.BF4/c1-3-4-5-6-7-12-9-8-11(2)10-12;2-1(3,4)5/h8-10H,3-7H2,1-2H3;/q+1;-1, purity 99%

System: 1-ethyl-3-methylimidazolium trifluoromethanesulfonate; phases: Liquid, Air at 1 atmosphere
Property: Surface tension liquid-gas, N/m (Liquid); method: Wilhelmy plate method
Temperature, K	Surface tension liquid-gas, N/m	uncertainty
268.29	0.04139	0.00021
272.08	0.04128	0.00021
276.54	0.0411	0.00021
281	0.04096	0.0002
287.63	0.04069	0.0002
293.01	0.04052	0.0002
298.01	0.04043	0.0002
303.2	0.04024	0.0002
308.2	0.04007	0.0002
313.27	0.03993	0.0002
318.36	0.03968	0.0002
323.33	0.0395	0.0002
333.07	0.03916	0.0002
338.1	0.03903	0.0002
343.14	0.03885	0.0002
348.38	0.03865	0.00019
356.09	0.03837	0.00019

System: 1-ethyl-3-methylimidazolium trifluoromethanesulfonate; phases: Liquid, Air at 1 atmosphere
Property: Surface tension liquid-gas, N/m (Liquid); method: du Nouy ring method
Temperature, K	Surface tension liquid-gas, N/m	uncertainty
268.36	0.0414	0.00021
272.13	0.0413	0.00021
276.65	0.04116	0.00021
281.05	0.0411	0.00021
287.58	0.04079	0.0002
293	0.04074	0.0002
298.04	0.04039	0.0002
303.18	0.04018	0.0002
308.31	0.04001	0.0002
313.31	0.03975	0.0002
318.39	0.03983	0.0002
323.38	0.03938	0.0002
328.2	0.03944	0.0002
333.12	0.03924	0.0002
338.15	0.03902	0.0002
343.21	0.03885	0.00019
348.53	0.03862	0.00019
356.28	0.03831	0.00019

System: 1-butyl-3-methylimidazolium trifluoromethanesulfonate; phases: Liquid, Air at 1 atmosphere
Property: Surface tension liquid-gas, N/m (Liquid); method: Wilhelmy plate method
Temperature, K	Surface tension liquid-gas, N/m	uncertainty
293.4	0.03521	0.00018
298.22	0.03509	0.00018
303.18	0.03487	0.00017
308.01	0.03471	0.00017
313.59	0.03454	0.00017
318.51	0.03435	0.00017
322.93	0.03418	0.00017
328.05	0.03403	0.00017
332.66	0.03385	0.00017
337.83	0.03374	0.00017
343.53	0.03347	0.00017
348.54	0.03328	0.00017
355.89	0.033	0.00017

System: 1-butyl-3-methylimidazolium trifluoromethanesulfonate; phases: Liquid, Air at 1 atmosphere
Property: Surface tension liquid-gas, N/m (Liquid); method: du Nouy method
Temperature, K	Surface tension liquid-gas, N/m	uncertainty
293.45	0.03517	0.00018
298.27	0.0351	0.00018
303.2	0.03498	0.00018
313.58	0.03459	0.00017
318.68	0.03436	0.00017
322.99	0.03422	0.00017
328.09	0.0338	0.00017
332.74	0.03382	0.00017
337.84	0.03344	0.00017
343.61	0.03341	0.00017
348.64	0.0329	0.00017
356	0.03282	0.00016

System: 1-butyl-3-methylimidazolium trifluoromethanesulfonate; phases: Liquid, Air at 1 atmosphere
Property: Surface tension liquid-gas, N/m (Liquid); method: Wilhelmy plate method
Temperature, K	Surface tension liquid-gas, N/m	uncertainty
292.18	0.03539	9e-05
298.06	0.03518	9e-05
303.03	0.03505	9e-05
308.06	0.03483	9e-05
313.26	0.03465	9e-05
318.13	0.03453	9e-05
322.87	0.03434	9e-05
327.64	0.03419	9e-05
333.21	0.03401	9e-05
337.68	0.03381	9e-05
342.72	0.03361	8e-05
347.79	0.03354	9e-05
352.45	0.03327	8e-05

System: 1-butyl-3-methylimidazolium trifluoromethanesulfonate; phases: Liquid, Air at 1 atmosphere
Property: Surface tension liquid-gas, N/m (Liquid); method: du Nouy method
Temperature, K	Surface tension liquid-gas, N/m	uncertainty
292.24	0.0354	9e-05
298.12	0.0352	9e-05
303.09	0.03509	9e-05
308.08	0.03485	9e-05
313.31	0.03463	9e-05
318.1	0.03444	9e-05
327.64	0.03408	9e-05
333.25	0.03389	9e-05
337.92	0.03373	9e-05
343.12	0.03347	8e-05
347.73	0.03336	8e-05
352.7	0.03308	9e-05

System: 1-hexyl-3-methylimidazolium trifluoromethanesulfonate; phases: Liquid, Air at 1 atmosphere
Property: Surface tension liquid-gas, N/m (Liquid); method: Wilhelmy plate method
Temperature, K	Surface tension liquid-gas, N/m	uncertainty
293.98	0.03258	0.00016
298.13	0.03237	0.00016
303.23	0.03217	0.00016
308.28	0.03199	0.00016
313.29	0.0318	0.00016
318.3	0.03164	0.00016
323.5	0.03145	0.00016
328.04	0.03135	0.00016
333.26	0.03109	0.00016
337.85	0.03092	0.00016
342.94	0.03072	0.00015
347.58	0.03055	0.00015
355.44	0.03028	0.00015

System: 1-hexyl-3-methylimidazolium trifluoromethanesulfonate; phases: Liquid, Air at 1 atmosphere
Property: Surface tension liquid-gas, N/m (Liquid); method: de Nouy ring method
Temperature, K	Surface tension liquid-gas, N/m	uncertainty
294.03	0.03264	0.00016
298.11	0.03237	0.00016
303.24	0.03219	0.00016
308.32	0.03201	0.00017
313.3	0.03186	0.00016
318.29	0.03166	0.00016
323.49	0.03142	0.00016
328.12	0.03125	0.00016
333.32	0.03089	0.00015
337.88	0.03081	0.00015
343.09	0.0305	0.00015
347.59	0.03038	0.00015
355.44	0.03006	0.00015

System: 1-ethyl-3-methylimidazolium tetrafluoroborate; phases: Liquid, Air at 1 atmosphere
Property: Surface tension liquid-gas, N/m (Liquid); method: Wilhelmy plate method
Temperature, K	Surface tension liquid-gas, N/m	uncertainty
288.06	0.05461	6e-05
292.92	0.05428	6e-05
298.1	0.05397	6e-05
303.12	0.05365	5e-05
308.27	0.05334	5e-05
313.33	0.05298	5e-05
318.3	0.0527	5e-05
323.5	0.05239	5e-05
328.4	0.05205	5e-05
333.32	0.05174	5e-05
338.39	0.0514	5e-05
343.18	0.05111	5e-05
348.7	0.05076	5e-05
355.99	0.05027	5e-05

System: 1-ethyl-3-methylimidazolium tetrafluoroborate; phases: Liquid, Air at 1 atmosphere
Property: Surface tension liquid-gas, N/m (Liquid); method: du Nouy ring method
Temperature, K	Surface tension liquid-gas, N/m	uncertainty
288.05	0.05461	6e-05
292.93	0.05455	6e-05
298.12	0.05401	5e-05
303.13	0.05396	6e-05
308.27	0.05377	5e-05
313.43	0.05305	5e-05
318.35	0.05286	5e-05
323.53	0.05254	5e-05
328.54	0.05218	5e-05
333.48	0.05187	5e-05
338.38	0.05148	5e-05
343.32	0.05111	5e-05
348.78	0.05074	6e-05
355.91	0.05026	5e-05

System: 1-hexyl-3-methylimidazolium tetrafluoroborate; phases: Liquid, Air at 1 atmosphere
Property: Surface tension liquid-gas, N/m (Liquid); method: Wilhelmy plate method
Temperature, K	Surface tension liquid-gas, N/m	uncertainty
268.58	0.03981	0.0002
273.34	0.03952	0.0002
277.72	0.03929	0.0002
282.51	0.03904	0.0002
288.13	0.03871	0.00019
292.87	0.03847	0.00019
298.07	0.0382	0.00019
303.15	0.03788	0.00019
308.23	0.03764	0.00019
313.35	0.03732	0.00019
318.48	0.03708	0.00019
323.34	0.03681	0.00018
328.17	0.03653	0.00018
333.22	0.03625	0.00018
337.92	0.03601	0.00018
343.79	0.03568	0.00018
348.5	0.03544	0.00018
356.17	0.03499	0.00018

System: 1-hexyl-3-methylimidazolium tetrafluoroborate; phases: Liquid, Air at 1 atmosphere
Property: Surface tension liquid-gas, N/m (Liquid); method: du Nouy ring method
Temperature, K	Surface tension liquid-gas, N/m	uncertainty
268.58	0.03979	0.0002
273.34	0.03954	0.0002
277.76	0.03932	0.0002
282.71	0.03921	0.0002
288.13	0.03875	0.00019
292.93	0.03849	0.00019
298.07	0.03821	0.00019
303.19	0.03785	0.00019
308.22	0.03766	0.00019
313.48	0.03733	0.00019
318.39	0.03708	0.00019
323.32	0.03683	0.00018
328.2	0.03654	0.00018
333.24	0.03621	0.00018
337.97	0.036	0.00018
343.79	0.0357	0.00018
348.54	0.03539	0.00018
356.18	0.035	0.00018
