Measured thermophysical data. Ternary LLE measurements for the separation of hex-1-ene/hexane and cyclohexene/cyclohexane compounds with [DCA]-based ionic liquids
Source: Fluid Phase Equilib., 2018, 10.1016/j.fluid.2018.01.020
Compound 1: hex-1-ene, C6H12, InChI=1S/C6H12/c1-3-5-6-4-2/h3H,1,4-6H2,2H3, purity 98%
Compound 2: hexane, C6H14, InChI=1S/C6H14/c1-3-5-6-4-2/h3-6H2,1-2H3, purity 99%
Compound 3: cyclohexene, C6H10, InChI=1S/C6H10/c1-2-4-6-5-3-1/h1-2H,3-6H2, purity 99.5%
Compound 4: cyclohexane, C6H12, InChI=1S/C6H12/c1-2-4-6-5-3-1/h1-6H2, purity 99.5%
Compound 5: 1-(2-methoxyethyl)-3-methylimidazolium dicyanamide, C9H13N5O, InChI=1S/C7H13N2O.C2N3/c1-8-3-4-9(7-8)5-6-10-2;3-1-5-2-4/h3-4,7H,5-6H2,1-2H3;/q+1;-1
Compound 6: 1-(4-methoxy-4-oxobutyl)-3-methylimidazolium dicyanamide, C11H15N5O2, InChI=1S/C9H15N2O2.C2N3/c1-10-6-7-11(8-10)5-3-4-9(12)13-2;3-1-5-2-4/h6-8H,3-5H2,1-2H3;/q+1;-1
Compound 7: choline dicyanamide, C7H14N4O, InChI=1S/C5H14NO.C2N3/c1-6(2,3)4-5-7;3-1-5-2-4/h7H,4-5H2,1-3H3;/q+1;-1

System: 1-(2-methoxyethyl)-3-methylimidazolium dicyanamide + hex-1-ene + hexane; phases: Liquid mixture 2, Liquid mixture 1
Fixed: Temperature, K = 298.15
Fixed: Pressure, kPa = 101
Property: Mole fraction of 1-(2-methoxyethyl)-3-methylimidazolium dicyanamide (Liquid mixture 2); method: Chromatography
Property: Mole fraction of 1-(2-methoxyethyl)-3-methylimidazolium dicyanamide (Liquid mixture 1); method: Chromatography
Property: Mole fraction of hex-1-ene (Liquid mixture 1); method: Chromatography
Mole fraction of hex-1-ene	Mole fraction of 1-(2-methoxyethyl)-3-methylimidazolium dicyanamide	uncertainty	Mole fraction of 1-(2-methoxyethyl)-3-methylimidazolium dicyanamide	uncertainty	Mole fraction of hex-1-ene	uncertainty
0.017	0.983	0.01	0		1	
0.016	0.984	0.01	0		0.883	
0.015	0.984	0.01	0		0.781	
0.013	0.985	0.01	0		0.673	
0.01	0.987	0.01	0		0.532	
0.009	0.988	0.01	0		0.445	
0.007	0.988	0.01	0		0.383	
0.005	0.989	0.01	0		0.294	
0.004	0.99	0.01	0		0.204	
0.002	0.991	0.009	0		0.12	
0.001	0.992	0.008	0		0.06	
0	0.993	0.007	0		0	

System: 1-(4-methoxy-4-oxobutyl)-3-methylimidazolium dicyanamide + hex-1-ene + hexane; phases: Liquid mixture 2, Liquid mixture 1
Fixed: Temperature, K = 298.15
Fixed: Pressure, kPa = 101
Property: Mole fraction of 1-(4-methoxy-4-oxobutyl)-3-methylimidazolium dicyanamide (Liquid mixture 2); method: Chromatography
Property: Mole fraction of 1-(4-methoxy-4-oxobutyl)-3-methylimidazolium dicyanamide (Liquid mixture 1); method: Chromatography
Property: Mole fraction of hex-1-ene (Liquid mixture 1); method: Chromatography
Mole fraction of hex-1-ene	Mole fraction of 1-(4-methoxy-4-oxobutyl)-3-methylimidazolium dicyanamide	uncertainty	Mole fraction of 1-(4-methoxy-4-oxobutyl)-3-methylimidazolium dicyanamide	uncertainty	Mole fraction of hex-1-ene	uncertainty
0.022	0.978	0.01	0		1	
0.021	0.979	0.01	0		0.963	
0.019	0.979	0.01	0		0.879	
0.016	0.981	0.01	0		0.713	
0.013	0.982	0.01	0		0.622	
0.01	0.984	0.01	0		0.482	
0.008	0.986	0.01	0		0.339	
0.005	0.987	0.01	0		0.222	
0.002	0.989	0.01	0		0.107	
0.001	0.99	0.01	0		0.028	
0	0.991	0.009	0		0	

System: choline dicyanamide + hex-1-ene + hexane; phases: Liquid mixture 2, Liquid mixture 1
Fixed: Temperature, K = 298.15
Fixed: Pressure, kPa = 101
Property: Mole fraction of choline dicyanamide (Liquid mixture 2); method: Chromatography
Property: Mole fraction of choline dicyanamide (Liquid mixture 1); method: Chromatography
Property: Mole fraction of hex-1-ene (Liquid mixture 1); method: Chromatography
Mole fraction of hex-1-ene	Mole fraction of choline dicyanamide	uncertainty	Mole fraction of choline dicyanamide	uncertainty	Mole fraction of hex-1-ene	uncertainty
0.005	0.995	0.005	0		1	
0.004	0.995	0.005	0		0.967	
0.004	0.996	0.004	0		0.859	
0.004	0.996	0.004	0		0.743	
0.003	0.996	0.004	0		0.621	
0.003	0.996	0.004	0		0.566	
0.002	0.996	0.004	0		0.457	
0.002	0.997	0.003	0		0.371	
0.001	0.997	0.003	0		0.261	
0.001	0.997	0.003	0		0.143	
0	0.998	0.002	0		0.039	
0	0.998	0.002	0		0	

System: 1-(2-methoxyethyl)-3-methylimidazolium dicyanamide + cyclohexene + cyclohexane; phases: Liquid mixture 2, Liquid mixture 1
Fixed: Temperature, K = 298.15
Fixed: Pressure, kPa = 101
Property: Mole fraction of 1-(2-methoxyethyl)-3-methylimidazolium dicyanamide (Liquid mixture 2); method: Chromatography
Property: Mole fraction of 1-(2-methoxyethyl)-3-methylimidazolium dicyanamide (Liquid mixture 1); method: Chromatography
Property: Mole fraction of cyclohexene (Liquid mixture 1); method: Chromatography
Mole fraction of cyclohexene	Mole fraction of 1-(2-methoxyethyl)-3-methylimidazolium dicyanamide	uncertainty	Mole fraction of 1-(2-methoxyethyl)-3-methylimidazolium dicyanamide	uncertainty	Mole fraction of cyclohexene	uncertainty
0.044	0.956	0.01	0		1	
0.042	0.957	0.01	0		0.925	
0.036	0.96	0.01	0		0.781	
0.031	0.964	0.01	0		0.671	
0.025	0.967	0.01	0		0.563	
0.02	0.97	0.01	0		0.423	
0.015	0.973	0.01	0		0.329	
0.01	0.975	0.01	0		0.209	
0.003	0.98	0.01	0		0.059	
0	0.981	0.01	0		0	

System: 1-(4-methoxy-4-oxobutyl)-3-methylimidazolium dicyanamide + cyclohexene + cyclohexane; phases: Liquid mixture 2, Liquid mixture 1
Fixed: Temperature, K = 298.15
Fixed: Pressure, kPa = 101
Property: Mole fraction of 1-(4-methoxy-4-oxobutyl)-3-methylimidazolium dicyanamide (Liquid mixture 2); method: Chromatography
Property: Mole fraction of 1-(4-methoxy-4-oxobutyl)-3-methylimidazolium dicyanamide (Liquid mixture 1); method: Chromatography
Property: Mole fraction of cyclohexene (Liquid mixture 1); method: Chromatography
Mole fraction of cyclohexene	Mole fraction of 1-(4-methoxy-4-oxobutyl)-3-methylimidazolium dicyanamide	uncertainty	Mole fraction of 1-(4-methoxy-4-oxobutyl)-3-methylimidazolium dicyanamide	uncertainty	Mole fraction of cyclohexene	uncertainty
0.051	0.949	0.01	0		1	
0.048	0.95	0.01	0		0.893	
0.047	0.951	0.01	0		0.85	
0.043	0.952	0.01	0		0.779	
0.039	0.955	0.011	0		0.687	
0.032	0.958	0.011	0		0.551	
0.025	0.962	0.012	0		0.439	
0.018	0.966	0.012	0		0.306	
0.01	0.972	0.012	0		0.179	
0.002	0.977	0.01	0		0.042	
0	0.978	0.01	0		0	
