Measured thermophysical data. Thermodynamic characterization of deep eutectic solvents at high pressures
Source: Fluid Phase Equilib., 2019, 10.1016/j.fluid.2019.112249
Compound 1: 1,2-ethanediol, C2H6O2, InChI=1S/C2H6O2/c3-1-2-4/h3-4H,1-2H2, purity 99.5%
Compound 2: glycerol, C3H8O3, InChI=1S/C3H8O3/c4-1-3(6)2-5/h3-6H,1-2H2, purity 99%
Compound 3: urea, CH4N2O, InChI=1S/CH4N2O/c2-1(3)4/h(H4,2,3,4), purity 99.5%
Compound 4: choline chloride, C5H14ClNO, InChI=1S/C5H14NO.ClH/c1-6(2,3)4-5-7;/h7H,4-5H2,1-3H3;1H/q+1;/p-1, purity 98%

System: choline chloride + 1,2-ethanediol; phases: Liquid
Fixed: Mole fraction of choline chloride = 0.333
Property: Mass density, kg/m3 (Liquid); method: Vibrating tube method
Temperature, K	Pressure, kPa	Mass density, kg/m3	uncertainty
283.15	100	1126	1.1
283.15	1000	1126.3	1.1
283.15	2000	1126.6	1.1
283.15	5000	1127.6	1.1
283.15	7000	1128.2	1.1
283.15	10000	1129.1	1.1
283.15	12000	1129.8	1.1
283.15	16000	1130.9	1.1
283.15	20000	1132.2	1.1
283.15	25000	1133.7	1.1
283.15	30000	1135.2	1.1
283.15	35000	1136.5	1.1
283.15	40000	1138.1	1.1
283.15	45000	1139.5	1.1
283.15	50000	1140.8	1.2
283.15	55000	1142.1	1.2
283.15	60000	1143.6	1.2
283.15	65000	1145	1.2
283.15	70000	1146.5	1.2
283.15	75000	1147.9	1.2
283.15	80000	1149.2	1.3
283.15	85000	1150.4	1.3
283.15	90000	1151.7	1.3
283.15	95000	1153	1.3
293.15	100	1120	1.1
293.15	1000	1120.3	1.1
293.15	2000	1120.6	1.1
293.15	5000	1121.7	1.1
293.15	7000	1122.2	1.1
293.15	10000	1123.2	1.1
293.15	12000	1123.8	1.1
293.15	16000	1125	1.1
293.15	20000	1126.3	1.1
293.15	25000	1127.8	1.1
293.15	30000	1129.4	1.1
293.15	35000	1130.8	1.1
293.15	40000	1132.4	1.1
293.15	45000	1133.9	1.1
293.15	50000	1135.4	1.1
293.15	55000	1136.8	1.2
293.15	60000	1137.9	1.2
293.15	65000	1139.4	1.2
293.15	70000	1140.8	1.2
293.15	75000	1142.1	1.2
293.15	80000	1143.4	1.2
293.15	85000	1144.9	1.3
293.15	90000	1146.2	1.3
293.15	95000	1147.5	1.3
303.15	100	1114.3	1.1
303.15	1000	1114.7	1.1
303.15	2000	1115	1.1
303.15	5000	1115.9	1.1
303.15	7000	1116.6	1.1
303.15	10000	1117.6	1.1
303.15	12000	1118.2	1.1
303.15	16000	1119.4	1.1
303.15	20000	1120.8	1.1
303.15	25000	1122.4	1.1
303.15	30000	1123.8	1.1
303.15	35000	1125.2	1.1
303.15	40000	1126.8	1.1
303.15	45000	1128.3	1.1
303.15	50000	1129.4	1.1
303.15	55000	1130.9	1.2
303.15	60000	1132.3	1.2
303.15	65000	1133.8	1.2
303.15	70000	1135.1	1.2
303.15	75000	1136.6	1.2
303.15	80000	1137.9	1.2
303.15	85000	1139.2	1.2
303.15	90000	1140.7	1.3
303.15	95000	1141.9	1.3
313.15	100	1108.6	1
313.15	1000	1109	1.1
313.15	2000	1109.3	1.1
313.15	5000	1110.3	1.1
313.15	7000	1110.9	1.1
313.15	10000	1111.9	1.1
313.15	12000	1112.5	1.1
313.15	16000	1113.7	1.1
313.15	20000	1115.1	1.1
313.15	25000	1116.7	1.1
313.15	30000	1118.3	1.1
313.15	35000	1119.7	1.1
313.15	40000	1121.2	1.1
313.15	45000	1122.7	1.1
313.15	50000	1124.2	1.1
313.15	55000	1125.6	1.1
313.15	60000	1127	1.2
313.15	65000	1128.5	1.2
313.15	70000	1129.9	1.2
313.15	75000	1131.2	1.2
313.15	80000	1132.6	1.2
313.15	85000	1134.1	1.2
313.15	90000	1135.5	1.3
313.15	95000	1136.9	1.3
323.15	100	1103.1	1
323.15	1000	1103	1
323.15	2000	1103.3	1
323.15	5000	1104.8	1.1
323.15	7000	1105.5	1.1
323.15	10000	1106.4	1.1
323.15	12000	1107.1	1.1
323.15	16000	1108.5	1.1
323.15	20000	1109.7	1.1
323.15	25000	1111.4	1.1
323.15	30000	1112.9	1.1
323.15	35000	1114.5	1.1
323.15	40000	1116	1.1
323.15	45000	1117.4	1.1
323.15	50000	1119	1.1
323.15	55000	1120.5	1.1
323.15	60000	1121.9	1.2
323.15	65000	1123.5	1.2
323.15	70000	1125	1.2
323.15	75000	1126.5	1.2
323.15	80000	1127.9	1.2
323.15	85000	1128.9	1.2
323.15	90000	1130.5	1.2
323.15	95000	1131.8	1.3
333.15	100	1097.5	1
333.15	1000	1097.9	1
333.15	2000	1098.3	1
333.15	5000	1099.4	1.1
333.15	7000	1100	1.1
333.15	10000	1101.1	1.1
333.15	12000	1101.7	1.1
333.15	16000	1103	1.1
333.15	20000	1104.3	1.1
333.15	25000	1106.1	1.1
333.15	30000	1107.7	1.1
333.15	35000	1109.3	1.1
333.15	40000	1110.5	1.1
333.15	45000	1112.1	1.1
333.15	50000	1113.7	1.1
333.15	55000	1115.3	1.1
333.15	60000	1116.8	1.1
333.15	65000	1118.3	1.2
333.15	70000	1119.8	1.2
333.15	75000	1121.2	1.2
333.15	80000	1122.7	1.2
333.15	85000	1124.2	1.2
333.15	90000	1125.7	1.2
333.15	95000	1127	1.2
343.15	100	1092.1	1
343.15	1000	1092.4	1
343.15	2000	1092.8	1
343.15	5000	1093.8	1.1
343.15	7000	1094.5	1.1
343.15	10000	1095.5	1.1
343.15	12000	1096.3	1.1
343.15	16000	1097.5	1.1
343.15	20000	1098.8	1.1
343.15	25000	1100.5	1.1
343.15	30000	1102.1	1.1
343.15	35000	1103.7	1.1
343.15	40000	1105.4	1.1
343.15	45000	1106.9	1.1
343.15	50000	1108.5	1.1
343.15	55000	1110	1.1
343.15	60000	1111.6	1.1
343.15	65000	1113	1.2
343.15	70000	1114.6	1.2
343.15	75000	1116	1.2
343.15	80000	1117.4	1.2
343.15	85000	1118.8	1.2
343.15	90000	1120.3	1.2
343.15	95000	1121.8	1.2
353.15	100	1086.5	1
353.15	1000	1086.8	1
353.15	2000	1087.2	1
353.15	5000	1088.4	1
353.15	7000	1089.1	1.1
353.15	10000	1090.1	1.1
353.15	12000	1090.7	1.1
353.15	16000	1092.2	1.1
353.15	20000	1093.6	1.1
353.15	25000	1095.3	1.1
353.15	30000	1097	1.1
353.15	35000	1098.5	1.1
353.15	40000	1100.2	1.1
353.15	45000	1101.6	1.1
353.15	50000	1103.2	1.1
353.15	55000	1104.6	1.1
353.15	60000	1106.3	1.1
353.15	65000	1107.8	1.1
353.15	70000	1109.5	1.2
353.15	75000	1111	1.2
353.15	80000	1112.4	1.2
353.15	85000	1113.7	1.2
353.15	90000	1115.4	1.2
353.15	95000	1116.7	1.2
363.15	100	1080.6	1
363.15	1000	1080.8	1
363.15	2000	1081	1
363.15	5000	1082.6	1
363.15	7000	1083.3	1
363.15	10000	1084.3	1.1
363.15	12000	1085.1	1.1
363.15	16000	1086.5	1.1
363.15	20000	1088	1.1
363.15	25000	1089.5	1.1
363.15	30000	1091.2	1.1
363.15	35000	1093	1.1
363.15	40000	1094.6	1.1
363.15	45000	1096.2	1.1
363.15	50000	1097.8	1.1
363.15	55000	1099.5	1.1
363.15	60000	1100.9	1.1
363.15	65000	1102.4	1.1
363.15	70000	1104.1	1.1
363.15	75000	1105.6	1.2
363.15	80000	1107	1.2
363.15	85000	1108.6	1.2
363.15	90000	1110.2	1.2
363.15	95000	1111.7	1.2

System: choline chloride + 1,2-ethanediol; phases: Liquid
Fixed: Mole fraction of choline chloride = 0.34
Property: Viscosity, Pa*s (Liquid); method: Falling or rolling sphere viscometry
Temperature, K	Pressure, kPa	Viscosity, Pa*s	uncertainty
313.15	100	0.02764	0.00195
313.15	1000	0.02987	0.00211
313.15	5000	0.03059	0.00216
313.15	12000	0.03172	0.00224
313.15	20000	0.03293	0.00233
313.15	40000	0.03587	0.00254
313.15	60000	0.03958	0.0028
313.15	80000	0.04339	0.00307
333.15	100	0.01547	0.0011
333.15	1000	0.01516	0.00107
333.15	5000	0.0156	0.00111
333.15	12000	0.01601	0.00113
333.15	20000	0.01653	0.00117
333.15	40000	0.01791	0.00127
333.15	60000	0.02085	0.00148
333.15	80000	0.02292	0.00162
333.15	100000	0.02453	0.00173
333.15	100000	0.02453	0.00173
353.15	100	0.00941	0.00067
353.15	1000	0.00951	0.00067
353.15	5000	0.00957	0.00068
353.15	12000	0.00976	0.00069
353.15	20000	0.01006	0.00071
353.15	40000	0.01089	0.00077
353.15	60000	0.01176	0.00083
353.15	80000	0.01257	0.00089
353.15	100000	0.0142	0.00101
353.15	100000	0.0142	0.00101
373.15	100	0.00631	0.00045
373.15	1000	0.00643	0.00045
373.15	5000	0.00656	0.00046
373.15	12000	0.00666	0.00047
373.15	20000	0.00681	0.00048
373.15	40000	0.0073	0.00052
373.15	60000	0.00828	0.00059
373.15	70000	0.00869	0.00062
373.15	80000	0.00888	0.00063
373.15	100000	0.00945	0.00067
373.15	100000	0.00945	0.00067

System: choline chloride + 1,2-ethanediol; phases: Liquid
Fixed: Pressure, kPa = 100
Fixed: Mole fraction of choline chloride = 0.34
Property: Viscosity, Pa*s (Liquid); method: Concentric cylinders viscometry
Temperature, K	Viscosity, Pa*s	uncertainty
293.15	0.059144	0.00239
298.15	0.047742	0.001932
303.15	0.039101	0.001582
308.15	0.032423	0.001312
313.15	0.027439	0.00111
318.15	0.023034	0.000932
323.15	0.019697	0.000797
328.15	0.016994	0.000687
333.15	0.01476	0.000597
338.15	0.012946	0.000524
343.15	0.011418	0.000462
348.15	0.010132	0.00041
353.15	0.0090139	0.0003647
358.15	0.0081121	0.0003282
363.15	0.0073123	0.0002959
368.15	0.0066135	0.0002676
373.15	0.006013	0.0002433

System: choline chloride + glycerol; phases: Liquid
Fixed: Mole fraction of choline chloride = 0.333
Property: Mass density, kg/m3 (Liquid); method: Vibrating tube method
Temperature, K	Pressure, kPa	Mass density, kg/m3	uncertainty
283.15	100	1202.2	1.2
283.15	1000	1202.5	1.2
283.15	2000	1202.6	1.2
283.15	5000	1203.7	1.2
283.15	7000	1204.2	1.2
283.15	10000	1205.1	1.2
283.15	12000	1205.6	1.2
283.15	16000	1206.8	1.2
283.15	20000	1207.8	1.2
283.15	25000	1209.2	1.3
283.15	30000	1210.6	1.3
283.15	35000	1211.9	1.3
283.15	40000	1212.8	1.3
283.15	45000	1214.3	1.4
283.15	50000	1215.6	1.4
283.15	55000	1216.9	1.4
283.15	60000	1218.1	1.5
283.15	65000	1219.2	1.5
283.15	70000	1220.6	1.5
283.15	75000	1221.9	1.6
283.15	80000	1222.9	1.6
283.15	85000	1224.1	1.6
283.15	90000	1225.3	1.7
283.15	95000	1226.6	1.7
293.15	100	1196.8	1.2
293.15	1000	1197	1.2
293.15	2000	1197.3	1.2
293.15	5000	1198.2	1.2
293.15	7000	1198.8	1.2
293.15	10000	1199.7	1.2
293.15	12000	1200.1	1.2
293.15	16000	1201.3	1.2
293.15	20000	1202.3	1.2
293.15	25000	1203.6	1.3
293.15	30000	1205.2	1.3
293.15	35000	1206.3	1.3
293.15	40000	1207.6	1.3
293.15	45000	1208.9	1.4
293.15	50000	1210.1	1.4
293.15	55000	1211.5	1.4
293.15	60000	1212.8	1.4
293.15	65000	1214	1.5
293.15	70000	1215.3	1.5
293.15	75000	1216.5	1.5
293.15	80000	1217.8	1.6
293.15	85000	1219.2	1.6
293.15	90000	1220.4	1.6
293.15	95000	1221.6	1.7
303.15	100	1191.2	1.2
303.15	1000	1191.5	1.2
303.15	2000	1191.8	1.2
303.15	5000	1192.8	1.2
303.15	7000	1193.3	1.2
303.15	10000	1194.1	1.2
303.15	12000	1194.8	1.2
303.15	16000	1196	1.2
303.15	20000	1196.9	1.2
303.15	25000	1198.4	1.2
303.15	30000	1199.9	1.3
303.15	35000	1201.3	1.3
303.15	40000	1202.5	1.3
303.15	45000	1203.8	1.3
303.15	50000	1205.1	1.4
303.15	55000	1206.4	1.4
303.15	60000	1207.6	1.4
303.15	65000	1208.9	1.5
303.15	70000	1210.3	1.5
303.15	75000	1211.5	1.5
303.15	80000	1212.7	1.6
303.15	85000	1214.1	1.6
303.15	90000	1215.3	1.6
303.15	95000	1216.7	1.7
313.15	100	1185.6	1.1
313.15	1000	1185.9	1.2
313.15	2000	1186.3	1.2
313.15	5000	1187.2	1.2
313.15	7000	1187.8	1.2
313.15	10000	1188.5	1.2
313.15	12000	1188.9	1.2
313.15	16000	1190.2	1.2
313.15	20000	1191.4	1.2
313.15	25000	1192.8	1.2
313.15	30000	1194.3	1.3
313.15	35000	1195.9	1.3
313.15	40000	1197.3	1.3
313.15	45000	1198.6	1.3
313.15	50000	1199.7	1.4
313.15	55000	1201	1.4
313.15	60000	1202.4	1.4
313.15	65000	1203.8	1.4
313.15	70000	1205	1.5
313.15	75000	1206.4	1.5
313.15	80000	1207.7	1.5
313.15	85000	1208.9	1.6
313.15	90000	1209.9	1.6
313.15	95000	1211.4	1.6
323.15	100	1180.3	1.1
323.15	1000	1180.6	1.1
323.15	2000	1180.8	1.2
323.15	5000	1181.8	1.2
323.15	7000	1182.4	1.2
323.15	10000	1183.2	1.2
323.15	12000	1183.9	1.2
323.15	16000	1185	1.2
323.15	20000	1186.2	1.2
323.15	25000	1187.6	1.2
323.15	30000	1189	1.3
323.15	35000	1190.6	1.3
323.15	40000	1191.7	1.3
323.15	45000	1193.2	1.3
323.15	50000	1194.3	1.4
323.15	55000	1195.8	1.4
323.15	60000	1197.2	1.4
323.15	65000	1198.7	1.4
323.15	70000	1199.9	1.5
323.15	75000	1201	1.5
323.15	80000	1202.5	1.5
323.15	85000	1203.8	1.6
323.15	90000	1204.9	1.6
323.15	95000	1206.3	1.6
333.15	100	1174.4	1.1
333.15	1000	1174.6	1.1
333.15	2000	1174.8	1.1
333.15	5000	1175.9	1.2
333.15	7000	1176.9	1.2
333.15	10000	1177.8	1.2
333.15	12000	1178.3	1.2
333.15	16000	1179.6	1.2
333.15	20000	1180.7	1.2
333.15	25000	1182.2	1.2
333.15	30000	1183.5	1.3
333.15	35000	1185.1	1.3
333.15	40000	1186.6	1.3
333.15	45000	1187.9	1.3
333.15	50000	1189.2	1.3
333.15	55000	1190.5	1.4
333.15	60000	1191.9	1.4
333.15	65000	1193.4	1.4
333.15	70000	1194.7	1.4
333.15	75000	1195.8	1.5
333.15	80000	1197.3	1.5
333.15	85000	1198.6	1.5
333.15	90000	1199.9	1.6
333.15	95000	1201.1	1.6
343.15	100	1169.3	1.1
343.15	1000	1169.6	1.1
343.15	2000	1169.9	1.1
343.15	5000	1170.9	1.2
343.15	7000	1171.5	1.2
343.15	10000	1172.4	1.2
343.15	12000	1172.9	1.2
343.15	16000	1174.2	1.2
343.15	20000	1175.3	1.2
343.15	25000	1176.9	1.2
343.15	30000	1178.4	1.2
343.15	35000	1179.7	1.3
343.15	40000	1181.2	1.3
343.15	45000	1182.6	1.3
343.15	50000	1183.9	1.3
343.15	55000	1185.4	1.4
343.15	60000	1186.6	1.4
343.15	65000	1187.9	1.4
343.15	70000	1189.4	1.4
343.15	75000	1190.8	1.5
343.15	80000	1192.1	1.5
343.15	85000	1193.6	1.5
343.15	90000	1194.8	1.6
343.15	95000	1196.1	1.6
353.15	100	1163.7	1.1
353.15	1000	1164	1.1
353.15	2000	1164.4	1.1
353.15	5000	1165.4	1.2
353.15	7000	1166	1.2
353.15	10000	1167	1.2
353.15	12000	1167.6	1.2
353.15	16000	1168.9	1.2
353.15	20000	1170	1.2
353.15	25000	1171.5	1.2
353.15	30000	1173	1.2
353.15	35000	1174.6	1.3
353.15	40000	1176.1	1.3
353.15	45000	1177.4	1.3
353.15	50000	1178.6	1.3
353.15	55000	1180.2	1.3
353.15	60000	1181.6	1.4
353.15	65000	1183.1	1.4
353.15	70000	1184.5	1.4
353.15	75000	1185.9	1.5
353.15	80000	1187.4	1.5
353.15	85000	1188.8	1.5
353.15	90000	1190.1	1.5
353.15	95000	1191.5	1.6
363.15	100	1158.1	1.1
363.15	1000	1158.5	1.1
363.15	2000	1158.9	1.1
363.15	5000	1159.9	1.1
363.15	7000	1160.6	1.2
363.15	10000	1161.5	1.2
363.15	12000	1162.1	1.2
363.15	16000	1163.4	1.2
363.15	20000	1164.6	1.2
363.15	25000	1166.1	1.2
363.15	30000	1167.7	1.2
363.15	35000	1169.1	1.3
363.15	40000	1170.3	1.3
363.15	45000	1171.8	1.3
363.15	50000	1173.4	1.3
363.15	55000	1174.9	1.3
363.15	60000	1176.1	1.4
363.15	65000	1177.7	1.4
363.15	70000	1179.2	1.4
363.15	75000	1180.6	1.4
363.15	80000	1182.2	1.5
363.15	85000	1183.5	1.5
363.15	90000	1184.5	1.5
363.15	95000	1185.6	1.5

System: choline chloride + glycerol; phases: Liquid
Fixed: Mole fraction of choline chloride = 0.333
Property: Viscosity, Pa*s (Liquid); method: Falling or rolling sphere viscometry
Temperature, K	Pressure, kPa	Viscosity, Pa*s	uncertainty
313.15	100	0.1657	0.0132
313.15	1000	0.1698	0.0136
313.15	12000	0.1736	0.0139
313.15	40000	0.1893	0.0154
313.15	60000	0.2124	0.0177
313.15	70000	0.2389	0.0204
313.15	80000	0.2702	0.0237
313.15	100000	0.30502	0.02741
333.15	100	0.06553	0.00469
333.15	1000	0.06506	0.00466
333.15	5000	0.06671	0.00477
333.15	12000	0.06768	0.00485
333.15	40000	0.07275	0.00524
333.15	60000	0.08169	0.00594
333.15	70000	0.09095	0.00669
333.15	80000	0.1013	0.0075
333.15	100000	0.1109	0.0084
353.15	100	0.0316	0.00225
353.15	1000	0.03183	0.00226
353.15	5000	0.03185	0.00227
353.15	12000	0.03187	0.00227
353.15	20000	0.03283	0.00235
353.15	40000	0.03425	0.00244
353.15	60000	0.03761	0.00268
353.15	70000	0.04139	0.00295
353.15	80000	0.04523	0.00322
353.15	100000	0.04924	0.00352
373.15	100	0.01705	0.00121
373.15	1000	0.01726	0.00123
373.15	12000	0.01775	0.00126
373.15	40000	0.01846	0.00131
373.15	60000	0.02035	0.00145
373.15	70000	0.02213	0.00158
373.15	80000	0.02376	0.00169
373.15	100000	0.02596	0.00185

System: choline chloride + glycerol; phases: Liquid
Fixed: Pressure, kPa = 100
Fixed: Mole fraction of choline chloride = 0.333
Property: Viscosity, Pa*s (Liquid); method: Concentric cylinders viscometry
Temperature, K	Viscosity, Pa*s	uncertainty
293.15	0.5614	0.02828
298.15	0.38633	0.01848
303.15	0.29087	0.0134
308.15	0.21681	0.00964
313.15	0.16133	0.00696
318.15	0.1252	0.00528
323.15	0.09889	0.004101
328.15	0.07873	0.003227
333.15	0.063508	0.002585
338.15	0.051973	0.002109
343.15	0.043037	0.001751
348.15	0.036024	0.001466
353.15	0.030469	0.001239
358.15	0.026001	0.001058
363.15	0.022372	0.00091
368.15	0.019407	0.000789
373.15	0.016929	0.000689

System: choline chloride + urea; phases: Liquid
Fixed: Mole fraction of choline chloride = 0.331
Property: Mass density, kg/m3 (Liquid); method: Vibrating tube method
Temperature, K	Pressure, kPa	Mass density, kg/m3	uncertainty
293.15	100	1201.4	1.1
293.15	1000	1201.7	1.1
293.15	2000	1202	1.1
293.15	5000	1202.8	1.1
293.15	7000	1203.4	1.1
293.15	10000	1204.2	1.1
293.15	12000	1204.8	1.1
293.15	16000	1205.9	1.1
293.15	20000	1206.8	1.1
293.15	25000	1208.1	1.1
293.15	30000	1209.5	1.2
293.15	35000	1210.8	1.2
293.15	40000	1212	1.2
293.15	45000	1213.2	1.2
293.15	50000	1214.6	1.3
293.15	55000	1215.7	1.3
293.15	60000	1216.8	1.3
293.15	65000	1218.1	1.3
293.15	70000	1219.3	1.4
293.15	75000	1220.6	1.4
293.15	80000	1222.3	1.4
293.15	85000	1223.8	1.5
293.15	90000	1225.2	1.5
293.15	95000	1226.5	1.5
303.15	100	1196.1	1.1
303.15	1000	1196.4	1.1
303.15	2000	1196.7	1.1
303.15	5000	1197.4	1.1
303.15	7000	1198	1.1
303.15	10000	1198.7	1.1
303.15	12000	1199.4	1.1
303.15	16000	1200.5	1.1
303.15	20000	1201.6	1.1
303.15	25000	1202.9	1.1
303.15	30000	1204.1	1.2
303.15	35000	1205.4	1.2
303.15	40000	1206.7	1.2
303.15	45000	1207.8	1.2
303.15	50000	1209.2	1.2
303.15	55000	1210.4	1.3
303.15	60000	1211.7	1.3
303.15	65000	1212.9	1.3
303.15	70000	1214.2	1.4
303.15	75000	1215.3	1.4
303.15	80000	1216.6	1.4
303.15	85000	1217.7	1.4
303.15	90000	1218.9	1.5
303.15	95000	1220.1	1.5
313.15	100	1190.3	1.1
313.15	1000	1190.6	1.1
313.15	2000	1191.1	1.1
313.15	5000	1191.9	1.1
313.15	7000	1192.4	1.1
313.15	10000	1193.3	1.1
313.15	12000	1193.8	1.1
313.15	16000	1194.9	1.1
313.15	20000	1196	1.1
313.15	25000	1197.2	1.1
313.15	30000	1198.7	1.2
313.15	35000	1200.1	1.2
313.15	40000	1201.3	1.2
313.15	45000	1202.5	1.2
313.15	50000	1203.8	1.2
313.15	55000	1205.1	1.3
313.15	60000	1206.3	1.3
313.15	65000	1207.6	1.3
313.15	70000	1208.9	1.3
313.15	75000	1210.1	1.4
313.15	80000	1211.2	1.4
313.15	85000	1212.5	1.4
313.15	90000	1213.7	1.5
313.15	95000	1214.9	1.5
323.15	100	1185.2	1.1
323.15	1000	1185.6	1.1
323.15	2000	1185.9	1.1
323.15	5000	1186.8	1.1
323.15	7000	1187.1	1.1
323.15	10000	1188.1	1.1
323.15	12000	1188.5	1.1
323.15	16000	1189.9	1.1
323.15	20000	1190.9	1.1
323.15	25000	1192.1	1.1
323.15	30000	1193.5	1.2
323.15	35000	1194.7	1.2
323.15	40000	1196.1	1.2
323.15	45000	1197.4	1.2
323.15	50000	1198.7	1.2
323.15	55000	1200	1.3
323.15	60000	1201.4	1.3
323.15	65000	1202.5	1.3
323.15	70000	1203.8	1.3
323.15	75000	1205	1.4
323.15	80000	1206.3	1.4
323.15	85000	1207.5	1.4
323.15	90000	1208.9	1.4
323.15	95000	1210.1	1.5
333.15	100	1179.9	1.1
333.15	1000	1180.2	1.1
333.15	2000	1180.5	1.1
333.15	5000	1181.4	1.1
333.15	7000	1182	1.1
333.15	10000	1182.7	1.1
333.15	12000	1183.3	1.1
333.15	16000	1184.5	1.1
333.15	20000	1185.6	1.1
333.15	25000	1186.8	1.1
333.15	30000	1188.2	1.1
333.15	35000	1189.6	1.2
333.15	40000	1190.9	1.2
333.15	45000	1192.3	1.2
333.15	50000	1193.4	1.2
333.15	55000	1194.8	1.2
333.15	60000	1196.1	1.3
333.15	65000	1197.2	1.3
333.15	70000	1198.5	1.3
333.15	75000	1199.9	1.3
333.15	80000	1201.2	1.4
333.15	85000	1202.6	1.4
333.15	90000	1203.8	1.4
333.15	95000	1205.2	1.5
343.15	100	1174.7	1.1
343.15	1000	1175	1.1
343.15	2000	1175.3	1.1
343.15	5000	1176.1	1.1
343.15	7000	1176.7	1.1
343.15	10000	1177.5	1.1
343.15	12000	1178.1	1.1
343.15	16000	1179.2	1.1
343.15	20000	1180.3	1.1
343.15	25000	1181.6	1.1
343.15	30000	1183	1.1
343.15	35000	1184.4	1.2
343.15	40000	1185.8	1.2
343.15	45000	1187	1.2
343.15	50000	1188.4	1.2
343.15	55000	1189.6	1.2
343.15	60000	1191	1.3
343.15	65000	1192.3	1.3
343.15	70000	1193.6	1.3
343.15	75000	1194.8	1.3
343.15	80000	1196.1	1.4
343.15	85000	1197.5	1.4
343.15	90000	1198.9	1.4
343.15	95000	1200.1	1.4
353.15	100	1169.3	1.1
353.15	1000	1169.5	1.1
353.15	2000	1169.9	1.1
353.15	5000	1170.8	1.1
353.15	7000	1171.4	1.1
353.15	10000	1172.1	1.1
353.15	12000	1172.6	1.1
353.15	16000	1173.9	1.1
353.15	20000	1174.8	1.1
353.15	25000	1176.3	1.1
353.15	30000	1177.7	1.1
353.15	35000	1179.1	1.2
353.15	40000	1180.5	1.2
353.15	45000	1181.9	1.2
353.15	50000	1183.2	1.2
353.15	55000	1184.6	1.2
353.15	60000	1185.8	1.3
353.15	65000	1187.1	1.3
353.15	70000	1188.6	1.3
353.15	75000	1189.8	1.3
353.15	80000	1191	1.3
353.15	85000	1192.4	1.4
353.15	90000	1193.4	1.4
353.15	95000	1194.8	1.4
363.15	100	1163.8	1.1
363.15	1000	1164.2	1.1
363.15	2000	1164.5	1.1
363.15	5000	1165.5	1.1
363.15	7000	1166.1	1.1
363.15	10000	1166.9	1.1
363.15	12000	1167.5	1.1
363.15	16000	1168.8	1.1
363.15	20000	1169.9	1.1
363.15	25000	1171.2	1.1
363.15	30000	1172.7	1.1
363.15	35000	1174.2	1.1
363.15	40000	1175.5	1.2
363.15	45000	1177	1.2
363.15	50000	1178.2	1.2
363.15	55000	1179.5	1.2
363.15	60000	1180.7	1.2
363.15	65000	1181.9	1.3
363.15	70000	1183.3	1.3
363.15	75000	1184.6	1.3
363.15	80000	1186	1.3
363.15	85000	1187.1	1.4
363.15	90000	1188.5	1.4
363.15	95000	1189.9	1.4

System: choline chloride + urea; phases: Liquid
Fixed: Mole fraction of choline chloride = 0.326
Property: Viscosity, Pa*s (Liquid); method: Falling or rolling sphere viscometry
Temperature, K	Pressure, kPa	Viscosity, Pa*s	uncertainty
333.15	100	0.07417	0.0053
333.15	1000	0.07454	0.00533
333.15	5000	0.07544	0.0054
333.15	12000	0.07915	0.00569
333.15	20000	0.0835	0.00603
333.15	40000	0.09536	0.00698
333.15	60000	0.1061	0.0079
333.15	80000	0.1215	0.0092
333.15	100000	0.1464	0.0114
353.15	100	0.03026	0.00215
353.15	1000	0.03038	0.00216
353.15	5000	0.03117	0.00222
353.15	12000	0.03208	0.00228
353.15	20000	0.03334	0.00237
353.15	40000	0.03705	0.00264
353.15	60000	0.04093	0.00292
353.15	80000	0.04471	0.00319
353.15	100000	0.04672	0.0034
373.15	100	0.0149	0.00106
373.15	1000	0.01596	0.00113
373.15	5000	0.01594	0.00113
373.15	12000	0.01653	0.00118
373.15	20000	0.01708	0.00122
373.15	40000	0.01856	0.00132
373.15	60000	0.02023	0.00144
373.15	80000	0.02214	0.00158
373.15	100000	0.02395	0.0017

System: choline chloride + urea; phases: Liquid
Fixed: Pressure, kPa = 100
Fixed: Mole fraction of choline chloride = 0.326
Property: Viscosity, Pa*s (Liquid); method: Concentric cylinders viscometry
Temperature, K	Viscosity, Pa*s	uncertainty
293.15	1.6961	0.1005
298.15	1.0149	0.0557
303.15	0.63548	0.03251
308.15	0.41461	0.01995
313.15	0.28075	0.01283
318.15	0.19638	0.0086
323.15	0.14198	0.00602
328.15	0.10516	0.00436
333.15	0.080074	0.003266
338.15	0.061916	0.002504
343.15	0.049072	0.001985
348.15	0.039556	0.0016
353.15	0.03247	0.001313
358.15	0.026865	0.001086
363.15	0.022605	0.000914
368.15	0.019335	0.000782
373.15	0.016651	0.000673
