Measured thermophysical data. The determination and correlation of the solubility of naproxen in acetone and water mixtures
Source: Fluid Phase Equilib., 2014, 10.1016/j.fluid.2014.02.034
Compound 1: (S)-(+)-naproxen, C14H14O3, InChI=1S/C14H14O3/c1-9(14(15)16)10-3-4-12-8-13(17-2)6-5-11(12)7-10/h3-9H,1-2H3,(H,15,16)/t9-/m0/s1, purity 99.5%
Compound 2: water, H2O, InChI=1S/H2O/h1H2, purity 99.9%
Compound 3: acetone, C3H6O, InChI=1S/C3H6O/c1-3(2)4/h1-2H3, purity 99%

System: acetone + water + (S)-(+)-naproxen; phases: Liquid, Crystal
Fixed: Pressure, kPa = 100
Property: Mole fraction of (S)-(+)-naproxen (Liquid); method: Phase equilibration
Mole fraction of water	Temperature, K	Mole fraction of (S)-(+)-naproxen	uncertainty
0.804	273.15	0.00072	2e-06
0.731	273.15	0.00272	1e-05
0.633	273.15	0.00809	2e-05
0.57	273.15	0.0136	0.0001
0.497	273.15	0.0193	0.0001
0.395	273.15	0.0286	0.0001
0.342	273.15	0.0333	0.0001
0.302	273.15	0.0364	0.0001
0.803	278.15	0.00093	3e-06
0.73	278.15	0.00348	1e-05
0.631	278.15	0.00996	3e-05
0.569	278.15	0.0153	0.0001
0.496	278.15	0.0215	0.0001
0.394	278.15	0.0298	0.0001
0.342	278.15	0.0345	0.0001
0.302	278.15	0.0379	0.0001
0.803	283.15	0.00117	1e-05
0.729	283.15	0.00429	1e-05
0.63	283.15	0.0125	0.0001
0.568	283.15	0.0179	0.0001
0.494	283.15	0.0243	0.0001
0.393	283.15	0.0318	0.0001
0.341	283.15	0.0357	0.0001
0.301	283.15	0.0387	0.0001
0.803	288.15	0.00134	1e-05
0.729	288.15	0.00542	2e-05
0.628	288.15	0.0145	0.0001
0.566	288.15	0.0205	0.0001
0.493	288.15	0.0273	0.0001
0.392	288.15	0.0353	0.0001
0.34	288.15	0.0389	0.0001
0.3	288.15	0.043	0.0001
0.803	293.15	0.00153	1e-05
0.728	293.15	0.00627	2e-05
0.627	293.15	0.0163	0.0001
0.564	293.15	0.0236	0.0001
0.49	293.15	0.0336	0.0001
0.389	293.15	0.0429	0.0001
0.337	293.15	0.0484	0.0002
0.297	293.15	0.0529	0.0002
