Measured thermophysical data. Determination and correlation of vapor liquid equilibrium for binary systems consisting of close-boiling components
Source: Fluid Phase Equilib., 2007, 10.1016/j.fluid.2007.01.042
Compound 1: ethylbenzene, C8H10, InChI=1S/C8H10/c1-2-8-6-4-3-5-7-8/h3-7H,2H2,1H3
Compound 2: 1,3-dimethylbenzene, C8H10, InChI=1S/C8H10/c1-7-4-3-5-8(2)6-7/h3-6H,1-2H3
Compound 3: 2-chlorotoluene, C7H7Cl, InChI=1S/C7H7Cl/c1-6-4-2-3-5-7(6)8/h2-5H,1H3
Compound 4: 4-chlorotoluene, C7H7Cl, InChI=1S/C7H7Cl/c1-6-2-4-7(8)5-3-6/h2-5H,1H3
Compound 5: benzene, C6H6, InChI=1S/C6H6/c1-2-4-6-5-3-1/h1-6H
Compound 6: cyclohexane, C6H12, InChI=1S/C6H12/c1-2-4-6-5-3-1/h1-6H2
Compound 7: tetrachloromethane, CCl4, InChI=1S/CCl4/c2-1(3,4)5
Compound 8: ethyl acetate, C4H8O2, InChI=1S/C4H8O2/c1-3-6-4(2)5/h3H2,1-2H3
Compound 9: heptane, C7H16, InChI=1S/C7H16/c1-3-5-7-6-4-2/h3-7H2,1-2H3
Compound 10: methylcyclohexane, C7H14, InChI=1S/C7H14/c1-7-5-3-2-4-6-7/h7H,2-6H2,1H3

System: ethylbenzene; phases: Liquid, Gas
Property: Vapor or sublimation pressure, kPa (Liquid); method: Ebulliometric method (Recirculating still)
Temperature, K	Vapor or sublimation pressure, kPa	uncertainty
377.54	40	0.09
386.69	53.33	0.11
394.14	66.66	0.14
400.51	79.99	0.17
406.12	93.32	0.19

System: 1,3-dimethylbenzene; phases: Liquid, Gas
Property: Vapor or sublimation pressure, kPa (Liquid); method: Ebulliometric method (Recirculating still)
Temperature, K	Vapor or sublimation pressure, kPa	uncertainty
380.51	40	0.09
389.66	53.33	0.11
397.13	66.66	0.14
403.51	79.99	0.17
409.09	93.32	0.19

System: 2-chlorotoluene; phases: Liquid, Gas
Property: Vapor or sublimation pressure, kPa (Liquid); method: Ebulliometric method (Recirculating still)
Temperature, K	Vapor or sublimation pressure, kPa	uncertainty
398.81	40	0.05
408.41	53.33	0.06
416.25	66.66	0.08
422.91	79.99	0.09
428.76	93.32	0.11

System: 4-chlorotoluene; phases: Liquid, Gas
Property: Vapor or sublimation pressure, kPa (Liquid); method: Ebulliometric method (Recirculating still)
Temperature, K	Vapor or sublimation pressure, kPa	uncertainty
401.71	40	0.09
411.34	53.33	0.11
419.2	66.66	0.14
425.9	79.99	0.17
431.77	93.32	0.19

System: benzene; phases: Liquid, Gas
Property: Vapor or sublimation pressure, kPa (Liquid); method: Ebulliometric method (Recirculating still)
Temperature, K	Vapor or sublimation pressure, kPa	uncertainty
325.6	40	0.04
333.56	53.33	0.04
340.06	66.66	0.05
345.61	79.99	0.06
350.5	93.32	0.06

System: cyclohexane; phases: Liquid, Gas
Property: Vapor or sublimation pressure, kPa (Liquid); method: Ebulliometric method (Recirculating still)
Temperature, K	Vapor or sublimation pressure, kPa	uncertainty
325.65	40	0.04
333.77	53.33	0.04
340.43	66.66	0.05
346.11	79.99	0.06
351.12	93.32	0.06

System: tetrachloromethane; phases: Liquid, Gas
Property: Vapor or sublimation pressure, kPa (Liquid); method: Ebulliometric method (Recirculating still)
Temperature, K	Vapor or sublimation pressure, kPa	uncertainty
322.04	40	0.04
330.08	53.33	0.04
336.65	66.66	0.05
342.21	79.99	0.06
347.09	93.32	0.06

System: ethyl acetate; phases: Liquid, Gas
Property: Vapor or sublimation pressure, kPa (Liquid); method: Ebulliometric method (Recirculating still)
Temperature, K	Vapor or sublimation pressure, kPa	uncertainty
324.44	40	0.04
331.9	53.33	0.05
337.99	66.66	0.06
343.18	79.99	0.07
347.7	93.32	0.08

System: heptane; phases: Liquid, Gas
Property: Vapor or sublimation pressure, kPa (Liquid); method: Ebulliometric method (Recirculating still)
Temperature, K	Vapor or sublimation pressure, kPa	uncertainty
342.77	40	0.05
351.08	53.33	0.07
357.85	66.66	0.08
363.64	79.99	0.1
368.7	93.32	0.11

System: methylcyclohexane; phases: Liquid, Gas
Property: Vapor or sublimation pressure, kPa (Liquid); method: Ebulliometric method (Recirculating still)
Temperature, K	Vapor or sublimation pressure, kPa	uncertainty
344.18	40	0.09
352.8	53.33	0.11
359.85	66.66	0.14
365.87	79.99	0.17
371.15	93.32	0.19

System: ethylbenzene + 1,3-dimethylbenzene; phases: Liquid, Gas
Property: Vapor or sublimation pressure, kPa (Liquid); method: EBULLIO:UFactor:0.5
Mole fraction of ethylbenzene	Temperature, K	Vapor or sublimation pressure, kPa	uncertainty
0.1068	380.2	40	0.21
0.1068	389.35	53.33	0.27
0.1068	396.83	66.66	0.33
0.1068	403.2	79.99	0.39
0.1068	408.77	93.32	0.46
0.2009	379.86	40	0.21
0.2009	389.04	53.33	0.27
0.2009	396.31	66.66	0.33
0.2009	402.89	79.99	0.39
0.2009	408.47	93.32	0.46
0.2948	379.57	40	0.21
0.2948	388.72	53.33	0.27
0.2948	396.21	66.66	0.33
0.2948	402.58	79.99	0.39
0.2948	408.17	93.32	0.46
0.4043	379.26	40	0.21
0.4043	388.4	53.33	0.27
0.4043	395.87	66.66	0.33
0.4043	402.24	79.99	0.39
0.4043	407.82	93.32	0.46
0.5005	378.94	40	0.21
0.5005	388.09	53.33	0.27
0.5005	395.57	66.66	0.33
0.5005	401.95	79.99	0.39
0.5005	407.55	93.32	0.46
0.581	378.71	40	0.21
0.581	387.86	53.33	0.27
0.581	395.33	66.66	0.33
0.581	401.71	79.99	0.39
0.581	407.3	93.32	0.46
0.6967	378.42	40	0.21
0.6967	387.55	53.33	0.27
0.6967	395	66.66	0.33
0.6967	401.37	79.99	0.39
0.6967	406.95	93.32	0.46
0.7975	378.09	40	0.21
0.7975	387.23	53.33	0.27
0.7975	394.7	66.66	0.33
0.7975	401.14	79.99	0.39
0.7975	406.66	93.32	0.46
0.8955	377.85	40	0.21
0.8955	386.99	53.33	0.27
0.8955	394.45	66.66	0.33
0.8955	400.82	79.99	0.39
0.8955	406.4	93.32	0.46

System: 2-chlorotoluene + 4-chlorotoluene; phases: Liquid, Gas
Property: Vapor or sublimation pressure, kPa (Liquid); method: EBULLIO:UFactor:0.5
Mole fraction of 2-chlorotoluene	Temperature, K	Vapor or sublimation pressure, kPa	uncertainty
0.0524	401.61	40	0.2
0.0524	411.27	53.33	0.26
0.0524	419.13	66.66	0.32
0.0524	425.81	79.99	0.39
0.0524	431.69	93.32	0.45
0.1037	401.42	40	0.2
0.1037	411.02	53.33	0.26
0.1037	418.87	66.66	0.32
0.1037	425.59	79.99	0.38
0.1037	431.44	93.32	0.44
0.1998	401.08	40	0.19
0.1998	410.72	53.33	0.25
0.1998	418.6	66.66	0.31
0.1998	425.27	79.99	0.37
0.1998	431.15	93.32	0.43
0.3017	400.87	40	0.19
0.3017	410.5	53.33	0.24
0.3017	418.31	66.66	0.3
0.3017	425.01	79.99	0.36
0.3017	430.87	93.32	0.41
0.4109	400.53	40	0.18
0.4109	410.15	53.33	0.23
0.4109	417.99	66.66	0.29
0.4109	424.71	79.99	0.34
0.4109	430.53	93.32	0.4
0.499	400.26	40	0.18
0.499	409.89	53.33	0.23
0.499	417.76	66.66	0.28
0.499	424.44	79.99	0.33
0.499	430.3	93.32	0.38
0.5465	409.88	53.33	0.22
0.5465	417.71	66.66	0.28
0.5465	424.35	79.99	0.33
0.5465	430.19	93.32	0.38
0.5978	399.92	40	0.17
0.5978	409.61	53.33	0.22
0.5978	417.45	66.66	0.27
0.5978	424.14	79.99	0.32
0.5978	430	93.32	0.37
0.6449	399.89	40	0.17
0.6449	409.56	53.33	0.22
0.6449	417.4	66.66	0.27
0.6449	424.07	79.99	0.32
0.6449	429.91	93.32	0.36
0.699	399.75	40	0.17
0.699	409.33	53.33	0.21
0.699	417.17	66.66	0.26
0.699	423.84	79.99	0.31
0.699	429.68	93.32	0.36
0.7513	409.26	53.33	0.21
0.7513	417.11	66.66	0.26
0.7513	423.77	79.99	0.3
0.7513	429.61	93.32	0.35
0.7978	399.4	40	0.16
0.7978	409.02	53.33	0.21
0.7978	416.85	66.66	0.25
0.7978	423.54	79.99	0.3
0.7978	429.41	93.32	0.35
0.8882	399.2	40	0.16
0.8882	408.84	53.33	0.2
0.8882	416.66	66.66	0.25
0.8882	423.31	79.99	0.29
0.8882	429.16	93.32	0.33

System: benzene + cyclohexane; phases: Liquid, Gas
Property: Vapor or sublimation pressure, kPa (Liquid); method: EBULLIO:UFactor:0.5
Mole fraction of benzene	Temperature, K	Vapor or sublimation pressure, kPa	uncertainty
0.0535	325.03	40	0.13
0.0535	333.14	53.33	0.16
0.0535	339.77	66.66	0.2
0.0535	345.42	79.99	0.23
0.0535	350.38	93.32	0.27
0.1016	324.61	40	0.13
0.1016	332.69	53.33	0.16
0.1016	339.3	66.66	0.2
0.1016	344.95	79.99	0.23
0.1016	349.88	93.32	0.27
0.1506	324.2	40	0.13
0.1506	332.27	53.33	0.16
0.1506	338.87	66.66	0.2
0.1506	344.51	79.99	0.23
0.1506	349.43	93.32	0.27
0.2035	323.82	40	0.13
0.2035	331.88	53.33	0.16
0.2035	338.47	66.66	0.2
0.2035	344.09	79.99	0.23
0.2035	349.01	93.32	0.27
0.2485	323.57	40	0.13
0.2485	331.62	53.33	0.16
0.2485	338.21	66.66	0.2
0.2485	343.82	79.99	0.23
0.2485	348.73	93.32	0.27
0.3004	323.31	40	0.13
0.3004	331.35	53.33	0.16
0.3004	337.93	66.66	0.2
0.3004	343.53	79.99	0.23
0.3004	348.44	93.32	0.27
0.3503	323.13	40	0.13
0.3503	331.18	53.33	0.16
0.3503	337.74	66.66	0.2
0.3503	343.34	79.99	0.23
0.3503	348.25	93.32	0.27
0.401	323.02	40	0.13
0.401	331.06	53.33	0.16
0.401	337.62	66.66	0.2
0.401	343.21	79.99	0.23
0.401	348.1	93.32	0.27
0.4234	322.95	40	0.13
0.4234	330.98	53.33	0.16
0.4234	337.53	66.66	0.2
0.4234	343.13	79.99	0.23
0.4234	348.03	93.32	0.27
0.4493	322.92	40	0.13
0.4493	330.92	53.33	0.16
0.4493	337.49	66.66	0.2
0.4493	343.08	79.99	0.23
0.4493	347.98	93.32	0.27
0.4752	322.9	40	0.13
0.4752	330.93	53.33	0.16
0.4752	337.48	66.66	0.2
0.4752	343.07	79.99	0.23
0.4752	347.96	93.32	0.27
0.4985	322.87	40	0.13
0.4985	330.88	53.33	0.16
0.4985	337.44	66.66	0.2
0.4985	343.03	79.99	0.23
0.4985	347.91	93.32	0.27
0.5243	322.88	40	0.13
0.5243	330.88	53.33	0.16
0.5243	337.42	66.66	0.2
0.5243	343.01	79.99	0.23
0.5243	347.89	93.32	0.27
0.5749	322.92	40	0.13
0.5749	330.91	53.33	0.16
0.5749	337.45	66.66	0.2
0.5749	343.03	79.99	0.23
0.5749	347.92	93.32	0.27
0.5986	322.93	40	0.13
0.5986	330.93	53.33	0.16
0.5986	337.46	66.66	0.2
0.5986	343.05	79.99	0.23
0.5986	347.94	93.32	0.27
0.6113	322.96	40	0.13
0.6113	330.97	53.33	0.16
0.6113	337.51	66.66	0.2
0.6113	343.09	79.99	0.23
0.6113	347.96	93.32	0.27
0.6457	323.04	40	0.13
0.6457	331.05	53.33	0.16
0.6457	337.58	66.66	0.2
0.6457	343.16	79.99	0.23
0.6457	348.03	93.32	0.27
0.6986	323.19	40	0.13
0.6986	331.2	53.33	0.16
0.6986	337.73	66.66	0.2
0.6986	343.29	79.99	0.23
0.6986	348.17	93.32	0.27
0.7489	323.43	40	0.13
0.7489	331.41	53.33	0.16
0.7489	337.94	66.66	0.2
0.7489	343.49	79.99	0.23
0.7489	348.37	93.32	0.27
0.799	323.7	40	0.13
0.799	331.67	53.33	0.16
0.799	338.18	66.66	0.2
0.799	343.75	79.99	0.23
0.799	348.62	93.32	0.27
0.8471	324.01	40	0.13
0.8471	331.99	53.33	0.16
0.8471	338.51	66.66	0.2
0.8471	344.07	79.99	0.23
0.8471	348.93	93.32	0.27
0.8993	324.44	40	0.13
0.8993	332.41	53.33	0.16
0.8993	338.93	66.66	0.2
0.8993	344.48	79.99	0.23
0.8993	349.35	93.32	0.27
0.9466	325	40	0.13
0.9466	332.95	53.33	0.16
0.9466	339.45	66.66	0.2
0.9466	344.99	79.99	0.23
0.9466	349.83	93.32	0.27

System: tetrachloromethane + ethyl acetate; phases: Liquid, Gas
Property: Vapor or sublimation pressure, kPa (Liquid); method: EBULLIO:UFactor:0.5
Mole fraction of tetrachloromethane	Temperature, K	Vapor or sublimation pressure, kPa	uncertainty
0.0499	323.92	40	0.14
0.0499	331.32	53.33	0.17
0.0499	337.48	66.66	0.21
0.0499	342.69	79.99	0.24
0.0499	347.22	93.32	0.28
0.0999	323.43	40	0.14
0.0999	330.95	53.33	0.17
0.0999	337.06	66.66	0.21
0.0999	342.26	79.99	0.24
0.0999	346.82	93.32	0.28
0.1501	323.16	40	0.14
0.1501	330.65	53.33	0.17
0.1501	336.74	66.66	0.21
0.1501	341.96	79.99	0.24
0.1501	346.52	93.32	0.28
0.2001	322.74	40	0.13
0.2001	330.25	53.33	0.17
0.2001	336.39	66.66	0.21
0.2001	341.6	79.99	0.24
0.2001	346.17	93.32	0.28
0.2499	322.46	40	0.13
0.2499	329.99	53.33	0.17
0.2499	336.13	66.66	0.21
0.2499	341.38	79.99	0.24
0.2499	345.95	93.32	0.28
0.2996	322.19	40	0.13
0.2996	329.76	53.33	0.17
0.2996	335.91	66.66	0.2
0.2996	341.18	79.99	0.24
0.2996	345.75	93.32	0.28
0.3499	321.91	40	0.13
0.3499	329.52	53.33	0.17
0.3499	335.71	66.66	0.2
0.3499	340.97	79.99	0.24
0.3499	345.56	93.32	0.27
0.3996	321.66	40	0.13
0.3996	329.31	53.33	0.17
0.3996	335.49	66.66	0.2
0.3996	340.78	79.99	0.24
0.3996	345.42	93.32	0.27
0.45	321.61	40	0.13
0.45	329.19	53.33	0.17
0.45	335.39	66.66	0.2
0.45	340.68	79.99	0.24
0.45	345.29	93.32	0.27
0.4994	321.4	40	0.13
0.4994	329.01	53.33	0.17
0.4994	335.23	66.66	0.2
0.4994	340.56	79.99	0.24
0.4994	345.19	93.32	0.27
0.5498	321.24	40	0.13
0.5498	328.9	53.33	0.17
0.5498	335.13	66.66	0.2
0.5498	340.46	79.99	0.24
0.5498	345.12	93.32	0.27
0.5998	321.13	40	0.13
0.5998	328.78	53.33	0.17
0.5998	335.06	66.66	0.2
0.5998	340.4	79.99	0.24
0.5998	345.08	93.32	0.27
0.6499	321.08	40	0.13
0.6499	328.8	53.33	0.17
0.6499	335.1	66.66	0.2
0.6499	340.46	79.99	0.24
0.6499	345.16	93.32	0.27
0.6996	321.08	40	0.13
0.6996	328.82	53.33	0.17
0.6996	335.15	66.66	0.2
0.6996	340.55	79.99	0.24
0.6996	345.26	93.32	0.27
0.7501	321.11	40	0.13
0.7501	328.88	53.33	0.17
0.7501	335.25	66.66	0.2
0.7501	340.65	79.99	0.24
0.7501	345.39	93.32	0.27
0.8	321.18	40	0.13
0.8	328.99	53.33	0.17
0.8	335.37	66.66	0.2
0.8	340.81	79.99	0.23
0.8	345.57	93.32	0.27
0.8499	321.29	40	0.13
0.8499	329.13	53.33	0.16
0.8499	335.55	66.66	0.2
0.8499	341.02	79.99	0.23
0.8499	345.8	93.32	0.27
0.9013	321.45	40	0.13
0.9013	329.36	53.33	0.16
0.9013	335.82	66.66	0.2
0.9013	341.33	79.99	0.23
0.9013	346.14	93.32	0.27
0.9433	321.69	40	0.13
0.9433	329.64	53.33	0.16
0.9433	336.15	66.66	0.2
0.9433	341.7	79.99	0.23
0.9433	346.53	93.32	0.27

System: methylcyclohexane + heptane; phases: Liquid, Gas
Property: Vapor or sublimation pressure, kPa (Liquid); method: EBULLIO:UFactor:0.5
Mole fraction of heptane	Temperature, K	Vapor or sublimation pressure, kPa	uncertainty
0.05	344.12	40	0.2
0.05	352.73	53.33	0.26
0.05	359.77	66.66	0.33
0.05	365.8	79.99	0.39
0.05	371.04	93.32	0.45
0.1001	344.01	40	0.2
0.1001	352.61	53.33	0.26
0.1001	359.64	66.66	0.32
0.1001	365.64	79.99	0.38
0.1001	370.89	93.32	0.44
0.1503	343.95	40	0.2
0.1503	352.53	53.33	0.26
0.1503	359.55	66.66	0.32
0.1503	365.54	79.99	0.37
0.1503	370.78	93.32	0.43
0.2	343.86	40	0.19
0.2	352.41	53.33	0.25
0.2	359.42	66.66	0.31
0.2	365.41	79.99	0.37
0.2	370.65	93.32	0.43
0.2497	343.84	40	0.19
0.2497	352.37	53.33	0.25
0.2497	359.35	66.66	0.3
0.2497	365.3	79.99	0.36
0.2497	370.5	93.32	0.42
0.2998	343.71	40	0.19
0.2998	352.25	53.33	0.24
0.2998	359.23	66.66	0.3
0.2998	365.17	79.99	0.36
0.2998	370.39	93.32	0.41
0.3503	343.7	40	0.18
0.3503	352.2	53.33	0.24
0.3503	359.15	66.66	0.29
0.3503	365.07	79.99	0.35
0.3503	370.29	93.32	0.41
0.3993	343.61	40	0.18
0.3993	352.06	53.33	0.24
0.3993	359.01	66.66	0.29
0.3993	364.93	79.99	0.34
0.3993	370.14	93.32	0.4
0.45	343.57	40	0.18
0.45	352.03	53.33	0.23
0.45	358.94	66.66	0.28
0.45	364.84	79.99	0.34
0.45	370.02	93.32	0.39
0.5003	343.46	40	0.18
0.5003	351.93	53.33	0.23
0.5003	358.86	66.66	0.28
0.5003	364.76	79.99	0.33
0.5003	369.91	93.32	0.38
0.5505	343.43	40	0.17
0.5505	351.85	53.33	0.22
0.5505	358.76	66.66	0.28
0.5505	364.62	79.99	0.33
0.5505	369.78	93.32	0.38
0.5987	343.3	40	0.17
0.5987	351.72	53.33	0.22
0.5987	358.61	66.66	0.27
0.5987	364.49	79.99	0.32
0.5987	369.64	93.32	0.37
0.6492	343.23	40	0.17
0.6492	351.68	53.33	0.22
0.6492	358.53	66.66	0.27
0.6492	364.4	79.99	0.32
0.6492	369.54	93.32	0.36
0.7001	343.16	40	0.17
0.7001	351.56	53.33	0.21
0.7001	358.41	66.66	0.26
0.7001	364.28	79.99	0.31
0.7001	369.41	93.32	0.36
0.7501	343.04	40	0.16
0.7501	351.43	53.33	0.21
0.7501	358.26	66.66	0.26
0.7501	364.12	79.99	0.3
0.7501	369.24	93.32	0.35
0.8005	343.04	40	0.16
0.8005	351.4	53.33	0.21
0.8005	358.26	66.66	0.25
0.8005	364.09	79.99	0.3
0.8005	369.2	93.32	0.35
0.8504	342.97	40	0.16
0.8504	351.34	53.33	0.2
0.8504	358.15	66.66	0.25
0.8504	363.98	79.99	0.29
0.8504	369.06	93.32	0.34
0.8984	342.87	40	0.16
0.8984	351.22	53.33	0.2
0.8984	358.03	66.66	0.25
0.8984	363.84	79.99	0.29
0.8984	368.94	93.32	0.33
0.95	342.81	40	0.15
0.95	351.13	53.33	0.2
0.95	357.94	66.66	0.24
0.95	363.75	79.99	0.29
0.95	368.83	93.32	0.33
