Measured thermophysical data. Vapor liquid equilibria and density measurement for binary mixtures of toluene, benzene, o-xylene, m-xylene, sulfolane and nonane at 333.15K and 353.15K
Source: Fluid Phase Equilib., 2010, 10.1016/j.fluid.2009.09.024
Compound 1: benzene, C6H6, InChI=1S/C6H6/c1-2-4-6-5-3-1/h1-6H
Compound 2: nonane, C9H20, InChI=1S/C9H20/c1-3-5-7-9-8-6-4-2/h3-9H2,1-2H3
Compound 3: 1,2-dimethylbenzene, C8H10, InChI=1S/C8H10/c1-7-5-3-4-6-8(7)2/h3-6H,1-2H3
Compound 4: toluene, C7H8, InChI=1S/C7H8/c1-7-5-3-2-4-6-7/h2-6H,1H3
Compound 5: 1,3-dimethylbenzene, C8H10, InChI=1S/C8H10/c1-7-4-3-5-8(2)6-7/h3-6H,1-2H3
Compound 6: sulfolane, C4H8O2S, InChI=1S/C4H8O2S/c5-7(6)3-1-2-4-7/h1-4H2

System: benzene; phases: Liquid, Gas
Property: Vapor or sublimation pressure, kPa (Liquid); method: Closed cell (Static) method
Temperature, K	Vapor or sublimation pressure, kPa	uncertainty
333.15	52.45	0.27
353.15	100	0.51

System: benzene; phases: Liquid, Gas
Property: Mass density, kg/m3 (Liquid); method: Vibrating tube method
Temperature, K	Mass density, kg/m3	uncertainty
333.15	835.696	0.156
353.15	814.086	0.161

System: benzene; phases: Gas, Liquid
Property: Mass density, kg/m3 (Gas); method: Vibrating tube method
Temperature, K	Mass density, kg/m3	uncertainty
333.15	1.5172	0.1041
353.15	2.69	0.1042

System: nonane; phases: Liquid, Gas
Property: Vapor or sublimation pressure, kPa (Liquid); method: Closed cell (Static) method
Temperature, K	Vapor or sublimation pressure, kPa	uncertainty
333.15	3.97	0.03
353.15	10.28	0.06

System: nonane; phases: Liquid, Gas
Property: Mass density, kg/m3 (Liquid); method: Vibrating tube method
Temperature, K	Mass density, kg/m3	uncertainty
333.15	685.961	0.246
353.15	669.919	0.248

System: nonane; phases: Gas, Liquid
Property: Mass density, kg/m3 (Gas); method: Vibrating tube method
Temperature, K	Mass density, kg/m3	uncertainty
333.15	0.1868	0.1039
353.15	0.4513	0.104

System: 1,2-dimethylbenzene; phases: Liquid, Gas
Property: Vapor or sublimation pressure, kPa (Liquid); method: Closed cell (Static) method
Temperature, K	Vapor or sublimation pressure, kPa	uncertainty
333.15	5.32	0.04
353.15	12.8	0.08
333.15	5.44	0.04
353.15	12.66	0.08

System: 1,2-dimethylbenzene; phases: Gas, Liquid
Property: Mass density, kg/m3 (Gas); method: Vibrating tube method
Temperature, K	Mass density, kg/m3	uncertainty
333.15	0.1767	0.1039
353.15	0.4397	0.104
333.15	0.2082	0.104
353.15	0.4571	0.104

System: 1,2-dimethylbenzene; phases: Liquid, Gas
Property: Mass density, kg/m3 (Liquid); method: Vibrating tube method
Temperature, K	Mass density, kg/m3	uncertainty
333.15	845.8	0.235
353.15	828.5	0.236
333.15	845.839	0.235
353.15	828.528	0.236

System: toluene; phases: Liquid, Gas
Property: Vapor or sublimation pressure, kPa (Liquid); method: Closed cell (Static) method
Temperature, K	Vapor or sublimation pressure, kPa	uncertainty
333.15	18.62	0.1
353.15	38.4	0.2

System: toluene; phases: Gas, Liquid
Property: Mass density, kg/m3 (Gas); method: Vibrating tube method
Temperature, K	Mass density, kg/m3	uncertainty
333.15	0.6829	0.104
353.15	1.3863	0.1041

System: toluene; phases: Liquid, Gas
Property: Mass density, kg/m3 (Liquid); method: Vibrating tube method
Temperature, K	Mass density, kg/m3	uncertainty
333.15	830.467	0.236
353.15	810.89	0.237

System: 1,3-dimethylbenzene; phases: Liquid, Gas
Property: Vapor or sublimation pressure, kPa (Liquid); method: Closed cell (Static) method
Temperature, K	Vapor or sublimation pressure, kPa	uncertainty
333.15	6.59	0.05
353.15	15.09	0.09

System: 1,3-dimethylbenzene; phases: Gas, Liquid
Property: Mass density, kg/m3 (Gas); method: Vibrating tube method
Temperature, K	Mass density, kg/m3	uncertainty
333.15	0.252	0.104
353.15	0.5448	0.104

System: 1,3-dimethylbenzene; phases: Liquid, Gas
Property: Mass density, kg/m3 (Liquid); method: Vibrating tube method
Temperature, K	Mass density, kg/m3	uncertainty
333.15	829.305	0.236
353.15	811.602	0.237

System: sulfolane; phases: Liquid, Gas
Property: Vapor or sublimation pressure, kPa (Liquid); method: Closed cell (Static) method
Temperature, K	Vapor or sublimation pressure, kPa	uncertainty
333.15	0.01	0.01
353.15	0.04	0.01

System: sulfolane; phases: Gas, Liquid
Property: Mass density, kg/m3 (Gas); method: Vibrating tube method
Temperature, K	Mass density, kg/m3	uncertainty
333.15	0.0005	0.1039
353.15	0.0018	0.104

System: sulfolane; phases: Liquid, Gas
Property: Mass density, kg/m3 (Liquid); method: Vibrating tube method
Temperature, K	Mass density, kg/m3	uncertainty
333.15	1231.12	0.42
353.15	1214.39	0.41

System: benzene + nonane; phases: Liquid, Gas
Property: Vapor or sublimation pressure, kPa (Liquid); method: Closed cell (Static) method
Temperature, K	Mole fraction of benzene	Vapor or sublimation pressure, kPa	uncertainty
333.15	0	3.97	0.03
333.15	0.1	12.63	0.17
333.15	0.2	19.62	0.17
333.15	0.302	24.94	0.17
333.15	0.404	29.26	0.18
333.15	0.502	33.25	0.2
333.15	0.599	36.57	0.21
333.15	0.699	40.56	0.23
333.15	0.799	44.22	0.25
333.15	0.899	47.88	0.26
333.15	0.94	49.54	0.28
333.15	0.969	51.03	0.29
333.15	1	52.45	0.27
353.15	0	10.28	0.06
353.15	0.101	25.59	0.31
353.15	0.199	37.58	0.31
353.15	0.248	42.56	0.31
353.15	0.3	47.7	0.32
353.15	0.399	56.56	0.34
353.15	0.499	63.51	0.36
353.15	0.599	70.16	0.4
353.15	0.701	78.46	0.43
353.15	0.799	85.24	0.46
353.15	0.899	92.23	0.5
353.15	1	100	0.51

System: benzene + nonane; phases: Liquid, Gas
Property: Mass density, kg/m3 (Liquid); method: Vibrating tube method
Temperature, K	Mole fraction of benzene	Mass density, kg/m3	uncertainty
333.15	0	685.961	0.246
333.15	0.1	700.985	0.382
333.15	0.2	715.957	0.376
333.15	0.302	731.175	0.37
333.15	0.404	746.508	0.365
333.15	0.502	761.194	0.36
333.15	0.599	775.788	0.355
333.15	0.699	790.766	0.35
333.15	0.799	805.683	0.345
333.15	0.899	820.654	0.341
333.15	0.94	826.713	0.341
333.15	0.969	831.191	0.339
333.15	1	835.696	0.156
353.15	0	669.919	0.248
353.15	0.101	684.481	0.375
353.15	0.199	698.728	0.37
353.15	0.248	705.756	0.365
353.15	0.3	713.217	0.364
353.15	0.399	727.581	0.358
353.15	0.499	741.992	0.351
353.15	0.599	756.286	0.347
353.15	0.701	771.023	0.343
353.15	0.799	785.21	0.338
353.15	0.899	799.582	0.333
353.15	1	814.086	0.161

System: benzene + nonane; phases: Gas, Liquid
Property: Mass density, kg/m3 (Gas); method: Vibrating tube method
Temperature, K	Mole fraction of benzene	Mass density, kg/m3	uncertainty
333.15	0	0.1868	0.1039
333.15	0.1	0.4286	0.1041
333.15	0.2	0.6271	0.104
333.15	0.302	0.7759	0.104
333.15	0.404	0.8955	0.104
333.15	0.502	1.0062	0.1041
333.15	0.599	1.0965	0.1041
333.15	0.699	1.2055	0.1041
333.15	0.799	1.303	0.1041
333.15	0.899	1.3983	0.1041
333.15	0.94	1.4413	0.1041
333.15	0.969	1.4805	0.1041
333.15	1	1.5172	0.1041
353.15	0	0.4513	0.104
353.15	0.101	0.8384	0.1043
353.15	0.199	1.15	0.1043
353.15	0.248	1.2788	0.1042
353.15	0.3	1.4124	0.1042
353.15	0.399	1.6408	0.1042
353.15	0.499	1.8142	0.1042
353.15	0.599	1.9788	0.1042
353.15	0.701	2.187	0.104
353.15	0.799	2.3494	0.1043
353.15	0.899	2.5125	0.1043
353.15	1	2.69	0.1042

System: 1,2-dimethylbenzene + toluene; phases: Liquid, Gas
Property: Vapor or sublimation pressure, kPa (Liquid); method: Closed cell (Static) method
Temperature, K	Mole fraction of toluene	Vapor or sublimation pressure, kPa	uncertainty
333.15	0	5.32	0.04
333.15	0.108	6.75	0.05
333.15	0.203	7.98	0.06
333.15	0.301	8.95	0.06
333.15	0.4	10.64	0.07
333.15	0.499	11.97	0.08
333.15	0.601	13.5	0.08
333.15	0.699	14.74	0.09
333.15	0.8	16.14	0.09
333.15	0.9	17.24	0.1
333.15	1	18.62	0.1
353.15	0	12.8	0.08
353.15	0.102	15.96	0.11
353.15	0.202	17.95	0.11
353.15	0.299	20.28	0.12
353.15	0.4	22.61	0.13
353.15	0.499	25.27	0.15
353.15	0.6	27.8	0.16
353.15	0.699	30.92	0.17
353.15	0.799	33.58	0.18
353.15	0.899	36.24	0.19
353.15	1	38.4	0.2

System: 1,2-dimethylbenzene + toluene; phases: Gas, Liquid
Property: Mass density, kg/m3 (Gas); method: Vibrating tube method
Temperature, K	Mole fraction of toluene	Mass density, kg/m3	uncertainty
333.15	0	0.1767	0.1039
333.15	0.108	0.2341	0.104
333.15	0.203	0.2838	0.104
333.15	0.301	0.3241	0.104
333.15	0.4	0.3906	0.104
333.15	0.499	0.4071	0.104
333.15	0.601	0.4874	0.104
333.15	0.699	0.5349	0.104
333.15	0.8	0.5882	0.104
333.15	0.9	0.6303	0.104
333.15	1	0.6829	0.104
353.15	0	0.4397	0.104
353.15	0.102	0.5491	0.104
353.15	0.202	0.6184	0.104
353.15	0.299	0.7003	0.104
353.15	0.4	0.7824	0.1041
353.15	0.499	0.8765	0.1041
353.15	0.6	0.9796	0.1041
353.15	0.699	1.0979	0.1041
353.15	0.799	1.2001	0.1041
353.15	0.899	1.3022	0.1041
353.15	1	1.3863	0.1041

System: 1,2-dimethylbenzene + toluene; phases: Liquid, Gas
Property: Mass density, kg/m3 (Liquid); method: Vibrating tube method
Temperature, K	Mole fraction of toluene	Mass density, kg/m3	uncertainty
333.15	0	845.8	0.235
333.15	0.108	844.136	0.237
333.15	0.203	842.673	0.237
333.15	0.301	841.173	0.237
333.15	0.4	839.661	0.237
333.15	0.499	838.134	0.237
333.15	0.601	836.576	0.237
333.15	0.699	835.072	0.237
333.15	0.8	833.533	0.238
333.15	0.9	831.999	0.238
333.15	1	830.467	0.236
353.15	0	828.5	0.236
353.15	0.102	826.692	0.239
353.15	0.202	824.931	0.239
353.15	0.299	823.222	0.239
353.15	0.4	821.449	0.239
353.15	0.499	819.705	0.239
353.15	0.6	817.918	0.239
353.15	0.699	816.176	0.239
353.15	0.799	814.417	0.239
353.15	0.899	812.661	0.239
353.15	1	810.89	0.237

System: 1,3-dimethylbenzene + sulfolane; phases: Liquid, Gas
Property: Vapor or sublimation pressure, kPa (Liquid); method: Closed cell (Static) method
Temperature, K	Mole fraction of 1,3-dimethylbenzene	Vapor or sublimation pressure, kPa	uncertainty
333.15	0	0.01	0.01
333.15	0.01	0.31	0.06
333.15	0.015	0.46	0.06
333.15	0.02	0.6	0.06
333.15	0.03	0.87	0.06
333.15	0.1	2.47	0.04
333.15	0.199	3.96	0.04
333.15	0.299	4.79	0.04
333.15	0.399	5.27	0.04
333.15	0.501	5.52	0.04
333.15	0.6	5.64	0.04
333.15	0.7	5.73	0.04
333.15	0.799	5.88	0.04
333.15	0.9	6.11	0.04
333.15	1	6.59	0.05
353.15	0	0.04	0.01
353.15	0.015	1.01	0.13
353.15	0.02	1.32	0.13
353.15	0.03	1.94	0.12
353.15	0.05	3.08	0.1
353.15	0.1	5.49	0.09
353.15	0.199	8.86	0.08
353.15	0.299	10.98	0.08
353.15	0.399	12.13	0.08
353.15	0.501	12.64	0.08
353.15	0.6	13.07	0.08
353.15	0.7	13.28	0.08
353.15	0.799	13.52	0.08
353.15	0.9	14	0.09
353.15	1	15.09	0.09

System: 1,3-dimethylbenzene + sulfolane; phases: Gas, Liquid
Property: Mass density, kg/m3 (Gas); method: Vibrating tube method
Temperature, K	Mole fraction of 1,3-dimethylbenzene	Mass density, kg/m3	uncertainty
333.15	0	0.0005	0.1039
333.15	0.01	0.012	0.104
333.15	0.015	0.0177	0.104
333.15	0.02	0.0231	0.104
333.15	0.03	0.0337	0.104
333.15	0.1	0.0946	0.1039
333.15	0.199	0.1517	0.1039
333.15	0.299	0.1836	0.1039
333.15	0.399	0.2019	0.104
333.15	0.501	0.2116	0.104
333.15	0.6	0.216	0.104
333.15	0.7	0.2193	0.104
333.15	0.799	0.2251	0.104
333.15	0.9	0.2339	0.104
333.15	1	0.252	0.104
353.15	0	0.0018	0.104
353.15	0.015	0.037	0.1041
353.15	0.02	0.048	0.1041
353.15	0.03	0.0703	0.1041
353.15	0.05	0.1117	0.104
353.15	0.1	0.1985	0.104
353.15	0.199	0.3201	0.104
353.15	0.299	0.3968	0.104
353.15	0.399	0.4383	0.104
353.15	0.501	0.4565	0.104
353.15	0.6	0.4723	0.104
353.15	0.7	0.4799	0.104
353.15	0.799	0.4885	0.104
353.15	0.9	0.5058	0.104
353.15	1	0.5448	0.104

System: 1,3-dimethylbenzene + sulfolane; phases: Liquid, Gas
Property: Mass density, kg/m3 (Liquid); method: Vibrating tube method
Temperature, K	Mole fraction of 1,3-dimethylbenzene	Mass density, kg/m3	uncertainty
333.15	0	1231.12	0.42
333.15	0.01	1227.11	0.9
333.15	0.015	1225.1	0.9
333.15	0.02	1223.09	0.9
333.15	0.03	1219.07	0.9
333.15	0.1	1190.81	0.89
333.15	0.199	1150.86	0.88
333.15	0.299	1110.94	0.86
333.15	0.399	1070.45	0.86
333.15	0.501	1029.46	0.84
333.15	0.6	989.939	0.837
333.15	0.7	949.485	0.839
333.15	0.799	909.766	0.834
333.15	0.9	869.443	0.834
333.15	1	829.305	0.236
353.15	0	1214.39	0.41
353.15	0.015	1208.34	0.9
353.15	0.02	1206.33	0.9
353.15	0.03	1202.3	0.9
353.15	0.05	1194.25	0.9
353.15	0.1	1173.97	0.89
353.15	0.199	1133.93	0.87
353.15	0.299	1093.91	0.86
353.15	0.399	1053.33	0.85
353.15	0.501	1012.24	0.84
353.15	0.6	972.621	0.839
353.15	0.7	932.07	0.84
353.15	0.799	892.257	0.836
353.15	0.9	851.836	0.836
353.15	1	811.602	0.237

System: 1,2-dimethylbenzene + sulfolane; phases: Liquid, Gas
Property: Vapor or sublimation pressure, kPa (Liquid); method: Closed cell (Static) method
Temperature, K	Mole fraction of 1,2-dimethylbenzene	Vapor or sublimation pressure, kPa	uncertainty
333.15	0	0.01	0.01
333.15	0.01	0.25	0.05
333.15	0.015	0.38	0.05
333.15	0.02	0.49	0.05
333.15	0.03	0.72	0.05
333.15	0.1	2.02	0.04
333.15	0.2	3.56	0.04
333.15	0.3	4.4	0.04
333.15	0.4	4.97	0.04
333.15	0.499	5.22	0.04
333.15	0.599	5.26	0.04
333.15	0.699	5.28	0.04
333.15	0.801	5.34	0.04
333.15	0.899	5.35	0.04
333.15	1	5.44	0.04
353.15	0	0.04	0.01
353.15	0.01	0.05	0.02
353.15	0.015	0.18	0.09
353.15	0.02	0.49	0.12
353.15	0.03	1.08	0.12
353.15	0.1	3.34	0.07
353.15	0.2	6.06	0.07
353.15	0.3	8.21	0.07
353.15	0.4	9.57	0.07
353.15	0.499	10.82	0.07
353.15	0.599	11.41	0.07
353.15	0.699	11.68	0.07
353.15	0.801	11.78	0.07
353.15	0.899	11.95	0.07
353.15	1	12.66	0.08

System: 1,2-dimethylbenzene + sulfolane; phases: Liquid, Gas
Property: Mass density, kg/m3 (Liquid); method: Vibrating tube method
Temperature, K	Mole fraction of 1,2-dimethylbenzene	Mass density, kg/m3	uncertainty
333.15	0	1231.12	1.34
333.15	0.01	1227.27	1.53
333.15	0.015	1225.35	1.52
333.15	0.02	1223.42	1.51
333.15	0.03	1219.57	1.49
333.15	0.1	1192.25	1.38
333.15	0.2	1153.84	1.23
333.15	0.3	1115.37	1.11
333.15	0.4	1076.99	1.01
333.15	0.499	1038.59	0.94
333.15	0.599	1000.24	0.88
333.15	0.699	961.436	0.85
333.15	0.801	922.401	0.825
333.15	0.899	884.731	0.814
333.15	1	845.839	0.235
353.15	0	1214.39	1.3
353.15	0.01	1210.53	1.5
353.15	0.015	1208.6	1.49
353.15	0.02	1206.67	1.48
353.15	0.03	1202.81	1.46
353.15	0.1	1175.45	1.35
353.15	0.2	1136.98	1.2
353.15	0.3	1098.46	1.09
353.15	0.4	1060.02	1
353.15	0.499	1021.56	0.93
353.15	0.599	983.157	0.877
353.15	0.699	944.296	0.849
353.15	0.801	905.202	0.825
353.15	0.899	867.477	0.814
353.15	1	828.528	0.236

System: 1,2-dimethylbenzene + sulfolane; phases: Gas, Liquid
Property: Mass density, kg/m3 (Gas); method: Vibrating tube method
Temperature, K	Mole fraction of 1,2-dimethylbenzene	Mass density, kg/m3	uncertainty
333.15	0	0.0005	0.1039
333.15	0.01	0.0098	0.1039
333.15	0.015	0.0147	0.1039
333.15	0.02	0.0188	0.1039
333.15	0.03	0.0276	0.1039
333.15	0.1	0.0776	0.1039
333.15	0.2	0.1364	0.1039
333.15	0.3	0.1687	0.1039
333.15	0.4	0.1904	0.1039
333.15	0.499	0.2001	0.1039
333.15	0.599	0.2016	0.1039
333.15	0.699	0.2021	0.104
333.15	0.801	0.1971	0.1039
333.15	0.899	0.1972	0.1039
333.15	1	0.2082	0.104
353.15	0	0.0018	0.104
353.15	0.01	0.002	0.104
353.15	0.015	0.0067	0.104
353.15	0.02	0.0178	0.1041
353.15	0.03	0.0394	0.1041
353.15	0.1	0.1211	0.104
353.15	0.2	0.2193	0.104
353.15	0.3	0.2966	0.104
353.15	0.4	0.346	0.104
353.15	0.499	0.3909	0.104
353.15	0.599	0.4123	0.104
353.15	0.699	0.4219	0.104
353.15	0.801	0.4255	0.104
353.15	0.899	0.4317	0.104
353.15	1	0.4571	0.104
