Measured thermophysical data. Infinite dilution activity coefficients, specific retention volumes and solvation thermodynamics of hydrocarbons in C78H158 branched alkane solvent
Source: Fluid Phase Equilib., 2006, 10.1016/j.fluid.2006.07.015
Compound 1: 19,24-dioctadecyldotetracontane, C78H158, InChI=1S/C78H158/c1-5-9-13-17-21-25-29-33-37-41-45-49-53-57-61-65-71-77(72-66-62-58-54-50-46-42-38-34-30-26-22-18-14-10-6-2)75-69-70-76-78(73-67-63-59-55-51-47-43-39-35-31-27-23-19-15-11-7-3)74-68-64-60-56-52-48-44-40-36-32-28-24-20-16-12-8-4/h77-78H,5-76H2,1-4H3
Compound 2: pentane, C5H12, InChI=1S/C5H12/c1-3-5-4-2/h3-5H2,1-2H3, purity 99.5%
Compound 3: hexane, C6H14, InChI=1S/C6H14/c1-3-5-6-4-2/h3-6H2,1-2H3, purity 99.5%
Compound 4: heptane, C7H16, InChI=1S/C7H16/c1-3-5-7-6-4-2/h3-7H2,1-2H3, purity 99.5%
Compound 5: octane, C8H18, InChI=1S/C8H18/c1-3-5-7-8-6-4-2/h3-8H2,1-2H3, purity 99.5%
Compound 6: nonane, C9H20, InChI=1S/C9H20/c1-3-5-7-9-8-6-4-2/h3-9H2,1-2H3, purity 99.5%
Compound 7: decane, C10H22, InChI=1S/C10H22/c1-3-5-7-9-10-8-6-4-2/h3-10H2,1-2H3, purity 99.5%
Compound 8: undecane, C11H24, InChI=1S/C11H24/c1-3-5-7-9-11-10-8-6-4-2/h3-11H2,1-2H3, purity 99.5%
Compound 9: dodecane, C12H26, InChI=1S/C12H26/c1-3-5-7-9-11-12-10-8-6-4-2/h3-12H2,1-2H3, purity 99.5%
Compound 10: tridecane, C13H28, InChI=1S/C13H28/c1-3-5-7-9-11-13-12-10-8-6-4-2/h3-13H2,1-2H3, purity 99.5%
Compound 11: tetradecane, C14H30, InChI=1S/C14H30/c1-3-5-7-9-11-13-14-12-10-8-6-4-2/h3-14H2,1-2H3, purity 99.5%
Compound 12: 2,4-dimethylpentane, C7H16, InChI=1S/C7H16/c1-6(2)5-7(3)4/h6-7H,5H2,1-4H3
Compound 13: 2,4-dimethylhexane, C8H18, InChI=1S/C8H18/c1-5-8(4)6-7(2)3/h7-8H,5-6H2,1-4H3
Compound 14: 2,2,3-trimethylbutane, C7H16, InChI=1S/C7H16/c1-6(2)7(3,4)5/h6H,1-5H3
Compound 15: 3,4-dimethylhexane, C8H18, InChI=1S/C8H18/c1-5-7(3)8(4)6-2/h7-8H,5-6H2,1-4H3
Compound 16: 2,2,4-trimethylpentane, C8H18, InChI=1S/C8H18/c1-7(2)6-8(3,4)5/h7H,6H2,1-5H3
Compound 17: 2,3,4-trimethylpentane, C8H18, InChI=1S/C8H18/c1-6(2)8(5)7(3)4/h6-8H,1-5H3
Compound 18: cyclohexane, C6H12, InChI=1S/C6H12/c1-2-4-6-5-3-1/h1-6H2
Compound 19: cycloheptane, C7H14, InChI=1S/C7H14/c1-2-4-6-7-5-3-1/h1-7H2
Compound 20: cyclooctane, C8H16, InChI=1S/C8H16/c1-2-4-6-8-7-5-3-1/h1-8H2
Compound 21: cyclodecane, C10H20, InChI=1S/C10H20/c1-2-4-6-8-10-9-7-5-3-1/h1-10H2
Compound 22: methylcyclohexane, C7H14, InChI=1S/C7H14/c1-7-5-3-2-4-6-7/h7H,2-6H2,1H3
Compound 23: cis-1,2-dimethylcyclohexane, C8H16, InChI=1S/C8H16/c1-7-5-3-4-6-8(7)2/h7-8H,3-6H2,1-2H3/t7-,8+
Compound 24: trans-1,2-dimethylcyclohexane, C8H16, InChI=1S/C8H16/c1-7-5-3-4-6-8(7)2/h7-8H,3-6H2,1-2H3/t7-,8-/m1/s1
Compound 25: cis-1,4-dimethylcyclohexane, C8H16, InChI=1S/C8H16/c1-7-3-5-8(2)6-4-7/h7-8H,3-6H2,1-2H3/t7-,8+
Compound 26: trans-1,4-dimethylcyclohexane, C8H16, InChI=1S/C8H16/c1-7-3-5-8(2)6-4-7/h7-8H,3-6H2,1-2H3/t7-,8-
Compound 27: 1H-indene, octahydro-, C9H16, InChI=1S/C9H16/c1-2-5-9-7-3-6-8(9)4-1/h8-9H,1-7H2
Compound 28: trans-bicyclo[4.3.0]nonane, C9H16, InChI=1S/C9H16/c1-2-5-9-7-3-6-8(9)4-1/h8-9H,1-7H2/t8-,9-/m1/s1
Compound 29: cis-decahydronaphthalene, C10H18, InChI=1S/C10H18/c1-2-6-10-8-4-3-7-9(10)5-1/h9-10H,1-8H2/t9-,10+
Compound 30: trans-decahydronaphthalene, C10H18, InChI=1S/C10H18/c1-2-6-10-8-4-3-7-9(10)5-1/h9-10H,1-8H2/t9-,10-
Compound 31: adamantane, C10H16, InChI=1S/C10H16/c1-7-2-9-4-8(1)5-10(3-7)6-9/h7-10H,1-6H2
Compound 32: hex-1-ene, C6H12, InChI=1S/C6H12/c1-3-5-6-4-2/h3H,1,4-6H2,2H3
Compound 33: 1-heptene, C7H14, InChI=1S/C7H14/c1-3-5-7-6-4-2/h3H,1,4-7H2,2H3
Compound 34: oct-1-ene, C8H16, InChI=1S/C8H16/c1-3-5-7-8-6-4-2/h3H,1,4-8H2,2H3
Compound 35: 1-nonene, C9H18, InChI=1S/C9H18/c1-3-5-7-9-8-6-4-2/h3H,1,4-9H2,2H3
Compound 36: 1-decene, C10H20, InChI=1S/C10H20/c1-3-5-7-9-10-8-6-4-2/h3H,1,4-10H2,2H3
Compound 37: 1-undecene, C11H22, InChI=1S/C11H22/c1-3-5-7-9-11-10-8-6-4-2/h3H,1,4-11H2,2H3
Compound 38: 1-dodecene, C12H24, InChI=1S/C12H24/c1-3-5-7-9-11-12-10-8-6-4-2/h3H,1,4-12H2,2H3
Compound 39: 1-tridecene, C13H26, InChI=1S/C13H26/c1-3-5-7-9-11-13-12-10-8-6-4-2/h3H,1,4-13H2,2H3
Compound 40: 1-tetradecene, C14H28, InChI=1S/C14H28/c1-3-5-7-9-11-13-14-12-10-8-6-4-2/h3H,1,4-14H2,2H3
Compound 41: cyclohexene, C6H10, InChI=1S/C6H10/c1-2-4-6-5-3-1/h1-2H,3-6H2
Compound 42: 1,3-cyclohexadiene, C6H8, InChI=1S/C6H8/c1-2-4-6-5-3-1/h1-4H,5-6H2
Compound 43: 1,4-cyclohexadiene, C6H8, InChI=1S/C6H8/c1-2-4-6-5-3-1/h1-2,5-6H,3-4H2
Compound 44: 1-hexyne, C6H10, InChI=1S/C6H10/c1-3-5-6-4-2/h1H,4-6H2,2H3
Compound 45: 1-heptyne, C7H12, InChI=1S/C7H12/c1-3-5-7-6-4-2/h1H,4-7H2,2H3
Compound 46: 1-octyne, C8H14, InChI=1S/C8H14/c1-3-5-7-8-6-4-2/h1H,4-8H2,2H3
Compound 47: 1-nonyne, C9H16, InChI=1S/C9H16/c1-3-5-7-9-8-6-4-2/h1H,4-9H2,2H3
Compound 48: 1-decyne, C10H18, InChI=1S/C10H18/c1-3-5-7-9-10-8-6-4-2/h1H,4-10H2,2H3
Compound 49: 2-hexyne, C6H10, InChI=1S/C6H10/c1-3-5-6-4-2/h3,5H2,1-2H3
Compound 50: 3-hexyne, C6H10, InChI=1S/C6H10/c1-3-5-6-4-2/h3-4H2,1-2H3
Compound 51: 4-octyne, C8H14, InChI=1S/C8H14/c1-3-5-7-8-6-4-2/h3-6H2,1-2H3
Compound 52: benzene, C6H6, InChI=1S/C6H6/c1-2-4-6-5-3-1/h1-6H
Compound 53: toluene, C7H8, InChI=1S/C7H8/c1-7-5-3-2-4-6-7/h2-6H,1H3
Compound 54: ethylbenzene, C8H10, InChI=1S/C8H10/c1-2-8-6-4-3-5-7-8/h3-7H,2H2,1H3
Compound 55: propylbenzene, C9H12, InChI=1S/C9H12/c1-2-6-9-7-4-3-5-8-9/h3-5,7-8H,2,6H2,1H3
Compound 56: butylbenzene, C10H14, InChI=1S/C10H14/c1-2-3-7-10-8-5-4-6-9-10/h4-6,8-9H,2-3,7H2,1H3
Compound 57: pentylbenzene, C11H16, InChI=1S/C11H16/c1-2-3-5-8-11-9-6-4-7-10-11/h4,6-7,9-10H,2-3,5,8H2,1H3
Compound 58: hexylbenzene, C12H18, InChI=1S/C12H18/c1-2-3-4-6-9-12-10-7-5-8-11-12/h5,7-8,10-11H,2-4,6,9H2,1H3
Compound 59: naphthalene, C10H8, InChI=1S/C10H8/c1-2-6-10-8-4-3-7-9(10)5-1/h1-8H
Compound 60: bicyclo[5.3.0]deca-2,4,6,8,10-pentaene, C10H8, InChI=1S/C10H8/c1-2-5-9-7-4-8-10(9)6-3-1/h1-8H

System: 19,24-dioctadecyldotetracontane; phases: Crystal, Liquid, Air at 1 atmosphere
Property: Normal melting temperature, K (Crystal); method: VISOBS
Normal melting temperature, K	uncertainty
345	6

System: bicyclo[5.3.0]deca-2,4,6,8,10-pentaene + 19,24-dioctadecyldotetracontane; phases: Liquid
Fixed: Pressure, kPa = 101
Fixed: Mole fraction of bicyclo[5.3.0]deca-2,4,6,8,10-pentaene = 0
Property: Activity coefficient of bicyclo[5.3.0]deca-2,4,6,8,10-pentaene (Liquid); method: Chromatography
Temperature, K	Activity coefficient of bicyclo[5.3.0]deca-2,4,6,8,10-pentaene	uncertainty
373.15	0.568	0.031
388.15	0.528	0.032
403.15	0.498	0.033
418.15	0.472	0.033
433.15	0.475	0.033

System: 1-nonyne + 19,24-dioctadecyldotetracontane; phases: Liquid
Fixed: Pressure, kPa = 101
Fixed: Mole fraction of 1-nonyne = 0
Property: Activity coefficient of 1-nonyne (Liquid); method: Chromatography
Temperature, K	Activity coefficient of 1-nonyne	uncertainty
373.15	0.445	0.033
388.15	0.443	0.033
403.15	0.438	0.033
418.15	0.431	0.034
433.15	0.425	0.034

System: 1-decyne + 19,24-dioctadecyldotetracontane; phases: Liquid
Fixed: Pressure, kPa = 101
Fixed: Mole fraction of 1-decyne = 0
Property: Activity coefficient of 1-decyne (Liquid); method: Chromatography
Temperature, K	Activity coefficient of 1-decyne	uncertainty
373.15	0.442	0.033
388.15	0.446	0.033
403.15	0.446	0.033
418.15	0.446	0.033
433.15	0.446	0.033

System: 2-hexyne + 19,24-dioctadecyldotetracontane; phases: Liquid
Fixed: Pressure, kPa = 101
Fixed: Mole fraction of 2-hexyne = 0
Property: Activity coefficient of 2-hexyne (Liquid); method: Chromatography
Temperature, K	Activity coefficient of 2-hexyne	uncertainty
373.15	0.378	0.034
388.15	0.377	0.034
403.15	0.377	0.034
418.15	0.378	0.034
433.15	0.38	0.034

System: 3-hexyne + 19,24-dioctadecyldotetracontane; phases: Liquid
Fixed: Pressure, kPa = 101
Fixed: Mole fraction of 3-hexyne = 0
Property: Activity coefficient of 3-hexyne (Liquid); method: Chromatography
Temperature, K	Activity coefficient of 3-hexyne	uncertainty
373.15	0.404	0.034
388.15	0.406	0.034
403.15	0.406	0.034
418.15	0.417	0.034
433.15	0.419	0.034

System: 4-octyne + 19,24-dioctadecyldotetracontane; phases: Liquid
Fixed: Pressure, kPa = 101
Fixed: Mole fraction of 4-octyne = 0
Property: Activity coefficient of 4-octyne (Liquid); method: Chromatography
Temperature, K	Activity coefficient of 4-octyne	uncertainty
373.15	0.436	0.033
388.15	0.429	0.034
403.15	0.424	0.034
418.15	0.421	0.034
433.15	0.416	0.034

System: benzene + 19,24-dioctadecyldotetracontane; phases: Liquid
Fixed: Pressure, kPa = 101
Fixed: Mole fraction of benzene = 0
Property: Activity coefficient of benzene (Liquid); method: Chromatography
Temperature, K	Activity coefficient of benzene	uncertainty
373.15	0.269	0.036
388.15	0.266	0.036
403.15	0.263	0.036
418.15	0.26	0.036
433.15	0.258	0.036

System: toluene + 19,24-dioctadecyldotetracontane; phases: Liquid
Fixed: Pressure, kPa = 101
Fixed: Mole fraction of toluene = 0
Property: Activity coefficient of toluene (Liquid); method: Chromatography
Temperature, K	Activity coefficient of toluene	uncertainty
373.15	0.284	0.036
388.15	0.284	0.036
403.15	0.282	0.036
418.15	0.278	0.036
433.15	0.275	0.036

System: ethylbenzene + 19,24-dioctadecyldotetracontane; phases: Liquid
Fixed: Pressure, kPa = 101
Fixed: Mole fraction of ethylbenzene = 0
Property: Activity coefficient of ethylbenzene (Liquid); method: Chromatography
Temperature, K	Activity coefficient of ethylbenzene	uncertainty
373.15	0.314	0.035
388.15	0.315	0.035
403.15	0.313	0.035
418.15	0.304	0.035
433.15	0.304	0.035

System: propylbenzene + 19,24-dioctadecyldotetracontane; phases: Liquid
Fixed: Pressure, kPa = 101
Fixed: Mole fraction of propylbenzene = 0
Property: Activity coefficient of propylbenzene (Liquid); method: Chromatography
Temperature, K	Activity coefficient of propylbenzene	uncertainty
373.15	0.336	0.035
388.15	0.339	0.035
403.15	0.336	0.035
418.15	0.331	0.035
433.15	0.33	0.035

System: butylbenzene + 19,24-dioctadecyldotetracontane; phases: Liquid
Fixed: Pressure, kPa = 101
Fixed: Mole fraction of butylbenzene = 0
Property: Activity coefficient of butylbenzene (Liquid); method: Chromatography
Temperature, K	Activity coefficient of butylbenzene	uncertainty
373.15	0.357	0.035
388.15	0.362	0.035
403.15	0.359	0.035
418.15	0.358	0.035
433.15	0.354	0.035

System: 1-octyne + 19,24-dioctadecyldotetracontane; phases: Liquid
Fixed: Pressure, kPa = 101
Fixed: Mole fraction of 1-octyne = 0
Property: Activity coefficient of 1-octyne (Liquid); method: Chromatography
Temperature, K	Activity coefficient of 1-octyne	uncertainty
373.15	0.428	0.034
388.15	0.424	0.034
403.15	0.417	0.034
418.15	0.412	0.034
433.15	0.411	0.034

System: pentylbenzene + 19,24-dioctadecyldotetracontane; phases: Liquid
Fixed: Pressure, kPa = 101
Fixed: Mole fraction of pentylbenzene = 0
Property: Activity coefficient of pentylbenzene (Liquid); method: Chromatography
Temperature, K	Activity coefficient of pentylbenzene	uncertainty
373.15	0.378	0.034
388.15	0.385	0.034
403.15	0.381	0.034
418.15	0.38	0.034
433.15	0.376	0.034

System: hexylbenzene + 19,24-dioctadecyldotetracontane; phases: Liquid
Fixed: Pressure, kPa = 101
Fixed: Mole fraction of hexylbenzene = 0
Property: Activity coefficient of hexylbenzene (Liquid); method: Chromatography
Temperature, K	Activity coefficient of hexylbenzene	uncertainty
373.15	0.397	0.034
388.15	0.405	0.034
403.15	0.401	0.034
418.15	0.404	0.034
433.15	0.401	0.034

System: naphthalene + 19,24-dioctadecyldotetracontane; phases: Liquid
Fixed: Pressure, kPa = 101
Fixed: Mole fraction of naphthalene = 0
Property: Activity coefficient of naphthalene (Liquid); method: Chromatography
Temperature, K	Activity coefficient of naphthalene	uncertainty
373.15	0.384	0.034
388.15	0.397	0.034
403.15	0.4	0.034
418.15	0.392	0.034
433.15	0.386	0.034

System: pentane + 19,24-dioctadecyldotetracontane; phases: Liquid
Fixed: Pressure, kPa = 101
Fixed: Mole fraction of pentane = 0
Property: Activity coefficient of pentane (Liquid); method: Chromatography
Temperature, K	Activity coefficient of pentane	uncertainty
373.15	0.336	0.035
388.15	0.338	0.035
403.15	0.341	0.035
418.15	0.345	0.035
433.15	0.349	0.035

System: hexane + 19,24-dioctadecyldotetracontane; phases: Liquid
Fixed: Pressure, kPa = 101
Fixed: Mole fraction of hexane = 0
Property: Activity coefficient of hexane (Liquid); method: Chromatography
Temperature, K	Activity coefficient of hexane	uncertainty
373.15	0.344	0.035
388.15	0.346	0.035
403.15	0.348	0.035
418.15	0.351	0.035
433.15	0.355	0.035

System: heptane + 19,24-dioctadecyldotetracontane; phases: Liquid
Fixed: Pressure, kPa = 101
Fixed: Mole fraction of heptane = 0
Property: Activity coefficient of heptane (Liquid); method: Chromatography
Temperature, K	Activity coefficient of heptane	uncertainty
373.15	0.361	0.035
388.15	0.363	0.035
403.15	0.365	0.035
418.15	0.367	0.034
433.15	0.37	0.03

System: octane + 19,24-dioctadecyldotetracontane; phases: Liquid
Fixed: Pressure, kPa = 101
Fixed: Mole fraction of octane = 0
Property: Activity coefficient of octane (Liquid); method: Chromatography
Temperature, K	Activity coefficient of octane	uncertainty
373.15	0.38	0.034
388.15	0.381	0.034
403.15	0.382	0.034
418.15	0.384	0.034
433.15	0.386	0.034

System: nonane + 19,24-dioctadecyldotetracontane; phases: Liquid
Fixed: Pressure, kPa = 101
Fixed: Mole fraction of nonane = 0
Property: Activity coefficient of nonane (Liquid); method: Chromatography
Temperature, K	Activity coefficient of nonane	uncertainty
373.15	0.399	0.034
388.15	0.401	0.034
403.15	0.403	0.034
418.15	0.404	0.034
433.15	0.406	0.034

System: decane + 19,24-dioctadecyldotetracontane; phases: Liquid
Fixed: Pressure, kPa = 101
Fixed: Mole fraction of decane = 0
Property: Activity coefficient of decane (Liquid); method: Chromatography
Temperature, K	Activity coefficient of decane	uncertainty
373.15	0.418	0.034
388.15	0.42	0.034
403.15	0.421	0.034
418.15	0.423	0.034
433.15	0.425	0.034

System: undecane + 19,24-dioctadecyldotetracontane; phases: Liquid
Fixed: Pressure, kPa = 101
Fixed: Mole fraction of undecane = 0
Property: Activity coefficient of undecane (Liquid); method: Chromatography
Temperature, K	Activity coefficient of undecane	uncertainty
373.15	0.436	0.033
388.15	0.438	0.033
403.15	0.44	0.033
418.15	0.442	0.033
433.15	0.444	0.033

System: dodecane + 19,24-dioctadecyldotetracontane; phases: Liquid
Fixed: Pressure, kPa = 101
Fixed: Mole fraction of dodecane = 0
Property: Activity coefficient of dodecane (Liquid); method: Chromatography
Temperature, K	Activity coefficient of dodecane	uncertainty
373.15	0.456	0.033
388.15	0.457	0.033
403.15	0.459	0.033
418.15	0.46	0.033
433.15	0.462	0.033

System: tridecane + 19,24-dioctadecyldotetracontane; phases: Liquid
Fixed: Pressure, kPa = 101
Fixed: Mole fraction of tridecane = 0
Property: Activity coefficient of tridecane (Liquid); method: Chromatography
Temperature, K	Activity coefficient of tridecane	uncertainty
373.15	0.479	0.033
388.15	0.479	0.033
403.15	0.479	0.033
418.15	0.48	0.033
433.15	0.481	0.033

System: tetradecane + 19,24-dioctadecyldotetracontane; phases: Liquid
Fixed: Pressure, kPa = 101
Fixed: Mole fraction of tetradecane = 0
Property: Activity coefficient of tetradecane (Liquid); method: Chromatography
Temperature, K	Activity coefficient of tetradecane	uncertainty
373.15	0.492	0.033
388.15	0.493	0.033
403.15	0.494	0.033
418.15	0.495	0.033
433.15	0.495	0.033

System: 2,4-dimethylpentane + 19,24-dioctadecyldotetracontane; phases: Liquid
Fixed: Pressure, kPa = 101
Fixed: Mole fraction of 2,4-dimethylpentane = 0
Property: Activity coefficient of 2,4-dimethylpentane (Liquid); method: Chromatography
Temperature, K	Activity coefficient of 2,4-dimethylpentane	uncertainty
373.15	0.391	0.034
388.15	0.392	0.034
403.15	0.394	0.034
418.15	0.396	0.034
433.15	0.4	0.034

System: 2,4-dimethylhexane + 19,24-dioctadecyldotetracontane; phases: Liquid
Fixed: Pressure, kPa = 101
Fixed: Mole fraction of 2,4-dimethylhexane = 0
Property: Activity coefficient of 2,4-dimethylhexane (Liquid); method: Chromatography
Temperature, K	Activity coefficient of 2,4-dimethylhexane	uncertainty
373.15	0.394	0.034
388.15	0.396	0.034
403.15	0.396	0.034
418.15	0.398	0.034
433.15	0.405	0.034

System: 2,2,3-trimethylbutane + 19,24-dioctadecyldotetracontane; phases: Liquid
Fixed: Pressure, kPa = 101
Fixed: Mole fraction of 2,2,3-trimethylbutane = 0
Property: Activity coefficient of 2,2,3-trimethylbutane (Liquid); method: Chromatography
Temperature, K	Activity coefficient of 2,2,3-trimethylbutane	uncertainty
373.15	0.34	0.035
388.15	0.345	0.035
403.15	0.348	0.035
418.15	0.349	0.035
433.15	0.355	0.035

System: 3,4-dimethylhexane + 19,24-dioctadecyldotetracontane; phases: Liquid
Fixed: Pressure, kPa = 101
Fixed: Mole fraction of 3,4-dimethylhexane = 0
Property: Activity coefficient of 3,4-dimethylhexane (Liquid); method: Chromatography
Temperature, K	Activity coefficient of 3,4-dimethylhexane	uncertainty
373.15	0.353	0.035
388.15	0.357	0.035
403.15	0.36	0.035
418.15	0.362	0.035
433.15	0.366	0.035

System: 2,2,4-trimethylpentane + 19,24-dioctadecyldotetracontane; phases: Liquid
Fixed: Pressure, kPa = 101
Fixed: Mole fraction of 2,2,4-trimethylpentane = 0
Property: Activity coefficient of 2,2,4-trimethylpentane (Liquid); method: Chromatography
Temperature, K	Activity coefficient of 2,2,4-trimethylpentane	uncertainty
373.15	0.397	0.034
388.15	0.401	0.034
403.15	0.401	0.034
418.15	0.405	0.034
433.15	0.406	0.034

System: 2,3,4-trimethylpentane + 19,24-dioctadecyldotetracontane; phases: Liquid
Fixed: Pressure, kPa = 101
Fixed: Mole fraction of 2,3,4-trimethylpentane = 0
Property: Activity coefficient of 2,3,4-trimethylpentane (Liquid); method: Chromatography
Temperature, K	Activity coefficient of 2,3,4-trimethylpentane	uncertainty
373.15	0.353	0.035
388.15	0.356	0.035
403.15	0.358	0.035
418.15	0.36	0.035
433.15	0.362	0.035

System: cyclohexane + 19,24-dioctadecyldotetracontane; phases: Liquid
Fixed: Pressure, kPa = 101
Fixed: Mole fraction of cyclohexane = 0
Property: Activity coefficient of cyclohexane (Liquid); method: Chromatography
Temperature, K	Activity coefficient of cyclohexane	uncertainty
373.15	0.25	0.036
388.15	0.251	0.036
403.15	0.246	0.036
418.15	0.245	0.036
433.15	0.247	0.036

System: cycloheptane + 19,24-dioctadecyldotetracontane; phases: Liquid
Fixed: Pressure, kPa = 101
Fixed: Mole fraction of cycloheptane = 0
Property: Activity coefficient of cycloheptane (Liquid); method: Chromatography
Temperature, K	Activity coefficient of cycloheptane	uncertainty
373.15	0.252	0.036
388.15	0.257	0.036
403.15	0.256	0.036
418.15	0.253	0.036
433.15	0.255	0.036

System: cyclooctane + 19,24-dioctadecyldotetracontane; phases: Liquid
Fixed: Pressure, kPa = 101
Fixed: Mole fraction of cyclooctane = 0
Property: Activity coefficient of cyclooctane (Liquid); method: Chromatography
Temperature, K	Activity coefficient of cyclooctane	uncertainty
373.15	0.258	0.036
388.15	0.264	0.036
403.15	0.265	0.036
418.15	0.262	0.036
433.15	0.264	0.036

System: cyclodecane + 19,24-dioctadecyldotetracontane; phases: Liquid
Fixed: Pressure, kPa = 101
Fixed: Mole fraction of cyclodecane = 0
Property: Activity coefficient of cyclodecane (Liquid); method: Chromatography
Temperature, K	Activity coefficient of cyclodecane	uncertainty
373.15	0.269	0.036
388.15	0.281	0.036
403.15	0.283	0.036
418.15	0.287	0.036
433.15	0.288	0.036

System: methylcyclohexane + 19,24-dioctadecyldotetracontane; phases: Liquid
Fixed: Pressure, kPa = 101
Fixed: Mole fraction of methylcyclohexane = 0
Property: Activity coefficient of methylcyclohexane (Liquid); method: Chromatography
Temperature, K	Activity coefficient of methylcyclohexane	uncertainty
373.15	0.267	0.036
388.15	0.273	0.036
403.15	0.273	0.036
418.15	0.272	0.036
433.15	0.275	0.036

System: cis-1,2-dimethylcyclohexane + 19,24-dioctadecyldotetracontane; phases: Liquid
Fixed: Pressure, kPa = 101
Fixed: Mole fraction of cis-1,2-dimethylcyclohexane = 0
Property: Activity coefficient of cis-1,2-dimethylcyclohexane (Liquid); method: Chromatography
Temperature, K	Activity coefficient of cis-1,2-dimethylcyclohexane	uncertainty
373.15	0.271	0.036
388.15	0.277	0.036
403.15	0.279	0.036
418.15	0.28	0.036
433.15	0.285	0.036

System: trans-1,2-dimethylcyclohexane + 19,24-dioctadecyldotetracontane; phases: Liquid
Fixed: Pressure, kPa = 101
Fixed: Mole fraction of trans-1,2-dimethylcyclohexane = 0
Property: Activity coefficient of trans-1,2-dimethylcyclohexane (Liquid); method: Chromatography
Temperature, K	Activity coefficient of trans-1,2-dimethylcyclohexane	uncertainty
373.15	0.28	0.036
388.15	0.287	0.036
403.15	0.29	0.036
418.15	0.288	0.036
433.15	0.295	0.036

System: cis-1,4-dimethylcyclohexane + 19,24-dioctadecyldotetracontane; phases: Liquid
Fixed: Pressure, kPa = 101
Fixed: Mole fraction of cis-1,4-dimethylcyclohexane = 0
Property: Activity coefficient of cis-1,4-dimethylcyclohexane (Liquid); method: Chromatography
Temperature, K	Activity coefficient of cis-1,4-dimethylcyclohexane	uncertainty
373.15	0.287	0.036
388.15	0.294	0.036
403.15	0.296	0.036
418.15	0.296	0.036
433.15	0.3	0.036

System: trans-1,4-dimethylcyclohexane + 19,24-dioctadecyldotetracontane; phases: Liquid
Fixed: Pressure, kPa = 101
Fixed: Mole fraction of trans-1,4-dimethylcyclohexane = 0
Property: Activity coefficient of trans-1,4-dimethylcyclohexane (Liquid); method: Chromatography
Temperature, K	Activity coefficient of trans-1,4-dimethylcyclohexane	uncertainty
373.15	0.288	0.036
388.15	0.295	0.036
403.15	0.297	0.036
418.15	0.298	0.036
433.15	0.299	0.036

System: 1H-indene, octahydro- + 19,24-dioctadecyldotetracontane; phases: Liquid
Fixed: Pressure, kPa = 101
Fixed: Mole fraction of 1H-indene, octahydro- = 0
Property: Activity coefficient of 1H-indene, octahydro- (Liquid); method: Chromatography
Temperature, K	Activity coefficient of 1H-indene, octahydro-	uncertainty
373.15	0.26	0.036
388.15	0.268	0.036
403.15	0.269	0.036
418.15	0.266	0.036
433.15	0.27	0.036

System: trans-bicyclo[4.3.0]nonane + 19,24-dioctadecyldotetracontane; phases: Liquid
Fixed: Pressure, kPa = 101
Fixed: Mole fraction of trans-bicyclo[4.3.0]nonane = 0
Property: Activity coefficient of trans-bicyclo[4.3.0]nonane (Liquid); method: Chromatography
Temperature, K	Activity coefficient of trans-bicyclo[4.3.0]nonane	uncertainty
373.15	0.267	0.036
388.15	0.278	0.036
403.15	0.276	0.036
418.15	0.273	0.036
433.15	0.277	0.036

System: cis-decahydronaphthalene + 19,24-dioctadecyldotetracontane; phases: Liquid
Fixed: Pressure, kPa = 101
Fixed: Mole fraction of cis-decahydronaphthalene = 0
Property: Activity coefficient of cis-decahydronaphthalene (Liquid); method: Chromatography
Temperature, K	Activity coefficient of cis-decahydronaphthalene	uncertainty
373.15	0.268	0.036
388.15	0.278	0.036
403.15	0.28	0.036
418.15	0.275	0.036
433.15	0.279	0.036

System: trans-decahydronaphthalene + 19,24-dioctadecyldotetracontane; phases: Liquid
Fixed: Pressure, kPa = 101
Fixed: Mole fraction of trans-decahydronaphthalene = 0
Property: Activity coefficient of trans-decahydronaphthalene (Liquid); method: Chromatography
Temperature, K	Activity coefficient of trans-decahydronaphthalene	uncertainty
373.15	0.268	0.036
388.15	0.279	0.036
403.15	0.283	0.036
418.15	0.28	0.036
433.15	0.287	0.036

System: adamantane + 19,24-dioctadecyldotetracontane; phases: Liquid
Fixed: Pressure, kPa = 101
Fixed: Mole fraction of adamantane = 0
Property: Activity coefficient of adamantane (Liquid); method: Chromatography
Temperature, K	Activity coefficient of adamantane	uncertainty
373.15	0.337	0.035
388.15	0.339	0.035
403.15	0.337	0.035
418.15	0.342	0.035
433.15	0.343	0.035

System: hex-1-ene + 19,24-dioctadecyldotetracontane; phases: Liquid
Fixed: Pressure, kPa = 101
Fixed: Mole fraction of hex-1-ene = 0
Property: Activity coefficient of hex-1-ene (Liquid); method: Chromatography
Temperature, K	Activity coefficient of hex-1-ene	uncertainty
373.15	0.354	0.035
388.15	0.355	0.035
403.15	0.356	0.035
418.15	0.357	0.035
433.15	0.359	0.035

System: 1-heptene + 19,24-dioctadecyldotetracontane; phases: Liquid
Fixed: Pressure, kPa = 101
Fixed: Mole fraction of 1-heptene = 0
Property: Activity coefficient of 1-heptene (Liquid); method: Chromatography
Temperature, K	Activity coefficient of 1-heptene	uncertainty
373.15	0.354	0.035
388.15	0.355	0.035
403.15	0.356	0.035
418.15	0.357	0.035
433.15	0.359	0.035

System: oct-1-ene + 19,24-dioctadecyldotetracontane; phases: Liquid
Fixed: Pressure, kPa = 101
Fixed: Mole fraction of oct-1-ene = 0
Property: Activity coefficient of oct-1-ene (Liquid); method: Chromatography
Temperature, K	Activity coefficient of oct-1-ene	uncertainty
373.15	0.374	0.034
388.15	0.374	0.034
403.15	0.374	0.034
418.15	0.375	0.034
433.15	0.377	0.034

System: 1-nonene + 19,24-dioctadecyldotetracontane; phases: Liquid
Fixed: Pressure, kPa = 101
Fixed: Mole fraction of 1-nonene = 0
Property: Activity coefficient of 1-nonene (Liquid); method: Chromatography
Temperature, K	Activity coefficient of 1-nonene	uncertainty
373.15	0.392	0.034
388.15	0.394	0.034
403.15	0.395	0.034
418.15	0.396	0.034
433.15	0.398	0.034

System: 1-decene + 19,24-dioctadecyldotetracontane; phases: Liquid
Fixed: Pressure, kPa = 101
Fixed: Mole fraction of 1-decene = 0
Property: Activity coefficient of 1-decene (Liquid); method: Chromatography
Temperature, K	Activity coefficient of 1-decene	uncertainty
373.15	0.411	0.034
388.15	0.413	0.034
403.15	0.413	0.034
418.15	0.416	0.034
433.15	0.418	0.034

System: 1-undecene + 19,24-dioctadecyldotetracontane; phases: Liquid
Fixed: Pressure, kPa = 101
Fixed: Mole fraction of 1-undecene = 0
Property: Activity coefficient of 1-undecene (Liquid); method: Chromatography
Temperature, K	Activity coefficient of 1-undecene	uncertainty
373.15	0.435	0.033
388.15	0.436	0.033
403.15	0.435	0.033
418.15	0.436	0.033
433.15	0.436	0.033

System: 1-dodecene + 19,24-dioctadecyldotetracontane; phases: Liquid
Fixed: Pressure, kPa = 101
Fixed: Mole fraction of 1-dodecene = 0
Property: Activity coefficient of 1-dodecene (Liquid); method: Chromatography
Temperature, K	Activity coefficient of 1-dodecene	uncertainty
373.15	0.447	0.033
388.15	0.449	0.033
403.15	0.453	0.033
418.15	0.453	0.033
433.15	0.455	0.033

System: 1-tridecene + 19,24-dioctadecyldotetracontane; phases: Liquid
Fixed: Pressure, kPa = 101
Fixed: Mole fraction of 1-tridecene = 0
Property: Activity coefficient of 1-tridecene (Liquid); method: Chromatography
Temperature, K	Activity coefficient of 1-tridecene	uncertainty
373.15	0.467	0.033
388.15	0.466	0.033
403.15	0.466	0.033
418.15	0.467	0.033
433.15	0.468	0.033

System: 1-tetradecene + 19,24-dioctadecyldotetracontane; phases: Liquid
Fixed: Pressure, kPa = 101
Fixed: Mole fraction of 1-tetradecene = 0
Property: Activity coefficient of 1-tetradecene (Liquid); method: Chromatography
Temperature, K	Activity coefficient of 1-tetradecene	uncertainty
373.15	0.475	0.033
388.15	0.476	0.033
403.15	0.475	0.033
418.15	0.476	0.033
433.15	0.475	0.033

System: cyclohexene + 19,24-dioctadecyldotetracontane; phases: Liquid
Fixed: Pressure, kPa = 101
Fixed: Mole fraction of cyclohexene = 0
Property: Activity coefficient of cyclohexene (Liquid); method: Chromatography
Temperature, K	Activity coefficient of cyclohexene	uncertainty
373.15	0.239	0.036
388.15	0.244	0.036
403.15	0.243	0.036
418.15	0.241	0.036
433.15	0.243	0.036

System: 1,3-cyclohexadiene + 19,24-dioctadecyldotetracontane; phases: Liquid
Fixed: Pressure, kPa = 101
Fixed: Mole fraction of 1,3-cyclohexadiene = 0
Property: Activity coefficient of 1,3-cyclohexadiene (Liquid); method: Chromatography
Temperature, K	Activity coefficient of 1,3-cyclohexadiene	uncertainty
373.15	0.251	0.036
388.15	0.253	0.036
403.15	0.255	0.036
418.15	0.252	0.036
433.15	0.252	0.036

System: 1,4-cyclohexadiene + 19,24-dioctadecyldotetracontane; phases: Liquid
Fixed: Pressure, kPa = 101
Fixed: Mole fraction of 1,4-cyclohexadiene = 0
Property: Activity coefficient of 1,4-cyclohexadiene (Liquid); method: Chromatography
Temperature, K	Activity coefficient of 1,4-cyclohexadiene	uncertainty
373.15	0.242	0.036
388.15	0.244	0.036
403.15	0.242	0.036
418.15	0.238	0.036
433.15	0.238	0.036

System: 1-hexyne + 19,24-dioctadecyldotetracontane; phases: Liquid
Fixed: Pressure, kPa = 101
Fixed: Mole fraction of 1-hexyne = 0
Property: Activity coefficient of 1-hexyne (Liquid); method: Chromatography
Temperature, K	Activity coefficient of 1-hexyne	uncertainty
373.15	0.39	0.034
388.15	0.378	0.034
403.15	0.37	0.034
418.15	0.364	0.035
433.15	0.36	0.035

System: 1-heptyne + 19,24-dioctadecyldotetracontane; phases: Liquid
Fixed: Pressure, kPa = 101
Fixed: Mole fraction of 1-heptyne = 0
Property: Activity coefficient of 1-heptyne (Liquid); method: Chromatography
Temperature, K	Activity coefficient of 1-heptyne	uncertainty
373.15	0.411	0.034
388.15	0.407	0.034
403.15	0.401	0.034
418.15	0.399	0.034
433.15	0.398	0.034
