Measured thermophysical data. Vapor liquid equilibria of the carbon dioxide (CO2) + 2,2-dichloro-1,1,1-trifluoroethane (R123) system and carbon dioxide (CO2) + 1-chloro-1,2,2,2-tetrafluoroethane (R124) system
Source: Fluid Phase Equilib., 2007, 10.1016/j.fluid.2006.10.021
Compound 1: carbon dioxide, CO2, InChI=1S/CO2/c2-1-3
Compound 2: 1,1-dichloro-2,2,2-trifluoroethane, C2HCl2F3, InChI=1S/C2HCl2F3/c3-1(4)2(5,6)7/h1H
Compound 3: 2-chloro-1,1,1,2-tetrafluoroethane, C2HClF4, InChI=1S/C2HClF4/c3-1(4)2(5,6)7/h1H

System: 2-chloro-1,1,1,2-tetrafluoroethane; phases: Liquid, Gas
Property: Vapor or sublimation pressure, kPa (Liquid); method: EBULLIO:UFactor:8
Temperature, K	Vapor or sublimation pressure, kPa	uncertainty
313.15	594	19
323.15	776	24
333.15	1045	33

System: carbon dioxide + 1,1-dichloro-2,2,2-trifluoroethane; phases: Liquid, Gas
Property: Vapor or sublimation pressure, kPa (Liquid); method: EBULLIO:UFactor:6
Mole fraction of carbon dioxide	Temperature, K	Vapor or sublimation pressure, kPa	uncertainty
0.1219	333.15	1083	26
0.1408	313.15	873	21
0.2637	313.15	1535	36
0.3073	323.15	2094	49
0.315	333.15	2501	59
0.4668	333.15	3804	89
0.4792	323.15	3415	80
0.5286	313.15	3291	77
0.6468	333.15	5686	133
0.6513	323.15	4985	116
0.6759	313.15	4503	105
0.7551	323.15	6136	143
0.7966	313.15	5661	132
0.8164	333.15	7904	184
0.8344	323.15	7127	166
0.8746	313.15	6556	153
0.9015	323.15	8074	188
0.9209	313.15	7189	168

System: carbon dioxide + 1,1-dichloro-2,2,2-trifluoroethane; phases: Gas, Liquid
Property: Mole fraction of carbon dioxide (Gas); method: Chromatography
Mole fraction of carbon dioxide	Temperature, K	Mole fraction of carbon dioxide	uncertainty
0.1219	333.15	0.7352	0.0064
0.1408	313.15	0.8258	0.0062
0.2637	313.15	0.8627	0.0061
0.3073	323.15	0.8975	0.0061
0.315	333.15	0.8746	0.0061
0.4668	333.15	0.911	0.0061
0.4792	323.15	0.933	0.006
0.5286	313.15	0.9499	0.006
0.6468	333.15	0.933	0.006
0.6513	323.15	0.9476	0.006
0.6759	313.15	0.9617	0.006
0.7551	323.15	0.9579	0.006
0.7966	313.15	0.9692	0.006
0.8164	333.15	0.9426	0.006
0.8344	323.15	0.9612	0.006
0.8746	313.15	0.9763	0.006
0.9015	323.15	0.9611	0.006
0.9209	313.15	0.9788	0.006

System: carbon dioxide + 2-chloro-1,1,1,2-tetrafluoroethane; phases: Liquid, Gas
Property: Vapor or sublimation pressure, kPa (Liquid); method: EBULLIO:UFactor:8
Mole fraction of carbon dioxide	Temperature, K	Vapor or sublimation pressure, kPa	uncertainty
0	313.15	594	19
0	323.15	776	24
0	333.15	1045	33
0.1481	323.15	1711	53
0.1487	313.15	1438	45
0.1788	333.15	2316	72
0.3307	333.15	3428	107
0.3436	323.15	2957	92
0.4098	313.15	2929	91
0.4454	333.15	4384	136
0.551	313.15	3898	121
0.5902	323.15	4918	153
0.6006	333.15	5842	182
0.6684	333.15	6543	203
0.6743	313.15	4872	152
0.7457	323.15	6440	200
0.7638	313.15	5697	177
0.7829	333.15	7682	238
0.8482	323.15	7581	235
0.8642	313.15	6727	209
0.8679	323.15	7745	240
0.9096	313.15	7256	225

System: carbon dioxide + 2-chloro-1,1,1,2-tetrafluoroethane; phases: Gas, Liquid
Property: Mole fraction of carbon dioxide (Gas); method: Chromatography
Mole fraction of carbon dioxide	Temperature, K	Mole fraction of carbon dioxide	uncertainty
0	313.15	0	0.0001
0	323.15	0	0.0001
0	333.15	0	0.0001
0.1481	323.15	0.5281	0.0072
0.1487	313.15	0.5699	0.0072
0.1788	333.15	0.526	0.0074
0.3307	333.15	0.6753	0.0066
0.3436	323.15	0.731	0.0064
0.4098	313.15	0.8018	0.0062
0.4454	333.15	0.746	0.0064
0.551	313.15	0.8581	0.0061
0.5902	323.15	0.8435	0.0062
0.6006	333.15	0.8071	0.0062
0.6684	333.15	0.8235	0.0062
0.6743	313.15	0.8958	0.0061
0.7457	323.15	0.8842	0.0061
0.7638	313.15	0.917	0.006
0.7829	333.15	0.8231	0.0062
0.8482	323.15	0.8945	0.0061
0.8642	313.15	0.9396	0.006
0.8679	323.15	0.8878	0.0061
0.9096	313.15	0.9484	0.006
