Measured thermophysical data. Aqueous solubility, vapor pressure and octanol-water partition coefficient of two phthalate isomers dibutyl phthalate and di-isobutyl phthalate contaminants of recycled food packages
Source: Fluid Phase Equilib., 2016, 10.1016/j.fluid.2016.07.018
Compound 1: dibutyl phthalate, C16H22O4, InChI=1S/C16H22O4/c1-3-5-11-19-15(17)13-9-7-8-10-14(13)16(18)20-12-6-4-2/h7-10H,3-6,11-12H2,1-2H3, purity 99%
Compound 2: diisobutyl 1,2-benzenedioate, C16H22O4, InChI=1S/C16H22O4/c1-11(2)9-19-15(17)13-7-5-6-8-14(13)16(18)20-10-12(3)4/h5-8,11-12H,9-10H2,1-4H3, purity 99%
Compound 3: water, H2O, InChI=1S/H2O/h1H2, purity 99.8%
Compound 4: octan-1-ol, C8H18O, InChI=1S/C8H18O/c1-2-3-4-5-6-7-8-9/h9H,2-8H2,1H3

System: dibutyl phthalate; phases: Liquid, Gas
Property: Vapor or sublimation pressure, kPa (Liquid); method: gas saturation method
Temperature, K	Vapor or sublimation pressure, kPa	uncertainty
313.15	2.4e-05	2e-06
333.15	0.000195	1.5e-05
353.15	0.001289	0.0001
373.15	0.006211	0.000571
393.15	0.02452	0.001903
423.15	0.151049	0.011702

System: dibutyl phthalate; phases: Liquid, Gas
Property: Vapor or sublimation pressure, kPa (Liquid); method: Closed cell (Static) method
Temperature, K	Vapor or sublimation pressure, kPa	uncertainty
381.51	0.0127	0.0007
391.7	0.0248	0.0009
401.69	0.0461	0.0013
411.58	0.0824	0.0021
421.43	0.1441	0.0028

System: diisobutyl 1,2-benzenedioate; phases: Liquid, Gas
Property: Vapor or sublimation pressure, kPa (Liquid); method: gas saturation method
Temperature, K	Vapor or sublimation pressure, kPa	uncertainty
313.15	4.1e-05	3e-06
333.15	0.000436	4.3e-05
353.15	0.002796	0.000248
373.15	0.012853	0.000997
393.15	0.044502	0.003451
423.15	0.215627	0.016705

System: dibutyl phthalate + water; phases: Liquid, Liquid
Fixed: Pressure, kPa = 101
Property: Mole fraction of dibutyl phthalate (Liquid); method: Chromatography
Temperature, K	Mole fraction of dibutyl phthalate	uncertainty
298.15	6.35e-07	6.06e-08
308.15	6.507e-07	5.11e-08
318.15	7.074e-07	4.17e-08
328.15	8.234e-07	1.115e-07

System: diisobutyl 1,2-benzenedioate + water; phases: Liquid, Liquid
Fixed: Pressure, kPa = 101
Property: Mole fraction of diisobutyl 1,2-benzenedioate (Liquid); method: Chromatography
Temperature, K	Mole fraction of diisobutyl 1,2-benzenedioate	uncertainty
298.15	7.08e-07	1.531e-07
303.15	7.051e-07	1.237e-07
308.15	8.072e-07	1.937e-07
313.15	8.59e-07	1.206e-07
323.15	1.1254e-06	3.39e-08

System: dibutyl phthalate + octan-1-ol + water; phases: Liquid mixture 1, Liquid mixture 2
Property: Amount concentration (molarity), mol/dm3 of dibutyl phthalate (Liquid mixture 1); method: Shake flask with HPLC/UV
Temperature, K	Pressure, kPa	Amount concentration (molarity), mol/dm3 of dibutyl phthalate	Amount concentration (molarity), mol/dm3 of dibutyl phthalate	uncertainty
298.15	101	0	4.34	0.03

System: diisobutyl 1,2-benzenedioate + octan-1-ol + water; phases: Liquid mixture 1, Liquid mixture 2
Property: Amount concentration (molarity), mol/dm3 of diisobutyl 1,2-benzenedioate (Liquid mixture 1); method: Shake flask with HPLC/UV
Temperature, K	Pressure, kPa	Amount concentration (molarity), mol/dm3 of diisobutyl 1,2-benzenedioate	Amount concentration (molarity), mol/dm3 of diisobutyl 1,2-benzenedioate	uncertainty
298.15	101	0	4.53	0.47
