Measured thermophysical data. Isothermal vapour liquid equilibria of binary systems of 1,2-dichloroethane with ethers
Source: Fluid Phase Equilib., 2008, 10.1016/j.fluid.2008.03.015
Compound 1: 1,2-dichloroethane, C2H4Cl2, InChI=1S/C2H4Cl2/c3-1-2-4/h1-2H2
Compound 2: diethyl ether, C4H10O, InChI=1S/C4H10O/c1-3-5-4-2/h3-4H2,1-2H3
Compound 3: diisopropyl ether, C6H14O, InChI=1S/C6H14O/c1-5(2)7-6(3)4/h5-6H,1-4H3
Compound 4: 2-methoxy-2-methylpropane, C5H12O, InChI=1S/C5H12O/c1-5(2,3)6-4/h1-4H3

System: 1,2-dichloroethane; phases: Liquid, Gas
Property: Vapor or sublimation pressure, kPa (Liquid); method: Closed cell (Static) method
Temperature, K	Vapor or sublimation pressure, kPa	uncertainty
284.86	5.38	0.06
284.87	5.37	0.06
294.83	8.96	0.09
294.84	8.95	0.09
304.82	14.33	0.15
304.82	14.32	0.15
314.81	22.18	0.23
314.83	22.18	0.23
324.82	33.28	0.34
324.83	33.27	0.34
334.79	48.45	0.49
334.82	48.46	0.49
344.81	67.97	0.69
344.81	67.97	0.69
344.82	67.98	0.69
344.82	67.98	0.69
354.89	94.95	0.97
354.89	94.94	0.97
354.89	94.94	0.97
354.89	94.95	0.97

System: diethyl ether; phases: Liquid, Gas
Property: Vapor or sublimation pressure, kPa (Liquid); method: Closed cell (Static) method
Temperature, K	Vapor or sublimation pressure, kPa	uncertainty
255.47	10.11	0.1
255.48	10.13	0.1
255.5	10.14	0.1
265.44	17.06	0.17
265.44	17.06	0.17
265.45	17.07	0.17
274.86	26.9	0.27
274.87	26.91	0.27
284.83	41.98	0.43
284.84	42	0.43
294.77	62.89	0.64
294.78	62.93	0.64
304.75	91.58	0.93
304.75	91.56	0.93
304.76	91.6	0.93
314.74	129.3	1.31
314.74	129.45	1.31
314.75	129.42	1.31
324.89	179.51	1.82
324.89	179.65	1.82
324.89	179.77	1.82

System: diisopropyl ether; phases: Liquid, Gas
Property: Vapor or sublimation pressure, kPa (Liquid); method: Closed cell (Static) method
Temperature, K	Vapor or sublimation pressure, kPa	uncertainty
284.93	10.74	0.11
284.93	10.75	0.11
294.9	17.21	0.18
294.91	17.21	0.18
304.87	26.57	0.27
304.89	26.58	0.27
314.86	39.71	0.41
314.87	39.72	0.41
324.85	57.64	0.59
324.87	57.65	0.59
334.85	81.41	0.83
334.85	81.42	0.83
344.84	112.36	1.14
344.85	112.39	1.14
354.87	151.81	1.54
354.88	151.82	1.54

System: 2-methoxy-2-methylpropane; phases: Liquid, Gas
Property: Vapor or sublimation pressure, kPa (Liquid); method: Closed cell (Static) method
Temperature, K	Vapor or sublimation pressure, kPa	uncertainty
274.9	11.59	0.12
274.91	11.59	0.12
284.82	18.55	0.19
294.8	28.78	0.29
294.8	28.78	0.29
294.81	28.78	0.29
304.79	43.24	0.44
304.79	43.26	0.44
314.75	62.95	0.64
314.76	62.97	0.64
314.76	62.97	0.64
324.9	89.66	0.91
324.9	89.69	0.91
334.85	124.02	1.26
344.84	167.14	1.7
344.85	167.57	1.7
354.82	221.79	2.25
354.82	221.39	2.25

System: diethyl ether + 1,2-dichloroethane; phases: Liquid, Gas
Property: Vapor or sublimation pressure, kPa (Liquid); method: Closed cell (Static) method
Temperature, K	Mole fraction of 1,2-dichloroethane	Vapor or sublimation pressure, kPa	uncertainty
255.02	0.1681	8.35	0.09
255.02	0.1681	8.35	0.09
255.03	0.1681	8.34	0.09
255.07	0.6958	3.73	0.05
255.16	0.5199	5.16	0.06
255.54	0.3603	6.62	0.08
255.56	0.3603	6.63	0.08
255.56	0.3603	6.63	0.08
255.69	0.9148	1.82	0.03
255.71	0.9148	1.82	0.03
264.98	0.1681	14.11	0.15
264.99	0.1681	14.11	0.15
265.06	0.6958	6.5	0.07
265.07	0.6958	6.51	0.07
265.07	0.6958	6.51	0.07
265.09	0.5199	8.89	0.1
265.09	0.5199	8.89	0.1
265.5	0.3603	11.3	0.12
265.51	0.3603	11.3	0.12
265.55	0.9148	3.26	0.04
274.92	0.9148	5.43	0.06
274.93	0.1681	22.92	0.24
274.95	0.1681	22.92	0.24
274.95	0.5199	14.59	0.16
274.96	0.5199	14.58	0.16
275.13	0.3603	18.17	0.2
275.13	0.3603	18.17	0.2
275.84	0.6958	11.3	0.12
275.84	0.6958	11.29	0.12
284.89	0.1681	35.72	0.38
284.89	0.5199	23.1	0.25
284.89	0.9148	8.99	0.1
284.9	0.5199	23.1	0.25
284.92	0.1681	35.75	0.38
285.1	0.3603	28.57	0.3
285.11	0.3603	28.58	0.3
286.09	0.6958	18.26	0.2
286.2	0.6958	18.35	0.2
294.86	0.5199	35.29	0.38
294.86	0.9148	14.29	0.16
294.87	0.1681	53.85	0.57
294.87	0.5199	35.31	0.38
294.87	0.1681	53.84	0.57
294.87	0.5199	35.29	0.38
295.08	0.3603	43.38	0.46
295.09	0.3603	43.37	0.46
295.98	0.6958	27.96	0.3
296.03	0.6958	28.01	0.3
304.82	0.5199	52.18	0.55
304.82	0.9148	21.97	0.24
304.82	0.5199	52.19	0.55
304.83	0.1681	78.44	0.82
304.83	0.5199	52.21	0.55
305.05	0.3603	63.67	0.67
305.91	0.6958	41.58	0.44
305.91	0.6958	41.58	0.44
314.8	0.1681	111.66	1.17
314.81	0.1681	111.71	1.17
314.81	0.5199	75.06	0.79
314.81	0.9148	32.77	0.35
314.81	0.1681	111.57	1.17
314.82	0.5199	75.06	0.79
314.82	0.5199	75	0.79
315.02	0.3603	90.9	0.96
315.02	0.3603	90.94	0.96
315.8	0.6958	59.9	0.64
315.81	0.6958	59.86	0.64
324.92	0.1681	155.26	1.62
324.92	0.5199	105.76	1.11
324.92	0.9148	47.74	0.51
324.92	0.1681	155.25	1.62
324.92	0.5199	105.77	1.11
324.93	0.1681	155.1	1.62
324.93	0.5199	105.79	1.11
325.13	0.3603	127.28	1.34
325.14	0.3603	127.32	1.34
325.14	0.3603	127.35	1.34
325.69	0.6958	84.11	0.89
325.7	0.6958	84.03	0.89
325.7	0.6958	84.06	0.89
334.81	0.9148	67.48	0.72
334.88	0.5199	144.47	1.52
335.07	0.3603	172.92	1.81
335.08	0.3603	172.95	1.81
335.09	0.3603	172.98	1.81
335.71	0.6958	115.96	1.23
335.73	0.6958	115.94	1.23
335.73	0.6958	115.81	1.22
344.83	0.5199	193.09	2.03
344.84	0.9148	93.29	1
344.85	0.5199	193.37	2.03
345.64	0.6958	155.68	1.64
345.65	0.6958	155.8	1.64

System: 1,2-dichloroethane + diisopropyl ether; phases: Liquid, Gas
Property: Vapor or sublimation pressure, kPa (Liquid); method: Closed cell (Static) method
Temperature, K	Mole fraction of 1,2-dichloroethane	Vapor or sublimation pressure, kPa	uncertainty
284.84	0.863	6.98	0.08
284.85	0.863	6.98	0.08
284.86	0.358	9.39	0.1
284.86	0.5386	8.64	0.1
284.86	0.6874	8.64	0.1
284.86	0.358	9.39	0.1
284.88	0.6874	7.91	0.09
284.89	0.6874	7.92	0.09
294.79	0.863	11.43	0.13
294.8	0.1574	16.67	0.18
294.8	0.863	11.44	0.13
294.81	0.5386	14.05	0.15
294.82	0.5386	14.05	0.15
294.83	0.358	15.22	0.17
294.83	0.6874	12.89	0.14
294.83	0.6874	12.9	0.14
294.84	0.358	15.21	0.17
304.76	0.863	18.06	0.2
304.76	0.863	18.05	0.2
304.78	0.1574	25.55	0.28
304.78	0.358	23.71	0.26
304.78	0.1574	25.55	0.28
304.79	0.358	23.71	0.26
304.8	0.5386	22	0.24
304.81	0.5386	22	0.24
304.82	0.6874	20.26	0.22
304.83	0.6874	20.27	0.22
314.74	0.863	27.54	0.3
314.74	0.863	27.54	0.3
314.75	0.1574	38.12	0.41
314.76	0.1574	38.12	0.41
314.76	0.358	35.75	0.38
314.77	0.358	35.75	0.38
314.77	0.5386	33.3	0.36
314.79	0.6874	30.77	0.33
314.79	0.6874	30.77	0.33
324.76	0.1574	55.43	0.59
324.76	0.1574	55.43	0.59
324.87	0.863	40.96	0.44
324.88	0.358	52.56	0.56
324.89	0.863	40.97	0.44
324.9	0.358	52.57	0.56
324.91	0.5386	49.13	0.53
324.91	0.6874	45.57	0.49
324.92	0.6874	45.59	0.49
334.76	0.1574	78.59	0.84
334.77	0.1574	78.6	0.84
334.85	0.863	58.93	0.63
334.85	0.863	58.9	0.63
334.87	0.358	74.82	0.8
334.87	0.6874	65.24	0.7
334.88	0.358	74.83	0.8
334.88	0.6874	65.24	0.7
334.9	0.5386	70.15	0.75
344.83	0.863	82.7	0.88
344.84	0.1574	108.93	1.16
344.84	0.358	103.93	1.11
344.86	0.6874	91.24	0.97
344.86	0.6874	91.23	0.97
344.87	0.1574	109.02	1.16
344.89	0.5386	97.77	1.04
354.78	0.863	113.39	1.21
354.8	0.863	113.39	1.21
354.81	0.6874	124.72	1.33
354.84	0.358	141.15	1.5
354.85	0.5386	133.5	1.42

System: 1,2-dichloroethane + 2-methoxy-2-methylpropane; phases: Liquid, Gas
Property: Vapor or sublimation pressure, kPa (Liquid); method: Closed cell (Static) method
Temperature, K	Mole fraction of 1,2-dichloroethane	Vapor or sublimation pressure, kPa	uncertainty
274.83	0.3711	8.18	0.09
274.85	0.6712	5.83	0.07
274.86	0.6712	5.84	0.07
274.86	0.8694	4.34	0.05
274.86	0.8694	4.34	0.05
274.88	0.5324	6.87	0.08
274.88	0.5324	6.86	0.08
275	0.1662	10.01	0.11
284.78	0.3711	13.43	0.15
284.81	0.3711	13.43	0.15
284.81	0.8694	7.35	0.08
284.81	0.8694	7.35	0.08
284.83	0.5324	11.38	0.13
284.83	0.6712	9.75	0.11
284.84	0.5324	11.38	0.13
284.84	0.6712	9.76	0.11
284.96	0.1662	16.23	0.18
294.75	0.3711	21.18	0.23
294.77	0.8694	11.97	0.13
294.78	0.8694	11.97	0.13
294.79	0.5324	18.14	0.2
294.8	0.5324	18.13	0.2
294.81	0.6712	15.64	0.17
294.82	0.6712	15.64	0.17
294.91	0.1662	25.31	0.27
304.73	0.3711	32.51	0.35
304.73	0.3711	32.49	0.35
304.74	0.8694	18.78	0.2
304.74	0.8694	18.79	0.2
304.76	0.5324	27.89	0.3
304.77	0.5324	27.9	0.3
304.79	0.6712	24.23	0.26
304.88	0.1662	38.2	0.41
314.71	0.3711	48.02	0.51
314.73	0.6712	36.34	0.39
314.73	0.8694	28.54	0.31
314.73	0.8694	28.55	0.31
314.74	0.5324	41.58	0.45
314.74	0.6712	36.33	0.39
314.74	0.5324	41.57	0.45
314.86	0.1662	55.94	0.6
324.69	0.3711	68.93	0.73
324.72	0.3711	69.06	0.74
324.74	0.5324	60.2	0.64
324.74	0.5324	60.21	0.64
324.82	0.6712	53.19	0.57
324.82	0.8694	42.3	0.45
324.83	0.6712	53.18	0.57
324.83	0.8694	42.31	0.45
324.84	0.3711	69.2	0.74
324.97	0.1662	80.05	0.85
334.73	0.5324	84.97	0.91
334.74	0.5324	84.98	0.91
334.79	0.8694	60.64	0.65
334.79	0.8694	60.64	0.65
334.79	0.8694	60.65	0.65
334.8	0.8694	60.65	0.65
334.81	0.6712	75.41	0.8
334.82	0.3711	96.8	1.03
334.93	0.1662	111.23	1.18
344.73	0.5324	117.26	1.25
344.74	0.5324	117.29	1.25
344.78	0.8694	84.89	0.9
344.79	0.6712	104.59	1.11
344.79	0.8694	84.87	0.9
344.79	0.8694	84.72	0.9
344.8	0.3711	132.57	1.41
344.8	0.6712	104.53	1.11
344.8	0.8694	84.83	0.9
344.8	0.3711	132.6	1.41
344.9	0.1662	151.04	1.61
354.73	0.5324	157.69	1.68
354.76	0.6712	141.99	1.51
354.78	0.8694	116.31	1.24
354.79	0.8694	116.34	1.24
354.79	0.8694	116.33	1.24
354.89	0.1662	201.17	2.14
