Measured thermophysical data. Solid liquid phase equilibria of Ca(H2PO2)2 CaCl2 H2O and Ca(H2PO2)2 NaH2PO2 H2O ternary systems at 298.15 K
Source: Fluid Phase Equilib., 2015, 10.1016/j.fluid.2014.12.047
Compound 1: water, H2O, InChI=1S/H2O/h1H2, purity 99.8%
Compound 2: calcium chloride, CaCl2, InChI=1S/Ca.2ClH/h;2*1H/q+2;;/p-2, purity 96%
Compound 3: calcium hypophosphite, CaH4O4P2, InChI=1S/Ca.2H3O2P/c;2*1-3-2/h;2*3H2,(H,1,2)/q+2;;/p-2, purity 99%
Compound 4: sodium phosphinate, H2NaO2P, InChI=1S/Na.H3O2P/c;1-3-2/h;3H2,(H,1,2)/q+1;/p-1, purity 99%

System: water + calcium hypophosphite + calcium chloride; phases: Liquid
Fixed: Temperature, K = 298.15
Fixed: Pressure, kPa = 101.3
Property: Mass density, kg/m3 (Liquid); method: Vibrating tube method
Mass fraction of calcium hypophosphite	Mass fraction of calcium chloride	Mass density, kg/m3	uncertainty
0.1389	0	1091.2	0.5
0.0837	0.1174	1156	0.7
0.0586	0.2151	1229.6	0.6
0.0495	0.298	1305.2	0.6
0.0479	0.3673	1384.1	0.6
0.0592	0.425	1459.1	0.7
0.0623	0.4487	1492.1	0.8
0.0609	0.4468	1488.1	0.8
0.0324	0.4452	1467.5	0.7
0	0.4433	1444.8	0.6

System: water + calcium hypophosphite + calcium chloride; phases: Liquid, Crystal
Fixed: Temperature, K = 298.15
Fixed: Pressure, kPa = 101.3
Property: Mass fraction of calcium chloride (Liquid); method: Gravimetric
Mass fraction of calcium hypophosphite	Mass fraction of calcium chloride	uncertainty
0.1389	0	
0.0837	0.1174	0.002
0.0586	0.2151	0.1399
0.0495	0.298	0.0173
0.0479	0.3673	0.0173
0.0592	0.425	0.14

System: water + calcium hypophosphite + calcium chloride; phases: Liquid, Crystal of intercomponent compound 1
Fixed: Temperature, K = 298.15
Fixed: Pressure, kPa = 101.3
Property: Mass fraction of calcium chloride (Liquid); method: Gravimetric
Mass fraction of calcium hypophosphite	Mass fraction of calcium chloride	uncertainty
0.0609	0.4468	0.001
0.0324	0.4452	0.001
0	0.4433	0.001

System: water + calcium hypophosphite + calcium chloride; phases: Liquid, Crystal of intercomponent compound 2
Property: Mass fraction of calcium chloride (Liquid); method: Gravimetric
Mass fraction of calcium hypophosphite	Pressure, kPa	Temperature, K	Mass fraction of calcium chloride	uncertainty
0.0623	101.3	298.15	0.4487	0.001

System: sodium phosphinate + water + calcium hypophosphite; phases: Liquid
Fixed: Pressure, kPa = 101.3
Fixed: Temperature, K = 298.15
Property: Mass density, kg/m3 (Liquid); method: Vibrating tube method
Mass fraction of sodium phosphinate	Mass fraction of calcium hypophosphite	Mass density, kg/m3	uncertainty
0	0.1389	1091	0.2
0.0504	0.0863	1091.4	0.2
0.1094	0.0524	1106.4	0.2
0.1618	0.0305	1125.5	5.7
0.1654	0.0303	1183.7	5.7
0.1654	0.0303	1183.7	5.7
0.239	0.008	1170.5	0.5
0.3505	0.0009	1249.5	0.3
0.4353	0.0003	1319.3	4
0.4741	0.0003	1342.2	0.4
0.5149	0.0003	1380.5	2.1
0.5149	0.0003	1380.5	2.1
0.5195	0	1379	0.5

System: sodium phosphinate + water + calcium hypophosphite; phases: Liquid, Crystal
Fixed: Temperature, K = 298.15
Fixed: Pressure, kPa = 101.3
Property: Mass fraction of sodium phosphinate (Liquid); method: Gravimetric
Mass fraction of calcium hypophosphite	Mass fraction of sodium phosphinate	uncertainty
0.1389	0	
0.0863	0.0504	0.0002
0.0524	0.1094	0.0004
0.0305	0.1618	0.0005

System: sodium phosphinate + water + calcium hypophosphite; phases: Liquid, Crystal of intercomponent compound 1
Property: Mass fraction of sodium phosphinate (Liquid); method: Gravimetric
Mass fraction of calcium hypophosphite	Temperature, K	Pressure, kPa	Mass fraction of sodium phosphinate	uncertainty
0.0303	298.15	101.3	0.1654	0.0004

System: sodium phosphinate + water + calcium hypophosphite; phases: Liquid, Crystal of intercomponent compound 2
Fixed: Temperature, K = 298.15
Fixed: Pressure, kPa = 101.3
Property: Mass fraction of sodium phosphinate (Liquid); method: Gravimetric
Mass fraction of calcium hypophosphite	Mass fraction of sodium phosphinate	uncertainty
0.008	0.239	0.002
0.0009	0.3505	0.017
0.0003	0.4353	0.017
0.0003	0.4741	0.0247

System: sodium phosphinate + water + calcium hypophosphite; phases: Liquid, Crystal of intercomponent compound 3
Property: Mass fraction of sodium phosphinate (Liquid); method: Gravimetric
Mass fraction of calcium hypophosphite	Temperature, K	Pressure, kPa	Mass fraction of sodium phosphinate	uncertainty
0.0003	298.15	101.3	0.5149	0.0012

System: sodium phosphinate + water; phases: Liquid, Crystal of intercomponent compound 1
Property: Mass fraction of sodium phosphinate (Liquid); method: Gravimetric
Temperature, K	Pressure, kPa	Mass fraction of sodium phosphinate	uncertainty
298.15	101.3	0.5195	0.0012
