Measured thermophysical data. Partitioning of diuron in a novel aqueous two-phase system based on polyols and tetrahydrofuran
Source: Fluid Phase Equilib., 2016, 10.1016/j.fluid.2016.08.012
Compound 1: glycerol, C3H8O3, InChI=1S/C3H8O3/c4-1-3(6)2-5/h3-6H,1-2H2, purity 99.5%
Compound 2: meso-1,2,3,4-butanetetrol, C4H10O4, InChI=1S/C4H10O4/c5-1-3(7)4(8)2-6/h3-8H,1-2H2/t3-,4+, purity 99%
Compound 3: xylitol, C5H12O5, InChI=1S/C5H12O5/c6-1-3(8)5(10)4(9)2-7/h3-10H,1-2H2/t3-,4+,5+, purity 99%
Compound 4: D-sorbitol, C6H14O6, InChI=1S/C6H14O6/c7-1-3(9)5(11)6(12)4(10)2-8/h3-12H,1-2H2/t3-,4+,5-,6-/m1/s1, purity 98%
Compound 5: 4-O-.alpha.-D-glucopyranosyl-D-glucitol, C12H24O11, InChI=1S/C12H24O11/c13-1-4(16)7(18)11(5(17)2-14)23-12-10(21)9(20)8(19)6(3-15)22-12/h4-21H,1-3H2/t4-,5+,6+,7+,8+,9-,10+,11+,12+/m0/s1, purity 98%
Compound 6: tetrahydrofuran, C4H8O, InChI=1S/C4H8O/c1-2-4-5-3-1/h1-4H2, purity 99.9%
Compound 7: water, H2O, InChI=1S/H2O/h1H2, purity 99.8%

System: glycerol + tetrahydrofuran + water; phases: Liquid mixture 1, Liquid mixture 2
Fixed: Pressure, kPa = 101
Fixed: Temperature, K = 298
Property: Mass fraction of glycerol (Liquid mixture 1); method: Titration method
Mass fraction of tetrahydrofuran	Mass fraction of glycerol	uncertainty
0.6492	0.1592	0.0049
0.6254	0.1711	0.0053
0.6043	0.1832	0.0057
0.5827	0.1945	0.006
0.5632	0.2045	0.0063
0.5441	0.2156	0.0067
0.5166	0.2393	0.0074
0.5007	0.2475	0.0077
0.4774	0.2684	0.0083
0.4229	0.3397	0.0105
0.3977	0.3675	0.0114
0.384	0.3778	0.0117
0.3694	0.3919	0.0121
0.3533	0.4082	0.0127

System: glycerol + tetrahydrofuran + water; phases: Liquid mixture 2, Liquid mixture 1
Fixed: Temperature, K = 298.15
Fixed: Pressure, kPa = 101
Property: Mass fraction of tetrahydrofuran (Liquid mixture 2); method: Titration method
Property: Mass fraction of tetrahydrofuran (Liquid mixture 1); method: Titration method
Property: Mass fraction of glycerol (Liquid mixture 1); method: Titration method
Mass fraction of glycerol	Mass fraction of tetrahydrofuran	uncertainty	Mass fraction of tetrahydrofuran	uncertainty	Mass fraction of glycerol	uncertainty
0.2075	0.6289	0.0226	0.2152	0.0209	0.5731	
0.1422	0.6629	0.0222	0.191	0.0207	0.7344	

System: tetrahydrofuran + meso-1,2,3,4-butanetetrol + water; phases: Liquid mixture 1, Liquid mixture 2
Fixed: Pressure, kPa = 101
Fixed: Temperature, K = 298
Property: Mass fraction of meso-1,2,3,4-butanetetrol (Liquid mixture 1); method: Titration method
Mass fraction of tetrahydrofuran	Mass fraction of meso-1,2,3,4-butanetetrol	uncertainty
0.6693	0.0646	0.002
0.6378	0.0717	0.0022
0.6012	0.0842	0.0026
0.5825	0.0871	0.0027
0.561	0.0918	0.0028
0.5409	0.0972	0.003
0.5204	0.1034	0.0032
0.4936	0.1144	0.0036
0.4697	0.1234	0.0038
0.4436	0.1334	0.0041
0.4071	0.1524	0.0047
0.2099	0.3215	0.01
0.169	0.3909	0.0121
0.1575	0.4234	0.0131
0.1467	0.4462	0.0138
0.1375	0.4713	0.0146
0.1214	0.5054	0.0153
0.105	0.561	0.0136
0.0865	0.6341	0.0113
0.0655	0.7411	0.008

System: tetrahydrofuran + meso-1,2,3,4-butanetetrol + water; phases: Liquid mixture 1, Liquid mixture 2
Fixed: Temperature, K = 298.15
Fixed: Pressure, kPa = 101
Property: Mass fraction of tetrahydrofuran (Liquid mixture 1); method: Titration method
Property: Mass fraction of meso-1,2,3,4-butanetetrol (Liquid mixture 2); method: Titration method
Property: Mass fraction of tetrahydrofuran (Liquid mixture 2); method: Titration method
Mass fraction of meso-1,2,3,4-butanetetrol	Mass fraction of tetrahydrofuran	uncertainty	Mass fraction of meso-1,2,3,4-butanetetrol	uncertainty	Mass fraction of tetrahydrofuran	uncertainty
0.5213	0.1159	0.0203	0.1256	0.0203	0.4624	
0.7021	0.0745	0.0201	0.1115	0.0202	0.5012	

System: xylitol + tetrahydrofuran + water; phases: Liquid mixture 1, Liquid mixture 2
Fixed: Pressure, kPa = 101
Fixed: Temperature, K = 298
Property: Mass fraction of xylitol (Liquid mixture 1); method: Titration method
Mass fraction of tetrahydrofuran	Mass fraction of xylitol	uncertainty
0.5893	0.0715	0.0022
0.5396	0.0858	0.0027
0.5176	0.0904	0.0028
0.5026	0.096	0.003
0.4809	0.101	0.0031
0.4411	0.116	0.0036
0.4245	0.1205	0.0037
0.4167	0.1253	0.0039
0.4074	0.1301	0.004
0.398	0.1342	0.0042
0.3898	0.1373	0.0043
0.3814	0.142	0.0044
0.374	0.1463	0.0045
0.3675	0.1494	0.0046
0.3559	0.1582	0.0049
0.343	0.1661	0.0052
0.3313	0.1747	0.0054
0.3221	0.1816	0.0056
0.3092	0.1927	0.006
0.2918	0.2104	0.0065
0.133	0.4017	0.0124
0.1254	0.4129	0.0128
0.116	0.4292	0.0133
0.096	0.4855	0.015
0.0855	0.518	0.0149
0.0773	0.5421	0.0142
0.0773	0.5421	0.0142
0.0628	0.603	0.0123
0.0487	0.6759	0.01
0.0406	0.7266	0.0085

System: xylitol + tetrahydrofuran + water; phases: Liquid mixture 2, Liquid mixture 1
Fixed: Temperature, K = 298.15
Fixed: Pressure, kPa = 101
Property: Mass fraction of xylitol (Liquid mixture 2); method: Titration method
Property: Mass fraction of tetrahydrofuran (Liquid mixture 1); method: Titration method
Property: Mass fraction of xylitol (Liquid mixture 1); method: Titration method
Mass fraction of tetrahydrofuran	Mass fraction of xylitol	uncertainty	Mass fraction of tetrahydrofuran	uncertainty	Mass fraction of xylitol	uncertainty
0.5185	0.088	0.0202	0.0982	0.0202	0.4814	
0.5545	0.0752	0.0201	0.0602	0.0201	0.6138	

System: D-sorbitol + tetrahydrofuran + water; phases: Liquid mixture 1, Liquid mixture 2
Fixed: Pressure, kPa = 101
Fixed: Temperature, K = 298
Property: Mass fraction of D-sorbitol (Liquid mixture 1); method: Titration method
Mass fraction of tetrahydrofuran	Mass fraction of D-sorbitol	uncertainty
0.6027	0.0612	0.0019
0.5565	0.0689	0.0021
0.5304	0.0769	0.0024
0.4991	0.081	0.0025
0.4608	0.0967	0.003
0.4394	0.1022	0.0032
0.4391	0.101	0.0031
0.4293	0.1057	0.0033
0.4269	0.1078	0.0033
0.4252	0.1075	0.0033
0.412	0.1128	0.0035
0.411	0.1125	0.0035
0.4048	0.1154	0.0036
0.3992	0.113	0.0035
0.3945	0.1193	0.0037
0.3851	0.1171	0.0042
0.3837	0.1245	0.0044
0.3753	0.1228	0.0038
0.3675	0.1319	0.0042
0.3656	0.1275	0.004
0.36	0.1356	0.0042
0.3535	0.1384	0.0043
0.3514	0.1381	0.0043
0.3481	0.1414	0.0044
0.3449	0.1433	0.0044
0.3375	0.1466	0.0045
0.3325	0.151	0.0047
0.3284	0.1541	0.0048
0.3217	0.1553	0.0048
0.3138	0.1606	0.005
0.3098	0.1663	0.0052
0.3061	0.1642	0.0051
0.2888	0.1831	0.0057
0.2689	0.2007	0.0062
0.1967	0.2985	0.0093
0.1747	0.324	0.01
0.1627	0.3531	0.0109
0.1549	0.373	0.0116
0.1218	0.4448	0.0138
0.0932	0.5305	0.0146
0.0738	0.6321	0.0114

System: D-sorbitol + tetrahydrofuran + water; phases: Liquid mixture 1, Liquid mixture 2
Fixed: Temperature, K = 298.15
Fixed: Pressure, kPa = 101
Property: Mass fraction of tetrahydrofuran (Liquid mixture 1); method: Titration method
Property: Mass fraction of D-sorbitol (Liquid mixture 2); method: Titration method
Property: Mass fraction of tetrahydrofuran (Liquid mixture 2); method: Titration method
Mass fraction of D-sorbitol	Mass fraction of tetrahydrofuran	uncertainty	Mass fraction of D-sorbitol	uncertainty	Mass fraction of tetrahydrofuran	uncertainty
0.4808	0.111	0.0202	0.0719	0.0201	0.5247	
0.6124	0.0728	0.0201	0.065	0.0201	0.5684	

System: tetrahydrofuran + 4-O-.alpha.-D-glucopyranosyl-D-glucitol + water; phases: Liquid mixture 1, Liquid mixture 2
Fixed: Pressure, kPa = 101
Fixed: Temperature, K = 298
Property: Mass fraction of 4-O-.alpha.-D-glucopyranosyl-D-glucitol (Liquid mixture 1); method: Titration method
Mass fraction of tetrahydrofuran	Mass fraction of 4-O-.alpha.-D-glucopyranosyl-D-glucitol	uncertainty
0.6781	0.0862	0.0027
0.5675	0.0993	0.0031
0.546	0.1052	0.0033
0.5155	0.1096	0.0034
0.5155	0.1096	0.0034
0.4973	0.1147	0.0036
0.4973	0.1147	0.0036
0.4774	0.1224	0.0038
0.4774	0.1224	0.0038
0.4598	0.1303	0.004
0.4598	0.1303	0.004
0.4401	0.14	0.0043
0.4401	0.14	0.0043
0.4233	0.1483	0.0046
0.4233	0.1483	0.0046
0.4062	0.1578	0.0049
0.4062	0.1578	0.0049
0.3808	0.1678	0.0052
0.3574	0.1859	0.0058
0.3574	0.1859	0.0058
0.3431	0.195	0.006
0.3431	0.195	0.006
0.3143	0.2226	0.0069
0.2815	0.2556	0.0079
0.2234	0.2918	0.009
0.2103	0.3107	0.0096
0.1979	0.3235	0.01
0.187	0.3359	0.0104
0.1745	0.3505	0.0109
0.1641	0.3634	0.0113
0.1542	0.3781	0.0117
0.1475	0.3914	0.0121
0.1355	0.4049	0.0125
0.1269	0.4266	0.0132
0.1033	0.4672	0.0145
0.0937	0.4973	0.0154
0.0618	0.5934	0.0126
0.039	0.6748	0.0101

System: tetrahydrofuran + 4-O-.alpha.-D-glucopyranosyl-D-glucitol + water; phases: Liquid mixture 1, Liquid mixture 2
Fixed: Temperature, K = 298.15
Fixed: Pressure, kPa = 101
Property: Mass fraction of tetrahydrofuran (Liquid mixture 1); method: Titration method
Property: Mass fraction of 4-O-.alpha.-D-glucopyranosyl-D-glucitol (Liquid mixture 2); method: Titration method
Property: Mass fraction of tetrahydrofuran (Liquid mixture 2); method: Titration method
Mass fraction of 4-O-.alpha.-D-glucopyranosyl-D-glucitol	Mass fraction of tetrahydrofuran	uncertainty	Mass fraction of 4-O-.alpha.-D-glucopyranosyl-D-glucitol	uncertainty	Mass fraction of tetrahydrofuran	uncertainty
0.4632	0.111	0.0202	0.1219	0.0203	0.4812	
0.5795	0.0686	0.0201	0.0891	0.0202	0.5675	
