Measured thermophysical data. Surface tension and density for members of four ionic liquid homologous series containing a pyridinium based-cation and the bis(trifluoromethylsulfonyl)imide anion
Source: Fluid Phase Equilib., 2017, 10.1016/j.fluid.2016.10.004
Compound 1: 1-propylpyridinium bis((trifluoromethyl)sulfonyl)amide, C10H12F6N2O4S2, InChI=1S/C8H12N.C2F6NO4S2/c1-2-6-9-7-4-3-5-8-9;3-1(4,5)14(10,11)9-15(12,13)2(6,7)8/h3-5,7-8H,2,6H2,1H3;/q+1;-1, purity 99.9%
Compound 2: 2-methyl-1-propylpyridinium bis((trifluoromethyl)sulfonyl)amide, C11H14F6N2O4S2, InChI=1S/C9H14N.C2F6NO4S2/c1-3-7-10-8-5-4-6-9(10)2;3-1(4,5)14(10,11)9-15(12,13)2(6,7)8/h4-6,8H,3,7H2,1-2H3;/q+1;-1, purity 99.9%
Compound 3: 3-methyl-1-propylpyridinium bis(trifluoromethylsulfonyl)imide, C11H14F6N2O4S2, InChI=1S/C9H14N.C2F6NO4S2/c1-3-6-10-7-4-5-9(2)8-10;3-1(4,5)14(10,11)9-15(12,13)2(6,7)8/h4-5,7-8H,3,6H2,1-2H3;/q+1;-1, purity 99.8%
Compound 4: 4-methyl-1-propylpyridinium bis((trifluoromethyl)sulfonyl)amide, C11H14F6N2O4S2, InChI=1S/C9H14N.C2F6NO4S2/c1-3-6-10-7-4-9(2)5-8-10;3-1(4,5)14(10,11)9-15(12,13)2(6,7)8/h4-5,7-8H,3,6H2,1-2H3;/q+1;-1, purity 99.6%

System: 1-propylpyridinium bis((trifluoromethyl)sulfonyl)amide; phases: Liquid
Fixed: Pressure, kPa = 100
Property: Mass density, kg/m3 (Liquid); method: ARCHIM
Temperature, K	Mass density, kg/m3	uncertainty
318.41	1468.8	0.54
323.02	1464.45	0.54
328.3	1459.61	0.54
333.28	1454.58	0.54
338.11	1450.05	0.54
343.18	1445.34	0.54
347.36	1440.68	0.54
353.35	1435.49	0.54
357.87	1430.78	0.54
362.15	1426.55	0.54

System: 1-propylpyridinium bis((trifluoromethyl)sulfonyl)amide; phases: Liquid, Gas
Property: Surface tension liquid-gas, N/m (Liquid); method: Wilhelmy plate
Temperature, K	Surface tension liquid-gas, N/m	uncertainty
318.35	0.03452	6e-05
322.86	0.03429	6e-05
328.15	0.03402	6e-05
333.17	0.03375	6e-05
338	0.03356	6e-05
343.1	0.03335	6e-05
347.63	0.03313	6e-05
353.31	0.03287	6e-05
358.35	0.03264	6e-05
362.09	0.03243	6e-05

System: 1-propylpyridinium bis((trifluoromethyl)sulfonyl)amide; phases: Liquid, Gas
Property: Surface tension liquid-gas, N/m (Liquid); method: Ring tensiometer
Temperature, K	Surface tension liquid-gas, N/m	uncertainty
318.38	0.03467	0.00048
322.89	0.03446	0.00048
328.19	0.03421	0.00048
333.21	0.03397	0.00048
338.03	0.0338	0.00047
343.11	0.03356	0.00047
347.59	0.03334	0.00047
353.34	0.0331	0.00047
358.37	0.03282	0.00046
362.18	0.03261	0.00046

System: 2-methyl-1-propylpyridinium bis((trifluoromethyl)sulfonyl)amide; phases: Liquid
Fixed: Pressure, kPa = 100
Property: Mass density, kg/m3 (Liquid); method: ARCHIM
Temperature, K	Mass density, kg/m3	uncertainty
274.36	1487.31	0.6
278.09	1484.28	0.6
283.39	1478.78	0.6
288.24	1473.7	0.6
293.42	1468.58	0.6
298.29	1464.23	0.6
303.1	1459.95	0.6
307.9	1454.39	0.6
313.05	1449.74	0.6
318.4	1444.8	0.6
322.98	1440.18	0.6
328.44	1435.36	0.6
333.33	1430.49	0.6
338.04	1426.36	0.6
343.34	1421.49	0.6
347.7	1417.08	0.6
353.28	1412.49	0.6
359.15	1407.9	0.6
363.7	1403.29	0.6

System: 2-methyl-1-propylpyridinium bis((trifluoromethyl)sulfonyl)amide; phases: Liquid, Gas
Property: Surface tension liquid-gas, N/m (Liquid); method: Wilhelmy plate
Temperature, K	Surface tension liquid-gas, N/m	uncertainty
283.37	0.03698	7e-05
288.25	0.03682	7e-05
293.42	0.03665	7e-05
298.31	0.0365	7e-05
303.05	0.03631	7e-05
307.82	0.03611	7e-05
312.97	0.03595	7e-05
318.38	0.03576	7e-05
322.88	0.03552	7e-05
328.34	0.03532	7e-05
333.16	0.03512	7e-05
337.93	0.03492	7e-05
343.2	0.03477	7e-05
347.6	0.03453	7e-05
353.02	0.03438	7e-05
359.26	0.03414	7e-05
363.55	0.03394	7e-05

System: 2-methyl-1-propylpyridinium bis((trifluoromethyl)sulfonyl)amide; phases: Liquid, Gas
Property: Surface tension liquid-gas, N/m (Liquid); method: Ring tensiometer
Temperature, K	Surface tension liquid-gas, N/m	uncertainty
264.98	0.03798	0.00053
274.35	0.03765	0.00052
278.08	0.03748	0.00052
283.24	0.03732	0.00052
288.21	0.03706	0.00052
293.4	0.0369	0.00052
298.31	0.03664	0.00051
302.93	0.03645	0.00051
307.78	0.03629	0.00051
312.97	0.03607	0.00051
318.39	0.03583	0.00051
322.94	0.03554	0.0005
328.34	0.03529	0.0005
333.16	0.03503	0.0005
337.5	0.03474	0.0005
343.21	0.03463	0.0005
347.65	0.03427	0.00049
353.02	0.03414	0.00049
359.32	0.03383	0.00049
363.67	0.03373	0.00049

System: 3-methyl-1-propylpyridinium bis(trifluoromethylsulfonyl)imide; phases: Liquid
Fixed: Pressure, kPa = 100
Property: Mass density, kg/m3 (Liquid); method: ARCHIM
Temperature, K	Mass density, kg/m3	uncertainty
264.25	1481.37	0.82
268.17	1476.75	0.82
273.62	1471.18	0.82
278.64	1466.69	0.82
283.23	1461.95	0.82
288.58	1456.8	0.82
293	1452.82	0.82
298.44	1448.15	0.82
303.17	1443.76	0.82
308.13	1438.23	0.82
312.76	1433.63	0.82
318.32	1428.63	0.82
323.28	1423.98	0.82
328.19	1419.2	0.82
333.31	1414.52	0.82
339.09	1409.83	0.82
342.77	1406.02	0.82
348.02	1401	0.82
352.77	1396.52	0.82
358.08	1391.47	0.82
363.28	1386.7	0.82

System: 3-methyl-1-propylpyridinium bis(trifluoromethylsulfonyl)imide; phases: Liquid, Gas
Property: Surface tension liquid-gas, N/m (Liquid); method: Wilhelmy plate
Temperature, K	Surface tension liquid-gas, N/m	uncertainty
273.45	0.03578	6e-05
278.42	0.03559	6e-05
283.2	0.03541	6e-05
288.67	0.03522	6e-05
292.99	0.03506	6e-05
298.44	0.03488	6e-05
303.12	0.03468	6e-05
308.04	0.03453	6e-05
312.72	0.03429	6e-05
318.25	0.03408	6e-05
323.19	0.03391	6e-05
328.11	0.03365	6e-05
333.15	0.03346	6e-05
339.21	0.03318	6e-05
342.65	0.03308	6e-05
347.77	0.03285	6e-05
352.59	0.0327	6e-05

System: 3-methyl-1-propylpyridinium bis(trifluoromethylsulfonyl)imide; phases: Liquid, Gas
Property: Surface tension liquid-gas, N/m (Liquid); method: Ring tensiometer
Temperature, K	Surface tension liquid-gas, N/m	uncertainty
264.14	0.03635	0.0005
268.06	0.03623	0.0005
273.39	0.0361	0.0005
278.42	0.03588	0.0005
283.19	0.0356	0.00049
288.5	0.03539	0.00049
292.92	0.03523	0.00049
298.42	0.03503	0.00049
303.1	0.03483	0.00048
308.03	0.03464	0.00048
312.75	0.03439	0.00048
318.22	0.03412	0.00048
323.23	0.03395	0.00047
328.11	0.03369	0.00047
333.21	0.03343	0.00047
339.28	0.03318	0.00046
342.59	0.03303	0.00046
347.91	0.03278	0.00046
352.62	0.03249	0.00046

System: 4-methyl-1-propylpyridinium bis((trifluoromethyl)sulfonyl)amide; phases: Liquid
Fixed: Pressure, kPa = 100
Property: Mass density, kg/m3 (Liquid); method: ARCHIM
Temperature, K	Mass density, kg/m3	uncertainty
268.1	1482.1	0.64
278.71	1469.95	0.64
283.45	1465.84	0.64
288.19	1461.42	0.64
293.46	1456.03	0.64
298.38	1450.93	0.64
303.12	1446.6	0.64
308.24	1440.93	0.64
313.15	1435.96	0.64
318.2	1431.59	0.64
323.16	1426.43	0.64
328.14	1421.84	0.64
333.57	1416.94	0.64
338.25	1412.36	0.64
343.8	1407.53	0.64
348.11	1402.8	0.64
353.25	1398.13	0.64
357.74	1394	0.64
362.63	1389.16	0.64

System: 4-methyl-1-propylpyridinium bis((trifluoromethyl)sulfonyl)amide; phases: Liquid, Gas
Property: Surface tension liquid-gas, N/m (Liquid); method: Wilhelmy plate
Temperature, K	Surface tension liquid-gas, N/m	uncertainty
288.22	0.03561	8e-05
293.49	0.03539	8e-05
298.37	0.0352	8e-05
303.12	0.035	8e-05
308.17	0.03485	8e-05
313.06	0.03465	8e-05
318.14	0.03448	8e-05
323.06	0.03425	8e-05
328	0.03404	8e-05
333.36	0.03379	8e-05
338.08	0.0336	8e-05
343.75	0.03343	8e-05
347.87	0.0332	8e-05
353.29	0.03301	8e-05
357.58	0.03283	8e-05
362.45	0.03261	8e-05

System: 4-methyl-1-propylpyridinium bis((trifluoromethyl)sulfonyl)amide; phases: Liquid, Gas
Property: Surface tension liquid-gas, N/m (Liquid); method: Ring tensiometer
Temperature, K	Surface tension liquid-gas, N/m	uncertainty
288.19	0.03582	0.0005
293.49	0.03556	0.0005
298.37	0.03536	0.0005
303.11	0.03517	0.0005
308.15	0.03496	0.00049
313.06	0.03466	0.00049
318.15	0.03446	0.00049
323.07	0.03423	0.00049
327.97	0.03395	0.00048
332.97	0.0337	0.00048
338.17	0.03344	0.00048
343.8	0.0332	0.00048
348.11	0.03298	0.00047
353.47	0.0327	0.00047
357.72	0.03242	0.00047
362.65	0.03222	0.00047
