Measured thermophysical data. Excess molar enthalpies for mixtures of supercritical carbon dioxide and limonene
Source: Fluid Phase Equilib., 2006, 10.1016/j.fluid.2006.05.027
Compound 1: carbon dioxide, CO2, InChI=1S/CO2/c2-1-3, purity 99.98%
Compound 2: 1-methyl-4-(1-methylethenyl)cyclohexene, C10H16, InChI=1S/C10H16/c1-8(2)10-6-4-9(3)5-7-10/h4,10H,1,5-7H2,2-3H3, purity 99%

System: 1-methyl-4-(1-methylethenyl)cyclohexene; phases: Liquid
Fixed: Temperature, K = 298.15
Property: Mass density, kg/m3 (Liquid); method: Vibrating tube method
Pressure, kPa	Mass density, kg/m3	uncertainty
7640	844	0.7
10000	845.6	0.7

System: carbon dioxide + 1-methyl-4-(1-methylethenyl)cyclohexene; phases: Fluid (supercritical or subcritical phases)
Property: Excess molar enthalpy (molar enthalpy of mixing), kJ/mol (Fluid (supercritical or subcritical phases)); method: FLOW:UFactor:4
Mole fraction of carbon dioxide	Temperature, K	Pressure, kPa	Excess molar enthalpy (molar enthalpy of mixing), kJ/mol	uncertainty
0.058	313.15	10000	-0.015	0.006
0.058	323.15	10000	0.012	0.006
0.105	323.15	7640	-0.523	0.023
0.111	308.15	10000	0.057	0.006
0.111	313.15	10000	-0.022	0.009
0.129	308.15	7640	-0.439	0.02
0.129	323.15	7640	-0.633	0.028
0.136	308.15	10000	0.056	0.006
0.136	313.15	10000	-0.031	0.009
0.152	323.15	7640	-0.788	0.032
0.16	323.15	10000	-0.087	0.009
0.175	323.15	7640	-0.879	0.035
0.196	308.15	7640	-0.726	0.03
0.196	323.15	7640	-1.009	0.04
0.207	308.15	10000	0.077	0.009
0.207	313.15	10000	-0.049	0.009
0.207	323.15	10000	-0.224	0.014
0.218	313.15	7640	-0.975	0.037
0.238	308.15	7640	-0.881	0.035
0.238	313.15	7640	-1.078	0.041
0.238	323.15	7640	-1.296	0.05
0.25	308.15	10000	0.076	0.01
0.25	313.15	10000	-0.063	0.01
0.25	323.15	10000	-0.357	0.018
0.277	308.15	7640	-1.025	0.039
0.277	313.15	7640	-1.2	0.046
0.277	323.15	7640	-1.512	0.057
0.29	313.15	10000	-0.076	0.011
0.29	323.15	10000	-0.488	0.023
0.314	308.15	7640	-1.132	0.043
0.328	308.15	10000	0.081	0.012
0.349	313.15	7640	-1.587	0.06
0.358	323.15	10000	-0.755	0.032
0.363	313.15	10000	-0.123	0.017
0.38	313.15	10000	-0.164	0.015
0.382	308.15	7640	-1.375	0.052
0.382	323.15	7640	-2.206	0.08
0.397	308.15	10000	0.061	0.013
0.413	308.15	7640	-1.563	0.059
0.413	313.15	7640	-1.992	0.074
0.413	323.15	7640	-2.321	0.084
0.428	308.15	10000	0.046	0.015
0.428	313.15	10000	-0.174	0.017
0.428	323.15	10000	-1.036	0.041
0.442	308.15	7640	-1.638	0.061
0.442	323.15	7640	-2.484	0.09
0.47	313.15	7640	-2.312	0.084
0.47	323.15	7640	-2.693	0.097
0.486	308.15	10000	0.018	0.016
0.486	323.15	10000	-1.261	0.048
0.492	313.15	7640	-2.416	0.089
0.497	308.15	7640	-1.82	0.068
0.513	313.15	10000	-0.272	0.026
0.522	308.15	7640	-1.95	0.072
0.522	323.15	7640	-3.034	0.109
0.526	313.15	10000	-0.311	0.025
0.538	323.15	10000	-1.495	0.057
0.546	313.15	7640	-2.793	0.102
0.548	308.15	10000	-0.031	0.017
0.562	308.15	10000	-0.038	0.019
0.562	313.15	10000	-0.343	0.025
0.562	323.15	10000	-1.602	0.06
0.569	313.15	7640	-2.915	0.105
0.569	323.15	7640	-3.258	0.116
0.585	323.15	10000	-1.684	0.063
0.591	308.15	7640	-2.228	0.082
0.591	323.15	7640	-3.344	0.119
0.596	313.15	7640	-3.157	0.115
0.613	323.15	7640	-3.478	0.124
0.627	313.15	10000	-0.441	0.031
0.627	323.15	10000	-1.828	0.068
0.633	323.15	7640	-3.632	0.129
0.652	308.15	7640	-2.427	0.089
0.652	313.15	7640	-3.481	0.126
0.652	323.15	7640	-3.641	0.13
0.666	308.15	10000	-0.148	0.021
0.666	313.15	10000	-0.494	0.032
0.666	323.15	10000	-1.98	0.072
0.671	323.15	7640	-3.419	0.123
0.697	308.15	7640	-2.65	0.097
0.697	323.15	7640	-3.16	0.114
0.71	308.15	10000	-0.206	0.023
0.71	313.15	10000	-0.586	0.036
0.722	323.15	7640	-2.903	0.105
0.738	313.15	7640	-4.005	0.144
0.738	323.15	7640	-2.727	0.099
0.75	308.15	10000	-0.256	0.024
0.75	313.15	10000	-0.629	0.037
0.75	323.15	10000	-2.305	0.083
0.753	323.15	7640	-2.564	0.094
0.775	313.15	7640	-4.215	0.151
0.775	323.15	7640	-2.338	0.086
0.785	308.15	10000	-0.312	0.027
0.785	313.15	10000	-0.724	0.04
0.801	323.15	10000	-2.446	0.087
0.808	308.15	7640	-3.134	0.114
0.808	313.15	7640	-4.318	0.154
0.808	323.15	7640	-1.975	0.074
0.818	308.15	10000	-0.378	0.028
0.818	323.15	10000	-2.527	0.09
0.839	323.15	7640	-1.649	0.063
0.845	313.15	7640	-4.483	0.163
0.868	313.15	7640	-4.123	0.156
0.868	323.15	7640	-1.364	0.055
0.875	308.15	10000	-0.44	0.031
0.875	313.15	10000	-0.83	0.041
0.875	323.15	10000	-2.624	0.094
0.878	308.15	7640	-3.407	0.123
0.894	323.15	7640	-1.074	0.047
0.918	313.15	7640	-2.58	0.106
0.918	323.15	7640	-0.798	0.04
0.923	308.15	10000	-0.439	0.031
0.923	313.15	10000	-0.834	0.035
0.923	323.15	10000	-2.559	0.094
0.94	308.15	10000	-0.412	0.032
0.962	323.15	7640	-0.357	0.028
0.964	308.15	10000	-0.336	0.032
0.964	313.15	10000	-0.611	0.027
0.97	308.15	7640	-3.549	0.128
0.972	308.15	7640	-3.522	0.127
0.972	323.15	10000	-1.714	0.077
0.983	308.15	10000	-0.207	0.032
0.985	313.15	7640	-0.64	0.048
0.986	313.15	10000	-0.349	0.023
0.986	323.15	10000	-1.017	0.108
