Measured thermophysical data. Measurement and correlation of vapor pressure of benzene and thiophene with BMIM][PF6] and [BMIM][BF4] ionic liquids
Source: Fluid Phase Equilib., 2009, 10.1016/j.fluid.2008.09.018
Compound 1: 1-butyl-3-methylimidazolium hexafluorophosphate, C8H15F6N2P, InChI=1S/C8H15N2.F6P/c1-3-4-5-10-7-6-9(2)8-10;1-7(2,3,4,5)6/h6-8H,3-5H2,1-2H3;/q+1;-1, purity 0.98%
Compound 2: 1-butyl-3-methylimidazolium tetrafluoroborate, C8H15BF4N2, InChI=1S/C8H15N2.BF4/c1-3-4-5-10-7-6-9(2)8-10;2-1(3,4)5/h6-8H,3-5H2,1-2H3;/q+1;-1, purity 0.98%
Compound 3: benzene, C6H6, InChI=1S/C6H6/c1-2-4-6-5-3-1/h1-6H
Compound 4: thiophene, C4H4S, InChI=1S/C4H4S/c1-2-4-5-3-1/h1-4H
Compound 5: cyclohexane, C6H12, InChI=1S/C6H12/c1-2-4-6-5-3-1/h1-6H2
Compound 6: propan-1-ol, C3H8O, InChI=1S/C3H8O/c1-2-3-4/h4H,2-3H2,1H3

System: propan-1-ol + cyclohexane; phases: Liquid, Gas
Property: Vapor or sublimation pressure, kPa (Liquid); method: Closed cell (Static) method
Mole fraction of cyclohexane	Temperature, K	Vapor or sublimation pressure, kPa	uncertainty
0.3999	303.39	15.1	0.3
0.3999	308.56	18.5	0.3
0.3999	313.42	22.3	0.3
0.3999	318.12	26.7	0.4
0.3999	323.18	31.6	0.4
0.3999	328.27	38.4	0.5
0.3999	333.26	45.6	0.5
0.3999	338.24	54	0.6
0.3999	343.17	64.1	0.7
0.9	303.56	17.9	0.3
0.9	308.37	21.8	0.3
0.9	313.29	26.2	0.3
0.9	318.28	31.6	0.4
0.9	323.07	37.6	0.4
0.9	328.25	45.4	0.5
0.9	333.17	54	0.6
0.9	338.26	63.7	0.7
0.9	343.19	75.6	0.8

System: benzene + 1-butyl-3-methylimidazolium tetrafluoroborate; phases: Liquid, Gas
Property: Vapor or sublimation pressure, kPa (Liquid); method: Closed cell (Static) method
Mole fraction of benzene	Temperature, K	Vapor or sublimation pressure, kPa	uncertainty
0.0997	303.46	5.1	0.9
0.0997	308.48	6.2	1.1
0.0997	313.34	7.5	1.4
0.0997	318.39	9.1	1.6
0.0997	323.17	11.2	2
0.0997	328.22	13.8	2.5
0.0997	333.26	15.9	2.8
0.0997	338.25	19	3.4
0.0997	343.17	22.8	4.1
0.2002	303.34	8.8	1.4
0.2002	308.35	11.3	1.8
0.2002	313.38	13.6	2.2
0.2002	318.16	16.4	2.6
0.2002	323.1	19.6	3.1
0.2002	328.23	23.2	3.7
0.2002	333.2	27.8	4.4
0.2002	338.29	32.9	5.2
0.2002	343.16	39	6.2
0.2999	303.27	11.9	1.7
0.2999	308.37	14.5	2
0.2999	313.46	17.6	2.5
0.2999	318.1	21.4	3
0.2999	323.12	25.7	3.6
0.2999	328.23	31	4.3
0.2999	333.28	37.2	5.2
0.2999	338.25	44	6.1
0.2999	343.15	52.2	7.2
0.4003	303.43	13.7	1.6
0.4003	308.27	17.1	2
0.4003	313.25	20.9	2.5
0.4003	318.09	26	3.1
0.4003	323.18	30.5	3.6
0.4003	328.36	36.4	4.3
0.4003	333.17	43.3	5.2
0.4003	338.18	52.8	6.3
0.4003	343.16	63.7	7.6
0.4499	303.98	15.1	1.7
0.4499	308.46	18.2	2
0.4499	313.44	22.3	2.4
0.4499	318.16	26.7	2.9
0.4499	322.98	32.6	3.6
0.4499	328.19	38.9	4.3
0.4499	333.1	47.4	5.2
0.4499	338.14	55.9	6.1
0.4499	343.17	66	7.2
0.5129	303.37	15.7	1.5
0.5129	308.46	19	1.8
0.5129	313.27	23.9	2.3
0.5129	318.11	28.7	2.8
0.5129	322.9	35	3.4
0.5129	328.16	41.1	4
0.5129	333.19	49.1	4.8
0.5129	338.17	57.8	5.6
0.5129	343.15	68.2	6.6

System: benzene + 1-butyl-3-methylimidazolium hexafluorophosphate; phases: Liquid, Gas
Property: Vapor or sublimation pressure, kPa (Liquid); method: Closed cell (Static) method
Mole fraction of benzene	Temperature, K	Vapor or sublimation pressure, kPa	uncertainty
0.1001	303.1	3.5	0.7
0.1001	308.26	4.3	0.8
0.1001	313.36	5.3	1
0.1001	318.1	6.4	1.2
0.1001	323.11	7.7	1.4
0.1001	328.2	9.4	1.7
0.1001	333.17	11.2	2
0.1001	338.19	13.4	2.4
0.1001	343.11	15.5	2.8
0.2004	303.2	6.5	1.1
0.2004	308.11	8.1	1.3
0.2004	313.08	10.1	1.6
0.2004	317.97	12.2	1.9
0.2004	322.83	14.5	2.3
0.2004	328.13	17.6	2.8
0.2004	333.05	21.3	3.4
0.2004	338.04	24.8	3.9
0.2004	342.97	29.5	4.7
0.3004	303.08	9.1	1.3
0.3004	308.05	11.3	1.6
0.3004	313.17	14.1	2
0.3004	317.9	16.8	2.3
0.3004	322.8	20.2	2.8
0.3004	328.13	24.5	3.4
0.3004	333.03	29.9	4.2
0.3004	338.05	35.1	4.9
0.3004	342.95	40.8	5.7
0.3999	303.37	11.2	1.3
0.3999	308.29	13.6	1.6
0.3999	313.25	17.4	2.1
0.3999	318.1	20.9	2.5
0.3999	323.2	25.4	3
0.3999	328.25	30.5	3.6
0.3999	333.27	36.7	4.4
0.3999	338.19	43.8	5.2
0.3999	343.17	51.6	6.1
0.5001	303.44	13.2	1.3
0.5001	308.47	16	1.6
0.5001	313.36	20.5	2
0.5001	318.17	24.5	2.4
0.5001	323.05	29.3	2.9
0.5001	328.25	35.8	3.6
0.5001	333.18	42.1	4.2
0.5001	338.19	49.5	4.9
0.5001	343.2	58.8	5.8
0.6	303.53	14.7	1.2
0.6	308.57	17.9	1.4
0.6	313.26	21.9	1.8
0.6	318.17	26.5	2.1
0.6	323.11	32.7	2.6
0.6	328.28	39.5	3.1
0.6	333.19	46.8	3.7
0.6	338.25	55.5	4.4
0.6	343.05	64.3	5.1
0.66	303.56	15.1	1
0.66	308.28	18.5	1.3
0.66	313.17	22.6	1.5
0.66	317.93	27.6	1.9
0.66	323.1	33.8	2.3
0.66	328.36	40.5	2.7
0.66	333.34	49.2	3.3
0.66	338.31	57.1	3.9
0.66	343.42	67.8	4.6

System: thiophene + 1-butyl-3-methylimidazolium tetrafluoroborate; phases: Liquid, Gas
Property: Vapor or sublimation pressure, kPa (Liquid); method: Closed cell (Static) method
Mole fraction of thiophene	Temperature, K	Vapor or sublimation pressure, kPa	uncertainty
0.1997	303.4	6	1
0.1997	308.28	7.7	1.2
0.1997	313.27	9.5	1.5
0.1997	318.14	11.7	1.9
0.1997	323.04	14.3	2.3
0.1997	328.52	17.4	2.8
0.1997	333.18	21.2	3.4
0.1997	338.16	25.2	4
0.1997	343.14	29.7	4.7
0.3997	303.38	11.2	1.4
0.3997	308.28	13.6	1.6
0.3997	313.26	16.4	2
0.3997	318.24	19.9	2.4
0.3997	323.12	24.8	3
0.3997	328.25	29.8	3.6
0.3997	333.18	36.2	4.3
0.3997	338.12	43.2	5.1
0.3997	343.24	51.3	6.1
0.5998	303.43	13.5	1.1
0.5998	308.38	16.7	1.3
0.5998	313.34	20.6	1.7
0.5998	318.07	24.6	2
0.5998	322.85	29.8	2.4
0.5998	328.12	36.3	2.9
0.5998	333.07	43.5	3.5
0.5998	337.96	52	4.1
0.5998	342.99	61.7	4.9

System: thiophene + 1-butyl-3-methylimidazolium hexafluorophosphate; phases: Liquid, Gas
Property: Vapor or sublimation pressure, kPa (Liquid); method: Closed cell (Static) method
Mole fraction of thiophene	Temperature, K	Vapor or sublimation pressure, kPa	uncertainty
0.1997	303.24	4.2	0.7
0.1997	308.18	5.3	0.9
0.1997	313.34	6.4	1
0.1997	318.07	7.8	1.3
0.1997	323.14	9.6	1.5
0.1997	328.24	11.7	1.9
0.1997	333.12	14.1	2.2
0.1997	338.32	16.9	2.7
0.1997	343.05	20.2	3.2
0.4001	303.13	7.7	0.9
0.4001	308.32	9.8	1.2
0.4001	313.33	11.9	1.4
0.4001	318.17	14.8	1.8
0.4001	322.94	17.8	2.1
0.4001	328.22	22.4	2.7
0.4001	333.15	26.6	3.2
0.4001	338.14	31.8	3.8
0.4001	342.99	37.6	4.5
0.5997	303.62	11.2	0.9
0.5997	308.44	14.1	1.1
0.5997	313.1	16.9	1.4
0.5997	317.96	20.3	1.6
0.5997	323.09	24.9	2
0.5997	328.19	30.6	2.4
0.5997	333.12	36.7	2.9
0.5997	338	43.5	3.5
0.5997	342.88	51	4.1
0.7501	303.77	12.5	0.7
0.7501	308.47	15.2	0.8
0.7501	313.24	19.5	1
0.7501	317.95	23.1	1.2
0.7501	322.96	27.8	1.4
0.7501	328.21	33.8	1.7
0.7501	332.93	39.6	2
0.7501	338.12	47.8	2.4
0.7501	342.84	56.8	2.8
