Measured thermophysical data. Thermodynamics of amide + amine mixtures. 5. Excess molar enthalpies of N,N-dimethylformamide or N,N-dimethylacetamide + N-propylpropan-1-amine, + N-butylbutan-1-amine, + butan-1-amine, or + hexan-1-amine systems at 298.15 K. Application of the ERAS model
Source: Fluid Phase Equilib., 2019, 10.1016/j.fluid.2019.112283
Compound 1: dimethylformamide, C3H7NO, InChI=1S/C3H7NO/c1-4(2)3-5/h3H,1-2H3, purity 99.96%
Compound 2: N,N-dimethylethanamide, C4H9NO, InChI=1S/C4H9NO/c1-4(6)5(2)3/h1-3H3, purity 99.9%
Compound 3: dipropylamine, C6H15N, InChI=1S/C6H15N/c1-3-5-7-6-4-2/h7H,3-6H2,1-2H3, purity 99.9%
Compound 4: dibutylamine, C8H19N, InChI=1S/C8H19N/c1-3-5-7-9-8-6-4-2/h9H,3-8H2,1-2H3, purity 99.7%
Compound 5: 1-butanamine, C4H11N, InChI=1S/C4H11N/c1-2-3-4-5/h2-5H2,1H3, purity 99.78%
Compound 6: 1-hexanamine, C6H15N, InChI=1S/C6H15N/c1-2-3-4-5-6-7/h2-7H2,1H3, purity 99.9%

System: dimethylformamide; phases: Liquid
Property: Mass density, kg/m3 (Liquid); method: Vibrating tube method
Temperature, K	Pressure, kPa	Mass density, kg/m3	uncertainty
298.15	101.325	943.78	0.21

System: N,N-dimethylethanamide; phases: Liquid
Property: Mass density, kg/m3 (Liquid); method: Vibrating tube method
Temperature, K	Pressure, kPa	Mass density, kg/m3	uncertainty
298.15	101.325	936.14	0.21

System: dipropylamine; phases: Liquid
Property: Mass density, kg/m3 (Liquid); method: Vibrating tube method
Temperature, K	Pressure, kPa	Mass density, kg/m3	uncertainty
298.15	101.325	733.37	0.24

System: dibutylamine; phases: Liquid
Property: Mass density, kg/m3 (Liquid); method: Vibrating tube method
Temperature, K	Pressure, kPa	Mass density, kg/m3	uncertainty
298.15	101.325	755.7	0.24

System: 1-butanamine; phases: Liquid
Property: Mass density, kg/m3 (Liquid); method: Vibrating tube method
Temperature, K	Pressure, kPa	Mass density, kg/m3	uncertainty
298.15	101.325	732.18	0.24

System: 1-hexanamine; phases: Liquid
Property: Mass density, kg/m3 (Liquid); method: Vibrating tube method
Temperature, K	Pressure, kPa	Mass density, kg/m3	uncertainty
298.15	101.325	760.16	0.23

System: dimethylformamide + dipropylamine; phases: Liquid
Fixed: Pressure, kPa = 101
Fixed: Temperature, K = 298.15
Property: Excess molar enthalpy (molar enthalpy of mixing), kJ/mol (Liquid); method: Flow calorimetry
Mole fraction of dimethylformamide	Excess molar enthalpy (molar enthalpy of mixing), kJ/mol	uncertainty
0.0358	0.088	0.02
0.1002	0.241	0.023
0.1512	0.351	0.027
0.1984	0.446	0.031
0.2504	0.529	0.034
0.3016	0.595	0.038
0.3483	0.657	0.041
0.4005	0.695	0.043
0.4495	0.737	0.045
0.5005	0.748	0.045
0.5505	0.753	0.046
0.6012	0.743	0.045
0.6587	0.708	0.043
0.6997	0.673	0.042
0.7518	0.613	0.039
0.7983	0.542	0.036
0.8485	0.441	0.032
0.8991	0.318	0.029
0.9504	0.17	0.025

System: dimethylformamide + dibutylamine; phases: Liquid
Fixed: Pressure, kPa = 101
Fixed: Temperature, K = 298.15
Property: Excess molar enthalpy (molar enthalpy of mixing), kJ/mol (Liquid); method: Flow calorimetry
Mole fraction of dimethylformamide	Excess molar enthalpy (molar enthalpy of mixing), kJ/mol	uncertainty
0.0491	0.188	0.032
0.1014	0.386	0.037
0.1488	0.543	0.041
0.2006	0.68	0.045
0.2482	0.782	0.05
0.3006	0.877	0.055
0.351	0.956	0.059
0.4021	1.032	0.063
0.4497	1.082	0.066
0.4982	1.113	0.067
0.5505	1.118	0.068
0.599	1.098	0.067
0.65	1.06	0.065
0.6997	1.001	0.062
0.7506	0.921	0.058
0.7994	0.815	0.053
0.8503	0.669	0.048
0.9	0.488	0.044
0.9501	0.27	0.038

System: dimethylformamide + 1-butanamine; phases: Liquid
Fixed: Pressure, kPa = 101
Fixed: Temperature, K = 298.15
Property: Excess molar enthalpy (molar enthalpy of mixing), kJ/mol (Liquid); method: Flow calorimetry
Mole fraction of dimethylformamide	Excess molar enthalpy (molar enthalpy of mixing), kJ/mol	uncertainty
0.051	0.089	0.014
0.1009	0.166	0.015
0.1496	0.226	0.017
0.1703	0.247	0.017
0.2005	0.279	0.018
0.2498	0.32	0.02
0.3007	0.352	0.022
0.3496	0.373	0.023
0.4008	0.391	0.024
0.4508	0.393	0.024
0.5008	0.384	0.023
0.5463	0.374	0.023
0.6008	0.355	0.022
0.6463	0.326	0.02
0.7011	0.289	0.019
0.7559	0.245	0.016
0.8005	0.208	0.015
0.8495	0.158	0.013
0.9003	0.106	0.01
0.9519	0.055	0.009

System: dimethylformamide + 1-hexanamine; phases: Liquid
Fixed: Pressure, kPa = 101
Fixed: Temperature, K = 298.15
Property: Excess molar enthalpy (molar enthalpy of mixing), kJ/mol (Liquid); method: Flow calorimetry
Mole fraction of dimethylformamide	Excess molar enthalpy (molar enthalpy of mixing), kJ/mol	uncertainty
0.0514	0.118	0.018
0.1007	0.219	0.021
0.1516	0.318	0.024
0.2009	0.394	0.026
0.2522	0.461	0.03
0.3006	0.533	0.034
0.3519	0.586	0.036
0.4007	0.619	0.038
0.4518	0.648	0.039
0.5003	0.661	0.04
0.5505	0.659	0.04
0.5982	0.648	0.039
0.6507	0.615	0.038
0.7002	0.569	0.035
0.7503	0.51	0.033
0.8005	0.441	0.029
0.8506	0.354	0.027
0.8995	0.246	0.023
0.9502	0.129	0.02

System: N,N-dimethylethanamide + dipropylamine; phases: Liquid
Fixed: Pressure, kPa = 101
Fixed: Temperature, K = 298.15
Property: Excess molar enthalpy (molar enthalpy of mixing), kJ/mol (Liquid); method: Flow calorimetry
Mole fraction of N,N-dimethylethanamide	Excess molar enthalpy (molar enthalpy of mixing), kJ/mol	uncertainty
0.0597	0.098	0.015
0.0996	0.166	0.016
0.1496	0.235	0.018
0.2011	0.3	0.021
0.2497	0.358	0.023
0.3009	0.399	0.025
0.3462	0.435	0.027
0.4062	0.477	0.029
0.4491	0.495	0.03
0.5035	0.514	0.031
0.5497	0.519	0.031
0.5972	0.509	0.031
0.6495	0.493	0.03
0.6975	0.473	0.029
0.7478	0.437	0.027
0.8009	0.385	0.025
0.8504	0.318	0.023
0.8989	0.239	0.021
0.9368	0.156	0.02
0.9507	0.126	0.019

System: N,N-dimethylethanamide + dibutylamine; phases: Liquid
Fixed: Pressure, kPa = 101
Fixed: Temperature, K = 298.15
Property: Excess molar enthalpy (molar enthalpy of mixing), kJ/mol (Liquid); method: Flow calorimetry
Mole fraction of N,N-dimethylethanamide	Excess molar enthalpy (molar enthalpy of mixing), kJ/mol	uncertainty
0.0499	0.15	0.023
0.0976	0.276	0.026
0.151	0.405	0.031
0.1969	0.503	0.034
0.3002	0.673	0.042
0.3526	0.732	0.045
0.3983	0.774	0.047
0.4472	0.807	0.049
0.5507	0.832	0.05
0.6007	0.825	0.05
0.6477	0.803	0.049
0.6968	0.756	0.047
0.8004	0.618	0.04
0.8512	0.508	0.036
0.9019	0.371	0.033
0.9507	0.203	0.03
0.2472	0.59	0.038
0.5007	0.833	0.05
0.7481	0.698	0.044

System: N,N-dimethylethanamide + 1-butanamine; phases: Liquid
Fixed: Pressure, kPa = 101
Fixed: Temperature, K = 298.15
Property: Excess molar enthalpy (molar enthalpy of mixing), kJ/mol (Liquid); method: Flow calorimetry
Mole fraction of N,N-dimethylethanamide	Excess molar enthalpy (molar enthalpy of mixing), kJ/mol	uncertainty
0.0498	0.048	0.007
0.0992	0.089	0.008
0.1518	0.123	0.009
0.1985	0.152	0.01
0.2512	0.165	0.01
0.3004	0.189	0.012
0.3493	0.202	0.012
0.4015	0.207	0.013
0.4508	0.209	0.013
0.5005	0.208	0.013
0.5509	0.201	0.012
0.6005	0.195	0.012
0.7008	0.16	0.01
0.7995	0.12	0.008
0.8502	0.094	0.007
0.9002	0.064	0.006
0.9594	0.027	0.005

System: N,N-dimethylethanamide + 1-hexanamine; phases: Liquid
Fixed: Pressure, kPa = 101
Fixed: Temperature, K = 298.15
Property: Excess molar enthalpy (molar enthalpy of mixing), kJ/mol (Liquid); method: Flow calorimetry
Mole fraction of N,N-dimethylethanamide	Excess molar enthalpy (molar enthalpy of mixing), kJ/mol	uncertainty
0.0509	0.071	0.012
0.1005	0.141	0.013
0.1507	0.196	0.015
0.1994	0.244	0.017
0.2488	0.295	0.019
0.3018	0.338	0.021
0.3484	0.369	0.023
0.398	0.402	0.025
0.4502	0.419	0.025
0.5006	0.423	0.026
0.5493	0.424	0.026
0.6002	0.416	0.025
0.6492	0.401	0.025
0.7001	0.375	0.023
0.7491	0.341	0.022
0.7996	0.296	0.02
0.8513	0.238	0.018
0.9008	0.171	0.016
0.9503	0.091	0.014
