Measured thermophysical data. Volumetric properties of ionic liquids, 1-Ethyl-3-ethylimidazolium chloride [Emim][Cl] and 1-ethyl-3-methylimidazolium hydrogen sulfate [Emim][HSO4] in sucrose aqueous solutions at T = (293.15 to 313.15) K and ambient pressure
Source: Fluid Phase Equilib., 2016, 10.1016/j.fluid.2016.05.024
Compound 1: 1-ethyl-3-methylimidazolium chloride, C6H11ClN2, InChI=1S/C6H11N2.ClH/c1-3-8-5-4-7(2)6-8;/h4-6H,3H2,1-2H3;1H/q+1;/p-1, purity 98%
Compound 2: 1-ethyl-3-methylimidazolium hydrogen sulfate, C6H12N2O4S, InChI=1S/C6H11N2.H2O4S/c1-3-8-5-4-7(2)6-8;1-5(2,3)4/h4-6H,3H2,1-2H3;(H2,1,2,3,4)/q+1;/p-1, purity 98%
Compound 3: D-sucrose, C12H22O11, InChI=1S/C12H22O11/c13-1-4-6(16)8(18)9(19)11(21-4)23-12(3-15)10(20)7(17)5(2-14)22-12/h4-11,13-20H,1-3H2/t4-,5-,6-,7-,8+,9-,10+,11-,12+/m1/s1, purity 99.5%
Compound 4: water, H2O, InChI=1S/H2O/h1H2, purity 99.9%

System: water + 1-ethyl-3-methylimidazolium chloride; phases: Liquid
Fixed: Pressure, kPa = 87
Property: Mass density, kg/m3 (Liquid); method: Vibrating tube method
Temperature, K	Molality, mol/kg of 1-ethyl-3-methylimidazolium chloride	Mass density, kg/m3	uncertainty
293.15	0.0532	998.82	1
293.15	0.1024	999.41	1
293.15	0.1528	1000.01	1
293.15	0.2049	1000.63	1
293.15	0.2529	1001.2	1
293.15	0.3082	1001.84	1
293.15	0.3571	1002.41	1
293.15	0.4077	1002.99	1
293.15	0.459	1003.56	1
293.15	0.5026	1004.05	1
298.15	0.0532	997.66	1
298.15	0.1024	998.23	1
298.15	0.1528	998.82	1
298.15	0.2049	999.43	1
298.15	0.2529	999.98	1
298.15	0.3082	1000.61	1
298.15	0.3571	1001.17	1
298.15	0.4077	1001.73	1
298.15	0.459	1002.29	1
298.15	0.5026	1002.77	1
303.15	0.0532	996.25	1
303.15	0.1024	996.81	1
303.15	0.1528	997.39	1
303.15	0.2049	997.98	1
303.15	0.2529	998.52	1
303.15	0.3082	999.14	1
303.15	0.3571	999.68	1
303.15	0.4077	1000.24	1
303.15	0.459	1000.79	1
303.15	0.5026	1001.26	1
308.15	0.0532	994.62	1
308.15	0.1024	995.17	1
308.15	0.1528	995.74	1
308.15	0.2049	996.32	1
308.15	0.2529	996.85	1
308.15	0.3082	997.46	1
308.15	0.3571	997.99	1
308.15	0.4077	998.53	1
308.15	0.459	999.08	1
308.15	0.5026	999.54	1
313.15	0.0532	992.79	1
313.15	0.1024	993.34	1
313.15	0.1528	993.9	1
313.15	0.2049	994.48	1
313.15	0.2529	995.01	1
313.15	0.3082	995.61	1
313.15	0.3571	996.13	1
313.15	0.4077	996.67	1
313.15	0.459	997.21	1
313.15	0.5026	997.67	1

System: water + 1-ethyl-3-methylimidazolium hydrogen sulfate; phases: Liquid
Fixed: Pressure, kPa = 87
Property: Mass density, kg/m3 (Liquid); method: Vibrating tube method
Temperature, K	Molality, mol/kg of 1-ethyl-3-methylimidazolium hydrogen sulfate	Mass density, kg/m3	uncertainty
293.15	0.0528	1000.86	1
293.15	0.1003	1003.08	1
293.15	0.1503	1005.3	1
293.15	0.2034	1007.57	1
293.15	0.253	1009.63	1
293.15	0.303	1011.67	1
293.15	0.3548	1013.72	1
293.15	0.4046	1015.68	1
293.15	0.453	1017.53	1
293.15	0.5055	1019.54	1
298.15	0.0528	999.65	1
298.15	0.1003	1001.82	1
298.15	0.1503	1003.99	1
298.15	0.2034	1006.22	1
298.15	0.253	1008.23	1
298.15	0.303	1010.23	1
298.15	0.3548	1012.24	1
298.15	0.4046	1014.17	1
298.15	0.453	1016	1
298.15	0.5055	1017.98	1
303.15	0.0528	998.2	1
303.15	0.1003	1000.33	1
303.15	0.1503	1002.46	1
303.15	0.2034	1004.64	1
303.15	0.253	1006.63	1
303.15	0.303	1008.6	1
303.15	0.3548	1010.58	1
303.15	0.4046	1012.47	1
303.15	0.453	1014.26	1
303.15	0.5055	1016.21	1
308.15	0.0528	996.54	1
308.15	0.1003	998.63	1
308.15	0.1503	1000.73	1
308.15	0.2034	1002.87	1
308.15	0.253	1004.82	1
308.15	0.303	1006.76	1
308.15	0.3548	1008.7	1
308.15	0.4046	1010.58	1
308.15	0.453	1012.34	1
308.15	0.5055	1014.25	1
313.15	0.0528	994.68	1
313.15	0.1003	996.73	1
313.15	0.1503	998.8	1
313.15	0.2034	1000.91	1
313.15	0.253	1002.83	1
313.15	0.303	1004.74	1
313.15	0.3548	1006.66	1
313.15	0.4046	1008.5	1
313.15	0.453	1010.24	1
313.15	0.5055	1012.13	1

System: D-sucrose + water + 1-ethyl-3-methylimidazolium chloride; phases: Liquid
Fixed: Pressure, kPa = 87
Property: Mass density, kg/m3 (Liquid); method: Vibrating tube method
Temperature, K	Molality, mol/kg of 1-ethyl-3-methylimidazolium chloride	Solvent: Mass fraction of D-sucrose	Mass density, kg/m3	uncertainty
293.15	0.0516	0.05	1012.52	3.73
293.15	0.1007	0.05	1013.13	1.02
293.15	0.1513	0.05	1013.73	6.18
293.15	0.2095	0.05	1014.39	1.69
293.15	0.2535	0.05	1014.88	3.9
293.15	0.309	0.05	1015.48	2.74
293.15	0.3715	0.05	1016.16	1.02
293.15	0.408	0.05	1016.55	8.26
293.15	0.4631	0.05	1017.14	3.74
293.15	0.5125	0.05	1017.66	1.97
298.15	0.0516	0.05	1011.28	3.72
298.15	0.1007	0.05	1011.88	1.02
298.15	0.1513	0.05	1012.47	6.16
298.15	0.2095	0.05	1013.12	1.68
298.15	0.2535	0.05	1013.6	3.89
298.15	0.309	0.05	1014.19	2.73
298.15	0.3715	0.05	1014.87	1.01
298.15	0.408	0.05	1015.26	8.23
298.15	0.4631	0.05	1015.84	3.73
298.15	0.5125	0.05	1016.36	1.97
303.15	0.0516	0.05	1009.8	3.7
303.15	0.1007	0.05	1010.4	1.02
303.15	0.1513	0.05	1010.98	6.13
303.15	0.2095	0.05	1011.62	1.68
303.15	0.2535	0.05	1012.1	3.87
303.15	0.309	0.05	1012.68	2.71
303.15	0.3715	0.05	1013.34	1.01
303.15	0.408	0.05	1013.71	8.18
303.15	0.4631	0.05	1014.28	3.7
303.15	0.5125	0.05	1014.78	1.96
308.15	0.0516	0.05	1008.14	3.69
308.15	0.1007	0.05	1008.73	1.02
308.15	0.1513	0.05	1009.3	6.1
308.15	0.2095	0.05	1009.92	1.67
308.15	0.2535	0.05	1010.39	3.85
308.15	0.309	0.05	1010.96	2.7
308.15	0.3715	0.05	1011.61	1.01
308.15	0.408	0.05	1011.99	8.13
308.15	0.4631	0.05	1012.55	3.68
308.15	0.5125	0.05	1013.04	1.95
313.15	0.0516	0.05	1006.25	3.66
313.15	0.1007	0.05	1006.83	1.02
313.15	0.1513	0.05	1007.4	6.06
313.15	0.2095	0.05	1008.02	1.66
313.15	0.2535	0.05	1008.48	3.83
313.15	0.309	0.05	1009.06	2.69
313.15	0.3715	0.05	1009.69	1.01
313.15	0.408	0.05	1010.06	8.06
313.15	0.4631	0.05	1010.62	3.65
313.15	0.5125	0.05	1011.12	1.94
293.15	0.0549	0.1	1026.55	1.98
293.15	0.0985	0.1	1027.15	2.74
293.15	0.1522	0.1	1027.85	3.02
293.15	0.2053	0.1	1028.52	1.69
293.15	0.2537	0.1	1029.1	2.3
293.15	0.3041	0.1	1029.7	1.54
293.15	0.3554	0.1	1030.3	7.59
293.15	0.4073	0.1	1030.9	8.26
293.15	0.4615	0.1	1031.52	1.26
293.15	0.5091	0.1	1032.05	1.03
298.15	0.0549	0.1	1025.22	1.96
298.15	0.0985	0.1	1025.81	2.72
298.15	0.1522	0.1	1026.5	3.59
298.15	0.2053	0.1	1027.15	1.67
298.15	0.2537	0.1	1027.72	2.3
298.15	0.3041	0.1	1028.3	1.53
298.15	0.3554	0.1	1028.88	7.58
298.15	0.4073	0.1	1029.47	8.15
298.15	0.4615	0.1	1030.09	1.38
298.15	0.5091	0.1	1030.63	1.03
303.15	0.0549	0.1	1023.69	1.96
303.15	0.0985	0.1	1024.27	2.71
303.15	0.1522	0.1	1024.94	3.55
303.15	0.2053	0.1	1025.58	1.67
303.15	0.2537	0.1	1026.14	2.29
303.15	0.3041	0.1	1026.71	1.53
303.15	0.3554	0.1	1027.28	7.56
303.15	0.4073	0.1	1027.85	8.11
303.15	0.4615	0.1	1028.46	1.38
303.15	0.5091	0.1	1028.99	1.03
308.15	0.0549	0.1	1021.95	1.95
308.15	0.0985	0.1	1022.51	2.69
308.15	0.1522	0.1	1023.17	3.54
308.15	0.2053	0.1	1023.79	1.66
308.15	0.2537	0.1	1024.34	2.28
308.15	0.3041	0.1	1024.9	1.52
308.15	0.3554	0.1	1025.46	7.53
308.15	0.4073	0.1	1026.03	8.06
308.15	0.4615	0.1	1026.63	1.43
308.15	0.5091	0.1	1027.15	1.03
313.15	0.0549	0.1	1020.03	1.95
313.15	0.0985	0.1	1020.59	2.7
313.15	0.1522	0.1	1021.24	2.98
313.15	0.2053	0.1	1021.85	1.66
313.15	0.2537	0.1	1022.39	2.27
313.15	0.3041	0.1	1022.94	1.52
313.15	0.3554	0.1	1023.5	7.48
313.15	0.4073	0.1	1024.05	8.06
313.15	0.4615	0.1	1024.63	1.39
313.15	0.5091	0.1	1025.14	1.03
293.15	0.0548	0.15	1041.24	3.74
293.15	0.1039	0.15	1041.97	3.75
293.15	0.1532	0.15	1042.68	6.18
293.15	0.2096	0.15	1043.45	1.76
293.15	0.2566	0.15	1044.08	2.3
293.15	0.3044	0.15	1044.7	2.74
293.15	0.3546	0.15	1045.34	7.59
293.15	0.4182	0.15	1046.13	1.54
293.15	0.4603	0.15	1046.65	5.15
293.15	0.5078	0.15	1047.23	4.78
298.15	0.0548	0.15	1039.84	1.02
298.15	0.1039	0.15	1040.56	3.72
298.15	0.1532	0.15	1041.25	6.13
298.15	0.2096	0.15	1042	1.17
298.15	0.2566	0.15	1042.61	2.28
298.15	0.3044	0.15	1043.22	2.72
298.15	0.3546	0.15	1043.85	7.52
298.15	0.4182	0.15	1044.63	1.54
298.15	0.4603	0.15	1045.14	5.1
298.15	0.5078	0.15	1045.71	4.73
303.15	0.0548	0.15	1038.22	1.02
303.15	0.1039	0.15	1038.93	3.7
303.15	0.1532	0.15	1039.61	6.1
303.15	0.2096	0.15	1040.35	1.05
303.15	0.2566	0.15	1040.96	2.28
303.15	0.3044	0.15	1041.56	2.7
303.15	0.3546	0.15	1042.18	7.49
303.15	0.4182	0.15	1042.95	1.53
303.15	0.4603	0.15	1043.44	5.08
303.15	0.5078	0.15	1044	4.72
308.15	0.0548	0.15	1036.41	1.02
308.15	0.1039	0.15	1037.11	3.68
308.15	0.1532	0.15	1037.78	6.07
308.15	0.2096	0.15	1038.52	1.17
308.15	0.2566	0.15	1039.12	2.27
308.15	0.3044	0.15	1039.72	2.7
308.15	0.3546	0.15	1040.34	7.48
308.15	0.4182	0.15	1041.11	1.53
308.15	0.4603	0.15	1041.6	5.07
308.15	0.5078	0.15	1042.16	4.71
313.15	0.0548	0.15	1034.42	3.67
313.15	0.1039	0.15	1035.11	3.68
313.15	0.1532	0.15	1035.78	6.06
313.15	0.2096	0.15	1036.51	1.73
313.15	0.2566	0.15	1037.11	2.27
313.15	0.3044	0.15	1037.71	2.69
313.15	0.3546	0.15	1038.33	7.48
313.15	0.4182	0.15	1039.08	1.53
313.15	0.4603	0.15	1039.59	5.09
313.15	0.5078	0.15	1040.15	4.73

System: D-sucrose + water + 1-ethyl-3-methylimidazolium hydrogen sulfate; phases: Liquid
Fixed: Pressure, kPa = 87
Property: Mass density, kg/m3 (Liquid); method: Vibrating tube method
Temperature, K	Molality, mol/kg of 1-ethyl-3-methylimidazolium hydrogen sulfate	Solvent: Mass fraction of D-sucrose	Mass density, kg/m3	uncertainty
293.15	0.0564	0.05	1014.73	1.39
293.15	0.101	0.05	1016.87	7.28
293.15	0.1559	0.05	1019.39	5.81
293.15	0.2011	0.05	1021.38	3.98
293.15	0.2527	0.05	1023.61	10.76
293.15	0.308	0.05	1025.98	3.56
293.15	0.3473	0.05	1027.63	1.36
293.15	0.3957	0.05	1029.64	1.35
293.15	0.4516	0.05	1031.95	5.03
293.15	0.4959	0.05	1033.75	2.65
298.15	0.0564	0.05	1013.43	1.39
298.15	0.101	0.05	1015.53	7.26
298.15	0.1559	0.05	1018	5.81
298.15	0.2011	0.05	1019.97	3.98
298.15	0.2527	0.05	1022.15	10.71
298.15	0.308	0.05	1024.47	3.56
298.15	0.3473	0.05	1026.09	1.36
298.15	0.3957	0.05	1028.07	1.35
298.15	0.4516	0.05	1030.32	5.02
298.15	0.4959	0.05	1032.07	2.65
303.15	0.0564	0.05	1011.91	1.39
303.15	0.101	0.05	1013.97	7.22
303.15	0.1559	0.05	1016.39	5.78
303.15	0.2011	0.05	1018.31	3.96
303.15	0.2527	0.05	1020.46	10.66
303.15	0.308	0.05	1022.74	3.54
303.15	0.3473	0.05	1024.34	1.36
303.15	0.3957	0.05	1026.28	1.34
303.15	0.4516	0.05	1028.51	5
303.15	0.4959	0.05	1030.25	2.63
308.15	0.0564	0.05	1010.19	1.38
308.15	0.101	0.05	1012.21	7.19
308.15	0.1559	0.05	1014.58	5.76
308.15	0.2011	0.05	1016.47	3.94
308.15	0.2527	0.05	1018.59	10.6
308.15	0.308	0.05	1020.83	3.53
308.15	0.3473	0.05	1022.4	1.35
308.15	0.3957	0.05	1024.31	1.34
308.15	0.4516	0.05	1026.51	4.97
308.15	0.4959	0.05	1028.21	2.62
313.15	0.0564	0.05	1008.25	1.38
313.15	0.101	0.05	1010.24	7.15
313.15	0.1559	0.05	1012.59	5.71
313.15	0.2011	0.05	1014.47	3.91
313.15	0.2527	0.05	1016.56	10.53
313.15	0.308	0.05	1018.75	3.51
313.15	0.3473	0.05	1020.3	1.35
313.15	0.3957	0.05	1022.18	1.34
313.15	0.4516	0.05	1024.35	4.95
313.15	0.4959	0.05	1026.04	2.6
293.15	0.0506	0.1	1028.47	1.39
293.15	0.1005	0.1	1030.98	1.1
293.15	0.1569	0.1	1033.7	5.81
293.15	0.2026	0.1	1035.81	1.03
293.15	0.2517	0.1	1038.05	5.86
293.15	0.3063	0.1	1040.49	3.56
293.15	0.3539	0.1	1042.58	4.48
293.15	0.4025	0.1	1044.69	1.02
293.15	0.4504	0.1	1046.73	5.03
293.15	0.5022	0.1	1048.92	4.87
298.15	0.0506	0.1	1027.1	1.38
298.15	0.1005	0.1	1029.57	1.13
298.15	0.1569	0.1	1032.23	5.76
298.15	0.2026	0.1	1034.31	1.04
298.15	0.2517	0.1	1036.5	5.8
298.15	0.3063	0.1	1038.89	3.53
298.15	0.3539	0.1	1040.93	4.47
298.15	0.4025	0.1	1043	1.02
298.15	0.4504	0.1	1045.02	4.99
298.15	0.5022	0.1	1047.16	4.86
303.15	0.0506	0.1	1025.53	1.38
303.15	0.1005	0.1	1027.95	1.12
303.15	0.1569	0.1	1030.56	5.73
303.15	0.2026	0.1	1032.6	1.04
303.15	0.2517	0.1	1034.75	5.78
303.15	0.3063	0.1	1037.11	3.52
303.15	0.3539	0.1	1039.11	4.44
303.15	0.4025	0.1	1041.15	1.02
303.15	0.4504	0.1	1043.14	4.96
303.15	0.5022	0.1	1045.23	4.83
308.15	0.0506	0.1	1023.75	1.38
308.15	0.1005	0.1	1026.13	1.11
308.15	0.1569	0.1	1028.7	5.71
308.15	0.2026	0.1	1030.7	1.04
308.15	0.2517	0.1	1032.82	5.76
308.15	0.3063	0.1	1035.13	3.5
308.15	0.3539	0.1	1037.11	4.42
308.15	0.4025	0.1	1039.11	1.02
308.15	0.4504	0.1	1041.06	4.95
308.15	0.5022	0.1	1043.14	4.79
313.15	0.0506	0.1	1021.78	1.38
313.15	0.1005	0.1	1024.12	1.08
313.15	0.1569	0.1	1026.65	5.72
313.15	0.2026	0.1	1028.63	1.03
313.15	0.2517	0.1	1030.72	5.75
313.15	0.3063	0.1	1033.01	3.51
313.15	0.3539	0.1	1034.97	4.37
313.15	0.4025	0.1	1036.96	1.02
313.15	0.4504	0.1	1038.89	4.95
313.15	0.5022	0.1	1040.94	4.74
293.15	0.0503	0.15	1043.16	2.12
293.15	0.0994	0.15	1045.7	7.28
293.15	0.156	0.15	1048.5	6.67
293.15	0.2055	0.15	1050.89	2.32
293.15	0.2516	0.15	1053.07	10.76
293.15	0.3063	0.15	1055.6	7.05
293.15	0.3553	0.15	1057.85	4.48
293.15	0.4046	0.15	1060.09	3.11
293.15	0.4507	0.15	1062.17	13.47
293.15	0.5009	0.15	1064.4	1.02
298.15	0.0503	0.15	1041.72	2.11
298.15	0.0994	0.15	1044.2	7.22
298.15	0.156	0.15	1046.93	1.25
298.15	0.2055	0.15	1049.27	2.29
298.15	0.2516	0.15	1051.4	1.07
298.15	0.3063	0.15	1053.89	1.04
298.15	0.3553	0.15	1056.09	4.44
298.15	0.4046	0.15	1058.29	3.08
298.15	0.4507	0.15	1060.34	13.36
298.15	0.5009	0.15	1062.55	1.02
303.15	0.0503	0.15	1040.06	2.1
303.15	0.0994	0.15	1042.5	7.19
303.15	0.156	0.15	1045.19	1.03
303.15	0.2055	0.15	1047.49	2.28
303.15	0.2516	0.15	1049.58	1.07
303.15	0.3063	0.15	1052.03	1.03
303.15	0.3553	0.15	1054.18	4.41
303.15	0.4046	0.15	1056.34	3.06
303.15	0.4507	0.15	1058.34	13.27
303.15	0.5009	0.15	1060.51	1.02
308.15	0.0503	0.15	1038.21	2.1
308.15	0.0994	0.15	1040.6	7.16
308.15	0.156	0.15	1043.25	1.02
308.15	0.2055	0.15	1045.5	2.28
308.15	0.2516	0.15	1047.56	1.06
308.15	0.3063	0.15	1049.97	1.03
308.15	0.3553	0.15	1052.1	4.39
308.15	0.4046	0.15	1054.22	3.04
308.15	0.4507	0.15	1056.18	13.21
308.15	0.5009	0.15	1058.32	1.02
313.15	0.0503	0.15	1036.2	2.1
313.15	0.0994	0.15	1038.55	7.15
313.15	0.156	0.15	1041.15	6.53
313.15	0.2055	0.15	1043.36	2.27
313.15	0.2516	0.15	1045.38	10.53
313.15	0.3063	0.15	1047.74	6.9
313.15	0.3553	0.15	1049.84	4.37
313.15	0.4046	0.15	1051.93	3.03
313.15	0.4507	0.15	1053.88	13.16
313.15	0.5009	0.15	1055.97	1.02
