Measured thermophysical data. Measurement and prediction of densities, viscosities, and surface tensions for aqueous solutions of potassium citrate
Source: Fluid Phase Equilib., 2012, 10.1016/j.fluid.2012.05.007
Compound 1: water, H2O, InChI=1S/H2O/h1H2, purity 99.9%
Compound 2: potassium citrate, C6H5K3O7, InChI=1S/C6H8O7.3K/c7-3(8)1-6(13,5(11)12)2-4(9)10;;;/h13H,1-2H2,(H,7,8)(H,9,10)(H,11,12);;;/q;3*+1/p-3, purity 99%
Compound 3: N-methyldiethanolamine, C5H13NO2, InChI=1S/C5H13NO2/c1-6(2-4-7)3-5-8/h7-8H,2-5H2,1H3, purity 99%

System: water; phases: Liquid, Air at 1 atmosphere
Property: Surface tension liquid-gas, N/m (Liquid); method: Pendant drop shape
Temperature, K	Surface tension liquid-gas, N/m	uncertainty
288.15	0.07516	0.00263

System: water; phases: Liquid
Property: Viscosity, Pa*s (Liquid); method: Capillary tube (Ostwald; Ubbelohde) method
Temperature, K	Pressure, kPa	Viscosity, Pa*s	uncertainty
288.15	101	0.001144	1.3e-05

System: water; phases: Liquid
Property: Mass density, kg/m3 (Liquid); method: Pycnometric method
Temperature, K	Pressure, kPa	Mass density, kg/m3	uncertainty
288.15	101	999	1

System: N-methyldiethanolamine + water; phases: Liquid, Air at 1 atmosphere
Fixed: Temperature, K = 313.15
Property: Surface tension liquid-gas, N/m (Liquid); method: Pendant drop shape
Mass fraction of N-methyldiethanolamine	Surface tension liquid-gas, N/m	uncertainty
0.1	0.05871	0.00206
0.2	0.05468	0.00192

System: N-methyldiethanolamine + water; phases: Liquid
Fixed: Pressure, kPa = 101
Property: Viscosity, Pa*s (Liquid); method: Capillary tube (Ostwald; Ubbelohde) method
Temperature, K	Mass fraction of N-methyldiethanolamine	Viscosity, Pa*s	uncertainty
288.15	0.1	0.001711	2e-05
288.15	0.2	0.002631	3e-05
313.15	0.1	0.000905	1.1e-05
313.15	0.2	0.001312	1.6e-05

System: N-methyldiethanolamine + water; phases: Liquid
Fixed: Pressure, kPa = 101
Property: Mass density, kg/m3 (Liquid); method: Pycnometric method
Temperature, K	Mass fraction of N-methyldiethanolamine	Mass density, kg/m3	uncertainty
288.15	0.1	1007.1	1
288.15	0.2	1017.5	1
313.15	0.1	1001.1	1
313.15	0.2	1008.1	1

System: potassium citrate + water; phases: Liquid, Air at 1 atmosphere
Fixed: Temperature, K = 293.15
Property: Surface tension liquid-gas, N/m (Liquid); method: Pendant drop shape
Molality, mol/kg of potassium citrate	Surface tension liquid-gas, N/m	uncertainty
0.45	0.07149	0.0025
0.83	0.07575	0.00265
1.16	0.07908	0.00276
1.48	0.0811	0.00284

System: potassium citrate + water; phases: Liquid
Fixed: Pressure, kPa = 101
Property: Viscosity, Pa*s (Liquid); method: Capillary tube (Ostwald; Ubbelohde) method
Temperature, K	Molality, mol/kg of potassium citrate	Viscosity, Pa*s	uncertainty
293.15	0.45	0.001342	1.6e-05
293.15	0.83	0.001891	2.2e-05
293.15	1.16	0.002933	3.5e-05
293.15	1.48	0.004989	5.8e-05
303.15	0.45	0.00105	1.2e-05
303.15	0.83	0.001448	1.7e-05
303.15	1.16	0.002205	2.6e-05
303.15	1.48	0.00356	4.2e-05
313.15	0.45	0.000845	1e-05
313.15	0.83	0.001127	1.3e-05
313.15	1.16	0.001644	1.9e-05
313.15	1.48	0.002597	3.1e-05
323.15	0.45	0.000695	8e-06
323.15	0.83	0.000925	1.1e-05
323.15	1.16	0.001291	1.5e-05
323.15	1.48	0.001986	2.4e-05

System: potassium citrate + water; phases: Liquid
Fixed: Pressure, kPa = 101
Property: Mass density, kg/m3 (Liquid); method: Pycnometric method
Temperature, K	Molality, mol/kg of potassium citrate	Mass density, kg/m3	uncertainty
293.15	0.45	1117.7	1.2
293.15	0.83	1201.1	1.3
293.15	1.16	1294.6	1.4
293.15	1.48	1355.7	1.4
303.15	0.45	1112.9	1.2
303.15	0.83	1197.2	1.3
303.15	1.16	1282.5	1.4
303.15	1.48	1343.2	1.4
313.15	0.45	1107.8	1.2
313.15	0.83	1193.4	1.3
313.15	1.16	1274.6	1.4
313.15	1.48	1331.9	1.4
323.15	0.45	1104.3	1.2
323.15	0.83	1190.3	1.3
323.15	1.16	1263.7	1.4
323.15	1.48	1322.8	1.4
