Measured thermophysical data. Effect of piperazine on solubility of carbon dioxide using aqueous diethanolamnie
Source: Fluid Phase Equilib., 2016, 10.1016/j.fluid.2015.12.056
Compound 1: piperazine, C4H10N2, InChI=1S/C4H10N2/c1-2-6-4-3-5-1/h5-6H,1-4H2, purity 99%
Compound 2: diethanolamine, C4H11NO2, InChI=1S/C4H11NO2/c6-3-1-5-2-4-7/h5-7H,1-4H2, purity 99.5%
Compound 3: water, H2O, InChI=1S/H2O/h1H2, purity 99.5%
Compound 4: carbon dioxide, CO2, InChI=1S/CO2/c2-1-3, purity 99.8%

System: piperazine + carbon dioxide + water; phases: Liquid, Gas
Fixed: Solvent: Amount concentration (molarity), mol/dm3 of piperazine = 1
Property: Mole fraction of carbon dioxide (Liquid); method: Titration method
Temperature, K	Pressure, kPa of carbon dioxide	Mole fraction of carbon dioxide	uncertainty
353.15	0.55	0.16	0.01
353.15	5.59	0.31	0.01
353.15	27.23	0.43	0.01
353.15	55.13	0.46	0.01
333.15	0.83	0.3	0.01
333.15	8.34	0.41	0.01
333.15	41.2	0.48	0.01
333.15	82.73	0.51	0.01
313.15	0.96	0.39	0.01
313.15	9.58	0.48	0.01
313.15	47.39	0.53	0.01
313.15	95.11	0.5	0.01

System: diethanolamine + carbon dioxide + water; phases: Liquid, Gas
Fixed: Solvent: Amount concentration (molarity), mol/dm3 of diethanolamine = 2
Property: Mole fraction of carbon dioxide (Liquid); method: Titration method
Temperature, K	Pressure, kPa of carbon dioxide	Mole fraction of carbon dioxide	uncertainty
353.15	0.056	0.03	0.02
353.15	0.55	0.1	0.02
353.15	5.54	0.24	0.01
353.15	41.45	0.4	0.01
353.15	55.64	0.47	0.01
333.15	0.083	0.07	0.03
333.15	0.83	0.21	0.04
333.15	8.3	0.42	0.01
333.15	41.62	0.58	0.01
333.15	83.4	0.68	0.01
313.15	0.062	0.09	0.05
313.15	0.96	0.35	0.05
313.15	9.59	0.57	0.01
313.15	47.88	0.72	0.01
313.15	95.61	0.8	0.01
