Measured thermophysical data. Vapor liquid equilibrium in the system ethane + ethylene glycol
Source: Fluid Phase Equilib., 2006, 10.1016/j.fluid.2005.12.032
Compound 1: 1,2-ethanediol, C2H6O2, InChI=1S/C2H6O2/c3-1-2-4/h3-4H,1-2H2
Compound 2: ethane, C2H6, InChI=1S/C2H6/c1-2/h1-2H3

System: ethane + 1,2-ethanediol; phases: Liquid mixture 1, Liquid mixture 2, Gas
Property: Vapor or sublimation pressure, kPa (Liquid mixture 1); method: Closed cell (Static) method
Temperature, K	Vapor or sublimation pressure, kPa	uncertainty
298.15	4210	30

System: ethane + 1,2-ethanediol; phases: Liquid mixture 1, Liquid mixture 2, Gas
Property: Mole fraction of ethane (Liquid mixture 1); method: Chromatography
Temperature, K	Mole fraction of ethane	uncertainty
298.15	0.0164	0.001

System: ethane + 1,2-ethanediol; phases: Liquid, Gas
Property: Mole fraction of ethane (Liquid); method: Chromatography
Temperature, K	Pressure, kPa	Mole fraction of ethane	uncertainty
298.15	99.6	0.000583	0.000112
298.15	577	0.00312	0.00022
298.15	2510	0.0117	0.0007
298.15	4210	0.0164	0.001
323.15	97.2	0.000458	8.7e-05
323.15	816	0.00343	0.00022
323.15	2690	0.0102	0.0006
323.15	6400	0.018	0.0011
323.15	10340	0.0194	0.0012
323.15	15110	0.0205	0.0012
323.15	19500	0.0221	0.0013
348.15	133	0.000487	7.6e-05
348.15	919	0.00324	0.00021
348.15	3530	0.0111	0.0007
348.15	7540	0.0183	0.0011
348.15	13650	0.0222	0.0013
348.15	19230	0.0243	0.0015
373.15	100	0.000334	6.9e-05
373.15	784	0.00259	0.00017
373.15	2540	0.00797	0.00048
373.15	6580	0.0171	0.001
373.15	10940	0.0225	0.0014
373.15	14810	0.0258	0.0016
373.15	18250	0.028	0.0017
398.15	135	0.000407	7e-05
398.15	666	0.00214	0.00014
398.15	5600	0.0149	0.0009
398.15	9270	0.0214	0.0013
398.15	13950	0.0288	0.0017
398.15	18250	0.0308	0.0019
