Measured thermophysical data. Excess Gibbs' energies of the binary mixtures formed by N,N-dimethylformamide with xylenes and cresols at 95.1 kPa
Source: Fluid Phase Equilib., 2008, 10.1016/j.fluid.2008.01.020
Compound 1: dimethylformamide, C3H7NO, InChI=1S/C3H7NO/c1-4(2)3-5/h3H,1-2H3
Compound 2: 1,2-dimethylbenzene, C8H10, InChI=1S/C8H10/c1-7-5-3-4-6-8(7)2/h3-6H,1-2H3
Compound 3: 1,3-dimethylbenzene, C8H10, InChI=1S/C8H10/c1-7-4-3-5-8(2)6-7/h3-6H,1-2H3
Compound 4: 1,4-dimethylbenzene, C8H10, InChI=1S/C8H10/c1-7-3-5-8(2)6-4-7/h3-6H,1-2H3
Compound 5: 2-methylphenol, C7H8O, InChI=1S/C7H8O/c1-6-4-2-3-5-7(6)8/h2-5,8H,1H3
Compound 6: 3-methylphenol, C7H8O, InChI=1S/C7H8O/c1-6-3-2-4-7(8)5-6/h2-5,8H,1H3
Compound 7: 4-methylphenol, C7H8O, InChI=1S/C7H8O/c1-6-2-4-7(8)5-3-6/h2-5,8H,1H3

System: dimethylformamide; phases: Liquid
Property: Refractive index (Na D-line) (Liquid); method: Standard Abbe refractometry
Temperature, K	Pressure, kPa	Refractive index (Na D-line)	uncertainty
293.15	101.325	1.4305	0.0007

System: dimethylformamide; phases: Liquid
Property: Mass density, kg/m3 (Liquid); method: PYCNOM:UFactor:4
Temperature, K	Pressure, kPa	Mass density, kg/m3	uncertainty
293.15	101.325	948.7	1.4

System: dimethylformamide; phases: Liquid, Gas
Property: Vapor or sublimation pressure, kPa (Liquid); method: EBULLIO:UFactor:6
Temperature, K	Vapor or sublimation pressure, kPa	uncertainty
420.95	95.1	3

System: 1,2-dimethylbenzene; phases: Liquid
Property: Refractive index (Na D-line) (Liquid); method: Standard Abbe refractometry
Temperature, K	Pressure, kPa	Refractive index (Na D-line)	uncertainty
293.15	101.325	1.5055	0.0007

System: 1,2-dimethylbenzene; phases: Liquid
Property: Mass density, kg/m3 (Liquid); method: PYCNOM:UFactor:4
Temperature, K	Pressure, kPa	Mass density, kg/m3	uncertainty
293.15	101.325	880.1	1.3

System: 1,2-dimethylbenzene; phases: Liquid, Gas
Property: Vapor or sublimation pressure, kPa (Liquid); method: EBULLIO:UFactor:6
Temperature, K	Vapor or sublimation pressure, kPa	uncertainty
415.35	95.1	3

System: 1,3-dimethylbenzene; phases: Liquid
Property: Refractive index (Na D-line) (Liquid); method: Standard Abbe refractometry
Temperature, K	Pressure, kPa	Refractive index (Na D-line)	uncertainty
293.15	101.325	1.4972	0.0007

System: 1,3-dimethylbenzene; phases: Liquid
Property: Mass density, kg/m3 (Liquid); method: PYCNOM:UFactor:4
Temperature, K	Pressure, kPa	Mass density, kg/m3	uncertainty
293.15	101.325	864.4	1.2

System: 1,3-dimethylbenzene; phases: Liquid, Gas
Property: Vapor or sublimation pressure, kPa (Liquid); method: EBULLIO:UFactor:6
Temperature, K	Vapor or sublimation pressure, kPa	uncertainty
410.25	95.1	3

System: 1,4-dimethylbenzene; phases: Liquid
Property: Refractive index (Na D-line) (Liquid); method: Standard Abbe refractometry
Temperature, K	Pressure, kPa	Refractive index (Na D-line)	uncertainty
293.15	101.325	1.4858	0.0007

System: 1,4-dimethylbenzene; phases: Liquid
Property: Mass density, kg/m3 (Liquid); method: PYCNOM:UFactor:4
Temperature, K	Pressure, kPa	Mass density, kg/m3	uncertainty
293.15	101.325	861	1.2

System: 1,4-dimethylbenzene; phases: Liquid, Gas
Property: Vapor or sublimation pressure, kPa (Liquid); method: EBULLIO:UFactor:6
Temperature, K	Vapor or sublimation pressure, kPa	uncertainty
408.65	95.1	3

System: 2-methylphenol; phases: Liquid
Property: Refractive index (Na D-line) (Liquid); method: Standard Abbe refractometry
Temperature, K	Pressure, kPa	Refractive index (Na D-line)	uncertainty
293.15	101.325	1.5468	0.0007

System: 2-methylphenol; phases: Liquid
Property: Mass density, kg/m3 (Liquid); method: PYCNOM:UFactor:4
Temperature, K	Pressure, kPa	Mass density, kg/m3	uncertainty
293.15	101.325	1046	1.6

System: 2-methylphenol; phases: Liquid, Gas
Property: Vapor or sublimation pressure, kPa (Liquid); method: EBULLIO:UFactor:6
Temperature, K	Vapor or sublimation pressure, kPa	uncertainty
463.65	95.1	3

System: 3-methylphenol; phases: Liquid
Property: Refractive index (Na D-line) (Liquid); method: Standard Abbe refractometry
Temperature, K	Pressure, kPa	Refractive index (Na D-line)	uncertainty
293.15	101.325	1.5414	0.0007

System: 3-methylphenol; phases: Liquid
Property: Mass density, kg/m3 (Liquid); method: PYCNOM:UFactor:4
Temperature, K	Pressure, kPa	Mass density, kg/m3	uncertainty
293.15	101.325	1034	1.5

System: 3-methylphenol; phases: Liquid, Gas
Property: Vapor or sublimation pressure, kPa (Liquid); method: EBULLIO:UFactor:6
Temperature, K	Vapor or sublimation pressure, kPa	uncertainty
473.35	95.1	3

System: 4-methylphenol; phases: Liquid
Property: Refractive index (Na D-line) (Liquid); method: Standard Abbe refractometry
Temperature, K	Pressure, kPa	Refractive index (Na D-line)	uncertainty
298.15	101.325	1.5391	0.0007

System: 4-methylphenol; phases: Liquid
Property: Mass density, kg/m3 (Liquid); method: PYCNOM:UFactor:4
Temperature, K	Pressure, kPa	Mass density, kg/m3	uncertainty
298.15	101.325	1154	1.8

System: 4-methylphenol; phases: Liquid, Gas
Property: Vapor or sublimation pressure, kPa (Liquid); method: EBULLIO:UFactor:6
Temperature, K	Vapor or sublimation pressure, kPa	uncertainty
475.35	95.1	3

System: dimethylformamide + 1,2-dimethylbenzene; phases: Liquid, Gas
Fixed: Pressure, kPa = 95.1
Property: Boiling temperature at pressure P, K (Liquid); method: EBULLIO:UFactor:6
Mole fraction of 1,2-dimethylbenzene	Boiling temperature at pressure P, K	uncertainty
0	420.95	0.51
0.0662	417.45	0.51
0.1243	415.75	0.51
0.1755	414.65	0.51
0.2211	414.05	0.51
0.262	413.55	0.51
0.2988	413.25	0.51
0.332	412.95	0.51
0.3622	412.75	0.51
0.3898	412.65	0.51
0.4152	412.55	0.51
0.4385	412.55	0.51
0.46	412.45	0.51
0.4799	412.35	0.51
0.4985	412.35	0.51
0.5248	412.25	0.51
0.5897	412.25	0.51
0.6572	412.35	0.51
0.749	412.75	0.51
0.8519	413.55	0.51
1	415.35	0.51

System: dimethylformamide + 1,3-dimethylbenzene; phases: Liquid, Gas
Fixed: Pressure, kPa = 95.1
Property: Boiling temperature at pressure P, K (Liquid); method: EBULLIO:UFactor:6
Mole fraction of 1,3-dimethylbenzene	Boiling temperature at pressure P, K	uncertainty
0	420.95	0.51
0.065	418.45	0.51
0.1223	416.55	0.51
0.1729	415.95	0.51
0.218	414.05	0.51
0.2584	413.05	0.51
0.2949	412.35	0.51
0.3279	411.75	0.51
0.358	411.25	0.51
0.3855	410.85	0.51
0.418	410.45	0.51
0.434	410.25	0.51
0.4554	410.05	0.51
0.4754	409.75	0.51
0.4939	409.55	0.51
0.5111	409.45	0.51
0.5564	409.55	0.51
0.6009	408.75	0.51
0.653	408.55	0.51
0.7003	408.35	0.51
0.79	408.35	0.51
0.8828	408.75	0.51
1	410.25	0.51

System: dimethylformamide + 1,4-dimethylbenzene; phases: Liquid, Gas
Fixed: Pressure, kPa = 95.1
Property: Boiling temperature at pressure P, K (Liquid); method: EBULLIO:UFactor:6
Mole fraction of 1,4-dimethylbenzene	Boiling temperature at pressure P, K	uncertainty
0	420.95	0.51
0.0648	418.15	0.51
0.1219	415.95	0.51
0.1724	414.35	0.51
0.2173	413.15	0.51
0.2577	412.25	0.51
0.2943	411.45	0.51
0.3271	410.85	0.51
0.3571	410.25	0.51
0.3847	409.85	0.51
0.4099	409.45	0.51
0.4331	409.15	0.51
0.4546	408.85	0.51
0.4745	408.65	0.51
0.493	408.45	0.51
0.5103	408.25	0.51
0.5173	408.15	0.51
0.5556	407.85	0.51
0.6001	407.55	0.51
0.6522	407.25	0.51
0.7144	407.05	0.51
0.7899	406.95	0.51
0.8824	407.35	0.51
1	408.65	0.51

System: dimethylformamide + 2-methylphenol; phases: Liquid, Gas
Fixed: Pressure, kPa = 95.1
Property: Boiling temperature at pressure P, K (Liquid); method: EBULLIO:UFactor:6
Mole fraction of dimethylformamide	Boiling temperature at pressure P, K	uncertainty
0	463.65	0.51
0.102	460.45	0.51
0.1852	457.35	0.51
0.2543	454.65	0.51
0.3125	452.15	0.51
0.3626	449.85	0.51
0.4055	447.85	0.51
0.4431	445.95	0.51
0.4762	444.45	0.51
0.5057	443.05	0.51
0.551	440.75	0.51
0.577	439.45	0.51
0.6054	438.05	0.51
0.6368	436.45	0.51
0.6717	434.75	0.51
0.7105	432.85	0.51
0.7542	430.75	0.51
0.8036	428.55	0.51
0.8599	426.16	0.51
0.9246	423.55	0.51
1	420.95	0.51

System: dimethylformamide + 3-methylphenol; phases: Liquid, Gas
Fixed: Pressure, kPa = 95.1
Property: Boiling temperature at pressure P, K (Liquid); method: EBULLIO:UFactor:6
Mole fraction of dimethylformamide	Boiling temperature at pressure P, K	uncertainty
0	473.35	0.51
0.1014	472.35	0.51
0.1842	469.95	0.51
0.2531	467.05	0.51
0.3112	463.85	0.51
0.361	460.75	0.51
0.404	457.85	0.51
0.4417	455.15	0.51
0.4748	452.65	0.51
0.5041	450.45	0.51
0.526	448.85	0.51
0.5496	447.05	0.51
0.5756	445.15	0.51
0.604	443.05	0.51
0.6335	440.85	0.51
0.6704	438.35	0.51
0.7084	435.25	0.51
0.7531	432.95	0.51
0.8027	429.95	0.51
0.8592	426.95	0.51
0.9242	423.85	0.51
1	420.95	0.51

System: dimethylformamide + 4-methylphenol; phases: Liquid, Gas
Fixed: Pressure, kPa = 95.1
Property: Boiling temperature at pressure P, K (Liquid); method: EBULLIO:UFactor:6
Mole fraction of dimethylformamide	Boiling temperature at pressure P, K	uncertainty
0	475.35	0.51
0.1028	473.05	0.51
0.1866	470.55	0.51
0.2559	468.05	0.51
0.3145	465.45	0.51
0.3644	463.05	0.51
0.4075	460.75	0.51
0.445	458.65	0.51
0.4785	456.65	0.51
0.5079	454.75	0.51
0.5296	453.35	0.51
0.5532	451.75	0.51
0.5791	449.95	0.51
0.6075	447.95	0.51
0.6388	445.65	0.51
0.6736	443.05	0.51
0.7123	440.16	0.51
0.7558	436.75	0.51
0.805	433.05	0.51
0.8609	428.95	0.51
0.9252	424.65	0.51
1	420.95	0.51
