Measured thermophysical data. Binary vapour-liquid equilibrium data for C7 and C9 straight-chain perfluorocarbons with ethylene
Source: Fluid Phase Equilib., 2016, 10.1016/j.fluid.2016.08.015
Compound 1: ethene, C2H4, InChI=1S/C2H4/c1-2/h1-2H2, purity 99.9%
Compound 2: hexadecafluoroheptane, C7F16, InChI=1S/C7F16/c8-1(9,2(10,11)4(14,15)6(18,19)20)3(12,13)5(16,17)7(21,22)23, purity 99%
Compound 3: eicosafluorononane, C9F20, InChI=1S/C9F20/c10-1(11,2(12,13)4(16,17)6(20,21)8(24,25)26)3(14,15)5(18,19)7(22,23)9(27,28)29, purity 99%

System: hexadecafluoroheptane; phases: Liquid
Property: Mass density, kg/m3 (Liquid); method: Vibrating tube method
Temperature, K	Pressure, kPa	Mass density, kg/m3	uncertainty
293.15	101.325	1717	1

System: hexadecafluoroheptane; phases: Liquid
Property: Refractive index (Na D-line) (Liquid); method: Standard Abbe refractometry
Temperature, K	Pressure, kPa	Refractive index (Na D-line)	uncertainty
293.15	101.325	1.261	0.001

System: hexadecafluoroheptane; phases: Liquid, Gas
Property: Vapor or sublimation pressure, kPa (Liquid); method: Gas chromatography
Temperature, K	Vapor or sublimation pressure, kPa	uncertainty
298	10.12	0.79

System: eicosafluorononane; phases: Liquid
Property: Mass density, kg/m3 (Liquid); method: Vibrating tube method
Temperature, K	Pressure, kPa	Mass density, kg/m3	uncertainty
293.15	101.325	1798	1

System: eicosafluorononane; phases: Liquid
Property: Refractive index (Na D-line) (Liquid); method: Standard Abbe refractometry
Temperature, K	Pressure, kPa	Refractive index (Na D-line)	uncertainty
293.15	101.325	1.275	0.001

System: eicosafluorononane; phases: Liquid, Gas
Property: Vapor or sublimation pressure, kPa (Liquid); method: Gas chromatography
Temperature, K	Vapor or sublimation pressure, kPa	uncertainty
298	2.57	0.27

System: ethene + hexadecafluoroheptane; phases: Liquid, Gas
Property: Vapor or sublimation pressure, kPa (Liquid); method: OTHER
Mole fraction of ethene	Temperature, K	Vapor or sublimation pressure, kPa	uncertainty
0.192	308.2	1380	170
0.266	308.19	1920	220
0.357	308.18	2590	280
0.425	308.17	3080	310
0.494	308.18	3590	370
0.574	308.18	4180	390
0.631	308.18	4580	400
0.708	308.19	5100	450
0.792	308.19	5660	450
0.859	308.19	6090	480
0.128	323.18	1070	140
0.235	323.18	1950	240
0.36	323.18	3030	330
0.42	323.18	3550	370
0.49	323.18	4160	400
0.537	323.18	4560	430
0.594	323.18	5050	460
0.649	323.19	5510	490
0.726	323.19	6160	510
0.773	323.19	6530	530
0.843	323.19	7050	560
0.136	338.18	1230	160
0.23	338.18	2090	240
0.318	338.18	2900	320
0.435	338.21	4050	420
0.499	338.19	4670	480
0.539	338.2	5080	500
0.602	338.18	5720	550
0.646	338.2	6150	560
0.697	338.2	6650	570
0.728	338.18	6960	590
0.791	338.18	7510	610

System: ethene + hexadecafluoroheptane; phases: Gas, Liquid
Property: Mole fraction of ethene (Gas); method: OTHER
Mole fraction of ethene	Temperature, K	Mole fraction of ethene	uncertainty
0.192	308.2	0.9822	0.0029
0.266	308.19	0.9859	0.0023
0.357	308.18	0.9874	0.0018
0.425	308.17	0.9879	0.0018
0.494	308.18	0.9879	0.0016
0.574	308.18	0.987	0.002
0.631	308.18	0.9862	0.0019
0.708	308.19	0.9846	0.0029
0.792	308.19	0.9758	0.0048
0.859	308.19	0.9724	0.0041
0.128	323.18	0.9634	0.005
0.235	323.18	0.9752	0.0041
0.36	323.18	0.9788	0.0029
0.42	323.18	0.9793	0.0026
0.49	323.18	0.979	0.0026
0.537	323.18	0.9782	0.0029
0.594	323.18	0.9768	0.0029
0.649	323.19	0.9751	0.0033
0.726	323.19	0.9705	0.004
0.773	323.19	0.9659	0.0052
0.843	323.19	0.9525	0.0064
0.136	338.18	0.9447	0.0068
0.23	338.18	0.9605	0.0052
0.318	338.18	0.9661	0.0041
0.435	338.21	0.968	0.004
0.499	338.19	0.9672	0.004
0.539	338.2	0.9661	0.0042
0.602	338.18	0.9633	0.0047
0.646	338.2	0.9605	0.0052
0.697	338.2	0.9556	0.0059
0.728	338.18	0.9512	0.0076
0.791	338.18	0.9375	0.0084

System: ethene + eicosafluorononane; phases: Liquid, Gas
Property: Vapor or sublimation pressure, kPa (Liquid); method: Closed cell (Static) method
Mole fraction of ethene	Temperature, K	Vapor or sublimation pressure, kPa	uncertainty
0.176	293.21	1170	130
0.244	293.23	1620	160
0.324	293.23	2180	160
0.386	293.24	2590	190
0.478	293.23	3220	200
0.544	293.24	3610	160
0.635	293.24	4170	140
0.724	293.24	4650	110
0.837	293.24	5140	60
0.941	293.24	5550	60
0.158	308.18	1140	110
0.217	308.18	1600	140
0.295	308.18	2220	180
0.351	308.18	2670	170
0.46	308.18	3570	220
0.412	308.19	3140	210
0.53	308.19	4120	210
0.608	308.2	4760	210
0.683	308.2	5350	170
0.739	308.2	5750	140
0.815	308.2	6260	90
0.889	308.2	6690	60
0.147	323.2	1220	150
0.26	323.2	2220	180
0.354	323.2	3100	230
0.454	323.19	4070	250
0.512	323.21	4650	250
0.57	323.2	5210	240
0.613	323.2	5640	240
0.68	323.21	6270	210
0.727	323.21	6720	180
0.788	323.21	7260	150
0.84	323.2	7670	110
0.148	338.21	1320	150
0.229	338.2	2100	180
0.32	338.22	3020	230
0.429	338.21	4190	260
0.512	338.21	5130	290
0.549	338.21	5540	280
0.607	338.22	6220	280
0.636	338.21	6560	280
0.682	338.2	7090	280
0.73	338.2	7620	220
0.774	338.21	8100	190
0.797	338.22	8340	190
0.116	353.21	1100	100
0.23	353.2	2270	210
0.297	353.21	3000	250
0.382	353.21	3980	280
0.466	353.22	5000	300
0.539	353.24	5910	300
0.572	353.21	6340	310
0.598	353.22	6680	310
0.636	353.21	7170	310
0.663	353.21	7520	310
0.702	353.19	8030	280
0.749	353.21	8610	250

System: ethene + eicosafluorononane; phases: Gas, Liquid
Property: Mole fraction of ethene (Gas); method: Chromatography
Mole fraction of ethene	Temperature, K	Mole fraction of ethene	uncertainty
0.176	293.21	0.9981	0.0008
0.244	293.23	0.9983	0.0006
0.324	293.23	0.9985	0.0006
0.386	293.24	0.9985	0.0006
0.478	293.23	0.9984	0.0002
0.544	293.24	0.9983	0.0004
0.635	293.24	0.9979	0.0006
0.724	293.24	0.9973	0.0007
0.837	293.24	0.9954	0.0013
0.941	293.24	0.9918	0.0017
0.158	308.18	0.9946	0.0019
0.217	308.18	0.9971	0.001
0.295	308.18	0.9971	0.001
0.351	308.18	0.9971	0.001
0.46	308.18	0.997	0.0006
0.412	308.19	0.9974	0.0004
0.53	308.19	0.9964	0.0014
0.608	308.2	0.9958	0.0012
0.683	308.2	0.9952	0.0007
0.739	308.2	0.9941	0.0014
0.815	308.2	0.9899	0.0027
0.889	308.2	0.9867	0.0017
0.147	323.2	0.9922	0.0017
0.26	323.2	0.9946	0.001
0.354	323.2	0.995	0.001
0.454	323.19	0.9945	0.001
0.512	323.21	0.9943	0.0007
0.57	323.2	0.9935	0.0009
0.613	323.2	0.9925	0.001
0.68	323.21	0.9905	0.0021
0.727	323.21	0.9886	0.002
0.788	323.21	0.9844	0.0025
0.84	323.2	0.9778	0.003
0.148	338.21	0.9879	0.0021
0.229	338.2	0.9911	0.0011
0.32	338.22	0.9914	0.0014
0.429	338.21	0.9914	0.001
0.512	338.21	0.99	0.0013
0.549	338.21	0.9893	0.0017
0.607	338.22	0.9876	0.0017
0.636	338.21	0.9862	0.0021
0.682	338.2	0.9839	0.0025
0.73	338.2	0.9802	0.0031
0.774	338.21	0.9743	0.0038
0.797	338.22	0.9708	0.0042
0.116	353.21	0.9761	0.0029
0.23	353.2	0.9849	0.002
0.297	353.21	0.986	0.0018
0.382	353.21	0.9862	0.0018
0.466	353.22	0.985	0.0017
0.539	353.24	0.9831	0.0019
0.572	353.21	0.982	0.0022
0.598	353.22	0.9806	0.0026
0.636	353.21	0.9783	0.0029
0.663	353.21	0.9763	0.0034
0.702	353.19	0.9722	0.0042
0.749	353.21	0.9651	0.0049
