Measured thermophysical data. Solubility of CO2 in ionic liquids containing cyanide anion; [c2mim][SCN], [c2mim][N(CN)2],  [c2mim][C(CN)3]
Source: Fluid Phase Equilib., 2014, 10.1016/j.fluid.2014.01.042
Compound 1: 1-ethyl-3-methylimidazolium thiocyanate, C7H11N3S, InChI=1S/C6H11N2.CHNS/c1-3-8-5-4-7(2)6-8;2-1-3/h4-6H,3H2,1-2H3;3H/q+1;/p-1, purity 98%
Compound 2: 1-ethyl-3-methylimidazolium dicyanamide, C8H11N5, InChI=1S/C6H11N2.C2N3/c1-3-8-5-4-7(2)6-8;3-1-5-2-4/h4-6H,3H2,1-2H3;/q+1;-1, purity 98%
Compound 3: 1-ethyl-3-methyl-1H-imidazolium tricyanomethanide, C10H11N5, InChI=1S/C6H11N2.C4N3/c1-3-8-5-4-7(2)6-8;5-1-4(2-6)3-7/h4-6H,3H2,1-2H3;/q+1;-1, purity 98%
Compound 4: carbon dioxide, CO2, InChI=1S/CO2/c2-1-3, purity 99.999%

System: carbon dioxide + 1-ethyl-3-methylimidazolium thiocyanate; phases: Liquid, Gas
Property: Vapor or sublimation pressure, kPa (Liquid); method: Closed cell (Static) method
Mole fraction of carbon dioxide	Temperature, K	Vapor or sublimation pressure, kPa	uncertainty
0.169	303.15	1300	240
0.169	313.15	1680	290
0.169	323.15	1980	340
0.169	333.15	2400	400
0.169	343.15	2850	480
0.169	353.15	3370	560
0.169	363.15	3890	620
0.169	373.15	4470	720
0.251	303.15	3040	220
0.251	313.15	3800	270
0.251	323.15	4630	310
0.251	333.15	5540	370
0.251	343.15	6720	430
0.251	353.15	7840	530
0.251	363.15	8920	580
0.251	373.15	10260	670
0.318	303.15	4040	260
0.318	313.15	5160	370
0.318	323.15	6250	510
0.318	333.15	7500	650
0.318	343.15	8900	760
0.318	353.15	11040	870
0.318	363.15	12270	970
0.318	373.15	14230	1090
0.364	303.15	5700	380
0.364	313.15	7940	650
0.364	323.15	10630	960
0.364	333.15	13340	1260
0.364	343.15	15850	1510
0.364	353.15	18270	1560
0.364	363.15	20470	1800
0.364	373.15	22860	1880

System: carbon dioxide + 1-ethyl-3-methylimidazolium thiocyanate; phases: Liquid mixture 1, Liquid mixture 2
Property: Vapor or sublimation pressure, kPa (Liquid mixture 1); method: Derived from phase diagram analysis
Mole fraction of carbon dioxide	Temperature, K	Vapor or sublimation pressure, kPa	uncertainty
0.41	303.15	9440	160
0.41	313.15	13830	170
0.41	323.15	18130	180
0.41	333.15	22170	190
0.41	343.15	25410	200
0.41	353.15	28590	220
0.41	363.15	31410	230
0.41	373.15	34060	240
0.435	303.15	31180	220
0.435	313.15	33510	230
0.435	323.15	36430	250
0.435	333.15	39540	260
0.435	343.15	42180	270
0.435	353.15	45760	290
0.435	363.15	47840	300
0.435	373.15	51160	320
0.459	303.15	48620	300
0.459	313.15	52260	320
0.459	323.15	55480	330
0.459	333.15	57360	340
0.459	343.15	59660	350
0.459	353.15	61690	360
0.459	363.15	63290	360
0.459	373.15	64910	370
0.464	303.15	57480	350
0.464	313.15	61830	360
0.464	323.15	66030	380
0.464	333.15	70220	400
0.464	343.15	72570	410
0.464	353.15	74830	420
0.464	363.15	76260	430
0.464	373.15	77450	520
0.474	303.15	74410	420
0.474	313.15	79530	450
0.474	323.15	83900	470
0.474	333.15	88000	480
0.474	343.15	90460	490
0.474	353.15	93000	510
0.474	363.15	94400	510
0.474	373.15	95340	520

System: carbon dioxide + 1-ethyl-3-methylimidazolium dicyanamide; phases: Liquid, Gas
Property: Vapor or sublimation pressure, kPa (Liquid); method: Closed cell (Static) method
Mole fraction of carbon dioxide	Temperature, K	Vapor or sublimation pressure, kPa	uncertainty
0.171	303.15	880	140
0.171	313.15	1060	150
0.171	323.15	1340	170
0.171	333.15	1570	180
0.171	343.15	1900	210
0.171	353.15	2280	230
0.171	363.15	2580	250
0.171	373.15	2890	270
0.242	303.15	1360	160
0.242	313.15	1760	190
0.242	323.15	2150	220
0.242	333.15	2590	260
0.242	343.15	3110	310
0.242	353.15	3620	390
0.242	363.15	4140	460
0.242	373.15	4620	520
0.329	303.15	2500	180
0.329	313.15	3390	230
0.329	323.15	4280	280
0.329	333.15	5080	340
0.329	343.15	6300	410
0.329	353.15	7910	500
0.329	363.15	9450	590
0.329	373.15	10790	690
0.371	303.15	3110	210
0.371	313.15	4240	250
0.371	323.15	5460	300
0.371	333.15	6730	420
0.371	343.15	8150	530
0.371	353.15	9770	670
0.371	363.15	11360	800
0.371	373.15	13340	950
0.418	303.15	3990	220
0.418	313.15	5320	260
0.418	323.15	6690	330
0.418	333.15	8630	450
0.418	343.15	10890	640
0.418	353.15	13710	840
0.418	363.15	16370	1080
0.418	373.15	19140	1240

System: carbon dioxide + 1-ethyl-3-methylimidazolium dicyanamide; phases: Liquid mixture 1, Liquid mixture 2
Property: Vapor or sublimation pressure, kPa (Liquid mixture 1); method: Derived from phase diagram analysis
Mole fraction of carbon dioxide	Temperature, K	Vapor or sublimation pressure, kPa	uncertainty
0.485	303.15	10400	4350
0.485	313.15	15220	4380
0.485	323.15	19910	4610
0.485	333.15	24500	4880
0.485	343.15	28690	5190
0.485	353.15	32510	5540
0.485	363.15	35320	5840
0.485	373.15	38310	6210
0.521	303.15	21590	5760
0.521	313.15	26430	5610
0.521	323.15	31730	5570
0.521	333.15	36900	5600
0.521	343.15	41900	5900
0.521	353.15	46420	6250
0.521	363.15	50390	6440
0.521	373.15	54260	6810
0.545	303.15	35580	9190
0.545	313.15	40070	8940
0.545	323.15	44460	8630
0.545	333.15	49040	8690
0.545	343.15	54530	8590
0.545	353.15	59920	8440
0.545	363.15	63310	8450
0.545	373.15	67700	8550
0.562	303.15	48710	8850
0.562	313.15	53010	9510
0.562	323.15	57450	10000
0.562	333.15	62910	10360
0.562	343.15	67520	10180
0.562	353.15	71480	9910
0.562	363.15	75400	10160
0.562	373.15	79410	10000
0.585	303.15	61080	7540
0.585	313.15	67480	8680
0.585	323.15	73220	9570
0.585	333.15	78780	9530
0.585	343.15	83670	9750
0.585	353.15	88150	10090
0.585	363.15	92290	10240
0.585	373.15	96200	10230

System: carbon dioxide + 1-ethyl-3-methyl-1H-imidazolium tricyanomethanide; phases: Liquid, Gas
Property: Vapor or sublimation pressure, kPa (Liquid); method: Closed cell (Static) method
Mole fraction of carbon dioxide	Temperature, K	Vapor or sublimation pressure, kPa	uncertainty
0.17	303.15	590	150
0.17	313.15	910	150
0.17	323.15	1210	160
0.17	333.15	1410	170
0.17	343.15	1650	180
0.17	353.15	1950	190
0.17	363.15	2210	210
0.17	373.15	2430	220
0.228	303.15	1090	150
0.228	313.15	1420	150
0.228	323.15	1750	160
0.228	333.15	2130	180
0.228	343.15	2440	190
0.228	353.15	2820	200
0.228	363.15	3190	220
0.228	373.15	3500	240
0.296	303.15	1660	150
0.296	313.15	2100	160
0.296	323.15	2550	180
0.296	333.15	3060	200
0.296	343.15	3470	220
0.296	353.15	3960	260
0.296	363.15	4560	290
0.296	373.15	5100	320
0.401	303.15	2640	150
0.401	313.15	3290	160
0.401	323.15	4000	180
0.401	333.15	4780	210
0.401	343.15	5610	240
0.401	353.15	6620	280
0.401	363.15	7630	330
0.401	373.15	8640	390
0.457	303.15	3060	170
0.457	313.15	3860	210
0.457	323.15	4700	270
0.457	333.15	5730	390
0.457	343.15	6730	550
0.457	353.15	8010	700
0.457	363.15	9610	850
0.457	373.15	11060	970
0.553	303.15	4490	190
0.553	313.15	5730	250
0.553	323.15	7490	350
0.553	333.15	10110	500
0.553	343.15	13330	700
0.553	353.15	16420	890
0.553	363.15	19650	1050
0.553	373.15	22740	1230

System: carbon dioxide + 1-ethyl-3-methyl-1H-imidazolium tricyanomethanide; phases: Liquid mixture 1, Liquid mixture 2
Property: Vapor or sublimation pressure, kPa (Liquid mixture 1); method: Derived from phase diagram analysis
Mole fraction of carbon dioxide	Temperature, K	Vapor or sublimation pressure, kPa	uncertainty
0.617	303.15	7870	4380
0.617	313.15	13160	4820
0.617	323.15	17760	5220
0.617	333.15	22560	5520
0.617	343.15	27320	5790
0.617	353.15	31820	5930
0.617	363.15	36020	6140
0.617	373.15	40010	6160
0.653	303.15	19130	5370
0.653	313.15	25310	5420
0.653	323.15	31250	5770
0.653	333.15	36730	5950
0.653	343.15	42110	6100
0.653	353.15	46950	6320
0.653	363.15	51730	6420
0.653	373.15	55840	6490
0.684	303.15	33670	7680
0.684	313.15	39250	7810
0.684	323.15	45500	7830
0.684	333.15	51140	8080
0.684	343.15	56600	8260
0.684	353.15	62140	8460
0.684	363.15	66840	8530
0.684	373.15	71070	8880
0.703	303.15	46960	9800
0.703	313.15	54240	10750
0.703	323.15	60310	11010
0.703	333.15	66770	11430
0.703	343.15	72850	11860
0.703	353.15	78440	11880
0.703	363.15	83490	12210
0.703	373.15	88290	12690
