Measured thermophysical data. Volumetric behavior and solution microstructure of methanol-water mixture in sub- and supercritical state via density measurement and MD simulation
Source: Fluid Phase Equilib., 2011, 10.1016/j.fluid.2010.10.005
Compound 1: methanol, CH4O, InChI=1S/CH4O/c1-2/h2H,1H3, purity 99.8%
Compound 2: water, H2O, InChI=1S/H2O/h1H2, purity 99.8%

System: methanol + water; phases: Liquid
Fixed: Temperature, K = 623.15
Property: Mass density, kg/m3 (Liquid); method: Vibrating tube method
Pressure, kPa	Mole fraction of methanol	Mass density, kg/m3	uncertainty
20000	0.04	554.98	24.98
20000	0.09	499.06	19.47
20000	0.15	466.53	21.97
20000	0.18	408.88	62.34
20000	0.2	310.04	46.3
20000	0.25	240.45	19.05
20000	0.38	198.52	14.27
20000	0.57	192.93	12.45
20000	0.59	193.68	12.45
20000	0.73	195.58	11.44
20000	0.9	203.5	11.49
20000	0.95	203.61	11.28
25000	0.06	592.54	12.71
25000	0.1	564.26	101.96
25000	0.19	481.28	21.62
25000	0.29	388.57	20.65
25000	0.38	335.66	13.94
25000	0.55	284.19	12.83
25000	0.8	268.34	11.94
30000	0.07	599.12	24.38
30000	0.09	578.83	15.32
30000	0.12	569.12	13.83
30000	0.19	536.54	13.82
30000	0.47	401.25	13.97
30000	0.54	383.13	25.83
30000	0.76	350.39	11.9
35000	0.09	603.89	15.34
35000	0.18	552.55	13.33
35000	0.38	476.16	12.84
35000	0.48	449.31	12.01
35000	0.55	432.87	11.52
35000	0.63	422.11	11.07
35000	0.77	406.97	11.26
35000	0.87	397.04	11.23

System: methanol + water; phases: Liquid
Fixed: Temperature, K = 623.15
Property: Excess molar volume, m3/mol (Liquid); method: Calculated with densities of this investigation
Pressure, kPa	Mole fraction of methanol	Excess molar volume, m3/mol	uncertainty
20000	0.04	-1.67e-06	5.2e-07
20000	0.09	-2.94e-06	8.3e-07
20000	0.15	-6.16e-06	2.8e-07
20000	0.18	-3.09e-06	6.7e-06
20000	0.2	1.152e-05	8.26e-06
20000	0.25	2.735e-05	3.39e-06
20000	0.38	3.873e-05	1.94e-06
20000	0.57	3.155e-05	2.02e-06
20000	0.59	3.019e-05	2.02e-06
20000	0.73	2.048e-05	1.65e-06
20000	0.9	4.91e-06	1.75e-06
20000	0.95	1.85e-06	1.23e-06
25000	0.06	-2.21e-06	6.9e-07
25000	0.1	-2.99e-06	1.4e-07
25000	0.19	-2.18e-06	7e-07
25000	0.29	3.29e-06	1.46e-06
25000	0.38	8.29e-06	1e-06
25000	0.55	1.434e-05	1.15e-06
25000	0.8	1.129e-05	7.2e-07
30000	0.07	-9.1e-07	5e-07
30000	0.09	-6.4e-07	2.6e-07
30000	0.12	-1.33e-06	2.1e-07
30000	0.19	-2.05e-06	2.6e-07
30000	0.47	2.14e-06	3.2e-07
30000	0.54	2.95e-06	5.4e-07
30000	0.76	3.39e-06	4.8e-07
35000	0.09	-4.5e-07	1e-07
35000	0.18	-3.7e-07	1.9e-07
35000	0.38	4.1e-07	1.7e-07
35000	0.48	9.5e-07	1.7e-07
35000	0.55	1.2e-06	1.8e-07
35000	0.63	9.9e-07	1.9e-07
35000	0.77	3.4e-07	2.7e-07
35000	0.87	8e-08	2.7e-07
