Measured thermophysical data. Determination and graphics expression of ice-salt eutectic points of the multicomponent electrolyte solutions
Source: Fluid Phase Equilib., 2018, 10.1016/j.fluid.2017.10.009
Compound 1: sodium chloride, ClNa, InChI=1S/ClH.Na/h1H;/q;+1/p-1
Compound 2: water, H2O, InChI=1S/H2O/h1H2, purity 99.8%
Compound 3: sodium sulfate, Na2O4S, InChI=1S/2Na.H2O4S/c;;1-5(2,3)4/h;;(H2,1,2,3,4)/q2*+1;/p-2
Compound 4: potassium sulfate, K2O4S, InChI=1S/2K.H2O4S/c;;1-5(2,3)4/h;;(H2,1,2,3,4)/q2*+1;/p-2
Compound 5: potassium chloride, ClK, InChI=1S/ClH.K/h1H;/q;+1/p-1
Compound 6: sodium nitrate, NNaO3, InChI=1S/NO3.Na/c2-1(3)4;/q-1;+1

System: sodium chloride + water; phases: Liquid, Crystal of intercomponent compound 1
Property: Solid-liquid equilibrium temperature, K (Liquid); method: DTA
Mass fraction of sodium chloride	Pressure, kPa	Solid-liquid equilibrium temperature, K	uncertainty
0.1399	101	262.22	0.39

System: sodium sulfate + water; phases: Crystal, Crystal of intercomponent compound 2, Liquid, Air at 1 atmosphere
Property: Eutectic temperature, K (Crystal); method: Cooling curves method
Eutectic temperature, K	uncertainty
271.95	0.41

System: sodium sulfate + water; phases: Crystal, Crystal of intercomponent compound 2, Liquid, Air at 1 atmosphere
Property: Eutectic composition: mass fraction of sodium sulfate (Crystal); method: Cooling curves method
Eutectic composition: mass fraction of sodium sulfate	uncertainty
0.0401	0.0005

System: sodium sulfate + water; phases: Liquid, Crystal of intercomponent compound 1
Property: Solid-liquid equilibrium temperature, K (Liquid); method: DTA
Mass fraction of sodium sulfate	Pressure, kPa	Solid-liquid equilibrium temperature, K	uncertainty
0.04	101	271.94	0.39

System: potassium sulfate + water; phases: Crystal, Crystal, Liquid, Air at 1 atmosphere
Property: Eutectic temperature, K (Crystal); method: Cooling curves method
Eutectic temperature, K	uncertainty
271.97	0.41

System: potassium sulfate + water; phases: Crystal, Crystal, Liquid, Air at 1 atmosphere
Property: Eutectic composition: mass fraction of potassium sulfate (Crystal); method: Cooling curves method
Eutectic composition: mass fraction of potassium sulfate	uncertainty
0.05	0.01

System: potassium chloride + water; phases: Crystal, Crystal, Liquid, Air at 1 atmosphere
Property: Eutectic temperature, K (Crystal); method: Cooling curves method
Eutectic temperature, K	uncertainty
270.8	0.41

System: potassium chloride + water; phases: Crystal, Crystal, Liquid, Air at 1 atmosphere
Property: Eutectic composition: mass fraction of potassium chloride (Crystal); method: Cooling curves method
Eutectic composition: mass fraction of potassium chloride	uncertainty
0.05	0.01

System: sodium sulfate + sodium chloride + water; phases: Crystal, Crystal of intercomponent compound 1, Crystal of intercomponent compound 2, Liquid, Air at 1 atmosphere
Property: Eutectic temperature, K (Crystal); method: Cooling curves method
Eutectic temperature, K	uncertainty
251.84	0.41

System: sodium sulfate + sodium chloride + water; phases: Crystal, Crystal of intercomponent compound 1, Crystal of intercomponent compound 2, Liquid, Air at 1 atmosphere
Property: Eutectic composition: mass fraction of sodium chloride (Crystal); method: Cooling curves method
Eutectic composition: mass fraction of sodium chloride	uncertainty
0.2272	0.0028

System: sodium sulfate + sodium chloride + water; phases: Crystal, Crystal of intercomponent compound 1, Crystal of intercomponent compound 2, Liquid, Air at 1 atmosphere
Property: Eutectic composition: mass fraction of sodium sulfate (Crystal); method: Cooling curves method
Eutectic composition: mass fraction of sodium sulfate	uncertainty
0.0022	0.0001

System: sodium sulfate + sodium chloride + water; phases: Crystal, Crystal, Crystal, Liquid, Air at 1 atmosphere
Property: Eutectic temperature, K (Crystal); method: Cooling curves method
Eutectic temperature, K	uncertainty
251.96	0.41

System: sodium sulfate + sodium chloride + water; phases: Crystal, Crystal, Crystal, Liquid, Air at 1 atmosphere
Property: Eutectic composition: mass fraction of sodium sulfate (Crystal); method: Cooling curves method
Eutectic composition: mass fraction of sodium sulfate	uncertainty
0.04	0.01

System: sodium sulfate + sodium chloride + water; phases: Crystal, Crystal, Crystal, Liquid, Air at 1 atmosphere
Property: Eutectic composition: mass fraction of sodium chloride (Crystal); method: Cooling curves method
Eutectic composition: mass fraction of sodium chloride	uncertainty
0.2	0.01

System: sodium sulfate + sodium chloride + water; phases: Liquid, Crystal, Crystal of intercomponent compound 2, Gas
Property: Eutectic composition: mass fraction of sodium chloride (Liquid); method: Cooling curves
Temperature, K	Eutectic composition: mass fraction of sodium chloride	uncertainty
251.84	0.2272	0.0032
255.23	0.2009	0.003
259.93	0.161	0.003
267.36	0.0809	0.0024

System: sodium sulfate + sodium chloride + water; phases: Liquid, Crystal, Crystal of intercomponent compound 2, Gas
Property: Eutectic composition: mass fraction of sodium sulfate (Liquid); method: Cooling curves method
Temperature, K	Eutectic composition: mass fraction of sodium sulfate	uncertainty
251.84	0.0022	0.0001
255.23	0.0038	0.0001
259.93	0.005	0.0001
267.36	0.0087	0.0002

System: sodium nitrate + water; phases: Crystal, Crystal, Liquid, Air at 1 atmosphere
Property: Eutectic temperature, K (Crystal); method: Cooling curves method
Eutectic temperature, K	uncertainty
255.45	0.41

System: sodium nitrate + water; phases: Crystal, Crystal, Liquid, Air at 1 atmosphere
Property: Eutectic composition: mass fraction of sodium nitrate (Crystal); method: Cooling curves method
Eutectic composition: mass fraction of sodium nitrate	uncertainty
0.3114	0.0043

System: sodium nitrate + sodium sulfate + water; phases: Crystal, Crystal, Crystal of intercomponent compound 2, Liquid, Air at 1 atmosphere
Property: Eutectic temperature, K (Crystal); method: Cooling curves method
Eutectic temperature, K	uncertainty
254.75	0.41

System: sodium nitrate + sodium sulfate + water; phases: Crystal, Crystal, Crystal of intercomponent compound 2, Liquid, Air at 1 atmosphere
Property: Eutectic composition: mass fraction of sodium nitrate (Crystal); method: Cooling curves method
Eutectic composition: mass fraction of sodium nitrate	uncertainty
0.3974	0.0055

System: sodium nitrate + sodium sulfate + water; phases: Crystal, Crystal, Crystal of intercomponent compound 2, Liquid, Air at 1 atmosphere
Property: Eutectic composition: mass fraction of sodium sulfate (Crystal); method: Cooling curves method
Eutectic composition: mass fraction of sodium sulfate	uncertainty
0.0024	0.0001

System: sodium nitrate + sodium chloride + water; phases: Crystal, Crystal, Crystal of intercomponent compound 1, Liquid, Air at 1 atmosphere
Property: Eutectic temperature, K (Crystal); method: Cooling curves method
Eutectic temperature, K	uncertainty
246.24	0.41

System: sodium nitrate + sodium chloride + water; phases: Crystal, Crystal, Crystal of intercomponent compound 1, Liquid, Air at 1 atmosphere
Property: Eutectic composition: mass fraction of sodium nitrate (Crystal); method: Cooling curves method
Eutectic composition: mass fraction of sodium nitrate	uncertainty
0.1951	0.0027

System: sodium nitrate + sodium chloride + water; phases: Crystal, Crystal, Crystal of intercomponent compound 1, Liquid, Air at 1 atmosphere
Property: Eutectic composition: mass fraction of sodium chloride (Crystal); method: Cooling curves method
Eutectic composition: mass fraction of sodium chloride	uncertainty
0.125	0.002
