Measured thermophysical data. High-pressure phase behavior of binary and ternary mixtures containing ionic liquid [C6-mim][Tf2N], dimethyl carbonate and carbon dioxide
Source: Fluid Phase Equilib., 2010, 10.1016/j.fluid.2009.10.014
Compound 1: 1-hexyl-3-methylimidazolium bis[(trifluoromethyl)sulfonyl]imide, C12H19F6N3O4S2, InChI=1S/C10H19N2.C2F6NO4S2/c1-3-4-5-6-7-12-9-8-11(2)10-12;3-1(4,5)14(10,11)9-15(12,13)2(6,7)8/h8-10H,3-7H2,1-2H3;/q+1;-1, purity 99.6%
Compound 2: carbon dioxide, CO2, InChI=1S/CO2/c2-1-3
Compound 3: dimethyl carbonate, C3H6O3, InChI=1S/C3H6O3/c1-5-3(4)6-2/h1-2H3

System: carbon dioxide + dimethyl carbonate + 1-hexyl-3-methylimidazolium bis[(trifluoromethyl)sulfonyl]imide; phases: Liquid, Gas
Property: Vapor or sublimation pressure, kPa (Liquid); method: Closed cell (Static) method
Mole fraction of carbon dioxide	Mole fraction of dimethyl carbonate	Temperature, K	Vapor or sublimation pressure, kPa	uncertainty
0.0564	0.922	303.15	570	110
0.0564	0.922	313.15	600	110
0.0564	0.922	323.15	820	120
0.0564	0.922	333.15	850	130
0.117	0.8151	303.15	1140	120
0.117	0.8151	313.15	1210	130
0.117	0.8151	323.15	1280	140
0.117	0.8151	333.15	1450	150
0.132	0.8217	303.15	1110	120
0.132	0.8217	313.15	1160	130
0.132	0.8217	323.15	1250	140
0.132	0.8217	333.15	1490	150
0.1513	0.7616	303.15	1480	220
0.1513	0.7616	313.15	1670	210
0.1513	0.7616	323.15	1880	210
0.1513	0.7616	333.15	2130	200
0.1696	0.6958	303.15	2630	230
0.1696	0.6958	313.15	2820	220
0.1696	0.6958	323.15	3030	210
0.1696	0.6958	333.15	3280	200
0.1712	0.8098	303.15	1150	110
0.1712	0.8098	313.15	1370	120
0.1712	0.8098	323.15	1610	140
0.1712	0.8098	333.15	1890	140
0.1785	0.7583	303.15	1420	170
0.1785	0.7583	313.15	1650	170
0.1785	0.7583	323.15	1900	160
0.1785	0.7583	333.15	2180	170
0.224	0.7347	303.15	1490	170
0.224	0.7347	313.15	1790	160
0.224	0.7347	323.15	2080	180
0.224	0.7347	333.15	2450	190
0.2533	0.6701	303.15	2170	170
0.2533	0.6701	313.15	2480	190
0.2533	0.6701	323.15	2950	220
0.2533	0.6701	333.15	3390	240
0.2869	0.6582	303.15	2150	210
0.2869	0.6582	313.15	2470	200
0.2869	0.6582	323.15	2850	230
0.2869	0.6582	333.15	3270	240
0.3039	0.5832	303.15	3320	260
0.3039	0.5832	313.15	3630	240
0.3039	0.5832	323.15	4100	230
0.3039	0.5832	333.15	4540	210
0.3402	0.6447	303.15	2170	110
0.3402	0.6447	313.15	2580	110
0.3402	0.6447	323.15	3030	120
0.3402	0.6447	333.15	3520	120
0.3413	0.6236	303.15	2260	110
0.3413	0.6236	313.15	2670	120
0.3413	0.6236	323.15	3160	120
0.3413	0.6236	333.15	3660	130
0.3717	0.5638	303.15	2730	120
0.3717	0.5638	313.15	3260	140
0.3717	0.5638	323.15	3890	150
0.3717	0.5638	333.15	4590	180
0.3879	0.598	303.15	2500	150
0.3879	0.598	313.15	2970	150
0.3879	0.598	323.15	3490	160
0.3879	0.598	333.15	4020	170
0.3923	0.561	303.15	2770	180
0.3923	0.561	313.15	3310	190
0.3923	0.561	323.15	3880	200
0.3923	0.561	333.15	4490	220
0.3987	0.5038	303.15	3780	230
0.3987	0.5038	313.15	4310	230
0.3987	0.5038	323.15	4940	240
0.3987	0.5038	333.15	5640	250
0.4114	0.5573	303.15	2710	220
0.4114	0.5573	313.15	3220	220
0.4114	0.5573	323.15	3820	230
0.4114	0.5573	333.15	4470	240
0.4459	0.5414	303.15	2900	130
0.4459	0.5414	313.15	3370	150
0.4459	0.5414	323.15	4020	160
0.4459	0.5414	333.15	4690	200
0.4568	0.4875	303.15	3330	300
0.4568	0.4875	313.15	4030	280
0.4568	0.4875	323.15	4700	250
0.4568	0.4875	333.15	5570	250
0.4674	0.5042	303.15	3120	230
0.4674	0.5042	313.15	3710	230
0.4674	0.5042	323.15	4380	240
0.4674	0.5042	333.15	5070	260
0.4693	0.4447	303.15	4180	270
0.4693	0.4447	313.15	4870	260
0.4693	0.4447	323.15	5550	260
0.4693	0.4447	333.15	6420	260
0.4974	0.464	303.15	3470	230
0.4974	0.464	313.15	4180	240
0.4974	0.464	323.15	4890	260
0.4974	0.464	333.15	5660	320
0.515	0.4064	303.15	4420	380
0.515	0.4064	313.15	5210	330
0.515	0.4064	323.15	6070	320
0.515	0.4064	333.15	6980	270
0.518	0.4325	303.15	3570	380
0.518	0.4325	313.15	4460	330
0.518	0.4325	323.15	5320	290
0.518	0.4325	333.15	6330	270
