Measured thermophysical data. Liquid liquid equilibria for binary systems of tert-amyl ethyl ether (TAEE), isopropyl tert-butyl ether (IPTBE) and di-sec-butyl ether (DSBE) with water and for ternary systems with methanol or ethanol
Source: Fluid Phase Equilib., 2007, 10.1016/j.fluid.2007.04.018
Compound 1: water, H2O, InChI=1S/H2O/h1H2
Compound 2: 1-methylethyl 1,1-dimethylethyl ether, C7H16O, InChI=1S/C7H16O/c1-6(2)8-7(3,4)5/h6H,1-5H3
Compound 3: 2,2'-oxybisbutane, C8H18O, InChI=1S/C8H18O/c1-5-7(3)9-8(4)6-2/h7-8H,5-6H2,1-4H3
Compound 4: 1,1-dimethylpropyl ethyl ether, C7H16O, InChI=1S/C7H16O/c1-5-7(3,4)8-6-2/h5-6H2,1-4H3
Compound 5: methanol, CH4O, InChI=1S/CH4O/c1-2/h2H,1H3
Compound 6: ethanol, C2H6O, InChI=1S/C2H6O/c1-2-3/h3H,2H2,1H3

System: 1,1-dimethylpropyl ethyl ether + water; phases: Liquid mixture 1, Liquid mixture 2
Fixed: Pressure, kPa = 101
Property: Mole fraction of 1,1-dimethylpropyl ethyl ether (Liquid mixture 1); method: CHROM:UFactor:8
Temperature, K	Mole fraction of 1,1-dimethylpropyl ethyl ether	uncertainty
278.65	0.00086	7e-05
288.23	0.00055	4e-05
298.17	0.00035	3e-05
308.06	0.00026	2e-05
318.17	0.00022	2e-05
328.21	0.00021	2e-05
338.16	0.00019	2e-05
348.16	0.00011	1e-05
357.72	2e-05	1e-05

System: 1,1-dimethylpropyl ethyl ether + water; phases: Liquid mixture 2, Liquid mixture 1
Fixed: Pressure, kPa = 101
Property: Mole fraction of 1,1-dimethylpropyl ethyl ether (Liquid mixture 2); method: CHROM:UFactor:16
Temperature, K	Mole fraction of 1,1-dimethylpropyl ethyl ether	uncertainty
278.65	0.98417	0.00253
288.23	0.98342	0.00265
298.17	0.9775	0.0036
308.06	0.97388	0.00418
318.17	0.96847	0.00504
328.21	0.96786	0.00514
338.16	0.96469	0.00565
348.16	0.96276	0.00596
357.72	0.95845	0.00665

System: water + 1-methylethyl 1,1-dimethylethyl ether; phases: Liquid mixture 1, Liquid mixture 2
Fixed: Pressure, kPa = 101
Property: Mole fraction of 1-methylethyl 1,1-dimethylethyl ether (Liquid mixture 1); method: CHROM:UFactor:8
Temperature, K	Mole fraction of 1-methylethyl 1,1-dimethylethyl ether	uncertainty
278.65	0.00024	2e-05
288.23	0.00025	2e-05
298.17	0.00023	2e-05
308.06	0.00021	2e-05
318.17	0.00021	2e-05
328.21	0.0002	2e-05
338.16	0.0002	2e-05
348.16	0.00011	1e-05
357.72	7e-05	1e-05

System: water + 1-methylethyl 1,1-dimethylethyl ether; phases: Liquid mixture 2, Liquid mixture 1
Fixed: Pressure, kPa = 101
Property: Mole fraction of 1-methylethyl 1,1-dimethylethyl ether (Liquid mixture 2); method: CHROM:UFactor:16
Temperature, K	Mole fraction of 1-methylethyl 1,1-dimethylethyl ether	uncertainty
278.65	0.97436	0.0041
288.23	0.96483	0.00563
298.17	0.97238	0.00442
308.06	0.971	0.00464
318.17	0.96745	0.00521
328.21	0.96508	0.00559
338.16	0.96368	0.00581
348.16	0.9624	0.00602
357.72	0.96308	0.00591

System: 2,2'-oxybisbutane + water; phases: Liquid mixture 1, Liquid mixture 2
Fixed: Pressure, kPa = 101
Property: Mole fraction of 2,2'-oxybisbutane (Liquid mixture 1); method: CHROM:UFactor:16
Temperature, K	Mole fraction of 2,2'-oxybisbutane	uncertainty
288.4	7e-05	1e-05
298.11	6e-05	1e-05
308.05	6e-05	1e-05
318.15	4e-05	1e-05
328.13	4e-05	1e-05
338.11	4e-05	1e-05
348.05	4e-05	1e-05
358	4e-05	1e-05

System: 2,2'-oxybisbutane + water; phases: Liquid mixture 2, Liquid mixture 1
Fixed: Pressure, kPa = 101
Property: Mole fraction of 2,2'-oxybisbutane (Liquid mixture 2); method: CHROM:UFactor:16
Temperature, K	Mole fraction of 2,2'-oxybisbutane	uncertainty
288.4	0.98195	0.00289
298.11	0.98143	0.00297
308.05	0.9793	0.00331
318.15	0.97928	0.00332
328.13	0.97552	0.00392
338.11	0.97284	0.00435
348.05	0.97104	0.00463
358	0.9702	0.00477

System: methanol + 1,1-dimethylpropyl ethyl ether + water; phases: Liquid mixture 1, Liquid mixture 2
Fixed: Temperature, K = 298.15
Fixed: Pressure, kPa = 101
Property: Mole fraction of 1,1-dimethylpropyl ethyl ether (Liquid mixture 1); method: CHROM:UFactor:8
Property: Mole fraction of 1,1-dimethylpropyl ethyl ether (Liquid mixture 2); method: CHROM:UFactor:8
Property: Mole fraction of methanol (Liquid mixture 2); method: CHROM:UFactor:8
Mole fraction of methanol	Mole fraction of 1,1-dimethylpropyl ethyl ether	uncertainty	Mole fraction of 1,1-dimethylpropyl ethyl ether	uncertainty	Mole fraction of methanol	uncertainty
0.06921	0.00046	4e-05	0.95665	0.00347	0.02044	
0.11844	0.00064	5e-05	0.93732	0.00501	0.03804	
0.16744	0.00096	8e-05	0.90876	0.0073	0.05991	
0.24175	0.00246	0.0002	0.86537	0.01077	0.09762	
0.32015	0.0053	0.00042	0.8016	0.01587	0.1479	
0.38366	0.01015	0.00081	0.73494	0.0212	0.20045	
0.46958	0.02621	0.0021	0.60073	0.03194	0.29871	
0.53813	0.08384	0.00671	0.37271	0.02982	0.44273	
0.54006	0.08907	0.00713	0.36003	0.0288	0.45104	
0.54243	0.10188	0.00815	0.31475	0.02518	0.47307	
0.54114	0.10482	0.00839	0.31242	0.02499	0.47298	

System: ethanol + 1,1-dimethylpropyl ethyl ether + water; phases: Liquid mixture 2, Liquid mixture 1
Fixed: Temperature, K = 298.15
Fixed: Pressure, kPa = 101
Property: Mole fraction of ethanol (Liquid mixture 2); method: CHROM:UFactor:8
Property: Mole fraction of 1,1-dimethylpropyl ethyl ether (Liquid mixture 1); method: CHROM:UFactor:8
Property: Mole fraction of ethanol (Liquid mixture 1); method: CHROM:UFactor:8
Mole fraction of 1,1-dimethylpropyl ethyl ether	Mole fraction of ethanol	uncertainty	Mole fraction of 1,1-dimethylpropyl ethyl ether	uncertainty	Mole fraction of ethanol	uncertainty
0.91371	0.04987	0.00399	0.00053	4e-05	0.06352	
0.83202	0.11461	0.00917	0.00121	0.0001	0.11157	
0.711	0.19593	0.01567	0.0026	0.00021	0.15567	
0.5649	0.28627	0.0229	0.00637	0.00051	0.20338	
0.37044	0.37251	0.0298	0.01993	0.00159	0.26686	
0.21599	0.39734	0.03179	0.05108	0.00409	0.3257	
0.19231	0.39344	0.03148	0.05857	0.00469	0.33227	
0.13859	0.38013	0.03041	0.08538	0.00683	0.35216	
0.23329	0.39739	0.03179	0.04385	0.00351	0.31627	

System: methanol + water + 1-methylethyl 1,1-dimethylethyl ether; phases: Liquid mixture 1, Liquid mixture 2
Fixed: Temperature, K = 298.15
Fixed: Pressure, kPa = 101
Property: Mole fraction of 1-methylethyl 1,1-dimethylethyl ether (Liquid mixture 1); method: CHROM:UFactor:8
Property: Mole fraction of 1-methylethyl 1,1-dimethylethyl ether (Liquid mixture 2); method: CHROM:UFactor:8
Property: Mole fraction of methanol (Liquid mixture 2); method: CHROM:UFactor:8
Mole fraction of methanol	Mole fraction of 1-methylethyl 1,1-dimethylethyl ether	uncertainty	Mole fraction of 1-methylethyl 1,1-dimethylethyl ether	uncertainty	Mole fraction of methanol	uncertainty
0.06677	0.0004	3e-05	0.93846	0.00492	0.02687	
0.1233	0.00089	7e-05	0.90274	0.00778	0.0565	
0.17248	0.00148	0.00012	0.86758	0.01059	0.08698	
0.24268	0.00263	0.00021	0.79733	0.01621	0.14204	
0.33747	0.00834	0.00067	0.66418	0.02687	0.23888	
0.39957	0.01869	0.0015	0.54742	0.03621	0.31783	
0.45348	0.03822	0.00306	0.4224	0.03379	0.39473	
0.459	0.04015	0.00321	0.39926	0.03194	0.40793	
0.47712	0.05909	0.00473	0.32864	0.02629	0.4428	
0.48072	0.06454	0.00516	0.2994	0.02395	0.45665	

System: ethanol + water + 1-methylethyl 1,1-dimethylethyl ether; phases: Liquid mixture 2, Liquid mixture 1
Fixed: Temperature, K = 298.15
Fixed: Pressure, kPa = 101
Property: Mole fraction of ethanol (Liquid mixture 2); method: CHROM:UFactor:8
Property: Mole fraction of 1-methylethyl 1,1-dimethylethyl ether (Liquid mixture 1); method: CHROM:UFactor:8
Property: Mole fraction of ethanol (Liquid mixture 1); method: CHROM:UFactor:8
Mole fraction of 1-methylethyl 1,1-dimethylethyl ether	Mole fraction of ethanol	uncertainty	Mole fraction of 1-methylethyl 1,1-dimethylethyl ether	uncertainty	Mole fraction of ethanol	uncertainty
0.8893	0.06339	0.00507	0.00067	5e-05	0.06208	
0.78357	0.13901	0.01112	0.00137	0.00011	0.10567	
0.63562	0.23967	0.01917	0.00265	0.00021	0.14797	
0.4533	0.33645	0.02692	0.00645	0.00052	0.19326	
0.26991	0.39273	0.03142	0.01866	0.00149	0.24931	
0.14254	0.3755	0.03004	0.0488	0.0039	0.30384	
0.17153	0.38563	0.03085	0.03797	0.00304	0.29076	
0.13348	0.37212	0.02977	0.05119	0.0041	0.30814	

System: methanol + 2,2'-oxybisbutane + water; phases: Liquid mixture 1, Liquid mixture 2
Fixed: Temperature, K = 298.15
Fixed: Pressure, kPa = 101
Property: Mole fraction of 2,2'-oxybisbutane (Liquid mixture 1); method: CHROM:UFactor:8
Property: Mole fraction of 2,2'-oxybisbutane (Liquid mixture 2); method: CHROM:UFactor:8
Property: Mole fraction of methanol (Liquid mixture 2); method: CHROM:UFactor:8
Mole fraction of methanol	Mole fraction of 2,2'-oxybisbutane	uncertainty	Mole fraction of 2,2'-oxybisbutane	uncertainty	Mole fraction of methanol	uncertainty
0.60689	0.03552	0.00284				
0.07551	0.00018	2e-05	0.95983	0.00321	0.01767	
0.13009	0.00021	2e-05	0.94557	0.00435	0.03144	
0.20438	0.00034	3e-05	0.92136	0.00629	0.05507	
0.29191	0.00104	8e-05	0.88391	0.00929	0.08764	
0.36045	0.00224	0.00018	0.85134	0.01189	0.11778	
0.41826	0.00409	0.00033	0.81251	0.015	0.15214	
0.51029	0.01163	0.00093	0.7365	0.02108	0.21736	
0.57461	0.02268	0.00181	0.64745	0.0282	0.2892	

System: ethanol + 2,2'-oxybisbutane + water; phases: Liquid mixture 2, Liquid mixture 1
Fixed: Temperature, K = 298.15
Fixed: Pressure, kPa = 101
Property: Mole fraction of ethanol (Liquid mixture 2); method: CHROM:UFactor:8
Property: Mole fraction of 2,2'-oxybisbutane (Liquid mixture 1); method: CHROM:UFactor:8
Property: Mole fraction of ethanol (Liquid mixture 1); method: CHROM:UFactor:8
Mole fraction of 2,2'-oxybisbutane	Mole fraction of ethanol	uncertainty	Mole fraction of 2,2'-oxybisbutane	uncertainty	Mole fraction of ethanol	uncertainty
0.95805	0.01595	0.00128	8e-05	1e-05	0.02959	
0.93725	0.03615	0.00289	0.0001	1e-05	0.06284	
0.88874	0.0766	0.00613	0.00025	2e-05	0.10912	
0.80501	0.14489	0.01159	0.0008	6e-05	0.16911	
0.69043	0.22829	0.01826	0.00337	0.00027	0.24163	
0.59941	0.28907	0.02313	0.00829	0.00066	0.29372	
0.49451	0.35225	0.02818	0.02021	0.00162	0.35198	
0.31185	0.43227	0.03458	0.06395	0.00512	0.42833	
0.33465	0.42746	0.0342	0.05375	0.0043	0.4211	
0.32088	0.43101	0.03448	0.05941	0.00475	0.42478	
