Measured thermophysical data. Thermodynamic properties of mixtures containing ionic liquids Vapor pressures and activity coefficients of n-alcohols and benzene in binary mixtures with 1-methyl-3-butyl-imidazolium bis(trifluoromethyl-sulfonyl) imide
Source: Fluid Phase Equilib., 2005, 10.1016/j.fluid.2005.07.008
Compound 1: methanol, CH4O, InChI=1S/CH4O/c1-2/h2H,1H3
Compound 2: ethanol, C2H6O, InChI=1S/C2H6O/c1-2-3/h3H,2H2,1H3
Compound 3: propan-1-ol, C3H8O, InChI=1S/C3H8O/c1-2-3-4/h4H,2-3H2,1H3
Compound 4: benzene, C6H6, InChI=1S/C6H6/c1-2-4-6-5-3-1/h1-6H
Compound 5: 1-butyl-3-methylimidazolium bis(trifluoromethylsulfonyl)imide, C10H15F6N3O4S2, InChI=1S/C8H15N2.C2F6NO4S2/c1-3-4-5-10-7-6-9(2)8-10;3-1(4,5)14(10,11)9-15(12,13)2(6,7)8/h6-8H,3-5H2,1-2H3;/q+1;-1
Compound 6: tetradecane, C14H30, InChI=1S/C14H30/c1-3-5-7-9-11-13-14-12-10-8-6-4-2/h3-14H2,1-2H3

System: methanol; phases: Liquid, Gas
Property: Vapor or sublimation pressure, kPa (Liquid); method: CCELL:UFactor:2
Temperature, K	Vapor or sublimation pressure, kPa	uncertainty
298.15	16.971	0.071
298.15	16.958	0.545
303.15	21.877	0.086
303.15	21.88	0.667
308.15	27.958	0.106
308.15	27.96	0.817
313.15	35.441	0.13
313.15	35.45	1.003
318.15	44.537	0.159
323.15	55.576	0.193

System: ethanol; phases: Liquid, Gas
Property: Vapor or sublimation pressure, kPa (Liquid); method: CCELL:UFactor:8
Temperature, K	Vapor or sublimation pressure, kPa	uncertainty
298.15	7.876	0.319
303.15	10.468	0.384
308.15	13.768	0.465
313.15	17.928	0.569

System: propan-1-ol; phases: Liquid, Gas
Property: Vapor or sublimation pressure, kPa (Liquid); method: CCELL:UFactor:8
Temperature, K	Vapor or sublimation pressure, kPa	uncertainty
298.15	2.786	0.193
303.15	3.826	0.219
308.15	5.199	0.253
313.15	6.986	0.297

System: benzene; phases: Liquid, Gas
Property: Vapor or sublimation pressure, kPa (Liquid); method: CCELL:UFactor:8
Temperature, K	Vapor or sublimation pressure, kPa	uncertainty
298.15	12.704	0.439
303.15	15.919	0.519
308.15	19.659	0.611
313.15	24.331	0.727

System: benzene + tetradecane; phases: Liquid, Gas
Property: Vapor or sublimation pressure, kPa (Liquid); method: CCELL:UFactor:2
Mole fraction of benzene	Temperature, K	Vapor or sublimation pressure, kPa	uncertainty
0.23627	298.15	3.432	0.059
0.23627	303.15	4.253	0.066
0.23627	313.15	6.298	0.085
0.34585	298.15	5.028	0.071
0.34585	303.15	6.206	0.081
0.34585	313.15	9.179	0.107
0.58016	298.15	8.083	0.089
0.58016	303.15	10.027	0.103
0.58016	313.15	15.112	0.141
0.66452	298.15	9.137	0.094
0.66452	303.15	11.342	0.109
0.66452	313.15	17.033	0.149
0.75466	298.15	10.113	0.098
0.75466	303.15	12.625	0.115
0.75466	313.15	19.012	0.157
0.8444	298.15	11.034	0.102
0.8444	303.15	13.782	0.12
0.8444	313.15	21.071	0.166
0.87346	298.15	11.328	0.103
0.87346	303.15	14.194	0.121
0.87346	313.15	21.603	0.168

System: methanol + 1-butyl-3-methylimidazolium bis(trifluoromethylsulfonyl)imide; phases: Liquid, Gas
Property: Vapor or sublimation pressure, kPa (Liquid); method: CCELL:UFactor:8
Mole fraction of methanol	Temperature, K	Vapor or sublimation pressure, kPa	uncertainty
0	298.15	0	0.02
0	303.15	0	0.02
0	308.15	0	0.02
0	313.15	0	0.02
0.0454	298.15	0.748	0.109
0.0454	303.15	0.928	0.131
0.0454	308.15	1.113	0.154
0.0454	313.15	1.299	0.178
0.0816	298.15	1.356	0.158
0.0816	303.15	1.67	0.166
0.0816	308.15	1.989	0.174
0.0816	313.15	2.399	0.185
0.0992	298.15	1.588	0.164
0.0992	303.15	1.972	0.174
0.0992	308.15	2.404	0.185
0.0992	313.15	2.844	0.196
0.14	298.15	2.332	0.183
0.14	303.15	2.899	0.197
0.14	308.15	3.482	0.212
0.14	313.15	4.174	0.23
0.2537	298.15	4.287	0.232
0.2537	303.15	5.303	0.259
0.2537	308.15	6.421	0.287
0.2537	313.15	7.78	0.322
0.3349	298.15	6.126	0.279
0.3349	303.15	7.574	0.316
0.3349	308.15	9.382	0.362
0.3349	313.15	11.439	0.415
0.4658	298.15	8.826	0.346
0.4658	303.15	11.085	0.403
0.4658	308.15	13.737	0.471
0.4658	313.15	17.045	0.554
0.5852	298.15	10.875	0.396
0.5852	303.15	13.765	0.469
0.5852	308.15	17.18	0.555
0.5852	313.15	21.347	0.66
0.6878	298.15	12.73	0.442
0.6878	303.15	16.06	0.525
0.6878	308.15	20.065	0.625
0.6878	313.15	24.766	0.742
0.784	298.15	14.086	0.474
0.784	303.15	17.878	0.569
0.784	308.15	22.37	0.681
0.784	313.15	27.947	0.82
0.8526	298.15	15.001	0.497
0.8526	303.15	19.045	0.597
0.8526	308.15	24.104	0.723
0.8526	313.15	30.239	0.875
0.9007	298.15	15.609	0.511
0.9007	303.15	19.953	0.619
0.9007	308.15	25.26	0.751
0.9007	313.15	31.701	0.911
0.9321	298.15	16.001	0.521
0.9321	303.15	20.491	0.632
0.9321	308.15	26.003	0.769
0.9321	313.15	32.702	0.935
0.9786	298.15	16.597	0.536
0.9786	303.15	21.342	0.653
0.9786	308.15	27.198	0.799
0.9786	313.15	34.391	0.977
0.99	298.15	16.772	0.54
0.99	303.15	21.607	0.66
0.99	308.15	27.54	0.807
0.99	313.15	34.85	0.988
1	298.15	16.958	0.545
1	303.15	21.88	0.667
1	308.15	27.96	0.817
1	313.15	35.45	1.003

System: ethanol + 1-butyl-3-methylimidazolium bis(trifluoromethylsulfonyl)imide; phases: Liquid, Gas
Property: Vapor or sublimation pressure, kPa (Liquid); method: CCELL:UFactor:8
Mole fraction of ethanol	Temperature, K	Vapor or sublimation pressure, kPa	uncertainty
0	298.15	0	0.02
0	303.15	0	0.02
0	308.15	0	0.02
0	313.15	0	0.02
0.0631	298.15	0.852	0.122
0.0631	303.15	1.006	0.141
0.0631	308.15	1.141	0.158
0.0631	313.15	1.334	0.158
0.0824	298.15	1.136	0.157
0.0824	303.15	1.325	0.157
0.0824	308.15	1.552	0.163
0.0824	313.15	1.827	0.17
0.1995	298.15	2.626	0.19
0.1995	303.15	3.223	0.205
0.1995	308.15	3.993	0.225
0.1995	313.15	4.85	0.247
0.269	298.15	3.392	0.21
0.269	303.15	4.247	0.231
0.269	308.15	5.202	0.256
0.269	313.15	6.342	0.285
0.3622	298.15	4.294	0.232
0.3622	303.15	5.471	0.262
0.3622	308.15	6.797	0.296
0.3622	313.15	8.331	0.335
0.5088	298.15	5.621	0.265
0.5088	303.15	7.242	0.306
0.5088	308.15	9.196	0.355
0.5088	313.15	11.603	0.416
0.5584	298.15	6.059	0.276
0.5584	303.15	7.789	0.319
0.5584	308.15	9.952	0.373
0.5584	313.15	12.51	0.438
0.6777	298.15	6.979	0.298
0.6777	303.15	8.937	0.347
0.6777	308.15	11.431	0.409
0.6777	313.15	14.336	0.482
0.7116	298.15	7.154	0.302
0.7116	303.15	9.169	0.352
0.7116	308.15	11.773	0.417
0.7116	313.15	14.767	0.492
0.8008	298.15	7.546	0.312
0.8008	303.15	9.742	0.366
0.8008	308.15	12.527	0.435
0.8008	313.15	15.875	0.519
0.8768	298.15	7.733	0.316
0.8768	303.15	10.108	0.375
0.8768	308.15	13.051	0.448
0.8768	313.15	16.679	0.538
0.9365	298.15	7.785	0.317
0.9365	303.15	10.262	0.379
0.9365	308.15	13.337	0.455
0.9365	313.15	17.193	0.551
1	298.15	7.876	0.319
1	303.15	10.468	0.384
1	308.15	13.768	0.465
1	313.15	17.928	0.569

System: propan-1-ol + 1-butyl-3-methylimidazolium bis(trifluoromethylsulfonyl)imide; phases: Liquid, Gas
Property: Vapor or sublimation pressure, kPa (Liquid); method: CCELL:UFactor:8
Mole fraction of propan-1-ol	Temperature, K	Vapor or sublimation pressure, kPa	uncertainty
0	298.15	0	0.02
0	303.15	0	0.02
0	308.15	0	0.02
0	313.15	0	0.02
0.1155	298.15	0.789	0.114
0.1155	303.15	0.976	0.137
0.1155	308.15	1.241	0.17
0.1155	313.15	1.594	0.164
0.2119	298.15	1.309	0.157
0.2119	303.15	1.633	0.165
0.2119	308.15	1.994	0.174
0.2119	313.15	2.543	0.188
0.3339	298.15	1.849	0.17
0.3339	303.15	2.373	0.183
0.3339	308.15	2.912	0.197
0.3339	313.15	3.714	0.217
0.4673	298.15	2.356	0.183
0.4673	303.15	3.001	0.199
0.4673	308.15	3.79	0.219
0.4673	313.15	4.875	0.246
0.5733	298.15	2.582	0.188
0.5733	303.15	3.361	0.208
0.5733	308.15	4.331	0.232
0.5733	313.15	5.56	0.263
0.6716	298.15	2.703	0.191
0.6716	303.15	3.589	0.213
0.6716	308.15	4.702	0.241
0.6716	313.15	6.066	0.275
0.737	298.15	2.746	0.192
0.737	303.15	3.696	0.216
0.737	308.15	4.879	0.245
0.737	313.15	6.332	0.281
0.8178	298.15	2.772	0.193
0.8178	303.15	3.772	0.218
0.8178	308.15	5.031	0.249
0.8178	313.15	6.584	0.287
0.8675	298.15	2.779	0.193
0.8675	303.15	3.803	0.218
0.8675	308.15	5.102	0.251
0.8675	313.15	6.714	0.291
0.891	298.15	2.782	0.193
0.891	303.15	3.812	0.219
0.891	308.15	5.132	0.251
0.891	313.15	6.771	0.292
0.9358	298.15	2.784	0.193
0.9358	303.15	3.82	0.219
0.9358	308.15	5.168	0.252
0.9358	313.15	6.866	0.294
1	298.15	2.786	0.193
1	303.15	3.826	0.219
1	308.15	5.199	0.253
1	313.15	6.986	0.297

System: benzene + 1-butyl-3-methylimidazolium bis(trifluoromethylsulfonyl)imide; phases: Liquid, Gas
Property: Vapor or sublimation pressure, kPa (Liquid); method: CCELL:UFactor:8
Mole fraction of benzene	Temperature, K	Vapor or sublimation pressure, kPa	uncertainty
0	298.15	0	0.02
0	303.15	0	0.02
0	308.15	0	0.02
0	313.15	0	0.02
0.2189	298.15	2.348	0.183
0.2189	303.15	2.924	0.198
0.2189	308.15	3.576	0.214
0.2189	313.15	4.394	0.235
0.2351	298.15	2.571	0.189
0.2351	303.15	3.187	0.204
0.2351	308.15	3.89	0.222
0.2351	313.15	4.761	0.245
0.3353	298.15	4.218	0.23
0.3353	303.15	5.208	0.255
0.3353	308.15	6.32	0.284
0.3353	313.15	7.681	0.319
0.4401	298.15	6.024	0.275
0.4401	303.15	7.462	0.312
0.4401	308.15	9.087	0.353
0.4401	313.15	11.133	0.405
0.5478	298.15	7.935	0.323
0.5478	303.15	9.843	0.371
0.5478	308.15	12.014	0.425
0.5478	313.15	14.741	0.494
0.597	298.15	8.794	0.344
0.597	303.15	10.901	0.397
0.597	308.15	13.264	0.456
0.597	313.15	16.221	0.53
0.6761	298.15	10.088	0.376
0.6761	303.15	12.514	0.436
0.6761	308.15	15.275	0.505
0.6761	313.15	18.669	0.59
0.7116	298.15	10.693	0.39
0.7116	303.15	13.219	0.453
0.7116	308.15	16.113	0.526
0.7116	313.15	19.693	0.615
0.7478	298.15	11.288	0.405
0.7478	303.15	14	0.473
0.7478	308.15	17.061	0.549
0.7478	313.15	20.874	0.644
1	298.15	12.704	0.439
1	303.15	15.919	0.519
1	308.15	19.659	0.611
1	313.15	24.331	0.727
