Measured thermophysical data. Distribution of MEG and methanol in well-defined hydrocarbon and water systems: Experimental measurement and modeling using the CPA EoS
Source: Fluid Phase Equilib., 2013, 10.1016/j.fluid.2012.09.009
Compound 1: 1,2-ethanediol, C2H6O2, InChI=1S/C2H6O2/c3-1-2-4/h3-4H,1-2H2, purity 99.78%
Compound 2: nonane, C9H20, InChI=1S/C9H20/c1-3-5-7-9-8-6-4-2/h3-9H2,1-2H3, purity 99.99%
Compound 3: ethylbenzene, C8H10, InChI=1S/C8H10/c1-2-8-6-4-3-5-7-8/h3-7H,2H2,1H3, purity 99.99%
Compound 4: water, H2O, InChI=1S/H2O/h1H2, purity 99.8%

System: 1,2-ethanediol + nonane; phases: Liquid mixture 1, Liquid mixture 2
Fixed: Pressure, kPa = 101.3
Property: Mole fraction of 1,2-ethanediol (Liquid mixture 1); method: Chromatography
Temperature, K	Mole fraction of 1,2-ethanediol	uncertainty
303.15	0.000185	2e-06
313.15	0.00028	3e-06
323.15	0.000428	4e-06

System: 1,2-ethanediol + nonane; phases: Liquid mixture 2, Liquid mixture 1
Fixed: Pressure, kPa = 101.3
Property: Mole fraction of nonane (Liquid mixture 2); method: Chromatography
Temperature, K	Mole fraction of nonane	uncertainty
303.15	0.000338	3e-06
313.15	0.000349	4e-06
323.15	0.000462	5e-06

System: ethylbenzene + 1,2-ethanediol; phases: Liquid mixture 1, Liquid mixture 2
Fixed: Pressure, kPa = 101.3
Property: Mole fraction of 1,2-ethanediol (Liquid mixture 1); method: Chromatography
Temperature, K	Mole fraction of 1,2-ethanediol	uncertainty
303.15	0.002195	2.2e-05
313.15	0.00303	3e-05
323.15	0.003386	3.4e-05

System: ethylbenzene + 1,2-ethanediol; phases: Liquid mixture 2, Liquid mixture 1
Fixed: Pressure, kPa = 101.3
Property: Mole fraction of ethylbenzene (Liquid mixture 2); method: Chromatography
Temperature, K	Mole fraction of ethylbenzene	uncertainty
303.15	0.012095	0.000121
313.15	0.012209	0.000122
323.15	0.012696	0.000127

System: 1,2-ethanediol + nonane + water; phases: Liquid mixture 1, Liquid mixture 2
Fixed: Temperature, K = 313.15
Fixed: Pressure, kPa = 101.3
Property: Mole fraction of nonane (Liquid mixture 1); method: Chromatography
Property: Mole fraction of nonane (Liquid mixture 2); method: Chromatography
Property: Mole fraction of 1,2-ethanediol (Liquid mixture 2); method: Chromatography
Mole fraction of 1,2-ethanediol	Mole fraction of nonane	uncertainty	Mole fraction of nonane	uncertainty	Mole fraction of 1,2-ethanediol	uncertainty
0.5347	2.2e-05	1e-06	0.999978	1e-06	0.000183	
0.3031	3e-06	1e-06	0.999997	1e-06	0.000101	
0.1653	2e-06	1e-06	0.999998	1e-06	3.5e-05	

System: ethylbenzene + 1,2-ethanediol + water; phases: Liquid mixture 1, Liquid mixture 2
Fixed: Temperature, K = 313.15
Fixed: Pressure, kPa = 101.5
Property: Mole fraction of ethylbenzene (Liquid mixture 1); method: Chromatography
Property: Mole fraction of ethylbenzene (Liquid mixture 2); method: Chromatography
Property: Mole fraction of 1,2-ethanediol (Liquid mixture 2); method: Chromatography
Mole fraction of 1,2-ethanediol	Mole fraction of ethylbenzene	uncertainty	Mole fraction of ethylbenzene	uncertainty	Mole fraction of 1,2-ethanediol	uncertainty
0.443	0.00136	1.4e-05	0.998639	1.4e-05	0.001512	
0.3115	0.000459	5e-06	0.999541	5e-06	0.001144	
0.1581	0.000115	1e-06	0.999888	1e-06	0.00065	
