Measured thermophysical data. Equilibrium CO2 solubility and thermophysical properties of aqueous blends of 1-(2-aminoethyl) piperazine and N-methyldiethanolamine
Source: Fluid Phase Equilib., 2018, 10.1016/j.fluid.2018.01.030
Compound 1: N-(.beta.-aminoethyl)piperazine), C6H15N3, InChI=1S/C6H15N3/c7-1-4-9-5-2-8-3-6-9/h8H,1-7H2, purity 99%
Compound 2: N-methyldiethanolamine, C5H13NO2, InChI=1S/C5H13NO2/c1-6(2-4-7)3-5-8/h7-8H,2-5H2,1H3, purity 99%
Compound 3: diethanolamine, C4H11NO2, InChI=1S/C4H11NO2/c6-3-1-5-2-4-7/h5-7H,1-4H2, purity 99%
Compound 4: carbon dioxide, CO2, InChI=1S/CO2/c2-1-3, purity 99%
Compound 5: water, H2O, InChI=1S/H2O/h1H2, purity 99.8%

System: N-(.beta.-aminoethyl)piperazine); phases: Liquid
Fixed: Pressure, kPa = 101.325
Property: Mass density, kg/m3 (Liquid); method: Pycnometric method
Temperature, K	Mass density, kg/m3	uncertainty
303.2	981.129	1.024
313.2	977.356	1.031
323.2	973.989	1.04
333.2	969.461	1.05
343.2	965.122	1.058

System: N-(.beta.-aminoethyl)piperazine); phases: Liquid
Fixed: Pressure, kPa = 101.325
Property: Viscosity, Pa*s (Liquid); method: Capillary tube (Ostwald; Ubbelohde) method
Temperature, K	Viscosity, Pa*s	uncertainty
303.2	0.014181	0.000169
313.2	0.008669	0.000137
323.2	0.005626	0.000107
333.2	0.004481	9.7e-05
343.2	0.003697	9.5e-05

System: N-methyldiethanolamine + water; phases: Liquid
Fixed: Pressure, kPa = 101
Property: Mass density, kg/m3 (Liquid); method: Pycnometric method
Temperature, K	Mass fraction of N-methyldiethanolamine	Mass density, kg/m3	uncertainty
303.2	0.1	1003.8	1
313.2	0.1	999.5	1
323.2	0.1	995.2	1
333.2	0.1	990.5	1
303.2	0.2	1012.4	1
313.2	0.2	1008.4	1
323.2	0.2	1003.5	1
333.2	0.2	998.6	1
303.2	0.3	1024.5	1
313.2	0.3	1019.5	1
323.2	0.3	1015.2	1
333.2	0.3	1008.2	1

System: N-methyldiethanolamine + water; phases: Liquid
Fixed: Pressure, kPa = 101
Property: Viscosity, Pa*s (Liquid); method: Capillary tube (Ostwald; Ubbelohde) method
Temperature, K	Mass fraction of N-methyldiethanolamine	Viscosity, Pa*s	uncertainty
303.2	0.1	0.001164	6.1e-05
313.2	0.1	0.000912	6.1e-05
323.2	0.1	0.000752	6.1e-05
333.2	0.1	0.000635	6e-05
303.2	0.2	0.001635	6.3e-05
313.2	0.2	0.001314	6.2e-05
323.2	0.2	0.00106	6e-05
333.2	0.2	0.000867	6.1e-05
303.2	0.3	0.002634	6.6e-05
313.2	0.3	0.001946	6.4e-05
323.2	0.3	0.001517	6.2e-05
333.2	0.3	0.001219	6.1e-05

System: N-(.beta.-aminoethyl)piperazine) + N-methyldiethanolamine + water; phases: Liquid
Fixed: Pressure, kPa = 101
Property: Mass density, kg/m3 (Liquid); method: Pycnometric method
Temperature, K	Mass fraction of N-(.beta.-aminoethyl)piperazine)	Mass fraction of N-methyldiethanolamine	Mass density, kg/m3	uncertainty
303.2	0.05	0.35	1032.271	0.953
303.2	0.1	0.3	1030.8	0.95
303.2	0.15	0.25	1029.668	0.949
303.2	0.2	0.2	1028.298	0.953
303.2	0.25	0.15	1026.928	0.953
313.2	0.05	0.35	1026.733	0.961
313.2	0.1	0.3	1025.265	0.96
313.2	0.15	0.25	1024.758	0.96
313.2	0.2	0.2	1022.528	0.962
313.2	0.25	0.15	1021.159	0.961
323.2	0.05	0.35	1019.8	0.97
323.2	0.1	0.3	1018.63	0.97
323.2	0.15	0.25	1017.66	0.97
323.2	0.2	0.2	1015.941	0.968
323.2	0.25	0.15	1014.651	0.967
333.2	0.05	0.35	1012.24	0.982
333.2	0.1	0.3	1011.389	0.982
333.2	0.15	0.25	1010.844	0.991
333.2	0.2	0.2	1009.829	0.991
333.2	0.25	0.15	1008.308	1
343.2	0.05	0.35	1003.972	0.991
343.2	0.1	0.3	1002.76	1.003
343.2	0.15	0.25	999.104	1.015
343.2	0.2	0.2	997.663	1.023
343.2	0.25	0.15	996.066	1.023

System: N-(.beta.-aminoethyl)piperazine) + N-methyldiethanolamine + water; phases: Liquid
Fixed: Pressure, kPa = 101
Property: Viscosity, Pa*s (Liquid); method: Capillary tube (Ostwald; Ubbelohde) method
Temperature, K	Mass fraction of N-(.beta.-aminoethyl)piperazine)	Mass fraction of N-methyldiethanolamine	Viscosity, Pa*s	uncertainty
303.2	0.05	0.35	0.00431	0.000118
303.2	0.1	0.3	0.00495	0.000118
303.2	0.15	0.25	0.005249	0.000121
303.2	0.2	0.2	0.005847	0.000127
303.2	0.25	0.15	0.006961	0.000132
313.2	0.05	0.35	0.003059	0.000114
313.2	0.1	0.3	0.003422	0.000115
313.2	0.15	0.25	0.003502	0.000115
313.2	0.2	0.2	0.003907	0.000119
313.2	0.25	0.15	0.004707	0.000127
323.2	0.05	0.35	0.002228	0.000112
323.2	0.1	0.3	0.002499	0.000112
323.2	0.15	0.25	0.0026	0.000112
323.2	0.2	0.2	0.002798	0.000114
323.2	0.25	0.15	0.003393	0.000117
333.2	0.05	0.35	0.001714	0.000111
333.2	0.1	0.3	0.00186	0.000111
333.2	0.15	0.25	0.001895	0.000111
333.2	0.2	0.2	0.002068	0.000112
333.2	0.25	0.15	0.002415	0.000114
343.2	0.05	0.35	0.001311	0.000111
343.2	0.1	0.3	0.001407	0.000111
343.2	0.15	0.25	0.00144	0.000111
343.2	0.2	0.2	0.001543	0.000111
343.2	0.25	0.15	0.00178	0.000112

System: N-(.beta.-aminoethyl)piperazine) + N-methyldiethanolamine + water; phases: Liquid, Air at 1 atmosphere
Property: Surface tension liquid-gas, N/m (Liquid); method: Pendant drop shape
Temperature, K	Mass fraction of N-(.beta.-aminoethyl)piperazine)	Mass fraction of N-methyldiethanolamine	Surface tension liquid-gas, N/m	uncertainty
303.2	0.05	0.35	0.051606	0.000699
303.2	0.1	0.3	0.052461	0.000704
303.2	0.15	0.25	0.053859	0.00071
303.2	0.2	0.2	0.054567	0.000713
303.2	0.25	0.15	0.055567	0.000718
313.2	0.05	0.35	0.051039	0.000696
313.2	0.1	0.3	0.051869	0.0007
313.2	0.15	0.25	0.053016	0.000706
313.2	0.2	0.2	0.053964	0.000711
313.2	0.25	0.15	0.055067	0.000716
323.2	0.05	0.35	0.050373	0.000693
323.2	0.1	0.3	0.050939	0.000696
323.2	0.15	0.25	0.052184	0.000702
323.2	0.2	0.2	0.053178	0.000707
323.2	0.25	0.15	0.054477	0.000713
333.2	0.05	0.35	0.049206	0.000688
333.2	0.1	0.3	0.050306	0.000693
333.2	0.15	0.25	0.051144	0.000697
333.2	0.2	0.2	0.052173	0.000702
333.2	0.25	0.15	0.053376	0.000709
343.2	0.05	0.35	0.048492	0.000686
343.2	0.1	0.3	0.049907	0.000691
343.2	0.15	0.25	0.050202	0.000692
343.2	0.2	0.2	0.051335	0.000699
343.2	0.25	0.15	0.052866	0.000707

System: N-methyldiethanolamine + water + carbon dioxide; phases: Liquid, Gas
Fixed: Temperature, K = 313.2
Fixed: Solvent: Mass fraction of N-methyldiethanolamine = 0.3
Property: Mole fraction of carbon dioxide (Liquid); method: Phase equilibration
Pressure, kPa of carbon dioxide	Mole fraction of carbon dioxide	uncertainty
1.6	0.199	0.01
4.4	0.348	0.019
8.2	0.465	0.023
17.7	0.581	0.021
39.3	0.721	0.016
72.7	0.828	0.013
106.7	0.877	0.008
148.7	0.903	0.007
181.9	0.92	0.007

System: diethanolamine + water; phases: Liquid, Air at 1 atmosphere
Property: Surface tension liquid-gas, N/m (Liquid); method: Pendant drop shape
Temperature, K	Mass fraction of diethanolamine	Surface tension liquid-gas, N/m	uncertainty
313.2	0.1	0.06042	0.00083
323.2	0.1	0.05918	0.00083
333.2	0.1	0.05885	0.00082
313.2	0.2	0.06307	0.00084
323.2	0.2	0.06223	0.00084
333.2	0.2	0.06056	0.00084
313.2	0.3	0.06157	0.00084
323.2	0.3	0.06013	0.00084
333.2	0.3	0.05843	0.00083
