Measured thermophysical data. Density and surface tension variation with temperature for n-nonane + 1-hexanol
Source: Fluid Phase Equilib., 2006, 10.1016/j.fluid.2006.01.028
Compound 1: nonane, C9H20, InChI=1S/C9H20/c1-3-5-7-9-8-6-4-2/h3-9H2,1-2H3, purity 98%
Compound 2: hexan-1-ol, C6H14O, InChI=1S/C6H14O/c1-2-3-4-5-6-7/h7H,2-6H2,1H3, purity 99%

System: nonane; phases: Liquid, Gas
Property: Surface tension liquid-gas, N/m (Liquid); method: Drop volume
Temperature, K	Surface tension liquid-gas, N/m	uncertainty
288.15	0.02338	0.00027
298.15	0.02237	0.00026
308.15	0.02125	0.00025

System: nonane; phases: Liquid, Gas
Property: Mass density, kg/m3 (Liquid); method: VIBTUB:UFactor:8
Temperature, K	Mass density, kg/m3	uncertainty
288.15	721.78	1.35
298.15	714.02	1.37
308.15	706.21	1.39

System: hexan-1-ol; phases: Liquid, Gas
Property: Surface tension liquid-gas, N/m (Liquid); method: Drop volume
Temperature, K	Surface tension liquid-gas, N/m	uncertainty
288.15	0.02608	0.0002
298.15	0.02519	0.00019
308.15	0.02419	0.00019

System: hexan-1-ol; phases: Liquid, Gas
Property: Mass density, kg/m3 (Liquid); method: VIBTUB:UFactor:4
Temperature, K	Mass density, kg/m3	uncertainty
288.15	822.28	0.58
298.15	815.23	0.59
308.15	808	0.59

System: hexan-1-ol + nonane; phases: Liquid, Gas
Property: Surface tension liquid-gas, N/m (Liquid); method: Drop volume
Temperature, K	Mole fraction of nonane	Surface tension liquid-gas, N/m	uncertainty
288.15	0.05	0.02577	0.0002
288.15	0.1082	0.02547	0.0002
288.15	0.2075	0.02506	0.00021
288.15	0.3079	0.02462	0.00022
288.15	0.4075	0.02431	0.00022
288.15	0.5066	0.02401	0.00023
288.15	0.6024	0.02381	0.00024
288.15	0.7079	0.02368	0.00025
288.15	0.8081	0.02357	0.00026
288.15	0.9036	0.02348	0.00027
288.15	0.9554	0.02344	0.00027
298.15	0.0504	0.02484	0.0002
298.15	0.1004	0.02454	0.0002
298.15	0.2042	0.02412	0.0002
298.15	0.2998	0.02369	0.00021
298.15	0.388	0.02341	0.00022
298.15	0.5011	0.02307	0.00022
298.15	0.606	0.02284	0.00023
298.15	0.7086	0.02266	0.00024
298.15	0.8085	0.02256	0.00025
298.15	0.9007	0.02248	0.00026
298.15	0.9508	0.02239	0.00026
308.15	0.0511	0.02381	0.00019
308.15	0.1013	0.02352	0.00019
308.15	0.2059	0.02308	0.0002
308.15	0.3066	0.02259	0.0002
308.15	0.404	0.02227	0.00021
308.15	0.5065	0.02198	0.00022
308.15	0.6028	0.02177	0.00022
308.15	0.7135	0.02159	0.00023
308.15	0.8059	0.02147	0.00024
308.15	0.9043	0.02134	0.00025
308.15	0.9519	0.02127	0.00025

System: hexan-1-ol + nonane; phases: Liquid
Fixed: Pressure, kPa = 101
Property: Mass density, kg/m3 (Liquid); method: VIBTUB:UFactor:4
Temperature, K	Mole fraction of nonane	Mass density, kg/m3	uncertainty
288.15	0.0509	815.13	0.6
288.15	0.1003	808.46	0.62
288.15	0.2028	795.35	0.66
288.15	0.307	783.01	0.7
288.15	0.4026	772.51	0.73
288.15	0.5086	761.75	0.77
288.15	0.6016	753.02	0.8
288.15	0.708	743.74	0.83
288.15	0.808	735.7	0.86
288.15	0.9016	728.72	0.89
288.15	0.9506	725.26	0.91
298.15	0.0509	807.93	0.6
298.15	0.1003	801.18	0.62
298.15	0.2028	787.95	0.66
298.15	0.307	775.48	0.7
298.15	0.4026	764.9	0.73
298.15	0.5086	754.06	0.77
298.15	0.6016	745.28	0.8
298.15	0.708	735.96	0.84
298.15	0.808	727.88	0.87
298.15	0.9016	720.88	0.9
298.15	0.9506	717.44	0.91
308.15	0.0509	800.64	0.61
308.15	0.1003	793.82	0.63
308.15	0.2028	780.43	0.67
308.15	0.307	767.86	0.7
308.15	0.4026	757.19	0.74
308.15	0.5086	746.28	0.77
308.15	0.6016	737.44	0.8
308.15	0.708	728.09	0.84
308.15	0.808	719.98	0.87
308.15	0.9016	712.97	0.9
308.15	0.9506	709.52	0.91
