Measured thermophysical data. Critical temperatures and pressures of ethylene glycols
Source: Fluid Phase Equilib., 2018, 10.1016/j.fluid.2018.05.011
Compound 1: diethylene glycol, C4H10O3, InChI=1S/C4H10O3/c5-1-3-7-4-2-6/h5-6H,1-4H2, purity 99.5%
Compound 2: triethylene glycol, C6H14O4, InChI=1S/C6H14O4/c7-1-3-9-5-6-10-4-2-8/h7-8H,1-6H2, purity 99.7%
Compound 3: tetraethylene glycol, C8H18O5, InChI=1S/C8H18O5/c9-1-3-11-5-7-13-8-6-12-4-2-10/h9-10H,1-8H2, purity 99.1%
Compound 4: 3,6,9,12-tetraoxatetradecane-1,14-diol, C10H22O6, InChI=1S/C10H22O6/c11-1-3-13-5-7-15-9-10-16-8-6-14-4-2-12/h11-12H,1-10H2, purity 97.8%
Compound 5: 3,6,9,12,15-pentaoxaheptadecane-1,17-diol, C12H26O7, InChI=1S/C12H26O7/c13-1-3-15-5-7-17-9-11-19-12-10-18-8-6-16-4-2-14/h13-14H,1-12H2, purity 98.1%

System: diethylene glycol; phases: Liquid, Gas
Property: Critical temperature, K (Liquid); method: Resistive pulse heating
Critical temperature, K	uncertainty
753	11

System: diethylene glycol; phases: Liquid, Gas
Property: Critical pressure, kPa (Liquid); method: Resistive pulse heating
Critical pressure, kPa	uncertainty
4830	190

System: triethylene glycol; phases: Liquid, Gas
Property: Critical temperature, K (Liquid); method: Resistive pulse heating
Critical temperature, K	uncertainty
788	12

System: triethylene glycol; phases: Liquid, Gas
Property: Critical pressure, kPa (Liquid); method: Resistive pulse heating
Critical pressure, kPa	uncertainty
3570	140

System: tetraethylene glycol; phases: Liquid, Gas
Property: Critical temperature, K (Liquid); method: Resistive pulse heating
Critical temperature, K	uncertainty
814	12

System: tetraethylene glycol; phases: Liquid, Gas
Property: Critical pressure, kPa (Liquid); method: Resistive pulse heating
Critical pressure, kPa	uncertainty
2710	110

System: 3,6,9,12-tetraoxatetradecane-1,14-diol; phases: Liquid, Gas
Property: Critical temperature, K (Liquid); method: Resistive pulse heating
Critical temperature, K	uncertainty
842	13

System: 3,6,9,12-tetraoxatetradecane-1,14-diol; phases: Liquid, Gas
Property: Critical pressure, kPa (Liquid); method: Resistive pulse heating
Critical pressure, kPa	uncertainty
2130	90

System: 3,6,9,12,15-pentaoxaheptadecane-1,17-diol; phases: Liquid, Gas
Property: Critical temperature, K (Liquid); method: Resistive pulse heating
Critical temperature, K	uncertainty
868	13

System: 3,6,9,12,15-pentaoxaheptadecane-1,17-diol; phases: Liquid, Gas
Property: Critical pressure, kPa (Liquid); method: Resistive pulse heating
Critical pressure, kPa	uncertainty
1820	70
