Measured thermophysical data. Thermophysical characterization of the deep eutectic solvent choline chloride:ethylene glycol and one of its mixtures with water
Source: Fluid Phase Equilib., 2019, 10.1016/j.fluid.2019.03.018
Compound 1: choline chloride, C5H14ClNO, InChI=1S/C5H14NO.ClH/c1-6(2,3)4-5-7;/h7H,4-5H2,1-3H3;1H/q+1;/p-1, purity 99.3%
Compound 2: 1,2-ethanediol, C2H6O2, InChI=1S/C2H6O2/c3-1-2-4/h3-4H,1-2H2, purity 99.5%
Compound 3: water, H2O, InChI=1S/H2O/h1H2, purity 99.9%

System: choline chloride + 1,2-ethanediol + water; phases: Liquid
Fixed: Mole fraction of water = 0.242
Fixed: Mole fraction of choline chloride = 0.254
Fixed: Pressure, kPa = 101
Property: Mass density, kg/m3 (Liquid); method: Vibrating tube method
Temperature, K	Mass density, kg/m3	uncertainty
278.15	1123.47	0.16
280.65	1122.05	0.16
283.15	1120.62	0.16
285.65	1119.18	0.16
288.15	1117.56	0.16
290.65	1116.33	0.16
293.15	1114.93	0.16
295.65	1113.49	0.16
298.15	1112.08	0.15
300.65	1110.66	0.15
303.15	1109.25	0.15
305.65	1107.83	0.15
308.15	1106.42	0.15
310.65	1105.01	0.15
313.15	1103.6	0.15
315.65	1102.19	0.15
318.15	1100.78	0.15
320.65	1099.38	0.15
323.15	1097.97	0.15
325.65	1096.57	0.15
328.15	1095.16	0.15
330.65	1093.76	0.15
333.15	1092.35	0.15
335.65	1090.95	0.15
338.15	1089.54	0.15

System: choline chloride + 1,2-ethanediol + water; phases: Liquid
Fixed: Mole fraction of water = 0.242
Fixed: Mole fraction of choline chloride = 0.254
Fixed: Pressure, kPa = 101
Fixed: Frequency, MHz = 3
Property: Speed of sound, m/s (Liquid); method: Single path-length method
Temperature, K	Speed of sound, m/s	uncertainty
278.15	1963.8	0.8
280.65	1958.4	0.8
283.15	1953.1	0.8
285.65	1947.8	0.8
288.15	1942.5	0.8
290.65	1937.1	0.8
293.15	1931.8	0.8
295.65	1926.4	0.8
298.15	1921	0.8
300.65	1915.7	0.8
303.15	1910.3	0.8
305.65	1905	0.8
308.15	1899.7	0.8
310.65	1894.3	0.8
313.15	1889	0.8
315.65	1883.6	0.8
318.15	1878.3	0.8
320.65	1873	0.8
323.15	1867.7	0.8
325.65	1862.4	0.8
328.15	1857.1	0.8
330.65	1851.6	0.8
333.15	1846.3	0.8
335.65	1840.9	0.8
338.15	1835.6	0.8

System: choline chloride + 1,2-ethanediol + water; phases: Liquid
Fixed: Mole fraction of water = 0.242
Fixed: Mole fraction of choline chloride = 0.254
Fixed: Pressure, kPa = 101
Property: Refractive index (Na D-line) (Liquid); method: Standard Abbe refractometry
Temperature, K	Refractive index (Na D-line)	uncertainty
283.15	1.46632	0.00033
285.65	1.46572	0.00033
288.15	1.46512	0.00033
290.65	1.4645	0.00033
293.15	1.4639	0.00033
295.65	1.46328	0.00033
298.15	1.46268	0.00033
300.65	1.46206	0.00033
303.15	1.46147	0.00033
305.65	1.46079	0.00033
308.15	1.46015	0.00033
310.65	1.45954	0.00033
313.15	1.45892	0.00033
315.65	1.45831	0.00033
318.15	1.45751	0.00033
320.65	1.45697	0.00033
323.15	1.45639	0.00033
325.65	1.45578	0.00033
328.15	1.45517	0.00033
330.65	1.45457	0.00033
333.15	1.45393	0.00033
335.65	1.45335	0.00033
338.15	1.45276	0.00033

System: choline chloride + 1,2-ethanediol + water; phases: Liquid
Fixed: Mole fraction of water = 0.242
Fixed: Mole fraction of choline chloride = 0.254
Fixed: Pressure, kPa = 101
Property: Molar heat capacity at constant pressure, J/K/mol (Liquid); method: DSC
Temperature, K	Molar heat capacity at constant pressure, J/K/mol	uncertainty
278.15	157.2	6.1
280.65	158	6.1
283.15	158.8	6.2
285.65	159.2	6.2
288.15	159.8	6.2
290.65	160.4	6.2
293.15	161	6.2
295.65	161.6	6.3
298.15	162.4	6.3
300.65	162.8	6.3
303.15	163.6	6.3
305.65	164.2	6.4
308.15	164.8	6.4
310.65	165.4	6.4
313.15	165.8	6.4
315.65	166.6	6.5
318.15	167.2	6.5
320.65	167.8	6.5
323.15	168.4	6.5
325.65	169.2	6.6
328.15	169.6	6.6
330.65	170.4	6.6
333.15	170.8	6.6
335.65	171.4	6.6
338.15	172.2	6.7

System: choline chloride + 1,2-ethanediol + water; phases: Liquid, Air at 1 atmosphere
Fixed: Mole fraction of water = 0.242
Fixed: Mole fraction of choline chloride = 0.254
Property: Surface tension liquid-gas, N/m (Liquid); method: Drop volume
Temperature, K	Surface tension liquid-gas, N/m	uncertainty
278.15	0.0569	0.00032
280.65	0.0568	0.00032
283.15	0.0567	0.00032
285.65	0.0566	0.00032
288.15	0.0565	0.00032
290.65	0.05635	0.00032
293.15	0.05625	0.00032
295.65	0.0561	0.00032
298.15	0.056	0.00032
300.65	0.0559	0.00032
303.15	0.0558	0.00032
305.65	0.05565	0.00032
308.15	0.0555	0.00031
310.65	0.05545	0.00031
313.15	0.0553	0.00031
315.65	0.0552	0.00031
318.15	0.0551	0.00031
320.65	0.055	0.00031
323.15	0.05485	0.00031
325.65	0.05475	0.00031
328.15	0.0546	0.00031
330.65	0.0545	0.00031
333.15	0.0544	0.00031
335.65	0.0543	0.00031
338.15	0.05415	0.00031

System: choline chloride + 1,2-ethanediol + water; phases: Liquid
Fixed: Pressure, kPa = 101
Property: Kinematic viscosity, m2/s (Liquid); method: Capillary tube (Ostwald; Ubbelohde) method
Mole fraction of water	Mole fraction of choline chloride	Temperature, K	Kinematic viscosity, m2/s	uncertainty
0	0.333	338.15	9.97e-06	2.92e-07
0.242	0.254	278.15	5.93e-05	8.5e-07
0.242	0.254	280.65	5.225e-05	7.5e-07
0.242	0.254	283.15	4.635e-05	7e-07
0.242	0.254	285.65	4.12e-05	6.4e-07
0.242	0.254	288.15	3.69e-05	5.9e-07
0.242	0.254	290.65	3.315e-05	5.4e-07
0.242	0.254	293.15	2.99e-05	5e-07
0.242	0.254	295.65	2.705e-05	4.7e-07
0.242	0.254	298.15	2.48e-05	4.4e-07
0.242	0.254	300.65	2.225e-05	4.1e-07
0.242	0.254	303.15	2.03e-05	3.8e-07
0.242	0.254	305.65	1.865e-05	3.6e-07
0.242	0.254	308.15	1.705e-05	3.4e-07
0.242	0.254	310.65	1.57e-05	3.2e-07
0.242	0.254	313.15	1.45e-05	3e-07
0.242	0.254	315.65	1.345e-05	2.9e-07
0.242	0.254	318.15	1.25e-05	2.7e-07
0.242	0.254	320.65	1.155e-05	2.6e-07
0.242	0.254	323.15	1.075e-05	2.5e-07
0.242	0.254	325.65	1.005e-05	2.4e-07
0.242	0.254	328.15	9.405e-06	2.26e-07
0.242	0.254	330.65	8.802e-06	2.17e-07
0.242	0.254	333.15	8.266e-06	2.09e-07
0.242	0.254	335.65	7.775e-06	2.01e-07
0.242	0.254	338.15	7.311e-06	1.96e-07

System: choline chloride + 1,2-ethanediol + water; phases: Liquid
Fixed: Mole fraction of water = 0.242
Fixed: Mole fraction of choline chloride = 0.254
Fixed: Pressure, kPa = 101
Fixed: Frequency, MHz = 0.002
Property: Electrical conductivity, S/m (Liquid); method: Alternating current cell with electrodes
Temperature, K	Electrical conductivity, S/m	uncertainty
278.15	0.522	0.005
280.65	0.593	0.006
283.15	0.669	0.007
285.65	0.752	0.008
288.15	0.841	0.008
290.65	0.94	0.009
293.15	1.05	0.01
295.65	1.15	0.01
298.15	1.27	0.01
300.65	1.37	0.01
303.15	1.49	0.02
305.65	1.62	0.02
308.15	1.75	0.02
310.65	1.89	0.02
313.15	2.04	0.02
315.65	2.2	0.02
318.15	2.37	0.02
320.65	2.55	0.03
323.15	2.73	0.03
325.65	2.91	0.03
328.15	3.07	0.03
330.65	3.25	0.03
333.15	3.45	0.03
335.65	3.66	0.04
338.15	3.88	0.04

System: choline chloride + 1,2-ethanediol; phases: Liquid
Fixed: Mole fraction of choline chloride = 0.333
Fixed: Pressure, kPa = 101
Property: Mass density, kg/m3 (Liquid); method: Vibrating tube method
Temperature, K	Mass density, kg/m3	uncertainty
278.15	1127.5	0.18
280.65	1126.06	0.18
283.15	1124.61	0.18
285.65	1123.17	0.18
288.15	1121.72	0.18
290.65	1120.28	0.18
293.15	1118.84	0.18
295.65	1117.4	0.18
298.15	1115.97	0.18
300.65	1114.54	0.18
303.15	1113.11	0.18
305.65	1111.68	0.18
308.15	1110.26	0.18
310.65	1108.83	0.17
313.15	1107.41	0.17
315.65	1105.99	0.17
318.15	1104.58	0.17
320.65	1103.17	0.17
323.15	1101.75	0.17
325.65	1100.34	0.17
328.15	1098.93	0.17
330.65	1097.53	0.17
333.15	1096.12	0.17
335.65	1094.72	0.17
338.15	1093.32	0.17

System: choline chloride + 1,2-ethanediol; phases: Liquid
Fixed: Mole fraction of choline chloride = 0.333
Fixed: Pressure, kPa = 101
Fixed: Frequency, MHz = 3
Property: Speed of sound, m/s (Liquid); method: Single path-length method
Temperature, K	Speed of sound, m/s	uncertainty
278.15	1950.2	1.3
280.65	1944.5	0.9
283.15	1938.9	0.9
285.65	1933.2	0.9
288.15	1927.5	0.9
290.65	1921.9	0.9
293.15	1916.3	0.9
295.65	1910.7	0.9
298.15	1905.1	0.9
300.65	1899.5	0.9
303.15	1894	0.9
305.65	1888.4	0.9
308.15	1882.8	0.9
310.65	1877.3	0.9
313.15	1871.8	0.9
315.65	1866.3	0.9
318.15	1860.7	0.9
320.65	1855.2	0.9
323.15	1849.6	0.9
325.65	1844	0.9
328.15	1838.4	0.9
330.65	1832.7	0.9
333.15	1827	0.9
335.65	1821.3	0.9
338.15	1815.5	1.3

System: choline chloride + 1,2-ethanediol; phases: Liquid
Fixed: Mole fraction of choline chloride = 0.333
Fixed: Pressure, kPa = 101
Property: Refractive index (Na D-line) (Liquid); method: Standard Abbe refractometry
Temperature, K	Refractive index (Na D-line)	uncertainty
283.15	1.47232	0.00035
285.65	1.47174	0.00033
288.15	1.47118	0.00033
290.65	1.47063	0.00033
293.15	1.47005	0.00033
295.65	1.46948	0.00033
298.15	1.46889	0.00033
300.65	1.46832	0.00033
303.15	1.46774	0.00033
305.65	1.46701	0.00033
308.15	1.46641	0.00033
310.65	1.46567	0.00033
313.15	1.46505	0.00033
315.65	1.46443	0.00033
318.15	1.46379	0.00033
320.65	1.46317	0.00033
323.15	1.46264	0.00033
325.65	1.46192	0.00033
328.15	1.4613	0.00033
330.65	1.46069	0.00033
333.15	1.4601	0.00033
335.65	1.45951	0.00033
338.15	1.45889	0.00035

System: choline chloride + 1,2-ethanediol; phases: Liquid
Fixed: Mole fraction of choline chloride = 0.333
Fixed: Pressure, kPa = 101
Property: Molar heat capacity at constant pressure, J/K/mol (Liquid); method: DSC
Temperature, K	Molar heat capacity at constant pressure, J/K/mol	uncertainty
278.15	164.2	6.4
280.65	164.8	6.4
283.15	165.2	6.4
285.65	165.8	6.4
288.15	166.4	6.4
290.65	167.2	6.5
293.15	167.4	6.5
295.65	168.2	6.5
298.15	168.8	6.5
300.65	169.4	6.6
303.15	169.8	6.6
305.65	170.4	6.6
308.15	171.1	6.6
310.65	171.8	6.7
313.15	172.2	6.7
315.65	172.8	6.7
318.15	173.2	6.7
320.65	174	6.7
323.15	174.6	6.8
325.65	175.2	6.8
328.15	175.8	6.8
330.65	176.2	6.8
333.15	176.8	6.8
335.65	177.4	6.9
338.15	178.2	6.9

System: choline chloride + 1,2-ethanediol; phases: Liquid, Air at 1 atmosphere
Fixed: Mole fraction of choline chloride = 0.333
Property: Surface tension liquid-gas, N/m (Liquid); method: Drop volume
Temperature, K	Surface tension liquid-gas, N/m	uncertainty
278.15	0.0563	0.00033
280.65	0.0562	0.00033
283.15	0.0561	0.00033
285.65	0.05595	0.00033
288.15	0.05585	0.00033
290.65	0.05575	0.00033
293.15	0.05565	0.00033
295.65	0.05555	0.00033
298.15	0.05545	0.00033
300.65	0.0553	0.00033
303.15	0.0552	0.00033
305.65	0.0551	0.00033
308.15	0.05495	0.00033
310.65	0.05485	0.00033
313.15	0.05475	0.00033
315.65	0.05465	0.00033
318.15	0.0545	0.00033
320.65	0.05435	0.00033
323.15	0.05425	0.00033
325.65	0.05415	0.00032
328.15	0.054	0.00032
330.65	0.0539	0.00032
333.15	0.0538	0.00032
335.65	0.0537	0.00032
338.15	0.0536	0.00032

System: choline chloride + 1,2-ethanediol; phases: Liquid
Fixed: Mole fraction of choline chloride = 0.333
Fixed: Pressure, kPa = 101
Property: Kinematic viscosity, m2/s (Liquid); method: Capillary tube (Ostwald; Ubbelohde) method
Temperature, K	Kinematic viscosity, m2/s	uncertainty
278.15	8.95e-05	3.1e-06
280.65	7.865e-05	1.28e-06
283.15	6.93e-05	1.06e-06
285.65	6.135e-05	8.9e-07
288.15	5.46e-05	7.6e-07
290.65	4.875e-05	6.9e-07
293.15	4.375e-05	6.1e-07
295.65	3.93e-05	5.5e-07
298.15	3.55e-05	4.9e-07
300.65	3.205e-05	4.4e-07
303.15	2.915e-05	3.9e-07
305.65	2.655e-05	3.5e-07
308.15	2.425e-05	3.2e-07
310.65	2.225e-05	2.9e-07
313.15	2.045e-05	2.6e-07
315.65	1.885e-05	2.4e-07
318.15	1.74e-05	2.2e-07
320.65	1.615e-05	2e-07
323.15	1.495e-05	1.9e-07
325.65	1.39e-05	1.7e-07
328.15	1.295e-05	1.6e-07
330.65	1.21e-05	1.5e-07
333.15	1.13e-05	1.4e-07
335.65	1.06e-05	1.3e-07
338.15	9.97e-06	1.33e-07

System: choline chloride + 1,2-ethanediol; phases: Liquid
Fixed: Mole fraction of choline chloride = 0.333
Fixed: Pressure, kPa = 101
Fixed: Frequency, MHz = 0.002
Property: Electrical conductivity, S/m (Liquid); method: Alternating current cell with electrodes
Temperature, K	Electrical conductivity, S/m	uncertainty
278.15	0.353	0.004
280.65	0.4	0.004
283.15	0.452	0.005
285.65	0.506	0.005
288.15	0.566	0.006
290.65	0.633	0.006
293.15	0.701	0.007
295.65	0.776	0.008
298.15	0.847	0.009
300.65	0.932	0.009
303.15	1.02	0.01
305.65	1.11	0.01
308.15	1.21	0.01
310.65	1.31	0.01
313.15	1.42	0.02
315.65	1.53	0.02
318.15	1.67	0.02
320.65	1.77	0.02
323.15	1.89	0.02
325.65	2.02	0.02
328.15	2.16	0.02
330.65	2.32	0.02
333.15	2.45	0.03
335.65	2.6	0.03
338.15	2.76	0.03
