Measured thermophysical data. Thermodynamics of risperidone and solubility in pure organic solvents
Source: Fluid Phase Equilib., 2014, 10.1016/j.fluid.2014.04.028
Compound 1: risperidone, C23H27FN4O2, InChI=1S/C23H27FN4O2/c1-15-18(23(29)28-10-3-2-4-21(28)25-15)9-13-27-11-7-16(8-12-27)22-19-6-5-17(24)14-20(19)30-26-22/h5-6,14,16H,2-4,7-13H2,1H3, purity 99.95%
Compound 2: methanol, CH4O, InChI=1S/CH4O/c1-2/h2H,1H3, purity 99.8%
Compound 3: ethanol, C2H6O, InChI=1S/C2H6O/c1-2-3/h3H,2H2,1H3, purity 99.8%
Compound 4: propan-1-ol, C3H8O, InChI=1S/C3H8O/c1-2-3-4/h4H,2-3H2,1H3, purity 99.8%
Compound 5: propan-2-ol, C3H8O, InChI=1S/C3H8O/c1-3(2)4/h3-4H,1-2H3, purity 99.8%
Compound 6: butan-1-ol, C4H10O, InChI=1S/C4H10O/c1-2-3-4-5/h5H,2-4H2,1H3, purity 99.8%
Compound 7: acetone, C3H6O, InChI=1S/C3H6O/c1-3(2)4/h1-2H3, purity 99.8%
Compound 8: ethyl acetate, C4H8O2, InChI=1S/C4H8O2/c1-3-6-4(2)5/h3H2,1-2H3, purity 99.8%
Compound 9: toluene, C7H8, InChI=1S/C7H8/c1-7-5-3-2-4-6-7/h2-6H,1H3, purity 99.8%
Compound 10: isopropylbenzene, C9H12, InChI=1S/C9H12/c1-8(2)9-6-4-3-5-7-9/h3-8H,1-2H3, purity 99.8%

System: risperidone; phases: Crystal, Liquid, Air at 1 atmosphere
Property: Normal melting temperature, K (Crystal); method: DTA
Normal melting temperature, K	uncertainty
442.38	0.63

System: risperidone; phases: Crystal, Liquid, Air at 1 atmosphere
Property: Molar enthalpy of transition or fusion, kJ/mol (Crystal); method: DSC
Molar enthalpy of transition or fusion, kJ/mol	uncertainty
43.94	0.93

System: risperidone; phases: Crystal
Fixed: Pressure, kPa = 101.325
Property: Molar heat capacity at constant pressure, J/K/mol (Crystal); method: Small sample (50 mg) DSC
Temperature, K	Molar heat capacity at constant pressure, J/K/mol	uncertainty
270.1	471	12
275	476	13
280.1	480	12
284.9	483	12
290.1	489	12
294.9	495	12
300.1	502	12
304.9	509	12
310.1	516	12
314.9	523	12
320.1	530	12
324.9	537	12
330.1	544	12
334.9	551	13
340	558	13
345.1	564	13
350	571	13
355.1	578	13
359.9	583	13
365	590	13
370.1	597	13
375	602	13
380.1	609	13
384.9	615	14
390	621	14
394.9	627	14
400	634	14
405.1	641	14
409.9	647	14

System: risperidone; phases: Liquid
Fixed: Pressure, kPa = 101.325
Property: Molar heat capacity at constant pressure, J/K/mol (Liquid); method: Small sample (50 mg) DSC
Temperature, K	Molar heat capacity at constant pressure, J/K/mol	uncertainty
430.1	839	14
434.9	842	14
440	845	14
445.1	850	14
449.9	854	14
453	856	14

System: methanol + risperidone; phases: Liquid, Crystal
Fixed: Pressure, kPa = 101
Property: Mole fraction of risperidone (Liquid); method: Gravimetric Method
Temperature, K	Mole fraction of risperidone	uncertainty
278.15	0.00202	0.00014
283.15	0.0023	2e-05
288.15	0.00272	5e-05
293.15	0.003285	1.7e-05
298.15	0.00396	3e-05
303.15	0.00487	3e-05
308.15	0.00615	5e-05
313.15	0.0077	4e-05
318.15	0.0099	7e-05
323.15	0.01283	9e-05

System: ethanol + risperidone; phases: Liquid, Crystal
Fixed: Pressure, kPa = 101
Property: Mole fraction of risperidone (Liquid); method: Gravimetric Method
Temperature, K	Mole fraction of risperidone	uncertainty
278.15	0.00096	4e-05
283.15	0.00108	3e-05
288.15	0.00131	7e-05
293.15	0.00153	4e-05
298.15	0.002009	1.5e-05
303.15	0.00248	2e-05
308.15	0.0033	0.0001
313.15	0.004151	1.5e-05
318.15	0.0051	7e-05
323.15	0.00677	3e-05

System: propan-1-ol + risperidone; phases: Liquid, Crystal
Fixed: Pressure, kPa = 101
Property: Mole fraction of risperidone (Liquid); method: Gravimetric Method
Temperature, K	Mole fraction of risperidone	uncertainty
278.15	0.00139	2e-05
283.15	0.00155	4e-05
288.15	0.00197	9e-05
293.15	0.002378	1.6e-05
298.15	0.003049	1.4e-05
303.15	0.00381	2.2e-05
308.15	0.00517	7e-05
313.15	0.00651	7e-05
318.15	0.00839	7e-05
323.15	0.01089	0.0001

System: propan-2-ol + risperidone; phases: Liquid, Crystal
Fixed: Pressure, kPa = 101
Property: Mole fraction of risperidone (Liquid); method: Gravimetric Method
Temperature, K	Mole fraction of risperidone	uncertainty
278.15	0.00036	4e-05
283.15	0.00046	6e-05
288.15	0.0006	0.0002
293.15	0.0007	5e-05
298.15	0.00103	4e-05
303.15	0.00136	5e-05
308.15	0.00203	5e-05
313.15	0.00253	9e-05
318.15	0.0032	0.0002
323.15	0.004475	2.2e-05

System: butan-1-ol + risperidone; phases: Liquid, Crystal
Fixed: Pressure, kPa = 101
Property: Mole fraction of risperidone (Liquid); method: Gravimetric Method
Temperature, K	Mole fraction of risperidone	uncertainty
278.15	0.00152	9e-05
283.15	0.00173	0.00013
288.15	0.0022	0.0003
293.15	0.00263	0.0001
298.15	0.00347	3e-05
303.15	0.004427	2.3e-05
308.15	0.00593	0.00016
313.15	0.00753	5e-05
318.15	0.00963	5e-05
323.15	0.01241	7e-05

System: acetone + risperidone; phases: Liquid, Crystal
Fixed: Pressure, kPa = 101
Property: Mole fraction of risperidone (Liquid); method: Gravimetric Method
Temperature, K	Mole fraction of risperidone	uncertainty
278.15	0.00085	5e-05
283.15	0.00095	7e-05
288.15	0.00127	7e-05
293.15	0.00143	2e-05
298.15	0.001754	1.6e-05
303.15	0.00219	3e-05
308.15	0.00284	6e-05
313.15	0.00336	4e-05

System: ethyl acetate + risperidone; phases: Liquid, Crystal
Fixed: Pressure, kPa = 101
Property: Mole fraction of risperidone (Liquid); method: Gravimetric Method
Temperature, K	Mole fraction of risperidone	uncertainty
278.15	0.00116	6e-05
283.15	0.00128	0.00012
288.15	0.001674	7e-06
293.15	0.00185	9e-05
298.15	0.00216	5e-05
303.15	0.002628	1.7e-05
308.15	0.00331	0.00011
313.15	0.003974	1.7e-05

System: toluene + risperidone; phases: Liquid, Crystal
Fixed: Pressure, kPa = 101
Property: Mole fraction of risperidone (Liquid); method: Gravimetric Method
Temperature, K	Mole fraction of risperidone	uncertainty
278.15	0.0038	0.0004
283.15	0.00418	4e-05
288.15	0.00521	2.1e-05
293.15	0.00559	0.00013
298.15	0.00667	0.0001
303.15	0.008	0.0003
308.15	0.00998	0.00017
313.15	0.01173	7e-05

System: isopropylbenzene + risperidone; phases: Liquid, Crystal
Fixed: Pressure, kPa = 101
Property: Mole fraction of risperidone (Liquid); method: Gravimetric Method
Temperature, K	Mole fraction of risperidone	uncertainty
278.15	0.00122	0.00013
283.15	0.00147	5e-05
288.15	0.00207	6e-05
293.15	0.00219	5e-05
298.15	0.0026	3e-05
303.15	0.00309	6e-05
308.15	0.00376	6e-05
313.15	0.00481	9e-05
