Measured thermophysical data. Vapour pressures and enthalpies of vaporization of a series of aromatic ethers of mono-, di- and triethylene glycol
Source: Fluid Phase Equilib., 2006, 10.1016/j.fluid.2006.09.001
Compound 1: 1-bromo-2-(2-(2-(2-methoxyethoxy)ethoxy)ethoxy)benzene, C13H19BrO4, InChI=1S/C13H19BrO4/c1-15-6-7-16-8-9-17-10-11-18-13-5-3-2-4-12(13)14/h2-5H,6-11H2,1H3
Compound 2: 1-bromo-2-(2-(2-methoxyethoxy)ethoxy)benzene, C11H15BrO3, InChI=1S/C11H15BrO3/c1-13-6-7-14-8-9-15-11-5-3-2-4-10(11)12/h2-5H,6-9H2,1H3
Compound 3: 1-bromo-2-(2-methoxyethoxy)benzene, C9H11BrO2, InChI=1S/C9H11BrO2/c1-11-6-7-12-9-5-3-2-4-8(9)10/h2-5H,6-7H2,1H3

System: 1-bromo-2-(2-(2-(2-methoxyethoxy)ethoxy)ethoxy)benzene; phases: Liquid, Gas
Property: Vapor or sublimation pressure, kPa (Liquid); method: Transpiration method
Temperature, K	Vapor or sublimation pressure, kPa	uncertainty
333.2	6.1e-05	3e-06
337.3	8.8e-05	5e-06
339.3	0.000111	6e-06
341.3	0.000132	7e-06
343.4	0.000158	8e-06
345.5	0.000188	1e-05
347.5	0.000218	1.2e-05
349.7	0.000272	1.5e-05
351.7	0.000329	1.7e-05
353.6	0.000382	2e-05
355.7	0.000446	2.4e-05
357.8	0.000555	3e-05
359.8	0.000649	3.4e-05
360.6	0.000704	3.8e-05
362	0.000796	4.1e-05
363	0.000826	4.4e-05
365	0.000993	5.3e-05
367.9	0.001244	6.5e-05
369.9	0.001446	7.5e-05

System: 1-bromo-2-(2-(2-methoxyethoxy)ethoxy)benzene; phases: Liquid, Gas
Property: Vapor or sublimation pressure, kPa (Liquid); method: Transpiration method
Temperature, K	Vapor or sublimation pressure, kPa	uncertainty
310.4	9e-05	1e-05
313.2	0.00012	1e-05
317.4	0.00016	1e-05
318.6	0.00019	1e-05
320.3	0.00021	1e-05
322.6	0.00026	1e-05
324.3	0.0003	2e-05
325.4	0.00036	2e-05
327.6	0.00043	2e-05
327.7	0.00043	2e-05
328.3	0.00047	2e-05
328.3	0.00045	2e-05
329	0.00045	2e-05
332.4	0.00063	3e-05
332.5	0.00062	3e-05
332.7	0.00063	3e-05
334.5	0.00076	4e-05
335.4	0.00081	4e-05
337.9	0.00096	5e-05
339.1	0.00113	6e-05
342	0.00135	7e-05
343.5	0.00153	8e-05
345	0.00167	9e-05
346.5	0.00205	0.00011
347.6	0.00219	0.00011
348	0.0022	0.00012
349.5	0.00252	0.00013
350.1	0.00253	0.00014
350.6	0.0028	0.00018
353	0.00325	0.00017
355.1	0.00383	0.0002
356	0.0041	0.00022
359.2	0.0052	0.00027
360.3	0.00566	0.0003
361.1	0.00611	0.00032
363.3	0.007	0.00037
365.2	0.00835	0.00044
368.4	0.01027	0.00053
368.4	0.01025	0.00053
370.8	0.01177	0.00061
373.5	0.01407	0.00072

System: 1-bromo-2-(2-methoxyethoxy)benzene; phases: Liquid, Gas
Property: Vapor or sublimation pressure, kPa (Liquid); method: Transpiration method
Temperature, K	Vapor or sublimation pressure, kPa	uncertainty
302.4	0.0011	6e-05
307.4	0.00174	9e-05
312.4	0.00268	0.00014
315	0.00321	0.00017
317.5	0.00391	0.0002
319.5	0.00453	0.00024
319.5	0.00475	0.00025
322.6	0.0062	0.00032
324.6	0.00691	0.00036
327.6	0.00867	0.00046
332.7	0.01255	0.00066
337.8	0.01854	0.00096
343	0.02628	0.00135
348.1	0.03518	0.00181
353.2	0.04763	0.00243
356.3	0.05583	0.00289
358.2	0.06719	0.00346
360.7	0.07401	0.00376
361.8	0.07914	0.00405
363.3	0.08516	0.00444
366.8	0.1095	0.00564
368.4	0.11988	0.00613
