Measured thermophysical data. Measurement and correlation of vapor liquid equilibria for the system carbon dioxide diisopropyl ether
Source: Fluid Phase Equilib., 2008, 10.1016/j.fluid.2007.11.010
Compound 1: carbon dioxide, CO2, InChI=1S/CO2/c2-1-3, purity 99.9%
Compound 2: diisopropyl ether, C6H14O, InChI=1S/C6H14O/c1-5(2)7-6(3)4/h5-6H,1-4H3, purity 99%

System: diisopropyl ether + carbon dioxide; phases: Liquid, Gas
Property: Vapor or sublimation pressure, kPa (Liquid); method: CCELL:UFactor:8
Mole fraction of carbon dioxide	Temperature, K	Vapor or sublimation pressure, kPa	uncertainty
0.1127	293.15	560	20
0.1154	333.15	741	24
0.1235	313.15	661	23
0.1728	333.15	1104	30
0.1831	273.15	547	19
0.1946	313.15	1116	31
0.2281	293.15	1185	31
0.2668	333.15	1672	44
0.2728	313.15	1542	40
0.2795	265.15	682	22
0.2961	293.15	1537	40
0.3091	273.15	983	27
0.3447	333.15	2181	56
0.3666	313.15	2135	55
0.3754	265.15	1049	28
0.3828	333.15	2554	67
0.4015	293.15	2051	52
0.4024	313.15	2490	65
0.4361	273.15	1471	38
0.4907	293.15	2551	65
0.5112	265.15	1505	39
0.5756	273.15	2031	52
0.645	273.15	2526	66
0.6565	265.15	2021	52
0.7589	265.15	2478	63

System: diisopropyl ether + carbon dioxide; phases: Gas, Liquid
Property: Mole fraction of carbon dioxide (Gas); method: Chromatography
Mole fraction of carbon dioxide	Temperature, K	Mole fraction of carbon dioxide	uncertainty
0.1127	293.15	0.9653	0.002
0.1154	333.15	0.9269	0.0022
0.1235	313.15	0.9419	0.0021
0.1728	333.15	0.9456	0.0021
0.1831	273.15	0.9805	0.002
0.1946	313.15	0.9572	0.0021
0.2281	293.15	0.9771	0.002
0.2668	333.15	0.9562	0.002
0.2728	313.15	0.9649	0.002
0.2795	265.15	0.9968	0.002
0.2961	293.15	0.9811	0.002
0.3091	273.15	0.9876	0.002
0.3447	333.15	0.9631	0.002
0.3666	313.15	0.9705	0.002
0.3754	265.15	0.9976	0.002
0.3828	333.15	0.9683	0.004
0.4015	293.15	0.9833	0.002
0.4024	313.15	0.9729	0.002
0.4361	273.15	0.9903	0.002
0.4907	293.15	0.9845	0.002
0.5112	265.15	0.9986	0.0014
0.5756	273.15	0.9918	0.002
0.645	273.15	0.9927	0.002
0.6565	265.15	0.9995	0.0005
0.7589	265.15	0.9998	0.0002
