Measured thermophysical data. Phase behaviour of 1-methyl-3-octylimidazolium bis[trifluoromethylsulfonyl]imide with thiophene and aliphatic hydrocarbons: The influence of n-alkane chain length
Source: Fluid Phase Equilib., 2008, 10.1016/j.fluid.2007.10.010
Compound 1: hexane, C6H14, InChI=1S/C6H14/c1-3-5-6-4-2/h3-6H2,1-2H3, purity 99%
Compound 2: heptane, C7H16, InChI=1S/C7H16/c1-3-5-7-6-4-2/h3-7H2,1-2H3, purity 99.5%
Compound 3: thiophene, C4H4S, InChI=1S/C4H4S/c1-2-4-5-3-1/h1-4H, purity 99.5%
Compound 4: hexadecane, C16H34, InChI=1S/C16H34/c1-3-5-7-9-11-13-15-16-14-12-10-8-6-4-2/h3-16H2,1-2H3, purity 99%
Compound 5: 1-octyl-3-methylimidazolium bis[(trifluoromethyl)sulfonyl]imide, C14H23F6N3O4S2, InChI=1S/C12H23N2.C2F6NO4S2/c1-3-4-5-6-7-8-9-14-11-10-13(2)12-14;3-1(4,5)14(10,11)9-15(12,13)2(6,7)8/h10-12H,3-9H2,1-2H3;/q+1;-1

System: hexane; phases: Liquid
Property: Refractive index (Na D-line) (Liquid); method: Standard Abbe refractometry
Temperature, K	Pressure, kPa	Refractive index (Na D-line)	uncertainty
298.15	101.325	1.37287	0.0007

System: hexane; phases: Liquid
Property: Mass density, kg/m3 (Liquid); method: Vibrating tube method
Temperature, K	Pressure, kPa	Mass density, kg/m3	uncertainty
298.15	101.325	655.06	0.31

System: heptane; phases: Liquid
Property: Refractive index (Na D-line) (Liquid); method: Standard Abbe refractometry
Temperature, K	Pressure, kPa	Refractive index (Na D-line)	uncertainty
298.15	101.325	1.38517	0.00068

System: heptane; phases: Liquid
Property: Mass density, kg/m3 (Liquid); method: Vibrating tube method
Temperature, K	Pressure, kPa	Mass density, kg/m3	uncertainty
298.15	101.325	679.466	0.262

System: thiophene; phases: Liquid
Property: Refractive index (Na D-line) (Liquid); method: Standard Abbe refractometry
Temperature, K	Pressure, kPa	Refractive index (Na D-line)	uncertainty
298.15	101.325	1.52581	0.00068

System: thiophene; phases: Liquid
Property: Mass density, kg/m3 (Liquid); method: Vibrating tube method
Temperature, K	Pressure, kPa	Mass density, kg/m3	uncertainty
298.15	101.325	1058.5	0.23

System: hexadecane; phases: Liquid
Property: Refractive index (Na D-line) (Liquid); method: Standard Abbe refractometry
Temperature, K	Pressure, kPa	Refractive index (Na D-line)	uncertainty
298.15	101.325	1.43232	0.0007

System: hexadecane; phases: Liquid
Property: Mass density, kg/m3 (Liquid); method: Vibrating tube method
Temperature, K	Pressure, kPa	Mass density, kg/m3	uncertainty
298.15	101.325	771.15	0.3

System: 1-octyl-3-methylimidazolium bis[(trifluoromethyl)sulfonyl]imide; phases: Liquid
Property: Refractive index (Na D-line) (Liquid); method: Standard Abbe refractometry
Temperature, K	Pressure, kPa	Refractive index (Na D-line)	uncertainty
298.15	101.325	1.43331	0.00121

System: 1-octyl-3-methylimidazolium bis[(trifluoromethyl)sulfonyl]imide; phases: Liquid
Property: Mass density, kg/m3 (Liquid); method: Vibrating tube method
Temperature, K	Pressure, kPa	Mass density, kg/m3	uncertainty
298.15	101.325	1320.76	12.29

System: thiophene + hexane + 1-octyl-3-methylimidazolium bis[(trifluoromethyl)sulfonyl]imide; phases: Liquid mixture 1, Liquid mixture 2
Fixed: Pressure, kPa = 101.325
Fixed: Temperature, K = 298.15
Property: Mole fraction of hexane (Liquid mixture 1); method: Chromatography
Property: Mole fraction of hexane (Liquid mixture 2); method: Chromatography
Property: Mole fraction of thiophene (Liquid mixture 2); method: Chromatography
Mole fraction of thiophene	Mole fraction of hexane	uncertainty	Mole fraction of hexane	uncertainty	Mole fraction of thiophene	uncertainty
0	0.289	0.012	1	0.001	0	
0.19	0.264	0.012	0.913	0.011	0.087	
0.412	0.225	0.012	0.732	0.011	0.267	
0.518	0.208	0.012	0.601	0.012	0.399	
0.593	0.192	0.012	0.455	0.012	0.545	
0.66	0.172	0.013	0.38	0.012	0.62	
0.701	0.156	0.014	0.305	0.012	0.695	
0.768	0.114	0.014	0.2	0.011	0.8	
0.809	0.091	0.015	0.142	0.011	0.858	
0.936	0	0.001	0	0.001	1	

System: thiophene + heptane + 1-octyl-3-methylimidazolium bis[(trifluoromethyl)sulfonyl]imide; phases: Liquid mixture 1, Liquid mixture 2
Fixed: Pressure, kPa = 101.325
Fixed: Temperature, K = 298.15
Property: Mole fraction of heptane (Liquid mixture 1); method: Chromatography
Property: Mole fraction of heptane (Liquid mixture 2); method: Chromatography
Property: Mole fraction of thiophene (Liquid mixture 2); method: Chromatography
Mole fraction of thiophene	Mole fraction of heptane	uncertainty	Mole fraction of heptane	uncertainty	Mole fraction of thiophene	uncertainty
0.755	0	0.001	1	0.001	0	
0.56	0.225	0.018	0.901	0.011	0.098	
0.399	0.409	0.018	0.767	0.011	0.232	
0.273	0.552	0.019	0.595	0.012	0.405	
0.181	0.665	0.02	0.366	0.012	0.634	
0.14	0.732	0.026	0.218	0.011	0.782	
0.117	0.788	0.032	0.128	0.011	0.872	
0.088	0.862	0.036	0.05	0.011	0.95	
0.065	0.936	0.04	0	0.001	1	

System: thiophene + hexadecane + 1-octyl-3-methylimidazolium bis[(trifluoromethyl)sulfonyl]imide; phases: Liquid mixture 1, Liquid mixture 2
Fixed: Pressure, kPa = 101.325
Fixed: Temperature, K = 298.15
Property: Mole fraction of hexadecane (Liquid mixture 1); method: Chromatography
Property: Mole fraction of hexadecane (Liquid mixture 2); method: Chromatography
Property: Mole fraction of thiophene (Liquid mixture 2); method: Chromatography
Mole fraction of thiophene	Mole fraction of hexadecane	uncertainty	Mole fraction of hexadecane	uncertainty	Mole fraction of thiophene	uncertainty
0	0.047	0.012	0.991	0.008	0	
0.106	0.049	0.012	0.852	0.011	0.143	
0.242	0.062	0.012	0.696	0.012	0.297	
0.343	0.065	0.012	0.523	0.012	0.469	
0.45	0.079	0.012	0.362	0.012	0.628	
0.515	0.078	0.012	0.25	0.011	0.742	
0.599	0.088	0.012	0.115	0.011	0.878	
0.702	0.072	0.012	0.041	0.011	0.952	
0.936	0	0.001	0	0.001	1	
