Measured thermophysical data. Liquid liquid equilibria of the ternary system water + acetic acid + dimethyl succinate
Source: Fluid Phase Equilib., 2005, 10.1016/j.fluid.2005.09.013
Compound 1: acetic acid, C2H4O2, InChI=1S/C2H4O2/c1-2(3)4/h1H3,(H,3,4)
Compound 2: dimethyl 1,4-butanedioate, C6H10O4, InChI=1S/C6H10O4/c1-9-5(7)3-4-6(8)10-2/h3-4H2,1-2H3
Compound 3: water, H2O, InChI=1S/H2O/h1H2

System: acetic acid; phases: Liquid, Gas
Property: Normal boiling temperature, K (Liquid); method: Fischer boiling temperature apparatus
Normal boiling temperature, K	uncertainty
391.2	0.2

System: acetic acid; phases: Liquid
Property: Refractive index (Na D-line) (Liquid); method: Standard Abbe refractometry
Temperature, K	Pressure, kPa	Refractive index (Na D-line)	uncertainty
298.2	101.325	1.3713	0.0007

System: acetic acid; phases: Liquid
Property: Mass density, kg/m3 (Liquid); method: VIBTUB:UFactor:2
Temperature, K	Pressure, kPa	Mass density, kg/m3	uncertainty
293.2	101.325	1049.42	0.18

System: dimethyl 1,4-butanedioate; phases: Liquid, Gas
Property: Normal boiling temperature, K (Liquid); method: Fischer boiling temperature apparatus
Normal boiling temperature, K	uncertainty
469.8	0.2

System: dimethyl 1,4-butanedioate; phases: Liquid
Property: Refractive index (Na D-line) (Liquid); method: Standard Abbe refractometry
Temperature, K	Pressure, kPa	Refractive index (Na D-line)	uncertainty
298.2	101.325	1.4196	0.0008

System: dimethyl 1,4-butanedioate; phases: Liquid
Property: Mass density, kg/m3 (Liquid); method: VIBTUB:UFactor:8
Temperature, K	Pressure, kPa	Mass density, kg/m3	uncertainty
293.2	101.325	1114.18	1.39

System: acetic acid + dimethyl 1,4-butanedioate + water; phases: Liquid mixture 2, Liquid mixture 1
Fixed: Pressure, kPa = 101.32
Property: Mole fraction of acetic acid (Liquid mixture 2); method: Chromatography
Property: Mole fraction of acetic acid (Liquid mixture 1); method: Chromatography
Property: Mole fraction of water (Liquid mixture 1); method: Chromatography
Temperature, K	Mole fraction of water	Mole fraction of acetic acid	uncertainty	Mole fraction of acetic acid	uncertainty	Mole fraction of water	uncertainty
298.2	0.5372	0.0298	0.0195	0.011	0.011	0.9757	
298.2	0.5396	0.0627	0.0167	0.0222	0.0115	0.9603	
298.2	0.6172	0.0859	0.0163	0.0374	0.0082	0.932	
298.2	0.6954	0.0921	0.0161	0.06	0.0071	0.8753	
308.2	0.5259	0.0377	0.0183	0.0106	0.0106	0.9758	
308.2	0.5685	0.0612	0.0174	0.0211	0.0103	0.9586	
308.2	0.6234	0.0804	0.0161	0.0362	0.0094	0.9284	
308.2	0.7328	0.0827	0.016	0.0525	0.0091	0.8961	
318.2	0.5661	0.0354	0.0179	0.0105	0.0105	0.9731	
318.2	0.6082	0.0565	0.0168	0.024	0.0106	0.9501	
318.2	0.6819	0.0728	0.0164	0.0395	0.0074	0.921	
318.2	0.7179	0.0815	0.0165	0.0576	0.006	0.8676	
