Measured thermophysical data. Phase equilibria of binary systems of 3-methylthiophene with four different hydrocarbons
Source: Fluid Phase Equilib., 2010, 10.1016/j.fluid.2009.11.004
Compound 1: 3-methylthiophene, C5H6S, InChI=1S/C5H6S/c1-5-2-3-6-4-5/h2-4H,1H3
Compound 2: 2-methylpentane, C6H14, InChI=1S/C6H14/c1-4-5-6(2)3/h6H,4-5H2,1-3H3
Compound 3: methylcyclopentane, C6H12, InChI=1S/C6H12/c1-6-4-2-3-5-6/h6H,2-5H2,1H3
Compound 4: methylcyclohexane, C7H14, InChI=1S/C7H14/c1-7-5-3-2-4-6-7/h7H,2-6H2,1H3
Compound 5: hexane, C6H14, InChI=1S/C6H14/c1-3-5-6-4-2/h3-6H2,1-2H3
Compound 6: 1,2-dimethylbenzene, C8H10, InChI=1S/C8H10/c1-7-5-3-4-6-8(7)2/h3-6H,1-2H3

System: 3-methylthiophene; phases: Liquid
Property: Refractive index (Na D-line) (Liquid); method: Standard Abbe refractometry
Temperature, K	Pressure, kPa	Refractive index (Na D-line)	uncertainty
298.15	101.325	1.5172	0.0007

System: 2-methylpentane; phases: Liquid
Property: Refractive index (Na D-line) (Liquid); method: Standard Abbe refractometry
Temperature, K	Pressure, kPa	Refractive index (Na D-line)	uncertainty
298.15	101.325	1.3685	0.0007

System: 2-methylpentane; phases: Liquid, Gas
Property: Vapor or sublimation pressure, kPa (Liquid); method: Ebulliometric method (Recirculating still)
Temperature, K	Vapor or sublimation pressure, kPa	uncertainty
290.34	20.3	0.4
299.7	30.13	0.42
307.12	40.39	0.46
312.92	50.23	0.5
317.93	60.24	0.54
322.26	70.13	0.59
326.15	80.11	0.64
329.74	90.32	0.69
333.37	101.76	0.72

System: methylcyclopentane; phases: Liquid
Property: Refractive index (Na D-line) (Liquid); method: Standard Abbe refractometry
Temperature, K	Pressure, kPa	Refractive index (Na D-line)	uncertainty
298.15	101.325	1.4067	0.0007

System: methylcyclopentane; phases: Liquid, Gas
Property: Vapor or sublimation pressure, kPa (Liquid); method: Ebulliometric method (Recirculating still)
Temperature, K	Vapor or sublimation pressure, kPa	uncertainty
300.4	20.25	0.4
310.16	30.18	0.41
317.69	40.24	0.45
323.75	50.16	0.49
328.97	60.22	0.53
333.37	69.94	0.58
337.5	80.18	0.62
341.25	90.53	0.68
345.1	102.31	0.7

System: methylcyclohexane; phases: Liquid
Property: Refractive index (Na D-line) (Liquid); method: Standard Abbe refractometry
Temperature, K	Pressure, kPa	Refractive index (Na D-line)	uncertainty
298.15	101.325	1.4025	0.0007

System: methylcyclohexane; phases: Liquid, Gas
Property: Vapor or sublimation pressure, kPa (Liquid); method: Ebulliometric method (Recirculating still)
Temperature, K	Vapor or sublimation pressure, kPa	uncertainty
325.39	20.25	0.39
336.27	30.47	0.4
344.1	40.07	0.43
350.71	49.96	0.47
356.44	60.05	0.51
361.45	70.17	0.55
365.75	79.96	0.59
369.98	90.64	0.63
373.9	101.6	0.65

System: hexane; phases: Liquid
Property: Refractive index (Na D-line) (Liquid); method: Standard Abbe refractometry
Temperature, K	Pressure, kPa	Refractive index (Na D-line)	uncertainty
298.15	101.325	1.3724	0.0007

System: 1,2-dimethylbenzene; phases: Liquid
Property: Refractive index (Na D-line) (Liquid); method: Standard Abbe refractometry
Temperature, K	Pressure, kPa	Refractive index (Na D-line)	uncertainty
298.15	101.325	1.5028	0.0007

System: 2-methylpentane + 3-methylthiophene; phases: Liquid, Gas
Fixed: Temperature, K = 333.15
Property: Activity coefficient of 2-methylpentane (Liquid); method: Chromatography
Mole fraction of 3-methylthiophene	Activity coefficient of 2-methylpentane	uncertainty
0.106	1.01	0.03
0.214	1.03	0.03
0.349	1.08	0.03
0.49	1.16	0.04
0.617	1.29	0.04
0.71	1.42	0.05
0.816	1.59	0.06
0.95	1.93	0.09
0.987	2.05	0.1

System: 2-methylpentane + 3-methylthiophene; phases: Liquid, Gas
Fixed: Temperature, K = 333.15
Property: Activity coefficient of 3-methylthiophene (Liquid); method: Chromatography
Mole fraction of 3-methylthiophene	Activity coefficient of 3-methylthiophene	uncertainty
0.106	1.76	0.08
0.214	1.58	0.06
0.349	1.41	0.05
0.49	1.25	0.04
0.617	1.12	0.03
0.71	1.06	0.03
0.816	1.02	0.03
0.95	1	0.03
0.987	1	0.03

System: 2-methylpentane + 3-methylthiophene; phases: Liquid, Gas
Fixed: Temperature, K = 333.15
Property: Vapor or sublimation pressure, kPa (Liquid); method: Ebulliometric method (Recirculating still)
Mole fraction of 3-methylthiophene	Vapor or sublimation pressure, kPa	uncertainty
0	100.92	0.53
0.106	93.45	0.65
0.214	86.32	0.63
0.349	77.64	0.61
0.49	68.4	0.6
0.617	59.86	0.61
0.71	52.39	0.68
0.816	41.75	0.81
0.95	24.08	0.91
0.987	17.65	1.11
1	15.32	0.35

System: 2-methylpentane + 3-methylthiophene; phases: Gas, Liquid
Fixed: Temperature, K = 333.15
Property: Mole fraction of 3-methylthiophene (Gas); method: Chromatography
Mole fraction of 3-methylthiophene	Mole fraction of 3-methylthiophene	uncertainty
0	0	
0.106	0.032	0.006
0.214	0.062	0.006
0.349	0.1	0.006
0.49	0.14	0.006
0.617	0.18	0.007
0.71	0.225	0.007
0.816	0.31	0.012
0.95	0.607	0.019
0.987	0.858	0.046
1	1	

System: hexane + 3-methylthiophene; phases: Liquid, Gas
Fixed: Temperature, K = 333.15
Property: Activity coefficient of hexane (Liquid); method: Chromatography
Mole fraction of 3-methylthiophene	Activity coefficient of hexane	uncertainty
0.13	1.01	0.03
0.222	1.02	0.03
0.325	1.06	0.03
0.43	1.11	0.03
0.524	1.18	0.04
0.63	1.28	0.04
0.73	1.42	0.05
0.805	1.54	0.06
0.915	1.74	0.07
0.984	1.89	0.08

System: hexane + 3-methylthiophene; phases: Liquid, Gas
Fixed: Temperature, K = 333.15
Property: Activity coefficient of 3-methylthiophene (Liquid); method: Chromatography
Mole fraction of 3-methylthiophene	Activity coefficient of 3-methylthiophene	uncertainty
0.13	1.61	0.07
0.222	1.48	0.06
0.325	1.35	0.05
0.43	1.25	0.04
0.524	1.15	0.04
0.63	1.09	0.03
0.73	1.03	0.03
0.805	1.01	0.03
0.915	1	0.03
0.984	1	0.03

System: hexane + 3-methylthiophene; phases: Liquid, Gas
Fixed: Temperature, K = 333.15
Property: Vapor or sublimation pressure, kPa (Liquid); method: Ebulliometric method (Recirculating still)
Mole fraction of 3-methylthiophene	Vapor or sublimation pressure, kPa	uncertainty
0	76.69	0.46
0.13	70.41	0.53
0.222	66.09	0.52
0.325	61.44	0.51
0.43	56.66	0.5
0.524	52.3	0.51
0.63	46.77	0.52
0.73	40.98	0.54
0.805	35.6	0.64
0.915	25.34	0.7
0.984	17.71	0.86
1	15.62	0.35

System: hexane + 3-methylthiophene; phases: Gas, Liquid
Fixed: Temperature, K = 333.15
Property: Mole fraction of 3-methylthiophene (Gas); method: Chromatography
Mole fraction of 3-methylthiophene	Mole fraction of 3-methylthiophene	uncertainty
0	0	
0.13	0.048	0.006
0.222	0.08	0.006
0.325	0.115	0.006
0.43	0.151	0.007
0.524	0.185	0.007
0.63	0.234	0.007
0.73	0.292	0.008
0.805	0.362	0.011
0.915	0.564	0.018
0.984	0.876	0.047
1	1	

System: methylcyclopentane + 3-methylthiophene; phases: Liquid, Gas
Fixed: Temperature, K = 343.15
Property: Activity coefficient of methylcyclopentane (Liquid); method: Chromatography
Mole fraction of 3-methylthiophene	Activity coefficient of methylcyclopentane	uncertainty
0.056	1	0.03
0.14	1.01	0.03
0.249	1.03	0.03
0.38	1.07	0.03
0.525	1.14	0.03
0.637	1.22	0.04
0.791	1.36	0.05
0.877	1.45	0.06
0.939	1.57	0.06
0.979	1.62	0.07

System: methylcyclopentane + 3-methylthiophene; phases: Liquid, Gas
Fixed: Temperature, K = 343.15
Property: Activity coefficient of 3-methylthiophene (Liquid); method: Chromatography
Mole fraction of 3-methylthiophene	Activity coefficient of 3-methylthiophene	uncertainty
0.056	1.61	0.07
0.14	1.44	0.05
0.249	1.33	0.05
0.38	1.22	0.04
0.525	1.12	0.03
0.637	1.07	0.03
0.791	1.03	0.03
0.877	1.02	0.03
0.939	1	0.03
0.979	1	0.03

System: methylcyclopentane + 3-methylthiophene; phases: Liquid, Gas
Fixed: Temperature, K = 343.15
Property: Vapor or sublimation pressure, kPa (Liquid); method: Ebulliometric method (Recirculating still)
Mole fraction of 3-methylthiophene	Vapor or sublimation pressure, kPa	uncertainty
0	95.93	0.52
0.056	92.73	0.62
0.14	87.7	0.61
0.249	81.29	0.59
0.38	73.75	0.58
0.525	65.14	0.58
0.637	57.65	0.61
0.791	45.39	0.64
0.877	37.25	0.71
0.939	30.41	0.78
0.979	25.59	0.83
1	22.79	0.36

System: methylcyclopentane + 3-methylthiophene; phases: Gas, Liquid
Fixed: Temperature, K = 343.15
Property: Mole fraction of 3-methylthiophene (Gas); method: Chromatography
Mole fraction of 3-methylthiophene	Mole fraction of 3-methylthiophene	uncertainty
0	0	
0.056	0.023	0.006
0.14	0.054	0.006
0.249	0.095	0.006
0.38	0.146	0.007
0.525	0.209	0.007
0.637	0.273	0.008
0.791	0.411	0.01
0.877	0.549	0.014
0.939	0.706	0.02
0.979	0.873	0.029
1	1	

System: methylcyclohexane + 3-methylthiophene; phases: Liquid, Gas
Fixed: Temperature, K = 373.15
Property: Activity coefficient of methylcyclohexane (Liquid); method: Chromatography
Mole fraction of 3-methylthiophene	Activity coefficient of methylcyclohexane	uncertainty
0.093	1	0.03
0.211	1.01	0.03
0.337	1.04	0.03
0.467	1.08	0.03
0.589	1.13	0.03
0.705	1.21	0.04
0.787	1.27	0.04
0.867	1.35	0.05
0.931	1.43	0.05
0.974	1.51	0.06

System: methylcyclohexane + 3-methylthiophene; phases: Liquid, Gas
Fixed: Temperature, K = 373.15
Property: Activity coefficient of 3-methylthiophene (Liquid); method: Chromatography
Mole fraction of 3-methylthiophene	Activity coefficient of 3-methylthiophene	uncertainty
0.093	1.36	0.05
0.211	1.27	0.04
0.337	1.19	0.04
0.467	1.13	0.03
0.589	1.08	0.03
0.705	1.04	0.03
0.787	1.03	0.03
0.867	1.01	0.03
0.931	1	0.03
0.974	1	0.03

System: methylcyclohexane + 3-methylthiophene; phases: Liquid, Gas
Fixed: Temperature, K = 373.15
Property: Vapor or sublimation pressure, kPa (Liquid); method: Ebulliometric method (Recirculating still)
Mole fraction of 3-methylthiophene	Vapor or sublimation pressure, kPa	uncertainty
0	99.11	0.52
0.093	98.25	0.53
0.211	96.62	0.53
0.337	94.15	0.53
0.467	90.84	0.53
0.589	86.95	0.54
0.705	82.37	0.54
0.787	78.54	0.56
0.867	74.01	0.59
0.931	69.62	0.62
0.974	66.22	0.65
1	64.11	0.43

System: methylcyclohexane + 3-methylthiophene; phases: Gas, Liquid
Fixed: Temperature, K = 373.15
Property: Mole fraction of 3-methylthiophene (Gas); method: Chromatography
Mole fraction of 3-methylthiophene	Mole fraction of 3-methylthiophene	uncertainty
0	0	
0.093	0.083	0.008
0.211	0.18	0.008
0.337	0.277	0.008
0.467	0.375	0.008
0.589	0.473	0.009
0.705	0.575	0.009
0.787	0.661	0.01
0.867	0.762	0.01
0.931	0.86	0.012
0.974	0.943	0.014
1	1	
