Measured thermophysical data. Solubility of antioxidant 1010 in pure alkanols
Source: Fluid Phase Equilib., 2009, 10.1016/j.fluid.2008.11.005
Compound 1: pentaerythritol tetra(3,5-di-tert-butyl-4-hydroxyhydrocinnamate), C73H108O12, InChI=1S/C73H108O12/c1-65(2,3)49-33-45(34-50(61(49)78)66(4,5)6)25-29-57(74)82-41-73(42-83-58(75)30-26-46-35-51(67(7,8)9)62(79)52(36-46)68(10,11)12,43-84-59(76)31-27-47-37-53(69(13,14)15)63(80)54(38-47)70(16,17)18)44-85-60(77)32-28-48-39-55(71(19,20)21)64(81)56(40-48)72(22,23)24/h33-40,78-81H,25-32,41-44H2,1-24H3
Compound 2: methanol, CH4O, InChI=1S/CH4O/c1-2/h2H,1H3
Compound 3: ethanol, C2H6O, InChI=1S/C2H6O/c1-2-3/h3H,2H2,1H3
Compound 4: propan-1-ol, C3H8O, InChI=1S/C3H8O/c1-2-3-4/h4H,2-3H2,1H3
Compound 5: propan-2-ol, C3H8O, InChI=1S/C3H8O/c1-3(2)4/h3-4H,1-2H3
Compound 6: butan-1-ol, C4H10O, InChI=1S/C4H10O/c1-2-3-4-5/h5H,2-4H2,1H3
Compound 7: butan-2-ol, C4H10O, InChI=1S/C4H10O/c1-3-4(2)5/h4-5H,3H2,1-2H3
Compound 8: 2-methyl-1-propanol, C4H10O, InChI=1S/C4H10O/c1-4(2)3-5/h4-5H,3H2,1-2H3

System: pentaerythritol tetra(3,5-di-tert-butyl-4-hydroxyhydrocinnamate); phases: Crystal, Liquid, Gas
Property: Molar enthalpy of transition or fusion, kJ/mol (Crystal); method: DSC
Molar enthalpy of transition or fusion, kJ/mol	uncertainty
65.95	1.77

System: pentaerythritol tetra(3,5-di-tert-butyl-4-hydroxyhydrocinnamate); phases: Crystal, Liquid, Air at 1 atmosphere
Property: Normal melting temperature, K (Crystal); method: DTA
Normal melting temperature, K	uncertainty
385.75	0.5

System: methanol + pentaerythritol tetra(3,5-di-tert-butyl-4-hydroxyhydrocinnamate); phases: Liquid, Crystal
Fixed: Pressure, kPa = 101
Property: Mole fraction of pentaerythritol tetra(3,5-di-tert-butyl-4-hydroxyhydrocinnamate) (Liquid); method: UV spectra
Temperature, K	Mole fraction of pentaerythritol tetra(3,5-di-tert-butyl-4-hydroxyhydrocinnamate)	uncertainty
283.15	8.844e-05	9.75e-06
288.15	0.0001378	1.52e-05
293.15	0.0002208	2.44e-05
298.15	0.0003324	3.67e-05
303.15	0.000544	6e-05
308.15	0.0008123	8.96e-05
313.15	0.001258	0.000139
318.15	0.002031	0.000224
323.15	0.002873	0.000318
328.15	0.00429	0.000475
333.15	0.007403	0.000822

System: ethanol + pentaerythritol tetra(3,5-di-tert-butyl-4-hydroxyhydrocinnamate); phases: Liquid, Crystal
Fixed: Pressure, kPa = 101
Property: Mole fraction of pentaerythritol tetra(3,5-di-tert-butyl-4-hydroxyhydrocinnamate) (Liquid); method: UV spectra
Temperature, K	Mole fraction of pentaerythritol tetra(3,5-di-tert-butyl-4-hydroxyhydrocinnamate)	uncertainty
283.15	0.0001538	1.18e-05
288.15	0.0002002	1.54e-05
293.15	0.0003022	2.32e-05
298.15	0.0004452	3.42e-05
303.15	0.0006846	5.25e-05
308.15	0.001051	8.1e-05
313.15	0.001595	0.000123
318.15	0.002378	0.000183
323.15	0.003508	0.00027
328.15	0.0051	0.000393
333.15	0.00726	0.000561
338.15	0.0105	0.00081

System: propan-1-ol + pentaerythritol tetra(3,5-di-tert-butyl-4-hydroxyhydrocinnamate); phases: Liquid, Crystal
Fixed: Pressure, kPa = 101
Property: Mole fraction of pentaerythritol tetra(3,5-di-tert-butyl-4-hydroxyhydrocinnamate) (Liquid); method: UV spectra
Temperature, K	Mole fraction of pentaerythritol tetra(3,5-di-tert-butyl-4-hydroxyhydrocinnamate)	uncertainty
283.15	4.75e-05	2.79e-06
288.15	7.984e-05	4.69e-06
293.15	0.0001318	7.7e-06
298.15	0.0002285	1.34e-05
303.15	0.0003708	2.18e-05
308.15	0.000624	3.67e-05
313.15	0.0009705	5.71e-05
318.15	0.001555	9.2e-05
323.15	0.00248	0.000146
328.15	0.00399	0.000236
333.15	0.0061	0.000361
338.15	0.00924	0.000548
343.15	0.0168	0.001

System: propan-2-ol + pentaerythritol tetra(3,5-di-tert-butyl-4-hydroxyhydrocinnamate); phases: Liquid, Crystal
Fixed: Pressure, kPa = 101
Property: Mole fraction of pentaerythritol tetra(3,5-di-tert-butyl-4-hydroxyhydrocinnamate) (Liquid); method: UV spectra
Temperature, K	Mole fraction of pentaerythritol tetra(3,5-di-tert-butyl-4-hydroxyhydrocinnamate)	uncertainty
283.15	4.8e-05	2.82e-06
288.15	8.45e-05	4.97e-06
293.15	0.0001475	8.7e-06
298.15	0.0002388	1.4e-05
303.15	0.0004061	2.39e-05
308.15	0.0006314	3.71e-05
313.15	0.0009978	5.87e-05
318.15	0.001579	9.3e-05
323.15	0.002524	0.000149
328.15	0.004108	0.000242
333.15	0.006378	0.000377
338.15	0.01008	0.0006
343.15	0.01673	0.001

System: butan-1-ol + pentaerythritol tetra(3,5-di-tert-butyl-4-hydroxyhydrocinnamate); phases: Liquid, Crystal
Fixed: Pressure, kPa = 101
Property: Mole fraction of pentaerythritol tetra(3,5-di-tert-butyl-4-hydroxyhydrocinnamate) (Liquid); method: UV spectra
Temperature, K	Mole fraction of pentaerythritol tetra(3,5-di-tert-butyl-4-hydroxyhydrocinnamate)	uncertainty
283.15	2.995e-05	1.43e-06
288.15	5.405e-05	2.58e-06
293.15	9.001e-05	4.29e-06
298.15	0.00015	7.2e-06
303.15	0.0002429	1.16e-05
308.15	0.0004194	2e-05
313.15	0.0006755	3.22e-05
318.15	0.001004	4.8e-05
323.15	0.001659	7.9e-05
328.15	0.002869	0.000137
333.15	0.004722	0.000226
338.15	0.007293	0.00035
343.15	0.01381	0.00067

System: butan-2-ol + pentaerythritol tetra(3,5-di-tert-butyl-4-hydroxyhydrocinnamate); phases: Liquid, Crystal
Fixed: Pressure, kPa = 101
Property: Mole fraction of pentaerythritol tetra(3,5-di-tert-butyl-4-hydroxyhydrocinnamate) (Liquid); method: UV spectra
Temperature, K	Mole fraction of pentaerythritol tetra(3,5-di-tert-butyl-4-hydroxyhydrocinnamate)	uncertainty
283.15	1.846e-05	8.8e-07
288.15	2.602e-05	1.24e-06
293.15	4.501e-05	2.15e-06
298.15	7.534e-05	3.59e-06
303.15	0.0001199	5.7e-06
308.15	0.0001988	9.5e-06
313.15	0.0003072	1.46e-05
318.15	0.0005284	2.52e-05
323.15	0.0008989	4.29e-05
328.15	0.001455	6.9e-05
333.15	0.00229	0.000109
338.15	0.003455	0.000165
343.15	0.00545	0.000261

System: 2-methyl-1-propanol + pentaerythritol tetra(3,5-di-tert-butyl-4-hydroxyhydrocinnamate); phases: Liquid, Crystal
Fixed: Pressure, kPa = 101
Property: Mole fraction of pentaerythritol tetra(3,5-di-tert-butyl-4-hydroxyhydrocinnamate) (Liquid); method: UV spectra
Temperature, K	Mole fraction of pentaerythritol tetra(3,5-di-tert-butyl-4-hydroxyhydrocinnamate)	uncertainty
283.15	9.288e-06	4.43e-07
288.15	1.541e-05	7.3e-07
293.15	2.059e-05	9.8e-07
298.15	3.599e-05	1.72e-06
303.15	5.32e-05	2.54e-06
308.15	8.069e-05	3.85e-06
313.15	0.0001325	6.3e-06
318.15	0.0002108	1e-05
323.15	0.0003097	1.48e-05
328.15	0.0005292	2.52e-05
333.15	0.0007986	3.81e-05
338.15	0.001192	5.7e-05
343.15	0.00208	9.9e-05
