Measured thermophysical data. Solubility of the single gases H2 and CO in the ionic liquid [bmim] [CH3S04]
Source: Fluid Phase Equilib., 2007, 10.1016/j.fluid.2006.06.010
Compound 1: hydrogen, H2, InChI=1S/H2/h1H, purity 99.999%
Compound 2: carbon monoxide, CO, InChI=1S/CO/c1-2, purity 99.97%
Compound 3: 1-butyl-3-methylimidazolium methyl sulfate, C9H18N2O4S, InChI=1S/C8H15N2.CH4O4S/c1-3-4-5-10-7-6-9(2)8-10;1-5-6(2,3)4/h6-8H,3-5H2,1-2H3;1H3,(H,2,3,4)/q+1;/p-1, purity 98%

System: hydrogen + 1-butyl-3-methylimidazolium methyl sulfate; phases: Liquid, Gas
Property: Vapor or sublimation pressure, kPa (Liquid); method: CCELL:UFactor:2
Temperature, K	Molality, mol/kg of hydrogen	Vapor or sublimation pressure, kPa	uncertainty
293.3	0.00859	1457	77
293.3	0.01706	2879	84
293.3	0.02379	4011	91
293.3	0.03442	5845	107
293.3	0.04035	6855	116
293.3	0.05041	8617	134
333.15	0.0085	1125	66
333.15	0.01548	2072	70
333.15	0.03053	4125	84
333.15	0.04069	5491	98
333.15	0.05072	6941	114
333.15	0.0608	8393	126
373.1	0.01231	1348	61
373.1	0.02144	2379	68
373.1	0.03163	3505	75
373.1	0.04189	4590	86
373.1	0.05545	6216	102
373.1	0.06736	7520	116
373.1	0.07844	8873	206
413.15	0.01261	1179	57
413.15	0.02579	2412	65
413.15	0.03742	3493	74
413.15	0.05141	4761	86
413.15	0.06419	6030	100
413.15	0.07624	7266	165
413.15	0.094	8919	175

System: carbon monoxide + 1-butyl-3-methylimidazolium methyl sulfate; phases: Liquid, Gas
Property: Vapor or sublimation pressure, kPa (Liquid); method: Closed cell (Static) method
Temperature, K	Molality, mol/kg of carbon monoxide	Vapor or sublimation pressure, kPa	uncertainty
293.15	0.01783	1696	91
293.15	0.03209	3124	95
293.15	0.04461	4347	102
293.15	0.06126	6102	114
293.15	0.07677	7818	128
293.15	0.08657	8910	136
333.15	0.01723	1554	82
333.15	0.03101	2835	87
333.15	0.04938	4566	97
333.15	0.06695	6335	111
333.15	0.08399	8071	124
333.15	0.09618	9331	133
373.15	0.01434	1217	76
373.15	0.02826	2419	80
373.15	0.04222	3682	87
373.15	0.05859	5186	98
373.15	0.07249	6481	107
373.15	0.08442	7622	115
373.15	0.09891	8967	127
413.15	0.01991	1588	72
413.15	0.03893	3154	81
413.15	0.05842	4809	91
413.15	0.07707	6404	104
413.15	0.09178	7692	115
413.15	0.10524	8871	125
