Measured thermophysical data. Liquid-solid-liquid phase transition hysteresis loops in the ionic conductivity of ten imidazolium-based ionic liquids
Source: Fluid Phase Equilib., 2012, 10.1016/j.fluid.2012.02.006
Compound 1: 1-ethyl-3-methylimidazolium chloride, C6H11ClN2, InChI=1S/C6H11N2.ClH/c1-3-8-5-4-7(2)6-8;/h4-6H,3H2,1-2H3;1H/q+1;/p-1, purity 99%
Compound 2: 1-ethyl-3-methylimidazolium bromide, C6H11BrN2, InChI=1S/C6H11N2.BrH/c1-3-8-5-4-7(2)6-8;/h4-6H,3H2,1-2H3;1H/q+1;/p-1, purity 97%
Compound 3: 1-ethyl-3-methylimidazolium iodide, C6H11IN2, InChI=1S/C6H11N2.HI/c1-3-8-5-4-7(2)6-8;/h4-6H,3H2,1-2H3;1H/q+1;/p-1, purity 98%
Compound 4: 1-ethyl-3-methylimidazolium hexafluorophosphate, C6H11F6N2P, InChI=1S/C6H11N2.F6P/c1-3-8-5-4-7(2)6-8;1-7(2,3,4,5)6/h4-6H,3H2,1-2H3;/q+1;-1, purity 99%
Compound 5: 1-ethyl-3-methylimidazolium 4-methylbenzenesulfonate, C13H18N2O3S, InChI=1S/C7H8O3S.C6H11N2/c1-6-2-4-7(5-3-6)11(8,9)10;1-3-8-5-4-7(2)6-8/h2-5H,1H3,(H,8,9,10);4-6H,3H2,1-2H3/q;+1/p-1, purity 99%
Compound 6: 1-ethyl-3-methylimidazolium tetrafluoroborate, C6H11BF4N2, InChI=1S/C6H11N2.BF4/c1-3-8-5-4-7(2)6-8;2-1(3,4)5/h4-6H,3H2,1-2H3;/q+1;-1, purity 98%
Compound 7: 1-decyl-3-methylimidazolium tetrafluoroborate, C14H27BF4N2, InChI=1S/C14H27N2.BF4/c1-3-4-5-6-7-8-9-10-11-16-13-12-15(2)14-16;2-1(3,4)5/h12-14H,3-11H2,1-2H3;/q+1;-1, purity 98%
Compound 8: 1-dodecyl-3-methylimidazolium tetrafluoroborate, C16H31BF4N2, InChI=1S/C16H31N2.BF4/c1-3-4-5-6-7-8-9-10-11-12-13-18-15-14-17(2)16-18;2-1(3,4)5/h14-16H,3-13H2,1-2H3;/q+1;-1, purity 98%
Compound 9: 1-hexadecyl-3-methylimidazolium tetrafluoroborate, C20H39BF4N2, InChI=1S/C20H39N2.BF4/c1-3-4-5-6-7-8-9-10-11-12-13-14-15-16-17-22-19-18-21(2)20-22;2-1(3,4)5/h18-20H,3-17H2,1-2H3;/q+1;-1, purity 98%

System: 1-ethyl-3-methylimidazolium chloride; phases: Crystal, Liquid, Air at 1 atmosphere
Property: Normal melting temperature, K (Crystal); method: VISOBS
Normal melting temperature, K	uncertainty
360	1

System: 1-ethyl-3-methylimidazolium chloride; phases: Liquid
Fixed: Pressure, kPa = 101.325
Property: Electrical conductivity, S/m (Liquid); method: Alternating current cell with electrodes
Temperature, K	Electrical conductivity, S/m	uncertainty
289	0.0025	0.0007
295.8	0.0249	0.0019
302.9	0.129	0.004
308.7	0.194	0.005
312.8	0.256	0.006
317.7	0.344	0.008
323.7	0.487	0.011
328.4	0.628	0.014
333.5	0.802	0.018
337.8	0.975	0.021
341.2	1.12	0.02
345.6	1.33	0.03
350.1	1.57	0.03
355.1	1.87	0.04
360.4	2.15	0.05
366.7	2.67	0.06
373.1	3	0.06
378.1	3.39	0.07
383.1	3.77	0.08
388.1	4.17	0.09
393.1	4.58	0.09
398.1	5.01	0.1
403.1	5.42	0.11
408.1	5.85	0.12
413.1	6.26	0.13
418.1	6.66	0.13
423.1	7.03	0.14
428.1	7.38	0.15
433.1	7.71	0.15

System: 1-ethyl-3-methylimidazolium chloride; phases: Crystal
Fixed: Pressure, kPa = 101.325
Property: Electrical conductivity, S/m (Crystal); method: Alternating current cell with electrodes
Temperature, K	Electrical conductivity, S/m	uncertainty
298.1	0.00183	5e-05
303.1	0.00254	6e-05
308.1	0.00358	9e-05
313.1	0.00496	0.00013
318.1	0.00741	0.00019
323.1	0.0109	0.0003
328.1	0.0165	0.0004
333.1	0.022	0.0006
338.1	0.0335	0.0009
343.1	0.0502	0.0015
348.1	0.0871	0.0041
353.1	0.235	0.013
358.1	0.701	0.044
363.1	2.3	0.06
368.1	2.62	0.05

System: 1-ethyl-3-methylimidazolium chloride; phases: Crystal, Liquid, Air at 1 atmosphere
Property: Normal melting temperature, K (Crystal); method: VISOBS
Normal melting temperature, K	uncertainty
350	1

System: 1-ethyl-3-methylimidazolium chloride; phases: Liquid
Fixed: Pressure, kPa = 101.325
Property: Electrical conductivity, S/m (Liquid); method: Alternating current cell with electrodes
Temperature, K	Electrical conductivity, S/m	uncertainty
298.2	0.0622	0.0019
302.7	0.0939	0.0026
308.8	0.157	0.004
312.7	0.214	0.006
317.5	0.329	0.008
322	0.44	0.01
328.1	0.604	0.014
334.1	0.827	0.018
338.5	1.02	0.02
341.9	1.21	0.03
348.1	1.54	0.03
350.5	1.67	0.04
354.2	1.95	0.04
357.2	2.12	0.04
362	2.49	0.05
367.8	2.87	0.06
373.1	3.41	0.07
378.1	3.86	0.08
383.1	4.38	0.09
388.1	4.85	0.1
393.1	5.34	0.11
398.1	5.84	0.12
403.1	6.29	0.13
408.1	6.76	0.14
413.1	7.26	0.15
418.1	7.83	0.16
423.1	8.41	0.17
428.1	8.99	0.18
433.1	9.55	0.19
438.1	10.1	0.2
443.1	10.6	0.2
448.1	11.2	0.2
453.1	11.8	0.2

System: 1-ethyl-3-methylimidazolium chloride; phases: Crystal
Fixed: Pressure, kPa = 101.325
Property: Electrical conductivity, S/m (Crystal); method: Alternating current cell with electrodes
Temperature, K	Electrical conductivity, S/m	uncertainty
259.3	0.00386	0.0001
263.1	0.00513	0.00013
268.1	0.00724	0.00018
273.4	0.011	0.0003
279.6	0.0161	0.0004
284.8	0.0218	0.0005
285.7	0.0223	0.0005
289.7	0.0284	0.0006
290.2	0.0284	0.0006
294.5	0.0351	0.0008
299.3	0.0449	0.001
304.1	0.0565	0.0012
309.1	0.0707	0.0016
313.3	0.0906	0.0021
318.9	0.118	0.003
323.2	0.147	0.003
328.4	0.201	0.005
333.2	0.279	0.006

System: 1-ethyl-3-methylimidazolium bromide; phases: Crystal, Liquid, Air at 1 atmosphere
Property: Normal melting temperature, K (Crystal); method: VISOBS
Normal melting temperature, K	uncertainty
345	1

System: 1-ethyl-3-methylimidazolium bromide; phases: Liquid
Fixed: Pressure, kPa = 101.325
Property: Electrical conductivity, S/m (Liquid); method: Alternating current cell with electrodes
Temperature, K	Electrical conductivity, S/m	uncertainty
335.6	1.06	0.02
336.1	1.08	0.02
336.6	1.1	0.02
337.1	1.12	0.02
337.3	1.13	0.03
338.1	1.17	0.03
339.1	1.21	0.03
340.6	1.28	0.03
342.8	1.39	0.03
343.1	1.36	0.03
345.2	1.2	0.03
348.1	1.65	0.04
348.1	1.6	0.04
353.1	1.92	0.04
353.9	1.92	0.04
355.6	2.12	0.05
358.1	2.27	0.05
363.1	2.57	0.05
368.1	2.89	0.06
373.1	3.22	0.07
377.1	3.49	0.07
383.1	3.97	0.08
384.1	4.05	0.08
388.1	4.37	0.09
393.1	4.77	0.1
398.1	5.18	0.11
403.1	5.59	0.11
408.1	6.08	0.12
413.1	6.63	0.13
418.1	7.19	0.15
423.1	7.71	0.16
428.1	8.18	0.16
430.6	8.41	0.17
443.1	9.79	0.2
448.1	10.2	0.2
453.1	10.7	0.2
458.1	11.2	0.2
463.1	11.7	0.2
468.1	12.2	0.3
471.6	12.5	0.3
473.1	12.8	0.3
478.1	13.2	0.3
481.1	13.4	0.3
484.1	13.7	0.3

System: 1-ethyl-3-methylimidazolium bromide; phases: Crystal
Fixed: Pressure, kPa = 101.325
Property: Electrical conductivity, S/m (Crystal); method: Alternating current cell with electrodes
Temperature, K	Electrical conductivity, S/m	uncertainty
258.1	0.00476	0.0001
258.1	0.00492	0.0001
263.1	0.00544	0.00011
263.1	0.00544	0.00011
268.1	0.00633	0.00017
268.1	0.00633	0.00017
273.1	0.0113	0.0003
273.1	0.011	0.0003
278.1	0.013	0.0003
278.2	0.014	0.0003
282.9	0.017	0.0004
283	0.0158	0.0003
287.9	0.0188	0.0004
288.1	0.0209	0.0004
293.1	0.0226	0.0005
293.2	0.0258	0.0005
298.2	0.0274	0.0024
298.6	0.032	0.0024
303.3	0.0386	0.0008
303.4	0.0321	0.0007
308	0.0467	0.001
312.5	0.0496	0.0023
313.3	0.0579	0.0024
318.2	0.071	0.0015
323	0.0789	0.0068
323.4	0.0921	0.0069
328.1	0.12	0.003
330.9	0.13	0.003
332.8	0.153	0.012
333.1	0.17	0.012
334.6	0.182	0.004
335.7	0.202	0.007
337.6	0.262	0.009
339.2	0.32	0.012
341.4	0.451	0.022
343.9	0.781	0.031

System: 1-ethyl-3-methylimidazolium iodide; phases: Crystal, Liquid, Air at 1 atmosphere
Property: Normal melting temperature, K (Crystal); method: VISOBS
Normal melting temperature, K	uncertainty
350	1

System: 1-ethyl-3-methylimidazolium iodide; phases: Liquid
Fixed: Pressure, kPa = 101.325
Property: Electrical conductivity, S/m (Liquid); method: Alternating current cell with electrodes
Temperature, K	Electrical conductivity, S/m	uncertainty
333.1	0.633	0.014
338.1	0.752	0.016
343.1	0.871	0.018
348.1	1	0.02
350.1	0.827	0.018
353.1	1.14	0.02
353.1	1.22	0.03
363.1	1.4	0.03
373.1	1.58	0.03
383.1	1.93	0.04
393.1	2.24	0.05
403.1	2.55	0.05
413.1	2.84	0.06
423.1	3.14	0.06
433.1	3.43	0.07
443.1	3.74	0.08
453.1	3.91	0.08

System: 1-ethyl-3-methylimidazolium iodide; phases: Crystal
Fixed: Pressure, kPa = 101.325
Property: Electrical conductivity, S/m (Crystal); method: Alternating current cell with electrodes
Temperature, K	Electrical conductivity, S/m	uncertainty
258.6	0.00216	5e-05
263.1	0.00277	6e-05
268.1	0.00369	8e-05
273.1	0.00448	0.0001
273.1	0.00424	9e-05
278.1	0.00541	0.00011
283.1	0.00616	0.00013
283.1	0.00641	0.00013
283.1	0.00576	0.00012
288.1	0.00716	0.00015
293.1	0.0083	0.00017
293.1	0.00738	0.00016
296.8	0.00952	0.0002
298.1	0.00958	0.0002
303.1	0.0111	0.0002
303.1	0.00901	0.00019
308.1	0.013	0.0003
313.1	0.0155	0.0003
313.1	0.0112	0.0003
313.1	0.0129	0.0003
318.1	0.0198	0.0005
323.1	0.0282	0.0007
323.1	0.0204	0.0006
328.1	0.0388	0.0008
328.1	0.028	0.0006
330.1	0.0346	0.0007
333.1	0.0441	0.0011
335.1	0.0523	0.0016
338.1	0.0741	0.0021
340.1	0.0902	0.0038
343.1	0.1552	0.006
345.1	0.219	0.012
348.1	0.421	0.016

System: 1-ethyl-3-methylimidazolium hexafluorophosphate; phases: Crystal, Liquid, Air at 1 atmosphere
Property: Normal melting temperature, K (Crystal); method: VISOBS
Normal melting temperature, K	uncertainty
333	1

System: 1-ethyl-3-methylimidazolium hexafluorophosphate; phases: Liquid
Fixed: Pressure, kPa = 101.325
Property: Electrical conductivity, S/m (Liquid); method: Alternating current cell with electrodes
Temperature, K	Electrical conductivity, S/m	uncertainty
299.1	0.491	0.011
303.6	0.583	0.013
308.9	0.715	0.015
312.6	0.814	0.017
318.4	0.973	0.02
323.1	1.11	0.02
327.8	1.25	0.03
333.1	1.71	0.04
334.6	1.53	0.03
338	1.61	0.04
338.1	1.86	0.04
343.1	2.09	0.12
343.6	1.81	0.12
348.1	2.33	0.05
350.9	2.09	0.04
353.1	2.64	0.05
356.5	2.31	0.05
358.1	2.9	0.06
361.1	2.47	0.05
363.1	3.07	0.07
368.1	3.34	0.07
373.1	3.7	0.08
378.1	4.04	0.08
383.1	4.39	0.09
388.1	4.72	0.1
393.1	5.06	0.1
398.1	5.41	0.11
403.1	5.75	0.12
408.1	6.12	0.12
413.1	6.41	0.13
418.1	6.66	0.13
423.1	6.87	0.14

System: 1-ethyl-3-methylimidazolium hexafluorophosphate; phases: Crystal
Fixed: Pressure, kPa = 101.325
Property: Electrical conductivity, S/m (Crystal); method: Alternating current cell with electrodes
Temperature, K	Electrical conductivity, S/m	uncertainty
253.1	1e-06	1e-06
258.1	2e-06	1e-06
258.1	2e-06	1e-06
258.1	2e-06	1e-06
263.1	3e-06	1e-06
263.1	3e-06	1e-06
263.1	3e-06	1e-06
268.1	6e-06	1e-06
268.1	5e-06	1e-06
268.1	5e-06	1e-06
273.1	1.1e-05	1e-06
273.1	1e-05	1e-05
273.1	1e-05	1e-05
278.1	2.3e-05	1e-06
278.1	1.8e-05	1e-06
278.1	1.8e-05	1e-06
283.1	5.5e-05	2e-06
283.1	3.4e-05	2e-06
283.1	3.4e-05	2e-06
288.1	0.00012	5e-06
289.6	0.000212	8e-06
293.1	0.000308	1.8e-05
294	0.000696	8.7e-05

System: 1-ethyl-3-methylimidazolium 4-methylbenzenesulfonate; phases: Crystal, Liquid, Air at 1 atmosphere
Property: Normal melting temperature, K (Crystal); method: VISOBS
Normal melting temperature, K	uncertainty
328	1

System: 1-ethyl-3-methylimidazolium 4-methylbenzenesulfonate; phases: Liquid
Fixed: Pressure, kPa = 101.325
Property: Electrical conductivity, S/m (Liquid); method: Alternating current cell with electrodes
Temperature, K	Electrical conductivity, S/m	uncertainty
268.1	0.000299	2e-05
273.1	0.000776	3.5e-05
278.1	0.00186	8e-05
283.1	0.00408	0.00015
288.1	0.00809	0.00027
293.1	0.0148	0.0005
298.1	0.0254	0.0007
303.1	0.0409	0.001
308.1	0.0624	0.0012
313.1	0.0915	0.0018
318.1	0.128	0.003
323.1	0.176	0.004
328.1	0.237	0.037
328.1	0.274	0.044
333.1	0.321	0.007
333.1	0.343	0.008
338.1	0.408	0.009
338.1	0.419	0.009
343.1	0.512	0.011
343.1	0.512	0.011
347.9	0.591	0.012
348.1	0.635	0.013
353.1	0.697	0.015
358.1	0.843	0.018
363.1	0.954	0.02
368.1	1.13	0.02
373.1	1.29	0.03
378.1	1.46	0.03
383.1	1.64	0.03
388.1	1.82	0.04
393.1	2.01	0.04
398.1	2.26	0.05
403.1	2.47	0.05
408.1	2.69	0.05
413.1	2.9	0.06
418.1	3.13	0.06
423.1	3.36	0.07
428.1	3.57	0.07
433.1	3.79	0.08
438.1	4	0.08

System: 1-ethyl-3-methylimidazolium 4-methylbenzenesulfonate; phases: Crystal
Fixed: Pressure, kPa = 101.325
Property: Electrical conductivity, S/m (Crystal); method: Alternating current cell with electrodes
Temperature, K	Electrical conductivity, S/m	uncertainty
258.1	3e-06	1e-06
259.1	3e-06	1e-06
260.1	3e-06	1e-06
261.1	4e-06	1e-06
262.1	4e-06	1e-06
263.1	4e-06	1e-06
263.1	6e-06	1e-06
264.1	4e-06	1e-06
265.1	4e-06	1e-06
266.1	4e-06	1e-06
267.1	4e-06	1e-06
268.1	4e-06	1e-06
269.1	4e-06	1e-06
270.1	5e-06	1e-06
271.1	5e-06	1e-06
272.1	5e-06	1e-06
273.1	5e-06	1e-06
274.1	5e-06	1e-06
275.1	5e-06	1e-06
276.1	5e-06	1e-06
277.1	6e-06	1e-06
278.1	6e-06	1e-06
279.1	7e-06	1e-06
280.1	7e-06	1e-06
281.1	7e-06	1e-06
282.1	7e-06	1e-06
283.1	8e-06	1e-06
285.1	9e-06	1e-06
287.1	1e-05	1e-06
288.1	1.1e-05	1e-06
289.1	1.1e-05	1e-06
290.1	1.2e-05	1e-06
291.1	1.2e-05	1e-06
292.1	1.3e-05	1e-06
293.1	1.3e-05	1e-06
294.1	1.3e-05	1e-06
295.1	1.4e-05	1e-06
296.1	1.4e-05	1e-06
297.1	1.5e-05	1e-06
298.1	1.6e-05	1e-06
299.1	1.6e-05	1e-06
301.1	2e-05	1e-06
302.1	2.2e-05	1e-06
303.1	2.4e-05	1e-06
304.1	2.4e-05	1e-06
305.1	2.6e-05	1e-06
306.1	2.9e-05	1e-06
307.1	3.3e-05	1e-06
308.1	3.9e-05	1e-06
309.1	4.6e-05	1e-06
310.1	5.6e-05	1e-06
311.1	6.9e-05	1e-06
312.1	8.7e-05	1e-06
313.1	0.000119	1e-06
314.1	0.000152	1e-06
315.1	0.0002	1e-06
316.1	0.000272	1e-06
317.1	0.000376	1e-06
318.1	0.000575	1e-06
319.1	0.000771	1e-06
320.1	0.00192	1e-05
321.1	0.00275	1e-05
322.1	0.00394	1e-05
323.1	0.0061	1e-05
324.1	0.00945	1e-05
325.1	0.0152	0.0001
326.1	0.0271	0.0001
327.1	0.0542	0.0001
328.1	0.152	0.001

System: 1-ethyl-3-methylimidazolium tetrafluoroborate; phases: Crystal, Liquid, Air at 1 atmosphere
Property: Normal melting temperature, K (Crystal); method: VISOBS
Normal melting temperature, K	uncertainty
288	1

System: 1-ethyl-3-methylimidazolium tetrafluoroborate; phases: Crystal
Fixed: Pressure, kPa = 101.325
Property: Electrical conductivity, S/m (Crystal); method: Alternating current cell with electrodes
Temperature, K	Electrical conductivity, S/m	uncertainty
203.4	3e-07	1e-07
203.9	3e-07	1e-07
204.4	3e-07	1e-07
204.4	4e-07	1e-07
204.9	4e-07	1e-07
205.4	4e-07	1e-07
205.9	4e-07	1e-07
206.3	5e-07	1e-07
206.8	5e-07	1e-07
206.8	5e-07	1e-07
207.3	6e-07	1e-07
207.8	6e-07	1e-07
208.3	7e-07	1e-07
208.8	7e-07	1e-07
209.3	7e-07	1e-07
209.3	7e-07	1e-07
209.8	8e-07	1e-07
210.6	8e-07	1e-07
210.8	8e-07	1e-07
211.3	9e-07	1e-07
211.8	1.2e-06	1e-07
211.8	1e-06	1e-06
212.3	1.2e-06	1e-07
212.8	1.2e-06	1e-07
213.3	1.3e-06	1e-07
213.8	1.4e-06	2e-07
214.3	2e-06	1e-06
214.3	1.5e-06	1e-07
214.8	1.7e-06	1e-07
215.3	1.8e-06	1e-07
215.8	1.9e-06	1e-07
216.3	2e-06	1e-06
216.8	3.3e-06	1e-07
216.8	2.3e-06	1e-07
217.3	2.5e-06	1e-07
217.8	2.7e-06	1e-07
218.3	2.9e-06	1e-07
218.8	3.1e-06	4e-07
219.3	4.7e-06	2e-07
219.3	3.5e-06	2e-07
219.8	3.8e-06	1e-07
220.3	4.2e-06	2e-07
220.8	4.5e-06	2e-07
221.3	4.8e-06	5e-07
221.8	7e-06	1e-06
221.8	5.4e-06	2e-07
222.3	5.8e-06	2e-07
222.8	6.3e-06	3e-07
223.2	6.9e-06	3e-07
223.7	7.5e-06	6e-07
224.2	9.7e-06	4e-07
224.2	8.3e-06	3e-07
224.7	9e-06	1e-06
225.2	9.8e-06	4e-07
225.7	1.09e-05	4e-07
226.2	1.16e-05	1e-06
226.7	1.58e-05	5e-07
226.7	1.27e-05	5e-07
228	1.58e-05	8e-07
229.2	2.47e-05	8e-07
229.2	1.92e-05	7e-07
230.5	2.3e-05	1e-06
231.7	4.04e-05	1.2e-06
231.7	2.76e-05	1.1e-06
232.9	3.38e-05	1.9e-06
234.2	6.26e-05	1.7e-06
234.2	4.07e-05	1.4e-06
235.4	4.83e-05	2.6e-06
236.7	9.24e-05	2.5e-06
236.7	5.69e-05	2e-06
237.9	6.84e-05	4.1e-06
239.2	0.0001401	3.5e-06
239.2	8.1e-05	3e-06
240.9	0.0001039	6.1e-06
241.6	0.000236	5e-06
241.6	0.000115	4e-06
242.9	0.000137	9e-06
244.1	0.000349	8e-06
244.1	0.0001619	5.4e-06
245.4	0.0001909	2.44e-05
246.6	0.000659	1.4e-05
246.6	0.000224	7e-06
247.9	0.000262	2.9e-05
249.1	0.000306	1e-05
250.3	0.000356	1.1e-05
251.6	0.000417	1.3e-05
252.8	0.000488	1.5e-05
254.1	0.000563	1.7e-05
255.3	0.000652	2.1e-05
256.5	0.000758	2.4e-05
257.8	0.000878	2.7e-05
259	0.001016	3.1e-05
260.3	0.001178	3.6e-05
261.5	0.001361	4e-05
262.8	0.001548	4.4e-05
264	0.001758	5.2e-05
265.2	0.00201	6e-05
266.5	0.00234	7e-05
267.7	0.00273	8e-05
269	0.00314	9e-05
270.2	0.0036	0.0001
271.5	0.0041	0.0001
272.7	0.0047	0.0002
273.9	0.00543	0.00018
275.4	0.00664	0.00022
276.4	0.00762	0.00032
278.9	0.01142	0.00052
281.4	0.01922	0.00101
283.9	0.0347	0.0028
286.4	0.0867	0.0104
287.6	0.245	0.027

System: 1-ethyl-3-methylimidazolium tetrafluoroborate; phases: Liquid
Fixed: Pressure, kPa = 101.325
Property: Electrical conductivity, S/m (Liquid); method: Alternating current cell with electrodes
Temperature, K	Electrical conductivity, S/m	uncertainty
249.1	0.1451	0.0044
251.6	0.1863	0.0048
254.1	0.222	0.005
256.5	0.261	0.005
258.1	0.245	0.006
259	0.317	0.009
261.5	0.363	0.007
263.1	0.296	0.006
264	0.401	0.011
266.5	0.443	0.009
268.1	0.445	0.011
269	0.527	0.014
271.5	0.62	0.01
273.1	0.612	0.014
273.9	0.702	0.015
276.4	0.721	0.015
278.1	0.735	0.017
278.9	0.835	0.021
281.4	0.958	0.019
283.1	0.896	0.02
283.9	1.098	0.026
286.4	1.168	0.023
288.1	1.091	0.022
288.5	0.611	0.034
288.9	1.22	0.04
288.9	0.748	0.035
288.9	0.577	0.036
289.5	0.891	0.038
290.1	1.016	0.036
290.7	1.07	0.06
291.3	1.334	0.027
291.3	1.092	0.023
292.6	1.142	0.024
293.1	1.305	0.056
293.8	1.442	0.03
293.8	1.192	0.024
295.1	1.244	0.026
296.3	1.539	0.035
296.3	1.296	0.028
296.8	1.324	0.033
297.8	1.356	0.04
298.1	1.571	0.055
298.8	1.619	0.035
298.8	1.394	0.029
300	1.463	0.031
303.1	1.788	0.038
308.1	2.02	0.04
313.1	2.28	0.05
318.1	2.55	0.05
323.1	2.85	0.06
328.1	3.22	0.07
333.1	3.56	0.07
338.1	3.95	0.08
343.1	4.35	0.09
348.1	4.77	0.1
353.1	5.22	0.11
358.1	5.55	0.11
363.1	5.95	0.12
368.1	6.46	0.13
373.1	6.9	0.1
378.1	7.36	0.15
383.1	7.83	0.16
388.1	8.32	0.17
393.1	8.77	0.18
398.1	9.29	0.19
403.1	9.79	0.2
408.1	10.27	0.21
413.1	10.79	0.22
418.1	11.32	0.23
423.1	11.78	0.24
428.1	12.26	0.25
433.1	12.68	0.25

System: 1-decyl-3-methylimidazolium tetrafluoroborate; phases: Crystal, Liquid, Air at 1 atmosphere
Property: Normal melting temperature, K (Crystal); method: VISOBS
Normal melting temperature, K	uncertainty
280	1

System: 1-decyl-3-methylimidazolium tetrafluoroborate; phases: Liquid
Fixed: Pressure, kPa = 101.325
Property: Electrical conductivity, S/m (Liquid); method: Alternating current cell with electrodes
Temperature, K	Electrical conductivity, S/m	uncertainty
263.1	0.00236	7e-05
268.1	0.00375	0.0001
273.1	0.00578	0.00015
278.1	0.0087	0.00022
283.1	0.0128	0.0003
283.1	0.0129	0.0003
288.1	0.0184	0.0005
288.1	0.0185	0.0005
293.1	0.0257	0.0006
293.1	0.0258	0.0006
298.1	0.0349	0.0008
298.1	0.0351	0.0008
303.1	0.0464	0.0011
303.1	0.0467	0.0011
308.1	0.0608	0.0014
308.1	0.0609	0.0014
313.1	0.0783	0.0017
313.1	0.0784	0.0017
318.1	0.0988	0.0022
318.1	0.099	0.0022
323.1	0.124	0.003
323.1	0.124	0.003
328.1	0.153	0.003
328.1	0.153	0.003
333.1	0.189	0.004
333.1	0.189	0.004
338.1	0.231	0.005
338.1	0.23	0.005
343.1	0.285	0.006
343.1	0.286	0.006
348.1	0.351	0.007
348.1	0.341	0.007
353.1	0.405	0.008

System: 1-decyl-3-methylimidazolium tetrafluoroborate; phases: Crystal
Fixed: Pressure, kPa = 101.325
Property: Electrical conductivity, S/m (Crystal); method: Alternating current cell with electrodes
Temperature, K	Electrical conductivity, S/m	uncertainty
253.1	1e-06	1e-06
258.1	3e-06	1e-06
258.1	1e-06	1e-06
263.1	1e-06	1e-06
268.1	3e-06	1e-06
273.1	4.1e-05	6e-06
278.1	0.000306	1.2e-05

System: 1-dodecyl-3-methylimidazolium tetrafluoroborate; phases: Crystal, Liquid, Air at 1 atmosphere
Property: Normal melting temperature, K (Crystal); method: VISOBS
Normal melting temperature, K	uncertainty
305	1

System: 1-dodecyl-3-methylimidazolium tetrafluoroborate; phases: Crystal
Fixed: Pressure, kPa = 101.325
Property: Electrical conductivity, S/m (Crystal); method: Alternating current cell with electrodes
Temperature, K	Electrical conductivity, S/m	uncertainty
283.1	1e-06	1e-06
283.1	1e-06	1e-06
288.1	2e-06	1e-06
288.1	1.5e-06	1e-07
293.1	5e-06	1e-06
298.1	2.5e-05	1e-06

System: 1-dodecyl-3-methylimidazolium tetrafluoroborate; phases: Liquid
Fixed: Pressure, kPa = 101.325
Property: Electrical conductivity, S/m (Liquid); method: Alternating current cell with electrodes
Temperature, K	Electrical conductivity, S/m	uncertainty
293.1	0.0164	0.0004
298.1	0.0226	0.0005
303.1	0.0304	0.0007
308.1	0.04	0.0009
308.1	0.0398	0.0009
313.1	0.052	0.0012
313.1	0.0519	0.0012
318.1	0.0665	0.0015
318.1	0.0664	0.0015
323.1	0.087	0.0019
323.1	0.0865	0.0019
328.1	0.107	0.002
328.1	0.107	0.002
333.1	0.131	0.003
333.1	0.131	0.003
338.1	0.16	0.003
338.1	0.159	0.003
343.1	0.195	0.004
343.1	0.192	0.004
348.1	0.241	0.005
348.1	0.23	0.005
353.1	0.28	0.006
353.1	0.281	0.006

System: 1-hexadecyl-3-methylimidazolium tetrafluoroborate; phases: Crystal, Liquid, Air at 1 atmosphere
Property: Normal melting temperature, K (Crystal); method: VISOBS
Normal melting temperature, K	uncertainty
330	1

System: 1-hexadecyl-3-methylimidazolium tetrafluoroborate; phases: Liquid
Fixed: Pressure, kPa = 101.325
Property: Electrical conductivity, S/m (Liquid); method: Alternating current cell with electrodes
Temperature, K	Electrical conductivity, S/m	uncertainty
310.1	0.0228	0.0008
313.1	0.032	0.0008
315.1	0.0347	0.0008
320.1	0.0451	0.001
325.1	0.0568	0.0012
330.1	0.0705	0.0015
333.1	0.0813	0.0018
336.1	0.0902	0.0019
338.1	0.0988	0.0021
340.1	0.105	0.002
343.1	0.119	0.003
346.1	0.128	0.003
348.1	0.143	0.003
350.1	0.146	0.003
353.1	0.169	0.004
355.1	0.171	0.003
367.1	0.247	0.005
376.1	0.301	0.006
381.1	0.331	0.007
390.1	0.391	0.008
396.1	0.444	0.009
405.1	0.522	0.011
413.1	0.575	0.012
419.1	0.622	0.013
425.1	0.725	0.015
433.1	0.847	0.017
435.1	0.872	0.018
440.1	1	0.02
448.1	1.11	0.02
453.1	1.17	0.02
457.1	1.22	0.03
462.1	1.27	0.03
283.1	4.1e-05	2e-06
288.1	8.8e-05	4e-06
293.1	0.000191	1.2e-05
298.1	0.000677	3.6e-05
303.1	0.00184	6e-05
304.1	0.0021	9e-05
306.1	0.00307	0.00016
307.1	0.00443	0.00032

System: 1-hexadecyl-3-methylimidazolium tetrafluoroborate; phases: Crystal
Fixed: Pressure, kPa = 101.325
Property: Electrical conductivity, S/m (Crystal); method: Alternating current cell with electrodes
Temperature, K	Electrical conductivity, S/m	uncertainty
288.1	1e-06	1e-06
293.1	1e-06	1e-06
298.1	1e-06	1e-06
303.1	1e-06	1e-06
308.1	2e-06	1e-06
313.1	1e-05	1e-06
318.1	6.1e-05	1e-06
323.1	0.00239	1e-05
328.1	0.0421	0.0001
