Measured thermophysical data. Measurement and prediction of vapor-liquid equilibria of ternary systems containing ionic liquids
Source: Fluid Phase Equilib., 2005, 10.1016/j.fluid.2004.11.010
Compound 1: 1-ethyl-3-methylimidazolium bis((trifluoromethyl)sulfonyl)imide, C8H11F6N3O4S2, InChI=1S/C6H11N2.C2F6NO4S2/c1-3-8-5-4-7(2)6-8;3-1(4,5)14(10,11)9-15(12,13)2(6,7)8/h4-6H,3H2,1-2H3;/q+1;-1
Compound 2: 1-butyl-3-methylimidazolium bis(trifluoromethylsulfonyl)imide, C10H15F6N3O4S2, InChI=1S/C8H15N2.C2F6NO4S2/c1-3-4-5-10-7-6-9(2)8-10;3-1(4,5)14(10,11)9-15(12,13)2(6,7)8/h6-8H,3-5H2,1-2H3;/q+1;-1
Compound 3: acetone, C3H6O, InChI=1S/C3H6O/c1-3(2)4/h1-2H3
Compound 4: propan-2-ol, C3H8O, InChI=1S/C3H8O/c1-3(2)4/h3-4H,1-2H3
Compound 5: water, H2O, InChI=1S/H2O/h1H2

System: acetone; phases: Liquid, Gas
Fixed: Temperature, K = 353.15
Property: Vapor or sublimation pressure, kPa (Liquid); method: Closed cell (Static) method
Vapor or sublimation pressure, kPa	uncertainty
215.16	3.56
215.04	3.56

System: propan-2-ol; phases: Liquid, Gas
Fixed: Temperature, K = 353.15
Property: Vapor or sublimation pressure, kPa (Liquid); method: Closed cell (Static) method
Vapor or sublimation pressure, kPa	uncertainty
92.134	3.512
91.992	3.512

System: acetone + 1-ethyl-3-methylimidazolium bis((trifluoromethyl)sulfonyl)imide; phases: Liquid, Gas
Fixed: Temperature, K = 353.15
Property: Vapor or sublimation pressure, kPa (Liquid); method: Closed cell (Static) method
Mole fraction of acetone	Vapor or sublimation pressure, kPa	uncertainty
0.0133	1.139	0.041
0.0383	3.485	0.054
0.0539	4.825	0.064
0.0683	6.073	0.074
0.0949	8.509	0.093
0.1521	14.884	0.143
0.2081	21.66	0.192
0.2735	30.115	0.246
0.3393	39.811	0.3
0.4022	50.263	0.35
0.4647	61.862	0.396
0.5249	74.281	0.437
0.5839	87.87	0.474
0.6369	101.46	0.51
0.6846	114.73	0.53
0.7264	127.22	0.55
0.7631	138.75	0.57
0.7948	149.16	0.59
0.8222	158.37	0.6
0.8455	166.29	0.61
0.8653	173.07	0.62
0.8967	183.75	0.64
0.9376	196.92	0.67
0.9671	205.8	0.69
0.9844	210.74	0.7
0.9933	213.25	0.71
0.9972	214.4	0.71
0.999	214.94	0.71
1	215.16	0.72

System: propan-2-ol + 1-ethyl-3-methylimidazolium bis((trifluoromethyl)sulfonyl)imide; phases: Liquid, Gas
Fixed: Temperature, K = 353.15
Property: Vapor or sublimation pressure, kPa (Liquid); method: Closed cell (Static) method
Mole fraction of propan-2-ol	Vapor or sublimation pressure, kPa	uncertainty
0.0185	2.209	0.046
0.0405	4.65	0.063
0.0598	6.977	0.082
0.0802	9.371	0.102
0.0978	11.618	0.121
0.1179	13.814	0.138
0.1356	15.993	0.155
0.1746	21.166	0.194
0.2196	26.955	0.234
0.2725	33.824	0.276
0.3299	41.041	0.313
0.3896	48.449	0.343
0.4497	55.518	0.363
0.5086	62.002	0.374
0.5658	67.822	0.378
0.6213	72.875	0.374
0.6694	76.783	0.368
0.6909	78.824	0.365
0.7122	79.857	0.359
0.7429	82.079	0.353
0.7501	82.225	0.35
0.7831	84.064	0.342
0.786	84.35	0.342
0.8119	85.48	0.335
0.8364	86.54	0.329
0.8411	86.726	0.328
0.8577	87.378	0.325
0.8941	88.534	0.318
0.9361	89.746	0.313
0.9663	90.622	0.312
0.984	91.235	0.312
0.9931	91.647	0.313
0.9968	91.846	0.314
0.9988	92.006	0.314
1	92.134	0.315

System: water + 1-ethyl-3-methylimidazolium bis((trifluoromethyl)sulfonyl)imide; phases: Liquid, Gas
Fixed: Temperature, K = 353.15
Property: Vapor or sublimation pressure, kPa (Liquid); method: Closed cell (Static) method
Mole fraction of water	Vapor or sublimation pressure, kPa	uncertainty
0.0289	3.193	0.052
0.0598	6.453	0.077
0.089	9.543	0.103
0.1448	15.296	0.148
0.1933	20.152	0.182
0.27	27.386	0.225
0.3513	34.289	0.256
0.4388	40.748	0.272
0.5202	45.529	0.273
0.5972	47.367	0.255
0.6609	47.382	0.234
0.7166	47.395	0.216
0.7682	47.403	0.202
0.8097	47.408	0.192
0.8434	47.412	0.185
0.8703	47.41	0.18
0.8919	47.409	0.177
0.9095	47.413	0.175
0.9238	47.415	0.173
0.9354	47.414	0.172
0.945	47.422	0.171

System: acetone + 1-butyl-3-methylimidazolium bis(trifluoromethylsulfonyl)imide; phases: Liquid, Gas
Fixed: Temperature, K = 353.15
Property: Vapor or sublimation pressure, kPa (Liquid); method: Closed cell (Static) method
Mole fraction of acetone	Vapor or sublimation pressure, kPa	uncertainty
0.0562	4.921	0.065
0.0889	7.271	0.083
0.1459	12.824	0.126
0.1963	18.589	0.168
0.2411	24.181	0.206
0.34	36.456	0.275
0.4221	49.812	0.338
0.5043	65.445	0.397
0.5745	80.905	0.443
0.6384	96.668	0.481
0.6935	112.26	0.51
0.7407	126.6	0.54
0.7831	140.78	0.56
0.8186	153.05	0.58
0.848	163.69	0.6
0.8653	170.13	0.61
0.8721	172.53	0.62
0.8921	179.77	0.63
0.9071	185.16	0.64
0.9086	185.73	0.64
0.9223	190.54	0.65
0.9335	194.48	0.66
0.941	196.86	0.67
0.9429	197.64	0.67
0.9495	199.85	0.67
0.9548	201.6	0.68
0.9728	207	0.69
0.9895	211.93	0.71
0.9964	213.96	0.71
0.999	214.72	0.71
1	215.04	0.71

System: propan-2-ol + 1-butyl-3-methylimidazolium bis(trifluoromethylsulfonyl)imide; phases: Liquid, Gas
Fixed: Temperature, K = 353.15
Property: Vapor or sublimation pressure, kPa (Liquid); method: Closed cell (Static) method
Mole fraction of propan-2-ol	Vapor or sublimation pressure, kPa	uncertainty
0.0374	3.848	0.057
0.0744	7.246	0.084
0.1147	11.576	0.119
0.1492	15.648	0.15
0.18	19.24	0.177
0.2616	28.275	0.235
0.3396	37.424	0.283
0.4245	47.221	0.32
0.5047	56.319	0.343
0.5804	64.081	0.35
0.6437	70.28	0.35
0.6994	75.214	0.345
0.7501	79.2	0.338
0.7921	82.148	0.331
0.8272	84.292	0.324
0.8557	85.841	0.32
0.8624	86.246	0.319
0.879	86.981	0.317
0.8982	87.83	0.314
0.9051	88.122	0.313
0.9139	88.518	0.313
0.9267	89.001	0.312
0.9374	89.409	0.311
0.9398	89.442	0.311
0.9449	89.715	0.311
0.9508	89.927	0.311
0.9569	90.162	0.311
0.9721	90.603	0.311
0.9892	91.329	0.312
0.9962	91.706	0.313
0.9989	91.919	0.314
1	91.992	0.314

System: water + 1-butyl-3-methylimidazolium bis(trifluoromethylsulfonyl)imide; phases: Liquid, Gas
Fixed: Temperature, K = 353.15
Property: Vapor or sublimation pressure, kPa (Liquid); method: Closed cell (Static) method
Mole fraction of water	Vapor or sublimation pressure, kPa	uncertainty
0.049	5.317	0.068
0.0969	10.175	0.108
0.192	20.07	0.182
0.2636	26.995	0.224
0.3415	34.495	0.261
0.4577	43.678	0.285
0.5626	46.31	0.262
0.6572	46.66	0.231
0.7333	46.821	0.209
0.7932	46.94	0.194
0.8391	47.001	0.184
0.8739	47.048	0.178
0.9022	47.075	0.174
0.9229	47.091	0.172
0.9386	47.107	0.171
0.9504	47.121	0.17
0.9595	47.135	0.169
0.9666	47.145	0.169
0.9723	47.152	0.169
0.9767	47.156	0.169

System: propan-2-ol + acetone + 1-ethyl-3-methylimidazolium bis((trifluoromethyl)sulfonyl)imide; phases: Liquid, Gas
Fixed: Temperature, K = 353.15
Property: Vapor or sublimation pressure, kPa (Liquid); method: Closed cell (Static) method
Mole fraction of acetone	Mole fraction of propan-2-ol	Vapor or sublimation pressure, kPa	uncertainty
0.0074	0.0393	6.229	0.076
0.0109	0.0578	9.29	0.102
0.0145	0.0241	5.067	0.067
0.0181	0.0942	15.018	0.15
0.0188	0.0123	4.045	0.059
0.0219	0.1123	17.699	0.171
0.0268	0.137	22.242	0.206
0.0279	0.046	9.55	0.104
0.0359	0.0234	8.109	0.092
0.0368	0.0091	5.049	0.066
0.0383	0.1899	30.685	0.263
0.0422	0.0692	14.244	0.143
0.0512	0.2464	39.804	0.315
0.0517	0.0845	17.565	0.169
0.0544	0.0354	11.986	0.125
0.0609	0.0993	20.775	0.193
0.0658	0.3071	49.749	0.359
0.0687	0.017	9.501	0.103
0.0727	0.0473	16.31	0.16
0.0808	0.3661	59.583	0.391
0.0864	0.1395	29.285	0.252
0.0894	0.0581	19.811	0.187
0.0958	0.4218	68.904	0.41
0.1	0.0248	14.208	0.141
0.1102	0.4731	77.316	0.419
0.1134	0.1815	38.779	0.308
0.1236	0.5185	84.642	0.42
0.1299	0.0322	18.849	0.176
0.1351	0.0875	29.322	0.253
0.1361	0.5593	91.067	0.418
0.1438	0.228	49.532	0.358
0.1471	0.5943	96.445	0.414
0.1551	0.0385	22.917	0.205
0.1572	0.6252	101.2	0.41
0.1656	0.6507	105.14	0.407
0.1724	0.6711	108.35	0.406
0.173	0.2717	60.26	0.396
0.1783	0.6883	111.15	0.405
0.1804	0.1164	39.632	0.314
0.1832	0.7027	113.58	0.406
0.1874	0.7147	115.73	0.408
0.1909	0.7248	117.57	0.41
0.1932	0.7312	118.79	0.412
0.2017	0.3138	70.845	0.423
0.2138	0.0532	32.868	0.27
0.2281	0.1469	51.151	0.368
0.2287	0.3524	80.987	0.44
0.2533	0.3871	90.357	0.449
0.2726	0.0681	43.585	0.328
0.2766	0.1776	63.8	0.414
0.2769	0.4197	99.438	0.454
0.2971	0.4471	107.34	0.457
0.3143	0.4701	114.17	0.459
0.3198	0.2048	75.77	0.446
0.3287	0.4892	120.01	0.462
0.3324	0.0833	55.835	0.381
0.3407	0.5048	125.01	0.465
0.3508	0.5179	129.32	0.469
0.3592	0.5287	133.03	0.473
0.3597	0.2298	87.672	0.469
0.3662	0.5377	136.19	0.477
0.3721	0.5452	138.95	0.482
0.376	0.55	140.72	0.485
0.3791	0.5539	142.21	0.488
0.3888	0.0977	68.395	0.425
0.3955	0.252	98.957	0.486
0.4294	0.273	110.22	0.498
0.4411	0.1113	81.366	0.46
0.4581	0.2906	120.25	0.507
0.4825	0.3055	129.05	0.515
0.487	0.1233	93.745	0.487
0.5028	0.3179	136.6	0.522
0.5198	0.3282	143.06	0.528
0.5288	0.1343	105.89	0.507
0.534	0.3367	148.55	0.535
0.5458	0.3438	153.19	0.542
0.5556	0.3497	157.06	0.548
0.5639	0.3546	160.35	0.553
0.5689	0.1449	118.39	0.525
0.5692	0.3578	162.42	0.557
0.5735	0.3604	164.15	0.56
0.603	0.1541	129.72	0.54
0.6322	0.162	139.86	0.552
0.6566	0.1687	148.61	0.563
0.677	0.1743	156.13	0.573
0.6941	0.1791	162.42	0.582
0.7084	0.1831	167.68	0.59
0.7203	0.1864	172.06	0.598
0.7304	0.1893	175.72	0.604
0.7368	0.1911	178.19	0.609

System: propan-2-ol + water + 1-ethyl-3-methylimidazolium bis((trifluoromethyl)sulfonyl)imide; phases: Liquid, Gas
Fixed: Temperature, K = 353.15
Property: Vapor or sublimation pressure, kPa (Liquid); method: Closed cell (Static) method
Mole fraction of propan-2-ol	Mole fraction of water	Vapor or sublimation pressure, kPa	uncertainty
0.0069	0.0369	4.58	0.062
0.0132	0.0701	8.882	0.097
0.0175	0.0281	6.141	0.075
0.0211	0.1096	13.762	0.136
0.0212	0.0147	4.354	0.061
0.0286	0.1465	18.352	0.17
0.03	0.048	10.51	0.112
0.038	0.0263	7.753	0.089
0.0403	0.2022	25.565	0.217
0.0434	0.0099	6.567	0.079
0.0467	0.0742	16.164	0.159
0.057	0.2778	35.015	0.266
0.0593	0.041	12.138	0.125
0.0622	0.0981	21.245	0.198
0.0714	0.0163	10.895	0.115
0.0757	0.3564	44.441	0.299
0.0774	0.0534	15.843	0.155
0.0876	0.137	29.208	0.252
0.0959	0.4369	53.071	0.311
0.0975	0.0672	20.026	0.186
0.0987	0.0226	15.184	0.15
0.1141	0.5051	59.368	0.308
0.1236	0.1906	39.408	0.306
0.1282	0.0295	19.801	0.185
0.1301	0.5631	64.075	0.298
0.1434	0.6102	67.509	0.288
0.1475	0.1015	30.392	0.255
0.1517	0.035	23.477	0.212
0.1542	0.6476	70.223	0.281
0.1593	0.2425	48.642	0.339
0.1634	0.6795	72.753	0.277
0.1705	0.7036	74.854	0.276
0.1759	0.722	76.736	0.276
0.1801	0.7363	78.427	0.278
0.1835	0.7477	79.943	0.281
0.1862	0.7566	81.356	0.284
0.1884	0.7638	82.621	0.287
0.1901	0.7696	83.748	0.29
0.1915	0.7743	84.774	0.292
0.1926	0.7779	85.642	0.295
0.1934	0.7807	86.343	0.297
0.1966	0.2956	57.039	0.353
0.199	0.1365	40.753	0.309
0.2088	0.0485	32.276	0.268
0.2304	0.3428	63.376	0.35
0.2529	0.1731	51.355	0.347
0.2605	0.3843	68.406	0.34
0.2672	0.0625	41.325	0.315
0.2863	0.4195	72.369	0.329
0.3023	0.2064	60.463	0.365
0.3079	0.4487	75.501	0.32
0.3263	0.4735	78.132	0.312
0.3307	0.078	50.989	0.352
0.3413	0.4936	80.304	0.307
0.3474	0.2366	68.191	0.37
0.3536	0.5099	82.249	0.305
0.3634	0.523	83.959	0.304
0.3714	0.5337	85.524	0.305
0.3779	0.5424	86.936	0.306
0.3833	0.5494	88.237	0.308
0.3857	0.2622	74.171	0.367
0.3877	0.5552	89.444	0.311
0.3913	0.56	90.451	0.313
0.3922	0.0933	59.61	0.372
0.3941	0.5637	91.355	0.315
0.396	0.5668	92.107	0.317
0.4182	0.2838	78.87	0.36
0.4487	0.3041	82.915	0.352
0.4491	0.1076	67.309	0.38
0.4737	0.3207	85.986	0.344
0.4947	0.3346	88.387	0.339
0.4977	0.1201	73.333	0.379
0.5117	0.3458	90.25	0.335
0.5256	0.355	91.728	0.333
0.537	0.3625	92.911	0.331
0.5415	0.1314	78.25	0.372
0.5464	0.3687	93.884	0.331
0.554	0.3737	94.685	0.331
0.5604	0.3779	95.362	0.331
0.5635	0.38	95.694	0.331
0.5656	0.3822	95.984	0.331
0.5846	0.1427	82.615	0.363
0.6186	0.1516	85.696	0.354
0.6475	0.1592	88.084	0.347
0.6715	0.1656	89.912	0.341
0.6914	0.1709	91.343	0.337
0.7079	0.1753	92.474	0.334
0.7217	0.179	93.405	0.333
0.733	0.182	94.164	0.332
0.7425	0.1846	94.794	0.331
0.7486	0.1862	95.212	0.331
0.7528	0.1883	95.558	0.331

System: propan-2-ol + acetone + 1-butyl-3-methylimidazolium bis(trifluoromethylsulfonyl)imide; phases: Liquid, Gas
Fixed: Temperature, K = 353.15
Property: Vapor or sublimation pressure, kPa (Liquid); method: Closed cell (Static) method
Mole fraction of acetone	Mole fraction of propan-2-ol	Vapor or sublimation pressure, kPa	uncertainty
0.004	0.025	2.907	0.05
0.0076	0.0472	5.48	0.069
0.0118	0.073	8.572	0.094
0.0132	0.0234	3.68	0.056
0.016	0.098	11.538	0.118
0.0235	0.1408	16.802	0.158
0.0282	0.0191	4.576	0.062
0.0345	0.0607	9.329	0.1
0.0354	0.2078	26.214	0.222
0.0486	0.2762	36.198	0.278
0.0525	0.0116	5.741	0.071
0.0545	0.0957	15.154	0.146
0.0573	0.0387	8.988	0.097
0.0645	0.3512	47.534	0.326
0.0723	0.1263	20.568	0.185
0.0781	0.0173	8.714	0.095
0.0796	0.4173	58.19	0.357
0.0811	0.0547	13.138	0.13
0.0883	0.1538	25.835	0.22
0.0949	0.4785	68.218	0.376
0.1035	0.0698	17.18	0.16
0.1094	0.5324	77.194	0.384
0.1179	0.2036	35.916	0.277
0.1223	0.5775	84.775	0.387
0.1237	0.0834	21.032	0.187
0.1251	0.0277	14.463	0.14
0.1342	0.6171	91.444	0.387
0.1443	0.6489	96.882	0.387
0.1475	0.2524	46.347	0.324
0.1528	0.675	101.4	0.387
0.1598	0.6961	105.17	0.389
0.1651	0.0367	19.836	0.178
0.1657	0.7134	108.36	0.391
0.1706	0.7274	111.08	0.394
0.1747	0.739	113.41	0.397
0.1768	0.2989	57.229	0.362
0.1786	0.7498	115.75	0.401
0.1787	0.1201	32.259	0.256
0.1819	0.7587	117.78	0.405
0.1845	0.7659	119.51	0.409
0.2018	0.0449	25.179	0.213
0.2042	0.3415	67.783	0.388
0.2289	0.1535	44.021	0.315
0.2304	0.381	78.24	0.407
0.254	0.4156	87.862	0.419
0.2732	0.0609	36.918	0.281
0.2749	0.4455	96.629	0.427
0.2791	0.1866	56.865	0.364
0.2946	0.4729	105.1	0.433
0.3109	0.4952	112.29	0.439
0.3247	0.5135	118.5	0.445
0.3248	0.2165	69.867	0.402
0.3359	0.5284	123.82	0.451
0.3408	0.0763	49.453	0.338
0.3451	0.5402	128.25	0.457
0.3527	0.55	132.13	0.464
0.3591	0.5581	135.43	0.47
0.3644	0.5648	138.25	0.476
0.3662	0.2433	82.615	0.43
0.3689	0.5703	140.69	0.481
0.3729	0.5753	142.95	0.486
0.3747	0.5803	144.68	0.491
0.4023	0.2665	94.781	0.452
0.4054	0.0912	63.391	0.389
0.4338	0.2866	106.25	0.468
0.4626	0.3047	117.3	0.483
0.4635	0.1048	77.622	0.429
0.4864	0.3196	126.96	0.495
0.5062	0.3319	135.29	0.506
0.5147	0.117	91.929	0.463
0.5224	0.3418	142.26	0.516
0.5357	0.35	148.11	0.526
0.5467	0.3567	153.01	0.535
0.5558	0.3622	157.08	0.542
0.5591	0.1278	105.58	0.489
0.5633	0.3667	160.44	0.549
0.5695	0.3704	163.25	0.556
0.5751	0.3738	165.82	0.562
0.5771	0.3765	168.07	0.568
0.5971	0.1371	118.38	0.51
0.632	0.1459	130.96	0.53
0.6608	0.1532	141.92	0.546
0.6847	0.1594	151.37	0.561
0.7043	0.1646	159.28	0.574
0.7204	0.1689	165.82	0.585
0.7337	0.1724	171.22	0.595
0.7448	0.1754	175.65	0.604
0.7538	0.1779	179.25	0.611
0.7614	0.18	182.24	0.618
0.7668	0.1814	184.35	0.623
0.7696	0.184	185.94	0.627

System: propan-2-ol + water + 1-butyl-3-methylimidazolium bis(trifluoromethylsulfonyl)imide; phases: Liquid, Gas
Fixed: Temperature, K = 353.15
Property: Vapor or sublimation pressure, kPa (Liquid); method: Closed cell (Static) method
Mole fraction of propan-2-ol	Mole fraction of water	Vapor or sublimation pressure, kPa	uncertainty
0.0077	0.0412	5.095	0.066
0.0137	0.0737	9.462	0.102
0.0173	0.0289	4.752	0.064
0.022	0.1153	14.699	0.144
0.0279	0.0199	4.938	0.065
0.0329	0.055	9.23	0.1
0.0371	0.1863	23.609	0.205
0.0475	0.0103	5.577	0.07
0.0496	0.0822	13.538	0.134
0.0502	0.2442	30.972	0.247
0.0517	0.0367	9.163	0.099
0.0654	0.1079	18.04	0.168
0.0754	0.3468	43.816	0.298
0.0799	0.0567	14.395	0.141
0.0854	0.0186	10.449	0.11
0.0915	0.1498	25.641	0.218
0.0991	0.4343	53.823	0.315
0.1138	0.0807	21.142	0.19
0.1215	0.5108	61.157	0.311
0.1254	0.0274	15.636	0.15
0.1354	0.2185	38.288	0.284
0.1399	0.5697	65.593	0.298
0.1497	0.106	28.383	0.237
0.1546	0.6158	69.142	0.288
0.1661	0.6515	72.197	0.283
0.1731	0.038	21.978	0.194
0.1747	0.6777	74.636	0.281
0.1777	0.2824	49.839	0.322
0.1822	0.7002	76.899	0.281
0.1879	0.7173	78.61	0.281
0.1926	0.731	79.928	0.282
0.1961	0.7414	80.88	0.283
0.1969	0.139	37.6	0.285
0.1989	0.7495	82.148	0.286
0.2011	0.756	83.341	0.289
0.2029	0.7612	84.425	0.291
0.2044	0.7654	85.407	0.294
0.2055	0.7688	86.314	0.297
0.2066	0.7718	87.209	0.299
0.2087	0.046	27.002	0.226
0.2185	0.3419	59.929	0.337
0.2462	0.1732	46.994	0.321
0.2529	0.3906	67.562	0.337
0.2657	0.0589	35.402	0.272
0.2815	0.4303	73.158	0.33
0.298	0.209	56.855	0.345
0.3049	0.4622	77.342	0.322
0.3228	0.4864	80.393	0.317
0.326	0.0729	44.376	0.311
0.3386	0.5076	83.028	0.313
0.3471	0.2425	65.607	0.354
0.3509	0.5239	85.122	0.311
0.3607	0.537	86.851	0.311
0.3685	0.5473	88.297	0.312
0.3748	0.5555	89.505	0.313
0.3798	0.5621	90.53	0.314
0.3838	0.5674	91.405	0.316
0.3871	0.5717	92.145	0.317
0.3881	0.2704	72.393	0.353
0.3898	0.5752	92.811	0.319
0.391	0.0883	53.748	0.339
0.3925	0.5787	93.803	0.321
0.3942	0.5814	94.34	0.323
0.4221	0.2934	77.605	0.348
0.4512	0.103	62.252	0.353
0.4513	0.3131	81.8	0.342
0.4775	0.3307	85.343	0.336
0.4985	0.3447	88.04	0.332
0.5064	0.1168	69.588	0.357
0.5154	0.3561	90.14	0.33
0.5289	0.3651	91.774	0.329
0.5397	0.3723	93.072	0.329
0.5484	0.3781	94.121	0.329
0.5552	0.129	75.68	0.355
0.5555	0.3828	94.977	0.33
0.5612	0.3866	95.672	0.33
0.5659	0.3897	96.269	0.331
0.5701	0.3925	96.776	0.332
0.594	0.139	80.173	0.35
0.6307	0.1485	84.07	0.344
0.6608	0.1564	87.035	0.339
0.6855	0.1629	89.227	0.335
0.7055	0.1683	90.952	0.332
0.7218	0.1726	92.299	0.33
0.7351	0.1762	93.352	0.33
0.746	0.1791	94.212	0.33
0.7549	0.1814	94.903	0.33
0.7623	0.1834	95.465	0.33
0.7689	0.1852	96.028	0.331
