Measured thermophysical data. Isobaric vapor-liquid equilibrium for ternary mixtures of acetone + methanol + ionic liquids at 101.3kPa
Source: Fluid Phase Equilib., 2017, 10.1016/j.fluid.2017.03.014
Compound 1: acetone, C3H6O, InChI=1S/C3H6O/c1-3(2)4/h1-2H3, purity 99.5%
Compound 2: methanol, CH4O, InChI=1S/CH4O/c1-2/h2H,1H3, purity 99.5%
Compound 3: 1-methylimidazolium acetate, C6H10N2O2, InChI=1S/C4H6N2.C2H4O2/c1-6-3-2-5-4-6;1-2(3)4/h2-4H,1H3;1H3,(H,3,4), purity 99%
Compound 4: 1-methyl-1H-imidazol-3-ium propionate, C7H12N2O2, InChI=1S/C4H6N2.C3H6O2/c1-6-3-2-5-4-6;1-2-3(4)5/h2-4H,1H3;2H2,1H3,(H,4,5), purity 99%
Compound 5: 1-methyl-1H-imidazol-3-ium 2-hydroxypropanoate, C7H12N2O3, InChI=1S/C4H6N2.C3H6O3/c1-6-3-2-5-4-6;1-2(4)3(5)6/h2-4H,1H3;2,4H,1H3,(H,5,6), purity 99%

System: methanol + acetone; phases: Liquid, Gas
Fixed: Pressure, kPa = 101.3
Property: Boiling temperature at pressure P, K (Liquid); method: Ebulliometric method (Recirculating still)
Mole fraction of acetone	Boiling temperature at pressure P, K	uncertainty
0	337.45	0.09
0.055	335.55	0.11
0.102	334.5	0.1
0.145	333.2	0.1
0.209	332.15	0.09
0.256	331.5	0.1
0.298	330.85	0.09
0.346	330.28	0.09
0.405	329.85	0.09
0.45	329.4	0.1
0.502	329.05	0.09
0.55	328.75	0.09
0.603	328.55	0.09
0.655	328.3	0.1
0.698	328.15	0.09
0.746	328.15	0.09
0.802	328.15	0.09
0.849	328.2	0.1
0.9	328.3	0.1
0.948	328.6	0.1
1	329	1

System: methanol + acetone; phases: Gas, Liquid
Fixed: Pressure, kPa = 101.3
Property: Mole fraction of acetone (Gas); method: Chromatography
Mole fraction of acetone	Mole fraction of acetone	uncertainty
0	0	
0.055	0.116	0.004
0.102	0.193	0.004
0.145	0.258	0.004
0.209	0.34	0.01
0.256	0.389	0.005
0.298	0.43	0.01
0.346	0.465	0.005
0.405	0.512	0.005
0.45	0.542	0.005
0.502	0.597	0.005
0.55	0.615	0.004
0.603	0.648	0.004
0.655	0.69	0.01
0.698	0.72	0.01
0.746	0.751	0.004
0.802	0.797	0.003
0.849	0.835	0.003
0.9	0.888	0.003
0.948	0.935	0.003
1	1	

System: methanol + acetone + 1-methylimidazolium acetate; phases: Liquid, Gas
Fixed: Pressure, kPa = 101.3
Property: Mole fraction of 1-methylimidazolium acetate (Liquid); method: Chromatography
Property: Mole fraction of 1-methylimidazolium acetate (Gas); method: Chromatography
Property: Mole fraction of acetone (Gas); method: Chromatography
Temperature, K	Solvent: Mole fraction of acetone	Mole fraction of 1-methylimidazolium acetate	uncertainty	Mole fraction of 1-methylimidazolium acetate	uncertainty	Mole fraction of acetone	uncertainty
337.84	0.054	0.061	0.002	0		0.129	
336.34	0.106	0.059	0.002	0		0.226	
335.03	0.161	0.058	0.002	0		0.311	
334.07	0.21	0.062	0.002	0		0.374	
333.12	0.261	0.057	0.002	0		0.431	
332.49	0.314	0.061	0.002	0		0.482	
331.77	0.376	0.062	0.002	0		0.536	
331.39	0.427	0.06	0.002	0		0.574	
331.02	0.485	0.061	0.002	0		0.616	
330.73	0.537	0.062	0.002	0		0.651	
330.5	0.59	0.059	0.002	0		0.686	
330.31	0.639	0.06	0.002	0		0.72	
330.25	0.689	0.062	0.002	0		0.754	
330.19	0.754	0.068	0.002	0		0.792	
330.22	0.8	0.061	0.002	0		0.831	
330.41	0.859	0.062	0.002	0		0.873	
330.94	0.953	0.059	0.002	0		0.955	
338.71	0.056	0.082	0.002	0		0.134	
337.14	0.108	0.078	0.002	0		0.236	
335.69	0.165	0.081	0.002	0		0.325	
334.73	0.214	0.08	0.002	0		0.387	
333.79	0.267	0.079	0.002	0		0.446	
333.11	0.321	0.082	0.002	0		0.499	
332.46	0.384	0.081	0.002	0		0.554	
331.99	0.437	0.082	0.002	0		0.596	
331.58	0.496	0.083	0.002	0		0.635	
331.34	0.547	0.079	0.002	0		0.671	
331.16	0.604	0.081	0.002	0		0.708	
331.04	0.655	0.082	0.002	0		0.743	
330.93	0.704	0.083	0.002	0		0.773	
330.93	0.765	0.081	0.002	0		0.815	
331.01	0.816	0.08	0.002	0		0.851	
331.21	0.875	0.079	0.002	0		0.894	
331.72	0.976	0.081	0.002	0		0.977	
339.58	0.057	0.098	0.002	0		0.141	
337.77	0.111	0.101	0.002	0		0.247	
336.26	0.169	0.102	0.002	0		0.338	
335.12	0.218	0.097	0.002	0		0.405	
334.16	0.274	0.102	0.002	0		0.464	
333.45	0.328	0.101	0.002	0		0.517	
332.83	0.392	0.099	0.002	0		0.571	
332.49	0.445	0.098	0.002	0		0.612	
332.08	0.506	0.101	0.002	0		0.655	
331.8	0.559	0.099	0.002	0		0.691	
331.59	0.618	0.102	0.002	0		0.729	
331.54	0.667	0.099	0.002	0		0.76	
331.51	0.719	0.102	0.002	0		0.794	
331.53	0.782	0.101	0.002	0		0.836	
331.71	0.838	0.104	0.002	0		0.872	
332.07	0.895	0.099	0.002	0		0.915	
332.74	0.999	0.102	0.002	0		0.999	

System: methanol + acetone + 1-methyl-1H-imidazol-3-ium 2-hydroxypropanoate; phases: Liquid, Gas
Fixed: Pressure, kPa = 101.3
Property: Mole fraction of 1-methyl-1H-imidazol-3-ium 2-hydroxypropanoate (Liquid); method: Chromatography
Property: Mole fraction of 1-methyl-1H-imidazol-3-ium 2-hydroxypropanoate (Gas); method: Chromatography
Property: Mole fraction of acetone (Gas); method: Chromatography
Temperature, K	Solvent: Mole fraction of acetone	Mole fraction of 1-methyl-1H-imidazol-3-ium 2-hydroxypropanoate	uncertainty	Mole fraction of 1-methyl-1H-imidazol-3-ium 2-hydroxypropanoate	uncertainty	Mole fraction of acetone	uncertainty
337.79	0.054	0.061	0.002	0		0.131	
336.28	0.106	0.059	0.002	0		0.228	
334.89	0.161	0.058	0.002	0		0.313	
333.93	0.21	0.062	0.002	0		0.372	
333.13	0.261	0.059	0.002	0		0.432	
332.36	0.314	0.061	0.002	0		0.483	
331.72	0.376	0.062	0.002	0		0.537	
331.39	0.425	0.057	0.002	0		0.574	
330.89	0.485	0.061	0.002	0		0.617	
330.63	0.535	0.058	0.002	0		0.649	
330.48	0.59	0.059	0.002	0		0.685	
330.34	0.64	0.061	0.002	0		0.718	
330.21	0.689	0.062	0.002	0		0.752	
330.2	0.75	0.063	0.002	0		0.791	
330.28	0.8	0.061	0.002	0		0.828	
330.47	0.859	0.062	0.002	0		0.871	
331.02	0.955	0.061	0.002	0		0.954	
338.67	0.055	0.078	0.002	0		0.136	
336.89	0.109	0.08	0.002	0		0.24	
335.53	0.165	0.081	0.002	0		0.328	
334.48	0.215	0.083	0.002	0		0.391	
333.73	0.267	0.079	0.002	0		0.451	
333	0.321	0.082	0.002	0		0.501	
332.39	0.384	0.081	0.002	0		0.555	
331.93	0.437	0.082	0.002	0		0.596	
331.49	0.493	0.078	0.002	0		0.636	
331.25	0.547	0.079	0.002	0		0.67	
331.09	0.604	0.081	0.002	0		0.707	
330.91	0.655	0.082	0.002	0		0.74	
330.9	0.702	0.08	0.002	0		0.771	
330.85	0.765	0.081	0.002	0		0.813	
330.93	0.816	0.08	0.002	0		0.849	
331.1	0.875	0.079	0.002	0		0.892	
331.7	0.976	0.081	0.002	0		0.976	
339.39	0.057	0.098	0.002	0		0.144	
337.78	0.111	0.101	0.002	0		0.251	
336.27	0.169	0.103	0.002	0		0.342	
335.15	0.219	0.102	0.002	0		0.409	
334.22	0.272	0.097	0.002	0		0.467	
333.53	0.328	0.101	0.002	0		0.521	
332.86	0.393	0.102	0.002	0		0.574	
332.39	0.445	0.099	0.002	0		0.612	
332.05	0.506	0.101	0.002	0		0.655	
331.84	0.559	0.099	0.002	0		0.687	
331.64	0.617	0.101	0.002	0		0.728	
331.47	0.667	0.099	0.002	0		0.762	
331.42	0.719	0.102	0.002	0		0.791	
331.48	0.782	0.101	0.002	0		0.834	
331.52	0.834	0.1	0.002	0		0.87	
331.61	0.895	0.099	0.002	0		0.913	
331.9	0.999	0.102	0.002	0		0.999	

System: methanol + acetone + 1-methyl-1H-imidazol-3-ium propionate; phases: Liquid, Gas
Fixed: Pressure, kPa = 101.3
Property: Mole fraction of 1-methyl-1H-imidazol-3-ium propionate (Liquid); method: Chromatography
Property: Mole fraction of 1-methyl-1H-imidazol-3-ium propionate (Gas); method: Chromatography
Property: Mole fraction of acetone (Gas); method: Chromatography
Temperature, K	Solvent: Mole fraction of acetone	Mole fraction of 1-methyl-1H-imidazol-3-ium propionate	uncertainty	Mole fraction of 1-methyl-1H-imidazol-3-ium propionate	uncertainty	Mole fraction of acetone	uncertainty
337.69	0.054	0.061	0.002	0		0.126	
336.15	0.109	0.059	0.002	0		0.227	
334.79	0.162	0.061	0.002	0		0.305	
333.89	0.21	0.062	0.002	0		0.367	
333.12	0.263	0.063	0.002	0		0.423	
332.39	0.314	0.061	0.002	0		0.473	
331.73	0.376	0.062	0.002	0		0.527	
331.32	0.427	0.058	0.002	0		0.565	
330.9	0.486	0.061	0.002	0		0.607	
330.66	0.536	0.057	0.002	0		0.642	
330.38	0.59	0.059	0.002	0		0.676	
330.19	0.638	0.057	0.002	0		0.71	
330.09	0.691	0.062	0.002	0		0.745	
330.01	0.747	0.059	0.002	0		0.783	
330.04	0.801	0.061	0.002	0		0.822	
330.24	0.854	0.056	0.002	0		0.866	
331.01	0.958	0.064	0.002	0		0.952	
338.25	0.055	0.077	0.002	0		0.131	
336.59	0.112	0.08	0.002	0		0.237	
335.43	0.165	0.081	0.002	0		0.318	
334.49	0.214	0.078	0.002	0		0.38	
333.58	0.267	0.079	0.002	0		0.436	
332.95	0.322	0.083	0.002	0		0.488	
332.28	0.384	0.081	0.002	0		0.543	
331.87	0.438	0.082	0.002	0		0.584	
331.48	0.497	0.083	0.002	0		0.624	
331.24	0.548	0.079	0.002	0		0.659	
331.04	0.602	0.078	0.002	0		0.696	
330.97	0.656	0.082	0.002	0		0.732	
330.84	0.707	0.084	0.002	0		0.763	
330.92	0.765	0.081	0.002	0		0.805	
331.04	0.819	0.082	0.002	0		0.842	
331.31	0.875	0.079	0.002	0		0.888	
332.02	0.975	0.08	0.002	0		0.975	
339	0.057	0.098	0.002	0		0.137	
337.39	0.115	0.101	0.002	0		0.247	
336.01	0.169	0.103	0.002	0		0.331	
334.93	0.219	0.102	0.002	0		0.395	
334.13	0.272	0.097	0.002	0		0.453	
333.43	0.328	0.101	0.002	0		0.506	
332.73	0.394	0.103	0.002	0		0.559	
332.38	0.446	0.099	0.002	0		0.599	
331.99	0.509	0.104	0.002	0		0.643	
331.62	0.56	0.099	0.002	0		0.678	
331.45	0.614	0.096	0.002	0		0.715	
331.32	0.668	0.099	0.002	0		0.748	
331.23	0.716	0.095	0.002	0		0.783	
331.25	0.782	0.101	0.002	0		0.825	
331.31	0.836	0.1	0.002	0		0.863	
331.52	0.895	0.099	0.002	0		0.908	
332.06	0.999	0.102	0.002	0		0.999	
