Measured thermophysical data. Isothermal vapour-liquid equilibrium for cyclic ethers with 1-chloropentane
Source: Fluid Phase Equilib., 2007, 10.1016/j.fluid.2006.10.024
Compound 1: tetrahydrofuran, C4H8O, InChI=1S/C4H8O/c1-2-4-5-3-1/h1-4H2, purity 99.5%
Compound 2: 1,3-dioxolane, C3H6O2, InChI=1S/C3H6O2/c1-2-5-3-4-1/h1-3H2, purity 99%
Compound 3: 1,4-dioxane, C4H8O2, InChI=1S/C4H8O2/c1-2-6-4-3-5-1/h1-4H2, purity 99%
Compound 4: 1-chloropentane, C5H11Cl, InChI=1S/C5H11Cl/c1-2-3-4-5-6/h2-5H2,1H3, purity 99%
Compound 5: tetrahydropyran, C5H10O, InChI=1S/C5H10O/c1-2-4-6-5-3-1/h1-5H2, purity 99%

System: tetrahydrofuran; phases: Liquid, Gas
Property: Vapor or sublimation pressure, kPa (Liquid); method: EBULLIO:UFactor:2
Temperature, K	Vapor or sublimation pressure, kPa	uncertainty
298.15	21.61	0.247
313.15	40.615	0.396
328.15	70.615	0.63

System: tetrahydrofuran; phases: Liquid
Fixed: Pressure, kPa = 101.325
Property: Mass density, kg/m3 (Liquid); method: VIBTUB:UFactor:4
Temperature, K	Mass density, kg/m3	uncertainty
298.15	881.95	0.45
313.15	865.36	0.49
328.15	848.68	0.52

System: 1,3-dioxolane; phases: Liquid, Gas
Property: Vapor or sublimation pressure, kPa (Liquid); method: EBULLIO::UFactor:2
Temperature, K	Vapor or sublimation pressure, kPa	uncertainty
298.15	13.535	0.185
313.15	26.83	0.291
328.15	49.01	0.468

System: 1,3-dioxolane; phases: Liquid
Fixed: Pressure, kPa = 101.325
Property: Mass density, kg/m3 (Liquid); method: VIBTUB:UFactor:8
Temperature, K	Mass density, kg/m3	uncertainty
298.15	1058.62	0.85
313.15	1039.88	0.76
328.15	1020.86	0.67

System: 1,4-dioxane; phases: Liquid, Gas
Property: Vapor or sublimation pressure, kPa (Liquid); method: EBULLIO::UFactor:2
Temperature, K	Vapor or sublimation pressure, kPa	uncertainty
298.15	4.9	0.116
313.15	10.17	0.158
328.15	19.54	0.232

System: 1,4-dioxane; phases: Liquid
Fixed: Pressure, kPa = 101.325
Property: Mass density, kg/m3 (Liquid); method: VIBTUB:UFactor:8
Temperature, K	Mass density, kg/m3	uncertainty
298.15	1027.87	0.71
313.15	1010.69	0.63
328.15	993.75	0.6

System: 1-chloropentane; phases: Liquid, Gas
Property: Vapor or sublimation pressure, kPa (Liquid); method: EBULLIO:UFactor:2
Temperature, K	Vapor or sublimation pressure, kPa	uncertainty
298.15	4.055	0.109
313.15	8.45	0.144
328.15	16.4	0.207

System: 1-chloropentane; phases: Liquid
Fixed: Pressure, kPa = 101.325
Property: Mass density, kg/m3 (Liquid); method: VIBTUB:UFactor:8
Temperature, K	Mass density, kg/m3	uncertainty
298.15	877	1.02
313.15	861.52	1.08
328.15	846.33	1.14

System: tetrahydropyran; phases: Liquid, Gas
Property: Vapor or sublimation pressure, kPa (Liquid); method: EBULLIO:UFactor:2
Temperature, K	Vapor or sublimation pressure, kPa	uncertainty
298.15	9.56	0.153
313.15	18.66	0.226
328.15	33.945	0.348

System: tetrahydropyran; phases: Liquid
Fixed: Pressure, kPa = 101.325
Property: Mass density, kg/m3 (Liquid); method: VIBTUB:UFactor:8
Temperature, K	Mass density, kg/m3	uncertainty
298.15	878.81	1.02
313.15	863.67	1.07
328.15	848.29	1.13

System: tetrahydrofuran + 1-chloropentane; phases: Liquid, Gas
Property: Vapor or sublimation pressure, kPa (Liquid); method: EBULLIO:UFactor:2
Mole fraction of tetrahydrofuran	Temperature, K	Vapor or sublimation pressure, kPa	uncertainty
0	298.15	4.055	0.109
0	313.15	8.45	0.144
0	328.15	16.4	0.207
0.0765	313.15	10.03	0.158
0.0765	328.15	19.12	0.231
0.08	298.15	5	0.117
0.1381	298.15	5.665	0.122
0.145	313.15	11.615	0.17
0.1479	328.15	21.91	0.253
0.21	298.15	6.615	0.13
0.2101	313.15	13.245	0.183
0.2101	328.15	24.47	0.273
0.2745	328.15	27.38	0.296
0.2813	313.15	15.17	0.198
0.2903	298.15	7.75	0.139
0.3645	328.15	31.6	0.329
0.3762	313.15	17.85	0.22
0.3915	298.15	9.325	0.151
0.4418	328.15	35.705	0.362
0.4468	313.15	20.14	0.238
0.4644	298.15	10.605	0.162
0.52	313.15	22.515	0.256
0.52	328.15	40.065	0.396
0.5201	298.15	11.59	0.169
0.5724	328.15	43.15	0.42
0.5798	313.15	24.595	0.272
0.6042	298.15	13.225	0.182
0.6686	328.15	49.115	0.466
0.6727	313.15	28.01	0.299
0.7099	298.15	15.39	0.199
0.7943	313.15	32.72	0.336
0.7955	298.15	17.26	0.214
0.7962	328.15	57.37	0.53
0.8665	328.15	62.095	0.566
0.87	298.15	18.87	0.226
0.8711	313.15	35.745	0.359
0.9687	313.15	39.495	0.389
0.9696	298.15	20.92	0.242
0.97	328.15	68.68	0.617
1	298.15	21.61	0.247
1	313.15	40.615	0.396
1	328.15	70.615	0.63

System: tetrahydrofuran + 1-chloropentane; phases: Gas, Liquid
Property: Mole fraction of tetrahydrofuran (Gas); method: Density calibration data
Mole fraction of tetrahydrofuran	Temperature, K	Mole fraction of tetrahydrofuran	uncertainty
0	298.15	0	0.0001
0	313.15	0	0.0001
0	328.15	0	0.0001
0.0765	313.15	0.2268	0.0102
0.0765	328.15	0.2089	0.0102
0.08	298.15	0.2422	0.0103
0.1381	298.15	0.3857	0.0103
0.145	313.15	0.3727	0.0103
0.1479	328.15	0.363	0.0102
0.21	298.15	0.5227	0.0104
0.2101	313.15	0.5001	0.0104
0.2101	328.15	0.4759	0.0104
0.2745	328.15	0.5713	0.0104
0.2813	313.15	0.6087	0.0103
0.2903	298.15	0.6362	0.0103
0.3645	328.15	0.6863	0.0102
0.3762	313.15	0.7116	0.0102
0.3915	298.15	0.7554	0.0102
0.4418	328.15	0.7534	0.0102
0.4468	313.15	0.7825	0.0101
0.4644	298.15	0.811	0.0101
0.52	313.15	0.8346	0.0101
0.52	328.15	0.8198	0.0101
0.5201	298.15	0.8479	0.0101
0.5724	328.15	0.852	0.0101
0.5798	313.15	0.8705	0.0101
0.6042	298.15	0.9007	0.01
0.6686	328.15	0.9056	0.01
0.6727	313.15	0.9195	0.01
0.7099	298.15	0.9372	0.01
0.7943	313.15	0.9516	0.01
0.7955	298.15	0.9593	0.01
0.7962	328.15	0.9525	0.01
0.8665	328.15	0.9715	0.01
0.87	298.15	0.9854	0.01
0.8711	313.15	0.9749	0.01
0.9687	313.15	0.9948	0.0052
0.9696	298.15	0.995	0.005
0.97	328.15	0.9942	0.0058
1	298.15	1	0.0001
1	313.15	1	0.0001
1	328.15	1	0.0001

System: tetrahydropyran + 1-chloropentane; phases: Liquid, Gas
Property: Vapor or sublimation pressure, kPa (Liquid); method: EBULLIO:UFactor:2
Mole fraction of tetrahydropyran	Temperature, K	Vapor or sublimation pressure, kPa	uncertainty
0	298.15	4.055	0.109
0	313.15	8.45	0.144
0	328.15	16.4	0.207
0.0597	298.15	4.315	0.111
0.0601	313.15	8.97	0.148
0.0602	328.15	17.245	0.214
0.128	328.15	18.255	0.223
0.131	313.15	9.645	0.154
0.1349	298.15	4.67	0.114
0.2101	298.15	5.04	0.117
0.2101	313.15	10.335	0.159
0.2102	328.15	19.475	0.232
0.2731	313.15	10.925	0.164
0.2735	328.15	20.5	0.24
0.2737	298.15	5.36	0.12
0.3986	328.15	22.63	0.257
0.4007	298.15	6.045	0.125
0.4182	313.15	12.42	0.176
0.5347	328.15	24.81	0.275
0.5396	313.15	13.7	0.186
0.5452	298.15	6.96	0.133
0.6095	298.15	7.245	0.135
0.6101	328.15	26.42	0.288
0.6102	313.15	14.365	0.191
0.6734	328.15	27.58	0.297
0.6818	313.15	15.045	0.197
0.6834	298.15	7.59	0.138
0.747	328.15	29.095	0.309
0.7483	313.15	15.86	0.203
0.7501	298.15	8.095	0.142
0.8625	328.15	31.315	0.327
0.8667	313.15	17.095	0.213
0.8683	298.15	8.745	0.147
0.9413	298.15	9.225	0.151
0.9449	328.15	33.165	0.342
0.9471	313.15	18.08	0.221
1	298.15	9.56	0.153
1	313.15	18.66	0.226
1	328.15	33.945	0.348

System: tetrahydropyran + 1-chloropentane; phases: Gas, Liquid
Property: Mole fraction of tetrahydropyran (Gas); method: Density calibration data
Mole fraction of tetrahydropyran	Temperature, K	Mole fraction of tetrahydropyran	uncertainty
0	298.15	0	0.0001
0	313.15	0	0.0001
0	328.15	0	0.0001
0.0597	298.15	0.1174	0.0101
0.0601	313.15	0.1144	0.0101
0.0602	328.15	0.1051	0.0101
0.128	328.15	0.2209	0.0101
0.131	313.15	0.2296	0.0101
0.1349	298.15	0.2396	0.0101
0.2101	298.15	0.3667	0.0102
0.2101	313.15	0.3547	0.0102
0.2102	328.15	0.3352	0.0102
0.2731	313.15	0.4476	0.0104
0.2735	328.15	0.417	0.0103
0.2737	298.15	0.437	0.0104
0.3986	328.15	0.5709	0.0106
0.4007	298.15	0.5973	0.0106
0.4182	313.15	0.6082	0.0106
0.5347	328.15	0.6971	0.0105
0.5396	313.15	0.7242	0.0104
0.5452	298.15	0.7512	0.0104
0.6095	298.15	0.7902	0.0103
0.6101	328.15	0.7677	0.0103
0.6102	313.15	0.7764	0.0103
0.6734	328.15	0.8162	0.0102
0.6818	313.15	0.8241	0.0102
0.6834	298.15	0.84	0.0102
0.747	328.15	0.8674	0.0101
0.7483	313.15	0.8736	0.0101
0.7501	298.15	0.8834	0.0101
0.8625	328.15	0.9375	0.01
0.8667	313.15	0.9403	0.01
0.8683	298.15	0.9483	0.01
0.9413	298.15	0.9862	0.01
0.9449	328.15	0.977	0.01
0.9471	313.15	0.9822	0.01
1	298.15	1	0.0001
1	313.15	1	0.0001
1	328.15	1	0.0001

System: 1-chloropentane + 1,3-dioxolane; phases: Liquid, Gas
Property: Vapor or sublimation pressure, kPa (Liquid); method: EBULLIO:UFactor:2
Mole fraction of 1,3-dioxolane	Temperature, K	Vapor or sublimation pressure, kPa	uncertainty
0	298.15	4.055	0.109
0	313.15	8.45	0.144
0	328.15	16.4	0.207
0.0595	313.15	10.42	0.162
0.0596	328.15	19.635	0.237
0.0602	298.15	5.1	0.118
0.113	328.15	22.19	0.256
0.1132	313.15	12.065	0.174
0.119	298.15	6.06	0.126
0.2041	313.15	14.525	0.193
0.2058	328.15	26.63	0.291
0.2224	298.15	7.4	0.136
0.324	328.15	31.295	0.328
0.3393	298.15	8.85	0.148
0.3453	313.15	17.57	0.218
0.4025	298.15	9.41	0.152
0.4075	313.15	18.89	0.229
0.4547	313.15	19.735	0.235
0.4617	328.15	35.945	0.365
0.4679	298.15	10.05	0.157
0.5567	328.15	38.76	0.387
0.5764	313.15	21.55	0.249
0.578	298.15	10.9	0.164
0.6244	298.15	11.275	0.167
0.6255	328.15	40.66	0.402
0.6285	313.15	22.345	0.255
0.7209	328.15	43	0.421
0.7219	313.15	23.655	0.266
0.7249	298.15	11.91	0.172
0.7832	313.15	24.43	0.272
0.7874	328.15	44.44	0.432
0.7886	298.15	12.25	0.175
0.8383	328.15	45.595	0.441
0.8957	313.15	25.72	0.283
0.8959	328.15	46.835	0.451
0.8964	298.15	12.945	0.18
0.9458	298.15	13.24	0.183
0.9458	313.15	26.285	0.287
0.9469	328.15	47.925	0.46
1	298.15	13.535	0.185
1	313.15	26.83	0.291
1	328.15	49.01	0.468

System: 1-chloropentane + 1,3-dioxolane; phases: Gas, Liquid
Property: Mole fraction of 1,3-dioxolane (Gas); method: Density calibration data
Mole fraction of 1,3-dioxolane	Temperature, K	Mole fraction of 1,3-dioxolane	uncertainty
0	298.15	0	0.0001
0	313.15	0	0.0001
0	328.15	0	0.0001
0.0595	313.15	0.2366	0.0104
0.0596	328.15	0.2142	0.0103
0.0602	298.15	0.2526	0.0104
0.113	328.15	0.3394	0.0103
0.1132	313.15	0.3667	0.0103
0.119	298.15	0.3841	0.0103
0.2041	313.15	0.5237	0.0107
0.2058	328.15	0.5013	0.0107
0.2224	298.15	0.5601	0.0106
0.324	328.15	0.643	0.0105
0.3393	298.15	0.6741	0.0105
0.3453	313.15	0.6658	0.0105
0.4025	298.15	0.7215	0.0104
0.4075	313.15	0.7148	0.0104
0.4547	313.15	0.7616	0.0103
0.4617	328.15	0.743	0.0104
0.4679	298.15	0.7656	0.0103
0.5567	328.15	0.7956	0.0103
0.5764	313.15	0.818	0.0102
0.578	298.15	0.8232	0.0102
0.6244	298.15	0.841	0.0102
0.6255	328.15	0.824	0.0102
0.6285	313.15	0.8379	0.0102
0.7209	328.15	0.8723	0.0101
0.7219	313.15	0.8853	0.0101
0.7249	298.15	0.8803	0.0101
0.7832	313.15	0.9009	0.0101
0.7874	328.15	0.8988	0.0101
0.7886	298.15	0.9021	0.0101
0.8383	328.15	0.921	0.0101
0.8957	313.15	0.9455	0.01
0.8959	328.15	0.9452	0.01
0.8964	298.15	0.9449	0.01
0.9458	298.15	0.9685	0.01
0.9458	313.15	0.9687	0.01
0.9469	328.15	0.9693	0.01
1	298.15	1	0.0001
1	313.15	1	0.0001
1	328.15	1	0.0001

System: 1,4-dioxane + 1-chloropentane; phases: Liquid, Gas
Property: Vapor or sublimation pressure, kPa (Liquid); method: EBULLIO:UFactor:2
Mole fraction of 1,4-dioxane	Temperature, K	Vapor or sublimation pressure, kPa	uncertainty
0	298.15	4.055	0.109
0	313.15	8.45	0.144
0	328.15	16.4	0.207
0.0795	298.15	4.32	0.111
0.0798	313.15	8.99	0.149
0.0799	328.15	17.26	0.214
0.1551	328.15	17.99	0.22
0.1596	313.15	9.41	0.152
0.1635	298.15	4.555	0.113
0.2098	328.15	18.45	0.224
0.21	313.15	9.71	0.154
0.2102	298.15	4.68	0.114
0.2702	298.15	4.79	0.115
0.2702	313.15	9.98	0.156
0.2734	328.15	18.925	0.228
0.3816	328.15	19.635	0.233
0.3881	313.15	10.4	0.16
0.3946	298.15	5.08	0.117
0.47	298.15	5.12	0.118
0.4701	328.15	20.02	0.236
0.4702	313.15	10.57	0.161
0.5691	328.15	20.37	0.239
0.5697	298.15	5.215	0.119
0.5697	313.15	10.825	0.163
0.7058	328.15	20.63	0.241
0.7063	313.15	10.83	0.163
0.7074	298.15	5.275	0.119
0.7949	328.15	20.57	0.241
0.7987	313.15	10.755	0.163
0.8015	298.15	5.21	0.119
0.8412	328.15	20.455	0.24
0.8417	313.15	10.695	0.162
0.8422	298.15	5.175	0.118
0.9196	298.15	5.095	0.118
0.9196	313.15	10.525	0.161
0.9198	328.15	20.1	0.237
0.9724	328.15	19.81	0.235
0.9726	313.15	10.355	0.159
0.9728	298.15	4.975	0.117
1	298.15	4.9	0.116
1	313.15	10.17	0.158
1	328.15	19.54	0.232

System: 1,4-dioxane + 1-chloropentane; phases: Gas, Liquid
Property: Mole fraction of 1,4-dioxane (Gas); method: Density calibration data
Mole fraction of 1,4-dioxane	Temperature, K	Mole fraction of 1,4-dioxane	uncertainty
0	298.15	0	0.0001
0	313.15	0	0.0001
0	328.15	0	0.0001
0.0795	298.15	0.1345	0.0101
0.0798	313.15	0.1337	0.0101
0.0799	328.15	0.1253	0.0101
0.1551	328.15	0.2256	0.0101
0.1596	313.15	0.2407	0.0101
0.1635	298.15	0.2563	0.0101
0.2098	328.15	0.2903	0.0101
0.21	313.15	0.3001	0.0101
0.2102	298.15	0.301	0.0101
0.2702	298.15	0.3596	0.0102
0.2702	313.15	0.3562	0.0102
0.2734	328.15	0.3568	0.0102
0.3816	328.15	0.4506	0.0104
0.3881	313.15	0.4694	0.0105
0.3946	298.15	0.4703	0.0105
0.47	298.15	0.5306	0.0106
0.4701	328.15	0.5338	0.0106
0.4702	313.15	0.5324	0.0106
0.5691	328.15	0.6131	0.0106
0.5697	298.15	0.6024	0.0106
0.5697	313.15	0.5982	0.0106
0.7058	328.15	0.7114	0.0104
0.7063	313.15	0.712	0.0104
0.7074	298.15	0.7039	0.0104
0.7949	328.15	0.778	0.0103
0.7987	313.15	0.7803	0.0103
0.8015	298.15	0.7804	0.0103
0.8412	328.15	0.8264	0.0102
0.8417	313.15	0.8189	0.0102
0.8422	298.15	0.8103	0.0103
0.9196	298.15	0.8905	0.0101
0.9196	313.15	0.8957	0.0101
0.9198	328.15	0.8999	0.0101
0.9724	328.15	0.964	0.0101
0.9726	313.15	0.962	0.0101
0.9728	298.15	0.9595	0.0101
1	298.15	1	0.0001
1	313.15	1	0.0001
1	328.15	1	0.0001
