Measured thermophysical data. Isobaric thermal expansivity of the binary system 1-hexanol + n-hexane as a function of temperature and pressure
Source: Fluid Phase Equilib., 2009, 10.1016/j.fluid.2008.10.003
Compound 1: hexan-1-ol, C6H14O, InChI=1S/C6H14O/c1-2-3-4-5-6-7/h7H,2-6H2,1H3
Compound 2: hexane, C6H14, InChI=1S/C6H14/c1-3-5-6-4-2/h3-6H2,1-2H3

System: hexan-1-ol; phases: Gas
Property: Isobaric coefficient of expansion, 1/K (Gas); method: calorimetric method
Pressure, kPa	Temperature, K	Isobaric coefficient of expansion, 1/K	uncertainty
5000	278.15	0.00082107	3.484e-05
5000	298.15	0.0008504	3.608e-05
5000	328.15	0.00092945	3.943e-05
5000	348.15	0.00099545	4.223e-05
10000	278.15	0.00080009	3.394e-05
10000	298.15	0.00083151	3.528e-05
10000	328.15	0.00090023	3.819e-05
10000	348.15	0.00096045	4.075e-05
15000	278.15	0.00078769	3.342e-05
15000	298.15	0.00081201	3.445e-05
15000	328.15	0.00087616	3.717e-05
15000	348.15	0.0009289	3.941e-05
20000	278.15	0.00077773	3.3e-05
20000	298.15	0.00079566	3.376e-05
20000	328.15	0.00085383	3.622e-05
20000	348.15	0.00090309	3.831e-05
25000	278.15	0.00076023	3.225e-05
25000	298.15	0.00077978	3.308e-05
25000	328.15	0.00083318	3.535e-05
25000	348.15	0.00087506	3.713e-05
30000	278.15	0.00074777	3.173e-05
30000	298.15	0.00076414	3.242e-05
30000	328.15	0.00081263	3.448e-05
30000	348.15	0.00085192	3.614e-05
35000	278.15	0.00073301	3.11e-05
35000	298.15	0.00074876	3.177e-05
35000	328.15	0.0007943	3.37e-05
35000	348.15	0.00083097	3.526e-05
40000	278.15	0.00072333	3.069e-05
40000	298.15	0.00073399	3.114e-05
40000	328.15	0.00077583	3.292e-05
40000	348.15	0.00080839	3.43e-05
45000	278.15	0.00071605	3.038e-05
45000	298.15	0.00072384	3.071e-05
45000	328.15	0.00075933	3.222e-05
45000	348.15	0.00079074	3.355e-05
50000	278.15	0.00070763	3.002e-05
50000	298.15	0.00071179	3.02e-05
50000	328.15	0.00074475	3.16e-05
50000	348.15	0.0007724	3.277e-05

System: hexane + hexan-1-ol; phases: Gas
Property: Isobaric coefficient of expansion, 1/K (Gas); method: calorimetric method
Mole fraction of hexan-1-ol	Pressure, kPa	Temperature, K	Isobaric coefficient of expansion, 1/K	uncertainty
0.0321	5000	278.15	0.00121691	5.163e-05
0.0321	5000	298.15	0.00130009	5.516e-05
0.0321	5000	328.15	0.00142852	6.061e-05
0.0321	5000	348.15	0.00152594	6.474e-05
0.0321	10000	278.15	0.0011728	4.976e-05
0.0321	10000	298.15	0.00124194	5.269e-05
0.0321	10000	328.15	0.00134796	5.719e-05
0.0321	10000	348.15	0.00141475	6.002e-05
0.0321	15000	278.15	0.00113527	4.817e-05
0.0321	15000	298.15	0.00119609	5.075e-05
0.0321	15000	328.15	0.00127853	5.424e-05
0.0321	15000	348.15	0.00132924	5.639e-05
0.0321	20000	278.15	0.00109936	4.664e-05
0.0321	20000	298.15	0.00114621	4.863e-05
0.0321	20000	328.15	0.00121582	5.158e-05
0.0321	20000	348.15	0.0012577	5.336e-05
0.0321	25000	278.15	0.0010686	4.534e-05
0.0321	25000	298.15	0.00110623	4.693e-05
0.0321	25000	328.15	0.00116661	4.95e-05
0.0321	25000	348.15	0.00119309	5.062e-05
0.0321	30000	278.15	0.00103532	4.392e-05
0.0321	30000	298.15	0.00106979	4.539e-05
0.0321	30000	328.15	0.00111956	4.75e-05
0.0321	30000	348.15	0.00114296	4.849e-05
0.0321	35000	278.15	0.00101075	4.288e-05
0.0321	35000	298.15	0.00103687	4.399e-05
0.0321	35000	328.15	0.00108027	4.583e-05
0.0321	35000	348.15	0.00109315	4.638e-05
0.0321	40000	278.15	0.00098162	4.165e-05
0.0321	40000	298.15	0.0010097	4.284e-05
0.0321	40000	328.15	0.00103613	4.396e-05
0.0321	40000	348.15	0.00104697	4.442e-05
0.0321	45000	278.15	0.00095691	4.06e-05
0.0321	45000	298.15	0.00098046	4.16e-05
0.0321	45000	328.15	0.00100561	4.266e-05
0.0321	45000	348.15	0.00101337	4.299e-05
0.0321	50000	278.15	0.00093537	3.968e-05
0.0321	50000	298.15	0.00095121	4.036e-05
0.0321	50000	328.15	0.00097558	4.139e-05
0.0321	50000	348.15	0.00098001	4.158e-05
0.041	5000	278.15	0.00121699	5.163e-05
0.041	5000	298.15	0.00130116	5.52e-05
0.041	5000	328.15	0.00142854	6.061e-05
0.041	5000	348.15	0.00152256	6.46e-05
0.041	10000	278.15	0.001175	4.985e-05
0.041	10000	298.15	0.00124486	5.282e-05
0.041	10000	328.15	0.00134798	5.719e-05
0.041	10000	348.15	0.00141599	6.008e-05
0.041	15000	278.15	0.00113902	4.832e-05
0.041	15000	298.15	0.00119809	5.083e-05
0.041	15000	328.15	0.00128116	5.436e-05
0.041	15000	348.15	0.00132892	5.638e-05
0.041	20000	278.15	0.00109974	4.666e-05
0.041	20000	298.15	0.00114968	4.878e-05
0.041	20000	328.15	0.00121613	5.16e-05
0.041	20000	348.15	0.00125909	5.342e-05
0.041	25000	278.15	0.00106944	4.537e-05
0.041	25000	298.15	0.00111	4.709e-05
0.041	25000	328.15	0.00116634	4.948e-05
0.041	25000	348.15	0.00119555	5.072e-05
0.041	30000	278.15	0.00103914	4.409e-05
0.041	30000	298.15	0.0010751	4.561e-05
0.041	30000	328.15	0.00112101	4.756e-05
0.041	30000	348.15	0.00114262	4.848e-05
0.041	35000	278.15	0.00101037	4.287e-05
0.041	35000	298.15	0.00103933	4.41e-05
0.041	35000	328.15	0.00107836	4.575e-05
0.041	35000	348.15	0.00109584	4.649e-05
0.041	40000	278.15	0.00097714	4.146e-05
0.041	40000	298.15	0.00100848	4.279e-05
0.041	40000	328.15	0.00103457	4.389e-05
0.041	40000	348.15	0.00104734	4.444e-05
0.041	45000	278.15	0.00095816	4.065e-05
0.041	45000	298.15	0.00098471	4.178e-05
0.041	45000	328.15	0.00100263	4.254e-05
0.041	45000	348.15	0.0010141	4.302e-05
0.041	50000	278.15	0.00093743	3.977e-05
0.041	50000	298.15	0.00095949	4.071e-05
0.041	50000	328.15	0.00097209	4.124e-05
0.041	50000	348.15	0.00098011	4.158e-05
0.0946	5000	278.15	0.00119199	5.057e-05
0.0946	5000	298.15	0.00127452	5.407e-05
0.0946	5000	328.15	0.00140928	5.979e-05
0.0946	5000	348.15	0.00151227	6.416e-05
0.0946	10000	278.15	0.00115243	4.889e-05
0.0946	10000	298.15	0.00122145	5.182e-05
0.0946	10000	328.15	0.0013281	5.635e-05
0.0946	10000	348.15	0.00140867	5.976e-05
0.0946	15000	278.15	0.00111528	4.732e-05
0.0946	15000	298.15	0.00117601	4.989e-05
0.0946	15000	328.15	0.0012648	5.366e-05
0.0946	15000	348.15	0.00132993	5.642e-05
0.0946	20000	278.15	0.00107931	4.579e-05
0.0946	20000	298.15	0.00113155	4.801e-05
0.0946	20000	328.15	0.00120396	5.108e-05
0.0946	20000	348.15	0.001258	5.337e-05
0.0946	25000	278.15	0.00105256	4.466e-05
0.0946	25000	298.15	0.00109554	4.648e-05
0.0946	25000	328.15	0.00115718	4.91e-05
0.0946	25000	348.15	0.00119447	5.068e-05
0.0946	30000	278.15	0.00102049	4.33e-05
0.0946	30000	298.15	0.00105727	4.486e-05
0.0946	30000	328.15	0.00111227	4.719e-05
0.0946	30000	348.15	0.00114463	4.856e-05
0.0946	35000	278.15	0.00099717	4.231e-05
0.0946	35000	298.15	0.00102521	4.35e-05
0.0946	35000	328.15	0.00107154	4.546e-05
0.0946	35000	348.15	0.00110007	4.667e-05
0.0946	40000	278.15	0.00096731	4.104e-05
0.0946	40000	298.15	0.00099882	4.238e-05
0.0946	40000	328.15	0.00103007	4.37e-05
0.0946	40000	348.15	0.00105457	4.474e-05
0.0946	45000	278.15	0.00094205	3.997e-05
0.0946	45000	298.15	0.00096899	4.111e-05
0.0946	45000	328.15	0.00100035	4.244e-05
0.0946	45000	348.15	0.00101849	4.321e-05
0.0946	50000	278.15	0.00092535	3.926e-05
0.0946	50000	298.15	0.00094609	4.014e-05
0.0946	50000	328.15	0.00097199	4.124e-05
0.0946	50000	348.15	0.00098797	4.192e-05
0.1679	5000	278.15	0.00115711	4.909e-05
0.1679	5000	298.15	0.00123726	5.249e-05
0.1679	5000	328.15	0.00136428	5.788e-05
0.1679	5000	348.15	0.00146888	6.232e-05
0.1679	10000	278.15	0.00111823	4.744e-05
0.1679	10000	298.15	0.00118793	5.04e-05
0.1679	10000	328.15	0.00129845	5.509e-05
0.1679	10000	348.15	0.00137711	5.843e-05
0.1679	15000	278.15	0.00108465	4.602e-05
0.1679	15000	298.15	0.00114728	4.868e-05
0.1679	15000	328.15	0.00123405	5.236e-05
0.1679	15000	348.15	0.00129831	5.508e-05
0.1679	20000	278.15	0.0010523	4.465e-05
0.1679	20000	298.15	0.00110395	4.684e-05
0.1679	20000	328.15	0.00117639	4.991e-05
0.1679	20000	348.15	0.00123181	5.226e-05
0.1679	25000	278.15	0.00102236	4.338e-05
0.1679	25000	298.15	0.00107038	4.541e-05
0.1679	25000	328.15	0.00113257	4.805e-05
0.1679	25000	348.15	0.00117511	4.986e-05
0.1679	30000	278.15	0.00099571	4.224e-05
0.1679	30000	298.15	0.00103597	4.395e-05
0.1679	30000	328.15	0.00108882	4.619e-05
0.1679	30000	348.15	0.00112636	4.779e-05
0.1679	35000	278.15	0.00097415	4.133e-05
0.1679	35000	298.15	0.00100535	4.265e-05
0.1679	35000	328.15	0.00105241	4.465e-05
0.1679	35000	348.15	0.00107879	4.577e-05
0.1679	40000	278.15	0.00094671	4.017e-05
0.1679	40000	298.15	0.0009767	4.144e-05
0.1679	40000	328.15	0.00101459	4.305e-05
0.1679	40000	348.15	0.0010369	4.399e-05
0.1679	45000	278.15	0.00092331	3.917e-05
0.1679	45000	298.15	0.00094994	4.03e-05
0.1679	45000	328.15	0.00098161	4.165e-05
0.1679	45000	348.15	0.001001	4.247e-05
0.1679	50000	278.15	0.00090697	3.848e-05
0.1679	50000	298.15	0.00092633	3.93e-05
0.1679	50000	328.15	0.00095209	4.039e-05
0.1679	50000	348.15	0.00096744	4.105e-05
0.2153	5000	278.15	0.00113529	4.817e-05
0.2153	5000	298.15	0.00121338	5.148e-05
0.2153	5000	328.15	0.00133589	5.668e-05
0.2153	5000	348.15	0.00143645	6.094e-05
0.2153	10000	278.15	0.0011011	4.672e-05
0.2153	10000	298.15	0.00116402	4.939e-05
0.2153	10000	328.15	0.00127309	5.401e-05
0.2153	10000	348.15	0.00135088	5.731e-05
0.2153	15000	278.15	0.00106557	4.521e-05
0.2153	15000	298.15	0.00112336	4.766e-05
0.2153	15000	328.15	0.00121118	5.139e-05
0.2153	15000	348.15	0.00127733	5.419e-05
0.2153	20000	278.15	0.00103373	4.386e-05
0.2153	20000	298.15	0.00108467	4.602e-05
0.2153	20000	328.15	0.00115849	4.915e-05
0.2153	20000	348.15	0.00121593	5.159e-05
0.2153	25000	278.15	0.00100846	4.279e-05
0.2153	25000	298.15	0.00105049	4.457e-05
0.2153	25000	328.15	0.00111589	4.734e-05
0.2153	25000	348.15	0.00116073	4.925e-05
0.2153	30000	278.15	0.00097916	4.154e-05
0.2153	30000	298.15	0.00101862	4.322e-05
0.2153	30000	328.15	0.00107391	4.556e-05
0.2153	30000	348.15	0.00111295	4.722e-05
0.2153	35000	278.15	0.00095841	4.066e-05
0.2153	35000	298.15	0.00098811	4.192e-05
0.2153	35000	328.15	0.00103666	4.398e-05
0.2153	35000	348.15	0.00107231	4.549e-05
0.2153	40000	278.15	0.00092777	3.936e-05
0.2153	40000	298.15	0.00096226	4.083e-05
0.2153	40000	328.15	0.00099861	4.237e-05
0.2153	40000	348.15	0.00103101	4.374e-05
0.2153	45000	278.15	0.00090947	3.859e-05
0.2153	45000	298.15	0.00093612	3.972e-05
0.2153	45000	328.15	0.00097115	4.12e-05
0.2153	45000	348.15	0.00099857	4.237e-05
0.2153	50000	278.15	0.0008918	3.784e-05
0.2153	50000	298.15	0.00091296	3.873e-05
0.2153	50000	328.15	0.00094494	4.009e-05
0.2153	50000	348.15	0.00096832	4.108e-05
0.3016	5000	278.15	0.00109734	4.656e-05
0.3016	5000	298.15	0.00116504	4.943e-05
0.3016	5000	328.15	0.00129264	5.484e-05
0.3016	5000	348.15	0.00137771	5.845e-05
0.3016	10000	278.15	0.00106374	4.513e-05
0.3016	10000	298.15	0.00112121	4.757e-05
0.3016	10000	328.15	0.00121602	5.159e-05
0.3016	10000	348.15	0.00130366	5.531e-05
0.3016	15000	278.15	0.00103427	4.388e-05
0.3016	15000	298.15	0.00108733	4.613e-05
0.3016	15000	328.15	0.00116922	4.961e-05
0.3016	15000	348.15	0.00123708	5.248e-05
0.3016	20000	278.15	0.00099902	4.238e-05
0.3016	20000	298.15	0.00104781	4.445e-05
0.3016	20000	328.15	0.00111824	4.744e-05
0.3016	20000	348.15	0.00117672	4.992e-05
0.3016	25000	278.15	0.00097775	4.148e-05
0.3016	25000	298.15	0.00101441	4.304e-05
0.3016	25000	328.15	0.001082	4.591e-05
0.3016	25000	348.15	0.00112492	4.773e-05
0.3016	30000	278.15	0.0009532	4.044e-05
0.3016	30000	298.15	0.00098395	4.175e-05
0.3016	30000	328.15	0.00104076	4.416e-05
0.3016	30000	348.15	0.00108327	4.596e-05
0.3016	35000	278.15	0.00093215	3.955e-05
0.3016	35000	298.15	0.00095751	4.062e-05
0.3016	35000	328.15	0.00100807	4.277e-05
0.3016	35000	348.15	0.00104229	4.422e-05
0.3016	40000	278.15	0.00091051	3.863e-05
0.3016	40000	298.15	0.00093481	3.966e-05
0.3016	40000	328.15	0.00097528	4.138e-05
0.3016	40000	348.15	0.00100561	4.266e-05
0.3016	45000	278.15	0.000887	3.763e-05
0.3016	45000	298.15	0.00090828	3.854e-05
0.3016	45000	328.15	0.00094788	4.022e-05
0.3016	45000	348.15	0.00097594	4.141e-05
0.3016	50000	278.15	0.00086791	3.682e-05
0.3016	50000	298.15	0.00088343	3.748e-05
0.3016	50000	328.15	0.00092174	3.911e-05
0.3016	50000	348.15	0.00094372	4.004e-05
0.4075	5000	278.15	0.00105179	4.462e-05
0.4075	5000	298.15	0.00112189	4.76e-05
0.4075	5000	328.15	0.00122654	5.204e-05
0.4075	5000	348.15	0.00131934	5.597e-05
0.4075	10000	278.15	0.00102328	4.341e-05
0.4075	10000	298.15	0.00108251	4.593e-05
0.4075	10000	328.15	0.00117196	4.972e-05
0.4075	10000	348.15	0.0012489	5.299e-05
0.4075	15000	278.15	0.00099506	4.222e-05
0.4075	15000	298.15	0.00104952	4.453e-05
0.4075	15000	328.15	0.00112586	4.777e-05
0.4075	15000	348.15	0.00118782	5.04e-05
0.4075	20000	278.15	0.00096696	4.102e-05
0.4075	20000	298.15	0.00101601	4.311e-05
0.4075	20000	328.15	0.00108209	4.591e-05
0.4075	20000	348.15	0.00113428	4.812e-05
0.4075	25000	278.15	0.00094582	4.013e-05
0.4075	25000	298.15	0.00098568	4.182e-05
0.4075	25000	328.15	0.00104383	4.429e-05
0.4075	25000	348.15	0.00108939	4.622e-05
0.4075	30000	278.15	0.00092055	3.906e-05
0.4075	30000	298.15	0.00095697	4.06e-05
0.4075	30000	328.15	0.0010091	4.281e-05
0.4075	30000	348.15	0.00105035	4.456e-05
0.4075	35000	278.15	0.00090336	3.833e-05
0.4075	35000	298.15	0.00093008	3.946e-05
0.4075	35000	328.15	0.00097671	4.144e-05
0.4075	35000	348.15	0.00101489	4.306e-05
0.4075	40000	278.15	0.00087739	3.722e-05
0.4075	40000	298.15	0.00091182	3.869e-05
0.4075	40000	328.15	0.00094757	4.02e-05
0.4075	40000	348.15	0.00098056	4.16e-05
0.4075	45000	278.15	0.00085919	3.645e-05
0.4075	45000	298.15	0.00088779	3.767e-05
0.4075	45000	328.15	0.00091986	3.903e-05
0.4075	45000	348.15	0.00095046	4.032e-05
0.4075	50000	278.15	0.00084429	3.582e-05
0.4075	50000	298.15	0.00086774	3.682e-05
0.4075	50000	328.15	0.00089394	3.793e-05
0.4075	50000	348.15	0.00092356	3.918e-05
0.503	5000	278.15	0.00101294	4.298e-05
0.503	5000	298.15	0.00107618	4.566e-05
0.503	5000	328.15	0.0011766	4.992e-05
0.503	5000	348.15	0.00126301	5.359e-05
0.503	10000	278.15	0.00098894	4.196e-05
0.503	10000	298.15	0.00104281	4.424e-05
0.503	10000	328.15	0.00112867	4.789e-05
0.503	10000	348.15	0.00119718	5.079e-05
0.503	15000	278.15	0.00096143	4.079e-05
0.503	15000	298.15	0.00101213	4.294e-05
0.503	15000	328.15	0.00108349	4.597e-05
0.503	15000	348.15	0.00114388	4.853e-05
0.503	20000	278.15	0.00093959	3.986e-05
0.503	20000	298.15	0.00098189	4.166e-05
0.503	20000	328.15	0.00104489	4.433e-05
0.503	20000	348.15	0.00109645	4.652e-05
0.503	25000	278.15	0.00091681	3.89e-05
0.503	25000	298.15	0.00095221	4.04e-05
0.503	25000	328.15	0.00101445	4.304e-05
0.503	25000	348.15	0.00105649	4.482e-05
0.503	30000	278.15	0.00089268	3.787e-05
0.503	30000	298.15	0.00092792	3.937e-05
0.503	30000	328.15	0.00097915	4.154e-05
0.503	30000	348.15	0.00102137	4.333e-05
0.503	35000	278.15	0.00087635	3.718e-05
0.503	35000	298.15	0.00090361	3.834e-05
0.503	35000	328.15	0.00095204	4.039e-05
0.503	35000	348.15	0.00098933	4.197e-05
0.503	40000	278.15	0.00085097	3.61e-05
0.503	40000	298.15	0.00087891	3.729e-05
0.503	40000	328.15	0.00092201	3.912e-05
0.503	40000	348.15	0.00095582	4.055e-05
0.503	45000	278.15	0.00083534	3.544e-05
0.503	45000	298.15	0.0008642	3.666e-05
0.503	45000	328.15	0.00089911	3.815e-05
0.503	45000	348.15	0.00092868	3.94e-05
0.503	50000	278.15	0.00082017	3.48e-05
0.503	50000	298.15	0.00084377	3.58e-05
0.503	50000	328.15	0.00087675	3.72e-05
0.503	50000	348.15	0.00090385	3.835e-05
0.594	5000	278.15	0.00097777	4.148e-05
0.594	5000	298.15	0.00103452	4.389e-05
0.594	5000	328.15	0.00112616	4.778e-05
0.594	5000	348.15	0.00121238	5.144e-05
0.594	10000	278.15	0.0009514	4.036e-05
0.594	10000	298.15	0.00100035	4.244e-05
0.594	10000	328.15	0.00108326	4.596e-05
0.594	10000	348.15	0.00115262	4.89e-05
0.594	15000	278.15	0.00093199	3.954e-05
0.594	15000	298.15	0.00097454	4.135e-05
0.594	15000	328.15	0.00104665	4.441e-05
0.594	15000	348.15	0.00110302	4.68e-05
0.594	20000	278.15	0.00090249	3.829e-05
0.594	20000	298.15	0.00094379	4.004e-05
0.594	20000	328.15	0.00100908	4.281e-05
0.594	20000	348.15	0.00106353	4.512e-05
0.594	25000	278.15	0.00088678	3.762e-05
0.594	25000	298.15	0.00092023	3.904e-05
0.594	25000	328.15	0.00097957	4.156e-05
0.594	25000	348.15	0.00102475	4.348e-05
0.594	30000	278.15	0.00086401	3.666e-05
0.594	30000	298.15	0.00089689	3.805e-05
0.594	30000	328.15	0.00094944	4.028e-05
0.594	30000	348.15	0.00099327	4.214e-05
0.594	35000	278.15	0.00085014	3.607e-05
0.594	35000	298.15	0.00087277	3.703e-05
0.594	35000	328.15	0.00092093	3.907e-05
0.594	35000	348.15	0.00095961	4.071e-05
0.594	40000	278.15	0.00083134	3.527e-05
0.594	40000	298.15	0.00085585	3.631e-05
0.594	40000	328.15	0.00089295	3.788e-05
0.594	40000	348.15	0.0009276	3.935e-05
0.594	45000	278.15	0.0008043	3.412e-05
0.594	45000	298.15	0.00083646	3.549e-05
0.594	45000	328.15	0.0008723	3.701e-05
0.594	45000	348.15	0.00090352	3.833e-05
0.594	50000	278.15	0.00080007	3.394e-05
0.594	50000	298.15	0.00081855	3.473e-05
0.594	50000	328.15	0.00085143	3.612e-05
0.594	50000	348.15	0.00088226	3.743e-05
0.6827	5000	278.15	0.00093738	3.977e-05
0.6827	5000	298.15	0.00099251	4.211e-05
0.6827	5000	328.15	0.00108139	4.588e-05
0.6827	5000	348.15	0.0011603	4.923e-05
0.6827	10000	278.15	0.00091617	3.887e-05
0.6827	10000	298.15	0.00096462	4.093e-05
0.6827	10000	328.15	0.00104235	4.422e-05
0.6827	10000	348.15	0.00110587	4.692e-05
0.6827	15000	278.15	0.00089706	3.806e-05
0.6827	15000	298.15	0.00093912	3.984e-05
0.6827	15000	328.15	0.00100836	4.278e-05
0.6827	15000	348.15	0.00106548	4.52e-05
0.6827	20000	278.15	0.00087368	3.707e-05
0.6827	20000	298.15	0.00091297	3.873e-05
0.6827	20000	328.15	0.00097288	4.128e-05
0.6827	20000	348.15	0.00102578	4.352e-05
0.6827	25000	278.15	0.00085728	3.637e-05
0.6827	25000	298.15	0.0008904	3.778e-05
0.6827	25000	328.15	0.00094478	4.008e-05
0.6827	25000	348.15	0.00099379	4.216e-05
0.6827	30000	278.15	0.00083976	3.563e-05
0.6827	30000	298.15	0.00086821	3.684e-05
0.6827	30000	328.15	0.00091821	3.896e-05
0.6827	30000	348.15	0.00096277	4.085e-05
0.6827	35000	278.15	0.0008239	3.496e-05
0.6827	35000	298.15	0.00084604	3.589e-05
0.6827	35000	328.15	0.00089114	3.781e-05
0.6827	35000	348.15	0.00093338	3.96e-05
0.6827	40000	278.15	0.00080407	3.411e-05
0.6827	40000	298.15	0.00082713	3.509e-05
0.6827	40000	328.15	0.00086476	3.669e-05
0.6827	40000	348.15	0.00090271	3.83e-05
0.6827	45000	278.15	0.00079052	3.354e-05
0.6827	45000	298.15	0.000812	3.445e-05
0.6827	45000	328.15	0.00084282	3.576e-05
0.6827	45000	348.15	0.00088077	3.737e-05
0.6827	50000	278.15	0.00077527	3.289e-05
0.6827	50000	298.15	0.00079377	3.368e-05
0.6827	50000	328.15	0.00082314	3.492e-05
0.6827	50000	348.15	0.00085931	3.646e-05
0.8013	5000	278.15	0.0008918	3.784e-05
0.8013	5000	298.15	0.00093825	3.981e-05
0.8013	5000	328.15	0.0010205	4.33e-05
0.8013	5000	348.15	0.00109388	4.641e-05
0.8013	10000	278.15	0.00086501	3.67e-05
0.8013	10000	298.15	0.00091302	3.874e-05
0.8013	10000	328.15	0.00098497	4.179e-05
0.8013	10000	348.15	0.00104777	4.445e-05
0.8013	15000	278.15	0.00085715	3.637e-05
0.8013	15000	298.15	0.00088986	3.775e-05
0.8013	15000	328.15	0.00095684	4.06e-05
0.8013	15000	348.15	0.00101216	4.294e-05
0.8013	20000	278.15	0.00083359	3.537e-05
0.8013	20000	298.15	0.00086751	3.681e-05
0.8013	20000	328.15	0.00092577	3.928e-05
0.8013	20000	348.15	0.00097862	4.152e-05
0.8013	25000	278.15	0.00081921	3.476e-05
0.8013	25000	298.15	0.0008484	3.599e-05
0.8013	25000	328.15	0.00089993	3.818e-05
0.8013	25000	348.15	0.00094715	4.018e-05
0.8013	30000	278.15	0.00080649	3.422e-05
0.8013	30000	298.15	0.00082973	3.52e-05
0.8013	30000	328.15	0.00087396	3.708e-05
0.8013	30000	348.15	0.00091978	3.902e-05
0.8013	35000	278.15	0.00078354	3.324e-05
0.8013	35000	298.15	0.00080945	3.434e-05
0.8013	35000	328.15	0.00085028	3.607e-05
0.8013	35000	348.15	0.00089212	3.785e-05
0.8013	40000	278.15	0.00076932	3.264e-05
0.8013	40000	298.15	0.00079196	3.36e-05
0.8013	40000	328.15	0.00082494	3.5e-05
0.8013	40000	348.15	0.00086587	3.674e-05
0.8013	45000	278.15	0.00075559	3.206e-05
0.8013	45000	298.15	0.00077836	3.302e-05
0.8013	45000	328.15	0.00080794	3.428e-05
0.8013	45000	348.15	0.00084485	3.584e-05
0.8013	50000	278.15	0.00074453	3.159e-05
0.8013	50000	298.15	0.0007633	3.238e-05
0.8013	50000	328.15	0.00078927	3.349e-05
0.8013	50000	348.15	0.00082429	3.497e-05
0.8934	5000	278.15	0.00085042	3.608e-05
0.8934	5000	298.15	0.00089632	3.803e-05
0.8934	5000	328.15	0.00097236	4.125e-05
0.8934	5000	348.15	0.00104241	4.423e-05
0.8934	10000	278.15	0.00083709	3.551e-05
0.8934	10000	298.15	0.0008742	3.709e-05
0.8934	10000	328.15	0.00094497	4.009e-05
0.8934	10000	348.15	0.00100339	4.257e-05
0.8934	15000	278.15	0.0008172	3.467e-05
0.8934	15000	298.15	0.00085514	3.628e-05
0.8934	15000	328.15	0.00091735	3.892e-05
0.8934	15000	348.15	0.00097008	4.116e-05
0.8934	20000	278.15	0.00080255	3.405e-05
0.8934	20000	298.15	0.00083461	3.541e-05
0.8934	20000	328.15	0.000889	3.772e-05
0.8934	20000	348.15	0.00093968	3.987e-05
0.8934	25000	278.15	0.00078905	3.348e-05
0.8934	25000	298.15	0.00081644	3.464e-05
0.8934	25000	328.15	0.00086948	3.689e-05
0.8934	25000	348.15	0.00091145	3.867e-05
0.8934	30000	278.15	0.00077496	3.288e-05
0.8934	30000	298.15	0.00079674	3.38e-05
0.8934	30000	328.15	0.00084461	3.583e-05
0.8934	30000	348.15	0.00088565	3.758e-05
0.8934	35000	278.15	0.00075614	3.208e-05
0.8934	35000	298.15	0.00078114	3.314e-05
0.8934	35000	328.15	0.00082266	3.49e-05
0.8934	35000	348.15	0.00086186	3.657e-05
0.8934	40000	278.15	0.00075097	3.186e-05
0.8934	40000	298.15	0.00076315	3.238e-05
0.8934	40000	328.15	0.00080218	3.403e-05
0.8934	40000	348.15	0.00083844	3.557e-05
0.8934	45000	278.15	0.000733	3.11e-05
0.8934	45000	298.15	0.00075106	3.186e-05
0.8934	45000	328.15	0.00078336	3.324e-05
0.8934	45000	348.15	0.00081746	3.468e-05
0.8934	50000	278.15	0.00072317	3.068e-05
0.8934	50000	298.15	0.00073885	3.135e-05
0.8934	50000	328.15	0.00076654	3.252e-05
0.8934	50000	348.15	0.000797	3.381e-05
1	5000	278.15	0.00082107	3.484e-05
1	5000	298.15	0.0008504	3.608e-05
1	5000	328.15	0.00092945	3.943e-05
1	5000	348.15	0.00099545	4.223e-05
1	10000	278.15	0.00080009	3.394e-05
1	10000	298.15	0.00083151	3.528e-05
1	10000	328.15	0.00090023	3.819e-05
1	10000	348.15	0.00096045	4.075e-05
1	15000	278.15	0.00078769	3.342e-05
1	15000	298.15	0.00081201	3.445e-05
1	15000	328.15	0.00087616	3.717e-05
1	15000	348.15	0.0009289	3.941e-05
1	20000	278.15	0.00077773	3.3e-05
1	20000	298.15	0.00079566	3.376e-05
1	20000	328.15	0.00085383	3.622e-05
1	20000	348.15	0.00090309	3.831e-05
1	25000	278.15	0.00076023	3.225e-05
1	25000	298.15	0.00077978	3.308e-05
1	25000	328.15	0.00083318	3.535e-05
1	25000	348.15	0.00087506	3.713e-05
1	30000	278.15	0.00074777	3.173e-05
1	30000	298.15	0.00076414	3.242e-05
1	30000	328.15	0.00081263	3.448e-05
1	30000	348.15	0.00085192	3.614e-05
1	35000	278.15	0.00073301	3.11e-05
1	35000	298.15	0.00074876	3.177e-05
1	35000	328.15	0.0007943	3.37e-05
1	35000	348.15	0.00083097	3.526e-05
1	40000	278.15	0.00072333	3.069e-05
1	40000	298.15	0.00073399	3.114e-05
1	40000	328.15	0.00077583	3.292e-05
1	40000	348.15	0.00080839	3.43e-05
1	45000	278.15	0.00071605	3.038e-05
1	45000	298.15	0.00072384	3.071e-05
1	45000	328.15	0.00075933	3.222e-05
1	45000	348.15	0.00079074	3.355e-05
1	50000	278.15	0.00070763	3.002e-05
1	50000	298.15	0.00071179	3.02e-05
1	50000	328.15	0.00074475	3.16e-05
1	50000	348.15	0.0007724	3.277e-05
