Measured thermophysical data. Solubility of carbon dioxide in the low-viscosity ionic liquid 1-hexyl-3-methylimidazolium tetracyanoborate
Source: Fluid Phase Equilib., 2012, 10.1016/j.fluid.2012.06.014
Compound 1: carbon dioxide, CO2, InChI=1S/CO2/c2-1-3, purity 99.995%
Compound 2: 1-hexyl-3-methylimidazolium tetracyanoborate, C14H19BN6, InChI=1S/C10H19N2.C4BN4/c1-3-4-5-6-7-12-9-8-11(2)10-12;6-1-5(2-7,3-8)4-9/h8-10H,3-7H2,1-2H3;/q+1;-1, purity 99%

System: 1-hexyl-3-methylimidazolium tetracyanoborate; phases: Liquid, Air at 1 atmosphere
Property: Surface tension liquid-gas, N/m (Liquid); method: Pendant drop shape
Temperature, K	Surface tension liquid-gas, N/m	uncertainty
298.15	0.0411	0.0007

System: 1-hexyl-3-methylimidazolium tetracyanoborate; phases: Liquid
Fixed: Pressure, kPa = 101.325
Property: Viscosity, Pa*s (Liquid); method: Capillary tube (Ostwald; Ubbelohde) method
Temperature, K	Viscosity, Pa*s	uncertainty
293.15	0.066608	0.000825
298.15	0.0498	0.000654
303.15	0.038921	0.000475
308.15	0.031036	0.000372
313.15	0.0252	0.000304
318.15	0.020798	0.000259
323.15	0.017411	0.000229
328.14	0.014764	0.000209
333.14	0.012664	0.000195
338.14	0.01097	0.000186
343.14	0.009584	0.000179
348.14	0.008445	0.000175
353.15	0.007497	0.000171
358.14	0.006701	0.000169
363.14	0.006026	0.000167

System: 1-hexyl-3-methylimidazolium tetracyanoborate; phases: Liquid
Fixed: Pressure, kPa = 101.325
Property: Mass density, kg/m3 (Liquid); method: Vibrating tube method
Temperature, K	Mass density, kg/m3	uncertainty
293.15	993.4	0.2
298.15	989.8	0.2
303.15	986.2	0.2
308.15	982.7	0.2
313.15	979.1	0.2
318.15	975.6	0.2
323.15	972.1	0.2
328.14	968.6	0.2
333.14	965.2	0.2
338.14	961.7	0.2
343.14	958.3	0.2
348.14	954.9	0.2
353.15	951.5	0.2
358.14	948.1	0.2
363.14	944.8	0.2

System: carbon dioxide + 1-hexyl-3-methylimidazolium tetracyanoborate; phases: Liquid, Gas
Property: Vapor or sublimation pressure, kPa (Liquid); method: Closed cell (Static) method
Mole fraction of carbon dioxide	Temperature, K	Vapor or sublimation pressure, kPa	uncertainty
0.1009	288.48	271	31
0.1009	293.72	298	38
0.1009	303.67	363	42
0.1009	313.72	429	51
0.1009	323.78	506	61
0.1009	333.7	587	72
0.1009	343.76	672	82
0.1009	353.89	763	97
0.1009	363.88	862	109
0.2	303.12	772	45
0.2	313.2	935	54
0.2	323.19	1108	63
0.2	333.11	1291	73
0.2	343.23	1479	85
0.2518	283.56	703	48
0.2518	293.56	861	44
0.2518	303.81	1038	65
0.2518	313.62	1236	74
0.2518	323.66	1453	88
0.2518	333.67	1690	103
0.2518	343.63	1947	118
0.2518	353.72	2228	112
0.2518	363.8	2510	144
0.3251	293.33	1325	57
0.3251	303.37	1577	68
0.3251	313.42	1849	82
0.3251	323.58	2189	99
0.3251	333.61	2560	117
0.3251	343.62	2940	136
0.3251	353.65	3366	154
0.4076	283.72	1446	48
0.4076	293.55	1747	59
0.4076	303.72	2095	75
0.4076	313.73	2520	93
0.4076	323.64	2989	111
0.4076	333.7	3514	133
0.4076	343.72	4057	156
0.4076	353.68	4620	180
0.4076	363.82	5253	196
0.5007	283.78	1902	55
0.5007	293.86	2372	74
0.5007	303.86	2895	96
0.5007	313.93	3492	120
0.5007	323.77	4134	149
0.5007	333.94	4885	182
0.5007	343.93	5680	220
0.5007	353.84	6514	264
0.5007	364.03	7442	310
0.6007	283.88	2505	60
0.6007	293.76	3167	167
0.6007	303.79	3932	211
0.6007	313.85	4830	270
0.6007	323.93	5857	347
0.6007	333.89	7013	219
0.6007	343.93	8297	268
0.6007	353.85	9699	323
0.6007	364.04	11240	381
0.7016	293.74	5714	253
0.7016	303.68	7111	329
0.7016	313.76	8883	419
0.7016	323.75	11086	530
0.7016	328.74	12336	524
