Measured thermophysical data. Solubility and molar enthalpy of solution of sucralose in H2O and D2O
Source: Fluid Phase Equilib., 2018, 10.1016/j.fluid.2017.12.028
Compound 1: sucralose, C12H19Cl3O8, InChI=1S/C12H19Cl3O8/c13-1-4-7(17)10(20)12(3-14,22-4)23-11-9(19)8(18)6(15)5(2-16)21-11/h4-11,16-20H,1-3H2/t4-,5-,6+,7-,8+,9-,10+,11-,12+/m1/s1, purity 99%
Compound 2: water-d2, D2O, InChI=1S/H2O/h1H2/i/hD2, purity 99.5%
Compound 3: water, H2O, InChI=1S/H2O/h1H2, purity 99.8%

System: water-d2 + sucralose; phases: Liquid, Crystal
Fixed: Pressure, kPa = 101
Property: Mole fraction of sucralose (Liquid); method: Index of refraction calibration data
Temperature, K	Mole fraction of sucralose	uncertainty
292.15	0.01116	0.00072
295.15	0.01145	0.00072
298.15	0.01251	0.00108
301.15	0.01288	0.00052
304.15	0.01378	0.00032

System: water-d2 + sucralose; phases: Liquid
Fixed: Pressure, kPa = 101
Fixed: Mole fraction of sucralose = 0
Property: Molar enthalpy of solution, kJ/mol (Liquid); method: solution calorimetry
Temperature, K	Molar enthalpy of solution, kJ/mol	uncertainty
292.15	13.14	3.48
295.15	13.41	3.52
298.15	13.68	3.6
301.15	13.96	3.68
304.15	14.24	3.76

System: water + sucralose; phases: Liquid, Crystal
Fixed: Pressure, kPa = 101
Property: Mole fraction of sucralose (Liquid); method: Index of refraction calibration data
Temperature, K	Mole fraction of sucralose	uncertainty
292.15	0.0142	0.00048
295.15	0.015	0.00128
298.15	0.01579	0.00032
301.15	0.0166	0.00088
304.15	0.01761	0.00036

System: water + sucralose; phases: Liquid
Fixed: Pressure, kPa = 101
Fixed: Mole fraction of sucralose = 0
Property: Molar enthalpy of solution, kJ/mol (Liquid); method: solution calorimetry
Temperature, K	Molar enthalpy of solution, kJ/mol	uncertainty
292.15	12.77	0.53
295.15	13.03	0.57
298.15	13.3	0.57
301.15	13.57	0.57
304.15	13.84	0.57
