Measured thermophysical data. Thermal conductivity of gaseous and liquid n-pentane
Source: Fluid Phase Equilib., 2018, 10.1016/j.fluid.2017.12.026
Compound 1: pentane, C5H12, InChI=1S/C5H12/c1-3-5-4-2/h3-5H2,1-2H3, purity 99%

System: pentane; phases: Liquid
Property: Thermal conductivity, W/m/K (Liquid); method: Coaxial cylinder method
Temperature, K	Pressure, kPa	Thermal conductivity, W/m/K	uncertainty
309.04	260	0.10898	0.00398
309.04	261	0.10923	0.00399
309.04	1000	0.10945	0.00399
309.04	2000	0.11007	0.00401
309.04	3012	0.11083	0.00404
309.04	4151	0.1118	0.00407
309.04	4297	0.11166	0.00407
309.04	5604	0.11234	0.00409
309.04	6001	0.11253	0.00409
309.04	7000	0.11301	0.00411
309.04	8108	0.1137	0.00413
309.04	9011	0.11422	0.00415
309.04	10008	0.11539	0.00419
309.04	11054	0.11607	0.00421
309.04	12000	0.11669	0.00423
309.04	12504	0.11678	0.00423
309.04	13000	0.11709	0.00424
309.04	14742	0.11814	0.00428
309.04	19800	0.12068	0.00436
309.04	19908	0.12054	0.00436
309.04	20004	0.12065	0.00436
309.04	24000	0.12312	0.00444
309.04	25000	0.12328	0.00445
309.04	28000	0.12409	0.00447
309.04	29100	0.12528	0.00451
309.04	29300	0.12557	0.00452
309.04	34000	0.12811	0.00461
309.04	35000	0.12861	0.00462
309.04	38000	0.12979	0.00466
309.04	39100	0.12994	0.00467
309.04	39176	0.12999	0.00467
309.04	39350	0.13039	0.00468
309.04	49940	0.13519	0.00484
309.04	50230	0.13528	0.00484
309.04	50800	0.13523	0.00484
331.2	2097	0.10348	0.0038
331.2	3000	0.10405	0.00382
331.2	3500	0.10445	0.00383
331.2	4000	0.10458	0.00383
331.2	5000	0.10532	0.00386
331.2	6000	0.10613	0.00388
331.2	7000	0.10678	0.00391
331.2	8000	0.10689	0.00391
331.2	9000	0.10716	0.00392
331.2	9500	0.10766	0.00393
331.2	10000	0.1078	0.00394
331.2	11000	0.10845	0.00396
331.2	12000	0.10904	0.00398
331.2	13000	0.10942	0.00399
331.2	15000	0.11087	0.00404
331.2	16000	0.11147	0.00406
331.2	17000	0.11216	0.00408
331.2	18000	0.11258	0.0041
331.2	19000	0.11313	0.00411
331.2	20000	0.11394	0.00414
331.2	21000	0.11406	0.00414
331.2	22000	0.11481	0.00417
331.2	24000	0.11584	0.0042
331.2	25482	0.11665	0.00423
331.2	26404	0.1172	0.00425
331.2	27000	0.11763	0.00426
331.2	30000	0.11881	0.0043
331.2	31040	0.11931	0.00432
331.2	31081	0.11935	0.00432
331.2	32500	0.12016	0.00434
331.2	32500	0.12016	0.00434
331.2	33500	0.12094	0.00437
331.2	34477	0.12115	0.00438
331.2	35500	0.12161	0.00439
331.2	36500	0.12243	0.00442
331.2	37885	0.12293	0.00444
331.2	38500	0.12315	0.00444
331.2	39000	0.12374	0.00446
331.2	39500	0.1239	0.00447
331.2	40000	0.12408	0.00447
331.2	41000	0.12423	0.00448
331.2	42000	0.12464	0.00449
331.2	43500	0.12546	0.00452
331.2	44500	0.12614	0.00454
331.2	45500	0.1266	0.00456
331.2	47000	0.12718	0.00458
331.2	48000	0.1273	0.00458
331.2	49500	0.12831	0.00461
331.2	50000	0.12776	0.00459
386	5061	0.09007	0.00336
386	10175	0.09446	0.0035
386	18875	0.0996	0.00367
386	20275	0.10235	0.00376
386	30275	0.10817	0.00395
386	34475	0.11074	0.00404
386	40275	0.11221	0.00408
386	49975	0.11839	0.00429
386	53475	0.12028	0.00435
399.6	2900	0.08457	0.00318
399.6	3000	0.08493	0.00319
399.6	4000	0.08522	0.0032
399.6	4500	0.08602	0.00323
399.6	5000	0.0869	0.00325
399.6	6000	0.088	0.00329
399.6	7000	0.08901	0.00332
399.6	7500	0.08952	0.00334
399.6	8000	0.0899	0.00335
399.6	9500	0.09127	0.0034
399.6	10000	0.09171	0.00341
399.6	11000	0.09237	0.00343
399.6	12000	0.09323	0.00346
399.6	13000	0.09372	0.00348
399.6	14000	0.09464	0.00351
399.6	15000	0.09518	0.00353
399.6	16000	0.09601	0.00355
399.6	17000	0.09671	0.00358
399.6	18000	0.09742	0.0036
399.6	19000	0.09836	0.00363
399.6	20000	0.0989	0.00365
399.6	21000	0.09955	0.00367
399.6	22000	0.10013	0.00369
399.6	23500	0.10114	0.00372
399.6	25000	0.10215	0.00375
399.6	26000	0.10261	0.00377
399.6	27000	0.10313	0.00379
399.6	28000	0.10374	0.00381
399.6	29000	0.10468	0.00384
399.6	30000	0.10512	0.00385
399.6	31000	0.10558	0.00387
399.6	33000	0.1066	0.0039
399.6	34000	0.10706	0.00391
399.6	35000	0.10757	0.00393
399.6	35301	0.10791	0.00394
421.85	1640	0.07566	0.00289
421.85	1650	0.07566	0.00289
421.85	1660	0.07566	0.00289
421.85	1680	0.07566	0.00289
421.85	1700	0.07566	0.00289
421.85	1710	0.07566	0.00289
421.85	1720	0.07566	0.00289
421.85	1730	0.07596	0.0029
421.85	1750	0.07566	0.00289
421.85	1764	0.07568	0.00289
421.85	1772	0.07584	0.00289
421.85	1910	0.07624	0.00291
421.85	1946	0.0762	0.00291
421.85	1954	0.07621	0.00291
422.2	2518	0.07714	0.00294
422.2	5041	0.08091	0.00306
422.2	10475	0.08676	0.00325
422.2	18675	0.09347	0.00347
422.2	18775	0.09348	0.00347
422.2	20475	0.09413	0.00349
422.2	30575	0.10016	0.00369
422.2	30675	0.10072	0.00371
422.2	40275	0.10615	0.00388
422.2	48075	0.11037	0.00402
422.2	52975	0.11234	0.00409
465.4	9497	0.07785	0.00296
465.4	9610	0.07785	0.00296
465.4	9891	0.07814	0.00297
467.36	11000	0.08067	0.00305
467.36	11500	0.08129	0.00307
467.36	12000	0.08175	0.00309
467.36	13000	0.08285	0.00312
467.36	13800	0.08362	0.00315
467.36	15200	0.08486	0.00319
467.36	16000	0.08553	0.00321
467.36	16500	0.08593	0.00322
467.36	17000	0.08638	0.00324
467.36	17500	0.08673	0.00325
467.36	18000	0.08718	0.00326
467.36	18500	0.0876	0.00328
467.36	19000	0.08803	0.00329
467.36	19500	0.08843	0.0033
467.36	20000	0.08879	0.00332
467.36	20500	0.08919	0.00333
467.36	21000	0.08956	0.00334
467.36	21500	0.08989	0.00335
467.36	22000	0.09031	0.00337
467.36	22500	0.09068	0.00338
467.36	23000	0.0911	0.00339
467.36	23500	0.09141	0.0034
467.36	24000	0.0918	0.00341
467.36	24500	0.09219	0.00343
467.36	25000	0.09258	0.00344
467.36	25500	0.09286	0.00345
467.36	26000	0.09318	0.00346
467.36	26500	0.09358	0.00347
467.36	27000	0.0939	0.00348
467.36	27500	0.09419	0.00349
467.36	28000	0.09456	0.0035
467.36	28500	0.09489	0.00352
467.36	29000	0.09522	0.00353
467.36	29500	0.09552	0.00354
467.36	30000	0.09583	0.00355
467.36	30500	0.09613	0.00356
467.36	31000	0.09634	0.00356
467.36	31280	0.09643	0.00357
467.36	31300	0.09647	0.00357
467.36	31340	0.09656	0.00357

System: pentane; phases: Gas
Property: Thermal conductivity, W/m/K (Gas); method: Coaxial cylinder method
Temperature, K	Pressure, kPa	Thermal conductivity, W/m/K	uncertainty
387.83	75	0.02437	0.00088
421.85	100	0.02895	0.00103
425.74	1560	0.0319	0.00113
426.25	1210	0.0316	0.00112
426.25	1280	0.03151	0.00112
470.04	2036	0.03754	0.00132
472.17	1697	0.03753	0.00132
475.7	10375	0.07726	0.00268
475.7	17575	0.0849	0.00298
475.7	19975	0.08712	0.00307
475.7	24775	0.0897	0.0032
475.7	29975	0.09365	0.00337
475.7	40275	0.09992	0.00367
475.7	48475	0.10327	0.00386
478.5	2001	0.03835	0.00134
478.5	10175	0.07793	0.0027
478.5	19775	0.08695	0.00307
478.5	20375	0.08696	0.00307
478.5	30175	0.09387	0.00338
478.5	32975	0.09616	0.00348
478.5	40175	0.10023	0.00368
478.5	46675	0.10284	0.00383
482.02	2180	0.03995	0.0014
484.5	7555	0.07149	0.00247
484.5	10055	0.0768	0.00266
484.5	19975	0.08666	0.00306
484.5	25175	0.09003	0.00321
484.5	27775	0.09214	0.0033
485.84	1820	0.03954	0.00138
485.84	1830	0.03953	0.00138
485.84	1886	0.03962	0.00139
485.84	2000	0.04018	0.0014
485.84	2180	0.04056	0.00142
485.84	2260	0.04079	0.00143
485.84	2280	0.04036	0.00141
485.84	2300	0.04075	0.00142
485.84	2560	0.04155	0.00145
487.28	1820	0.03982	0.00139
497.3	988	0.03935	0.00137
497.3	2518	0.04191	0.00146
497.3	9975	0.07419	0.00258
497.3	19975	0.08618	0.00304
497.3	30375	0.09354	0.00337
497.3	40275	0.09941	0.00366
497.3	49575	0.10365	0.00389
523	988	0.0425	0.00148
523	2508	0.04516	0.00157
523	17975	0.0821	0.00289
523	20175	0.08444	0.00298
523	25475	0.0885	0.00316
523	30475	0.09129	0.00329
523	40175	0.09665	0.00356
523	43475	0.09824	0.00364
523	49975	0.10141	0.00381
526.4	2200	0.04473	0.00156
526.54	2200	0.04492	0.00156
526.4	2300	0.0457	0.00159
526.4	2400	0.0457	0.00159
526.4	2500	0.0457	0.00159
526.4	2600	0.04565	0.00159
526.4	2700	0.0456	0.00159
526.4	2800	0.04599	0.0016
526.4	2900	0.0465	0.00162
526.4	3000	0.04712	0.00164
526.4	3300	0.04771	0.00166
526.4	3600	0.04853	0.00169
526.4	3700	0.04799	0.00167
526.4	3800	0.04888	0.0017
576.1	988	0.05094	0.00176
576.1	2417	0.05148	0.00178
576.1	2508	0.05179	0.00179
576.1	4048	0.05495	0.0019
576.1	20475	0.08464	0.00299
576.1	22475	0.08627	0.00306
576.1	30275	0.09057	0.00327
576.1	30575	0.09	0.00325
576.1	40175	0.09709	0.00357
576.1	40975	0.09601	0.00354
576.1	51275	0.10232	0.00385
618.2	7584	0.06457	0.00224
618.2	9985	0.06826	0.00238
618.2	11475	0.07159	0.0025
618.2	12945	0.07331	0.00256
618.2	12985	0.07397	0.00258
618.2	14975	0.07629	0.00267
618.2	18875	0.08227	0.0029
618.2	18875	0.08277	0.00292
621.2	10375	0.06836	0.00238
621.2	15375	0.07737	0.00271
621.2	20275	0.08383	0.00296
621.2	22975	0.08581	0.00305
621.2	30175	0.09232	0.00333
621.2	39275	0.09614	0.00353
621.2	39275	0.09614	0.00353
621.2	40375	0.09714	0.00357
621.2	49975	0.10151	0.00381
621.2	53675	0.10311	0.0039
621.2	53975	0.10298	0.0039
315.55	100	0.01635	0.00062
387.83	100	0.02484	0.00089
421.85	100	0.02874	0.00102
425.73	100	0.02926	0.00104
425.8	100	0.0294	0.00104
425.82	100	0.02926	0.00104
426.24	100	0.02935	0.00104
426.25	100	0.02935	0.00104
466.27	100	0.03453	0.00121
466.28	100	0.03449	0.00121
466.29	100	0.03442	0.00121
466.3	100	0.03439	0.00121
466.7	100	0.03462	0.00122
467.76	100	0.03471	0.00122
468.02	100	0.03483	0.00122
468.08	100	0.03457	0.00121
468.57	100	0.03481	0.00122
469.93	100	0.03492	0.00123
470.07	100	0.03498	0.00123
470.2	100	0.03485	0.00122
471.68	100	0.03523	0.00124
472.21	100	0.03519	0.00123
472.84	100	0.03528	0.00124
472.97	100	0.03526	0.00124
473.01	100	0.03533	0.00124
473.86	100	0.03563	0.00125
474.81	100	0.03571	0.00125
475.4	100	0.03567	0.00125
476.21	100	0.03593	0.00126
478.08	100	0.03587	0.00126
478.2	100	0.03595	0.00126
479.9	100	0.03642	0.00127
482.02	100	0.03645	0.00128
487.3	100	0.03739	0.00131
497.65	100	0.03875	0.00135
500.96	100	0.03915	0.00137
526.57	100	0.04253	0.00148
576.1	100	0.04957	0.00171
621.2	100	0.05581	0.00192
