Measured thermophysical data. Binary mixtures of fatty acid ethyl esters: Solid-liquid equilibrium
Source: Fluid Phase Equilib., 2016, 10.1016/j.fluid.2016.06.039
Compound 1: ethyl octanoate, C10H20O2, InChI=1S/C10H20O2/c1-3-5-6-7-8-9-10(11)12-4-2/h3-9H2,1-2H3, purity 99%
Compound 2: ethyl decanoate, C12H24O2, InChI=1S/C12H24O2/c1-3-5-6-7-8-9-10-11-12(13)14-4-2/h3-11H2,1-2H3, purity 99%
Compound 3: ethyl dodecanoate, C14H28O2, InChI=1S/C14H28O2/c1-3-5-6-7-8-9-10-11-12-13-14(15)16-4-2/h3-13H2,1-2H3, purity 99%
Compound 4: ethyl tetradecanoate, C16H32O2, InChI=1S/C16H32O2/c1-3-5-6-7-8-9-10-11-12-13-14-15-16(17)18-4-2/h3-15H2,1-2H3, purity 99%
Compound 5: ethyl (Z)-9-octadeceneoate, C20H38O2, InChI=1S/C20H38O2/c1-3-5-6-7-8-9-10-11-12-13-14-15-16-17-18-19-20(21)22-4-2/h11-12H,3-10,13-19H2,1-2H3/b12-11-, purity 99%
Compound 6: ethyl linoleate, C20H36O2, InChI=1S/C20H36O2/c1-3-5-6-7-8-9-10-11-12-13-14-15-16-17-18-19-20(21)22-4-2/h8-9,11-12H,3-7,10,13-19H2,1-2H3/b9-8-,12-11-, purity 99%

System: ethyl octanoate; phases: Crystal, Liquid, Air at 1 atmosphere
Property: Normal melting temperature, K (Crystal); method: DTA
Normal melting temperature, K	uncertainty
230.35	1.25

System: ethyl decanoate; phases: Crystal, Liquid, Air at 1 atmosphere
Property: Normal melting temperature, K (Crystal); method: DTA
Normal melting temperature, K	uncertainty
254.51	1.25

System: ethyl dodecanoate; phases: Crystal, Liquid, Air at 1 atmosphere
Property: Normal melting temperature, K (Crystal); method: DTA
Normal melting temperature, K	uncertainty
272.59	1.25

System: ethyl tetradecanoate; phases: Crystal, Liquid, Air at 1 atmosphere
Property: Normal melting temperature, K (Crystal); method: DTA
Normal melting temperature, K	uncertainty
287.37	1.25

System: ethyl (Z)-9-octadeceneoate; phases: Crystal, Liquid, Air at 1 atmosphere
Property: Normal melting temperature, K (Crystal); method: DTA
Normal melting temperature, K	uncertainty
254.61	1.25

System: ethyl linoleate; phases: Crystal, Liquid, Air at 1 atmosphere
Property: Normal melting temperature, K (Crystal); method: DTA
Normal melting temperature, K	uncertainty
220.68	1.25

System: ethyl octanoate + ethyl decanoate; phases: Crystal, Crystal, Liquid, Air at 1 atmosphere
Property: Eutectic temperature, K (Crystal); method: DTA
Eutectic temperature, K	uncertainty
225.79	0.4

System: ethyl octanoate + ethyl decanoate; phases: Liquid, Crystal
Fixed: Pressure, kPa = 101
Property: Solid-liquid equilibrium temperature, K (Liquid); method: DTA
Mole fraction of ethyl octanoate	Solid-liquid equilibrium temperature, K	uncertainty
0	254.51	0.7
0.1079	251.98	0.7
0.2018	250.01	0.7
0.2865	248.01	0.7
0.4333	244.1	0.7
0.4975	242	0.7
0.6102	238.14	0.7
0.7195	234.72	0.7

System: ethyl octanoate + ethyl decanoate; phases: Liquid, Crystal
Fixed: Pressure, kPa = 101
Property: Solid-liquid equilibrium temperature, K (Liquid); method: DTA
Mole fraction of ethyl octanoate	Solid-liquid equilibrium temperature, K	uncertainty
0.9219	227.71	0.7
1	230.35	0.7

System: ethyl octanoate + ethyl dodecanoate; phases: Crystal, Crystal, Liquid, Air at 1 atmosphere
Property: Eutectic temperature, K (Crystal); method: DTA
Eutectic temperature, K	uncertainty
228.05	0.41

System: ethyl octanoate + ethyl dodecanoate; phases: Liquid, Crystal
Fixed: Pressure, kPa = 101
Property: Solid-liquid equilibrium temperature, K (Liquid); method: DTA
Mole fraction of ethyl octanoate	Solid-liquid equilibrium temperature, K	uncertainty
0	272.59	0.7
0.107	270.62	0.7
0.2137	268.4	0.7
0.2929	266.69	0.7
0.3809	265.61	0.7
0.4916	261.21	0.7
0.627	256.39	0.7
0.7237	255.23	0.7
0.8041	248.33	0.7
0.9	239.93	0.7

System: ethyl octanoate + ethyl dodecanoate; phases: Liquid, Crystal
Property: Solid-liquid equilibrium temperature, K (Liquid); method: DTA
Mole fraction of ethyl octanoate	Pressure, kPa	Solid-liquid equilibrium temperature, K	uncertainty
1	101	230.35	0.7

System: ethyl octanoate + ethyl tetradecanoate; phases: Crystal, Crystal, Liquid, Air at 1 atmosphere
Property: Eutectic temperature, K (Crystal); method: DTA
Eutectic temperature, K	uncertainty
229.83	0.4

System: ethyl octanoate + ethyl tetradecanoate; phases: Liquid, Crystal
Fixed: Pressure, kPa = 101
Property: Solid-liquid equilibrium temperature, K (Liquid); method: DTA
Mole fraction of ethyl octanoate	Solid-liquid equilibrium temperature, K	uncertainty
0	287.37	0.7
0.1088	285.93	0.7
0.1657	285.05	0.7
0.275	281.95	0.7
0.3559	280.19	0.7
0.5083	277.33	0.7
0.6113	273.75	0.7
0.7099	270.24	0.7
0.7905	266.59	0.7
0.8675	259.53	0.7

System: ethyl octanoate + ethyl tetradecanoate; phases: Liquid, Crystal
Property: Solid-liquid equilibrium temperature, K (Liquid); method: DTA
Mole fraction of ethyl octanoate	Pressure, kPa	Solid-liquid equilibrium temperature, K	uncertainty
1	101	230.35	0.7

System: ethyl dodecanoate + ethyl decanoate; phases: Crystal, Crystal, Liquid, Air at 1 atmosphere
Property: Eutectic temperature, K (Crystal); method: DTA
Eutectic temperature, K	uncertainty
249.67	0.41

System: ethyl dodecanoate + ethyl decanoate; phases: Liquid, Crystal
Fixed: Pressure, kPa = 101
Property: Solid-liquid equilibrium temperature, K (Liquid); method: DTA
Mole fraction of ethyl decanoate	Solid-liquid equilibrium temperature, K	uncertainty
0	272.59	0.7
0.0967	271.01	0.7
0.1979	268.74	0.7
0.2901	266.51	0.7
0.3901	264.79	0.7
0.4996	261.58	0.7
0.6	258.13	0.7
0.7105	255.09	0.7
0.7955	250.25	0.7

System: ethyl dodecanoate + ethyl decanoate; phases: Liquid, Crystal
Fixed: Pressure, kPa = 101
Property: Solid-liquid equilibrium temperature, K (Liquid); method: DTA
Mole fraction of ethyl decanoate	Solid-liquid equilibrium temperature, K	uncertainty
0.916	252.61	0.7
1	254.51	0.7

System: ethyl decanoate + ethyl tetradecanoate; phases: Crystal, Crystal, Liquid, Air at 1 atmosphere
Property: Eutectic temperature, K (Crystal); method: DTA
Eutectic temperature, K	uncertainty
252.2	0.39

System: ethyl decanoate + ethyl tetradecanoate; phases: Liquid, Crystal
Fixed: Pressure, kPa = 101
Property: Solid-liquid equilibrium temperature, K (Liquid); method: DTA
Mole fraction of ethyl decanoate	Solid-liquid equilibrium temperature, K	uncertainty
0	287.37	0.7
0.1264	285.81	0.7
0.1891	283.84	0.7
0.2786	284.08	0.7
0.3822	279.61	0.7
0.4854	278.15	0.7
0.5996	274.02	0.7
0.783	267.49	0.7
0.9006	252.15	0.71

System: ethyl decanoate + ethyl tetradecanoate; phases: Liquid, Crystal
Property: Solid-liquid equilibrium temperature, K (Liquid); method: DTA
Mole fraction of ethyl decanoate	Pressure, kPa	Solid-liquid equilibrium temperature, K	uncertainty
1	101	254.51	0.7

System: ethyl decanoate + ethyl (Z)-9-octadeceneoate; phases: Crystal, Crystal, Liquid, Air at 1 atmosphere
Property: Eutectic temperature, K (Crystal); method: DTA
Eutectic temperature, K	uncertainty
243.61	0.49

System: ethyl decanoate + ethyl (Z)-9-octadeceneoate; phases: Liquid, Crystal
Fixed: Pressure, kPa = 101
Property: Solid-liquid equilibrium temperature, K (Liquid); method: DTA
Mole fraction of ethyl decanoate	Solid-liquid equilibrium temperature, K	uncertainty
0	254.61	0.7
0.1097	251.69	0.7
0.1974	250.33	0.7
0.3134	248.3	0.7
0.3821	247.13	0.7
0.4891	244.72	0.7

System: ethyl decanoate + ethyl (Z)-9-octadeceneoate; phases: Liquid, Crystal
Fixed: Pressure, kPa = 101
Property: Solid-liquid equilibrium temperature, K (Liquid); method: DTA
Mole fraction of ethyl decanoate	Solid-liquid equilibrium temperature, K	uncertainty
0.5688	245.36	0.7
0.6885	247.92	0.7
0.7762	249.57	0.7
0.9007	252.09	0.7
1	254.51	0.7

System: ethyl decanoate + ethyl linoleate; phases: Crystal, Crystal, Liquid, Air at 1 atmosphere
Property: Eutectic temperature, K (Crystal); method: DTA
Eutectic temperature, K	uncertainty
216.91	0.42

System: ethyl decanoate + ethyl linoleate; phases: Liquid, Crystal
Fixed: Pressure, kPa = 101
Property: Solid-liquid equilibrium temperature, K (Liquid); method: DTA
Mole fraction of ethyl linoleate	Solid-liquid equilibrium temperature, K	uncertainty
0	254.51	0.7
0.0909	252.34	0.7
0.1694	250.71	0.7
0.2853	247.74	0.7
0.4333	243.69	0.7
0.6245	237.06	0.7
0.7028	232.67	0.7
0.7992	227.72	0.7

System: ethyl decanoate + ethyl linoleate; phases: Liquid, Crystal
Property: Solid-liquid equilibrium temperature, K (Liquid); method: DTA
Mole fraction of ethyl linoleate	Pressure, kPa	Solid-liquid equilibrium temperature, K	uncertainty
1	101	220.68	0.7

System: ethyl dodecanoate + ethyl linoleate; phases: Crystal, Crystal, Liquid, Air at 1 atmosphere
Property: Eutectic temperature, K (Crystal); method: DTA
Eutectic temperature, K	uncertainty
214.67	0.44

System: ethyl dodecanoate + ethyl linoleate; phases: Liquid, Crystal
Property: Solid-liquid equilibrium temperature, K (Liquid); method: DTA
Mole fraction of ethyl linoleate	Pressure, kPa	Solid-liquid equilibrium temperature, K	uncertainty
1	101	220.68	0.7

System: ethyl dodecanoate + ethyl linoleate; phases: Liquid, Crystal
Fixed: Pressure, kPa = 101
Property: Solid-liquid equilibrium temperature, K (Liquid); method: DTA
Mole fraction of ethyl linoleate	Solid-liquid equilibrium temperature, K	uncertainty
0	272.69	0.7
0.108	270.29	0.7
0.2184	268.16	0.7
0.4176	262.79	0.7
0.5107	259.43	0.7
0.58	257.36	0.7
0.7979	247.81	0.7
0.8966	238.78	0.7

System: ethyl tetradecanoate + ethyl linoleate; phases: Liquid, Crystal
Fixed: Pressure, kPa = 101
Property: Solid-liquid equilibrium temperature, K (Liquid); method: DTA
Mole fraction of ethyl linoleate	Solid-liquid equilibrium temperature, K	uncertainty
0	287.37	0.7
0.0925	286.66	0.7
0.2078	284.06	0.7
0.3342	280.96	0.7
0.4098	278.62	0.7
0.4788	277.35	0.7
0.5826	273.5	0.7
0.7051	269.42	0.7
0.8202	261.85	0.7
0.9026	255.13	0.7

System: ethyl tetradecanoate + ethyl linoleate; phases: Liquid, Crystal
Property: Solid-liquid equilibrium temperature, K (Liquid); method: DTA
Mole fraction of ethyl linoleate	Pressure, kPa	Solid-liquid equilibrium temperature, K	uncertainty
1	101	220.68	0.7
