Measured thermophysical data. Vapor liquid equilibrium data for the difluoromethane (R32) dimethyl ether (RE170) system at temperatures from 283.03 to 363.21K and pressures up to 5.5MPa
Source: Fluid Phase Equilib., 2005, 10.1016/j.fluid.2005.02.013
Compound 1: difluoromethane, CH2F2, InChI=1S/CH2F2/c2-1-3/h1H2
Compound 2: dimethyl ether, C2H6O, InChI=1S/C2H6O/c1-3-2/h1-2H3

System: difluoromethane + dimethyl ether; phases: Liquid, Gas
Property: Vapor or sublimation pressure, kPa (Liquid); method: Closed cell (Static) method
Mole fraction of difluoromethane	Temperature, K	Vapor or sublimation pressure, kPa	uncertainty
0.0814	343.21	2012.3	7.8
0.1057	353.16	2548	10.6
0.1163	363.21	3132.5	13.2
0.1253	328.16	1520.7	6.4
0.1357	298.11	715.1	3.8
0.1429	313.12	1080.9	5
0.1996	283.03	499.8	3.4
0.2295	363.21	3554.6	21
0.2357	343.21	2422.2	15.1
0.2494	353.16	3005.8	19
0.275	328.16	1822.7	13.2
0.279	298.11	867.4	6.8
0.309	313.12	1328.1	9.8
0.3207	283.03	587.4	5.1
0.3381	363.21	3988.8	30.2
0.3802	343.21	2829.8	23.8
0.3968	353.16	3505.7	29.8
0.4077	328.16	2108.8	19.1
0.4406	363.21	4409.4	39.6
0.4445	283.03	679.4	7.2
0.4576	313.12	1563.6	16.4
0.4702	298.11	1080	11.1
0.5067	343.21	3204.6	32.4
0.5338	328.16	2388	25.2
0.5349	353.16	3999.7	41.3
0.543	363.21	4850	50.8
0.567	283.03	775.7	9.2
0.6069	298.11	1233.6	14.3
0.607	313.12	1801.1	21.4
0.6372	343.21	3607.5	42.8
0.6527	353.16	4445.7	53
0.6553	363.21	5365.3	62.5
0.6556	328.16	2666.2	31.7
0.6859	363.21	5506	65.5
0.7242	283.03	895.9	11.4
0.7487	313.12	2036.9	27.6
0.7509	298.11	1395.5	17.8
0.7569	353.16	4869.6	64.8
0.7589	343.21	4007.6	52.6
0.7743	328.16	2947.5	38.9
0.8333	353.16	5196.8	73
0.8525	353.16	5276.8	73
0.8573	283.03	996.4	13.4
0.8654	313.12	2239.2	42.6
0.8665	298.11	1529.9	29.8
0.8786	328.16	3209.1	59.8
0.8825	343.21	4429	68.8

System: difluoromethane + dimethyl ether; phases: Gas, Liquid
Property: Mole fraction of difluoromethane (Gas); method: Chromatography
Mole fraction of difluoromethane	Temperature, K	Mole fraction of difluoromethane	uncertainty
0.0814	343.21	0.1446	0.0039
0.1057	353.16	0.1741	0.0047
0.1163	363.21	0.1802	0.0049
0.1253	328.16	0.2262	0.006
0.1357	298.11	0.2667	0.0071
0.1429	313.12	0.2695	0.0071
0.1996	283.03	0.3856	0.01
0.2295	363.21	0.3253	0.0089
0.2357	343.21	0.3665	0.01
0.2494	353.16	0.3688	0.01
0.275	328.16	0.4327	0.0117
0.279	298.11	0.4806	0.0125
0.309	313.12	0.4953	0.013
0.3207	283.03	0.5513	0.0138
0.3381	363.21	0.445	0.0119
0.3802	343.21	0.5258	0.0137
0.3968	353.16	0.5251	0.0136
0.4077	328.16	0.5792	0.0146
0.4406	363.21	0.54	0.0138
0.4445	283.03	0.6677	0.0157
0.4576	313.12	0.6464	0.0157
0.4702	298.11	0.6785	0.0163
0.5067	343.21	0.645	0.0158
0.5338	328.16	0.6901	0.0165
0.5349	353.16	0.6453	0.0159
0.543	363.21	0.6224	0.0152
0.567	283.03	0.7688	0.0174
0.6069	298.11	0.7801	0.0177
0.607	313.12	0.7654	0.0177
0.6372	343.21	0.7432	0.0177
0.6527	353.16	0.7348	0.0178
0.6553	363.21	0.7022	0.017
0.6556	328.16	0.7807	0.0182
0.6859	363.21	0.7217	0.017
0.7242	283.03	0.8635	0.0191
0.7487	313.12	0.8559	0.0195
0.7509	298.11	0.8653	0.0194
0.7569	353.16	0.8104	0.0196
0.7589	343.21	0.8316	0.0197
0.7743	328.16	0.8572	0.0199
0.8333	353.16	0.8641	0.0209
0.8525	353.16	0.8772	0.0211
0.8573	283.03	0.9324	0.0207
0.8654	313.12	0.9237	0.021
0.8665	298.11	0.9298	0.021
0.8786	328.16	0.9249	0.0216
0.8825	343.21	0.9134	0.0215
