Measured thermophysical data. Phase equilibria on binary systems containing diethyl sulfide
Source: Fluid Phase Equilib., 2011, 10.1016/j.fluid.2010.11.026
Compound 1: 3-thiapentane, C4H10S, InChI=1S/C4H10S/c1-3-5-4-2/h3-4H2,1-2H3
Compound 2: ethanol, C2H6O, InChI=1S/C2H6O/c1-2-3/h3H,2H2,1H3
Compound 3: propan-1-ol, C3H8O, InChI=1S/C3H8O/c1-2-3-4/h4H,2-3H2,1H3
Compound 4: propyl ethanoate, C5H10O2, InChI=1S/C5H10O2/c1-3-4-7-5(2)6/h3-4H2,1-2H3

System: ethanol; phases: Liquid, Gas
Property: Vapor or sublimation pressure, kPa (Liquid); method: Closed cell (Static) method
Temperature, K	Vapor or sublimation pressure, kPa	uncertainty
317	21.9	0.4
325.12	32.5	0.4
330.28	41.3	0.4
335.45	52	0.4
339.58	62.3	0.4
342.32	70	0.5
345.79	80.9	0.5
348.45	90.2	0.5
351.31	101.4	0.5

System: propan-1-ol; phases: Liquid, Gas
Property: Vapor or sublimation pressure, kPa (Liquid); method: Closed cell (Static) method
Temperature, K	Vapor or sublimation pressure, kPa	uncertainty
334.53	21.9	0.4
342.07	31.2	0.4
349.12	42.9	0.4
353.96	52.7	0.4
357.95	62.4	0.4
361.25	71.4	0.5
364.3	80.7	0.5
367.51	91.6	0.5
370.44	102.7	0.5

System: propyl ethanoate; phases: Liquid, Gas
Property: Vapor or sublimation pressure, kPa (Liquid); method: Closed cell (Static) method
Temperature, K	Vapor or sublimation pressure, kPa	uncertainty
331.7	22.2	0.4
340.16	31.1	0.4
348.06	41.8	0.4
353.27	50.4	0.4
359.55	62.7	0.4
363.29	71	0.4
367.42	81.4	0.5
371.07	91.5	0.5
374.29	101.4	0.5

System: ethanol + 3-thiapentane; phases: Liquid, Gas
Property: Azeotropic composition: mole fraction of 3-thiapentane (Liquid); method: By X=Y
Temperature, K	Azeotropic composition: mole fraction of 3-thiapentane	uncertainty
343.15	0.372	0.007

System: ethanol + 3-thiapentane; phases: Liquid, Gas
Property: Azeotropic composition: mole fraction of 3-thiapentane (Liquid); method: By X=Y
Pressure, kPa	Azeotropic composition: mole fraction of 3-thiapentane	uncertainty
88.4	0.372	0.007

System: ethanol + 3-thiapentane; phases: Liquid, Gas
Fixed: Temperature, K = 343.15
Property: Vapor or sublimation pressure, kPa (Liquid); method: Ebulliometric method (Recirculating still)
Mole fraction of 3-thiapentane	Vapor or sublimation pressure, kPa	uncertainty
0	72.5	0.6
0.024	75.6	0.9
0.045	78	0.8
0.085	81.5	0.7
0.141	84.6	0.7
0.207	86.8	0.7
0.287	88.1	0.7
0.389	88.5	0.7
0.508	87.7	0.7
0.648	85	0.7
0.799	79	0.7
0.926	66.1	1
0.991	52.7	1.8
1	50.1	0.5

System: ethanol + 3-thiapentane; phases: Gas, Liquid
Fixed: Temperature, K = 343.15
Property: Mole fraction of 3-thiapentane (Gas); method: Chromatography
Mole fraction of 3-thiapentane	Mole fraction of 3-thiapentane	uncertainty
0	0	
0.024	0.063	0.016
0.045	0.107	0.012
0.085	0.174	0.01
0.141	0.237	0.008
0.207	0.288	0.008
0.287	0.336	0.007
0.389	0.378	0.007
0.508	0.422	0.007
0.648	0.473	0.008
0.799	0.553	0.009
0.926	0.714	0.013
0.991	0.943	0.038
1	1	

System: propan-1-ol + 3-thiapentane; phases: Liquid, Gas
Property: Azeotropic composition: mole fraction of 3-thiapentane (Liquid); method: By X=Y
Temperature, K	Azeotropic composition: mole fraction of 3-thiapentane	uncertainty
358.15	0.64	0.007

System: propan-1-ol + 3-thiapentane; phases: Liquid, Gas
Property: Azeotropic composition: mole fraction of 3-thiapentane (Liquid); method: By X=Y
Pressure, kPa	Azeotropic composition: mole fraction of 3-thiapentane	uncertainty
96.8	0.64	0.007

System: propan-1-ol + 3-thiapentane; phases: Liquid, Gas
Fixed: Temperature, K = 358.15
Property: Vapor or sublimation pressure, kPa (Liquid); method: Ebulliometric method (Recirculating still)
Mole fraction of 3-thiapentane	Vapor or sublimation pressure, kPa	uncertainty
0	63	0.5
0.019	65.9	1
0.048	70	1
0.096	76	0.9
0.174	83.1	0.8
0.276	89.2	0.7
0.393	93.5	0.7
0.523	96	0.7
0.654	96.7	0.7
0.82	94.3	0.7
0.885	91.9	0.8
0.959	86.6	0.8
1	82.2	0.6

System: propan-1-ol + 3-thiapentane; phases: Gas, Liquid
Fixed: Temperature, K = 358.15
Property: Mole fraction of 3-thiapentane (Gas); method: Chromatography
Mole fraction of 3-thiapentane	Mole fraction of 3-thiapentane	uncertainty
0	0	
0.019	0.061	0.018
0.048	0.139	0.015
0.096	0.241	0.012
0.174	0.346	0.009
0.276	0.439	0.008
0.393	0.517	0.008
0.523	0.584	0.008
0.654	0.647	0.008
0.82	0.751	0.008
0.885	0.814	0.009
0.959	0.911	0.011
1	1	

System: propyl ethanoate + 3-thiapentane; phases: Liquid, Gas
Fixed: Temperature, K = 363.15
Property: Vapor or sublimation pressure, kPa (Liquid); method: Ebulliometric method (Recirculating still)
Mole fraction of 3-thiapentane	Vapor or sublimation pressure, kPa	uncertainty
0	70.8	0.6
0.142	76.1	0.6
0.213	78.5	0.6
0.302	81.4	0.7
0.403	84.3	0.7
0.517	87.3	0.7
0.627	89.9	0.7
0.733	92	0.7
0.826	93.6	0.7
0.906	94.8	0.7
1	96	0.7

System: propyl ethanoate + 3-thiapentane; phases: Gas, Liquid
Fixed: Temperature, K = 363.15
Property: Mole fraction of 3-thiapentane (Gas); method: Chromatography
Mole fraction of 3-thiapentane	Mole fraction of 3-thiapentane	uncertainty
0	0	
0.142	0.199	0.01
0.213	0.284	0.01
0.302	0.388	0.009
0.403	0.488	0.009
0.517	0.587	0.009
0.627	0.683	0.008
0.733	0.772	0.008
0.826	0.851	0.008
0.906	0.918	0.008
1	1	
