Measured thermophysical data. Electrical conductivity investigation of diluted potassium chloride solutions in binary mixture triethylamine-water near its consolute point
Source: Fluid Phase Equilib., 2011, 10.1016/j.fluid.2011.03.031
Compound 1: potassium chloride, ClK, InChI=1S/ClH.K/h1H;/q;+1/p-1, purity 99.5%
Compound 2: triethylamine, C6H15N, InChI=1S/C6H15N/c1-4-7(5-2)6-3/h4-6H2,1-3H3, purity 99.95%
Compound 3: water, H2O, InChI=1S/H2O/h1H2

System: triethylamine + water; phases: Liquid
Fixed: Pressure, kPa = 101
Fixed: Mass fraction of triethylamine = 0.321
Property: Electrical conductivity, S/m (Liquid); method: Phywe conductometer
Temperature, K	Electrical conductivity, S/m	uncertainty
284.652	0.04696	0.00011
285.144	0.04816	0.0001
285.639	0.04926	0.0001
286.141	0.05046	0.0001
286.647	0.05156	0.0001
287.137	0.05276	0.0001
287.655	0.05396	0.0001
288.091	0.05496	0.0001
288.592	0.05616	0.0001
288.892	0.05676	0.0001
289.143	0.05736	0.00011
289.416	0.05806	0.0001
289.648	0.05856	0.0001
289.907	0.05916	0.0001
290.151	0.05976	0.00011
290.334	0.06026	0.00012
290.437	0.06056	0.0001
290.545	0.06076	0.0001
290.647	0.06106	0.00013
290.745	0.06136	0.00013
290.842	0.06166	0.00013
290.938	0.06196	0.00012
291.045	0.06226	0.00012
291.146	0.06256	0.00014
291.19	0.06276	0.00013
291.24	0.06286	0.00013
291.285	0.06306	0.00017
291.339	0.06326	0.00015
291.393	0.06346	0.00015

System: triethylamine + water; phases: Liquid
Fixed: Pressure, kPa = 101
Fixed: Mass fraction of triethylamine = 0.321
Property: Mass density, kg/m3 (Liquid); method: Vibrating tube method
Temperature, K	Mass density, kg/m3	uncertainty
284.652	935.6	0.4
285.144	935.2	0.4
285.639	934.7	0.4
286.141	934.2	0.4
286.647	933.7	0.4
287.137	933.1	0.4
287.655	932.5	0.4
288.091	932	0.4
288.592	931.4	0.4
288.892	931	0.4
289.143	930.7	0.4
289.416	930.3	0.4
289.648	930	0.4
289.907	929.6	0.4
290.151	929.3	0.4
290.334	929	0.4
290.437	928.9	0.4
290.545	928.7	0.4
290.647	928.6	0.4
290.745	928.4	0.4
290.842	928.3	0.4
290.938	928.2	0.4
291.045	928	0.4
291.146	927.8	0.4
291.19	927.8	0.4
291.24	927.7	0.4
291.285	927.6	0.4
291.339	927.5	0.4
291.393	927.5	0.4

System: triethylamine + potassium chloride + water; phases: Liquid
Fixed: Solvent: Mass fraction of triethylamine = 0.321
Fixed: Pressure, kPa = 101
Property: Electrical conductivity, S/m (Liquid); method: Phywe conductometer
Temperature, K	Molality, mol/kg of potassium chloride	Electrical conductivity, S/m	uncertainty
284.665	0.001	0.05366	9e-05
284.779	0.005	0.06656	9e-05
284.832	0.0005	0.05116	0.0001
285.144	0.001	0.05456	8e-05
285.156	0.0005	0.05186	0.0001
285.213	0.005	0.06746	9e-05
285.639	0.001	0.05546	8e-05
285.706	0.0005	0.05306	0.0001
285.725	0.005	0.06856	0.0001
285.938	0.001	0.05596	8e-05
286.131	0.0005	0.05396	9e-05
286.151	0.005	0.06953	0.0001
286.339	0.001	0.05676	8e-05
286.599	0.005	0.07056	0.00011
286.645	0.0005	0.05506	0.0001
286.837	0.001	0.05746	8e-05
286.893	0.005	0.07136	0.00011
287.181	0.001	0.05826	9e-05
287.29	0.0005	0.05646	0.0001
287.294	0.005	0.07226	0.0001
287.583	0.001	0.05896	9e-05
287.642	0.005	0.07316	0.00012
287.643	0.0005	0.05726	9e-05
287.861	0.0005	0.05756	9e-05
287.884	0.005	0.07386	0.00013
287.941	0.001	0.05976	0.0001
288.134	0.005	0.07466	0.00012
288.136	0.001	0.06026	0.0001
288.152	0.0005	0.05826	0.0001
288.395	0.005	0.07526	0.00012
288.417	0.0005	0.05886	0.0001
288.484	0.001	0.06106	0.0001
288.634	0.005	0.07606	0.00012
288.641	0.001	0.06136	0.0001
288.651	0.0005	0.05936	0.0001
288.837	0.0005	0.05986	0.0001
288.886	0.001	0.06196	0.00011
288.906	0.005	0.07676	0.00012
289.134	0.001	0.06256	0.00011
289.138	0.0005	0.06046	0.00011
289.153	0.005	0.07746	0.00013
289.361	0.001	0.06316	0.0001
289.361	0.005	0.07816	0.00013
289.363	0.0005	0.06116	0.0001
289.642	0.0005	0.06166	0.00011
289.643	0.001	0.06376	0.00011
289.647	0.005	0.07896	0.00013
289.761	0.005	0.07936	0.00014
289.852	0.005	0.07966	0.00014
289.905	0.0005	0.06256	0.00012
289.947	0.001	0.06466	0.00012
290.032	0.005	0.08026	0.00014
290.12	0.0005	0.06296	0.00011
290.126	0.005	0.08056	0.00014
290.152	0.001	0.06516	0.00012
290.215	0.005	0.08086	0.00015
290.317	0.0005	0.06366	0.00013
290.322	0.005	0.08126	0.00013
290.325	0.001	0.06576	0.00013
290.431	0.0005	0.06386	0.0001
290.434	0.001	0.06606	0.00011
290.434	0.005	0.08156	0.00012
290.525	0.0005	0.06416	0.00013
290.529	0.001	0.06626	0.00011
290.536	0.005	0.08186	0.00013
290.625	0.005	0.08216	0.00014
290.631	0.001	0.06656	0.00013
290.633	0.0005	0.06446	0.00013
290.722	0.001	0.06686	0.00012
290.727	0.0005	0.06476	0.00013
290.742	0.005	0.08256	0.00016
290.824	0.0005	0.06506	0.00013
290.835	0.001	0.06716	0.00012
290.837	0.005	0.08296	0.00016
290.915	0.0005	0.06536	0.00012
290.928	0.001	0.06746	0.00013
290.929	0.005	0.08326	0.00013
290.973	0.005	0.08336	0.0001
291.001	0.005	0.08346	0.00012
291.025	0.001	0.06776	0.00014
291.042	0.0005	0.06566	0.00012
291.076	0.001	0.06796	0.00012
291.127	0.001	0.06806	0.00012
291.13	0.0005	0.06596	0.00014
291.184	0.001	0.06826	0.00015
291.191	0.0005	0.06616	0.00014
291.223	0.001	0.06836	0.00013
291.245	0.0005	0.06636	0.00016
291.295	0.0005	0.06656	0.00017
291.343	0.0005	0.06676	0.00017

System: triethylamine + potassium chloride + water; phases: Liquid
Fixed: Pressure, kPa = 101
Fixed: Solvent: Mass fraction of triethylamine = 0.321
Property: Mass density, kg/m3 (Liquid); method: Vibrating tube method
Temperature, K	Molality, mol/kg of potassium chloride	Mass density, kg/m3	uncertainty
284.665	0.001	936.1	1
284.779	0.005	936.6	0.4
284.832	0.0005	935.5	1
285.144	0.001	935.7	1
285.156	0.0005	935.2	1.1
285.213	0.005	936.3	0.4
285.639	0.001	935.2	1
285.706	0.0005	934.7	1
285.725	0.005	935.8	0.4
285.938	0.001	934.9	1.1
286.131	0.0005	934.2	1
286.151	0.005	935.4	0.4
286.339	0.001	934.5	1.1
286.599	0.005	935	0.5
286.645	0.0005	933.7	1.1
286.837	0.001	934	1
286.893	0.005	934.7	0.5
287.181	0.001	933.6	1.1
287.29	0.0005	933	1.1
287.294	0.005	934.2	0.5
287.583	0.001	933.2	1.1
287.642	0.005	933.8	0.4
287.643	0.0005	932.6	1.2
287.861	0.0005	932.3	1.3
287.884	0.005	933.6	0.4
287.941	0.001	932.8	1.2
288.134	0.005	933.3	0.5
288.136	0.001	932.5	1.3
288.152	0.0005	931.9	1.2
288.395	0.005	932.9	0.4
288.417	0.0005	931.6	1.3
288.484	0.001	932.1	1.2
288.634	0.005	932.6	0.4
288.641	0.001	931.9	1.3
288.651	0.0005	931.3	1.2
288.837	0.0005	931.1	1.2
288.886	0.001	931.6	1.2
288.906	0.005	932.3	0.4
289.134	0.001	931.2	1.1
289.138	0.0005	930.7	1.1
289.153	0.005	932	0.5
289.361	0.001	930.9	1.1
289.361	0.005	931.7	0.5
289.363	0.0005	930.4	1.1
289.642	0.0005	930	1.1
289.643	0.001	930.5	1.1
289.647	0.005	931.3	0.5
289.761	0.005	931.1	0.5
289.852	0.005	931	0.5
289.905	0.0005	929.6	1.2
289.947	0.001	930.1	1.2
290.032	0.005	930.7	0.5
290.12	0.0005	929.3	1.1
290.126	0.005	930.6	0.5
290.152	0.001	929.8	1.2
290.215	0.005	930.5	0.5
290.317	0.0005	929.1	1.2
290.322	0.005	930.3	0.5
290.325	0.001	929.6	1
290.431	0.0005	928.9	1
290.434	0.001	929.4	1.1
290.434	0.005	930.1	0.5
290.525	0.0005	928.8	1.1
290.529	0.001	929.3	1
290.536	0.005	930	0.4
290.625	0.005	929.8	0.5
290.631	0.001	929.1	1.1
290.633	0.0005	928.6	1
290.722	0.001	929	1
290.727	0.0005	928.5	1.1
290.742	0.005	929.7	0.4
290.824	0.0005	928.3	1.1
290.835	0.001	928.8	1.1
290.837	0.005	929.5	0.5
290.915	0.0005	928.2	1
290.928	0.001	928.6	1
290.929	0.005	929.4	0.5
290.973	0.005	929.3	0.5
291.001	0.005	929.2	0.5
291.025	0.001	928.5	1
291.042	0.0005	928	1
291.076	0.001	928.4	1
291.127	0.001	928.3	0.9
291.13	0.0005	927.9	0.9
291.184	0.001	928.2	0.9
291.191	0.0005	927.8	0.9
291.223	0.001	928.2	1
291.245	0.0005	927.7	1
291.295	0.0005	927.6	1
291.343	0.0005	927.5	1
