Measured thermophysical data. Thermodynamic properties of cyclohexane methanol liquid mixture from shear viscosity measurements
Source: Fluid Phase Equilib., 2014, 10.1016/j.fluid.2014.10.013
Compound 1: cyclohexane, C6H12, InChI=1S/C6H12/c1-2-4-6-5-3-1/h1-6H2, purity 99.8%
Compound 2: methanol, CH4O, InChI=1S/CH4O/c1-2/h2H,1H3, purity 99.8%

System: cyclohexane; phases: Liquid
Fixed: Pressure, kPa = 101.325
Property: Mass density, kg/m3 (Liquid); method: Vibrating tube method
Temperature, K	Mass density, kg/m3	uncertainty
313.15	759.41	0.16
318.15	754.6	0.16
323.15	749.76	0.16

System: cyclohexane; phases: Liquid
Fixed: Pressure, kPa = 101.325
Property: Viscosity, Pa*s (Liquid); method: Capillary tube (Ostwald; Ubbelohde) method
Temperature, K	Viscosity, Pa*s	uncertainty
313.15	0.0006987	5.9e-06
318.15	0.0006394	5.5e-06
323.15	0.0005842	5.1e-06

System: methanol; phases: Liquid
Fixed: Pressure, kPa = 101.325
Property: Mass density, kg/m3 (Liquid); method: Vibrating tube method
Temperature, K	Mass density, kg/m3	uncertainty
313.15	772.89	0.15
318.15	768.09	0.16
323.15	763.24	0.16

System: methanol; phases: Liquid
Fixed: Pressure, kPa = 101.325
Property: Viscosity, Pa*s (Liquid); method: Capillary tube (Ostwald; Ubbelohde) method
Temperature, K	Viscosity, Pa*s	uncertainty
313.15	0.0004501	4.2e-06
318.15	0.0004247	4e-06
323.15	0.000401	3.8e-06

System: methanol + cyclohexane; phases: Liquid mixture 1, Liquid mixture 2
Fixed: Pressure, kPa = 101.32
Property: Liquid-liquid equilibrium temperature, K (Liquid mixture 1); method: VISOBS
Mole fraction of methanol	Liquid-liquid equilibrium temperature, K	uncertainty
0.8597	287.975	0.34
0.8299	296.985	0.29
0.824	298.429	0.288
0.814	300.855	0.268
0.806	302.34	0.269
0.7975	304.475	0.247
0.7804	307.355	0.233
0.7624	310.577	0.208
0.7438	312.455	0.19
0.7242	314.763	0.182
0.704	316.25	0.168
0.6824	317.477	0.161
0.66	318.153	0.157
0.6365	318.72	0.155
0.5858	318.85	0.155
0.5527	319.1	0.155
0.5295	319.21	0.155
0.5175	319.6	0.155
0.4993	319.353	0.156
0.4927	319.23	0.155
0.4799	319.457	0.155
0.4668	319.29	0.155
0.4534	319.555	0.155
0.4396	319.6	0.155
0.4255	319.23	0.155
0.4111	319.455	0.155
0.3963	319.14	0.155
0.3812	319.42	0.156
0.3498	318.5	0.159
0.3167	317.055	0.16
0.2637	315.065	0.161
0.2259	313.171	0.255
0.222	312.38	0.255
0.2062	310.275	0.178
0.1859	309.166	0.175
0.1713	307.339	0.255
0.165	304.575	0.21
0.1435	302.809	0.186
0.1295	300.853	0.249
0.1214	298.355	0.248
0.1108	297.15	0.192

System: methanol + cyclohexane; phases: Liquid
Fixed: Pressure, kPa = 101.32
Property: Mass density, kg/m3 (Liquid); method: Vibrating tube method
Temperature, K	Mole fraction of methanol	Mass density, kg/m3	uncertainty
321.15	1	765.18	0.15
321.15	0.959	760.9	0.18
321.15	0.913	756.79	0.17
321.15	0.86	753.62	0.17
321.15	0.83	752.41	0.16
321.15	0.798	752.02	0.16
321.15	0.762	751.22	0.16
321.15	0.724	750.76	0.16
321.15	0.637	749.61	0.16
321.15	0.527	749.02	0.16
321.15	0.5	748.58	0.16
321.15	0.467	748.53	0.16
321.15	0.396	748.75	0.16
321.15	0.226	748.95	0.16
321.15	0.121	749.62	0.16
321.15	0	751.7	0.16
322.15	1	764.21	0.15
322.15	0.959	759.92	0.18
322.15	0.913	755.8	0.17
322.15	0.86	752.62	0.17
322.15	0.83	751.4	0.16
322.15	0.798	751	0.16
322.15	0.762	750.2	0.16
322.15	0.724	749.74	0.16
322.15	0.637	748.55	0.16
322.15	0.527	747.95	0.16
322.15	0.5	747.54	0.16
322.15	0.467	747.49	0.16
322.15	0.396	747.73	0.16
322.15	0.226	747.92	0.16
322.15	0.121	748.62	0.16
322.15	0	750.73	0.16
323.15	1	763.24	0.16
323.15	0.959	758.94	0.18
323.15	0.913	754.81	0.17
323.15	0.86	751.61	0.17
323.15	0.83	750.37	0.16
323.15	0.798	749.69	0.16
323.15	0.762	748.78	0.16
323.15	0.724	748.73	0.16
323.15	0.637	747.51	0.16
323.15	0.527	746.89	0.16
323.15	0.5	746.49	0.16
323.15	0.467	746.44	0.16
323.15	0.396	746.71	0.16
323.15	0.226	746.88	0.16
323.15	0.121	747.61	0.16
323.15	0	749.76	0.16
325.15	1	761.42	0.16
325.15	0.959	757.17	0.18
325.15	0.913	753.05	0.17
325.15	0.86	749.82	0.17
325.15	0.83	748.52	0.16
325.15	0.798	748.08	0.16
325.15	0.762	747.25	0.16
325.15	0.724	746.82	0.16
325.15	0.637	745.15	0.16
325.15	0.527	744.84	0.16
325.15	0.5	745.11	0.16
325.15	0.467	744.47	0.16
325.15	0.396	744.54	0.16
325.15	0.226	744.79	0.16
325.15	0.121	745.68	0.16
325.15	0	747.95	0.16

System: methanol + cyclohexane; phases: Liquid
Fixed: Pressure, kPa = 101.32
Property: Viscosity, Pa*s (Liquid); method: Capillary tube (Ostwald; Ubbelohde) method
Temperature, K	Mole fraction of methanol	Viscosity, Pa*s	uncertainty
321.15	1	0.0004101	1.04e-05
321.15	0.959	0.0004053	1.04e-05
321.15	0.913	0.0004122	1.04e-05
321.15	0.86	0.0004249	1.04e-05
321.15	0.83	0.0004338	1.04e-05
321.15	0.798	0.0004443	1.04e-05
321.15	0.762	0.0004569	1.04e-05
321.15	0.724	0.0004688	1.05e-05
321.15	0.637	0.0005116	1.05e-05
321.15	0.527	0.0005771	1.07e-05
321.15	0.5	0.0005933	1.07e-05
321.15	0.467	0.0005629	1.06e-05
321.15	0.396	0.0005423	1.06e-05
321.15	0.226	0.0005465	1.06e-05
321.15	0.121	0.0005549	1.06e-05
321.15	0	0.0005964	1.07e-05
322.15	1	0.0004068	1.04e-05
322.15	0.959	0.0004003	1.04e-05
322.15	0.913	0.0004074	1.04e-05
322.15	0.86	0.0004198	1.04e-05
322.15	0.83	0.0004284	1.04e-05
322.15	0.798	0.0004363	1.04e-05
322.15	0.762	0.0004514	1.04e-05
322.15	0.724	0.0004624	1.05e-05
322.15	0.637	0.0005017	1.05e-05
322.15	0.527	0.0005464	1.06e-05
322.15	0.5	0.0005559	1.06e-05
322.15	0.467	0.0005508	1.06e-05
322.15	0.396	0.0005334	1.06e-05
322.15	0.226	0.0005386	1.06e-05
322.15	0.121	0.0005469	1.06e-05
322.15	0	0.0005901	1.07e-05
323.15	1	0.000401	1.04e-05
323.15	0.959	0.0003956	1.04e-05
323.15	0.913	0.0004024	1.04e-05
323.15	0.86	0.0004148	1.04e-05
323.15	0.83	0.0004233	1.04e-05
323.15	0.798	0.0004338	1.04e-05
323.15	0.762	0.0004459	1.04e-05
323.15	0.724	0.0004564	1.04e-05
323.15	0.637	0.0004925	1.05e-05
323.15	0.527	0.00053	1.06e-05
323.15	0.5	0.0005379	1.06e-05
323.15	0.467	0.0005356	1.06e-05
323.15	0.396	0.0005239	1.05e-05
323.15	0.226	0.0005465	1.06e-05
323.15	0.121	0.000539	1.06e-05
323.15	0	0.0005842	1.06e-05
325.15	1	0.0003925	1.04e-05
325.15	0.959	0.0003862	1.03e-05
325.15	0.913	0.0003931	1.04e-05
325.15	0.86	0.0004048	1.04e-05
325.15	0.83	0.000413	1.04e-05
325.15	0.798	0.0004234	1.04e-05
325.15	0.762	0.0004352	1.04e-05
325.15	0.724	0.0004438	1.04e-05
325.15	0.637	0.000476	1.05e-05
325.15	0.527	0.000506	1.05e-05
325.15	0.5	0.0005133	1.05e-05
325.15	0.467	0.0005129	1.05e-05
325.15	0.396	0.0005071	1.05e-05
325.15	0.226	0.0005153	1.05e-05
325.15	0.121	0.000524	1.05e-05
325.15	0	0.0005734	1.06e-05
