Measured thermophysical data. Vapor liquid equilibria for binary and ternary mixtures of ethanol, 2-butanone, and 2,2,4-trimethylpentane at 101.3 kPa
Source: Fluid Phase Equilib., 2007, 10.1016/j.fluid.2007.06.005
Compound 1: 2,2,4-trimethylpentane, C8H18, InChI=1S/C8H18/c1-7(2)6-8(3,4)5/h7H,6H2,1-5H3, purity 99.5%
Compound 2: ethanol, C2H6O, InChI=1S/C2H6O/c1-2-3/h3H,2H2,1H3, purity 99.9%
Compound 3: butanone, C4H8O, InChI=1S/C4H8O/c1-3-4(2)5/h3H2,1-2H3, purity 99.9%

System: 2,2,4-trimethylpentane; phases: Liquid
Property: Refractive index (Na D-line) (Liquid); method: Standard Abbe refractometry
Temperature, K	Pressure, kPa	Refractive index (Na D-line)	uncertainty
298.15	101.325	1.38887	0.00042

System: 2,2,4-trimethylpentane; phases: Liquid
Property: Mass density, kg/m3 (Liquid); method: VIBTUB:UFactor:4
Temperature, K	Pressure, kPa	Mass density, kg/m3	uncertainty
298.15	101.325	687.72	0.65

System: ethanol; phases: Liquid
Property: Refractive index (Na D-line) (Liquid); method: Standard Abbe refractometry
Temperature, K	Pressure, kPa	Refractive index (Na D-line)	uncertainty
298.15	101.325	1.35949	0.00041

System: ethanol; phases: Liquid
Property: Mass density, kg/m3 (Liquid); method: VIBTUB:UFactor:2
Temperature, K	Pressure, kPa	Mass density, kg/m3	uncertainty
298.15	101.325	785.09	0.24

System: butanone; phases: Liquid
Property: Refractive index (Na D-line) (Liquid); method: Standard Abbe refractometry
Temperature, K	Pressure, kPa	Refractive index (Na D-line)	uncertainty
298.15	101.325	1.37623	0.00041

System: butanone; phases: Liquid
Property: Mass density, kg/m3 (Liquid); method: VIBTUB:UFactor:2
Temperature, K	Pressure, kPa	Mass density, kg/m3	uncertainty
298.15	101.325	799.68	0.22

System: ethanol + butanone; phases: Liquid, Gas
Fixed: Pressure, kPa = 101.3
Property: Boiling temperature at pressure P, K (Liquid); method: Ebulliometric method (Recirculating still)
Mole fraction of ethanol	Boiling temperature at pressure P, K	uncertainty
0	352.72	0.13
0.036	351.69	0.2
0.07	351	0.17
0.106	350.36	0.17
0.142	349.71	0.16
0.197	348.9	0.2
0.258	348.32	0.14
0.305	347.95	0.14
0.374	347.69	0.13
0.432	347.55	0.13
0.491	347.48	0.13
0.543	347.5	0.13
0.597	347.56	0.13
0.644	347.7	0.13
0.695	347.91	0.14
0.752	348.21	0.14
0.787	348.58	0.14
0.842	349.06	0.15
0.898	349.7	0.15
0.958	350.45	0.17
1	351.44	0.13

System: ethanol + butanone; phases: Liquid, Gas
Property: Azeotropic temperature, K (Liquid); method: By T(X) extreme
Pressure, kPa	Azeotropic temperature, K	uncertainty
101.3	347.46	0.3

System: ethanol + butanone; phases: Gas, Liquid
Fixed: Pressure, kPa = 101.3
Property: Mole fraction of ethanol (Gas); method: CHROM:UFactor:2
Mole fraction of ethanol	Mole fraction of ethanol	uncertainty
0	0	0.001
0.036	0.06	0.011
0.07	0.112	0.011
0.106	0.161	0.01
0.142	0.205	0.01
0.197	0.27	0.01
0.258	0.332	0.01
0.305	0.368	0.01
0.374	0.42	0.01
0.432	0.454	0.011
0.491	0.495	0.011
0.543	0.534	0.011
0.597	0.565	0.01
0.644	0.604	0.01
0.695	0.642	0.01
0.752	0.692	0.01
0.787	0.729	0.01
0.842	0.781	0.009
0.898	0.841	0.01
0.958	0.914	0.011
1	1	0.001

System: ethanol + butanone; phases: Liquid, Gas
Property: Azeotropic composition: mole fraction of ethanol (Liquid); method: By T or P extreme
Pressure, kPa	Azeotropic composition: mole fraction of ethanol	uncertainty
101.3	0.504	0.007

System: ethanol + 2,2,4-trimethylpentane; phases: Liquid, Gas
Fixed: Pressure, kPa = 101.3
Property: Boiling temperature at pressure P, K (Liquid); method: Ebulliometric method (Recirculating still)
Mole fraction of ethanol	Boiling temperature at pressure P, K	uncertainty
0	372.33	0.13
0.028	361.27	1.9
0.058	353.92	1.22
0.088	349.19	0.54
0.144	346.02	0.17
0.273	345.5	0.14
0.307	345.34	0.14
0.333	345.22	0.14
0.4	344.9	0.13
0.446	344.85	0.13
0.502	344.63	0.13
0.545	344.53	0.13
0.597	344.48	0.13
0.652	344.44	0.13
0.705	344.48	0.13
0.765	344.61	0.13
0.8	344.82	0.14
0.86	345.32	0.15
0.902	346.16	0.24
0.958	348.57	0.35
1	351.44	0.13

System: ethanol + 2,2,4-trimethylpentane; phases: Liquid, Gas
Property: Azeotropic temperature, K (Liquid); method: By T(X) extreme
Pressure, kPa	Azeotropic temperature, K	uncertainty
101.3	344.43	0.3

System: ethanol + 2,2,4-trimethylpentane; phases: Gas, Liquid
Fixed: Pressure, kPa = 101.3
Property: Mole fraction of ethanol (Gas); method: CHROM:UFactor:2
Mole fraction of ethanol	Mole fraction of ethanol	uncertainty
0	0	0.001
0.028	0.287	0.045
0.058	0.43	0.025
0.088	0.52	0.014
0.144	0.58	0.01
0.273	0.6	0.009
0.307	0.603	0.009
0.333	0.608	0.009
0.4	0.618	0.009
0.446	0.62	0.009
0.502	0.626	0.009
0.545	0.631	0.009
0.597	0.64	0.009
0.652	0.648	0.009
0.705	0.657	0.009
0.765	0.677	0.008
0.8	0.689	0.008
0.86	0.713	0.009
0.902	0.756	0.01
0.958	0.83	0.016
1	1	0.001

System: ethanol + 2,2,4-trimethylpentane; phases: Liquid, Gas
Property: Azeotropic composition: mole fraction of ethanol (Liquid); method: By T or P extreme
Pressure, kPa	Azeotropic composition: mole fraction of ethanol	uncertainty
101.3	0.646	0.005

System: butanone + 2,2,4-trimethylpentane; phases: Liquid, Gas
Fixed: Pressure, kPa = 101.3
Property: Boiling temperature at pressure P, K (Liquid); method: Ebulliometric method (Recirculating still)
Mole fraction of butanone	Boiling temperature at pressure P, K	uncertainty
0	372.33	0.13
0.03	368.6	0.65
0.069	364.92	0.5
0.111	362.06	0.39
0.152	359.81	0.32
0.204	357.48	0.25
0.26	355.9	0.2
0.313	354.74	0.18
0.381	353.49	0.17
0.422	352.92	0.15
0.477	352.31	0.15
0.536	351.73	0.14
0.585	351.39	0.14
0.636	351.01	0.14
0.677	350.79	0.14
0.718	350.65	0.13
0.789	350.63	0.13
0.845	350.8	0.14
0.892	351.12	0.14
0.943	351.7	0.16
1	352.72	0.13

System: butanone + 2,2,4-trimethylpentane; phases: Liquid, Gas
Property: Azeotropic temperature, K (Liquid); method: By T(X) extreme
Pressure, kPa	Azeotropic temperature, K	uncertainty
101.3	350.52	0.3

System: butanone + 2,2,4-trimethylpentane; phases: Gas, Liquid
Fixed: Pressure, kPa = 101.3
Property: Mole fraction of butanone (Gas); method: CHROM:UFactor:2
Mole fraction of butanone	Mole fraction of butanone	uncertainty
0	0	0.001
0.03	0.125	0.021
0.069	0.229	0.015
0.111	0.309	0.013
0.152	0.372	0.012
0.204	0.445	0.012
0.26	0.493	0.011
0.313	0.531	0.011
0.381	0.567	0.01
0.422	0.594	0.01
0.477	0.618	0.009
0.536	0.649	0.009
0.585	0.673	0.009
0.636	0.699	0.009
0.677	0.726	0.009
0.718	0.753	0.008
0.789	0.785	0.008
0.845	0.825	0.008
0.892	0.87	0.009
0.943	0.925	0.01
1	1	0.001

System: butanone + 2,2,4-trimethylpentane; phases: Liquid, Gas
Property: Azeotropic composition: mole fraction of butanone (Liquid); method: By T or P extreme
Pressure, kPa	Azeotropic composition: mole fraction of butanone	uncertainty
101.3	0.783	0.004

System: ethanol + butanone + 2,2,4-trimethylpentane; phases: Liquid, Gas
Fixed: Pressure, kPa = 101.3
Property: Mole fraction of butanone (Liquid); method: CHROM:UFactor:2
Property: Mole fraction of butanone (Gas); method: CHROM:UFactor:2
Property: Mole fraction of ethanol (Gas); method: CHROM:UFactor:2
Temperature, K	Mole fraction of ethanol	Mole fraction of butanone	uncertainty	Mole fraction of butanone	uncertainty	Mole fraction of ethanol	uncertainty
343.97	0.53	0.157	0.006	0.162	0.007	0.558	
343.98	0.529	0.26	0.007	0.25	0.007	0.517	
343.98	0.635	0.152	0.006	0.16	0.01	0.599	
344.14	0.443	0.263	0.007	0.256	0.007	0.489	
344.19	0.642	0.05	0.006	0.058	0.006	0.651	
344.21	0.43	0.159	0.006	0.167	0.007	0.545	
344.27	0.415	0.368	0.008	0.331	0.008	0.456	
344.29	0.74	0.049	0.006	0.058	0.006	0.673	
344.32	0.545	0.052	0.006	0.059	0.006	0.623	
344.36	0.617	0.254	0.007	0.253	0.007	0.555	
344.47	0.513	0.358	0.008	0.333	0.008	0.49	
344.48	0.72	0.151	0.006	0.166	0.007	0.621	
344.62	0.305	0.376	0.008	0.27	0.008	0.446	
344.67	0.447	0.052	0.006	0.061	0.006	0.609	
344.69	0.319	0.271	0.007	0.271	0.008	0.449	
344.81	0.406	0.463	0.009	0.409	0.009	0.434	
344.85	0.319	0.463	0.009	0.413	0.009	0.374	
344.9	0.822	0.049	0.006	0.062	0.006	0.705	
345.38	0.326	0.052	0.006	0.066	0.006	0.58	
345.48	0.305	0.565	0.009	0.485	0.01	0.357	
345.79	0.22	0.484	0.009	0.442	0.01	0.322	
345.91	0.607	0.348	0.008	0.357	0.009	0.553	
345.97	0.507	0.449	0.009	0.43	0.009	0.488	
346.02	0.212	0.565	0.009	0.507	0.01	0.331	
346.11	0.706	0.248	0.007	0.276	0.008	0.624	
346.21	0.212	0.277	0.007	0.3	0.008	0.381	
346.26	0.405	0.549	0.009	0.499	0.01	0.427	
346.32	0.212	0.167	0.006	0.203	0.007	0.455	
346.4	0.219	0.637	0.008	0.567	0.01	0.26	
346.58	0.808	0.146	0.006	0.185	0.007	0.703	
346.85	0.3	0.653	0.008	0.577	0.009	0.349	
347.37	0.909	0.047	0.006	0.07	0.006	0.804	
347.77	0.091	0.565	0.009	0.55	0.01	0.174	
347.83	0.093	0.669	0.008	0.613	0.009	0.164	
347.83	0.217	0.74	0.007	0.665	0.008	0.264	
347.98	0.096	0.468	0.009	0.507	0.01	0.217	
348.15	0.095	0.765	0.007	0.677	0.008	0.158	
348.25	0.086	0.341	0.008	0.438	0.01	0.238	
348.87	0.086	0.345	0.008	0.439	0.01	0.211	
349.03	0.05	0.73	0.007	0.712	0.008	0.097	
349.07	0.049	0.636	0.008	0.634	0.009	0.091	
349.32	0.05	0.793	0.007	0.766	0.007	0.082	
349.36	0.09	0.861	0.006	0.795	0.007	0.133	
349.64	0.045	0.527	0.009	0.588	0.009	0.1	
349.69	0.079	0.244	0.007	0.36	0.009	0.243	
349.96	0.043	0.42	0.008	0.51	0.01	0.128	
350.4	0.042	0.903	0.006	0.855	0.007	0.07	
351.49	0.04	0.324	0.008	0.454	0.01	0.151	
352.85	0.033	0.193	0.007	0.363	0.009	0.186	
355.38	0.024	0.089	0.006	0.226	0.007	0.256	
358.1	0.017	0.038	0.006	0.129	0.006	0.279	
