Measured thermophysical data. New experimental density data and derived thermophysical properties of carbon dioxide - Sulphur dioxide binary mixture (CO2 - SO2) in gas, liquid and supercritical phases from 273 K to 353 K and at pressures up to 42 MPa
Source: Fluid Phase Equilib., 2017, 10.1016/j.fluid.2017.09.014
Compound 1: sulfur dioxide, O2S, InChI=1S/O2S/c1-3-2
Compound 2: carbon dioxide, CO2, InChI=1S/CO2/c2-1-3

System: sulfur dioxide + carbon dioxide; phases: Gas
Fixed: Mole fraction of carbon dioxide = 0.9503
Property: Mass density, kg/m3 (Gas); method: Vibrating tube method
Temperature, K	Pressure, kPa	Mass density, kg/m3	uncertainty
272.65	226	4.8	0.2
272.65	407	8.5	0.2
272.65	503	10.6	0.2
272.65	752	16.2	0.2
272.65	1013	22.1	0.2
272.65	1252	27.9	0.2
272.65	1506	34.4	0.2
272.65	1752	40.9	0.4
272.65	1998	47.9	0.4
282.66	120	2.5	0.2
282.66	211	4.3	0.2
282.66	301	6.1	0.2
282.66	408	8.5	0.2
282.66	511	10.6	0.2
282.66	608	12.3	0.2
282.65	800	16.5	0.2
282.66	1009	21.1	0.2
282.65	1249	26.3	0.2
282.66	1509	32.8	0.2
282.66	1705	37.5	0.2
282.66	1909	42.7	0.2
282.66	2010	45.2	0.2
282.66	2199	50.5	0.4
282.66	2508	59.6	0.4
282.66	2702	65.5	0.4
282.66	3008	76	0.4
322.39	6019	145.7	0.4
322.39	5528	127.9	0.4
322.39	5017	111.5	0.4
322.39	4519	96.9	0.4
322.39	4009	82.8	0.4
322.39	3512	70.9	0.2
322.4	3008	58.8	0.2
322.4	2511	48.1	0.2
322.39	2008	37	0.2
322.39	1707	31.7	0.2
322.4	1509	27.5	0.2
322.39	1252	22.2	0.2
322.4	1002	17.9	0.2
322.4	749	13.6	0.2
322.39	392	7	0.2
352.94	7017	140.9	0.4
352.94	6516	127.7	0.4
352.93	6001	114.8	0.4
352.95	5490	102.6	0.4
352.95	4997	91.5	0.2
352.94	4493	80.5	0.2
352.94	4003	70.6	0.2
352.96	3495	60.3	0.2
352.95	3009	51	0.2
352.95	2800	47.2	0.2
352.94	2504	41.8	0.2
352.95	2248	37	0.2
352.95	2002	33	0.2
352.94	1742	28.6	0.2
352.95	1507	24.3	0.2
352.96	1248	19.9	0.2
352.96	982	15.1	0.2
352.95	740	11.4	0.2
352.95	511	7.6	0.2
352.95	402	6	0.2
352.95	306	4.6	0.2
352.93	202	3	0.2

System: sulfur dioxide + carbon dioxide; phases: Liquid
Fixed: Mole fraction of carbon dioxide = 0.9503
Property: Mass density, kg/m3 (Liquid); method: Vibrating tube method
Temperature, K	Pressure, kPa	Mass density, kg/m3	uncertainty
273.54	41723	1110.7	0.5
273.56	41601	1110.4	0.5
273.55	41016	1109	0.5
273.55	40508	1107.8	0.5
273.55	40023	1106.6	0.3
273.55	39553	1105.7	0.5
273.55	38992	1104	0.5
273.54	38558	1103.1	0.5
273.54	38033	1101.8	0.5
273.54	37529	1100.5	0.5
273.54	37047	1099	0.5
273.54	36490	1097.6	0.5
273.54	36045	1096.7	0.5
273.54	35534	1095.1	0.5
273.54	35043	1093.9	0.6
273.54	34491	1092.3	0.5
273.54	34032	1091.1	0.5
273.54	33521	1089.7	0.5
273.54	33027	1088.3	0.5
273.54	32491	1086.7	0.6
273.54	31975	1085.1	0.5
273.55	31482	1083.6	0.5
273.55	30952	1082.2	0.4
273.54	30524	1080.9	0.4
273.55	30026	1079.4	0.6
273.54	29514	1077.7	0.4
273.54	29024	1076.3	0.4
273.55	28539	1074.9	0.4
273.55	28041	1073	0.6
273.55	27554	1071.7	0.4
273.54	26999	1069.9	0.4
273.55	26484	1068.3	0.4
273.55	26016	1066.9	0.6
273.54	25506	1065.1	0.4
273.55	25039	1063.6	0.6
273.55	24523	1061.9	0.4
273.55	24032	1060.4	0.6
273.56	23496	1058.4	0.6
273.57	23015	1056.6	0.6
273.56	22501	1054.9	0.4
273.56	21993	1053	0.6
273.56	21519	1051.3	0.6
273.56	21029	1049.7	0.6
273.55	20535	1047.9	0.4
273.56	20028	1046	0.6
273.56	19509	1044	0.4
273.56	19000	1042.1	0.6
273.56	18515	1040.1	0.6
273.56	18049	1038.2	0.6
273.56	17514	1036.2	0.6
273.57	17024	1034.2	0.6
273.57	16500	1031.9	0.6
273.57	15999	1029.8	0.6
273.58	15602	1028.1	0.6
273.57	14951	1025.4	0.6
273.57	14518	1023.6	0.6
273.56	23496	1058.4	0.6
273.56	13506	1019.3	0.6
273.56	13012	1017.2	0.6
273.56	12509	1014.7	0.6
273.57	12005	1012.2	0.6
273.57	11502	1009.5	0.6
273.57	11003	1007	0.6
273.57	10516	1004.5	0.8
273.57	9944	1001.9	0.6
273.58	9518	999.7	0.8
273.58	9008	996.7	0.8
273.58	8503	993.8	0.8
273.6	8003	990.6	0.8
273.6	7688	987.5	0.8
273.6	7034	984.6	0.8
273.6	6503	981.9	0.8
273.6	6005	978.7	0.8
273.6	5521	975.5	0.8
273.61	5013	972.1	0.8
273.61	4518	968.2	0.8
273.6	4001	964.9	1
283.32	40729	1080.4	0.5
283.33	40700	1080.6	0.5
283.33	40601	1080.3	0.5
283.33	40145	1078.8	0.5
283.32	39558	1077.4	0.5
283.32	39056	1076.1	0.5
283.32	38461	1074.6	0.4
283.31	38061	1073.3	0.4
283.31	37578	1072.1	0.4
283.32	37026	1070.5	0.4
283.31	36515	1068.6	0.4
283.31	36037	1067.5	0.4
283.31	35516	1065.8	0.4
283.32	34989	1064.3	0.4
283.31	34500	1062.8	0.4
283.32	33995	1060.8	0.4
283.32	33527	1059.6	0.4
283.32	33032	1057.9	0.4
283.32	32516	1056.2	0.4
283.32	32033	1054.6	0.6
283.32	31500	1052.8	0.4
283.32	31007	1050.9	0.6
283.32	30506	1049.6	0.6
283.32	30008	1047.3	0.6
283.32	29470	1045.7	0.4
283.32	29081	1044.1	0.6
283.32	28527	1042.4	0.4
283.32	28043	1040.7	0.4
283.31	27537	1038.9	0.4
283.32	27023	1037	0.4
283.32	26503	1034.9	0.6
283.32	26038	1033.5	0.4
283.32	25509	1031.3	0.6
283.32	25025	1029.4	0.6
283.32	24535	1027.4	0.6
283.33	24074	1025.3	0.4
283.32	23509	1023.3	0.4
283.32	23052	1021.8	0.6
283.32	22565	1019.8	0.6
283.32	22046	1017.6	0.4
283.32	21504	1015.3	0.6
283.32	21035	1013.2	0.4
283.32	20507	1011	0.6
283.32	20038	1008.7	0.6
283.32	19496	1006.2	0.6
283.32	19016	1004.1	0.6
283.32	18520	1001.7	0.6
283.33	18078	999.5	0.6
283.32	17551	996.8	0.6
283.32	17047	994.7	0.6
283.32	16561	992.4	0.6
283.32	16044	989.5	0.6
283.32	15505	986.8	0.8
283.32	15011	984.1	0.6
283.32	14496	980.8	0.8
283.33	14003	978.2	0.8
283.32	13536	975.3	0.8
283.32	13000	972.6	0.8
283.32	12514	969.7	0.8
283.32	12009	966.2	0.8
283.33	11512	963	0.8
283.32	11007	959.9	0.8
283.32	10507	956.6	0.8
283.32	9995	953.3	0.8
283.32	9510	949.7	0.8
283.33	9019	946.2	0.8
283.33	8543	942.8	1
283.32	8008	938.7	1
283.32	7506	934.7	1
283.32	7000	929.5	1
283.32	6507	925.6	1
283.32	6002	920.8	1
283.32	5506	916.4	1.2
283.32	5005	910.4	1.2
283.33	4499	904.4	1.2
283.33	4307	902.3	1.2

System: sulfur dioxide + carbon dioxide; phases: Gas
Fixed: Mole fraction of carbon dioxide = 0.9478
Property: Mass density, kg/m3 (Gas); method: Vibrating tube method
Temperature, K	Pressure, kPa	Mass density, kg/m3	uncertainty
297.42	51	1	0.1
297.41	100	1.8	0.2
297.41	200	3.6	0.2
297.42	397	7.5	0.2
297.42	502	9.4	0.2
297.42	1817	37.6	0.2
297.41	2012	42.1	0.2
297.41	2215	47.2	0.2
297.42	2421	53	0.2
297.42	2588	57	0.2
297.42	2854	64.1	0.4
297.44	3064	70.1	0.4
297.43	3223	74.6	0.4
297.43	3396	79.8	0.4
297.42	3638	87.4	0.4
297.42	3822	93.7	0.4
297.42	3996	99.9	0.4
297.43	4206	107.7	0.4
297.42	4401	115.6	0.6
297.42	4507	120.1	0.6
297.42	4600	124.4	0.6
297.42	4703	129.2	0.6
297.4	4803	134.4	1.2

System: sulfur dioxide + carbon dioxide; phases: Liquid
Fixed: Mole fraction of carbon dioxide = 0.9478
Property: Mass density, kg/m3 (Liquid); method: Vibrating tube method
Temperature, K	Pressure, kPa	Mass density, kg/m3	uncertainty
298.12	40411	1032.1	0.4
298.11	40060	1031.1	0.6
298.11	39519	1029.5	0.4
298.11	38913	1027.8	0.6
298.11	38545	1026.6	0.6
298.11	37960	1024.8	0.4
298.11	37574	1023.6	0.4
298.1	37078	1022	0.4
298.1	36493	1020.2	0.6
298.1	35971	1018.4	0.4
298.11	35494	1016.9	0.4
298.1	35077	1015.5	0.4
298.1	34441	1013.3	0.6
298.11	33949	1011.6	0.4
298.1	33435	1009.8	0.6
298.1	33068	1008.6	0.4
298.1	32518	1006.5	0.4
298.1	32016	1004.6	0.4
298.11	31516	1002.6	0.4
298.11	30997	1000.7	0.4
298.11	30505	998.9	0.6
298.11	30013	996.8	0.6
298.11	29543	994.8	0.6
298.11	28987	993.1	0.6
298.1	28400	990.6	0.6
298.1	27973	988.6	0.6
298.1	27508	986.6	0.6
298.1	27025	984.3	0.6
298.09	26503	982.1	0.6
298.09	26076	980	0.6
298.1	25593	977.9	0.6
298.1	25050	975.1	0.6
298.1	24505	972.6	0.6
298.1	24029	970.2	0.6
298.1	23522	967.7	0.6
298.11	23041	965.2	0.6
298.1	22537	962.6	0.6
298.1	21994	959.8	0.6
298.11	21501	957	0.6
298.1	21016	954.5	0.8
298.11	20492	951.5	0.8
298.11	20051	948.9	0.8
298.11	19477	945.6	0.8
298.11	19025	942.9	0.8
298.11	18527	939.8	0.8
298.11	17978	936.5	0.8
298.11	17492	933.3	0.8
298.11	17024	930.2	0.8
298.11	16534	926.8	0.8
298.11	16016	923	0.8
298.11	15500	919.1	0.8
298.11	15011	915.2	0.8
298.12	14500	910.9	1
298.12	14006	906.7	1
298.11	13500	902.3	1
298.11	13010	897.8	1
298.12	12503	892.9	1
298.12	12000	887.9	1
298.12	11504	882.9	1
298.11	11004	877.7	1.2
298.11	10505	872.1	1.2
298.12	10039	866.6	1.2
298.12	9508	860.5	1.2
298.1	9007	854	1.4
298.11	8501	846.7	1.4
298.11	8006	838.7	1.6
298.11	7503	829.8	1.6
298.1	7001	819.7	1.8

System: sulfur dioxide + carbon dioxide; phases: Fluid (supercritical or subcritical phases)
Fixed: Mole fraction of carbon dioxide = 0.9503
Property: Mass density, kg/m3 (Fluid (supercritical or subcritical phases)); method: Vibrating tube method
Temperature, K	Pressure, kPa	Mass density, kg/m3	uncertainty
322.47	40947	956.3	0.6
322.48	40902	956.7	0.6
322.48	40153	953.9	0.6
322.48	39641	951.7	0.6
322.47	39200	950	0.6
322.47	38434	946.6	0.6
322.47	38091	945	0.6
322.46	37561	942.4	0.6
322.46	37005	940.1	0.6
322.46	36509	937.7	0.6
322.46	36061	935.4	0.6
322.46	35500	933	0.6
322.46	34988	930.2	0.6
322.47	34511	928	0.6
322.47	34062	925.5	0.6
322.47	33539	923.2	0.6
322.47	33070	920.6	0.6
322.47	32536	917.5	0.6
322.48	32039	914.6	0.6
322.47	31517	912	0.6
322.47	31027	908.9	0.6
322.46	30511	905.8	0.6
322.47	29929	902.4	0.6
322.49	29507	899.6	0.7
322.49	29025	896.4	0.7
322.48	28501	892.7	0.8
322.49	28018	889.5	0.8
322.49	27508	886.3	0.8
322.48	27026	882.9	0.8
322.49	26517	878.8	0.8
322.49	26001	875.4	0.8
322.48	25500	871.4	0.8
322.5	25003	867.7	0.8
322.5	24497	864.4	0.9
322.49	24003	860.4	0.9
322.49	23500	856.5	0.9
322.48	23049	853.3	0.9
322.49	22496	848.2	0.9
322.49	22009	843.9	0.9
322.49	21533	839.7	1.1
322.49	21007	834.7	1.1
322.48	20496	829.2	1.1
322.49	20012	824.3	1.1
322.5	19491	818.5	1.1
322.49	19008	812.8	1.1
322.5	18503	806.6	1.3
322.49	18008	800.3	1.3
322.5	17499	793.5	1.3
322.51	17005	786.2	1.3
322.51	16502	779.1	1.5
322.52	16003	770.9	1.5
322.52	15501	761.8	1.5
322.52	15012	753.2	1.7
322.52	14504	742.9	1.7
322.52	14000	731.9	1.9
322.53	13501	720.4	2.1
322.54	13000	706.7	2.3
322.53	12505	691.1	2.5
322.51	12003	672.3	2.9
322.51	11504	649.9	3.5
322.49	11003	621.1	4.3
322.47	10501	585	5.5
322.46	9992	538	4.1
322.45	9501	460.8	5.1
322.41	9006	371	3.9
322.41	8521	307.2	2.3
322.41	8037	254.6	1.5
322.39	7504	218.4	1
322.39	7009	189.5	0.8
322.41	6514	166.3	0.6
352.98	39330	850.5	0.7
352.98	39300	850.2	0.7
352.97	39009	848.1	0.7
352.97	38520	845.7	0.7
352.98	38023	842.1	0.7
352.97	37499	838.7	0.7
352.96	36996	835.2	0.7
352.97	36496	831.8	0.7
352.98	36013	828.1	0.7
352.97	35510	824.7	0.7
352.97	35014	821.4	0.9
352.98	34563	818.1	0.9
352.97	34055	814.5	0.9
352.96	33519	809.8	0.9
352.96	33014	805.8	0.9
352.97	32552	802.4	0.9
352.96	31993	797.6	0.9
352.95	31494	793.2	0.9
352.96	31058	789.4	0.9
352.97	30512	784.7	0.9
352.96	29991	779	0.9
352.96	29492	773.9	0.9
352.97	29001	768.7	0.9
352.96	28507	764.2	1.1
352.96	28006	758.3	1.1
352.96	27501	752.6	1.1
352.98	27043	747.4	1.1
352.97	26597	742.8	1.1
352.96	26036	736.4	1.1
352.96	25555	731.2	1.1
352.95	25002	723.7	1.1
352.95	24538	717.4	1.3
352.96	24023	710.4	1.3
352.96	23524	703.1	1.3
352.95	23011	694.8	1.3
352.95	22493	686.4	1.3
352.95	21993	677.2	1.5
352.96	21521	668.5	1.5
352.96	20999	657.9	1.5
352.96	20490	647.4	1.7
352.96	20014	636.9	1.7
352.95	19511	624.5	1.7
352.96	19011	611.7	1.9
352.97	18500	597.8	1.9
352.97	18007	583.3	2.1
352.95	17520	569.4	2.1
352.96	17006	552.6	2.3
352.95	16515	535.1	2.5
352.96	16004	514.7	2.5
352.95	15497	493.2	2.7
352.96	15003	470.1	2.9
352.95	14502	447.3	2.9
352.96	14004	422.3	2.9
352.96	13501	397.6	2.9
352.96	12998	371.8	2.9
352.95	12505	346.8	2.9
352.95	12000	321.9	2.7
352.97	11505	298.8	2.5
352.96	11001	276.4	2.3
352.97	10506	255.3	2.1
352.96	10075	238.1	2.1
352.95	9230	209.5	0.7
352.94	9008	201.9	0.7
352.96	8507	185.5	0.5
352.94	8038	170.3	0.5
352.94	7498	154.1	0.5
