Measured thermophysical data. Liquid-liquid equilibria for ternary systems water + acetic acid + 1,2,4-trimethylbenzene and water + acetic acid + 1,3,5- trimethylbenzene at (303.2 - 343.2) K
Source: Fluid Phase Equilib., 2016, 10.1016/j.fluid.2016.01.005
Compound 1: acetic acid, C2H4O2, InChI=1S/C2H4O2/c1-2(3)4/h1H3,(H,3,4), purity 99%
Compound 2: 1,2,4-trimethylbenzene, C9H12, InChI=1S/C9H12/c1-7-4-5-8(2)9(3)6-7/h4-6H,1-3H3, purity 98%
Compound 3: 1,3,5-trimethylbenzene, C9H12, InChI=1S/C9H12/c1-7-4-8(2)6-9(3)5-7/h4-6H,1-3H3, purity 99%
Compound 4: water, H2O, InChI=1S/H2O/h1H2

System: acetic acid + 1,2,4-trimethylbenzene + water; phases: Liquid mixture 2, Liquid mixture 1
Fixed: Pressure, kPa = 101.3
Property: Mass fraction of 1,2,4-trimethylbenzene (Liquid mixture 2); method: Chromatography
Property: Mass fraction of 1,2,4-trimethylbenzene (Liquid mixture 1); method: Chromatography
Property: Mass fraction of acetic acid (Liquid mixture 1); method: Chromatography
Temperature, K	Mass fraction of acetic acid	Mass fraction of 1,2,4-trimethylbenzene	uncertainty	Mass fraction of 1,2,4-trimethylbenzene	uncertainty	Mass fraction of acetic acid	uncertainty
303.2	0	0.0003	0.0003	0.9996	0.0004	0	
303.2	0.1166	0.0007	0.0004	0.9961	0.0005	0.0035	
303.2	0.1997	0.0007	0.0004	0.9906	0.0005	0.0089	
303.2	0.299	0.0012	0.0004	0.9822	0.0005	0.0172	
303.2	0.3884	0.002	0.0004	0.9724	0.0005	0.0269	
303.2	0.4873	0.0038	0.0004	0.9565	0.0005	0.0426	
303.2	0.5708	0.0082	0.0004	0.9367	0.0006	0.0621	
303.2	0.6562	0.0166	0.0004	0.9033	0.0008	0.0949	
303.2	0.7304	0.0366	0.0006	0.8434	0.0012	0.1534	
303.2	0.7633	0.1033	0.0014	0.7046	0.0023	0.2875	
313.2	0	0.0004	0.0004	0.9994	0.0004	0	
313.2	0.1163	0.0007	0.0004	0.9951	0.0005	0.0042	
313.2	0.1988	0.0008	0.0004	0.9901	0.0005	0.0092	
313.2	0.2966	0.0013	0.0004	0.9817	0.0005	0.0174	
313.2	0.3864	0.0022	0.0004	0.9717	0.0005	0.0273	
313.2	0.4839	0.0045	0.0004	0.9559	0.0005	0.0428	
313.2	0.5699	0.0089	0.0004	0.936	0.0006	0.0626	
313.2	0.6552	0.0187	0.0004	0.9008	0.0008	0.097	
313.2	0.7197	0.0406	0.0005	0.843	0.0012	0.1536	
313.2	0.7438	0.1166	0.0015	0.6934	0.0024	0.2956	
323.2	0	0.0005	0.0004	0.9993	0.0004	0	
323.2	0.1148	0.0007	0.0004	0.9949	0.0005	0.0043	
323.2	0.1983	0.0008	0.0004	0.9898	0.0005	0.0093	
323.2	0.2934	0.0014	0.0004	0.9813	0.0005	0.0177	
323.2	0.3864	0.0022	0.0004	0.9714	0.0005	0.0274	
323.2	0.4834	0.0046	0.0004	0.9556	0.0006	0.043	
323.2	0.5683	0.0097	0.0004	0.9356	0.0006	0.0626	
323.2	0.6549	0.0209	0.0004	0.8997	0.0008	0.0979	
323.2	0.7192	0.0459	0.0014	0.8389	0.0013	0.1563	
323.2	0.7299	0.1325	0.0017	0.6814	0.0025	0.3049	
333.2	0	0.0005	0.0004	0.9991	0.0004	0	
333.2	0.1126	0.0007	0.0004	0.9944	0.0005	0.0045	
333.2	0.1962	0.0009	0.0004	0.9893	0.0005	0.0096	
333.2	0.2931	0.0014	0.0004	0.981	0.0005	0.0178	
333.2	0.3842	0.0025	0.0004	0.9706	0.0005	0.0279	
333.2	0.4816	0.0053	0.0004	0.955	0.0006	0.0433	
333.2	0.5678	0.011	0.0004	0.9342	0.0006	0.0638	
333.2	0.6499	0.0234	0.0005	0.8984	0.0008	0.0984	
333.2	0.7099	0.0498	0.0025	0.8383	0.0013	0.1564	
333.2	0.7084	0.1535	0.0027	0.6664	0.0026	0.3158	
343.2	0	0.0006	0.0004	0.9989	0.0004	0	
343.2	0.1104	0.0007	0.0004	0.9939	0.0005	0.0049	
343.2	0.196	0.0011	0.0004	0.9888	0.0005	0.0098	
343.2	0.2845	0.0015	0.0004	0.9804	0.0005	0.018	
343.2	0.3777	0.0028	0.0004	0.9704	0.0005	0.0279	
343.2	0.4748	0.0059	0.0004	0.9545	0.0006	0.0434	
343.2	0.5675	0.0125	0.0004	0.9333	0.0007	0.064	
343.2	0.64	0.0264	0.0005	0.8966	0.0009	0.0991	
343.2	0.6929	0.0568	0.0018	0.832	0.0013	0.1608	
343.2	0.6936	0.1638	0.0017	0.648	0.0027	0.3278	

System: acetic acid + 1,3,5-trimethylbenzene + water; phases: Liquid mixture 2, Liquid mixture 1
Fixed: Pressure, kPa = 101.3
Property: Mass fraction of 1,3,5-trimethylbenzene (Liquid mixture 2); method: Chromatography
Property: Mass fraction of 1,3,5-trimethylbenzene (Liquid mixture 1); method: Chromatography
Property: Mass fraction of acetic acid (Liquid mixture 1); method: Chromatography
Temperature, K	Mass fraction of acetic acid	Mass fraction of 1,3,5-trimethylbenzene	uncertainty	Mass fraction of 1,3,5-trimethylbenzene	uncertainty	Mass fraction of acetic acid	uncertainty
303.2	0	0.0003	0.0003	0.9997	0.0003	0	
303.2	0.0983	0.0004	0.0004	0.9968	0.0005	0.0028	
303.2	0.1982	0.0006	0.0004	0.9912	0.0005	0.0083	
303.2	0.3039	0.0009	0.0004	0.983	0.0005	0.0164	
303.2	0.3895	0.0017	0.0004	0.9725	0.0005	0.0268	
303.2	0.4892	0.0032	0.0004	0.9576	0.0005	0.0416	
303.2	0.578	0.0068	0.0004	0.9368	0.0006	0.0621	
303.2	0.6609	0.0149	0.0004	0.9033	0.0008	0.095	
303.2	0.7441	0.0401	0.0014	0.8247	0.0014	0.1719	
303.2	0.7595	0.1265	0.0017	0.6567	0.0027	0.3324	
313.2	0	0.0004	0.0004	0.9995	0.0004	0	
313.2	0.0977	0.0005	0.0004	0.9962	0.0005	0.0033	
313.2	0.1978	0.0006	0.0004	0.9908	0.0005	0.0086	
313.2	0.302	0.001	0.0004	0.9822	0.0005	0.0171	
313.2	0.3865	0.0017	0.0004	0.9723	0.0005	0.0269	
313.2	0.4805	0.0036	0.0004	0.9572	0.0005	0.0418	
313.2	0.5695	0.0076	0.0004	0.9367	0.0006	0.0622	
313.2	0.6499	0.0169	0.0005	0.8998	0.0008	0.0982	
313.2	0.7382	0.0447	0.0017	0.8221	0.0014	0.1737	
313.2	0.736	0.1436	0.002	0.6538	0.0027	0.3333	
323.2	0	0.0004	0.0004	0.9993	0.0004	0	
323.2	0.0965	0.0006	0.0004	0.9959	0.0005	0.0034	
323.2	0.1947	0.0006	0.0004	0.9904	0.0005	0.0087	
323.2	0.294	0.001	0.0004	0.9818	0.0005	0.0172	
323.2	0.3781	0.0018	0.0004	0.9719	0.0005	0.027	
323.2	0.475	0.0039	0.0004	0.9567	0.0005	0.042	
323.2	0.5659	0.0084	0.0004	0.936	0.0006	0.0625	
323.2	0.6486	0.0189	0.0005	0.899	0.0008	0.0984	
323.2	0.7208	0.0494	0.0017	0.8204	0.0014	0.1746	
323.2	0.7157	0.1623	0.002	0.6117	0.003	0.3686	
333.2	0	0.0005	0.0004	0.9992	0.0004	0	
333.2	0.092	0.0006	0.0004	0.9957	0.0005	0.0035	
333.2	0.1906	0.0006	0.0004	0.9901	0.0005	0.0089	
333.2	0.2926	0.0013	0.0004	0.9811	0.0005	0.0177	
333.2	0.3758	0.002	0.0004	0.9713	0.0005	0.0273	
333.2	0.4687	0.0046	0.0004	0.9561	0.0005	0.0423	
333.2	0.5603	0.0096	0.0004	0.9335	0.0007	0.0645	
333.2	0.6416	0.0214	0.0005	0.8962	0.0009	0.1006	
333.2	0.7196	0.0558	0.0011	0.8183	0.0014	0.1757	
333.2	0.6854	0.1893	0.0017	0.5697	0.0033	0.4002	
343.2	0	0.0005	0.0004	0.9989	0.0004	0	
343.2	0.091	0.0006	0.0004	0.9951	0.0005	0.0037	
343.2	0.1845	0.0006	0.0004	0.9894	0.0005	0.0093	
343.2	0.2887	0.0014	0.0004	0.9808	0.0005	0.0178	
343.2	0.3713	0.0024	0.0004	0.9706	0.0005	0.0276	
343.2	0.4671	0.005	0.0004	0.9553	0.0006	0.0425	
343.2	0.5568	0.0111	0.0004	0.9327	0.0007	0.0646	
343.2	0.6336	0.0237	0.0019	0.8943	0.0009	0.1015	
343.2	0.7078	0.0634	0.0014	0.8138	0.0015	0.1803	
343.2	0.6739	0.2083	0.0023	0.5583	0.0034	0.4015	
