Measured thermophysical data. Guaiacol and its mixtures: new data and predictive models Part 1: Phase equilibrium
Source: Fluid Phase Equilib., 2018, 10.1016/j.fluid.2018.01.035
Compound 1: 2-methoxyphenol, C7H8O2, InChI=1S/C7H8O2/c1-9-7-5-3-2-4-6(7)8/h2-5,8H,1H3
Compound 2: methane, CH4, InChI=1S/CH4/h1H4

System: methane + 2-methoxyphenol; phases: Gas, Liquid
Fixed: Temperature, K = 443.5
Property: Vapor or sublimation pressure, kPa (Gas); method: Closed cell (Static) method
Mole fraction of methane	Vapor or sublimation pressure, kPa	uncertainty
0.03421	4967	630
0.06633	9988	571
0.10439	14874	439
0.20514	24929	511
0.26742	34916	679
