Measured thermophysical data. Solid-liquid equilibrium of binary and ternary systems formed by ethyl laurate, ethyl palmitate and n-decane: experimental data and thermodynamic modeling
Source: Fluid Phase Equilib., 2016, 10.1016/j.fluid.2016.01.044
Compound 1: ethyl dodecanoate, C14H28O2, InChI=1S/C14H28O2/c1-3-5-6-7-8-9-10-11-12-13-14(15)16-4-2/h3-13H2,1-2H3, purity 98%
Compound 2: ethyl hexadecanoate, C18H36O2, InChI=1S/C18H36O2/c1-3-5-6-7-8-9-10-11-12-13-14-15-16-17-18(19)20-4-2/h3-17H2,1-2H3, purity 99%
Compound 3: decane, C10H22, InChI=1S/C10H22/c1-3-5-7-9-10-8-6-4-2/h3-10H2,1-2H3, purity 99%

System: ethyl dodecanoate; phases: Crystal, Liquid, Air at 1 atmosphere
Property: Normal melting temperature, K (Crystal); method: DTA
Normal melting temperature, K	uncertainty
272.95	0.5

System: ethyl dodecanoate; phases: Crystal, Liquid, Air at 1 atmosphere
Property: Molar enthalpy of transition or fusion, kJ/mol (Crystal); method: DSC
Molar enthalpy of transition or fusion, kJ/mol	uncertainty
38.27	1.06

System: ethyl hexadecanoate; phases: Crystal, Liquid, Air at 1 atmosphere
Property: Normal melting temperature, K (Crystal); method: DTA
Normal melting temperature, K	uncertainty
297.93	0.5

System: decane; phases: Crystal, Liquid, Air at 1 atmosphere
Property: Normal melting temperature, K (Crystal); method: DTA
Normal melting temperature, K	uncertainty
244.63	0.5

System: decane; phases: Crystal, Liquid, Air at 1 atmosphere
Property: Molar enthalpy of transition or fusion, kJ/mol (Crystal); method: DSC
Molar enthalpy of transition or fusion, kJ/mol	uncertainty
28.83	0.82

System: ethyl dodecanoate + decane; phases: Crystal, Crystal, Liquid, Air at 1 atmosphere
Property: Eutectic temperature, K (Crystal); method: DTA
Eutectic temperature, K	uncertainty
243.08	0.7

System: ethyl dodecanoate + decane; phases: Liquid, Crystal
Fixed: Pressure, kPa = 100
Property: Solid-liquid equilibrium temperature, K (Liquid); method: DTA
Mole fraction of decane	Solid-liquid equilibrium temperature, K	uncertainty
0	272.95	1.06
0.1163	270.43	1.06
0.2313	268.05	1.06
0.3116	266.19	1.06
0.3967	264.53	1.06
0.462	262.84	1.06
0.4937	262.54	1.06

System: ethyl dodecanoate + decane; phases: Liquid, Crystal of unknown type
Fixed: Pressure, kPa = 100
Property: Solid-liquid equilibrium temperature, K (Liquid); method: DTA
Mole fraction of decane	Solid-liquid equilibrium temperature, K	uncertainty
0.5975	261.55	1.06
0.6999	259.75	1.06
0.7914	258.46	1.06
0.8205	257.51	1.06
0.8492	254.71	1.06
0.9013	247.13	1.06
0.9142	245.63	1.06

System: ethyl dodecanoate + decane; phases: Liquid, Crystal
Fixed: Pressure, kPa = 100
Property: Solid-liquid equilibrium temperature, K (Liquid); method: DTA
Mole fraction of decane	Solid-liquid equilibrium temperature, K	uncertainty
1	244.63	1.06
0.9453	243.86	1.06

System: decane + ethyl hexadecanoate; phases: Crystal, Crystal, Liquid, Air at 1 atmosphere
Property: Eutectic temperature, K (Crystal); method: DTA
Eutectic temperature, K	uncertainty
244.25	1.06

System: decane + ethyl hexadecanoate; phases: Liquid, Crystal
Fixed: Pressure, kPa = 100
Property: Solid-liquid equilibrium temperature, K (Liquid); method: DTA
Mole fraction of decane	Solid-liquid equilibrium temperature, K	uncertainty
0	297.93	1.06
0.1135	296.7	1.06
0.171	295.35	1.06
0.2606	294.74	1.06
0.3328	293.66	1.06
0.3714	292.85	1.06
0.3957	292.45	1.06
0.4875	287.85	1.06
0.5555	286.42	1.06
0.6088	284.95	1.06
0.6463	285.82	1.06
0.7048	281.75	1.06
0.7503	280.96	1.06
0.803	278.25	1.06
0.8419	275.99	1.06
0.9486	264.75	1.06

System: decane + ethyl hexadecanoate; phases: Liquid, Crystal
Property: Solid-liquid equilibrium temperature, K (Liquid); method: DTA
Mole fraction of decane	Pressure, kPa	Solid-liquid equilibrium temperature, K	uncertainty
1	100	244.63	1.06

System: ethyl dodecanoate + decane + ethyl hexadecanoate; phases: Crystal, Crystal, Crystal, Liquid, Air at 1 atmosphere
Property: Eutectic temperature, K (Crystal); method: DTA
Eutectic temperature, K	uncertainty
242.3	0.7
