Measured thermophysical data. Effect of temperature on ultrasonic velocity and thermodynamic  parameters of bisphenol-C-formaldehyde-acrylate  resin solutions
Source: Fluid Phase Equilib., 2007, 10.1016/j.fluid.2007.08.006
Compound 1: ethanol, C2H6O, InChI=1S/C2H6O/c1-2-3/h3H,2H2,1H3
Compound 2: butanone, C4H8O, InChI=1S/C4H8O/c1-3-4(2)5/h3H2,1-2H3
Compound 3: dimethylformamide, C3H7NO, InChI=1S/C3H7NO/c1-4(2)3-5/h3H,1-2H3

System: ethanol; phases: Liquid
Fixed: Pressure, kPa = 101.325
Property: Mass density, kg/m3 (Liquid); method: Pycnometric method
Temperature, K	Mass density, kg/m3	uncertainty
303.15	772.4	3.4
308.15	771.6	3.4
313.15	771.2	3.4

System: ethanol; phases: Liquid
Fixed: Pressure, kPa = 101.325
Property: Viscosity, Pa*s (Liquid); method: Capillary tube (Ostwald; Ubbelohde) method
Temperature, K	Viscosity, Pa*s	uncertainty
303.15	0.000695	1.8e-05
308.15	0.000658	1.7e-05
313.15	0.000617	1.6e-05

System: ethanol; phases: Liquid
Fixed: Pressure, kPa = 101.325
Property: Speed of sound, m/s (Liquid); method: Sing-around technique in a fixed-path interferometer
Temperature, K	Speed of sound, m/s	uncertainty
303.15	1135.4	6.8
308.15	1133.2	6.8
313.15	1130.8	6.8

System: butanone; phases: Liquid
Fixed: Pressure, kPa = 101.325
Property: Mass density, kg/m3 (Liquid); method: Pycnometric method
Temperature, K	Mass density, kg/m3	uncertainty
303.15	802.5	3.7
308.15	800.1	3.6
313.15	800.3	3.7

System: butanone; phases: Liquid
Fixed: Pressure, kPa = 101.325
Property: Viscosity, Pa*s (Liquid); method: Capillary tube (Ostwald; Ubbelohde) method
Temperature, K	Viscosity, Pa*s	uncertainty
303.15	0.000352	9e-06
308.15	0.000334	9e-06
313.15	0.000315	8e-06

System: butanone; phases: Liquid
Fixed: Pressure, kPa = 101.325
Property: Speed of sound, m/s (Liquid); method: Sing-around technique in a fixed-path interferometer
Temperature, K	Speed of sound, m/s	uncertainty
303.15	1168.6	6.9
308.15	1157.2	6.9
313.15	1130.4	6.8

System: dimethylformamide; phases: Liquid
Fixed: Pressure, kPa = 101.325
Property: Mass density, kg/m3 (Liquid); method: Pycnometric method
Temperature, K	Mass density, kg/m3	uncertainty
303.15	927.2	4.9
308.15	919.7	4.8
313.15	916.4	4.8

System: dimethylformamide; phases: Liquid
Fixed: Pressure, kPa = 101.325
Property: Viscosity, Pa*s (Liquid); method: Capillary tube (Ostwald; Ubbelohde) method
Temperature, K	Viscosity, Pa*s	uncertainty
303.15	0.000715	1.8e-05
308.15	0.000693	1.8e-05
313.15	0.000677	1.8e-05

System: dimethylformamide; phases: Liquid
Fixed: Pressure, kPa = 101.325
Property: Speed of sound, m/s (Liquid); method: Sing-around technique in a fixed-path interferometer
Temperature, K	Speed of sound, m/s	uncertainty
303.15	1404.6	7.5
308.15	1400.8	7.5
313.15	1420.8	7.6
