Measured thermophysical data. Phase equilibrium of the quaternary system K2SO4-MgSO4-(NH4)2SO4-H2O at 25 C
Source: Fluid Phase Equilib., 2016, 10.1016/j.fluid.2015.08.019
Compound 1: magnesium sulfate, MgO4S, InChI=1S/Mg.H2O4S/c;1-5(2,3)4/h;(H2,1,2,3,4)/q+2;/p-2, purity 99%
Compound 2: water, H2O, InChI=1S/H2O/h1H2, purity 99.8%
Compound 3: ammonium sulfate, H8N2O4S, InChI=1S/2H3N.H2O4S/c;;1-5(2,3)4/h2*1H3;(H2,1,2,3,4), purity 99%
Compound 4: potassium sulfate, K2O4S, InChI=1S/2K.H2O4S/c;;1-5(2,3)4/h;;(H2,1,2,3,4)/q2*+1;/p-2, purity 99%

System: magnesium sulfate + water + ammonium sulfate; phases: Liquid, Crystal
Property: Molality, mol/kg of magnesium sulfate (Liquid); method: titration
Molality, mol/kg of ammonium sulfate	Temperature, K	Pressure, kPa	Molality, mol/kg of magnesium sulfate	uncertainty
5.803	298.15	101	0	0.001

System: magnesium sulfate + water + ammonium sulfate; phases: Liquid, Crystal of intercomponent compound 1
Fixed: Temperature, K = 298.15
Fixed: Pressure, kPa = 101
Property: Molality, mol/kg of magnesium sulfate (Liquid); method: titration
Molality, mol/kg of ammonium sulfate	Molality, mol/kg of magnesium sulfate	uncertainty
5.256	0.044	0.003
1.625	0.093	0.052
1.133	0.488	0.062
0.657	1.343	0.083
0.379	2.365	0.11

System: magnesium sulfate + water + ammonium sulfate; phases: Liquid, Crystal of intercomponent compound 2
Property: Molality, mol/kg of magnesium sulfate (Liquid); method: titration
Molality, mol/kg of ammonium sulfate	Temperature, K	Pressure, kPa	Molality, mol/kg of magnesium sulfate	uncertainty
0.266	298.15	101	3.075	0.123

System: magnesium sulfate + water + potassium sulfate; phases: Liquid, Crystal
Fixed: Temperature, K = 298.15
Fixed: Pressure, kPa = 101
Property: Molality, mol/kg of magnesium sulfate (Liquid); method: titration
Molality, mol/kg of potassium sulfate	Molality, mol/kg of magnesium sulfate	uncertainty
0	3.035	0.122
0.135	3.092	0.124
0.189	3.105	0.124
0.309	3.134	0.126

System: magnesium sulfate + water + potassium sulfate; phases: Liquid, Crystal of intercomponent compound 1
Property: Molality, mol/kg of magnesium sulfate (Liquid); method: titration
Molality, mol/kg of potassium sulfate	Temperature, K	Pressure, kPa	Molality, mol/kg of magnesium sulfate	uncertainty
0.332	298.15	101	3.15	0.126

System: magnesium sulfate + water + potassium sulfate; phases: Liquid, Crystal of intercomponent compound 2
Fixed: Temperature, K = 298.15
Fixed: Pressure, kPa = 101
Property: Molality, mol/kg of magnesium sulfate (Liquid); method: titration
Molality, mol/kg of potassium sulfate	Molality, mol/kg of magnesium sulfate	uncertainty
0.543	2.1	0.105
0.643	1.807	0.105
0.726	1.558	0.101
0.777	1.442	0.151
0.787	1.397	0.152

System: magnesium sulfate + water + potassium sulfate; phases: Liquid, Crystal of intercomponent compound 3
Property: Molality, mol/kg of magnesium sulfate (Liquid); method: titration
Molality, mol/kg of potassium sulfate	Temperature, K	Pressure, kPa	Molality, mol/kg of magnesium sulfate	uncertainty
0.801	298.15	101	1.375	0.055

System: magnesium sulfate + water + potassium sulfate; phases: Liquid, Crystal
Fixed: Temperature, K = 298.15
Fixed: Pressure, kPa = 101
Property: Molality, mol/kg of magnesium sulfate (Liquid); method: titration
Molality, mol/kg of potassium sulfate	Molality, mol/kg of magnesium sulfate	uncertainty
0.801	1.298	0.667
0.793	1.132	1.047
0.786	0.799	1.496
0.745	0.391	0.255
0.693	0	0.21

System: water + potassium sulfate + ammonium sulfate; phases: Liquid, Crystal
Fixed: Temperature, K = 298.15
Fixed: Pressure, kPa = 101
Property: Molality, mol/kg of ammonium sulfate (Liquid); method: titration
Molality, mol/kg of potassium sulfate	Molality, mol/kg of ammonium sulfate	uncertainty
0.688	0	0.58
0.715	0.46	0.562
0.73	0.84	0.74
0.674	1.573	3.03

System: water + potassium sulfate + ammonium sulfate; phases: Liquid, Crystal of intercomponent compound 1
Property: Molality, mol/kg of ammonium sulfate (Liquid); method: titration
Molality, mol/kg of potassium sulfate	Temperature, K	Pressure, kPa	Molality, mol/kg of ammonium sulfate	uncertainty
0.699	298.15	101	1.719	0.069

System: water + potassium sulfate + ammonium sulfate; phases: Liquid, Crystal of intercomponent compound 2
Fixed: Temperature, K = 298.15
Fixed: Pressure, kPa = 101
Property: Molality, mol/kg of ammonium sulfate (Liquid); method: titration
Molality, mol/kg of potassium sulfate	Molality, mol/kg of ammonium sulfate	uncertainty
0.694	1.868	0.269
0.624	2.52	1.748
0.609	3.569	1.71
0.477	4.671	0.223
0.394	4.886	0.196
0.346	4.768	0.195
0.244	5.262	0.216

System: water + potassium sulfate + ammonium sulfate; phases: Liquid, Crystal of intercomponent compound 3
Property: Molality, mol/kg of ammonium sulfate (Liquid); method: titration
Molality, mol/kg of potassium sulfate	Temperature, K	Pressure, kPa	Molality, mol/kg of ammonium sulfate	uncertainty
0.171	298.15	101	5.549	0.222

System: water + potassium sulfate + ammonium sulfate; phases: Liquid, Crystal
Fixed: Temperature, K = 298.15
Fixed: Pressure, kPa = 101
Property: Molality, mol/kg of ammonium sulfate (Liquid); method: titration
Molality, mol/kg of potassium sulfate	Molality, mol/kg of ammonium sulfate	uncertainty
0.115	5.694	0.228
0	5.772	0.231

System: water + ammonium sulfate; phases: Liquid, Crystal
Fixed: Temperature, K = 298.15
Fixed: Pressure, kPa = 101
Property: Molality, mol/kg of ammonium sulfate (Liquid); method: titration
Molality, mol/kg of ammonium sulfate	uncertainty
5.803	
5.772	0.231

System: magnesium sulfate + water; phases: Liquid, Crystal
Property: Molality, mol/kg of magnesium sulfate (Liquid); method: titration
Temperature, K	Pressure, kPa	Molality, mol/kg of magnesium sulfate	uncertainty
298.15	101	3.035	0.122

System: water + potassium sulfate; phases: Liquid, Crystal
Fixed: Temperature, K = 298.15
Fixed: Pressure, kPa = 101
Property: Molality, mol/kg of potassium sulfate (Liquid); method: titration
Molality, mol/kg of potassium sulfate	uncertainty
0.693	
0.688	
