Measured thermophysical data. Viscometric and volumetric behaviour of binary mixtures of sulfolane and N-methylpyrrolidone with monoethanolamine and diethanolamine in the range 303 373 K
Source: Fluid Phase Equilib., 2008, 10.1016/j.fluid.2008.02.023
Compound 1: N-methylpyrrolidone, C5H9NO, InChI=1S/C5H9NO/c1-6-4-2-3-5(6)7/h2-4H2,1H3, purity 99%
Compound 2: 2-aminoethan-1-ol, C2H7NO, InChI=1S/C2H7NO/c3-1-2-4/h4H,1-3H2, purity 98.5%
Compound 3: diethanolamine, C4H11NO2, InChI=1S/C4H11NO2/c6-3-1-5-2-4-7/h5-7H,1-4H2, purity 99.9%
Compound 4: sulfolane, C4H8O2S, InChI=1S/C4H8O2S/c5-7(6)3-1-2-4-7/h1-4H2, purity 99.5%
Compound 5: hexadecane, C16H34, InChI=1S/C16H34/c1-3-5-7-9-11-13-15-16-14-12-10-8-6-4-2/h3-16H2,1-2H3, purity 99.8%

System: N-methylpyrrolidone; phases: Liquid
Fixed: Pressure, kPa = 101.325
Property: Viscosity, Pa*s (Liquid); method: CAPTUB:UFactor:4
Temperature, K	Viscosity, Pa*s	uncertainty
283.15	0.002162	6.5e-05
293.15	0.001822	5.5e-05
298.15	0.001695	5.2e-05
303.15	0.001608	4.9e-05
313.15	0.001383	4.3e-05
323.15	0.001217	3.8e-05
333.15	0.001081	3.5e-05
343.15	0.001026	3.3e-05
353.15	0.000936	3e-05
363.15	0.000831	2.7e-05
373.15	0.000757	2.5e-05
383.15	0.000711	2.4e-05
393.15	0.000652	2.2e-05
403.15	0.000606	2.1e-05
413.15	0.000567	2e-05
423.15	0.000532	1.9e-05

System: N-methylpyrrolidone; phases: Liquid
Fixed: Pressure, kPa = 101.325
Property: Mass density, kg/m3 (Liquid); method: VIBTUB:UFactor:48
Temperature, K	Mass density, kg/m3	uncertainty
298.15	1025.8	2.2
303.15	1022.2	2.1
308.15	1016.6	2
313.15	1013.4	1.9
318.15	1007.5	1.8
323.15	1004.6	1.8
328.15	998.5	1.7
333.15	995.8	1.8
343.15	987	1.9
353.15	978.2	2.1
363.15	969.4	2.3
373.15	960.6	2.5

System: 2-aminoethan-1-ol; phases: Liquid
Fixed: Pressure, kPa = 101.325
Property: Viscosity, Pa*s (Liquid); method: CAPTUB:UFactor:4
Temperature, K	Viscosity, Pa*s	uncertainty
303.15	0.014423	0.000337
313.15	0.009562	0.000237
323.15	0.006665	0.000177
333.15	0.004814	0.000137
343.15	0.003551	0.000103
353.15	0.002764	8.1e-05
363.15	0.002337	7e-05
373.15	0.001901	5.7e-05
383.15	0.001588	4.9e-05
393.15	0.001376	4.3e-05

System: 2-aminoethan-1-ol; phases: Liquid
Fixed: Pressure, kPa = 101.325
Property: Mass density, kg/m3 (Liquid); method: VIBTUB:UFactor:16
Temperature, K	Mass density, kg/m3	uncertainty
303.15	1008.1	0.8
308.15	1004.1	0.8
313.15	1000.4	0.8
318.15	996	0.8
323.15	992.7	0.8
328.15	988.3	0.8
333.15	985	0.8
343.15	977.3	0.9
353.15	969.6	0.9
363.15	961.9	0.9
373.15	954.2	1

System: diethanolamine; phases: Liquid
Fixed: Pressure, kPa = 101.325
Property: Viscosity, Pa*s (Liquid); method: CAPTUB:UFactor:16
Temperature, K	Viscosity, Pa*s	uncertainty
303.15	0.3805	0.2697
313.15	0.1835	0.0838
323.15	0.1006	0.0249
333.15	0.06136	0.00451
343.15	0.03379	0.00286
353.15	0.023135	0.002011
363.15	0.014808	0.001345
373.15	0.010411	0.000993
383.15	0.008011	0.000801
393.15	0.005985	0.000639
403.15	0.004584	0.000516
413.15	0.003609	0.000412
423.15	0.002522	0.000294

System: diethanolamine; phases: Liquid
Fixed: Pressure, kPa = 101.325
Property: Viscosity, Pa*s (Liquid); method: SPHERE:UFactor:2
Temperature, K	Viscosity, Pa*s	uncertainty
303.15	0.3795	0.0668
308.15	0.2788	0.0416
313.15	0.1961	0.0233
318.15	0.143	0.0131
323.15	0.1009	0.0062
328.15	0.0733	0.0024
333.15	0.0573	0.0007

System: diethanolamine; phases: Liquid
Fixed: Pressure, kPa = 101.325
Property: Mass density, kg/m3 (Liquid); method: VIBTUB:UFactor:24
Temperature, K	Mass density, kg/m3	uncertainty
303.15	1089.4	1.6
308.15	1086.7	1.6
313.15	1082.9	1.5
318.15	1080.3	1.5
323.15	1076.4	1.5
328.15	1074.4	1.5
333.15	1069.9	1.4
343.15	1063.4	1.4
353.15	1056.9	1.3
363.15	1050.4	1.2
373.15	1043.9	1.2

System: sulfolane; phases: Liquid
Fixed: Pressure, kPa = 101.325
Property: Viscosity, Pa*s (Liquid); method: CAPTUB:UFactor:8
Temperature, K	Viscosity, Pa*s	uncertainty
303.15	0.010228	0.00049
308.15	0.009046	0.000443
313.15	0.007844	0.000394
318.15	0.006574	0.000343
323.15	0.006175	0.000327
328.15	0.005191	0.000288
333.15	0.004887	0.000274
338.15	0.00431	0.000244
343.15	0.004214	0.000239
353.15	0.003531	0.000202
363.15	0.003011	0.000174
373.15	0.002576	0.00015
383.15	0.002253	0.000133
393.15	0.001987	0.000118
403.15	0.001761	0.000106
413.15	0.001571	9.5e-05
423.15	0.001415	8.7e-05

System: sulfolane; phases: Liquid
Fixed: Pressure, kPa = 101.325
Property: Viscosity, Pa*s (Liquid); method: Falling or rolling sphere viscometry
Temperature, K	Viscosity, Pa*s	uncertainty
308.15	0.009062	9.4e-05
313.15	0.007985	8.3e-05
318.15	0.00717	7.4e-05
323.15	0.006494	6.7e-05

System: sulfolane; phases: Liquid
Fixed: Pressure, kPa = 101.325
Property: Mass density, kg/m3 (Liquid); method: VIBTUB:UFactor:16
Temperature, K	Mass density, kg/m3	uncertainty
303.15	1260.4	2.2
308.15	1255.2	2.2
313.15	1250.5	2.2
318.15	1245.8	2.1
323.15	1241.2	2.1
328.15	1236.9	2.1
333.15	1232.6	2.1
343.15	1222.4	2
353.15	1217.9	2
363.15	1209.6	1.9
373.15	1202.6	1.9

System: hexadecane; phases: Liquid
Fixed: Pressure, kPa = 101.325
Property: Viscosity, Pa*s (Liquid); method: Falling or rolling sphere viscometry
Temperature, K	Viscosity, Pa*s	uncertainty
293.15	0.003491	3.5e-05
298.15	0.003094	3.1e-05
303.15	0.002778	2.8e-05

System: 2-aminoethan-1-ol + N-methylpyrrolidone; phases: Liquid
Fixed: Pressure, kPa = 101
Property: Viscosity, Pa*s (Liquid); method: CAPTUB:UFactor:8
Temperature, K	Mole fraction of N-methylpyrrolidone	Viscosity, Pa*s	uncertainty
303.15	0.2076	0.010069	0.000486
303.15	0.4003	0.006647	0.000347
303.15	0.5994	0.004361	0.000247
303.15	0.7992	0.002604	0.000153
313.15	0.2076	0.006755	0.000352
313.15	0.4003	0.004811	0.000271
313.15	0.5994	0.003317	0.000191
313.15	0.7992	0.002118	0.000126
323.15	0.2076	0.005018	0.000282
323.15	0.4003	0.003622	0.000208
323.15	0.5994	0.002559	0.00015
323.15	0.7992	0.001799	0.000108
333.15	0.2076	0.003825	0.000218
333.15	0.4003	0.002989	0.000173
333.15	0.5994	0.002105	0.000125
333.15	0.7992	0.001375	8.5e-05
343.15	0.2076	0.00295	0.000171
343.15	0.4003	0.002394	0.000141
343.15	0.5994	0.001794	0.000108
343.15	0.7992	0.001233	7.7e-05
353.15	0.2076	0.00231	0.000136
353.15	0.4003	0.001915	0.000114
353.15	0.5994	0.001481	9.1e-05
353.15	0.7992	0.001135	7.1e-05
363.15	0.2076	0.00196	0.000117
363.15	0.4003	0.001645	0.0001
363.15	0.5994	0.001278	7.9e-05
363.15	0.7992	0.000992	6.3e-05
373.15	0.2076	0.00164	9.9e-05
373.15	0.4003	0.001381	8.5e-05
373.15	0.5994	0.001112	7e-05
373.15	0.7992	0.000899	5.8e-05

System: 2-aminoethan-1-ol + N-methylpyrrolidone; phases: Liquid
Fixed: Pressure, kPa = 101
Property: Mass density, kg/m3 (Liquid); method: Vibrating tube method
Temperature, K	Mole fraction of N-methylpyrrolidone	Mass density, kg/m3	uncertainty
303.15	0.2076	1009.9	0.5
303.15	0.4003	1012.2	0.5
303.15	0.5994	1014.7	0.5
303.15	0.7992	1018.1	0.5
313.15	0.2076	1001.7	0.5
313.15	0.4003	1003.6	0.5
313.15	0.5994	1006.2	0.5
313.15	0.7992	1009.4	0.5
323.15	0.2076	993.6	0.5
323.15	0.4003	995.3	0.5
323.15	0.5994	997.7	0.5
323.15	0.7992	1000.8	0.5
333.15	0.2076	985.4	0.5
333.15	0.4003	986.9	0.5
333.15	0.5994	989.2	0.5
333.15	0.7992	992.2	0.5
343.15	0.2076	977.3	0.5
343.15	0.4003	978.6	0.5
343.15	0.5994	980.7	0.5
343.15	0.7992	983.5	0.5
353.15	0.2076	969.2	0.5
353.15	0.4003	970.3	0.5
353.15	0.5994	972.2	0.5
353.15	0.7992	974.8	0.5
363.15	0.2076	961	0.5
363.15	0.4003	961.9	0.5
363.15	0.5994	963.7	0.5
363.15	0.7992	966.3	0.5
373.15	0.2076	952.8	0.5
373.15	0.4003	953.6	0.5
373.15	0.5994	955.2	0.5
373.15	0.7992	957.6	0.5

System: diethanolamine + N-methylpyrrolidone; phases: Liquid
Fixed: Pressure, kPa = 101
Property: Viscosity, Pa*s (Liquid); method: CAPTUB:UFactor:16
Temperature, K	Mole fraction of N-methylpyrrolidone	Viscosity, Pa*s	uncertainty
303.15	0.1941	0.1038	0.02685
303.15	0.4024	0.03182	0.00271
303.15	0.5851	0.01632	0.00147
303.15	0.7962	0.00838	0.00084
313.15	0.1941	0.04329	0.00363
313.15	0.4024	0.01504	0.00137
313.15	0.5851	0.00742	0.00077
313.15	0.7962	0.00404	0.00048
323.15	0.1941	0.027	0.00232
323.15	0.4024	0.01025	0.00098
323.15	0.5851	0.00632	0.00067
323.15	0.7962	0.00322	0.00037
333.15	0.1941	0.02136	0.00187
333.15	0.4024	0.00771	0.00078
333.15	0.5851	0.0049	0.00055
333.15	0.7962	0.00262	0.00031
343.15	0.1941	0.01564	0.00141
343.15	0.4024	0.00702	0.00072
343.15	0.5851	0.00329	0.00038
343.15	0.7962	0.0019	0.00023
353.15	0.1941	0.01101	0.00104
353.15	0.4024	0.00509	0.00057
353.15	0.5851	0.00265	0.00031
353.15	0.7962	0.00155	0.00019
363.15	0.1941	0.00799	0.0008
363.15	0.4024	0.00399	0.00045
363.15	0.5851	0.0022	0.00026
363.15	0.7962	0.0012	0.00015
373.15	0.1941	0.00598	0.00064
373.15	0.4024	0.00305	0.00035
373.15	0.5851	0.0016	0.0002
373.15	0.7962	0.00112	0.00014

System: diethanolamine + N-methylpyrrolidone; phases: Liquid
Fixed: Pressure, kPa = 101
Property: Mass density, kg/m3 (Liquid); method: Vibrating tube method
Temperature, K	Mole fraction of N-methylpyrrolidone	Mass density, kg/m3	uncertainty
303.15	0.1941	1088.8	0.1
303.15	0.4024	1080.2	0.1
303.15	0.5851	1068	0.1
303.15	0.7962	1047.8	0.2
313.15	0.1941	1081.7	0.1
313.15	0.4024	1073.8	0.1
313.15	0.5851	1061.3	0.1
313.15	0.7962	1040.4	0.1
323.15	0.1941	1075.4	0.1
323.15	0.4024	1067.5	0.1
323.15	0.5851	1054.7	0.1
323.15	0.7962	1033.1	0.1
333.15	0.1941	1069.1	0.1
333.15	0.4024	1061.1	0.1
333.15	0.5851	1048	0.1
333.15	0.7962	1025.7	0.1
343.15	0.1941	1062.8	0.1
343.15	0.4024	1054.8	0.1
343.15	0.5851	1041.4	0.1
343.15	0.7962	1018.4	0.1
353.15	0.1941	1056.5	0.1
353.15	0.4024	1048.4	0.1
353.15	0.5851	1034.7	0.1
353.15	0.7962	1011	0.1
363.15	0.1941	1050.2	0.1
363.15	0.4024	1042.1	0.1
363.15	0.5851	1028.1	0.1
363.15	0.7962	1003.7	0.1
373.15	0.1941	1043.9	0.1
373.15	0.4024	1035.7	0.1
373.15	0.5851	1021.4	0.2
373.15	0.7962	996.3	0.3

System: diethanolamine + sulfolane; phases: Liquid
Fixed: Pressure, kPa = 101
Property: Viscosity, Pa*s (Liquid); method: SPHERE:UFactor:2
Temperature, K	Mole fraction of sulfolane	Viscosity, Pa*s	uncertainty
303.15	0.0999	0.2627	0.0379
303.15	0.2999	0.1254	0.01
303.15	0.4687	0.063487	0.001318
303.15	0.6712	0.014992	0.000322
303.15	0.8322	0.012616	0.00028
323.15	0.0999	0.07314	0.00242
323.15	0.2999	0.03273	0.00067
323.15	0.4687	0.015331	0.000329
323.15	0.6712	0.009455	0.000223
323.15	0.8322	0.007362	0.000188
373.15	0.0999	0.008711	0.000182
373.15	0.2999	0.006616	0.000143
373.15	0.4687	0.004985	0.000114
373.15	0.6712	0.003572	9.1e-05
373.15	0.8322	0.003	8.2e-05

System: diethanolamine + sulfolane; phases: Liquid
Fixed: Pressure, kPa = 101
Property: Mass density, kg/m3 (Liquid); method: Vibrating tube method
Temperature, K	Mole fraction of sulfolane	Mass density, kg/m3	uncertainty
303.15	0.0999	1110	0.1
303.15	0.2999	1145.1	0.2
303.15	0.4687	1171.2	0.2
303.15	0.6712	1203	0.3
303.15	0.8322	1228.3	0.3
323.15	0.0999	1094.8	0.1
323.15	0.2999	1126.7	0.1
323.15	0.4687	1151.6	0.1
323.15	0.6712	1182.9	0.1
323.15	0.8322	1208.2	0.1
373.15	0.0999	1060.7	0.1
373.15	0.2999	1089.4	0.1
373.15	0.4687	1112	0.1
373.15	0.6712	1141.5	0.1
373.15	0.8322	1166	0.1

System: sulfolane + 2-aminoethan-1-ol; phases: Liquid
Fixed: Pressure, kPa = 101
Property: Viscosity, Pa*s (Liquid); method: SPHERE:UFactor:2
Temperature, K	Mole fraction of 2-aminoethan-1-ol	Viscosity, Pa*s	uncertainty
303.15	0.1	0.014021	0.000283
303.15	0.3369	0.011467	0.000231
303.15	0.5426	0.009923	0.0002
303.15	0.7423	0.009547	0.000193
303.15	0.8999	0.00978	0.000197
323.15	0.1	0.007103	0.000143
323.15	0.3369	0.0062	0.000125
323.15	0.5426	0.005815	0.000118
323.15	0.7423	0.00585	0.000118
323.15	0.8999	0.006195	0.000125
373.15	0.1	0.002548	5.2e-05
373.15	0.3369	0.002711	5.5e-05
373.15	0.5426	0.002819	5.7e-05
373.15	0.7423	0.002903	5.9e-05
373.15	0.8999	0.002803	5.7e-05

System: sulfolane + 2-aminoethan-1-ol; phases: Liquid
Fixed: Pressure, kPa = 101
Property: Mass density, kg/m3 (Liquid); method: Vibrating tube method
Temperature, K	Mole fraction of sulfolane	Mass density, kg/m3	uncertainty
303.15	0.1	1043.5	0.5
303.15	0.3369	1116.9	0.7
303.15	0.5426	1170	0.8
303.15	0.7423	1213.4	0.9
303.15	0.8999	1243	1
323.15	0.1	1026.1	0.5
323.15	0.3369	1098.9	0.6
323.15	0.5426	1151.2	0.7
323.15	0.7423	1194	0.8
323.15	0.8999	1223.3	0.8
373.15	0.1	984	0.5
373.15	0.3369	1055.6	0.6
373.15	0.5426	1106.5	0.6
373.15	0.7423	1148.6	0.7
373.15	0.8999	1184	0.8
