Measured thermophysical data. Isobaric low-pressure vapor liquid equilibrium data of the system monochloroacetic acid + dichloroacetic acid + diethylene glycol dipentyl ether and the constituent binary systems
Source: Fluid Phase Equilib., 2012, 10.1016/j.fluid.2012.07.027
Compound 1: 2,2-dichloroacetic acid, C2H2Cl2O2, InChI=1S/C2H2Cl2O2/c3-1(4)2(5)6/h1H,(H,5,6), purity 99%
Compound 2: chloroethanoic acid, C2H3ClO2, InChI=1S/C2H3ClO2/c3-1-2(4)5/h1H2,(H,4,5), purity 99%
Compound 3: 1-(2-(2-(pentyloxy)ethoxy)ethoxy)pentane, C14H30O3, InChI=1S/C14H30O3/c1-3-5-7-9-15-11-13-17-14-12-16-10-8-6-4-2/h3-14H2,1-2H3, purity 98%

System: 1-(2-(2-(pentyloxy)ethoxy)ethoxy)pentane; phases: Liquid, Gas
Property: Vapor or sublimation pressure, kPa (Liquid); method: Ebulliometric method (Recirculating still)
Temperature, K	Vapor or sublimation pressure, kPa	uncertainty
427.5	2	0.03
437.5	3	0.03
444.6	4	0.04
450.3	5	0.05
455.1	6	0.05
459.3	7	0.06
461.2	7.5	0.06
463	8	0.07
466.2	9	0.07
469.1	10	0.08
471.7	11	0.09
474.1	12	0.09
476.3	13	0.1
478.6	14	0.1
480.7	15	0.12
488.8	20	0.14
495.7	25	0.15

System: chloroethanoic acid + 1-(2-(2-(pentyloxy)ethoxy)ethoxy)pentane; phases: Liquid, Gas
Property: Boiling temperature at pressure P, K (Liquid); method: Ebulliometric method (Recirculating still)
Mole fraction of chloroethanoic acid	Pressure, kPa	Boiling temperature at pressure P, K	uncertainty
0.038	5	444.1	0.4
0.039	7.5	455.2	0.4
0.039	10	463.7	0.4
0.069	10	460.8	0.4
0.07	7.5	452.2	0.4
0.075	5	440.1	0.4
0.142	10	451.7	0.4
0.145	7.5	443.1	0.4
0.15	5	431.4	0.4
0.22	10	442.6	0.4
0.226	7.5	434.5	0.4
0.232	5	423.6	0.4
0.318	10	433.9	0.4
0.323	7.5	426.3	0.4
0.329	5	416.1	0.3
0.419	10	426.1	0.3
0.433	7.5	418.6	0.3
0.44	5	408.8	0.3
0.546	5	401.5	0.3
0.548	10	418	0.3
0.55	7.5	410.9	0.3
0.665	5	394.3	0.3
0.667	7.5	403.4	0.3
0.667	10	410.3	0.3
0.777	5	388.1	0.3
0.779	10	403.7	0.3
0.783	7.5	396.7	0.3
0.884	5	383.7	0.3
0.887	7.5	392.7	0.3
0.887	10	399.5	0.3
0.944	5	381.3	0.3
0.944	7.5	390.4	0.3
0.944	10	397	0.3

System: chloroethanoic acid + 1-(2-(2-(pentyloxy)ethoxy)ethoxy)pentane; phases: Gas, Liquid
Property: Mole fraction of chloroethanoic acid (Gas); method: Chromatography
Mole fraction of chloroethanoic acid	Pressure, kPa	Mole fraction of chloroethanoic acid	uncertainty
0.038	5	0.255	0.011
0.039	7.5	0.254	0.011
0.039	10	0.251	0.011
0.069	10	0.412	0.01
0.07	7.5	0.423	0.01
0.075	5	0.445	0.01
0.142	10	0.666	0.008
0.145	7.5	0.676	0.007
0.15	5	0.686	0.007
0.22	10	0.798	0.005
0.226	7.5	0.805	0.004
0.232	5	0.812	0.004
0.318	10	0.89	0.003
0.323	7.5	0.887	0.003
0.329	5	0.894	0.003
0.419	10	0.935	0.002
0.433	7.5	0.938	0.002
0.44	5	0.94	0.002
0.546	5	0.968	0.002
0.548	10	0.965	0.002
0.55	7.5	0.967	0.002
0.665	5	0.984	0.002
0.667	7.5	0.983	0.002
0.667	10	0.982	0.002
0.777	5	0.993	0.002
0.779	10	0.992	0.002
0.783	7.5	0.992	0.002
0.884	5	0.997	0.002
0.887	7.5	0.997	0.002
0.887	10	0.997	0.002
0.944	5	0.999	0.001
0.944	7.5	0.999	0.001
0.944	10	0.999	0.001

System: 2,2-dichloroacetic acid + 1-(2-(2-(pentyloxy)ethoxy)ethoxy)pentane; phases: Liquid, Gas
Property: Boiling temperature at pressure P, K (Liquid); method: Ebulliometric method (Recirculating still)
Mole fraction of 2,2-dichloroacetic acid	Pressure, kPa	Boiling temperature at pressure P, K	uncertainty
0.04	10	467	0.4
0.043	7.5	458.6	0.4
0.048	5	447.8	0.3
0.076	10	466.5	0.4
0.08	7.5	457.8	0.4
0.087	5	447.1	0.3
0.148	10	465.7	0.3
0.152	7.5	457.1	0.4
0.16	5	446.3	0.4
0.243	10	459.7	0.3
0.245	7.5	452.2	0.3
0.249	5	442.3	0.3
0.331	10	454.2	0.3
0.338	7.5	446.9	0.3
0.342	5	437	0.4
0.446	10	445.6	0.3
0.451	7.5	438.2	0.4
0.452	5	428	0.4
0.555	7.5	428.5	0.4
0.556	10	436.1	0.4
0.56	5	418.1	0.4
0.67	7.5	416	0.4
0.671	10	423	0.4
0.672	5	405.7	0.4
0.889	5	387.5	0.4
0.891	10	404.5	0.4
0.893	7.5	397.1	0.4

System: 2,2-dichloroacetic acid + 1-(2-(2-(pentyloxy)ethoxy)ethoxy)pentane; phases: Gas, Liquid
Property: Mole fraction of 2,2-dichloroacetic acid (Gas); method: Chromatography
Mole fraction of 2,2-dichloroacetic acid	Pressure, kPa	Mole fraction of 2,2-dichloroacetic acid	uncertainty
0.04	10	0.095	0.006
0.043	7.5	0.099	0.005
0.048	5	0.101	0.005
0.076	10	0.187	0.006
0.08	7.5	0.188	0.006
0.087	5	0.187	0.006
0.148	10	0.374	0.007
0.152	7.5	0.373	0.007
0.16	5	0.373	0.007
0.243	10	0.567	0.008
0.245	7.5	0.564	0.008
0.249	5	0.558	0.008
0.331	10	0.736	0.005
0.338	7.5	0.722	0.006
0.342	5	0.72	0.006
0.446	10	0.87	0.003
0.451	7.5	0.869	0.004
0.452	5	0.87	0.004
0.555	7.5	0.94	0.002
0.556	10	0.941	0.002
0.56	5	0.944	0.002
0.67	7.5	0.977	0.002
0.671	10	0.978	0.002
0.672	5	0.98	0.002
0.889	5	0.998	0.002
0.891	10	0.998	0.002
0.893	7.5	0.998	0.002

System: chloroethanoic acid + 2,2-dichloroacetic acid + 1-(2-(2-(pentyloxy)ethoxy)ethoxy)pentane; phases: Liquid, Gas
Property: Mole fraction of 2,2-dichloroacetic acid (Liquid); method: Chromatography
Property: Mole fraction of 2,2-dichloroacetic acid (Gas); method: Chromatography
Property: Mole fraction of chloroethanoic acid (Gas); method: Chromatography
Temperature, K	Pressure, kPa	Mole fraction of chloroethanoic acid	Mole fraction of 2,2-dichloroacetic acid	uncertainty	Mole fraction of 2,2-dichloroacetic acid	uncertainty	Mole fraction of chloroethanoic acid	uncertainty
384.8	5	0.718	0.192	0.002	0.129	0.002	0.871	
388.8	5	0.649	0.179	0.002	0.105	0.002	0.894	
395.6	5	0.538	0.155	0.002	0.084	0.002	0.908	
401.6	5	0.457	0.135	0.002	0.074	0.002	0.904	
406.5	5	0.401	0.118	0.002	0.068	0.002	0.892	
410.8	5	0.351	0.106	0.002	0.064	0.002	0.878	
385.7	5	0.441	0.475	0.004	0.394	0.005	0.606	
390	5	0.393	0.439	0.004	0.344	0.004	0.656	
399.2	5	0.322	0.376	0.004	0.284	0.003	0.716	
406.6	5	0.277	0.33	0.003	0.257	0.003	0.73	
412	5	0.24	0.292	0.003	0.241	0.003	0.72	
416.5	5	0.199	0.261	0.003	0.23	0.003	0.704	
386.5	5	0.174	0.742	0.003	0.736	0.004	0.264	
392.2	5	0.153	0.679	0.004	0.687	0.005	0.312	
402.2	5	0.123	0.583	0.004	0.622	0.005	0.372	
411.5	5	0.102	0.507	0.005	0.593	0.005	0.39	
418.7	5	0.086	0.449	0.004	0.566	0.006	0.383	
424	5	0.071	0.399	0.004	0.549	0.006	0.367	
394	7.5	0.718	0.192	0.002	0.132	0.002	0.868	
398.1	7.5	0.653	0.176	0.002	0.109	0.002	0.891	
405.4	7.5	0.534	0.155	0.002	0.087	0.002	0.904	
410.8	7.5	0.453	0.134	0.002	0.076	0.002	0.891	
415.9	7.5	0.393	0.118	0.002	0.07	0.002	0.887	
420.6	7.5	0.336	0.106	0.002	0.068	0.002	0.87	
395.2	7.5	0.437	0.475	0.004	0.396	0.005	0.604	
399.2	7.5	0.388	0.44	0.004	0.346	0.004	0.654	
409.3	7.5	0.322	0.377	0.004	0.293	0.003	0.706	
417.1	7.5	0.276	0.33	0.003	0.267	0.003	0.72	
422.1	7.5	0.227	0.29	0.003	0.253	0.003	0.704	
426.5	7.5	0.2	0.26	0.003	0.239	0.003	0.694	
396.1	7.5	0.176	0.739	0.003	0.737	0.004	0.263	
401.5	7.5	0.154	0.681	0.004	0.69	0.005	0.31	
411.7	7.5	0.122	0.582	0.004	0.628	0.005	0.362	
421.4	7.5	0.1	0.505	0.005	0.6	0.005	0.38	
428.4	7.5	0.083	0.444	0.004	0.575	0.006	0.376	
434	7.5	0.07	0.397	0.004	0.554	0.006	0.361	
400.8	10	0.717	0.192	0.002	0.134	0.002	0.866	
405	10	0.655	0.176	0.002	0.111	0.002	0.888	
412.5	10	0.536	0.154	0.002	0.09	0.002	0.903	
418	10	0.451	0.135	0.002	0.079	0.002	0.895	
423.6	10	0.384	0.119	0.002	0.074	0.002	0.883	
427.5	10	0.346	0.105	0.002	0.07	0.002	0.869	
402.1	10	0.44	0.474	0.004	0.398	0.005	0.602	
406.2	10	0.388	0.44	0.004	0.351	0.004	0.649	
416.6	10	0.32	0.379	0.004	0.3	0.004	0.699	
424.6	10	0.265	0.329	0.003	0.275	0.003	0.71	
429.6	10	0.229	0.29	0.003	0.26	0.003	0.697	
434.2	10	0.206	0.259	0.003	0.246	0.003	0.684	
403.3	10	0.175	0.739	0.003	0.736	0.004	0.264	
408.6	10	0.153	0.677	0.004	0.694	0.004	0.306	
419.1	10	0.123	0.581	0.004	0.633	0.005	0.359	
429.2	10	0.101	0.504	0.005	0.602	0.005	0.377	
435.8	10	0.084	0.444	0.004	0.578	0.006	0.374	
441.6	10	0.069	0.393	0.004	0.554	0.006	0.353	
