Measured thermophysical data. Solid-liquid equilibrium and thermodynamic of 2,5-thiophenedicarboxylic acid in different organic solvents
Source: Fluid Phase Equilib., 2014, 10.1016/j.fluid.2014.05.003
Compound 1: 2,5-thiophenedicarboxylic acid, C6H4O4S, InChI=1S/C6H4O4S/c7-5(8)3-1-2-4(11-3)6(9)10/h1-2H,(H,7,8)(H,9,10), purity 98%
Compound 2: methanol, CH4O, InChI=1S/CH4O/c1-2/h2H,1H3, purity 99.5%
Compound 3: ethanol, C2H6O, InChI=1S/C2H6O/c1-2-3/h3H,2H2,1H3, purity 99.7%
Compound 4: propan-2-ol, C3H8O, InChI=1S/C3H8O/c1-3(2)4/h3-4H,1-2H3, purity 99.5%
Compound 5: butan-1-ol, C4H10O, InChI=1S/C4H10O/c1-2-3-4-5/h5H,2-4H2,1H3, purity 99%
Compound 6: acetic acid, C2H4O2, InChI=1S/C2H4O2/c1-2(3)4/h1H3,(H,3,4), purity 99.5%
Compound 7: hexane, C6H14, InChI=1S/C6H14/c1-3-5-6-4-2/h3-6H2,1-2H3, purity 99%
Compound 8: acetonitrile, C2H3N, InChI=1S/C2H3N/c1-2-3/h1H3, purity 99.9%
Compound 9: acetone, C3H6O, InChI=1S/C3H6O/c1-3(2)4/h1-2H3, purity 99.5%

System: methanol + 2,5-thiophenedicarboxylic acid; phases: Liquid, Crystal
Fixed: Pressure, kPa = 101
Property: Mole fraction of 2,5-thiophenedicarboxylic acid (Liquid); method: Gravimetric method
Temperature, K	Mole fraction of 2,5-thiophenedicarboxylic acid	uncertainty
278.15	0.009571	3.5e-05
283.15	0.01008	4.1e-05
288.15	0.010938	4.8e-05
293.15	0.011832	5.4e-05
298.15	0.012981	6.1e-05
303.15	0.014178	7.1e-05
308.15	0.015831	8.5e-05
313.15	0.017707	9.6e-05
318.15	0.019851	0.000114
323.15	0.022568	0.000131
328.15	0.025437	0.000177
333.15	0.030534	0.000224

System: ethanol + 2,5-thiophenedicarboxylic acid; phases: Liquid, Crystal
Fixed: Pressure, kPa = 101
Property: Mole fraction of 2,5-thiophenedicarboxylic acid (Liquid); method: Gravimetric method
Temperature, K	Mole fraction of 2,5-thiophenedicarboxylic acid	uncertainty
278.15	0.012294	6.5e-05
283.15	0.013632	6.9e-05
288.15	0.015074	7.7e-05
293.15	0.016765	9e-05
298.15	0.018822	0.00011
303.15	0.021456	0.000127
308.15	0.024294	0.000145
313.15	0.027735	0.000169
318.15	0.031647	0.000207
323.15	0.036941	0.00026
328.15	0.043409	0.00032
333.15	0.051544	0.00036

System: propan-2-ol + 2,5-thiophenedicarboxylic acid; phases: Liquid, Crystal
Fixed: Pressure, kPa = 101
Property: Mole fraction of 2,5-thiophenedicarboxylic acid (Liquid); method: Gravimetric method
Temperature, K	Mole fraction of 2,5-thiophenedicarboxylic acid	uncertainty
278.15	0.011103	4.6e-05
283.15	0.011896	5.1e-05
288.15	0.012904	5.7e-05
293.15	0.014016	6.7e-05
298.15	0.015488	8.1e-05
303.15	0.017341	9.6e-05
308.15	0.019524	0.000108
313.15	0.021891	0.000123
318.15	0.024722	0.000152
323.15	0.028551	0.00019
328.15	0.033204	0.000234
333.15	0.039134	0.000265

System: butan-1-ol + 2,5-thiophenedicarboxylic acid; phases: Liquid, Crystal
Fixed: Pressure, kPa = 101
Property: Mole fraction of 2,5-thiophenedicarboxylic acid (Liquid); method: Gravimetric method
Temperature, K	Mole fraction of 2,5-thiophenedicarboxylic acid	uncertainty
278.15	0.009561	2.9e-05
283.15	0.009675	3.1e-05
288.15	0.010075	3.3e-05
293.15	0.010395	3.5e-05
298.15	0.010907	4.1e-05
303.15	0.011619	4.4e-05
308.15	0.012262	4.9e-05
313.15	0.013245	6e-05
318.15	0.014533	6.9e-05
323.15	0.015933	8.1e-05
328.15	0.017823	0.000102
333.15	0.020286	0.000116

System: acetic acid + 2,5-thiophenedicarboxylic acid; phases: Liquid, Crystal
Fixed: Pressure, kPa = 101
Property: Mole fraction of 2,5-thiophenedicarboxylic acid (Liquid); method: Gravimetric method
Temperature, K	Mole fraction of 2,5-thiophenedicarboxylic acid	uncertainty
283.15	0.000843	3e-06
288.15	0.000877	3e-06
293.15	0.000921	3e-06
298.15	0.000971	4e-06
303.15	0.001036	4e-06
308.15	0.001108	5e-06
313.15	0.001227	6e-06
318.15	0.001335	7e-06
323.15	0.001492	9e-06
328.15	0.001697	1e-05
333.15	0.001939	1.1e-05

System: hexane + 2,5-thiophenedicarboxylic acid; phases: Liquid, Crystal
Fixed: Pressure, kPa = 101
Property: Mole fraction of 2,5-thiophenedicarboxylic acid (Liquid); method: Gravimetric method
Temperature, K	Mole fraction of 2,5-thiophenedicarboxylic acid	uncertainty
278.15	0.002032	7e-06
283.15	0.002131	8e-06
288.15	0.002286	9e-06
293.15	0.002456	1.1e-05
298.15	0.00269	1.2e-05
303.15	0.002923	1.3e-05
308.15	0.003194	1.6e-05
313.15	0.003548	1.8e-05
318.15	0.003918	2.2e-05
323.15	0.004459	2.6e-05
328.15	0.005033	3.3e-05
333.15	0.005953	4.1e-05

System: acetonitrile + 2,5-thiophenedicarboxylic acid; phases: Liquid, Crystal
Fixed: Pressure, kPa = 101
Property: Mole fraction of 2,5-thiophenedicarboxylic acid (Liquid); method: Gravimetric method
Temperature, K	Mole fraction of 2,5-thiophenedicarboxylic acid	uncertainty
278.15	0.000966	5e-06
283.15	0.001066	6e-06
288.15	0.001201	7e-06
293.15	0.001366	9e-06
298.15	0.001594	1.1e-05
303.15	0.001843	1.2e-05
308.15	0.002107	1.4e-05
313.15	0.002471	1.7e-05
318.15	0.002846	2.1e-05
323.15	0.003415	2.7e-05
328.15	0.004106	3.5e-05
333.15	0.005072	4.2e-05

System: acetone + 2,5-thiophenedicarboxylic acid; phases: Liquid, Crystal
Fixed: Pressure, kPa = 101
Property: Mole fraction of 2,5-thiophenedicarboxylic acid (Liquid); method: Gravimetric method
Temperature, K	Mole fraction of 2,5-thiophenedicarboxylic acid	uncertainty
278.15	0.005082	1.9e-05
283.15	0.005359	2e-05
288.15	0.005706	2.4e-05
293.15	0.006191	2.7e-05
298.15	0.006659	2.9e-05
303.15	0.007253	3.3e-05
308.15	0.007882	3.8e-05
313.15	0.008724	4.3e-05
318.15	0.009612	5e-05
323.15	0.010755	6.4e-05
328.15	0.012397	7.5e-05
