Measured thermophysical data. Study of tetrahydropyran-chlorobutane VLE using the a o and o o approaches
Source: Fluid Phase Equilib., 2005, 10.1016/j.fluid.2005.02.014
Compound 1: 1-chlorobutane, C4H9Cl, InChI=1S/C4H9Cl/c1-2-3-4-5/h2-4H2,1H3, purity 99%
Compound 2: 2-chloro-2-methylpropane, C4H9Cl, InChI=1S/C4H9Cl/c1-4(2,3)5/h1-3H3, purity 99%
Compound 3: 2-chlorobutane, C4H9Cl, InChI=1S/C4H9Cl/c1-3-4(2)5/h4H,3H2,1-2H3, purity 99%
Compound 4: 1-chloro-2-methylpropane, C4H9Cl, InChI=1S/C4H9Cl/c1-4(2)3-5/h4H,3H2,1-2H3, purity 98%
Compound 5: tetrahydropyran, C5H10O, InChI=1S/C5H10O/c1-2-4-6-5-3-1/h1-5H2, purity 99%

System: 1-chlorobutane; phases: Liquid, Gas
Property: Normal boiling temperature, K (Liquid); method: EBULLIO:UFactor:64:FP
Normal boiling temperature, K	uncertainty
351.52	0.26

System: 1-chlorobutane; phases: Liquid
Property: Mass density, kg/m3 (Liquid); method: VIBTUB:UFactor:4
Temperature, K	Pressure, kPa	Mass density, kg/m3	uncertainty
298.15	101.325	880.67	0.6

System: 2-chloro-2-methylpropane; phases: Liquid, Gas
Property: Normal boiling temperature, K (Liquid); method: EBULLIO:UFactor:64:FP
Normal boiling temperature, K	uncertainty
323.88	0.26

System: 2-chloro-2-methylpropane; phases: Liquid
Property: Mass density, kg/m3 (Liquid); method: VIBTUB:UFactor:4
Temperature, K	Pressure, kPa	Mass density, kg/m3	uncertainty
298.15	101.325	836.45	0.65

System: 2-chlorobutane; phases: Liquid, Gas
Property: Normal boiling temperature, K (Liquid); method: EBULLIO:UFactor:64:FP
Normal boiling temperature, K	uncertainty
341.26	0.26

System: 2-chlorobutane; phases: Liquid
Property: Mass density, kg/m3 (Liquid); method: VIBTUB:UFactor:4
Temperature, K	Pressure, kPa	Mass density, kg/m3	uncertainty
298.15	101.325	867.26	0.62

System: 1-chloro-2-methylpropane; phases: Liquid, Gas
Property: Normal boiling temperature, K (Liquid); method: EBULLIO:UFactor:64:FP
Normal boiling temperature, K	uncertainty
342.05	0.26

System: 1-chloro-2-methylpropane; phases: Liquid
Property: Mass density, kg/m3 (Liquid); method: VIBTUB:UFactor:4
Temperature, K	Pressure, kPa	Mass density, kg/m3	uncertainty
298.15	101.325	870.94	0.99

System: tetrahydropyran; phases: Liquid, Gas
Property: Normal boiling temperature, K (Liquid); method: EBULLIO:UFactor:64:FP
Normal boiling temperature, K	uncertainty
361.23	0.26

System: tetrahydropyran; phases: Liquid
Property: Mass density, kg/m3 (Liquid); method: Vibrating tube method
Temperature, K	Pressure, kPa	Mass density, kg/m3	uncertainty
298.15	101.325	878.8	0.5

System: 1-chlorobutane + tetrahydropyran; phases: Liquid, Gas
Property: Boiling temperature at pressure P, K (Liquid); method: EBULLIO:UFactor:8
Mole fraction of tetrahydropyran	Pressure, kPa	Boiling temperature at pressure P, K	uncertainty
0.0627	101.3	352.21	0.57
0.0636	40	324.95	0.4
0.1032	101.3	352.49	0.57
0.1289	40	325.53	0.4
0.1477	101.3	352.96	0.57
0.1877	40	326.15	0.4
0.2321	101.3	353.75	0.57
0.2843	40	327.05	0.4
0.3121	101.3	354.8	0.57
0.3758	101.3	355.49	0.58
0.4068	40	328.25	0.4
0.455	101.3	356.35	0.58
0.4946	40	329.05	0.4
0.5432	101.3	357.02	0.58
0.5967	40	330.05	0.4
0.6866	101.3	358.58	0.58
0.6916	40	330.92	0.4
0.7811	40	331.71	0.41
0.8006	101.3	359.61	0.58
0.8548	40	332.25	0.4
0.896	101.3	360.4	0.58
0.9141	40	332.81	0.4
0.9447	101.3	360.79	0.58
0.978	101.3	361.18	0.58

System: 1-chlorobutane + tetrahydropyran; phases: Gas, Liquid
Property: Mole fraction of tetrahydropyran (Gas); method: Density calibration data
Mole fraction of tetrahydropyran	Pressure, kPa	Mole fraction of tetrahydropyran	uncertainty
0.0627	101.3	0.0443	0.01
0.0636	40	0.0434	0.01
0.1032	101.3	0.0748	0.01
0.1289	40	0.089	0.01
0.1477	101.3	0.1062	0.01
0.1877	40	0.1398	0.01
0.2321	101.3	0.1749	0.01
0.2843	40	0.2161	0.01
0.3121	101.3	0.2494	0.01
0.3758	101.3	0.309	0.0101
0.4068	40	0.3294	0.0101
0.455	101.3	0.3834	0.0102
0.4946	40	0.4117	0.0103
0.5432	101.3	0.4749	0.0105
0.5967	40	0.5317	0.0106
0.6866	101.3	0.6311	0.0105
0.6916	40	0.6308	0.0105
0.7811	40	0.7296	0.0104
0.8006	101.3	0.7564	0.0103
0.8548	40	0.8207	0.0102
0.896	101.3	0.8712	0.0101
0.9141	40	0.8959	0.0101
0.9447	101.3	0.9321	0.01
0.978	101.3	0.9736	0.01

System: 2-chlorobutane + tetrahydropyran; phases: Liquid, Gas
Property: Boiling temperature at pressure P, K (Liquid); method: EBULLIO:UFactor:8
Mole fraction of tetrahydropyran	Pressure, kPa	Boiling temperature at pressure P, K	uncertainty
0.0615	40	315.21	0.4
0.0713	101.3	342.51	0.57
0.1288	40	316.25	0.4
0.1496	101.3	343.88	0.57
0.2116	40	317.65	0.4
0.2503	101.3	345.85	0.57
0.3167	40	319.61	0.4
0.3766	101.3	348.25	0.58
0.4098	40	321.12	0.4
0.4868	101.3	350.53	0.58
0.5143	40	323.14	0.41
0.5818	101.3	352.53	0.58
0.6547	40	325.98	0.41
0.7082	101.3	355.24	0.59
0.71	40	327.17	0.41
0.7662	40	328.12	0.41
0.8088	40	328.98	0.41
0.8147	101.3	357.35	0.59
0.8755	101.3	358.77	0.58
0.8963	40	331.15	0.41
0.9271	101.3	359.8	0.59
0.9635	101.3	360.57	0.58

System: 2-chlorobutane + tetrahydropyran; phases: Gas, Liquid
Property: Mole fraction of tetrahydropyran (Gas); method: Density calibration data
Mole fraction of tetrahydropyran	Pressure, kPa	Mole fraction of tetrahydropyran	uncertainty
0.0615	40	0.0272	0.01
0.0713	101.3	0.0312	0.01
0.1288	40	0.0638	0.01
0.1496	101.3	0.0864	0.01
0.2116	40	0.1134	0.01
0.2503	101.3	0.1503	0.01
0.3167	40	0.1871	0.01
0.3766	101.3	0.2486	0.01
0.4098	40	0.2481	0.01
0.4868	101.3	0.3436	0.0101
0.5143	40	0.3521	0.0102
0.5818	101.3	0.4377	0.0104
0.6547	40	0.4885	0.0106
0.7082	101.3	0.5816	0.0106
0.71	40	0.5588	0.0106
0.7662	40	0.6266	0.0105
0.8088	40	0.6871	0.0105
0.8147	101.3	0.7185	0.0104
0.8755	101.3	0.8029	0.0102
0.8963	40	0.8138	0.0102
0.9271	101.3	0.8855	0.0101
0.9635	101.3	0.9381	0.01

System: tetrahydropyran + 1-chloro-2-methylpropane; phases: Liquid, Gas
Property: Boiling temperature at pressure P, K (Liquid); method: EBULLIO:UFactor:8
Mole fraction of tetrahydropyran	Pressure, kPa	Boiling temperature at pressure P, K	uncertainty
0.067	40	316.27	0.4
0.069	101.3	343.14	0.58
0.1696	40	317.76	0.4
0.1808	101.3	345	0.58
0.2024	40	318.45	0.4
0.2694	101.3	346.49	0.58
0.292	40	319.71	0.4
0.4095	101.3	348.92	0.58
0.4317	40	322.26	0.4
0.4705	101.3	350.3	0.58
0.5604	40	324.4	0.44
0.6145	40	325.43	0.4
0.6876	101.3	354.32	0.58
0.6876	101.3	354.32	0.58
0.6878	40	326.87	0.4
0.7244	101.3	355.15	0.58
0.7789	40	328.68	0.4
0.8408	101.3	357.61	0.58
0.8616	40	330.34	0.4
0.903	101.3	359.04	0.58
0.9313	40	331.9	0.41
0.9622	101.3	360.49	0.58

System: tetrahydropyran + 1-chloro-2-methylpropane; phases: Gas, Liquid
Property: Mole fraction of tetrahydropyran (Gas); method: Density calibration data
Mole fraction of tetrahydropyran	Pressure, kPa	Mole fraction of tetrahydropyran	uncertainty
0.067	40	0.0402	0.01
0.069	101.3	0.0361	0.01
0.1696	40	0.0839	0.01
0.1808	101.3	0.1039	0.01
0.2024	40	0.1067	0.01
0.2694	101.3	0.1666	0.01
0.292	40	0.1703	0.01
0.4095	101.3	0.2764	0.0102
0.4317	40	0.2747	0.0102
0.4705	101.3	0.3305	0.0103
0.5604	40	0.3967	0.0106
0.6145	40	0.4591	0.011
0.6876	101.3	0.5647	0.0112
0.6876	101.3	0.5647	0.0112
0.6878	40	0.5391	0.0112
0.7244	101.3	0.601	0.0111
0.7789	40	0.6513	0.0109
0.8408	101.3	0.754	0.0105
0.8616	40	0.7724	0.0105
0.903	101.3	0.8481	0.0102
0.9313	40	0.8816	0.0101
0.9622	101.3	0.9308	0.01

System: tetrahydropyran + 2-chloro-2-methylpropane; phases: Liquid, Gas
Fixed: Pressure, kPa = 101.3
Property: Boiling temperature at pressure P, K (Liquid); method: EBULLIO:UFactor:16
Mole fraction of tetrahydropyran	Boiling temperature at pressure P, K	uncertainty
0.0766	325.7	0.49
0.1427	327.21	0.49
0.1949	328.87	0.49
0.3188	332.69	0.49
0.4038	335.34	0.49
0.4554	337.15	0.49
0.556	340.85	0.49
0.6007	342.61	0.49
0.7247	347.84	0.49
0.7789	350.3	0.49
0.8742	354.86	0.49
0.9235	357.35	0.49
0.9781	360.2	0.49

System: tetrahydropyran + 2-chloro-2-methylpropane; phases: Gas, Liquid
Fixed: Pressure, kPa = 101.3
Property: Mole fraction of tetrahydropyran (Gas); method: Density calibration data
Mole fraction of tetrahydropyran	Mole fraction of tetrahydropyran	uncertainty
0.0766	0.02	0.016
0.1427	0.0426	0.016
0.1949	0.0661	0.016
0.3188	0.1138	0.016
0.4038	0.1657	0.016
0.4554	0.2051	0.016
0.556	0.2826	0.016
0.6007	0.3214	0.0161
0.7247	0.4709	0.0163
0.7789	0.549	0.0164
0.8742	0.7244	0.0162
0.9235	0.8208	0.0161
0.9781	0.9429	0.016
