Measured thermophysical data. Tris(2-ethylhexyl) trimellitate (TOTM) as a potential industrial reference fluid for viscosity at high temperatures and high pressures: New viscosity, density and surface tension measurements
Source: Fluid Phase Equilib., 2016, 10.1016/j.fluid.2016.01.012
Compound 1: tris(2-ethylhexyl) trimellitate, C33H54O6, InChI=1S/C33H54O6/c1-7-13-16-25(10-4)22-37-31(34)28-19-20-29(32(35)38-23-26(11-5)17-14-8-2)30(21-28)33(36)39-24-27(12-6)18-15-9-3/h19-21,25-27H,7-18,22-24H2,1-6H3, purity 99%
Compound 2: water, H2O, InChI=1S/H2O/h1H2, purity 99.8%

System: tris(2-ethylhexyl) trimellitate; phases: Liquid
Property: Mass density, kg/m3 (Liquid); method: Vibrating tube method
Temperature, K	Pressure, kPa	Mass density, kg/m3	uncertainty
313.15	100	973.4	3.9
313.15	67990	1009.4	4
313.15	40020	996.1	4
313.15	10000	979.5	3.9
293.15	100	988.2	4
293.15	9990	993.8	4
293.15	39980	1009.2	4
293.15	68000	1021.5	4.1
353.15	100	944.4	3.8
353.15	9990	951.5	3.8
353.15	40020	970.7	3.9
353.15	68060	985.5	4
373.15	100	930.1	3.7
373.15	10000	937.8	3.8
373.15	40040	958.4	3.8
373.15	67970	974.1	3.9

System: tris(2-ethylhexyl) trimellitate + water; phases: Liquid
Fixed: Pressure, kPa = 101
Property: Viscosity, Pa*s (Liquid); method: Capillary tube (Ostwald; Ubbelohde) method
Temperature, K	Mass fraction of water	Viscosity, Pa*s	uncertainty
303.16	0.000121	0.1539	0.0054
303.16	0.000123	0.1539	0.0054
303.16	0.00028	0.1531	0.0054
303.15	0.00037	0.1527	0.0054
303.16	0.000415	0.1522	0.0053
303.16	0.00052	0.1516	0.0059
303.16	0.000549	0.1514	0.0054
303.15	0.000565	0.1512	0.0053
303.14	0.000636	0.1511	0.0066
328.15	7.8e-05	0.0413	0.0013
328.16	0.000186	0.0411	0.0013
328.15	0.000291	0.041	0.0013
328.13	0.000414	0.0409	0.0013
328.15	0.000427	0.0408	0.0013
328.15	0.000428	0.0408	0.0013

System: tris(2-ethylhexyl) trimellitate + water; phases: Liquid
Fixed: Mass fraction of water = 0.000129
Property: Viscosity, Pa*s (Liquid); method: Vibrating wire viscometry
Temperature, K	Pressure, kPa	Viscosity, Pa*s	uncertainty
303.14	4940	0.1728	0.0058
303.15	4930	0.1725	0.0057
303.15	4930	0.1725	0.0057
303.15	4930	0.1725	0.0057
303.14	20150	0.2465	0.0091
303.15	20130	0.2472	0.0091
303.15	20060	0.246	0.009
303.14	49910	0.4658	0.0215
303.14	49910	0.4643	0.0214
303.15	49940	0.4636	0.0214
313.15	5120	0.09547	0.00276
313.15	5100	0.09541	0.00275
313.15	5080	0.09529	0.00275
313.15	20040	0.1313	0.0041
313.15	20000	0.1314	0.0041
313.15	19950	0.1312	0.0041
313.15	50050	0.2423	0.0088
313.15	50050	0.2412	0.0088
313.15	50060	0.2412	0.0088
313.15	65090	0.3193	0.0134
313.15	65090	0.3197	0.0134
313.15	65060	0.3189	0.0133
313.16	30050	0.1626	0.0053
313.15	30040	0.162	0.0053
313.15	30030	0.1625	0.0053
313.15	40270	0.1983	0.0068
313.15	40280	0.1985	0.0068
313.15	40310	0.1988	0.0068
313.15	80220	0.424	0.0191
313.15	80220	0.4214	0.019
313.15	80220	0.4217	0.019
328.16	5030	0.04529	0.00098
328.16	5070	0.04526	0.00098
328.16	5060	0.04522	0.00098
328.16	20090	0.06072	0.00136
328.16	20090	0.06074	0.00136
328.16	20120	0.06078	0.00136
328.16	30060	0.07333	0.00203
328.16	30020	0.07335	0.00203
328.16	30030	0.07324	0.00203
328.16	50000	0.1048	0.0031
328.16	50010	0.1046	0.0031
328.16	49960	0.1054	0.0031
328.14	81040	0.1813	0.0061
328.14	80940	0.1808	0.0061
328.13	80920	0.1808	0.0061
328.14	99730	0.2432	0.0088
328.14	99730	0.2424	0.0088
328.13	99730	0.2428	0.0088
328.13	40380	0.08926	0.00253
328.14	40390	0.08902	0.00252
328.14	40440	0.08911	0.00253
343.15	5150	0.02461	0.00053
343.15	5160	0.02461	0.00053
343.15	5160	0.02461	0.00053
343.15	50010	0.05358	0.00116
343.15	49990	0.05358	0.00116
343.15	49980	0.05364	0.00116
343.15	80220	0.08588	0.00244
343.15	80220	0.08583	0.00243
343.15	80220	0.08589	0.00244
343.15	99360	0.1148	0.0035
343.15	99270	0.1145	0.0035
343.15	99220	0.1147	0.0035
358.17	4740	0.01475	0.00032
358.17	4700	0.01475	0.00032
358.17	4660	0.01474	0.00032
358.17	80630	0.04774	0.00102
358.17	80630	0.0477	0.00102
358.17	80630	0.04771	0.00102
358.17	99520	0.06177	0.00134
358.17	99380	0.06175	0.00134
358.18	99380	0.06179	0.00134
358.17	10000	0.01624	0.00035
358.17	9990	0.01623	0.00035
358.17	9930	0.0162	0.00035
358.17	40020	0.02624	0.00056
358.17	40000	0.02625	0.00056
358.17	39970	0.02623	0.00056
358.17	65200	0.03822	0.00081
358.17	65180	0.03831	0.00081
358.17	65170	0.03828	0.00081
373.16	39960	0.01676	0.00036
373.16	39930	0.01673	0.00036
373.16	39900	0.01671	0.00036
373.16	65290	0.02384	0.00051
373.16	65240	0.02382	0.00051
373.16	65200	0.02378	0.00051
373.16	79890	0.02898	0.00062
373.16	79850	0.02907	0.00062
373.16	79820	0.02895	0.00062
373.16	94970	0.03516	0.00076
373.16	94880	0.03512	0.00076
373.16	94870	0.03505	0.00076

System: tris(2-ethylhexyl) trimellitate + water; phases: Liquid, Gas
Fixed: Mass fraction of tris(2-ethylhexyl) trimellitate = 0.000129
Property: Surface tension liquid-gas, N/m (Liquid); method: Pendant drop shape
Temperature, K	Surface tension liquid-gas, N/m	uncertainty
293.85	0.0309	0.0004
303.05	0.0301	0.0004
312.96	0.0294	0.0004
323	0.0287	0.0004
333.42	0.0278	0.0004
314.07	0.0293	0.0004
293.3	0.0309	0.0004

System: tris(2-ethylhexyl) trimellitate + water; phases: Liquid, Glass
Fixed: Mass fraction of water = 0.000129
Property: Surface tension liquid-gas, N/m (Liquid); method: Pendant drop shape
Temperature, K	Surface tension liquid-gas, N/m	uncertainty
304.47	0.0301	0.0004
315.08	0.0294	0.0004
