Measured thermophysical data. Isobaric vapor-liquid equilibria of the binary system maleic anhydride and dimethyl phthalate at 2.67, 5.33 and 8.00 kPa
Source: Fluid Phase Equilib., 2006, 10.1016/j.fluid.2006.06.013
Compound 1: dimethyl 1,2-benzenedicarboxylate, C10H10O4, InChI=1S/C10H10O4/c1-13-9(11)7-5-3-4-6-8(7)10(12)14-2/h3-6H,1-2H3
Compound 2: maleic anhydride, C4H2O3, InChI=1S/C4H2O3/c5-3-1-2-4(6)7-3/h1-2H

System: dimethyl 1,2-benzenedicarboxylate; phases: Liquid
Property: Refractive index (Na D-line) (Liquid); method: Standard Abbe refractometry
Temperature, K	Pressure, kPa	Refractive index (Na D-line)	uncertainty
293.2	101.325	1.516	0.001

System: dimethyl 1,2-benzenedicarboxylate; phases: Liquid, Gas
Property: Vapor or sublimation pressure, kPa (Liquid); method: EBULLIO:UFactor:16
Temperature, K	Vapor or sublimation pressure, kPa	uncertainty
417.59	0.934	0.125
425.4	1.466	0.126
435.12	2.21	0.127
444.5	3.356	0.128
454.9	5.164	0.131
466.01	7.823	0.135
475.82	11.132	0.14
486.11	15.421	0.146
496.11	20.928	0.155
506.87	28.703	0.167
516.84	38.156	0.183
525.54	48.709	0.198

System: maleic anhydride; phases: Crystal, Liquid, Air at 1 atmosphere
Property: Normal melting temperature, K (Crystal); method: VISOBS
Normal melting temperature, K	uncertainty
325.6	0.5

System: maleic anhydride + dimethyl 1,2-benzenedicarboxylate; phases: Liquid, Gas
Property: Boiling temperature at pressure P, K (Liquid); method: EBULLIO:UFactor:16
Pressure, kPa	Mole fraction of maleic anhydride	Boiling temperature at pressure P, K	uncertainty
2.67	0.0538	427.21	4.25
2.67	0.1646	409.24	4.12
2.67	0.2478	398.01	4.1
2.67	0.3677	388.74	4.4
2.67	0.4649	384.57	4.46
2.67	0.5769	381.35	4.38
2.67	0.6829	378.5	4.18
2.67	0.7871	375.62	4.26
2.67	0.8925	372.27	4.19
5.33	0.0564	441.18	4.49
5.33	0.1669	423.7	4.74
5.33	0.2495	413.61	4.75
5.33	0.3687	404.81	4.84
5.33	0.4656	400.14	4.86
5.33	0.5773	396.24	4.41
5.33	0.6832	392.63	4.3
5.33	0.7872	389.9	4.41
5.33	0.8926	386.47	4.31
8	0.0579	451.81	4.53
8	0.1684	435.28	5.16
8	0.2506	424.44	5.36
8	0.3694	415.78	5.07
8	0.4661	411.8	4.73
8	0.5776	406.05	4.39
8	0.6834	402.63	4.33
8	0.7873	400.35	4.14
8	0.8926	396.43	4.16
