Measured thermophysical data. Phase equilibria of (water + butyric acid + butyl acetate) ternary systems at different temperatures
Source: Fluid Phase Equilib., 2014, 10.1016/j.fluid.2014.07.023
Compound 1: water, H2O, InChI=1S/H2O/h1H2, purity 99.8%
Compound 2: butanoic acid, C4H8O2, InChI=1S/C4H8O2/c1-2-3-4(5)6/h2-3H2,1H3,(H,5,6), purity 99%
Compound 3: butyl ethanoate, C6H12O2, InChI=1S/C6H12O2/c1-3-4-5-8-6(2)7/h3-5H2,1-2H3, purity 99%

System: water; phases: Liquid
Property: Mass density, kg/m3 (Liquid); method: Vibrating tube method
Temperature, K	Pressure, kPa	Mass density, kg/m3	uncertainty
298.2	101.325	999.9	1

System: water; phases: Liquid, Gas
Property: Normal boiling temperature, K (Liquid); method: Closed cell (Static) method
Normal boiling temperature, K	uncertainty
373.2	1

System: water; phases: Liquid
Property: Refractive index (Na D-line) (Liquid); method: Standard Abbe refractometry
Temperature, K	Pressure, kPa	Refractive index (Na D-line)	uncertainty
298.2	101.325	1.3324	0.00068

System: butanoic acid; phases: Liquid
Property: Mass density, kg/m3 (Liquid); method: Vibrating tube method
Temperature, K	Pressure, kPa	Mass density, kg/m3	uncertainty
298.2	101.325	952.81	1.02

System: butanoic acid; phases: Liquid, Gas
Property: Normal boiling temperature, K (Liquid); method: Closed cell (Static) method
Normal boiling temperature, K	uncertainty
436.7	1

System: butanoic acid; phases: Liquid
Property: Refractive index (Na D-line) (Liquid); method: Standard Abbe refractometry
Temperature, K	Pressure, kPa	Refractive index (Na D-line)	uncertainty
298.2	101.325	1.39755	0.0007

System: butyl ethanoate; phases: Liquid
Property: Mass density, kg/m3 (Liquid); method: Vibrating tube method
Temperature, K	Pressure, kPa	Mass density, kg/m3	uncertainty
298.2	101.325	875.8	1

System: butyl ethanoate; phases: Liquid, Gas
Property: Normal boiling temperature, K (Liquid); method: Closed cell (Static) method
Normal boiling temperature, K	uncertainty
397.3	1

System: butyl ethanoate; phases: Liquid
Property: Refractive index (Na D-line) (Liquid); method: Standard Abbe refractometry
Temperature, K	Pressure, kPa	Refractive index (Na D-line)	uncertainty
298.2	101.325	1.393	0.0007

System: butanoic acid + butyl ethanoate + water; phases: Liquid mixture 1, Liquid mixture 2
Fixed: Pressure, kPa = 101.325
Property: Mass fraction of butanoic acid (Liquid mixture 1); method: Titration method
Temperature, K	Mass fraction of water	Mass fraction of butanoic acid	uncertainty
298.2	0.9949	0	
298.2	0.8852	0.1082	0.0034
298.2	0.7899	0.2014	0.0063
298.2	0.6924	0.2955	0.0092
298.2	0.5921	0.3877	0.012
298.2	0.4931	0.4724	0.0146
298.2	0.3808	0.5627	0.0136
298.2	0.2696	0.6114	0.012
298.2	0.1597	0.5945	0.0126
298.2	0.1065	0.549	0.014
298.2	0.0672	0.4938	0.0153
298.2	0.0544	0.3982	0.0126
298.2	0.0399	0.3101	0.01
298.2	0.0281	0.2139	0.0074
298.2	0.0149	0.1085	0.0054
298.2	0.0087	0	
308.2	0.9954	0	
308.2	0.8926	0.0994	0.0031
308.2	0.7972	0.1947	0.006
308.2	0.693	0.2905	0.009
308.2	0.588	0.3839	0.0119
308.2	0.4822	0.4777	0.0148
308.2	0.3741	0.5575	0.0137
308.2	0.2656	0.5986	0.0124
308.2	0.1743	0.5992	0.0124
308.2	0.1139	0.5547	0.0138
308.2	0.0746	0.4821	0.015
308.2	0.0576	0.3989	0.0126
308.2	0.0422	0.3173	0.0101
308.2	0.0251	0.2213	0.0076
308.2	0.017	0.1128	0.0069
308.2	0.0101	0	
318.2	0.9963	0	
318.2	0.8953	0.0998	0.0031
318.2	0.791	0.1977	0.0061
318.2	0.6851	0.2934	0.0091
318.2	0.5841	0.3814	0.0118
318.2	0.4767	0.4691	0.0145
318.2	0.3785	0.5372	0.0144
318.2	0.2488	0.5783	0.0131
318.2	0.1992	0.5699	0.0134
318.2	0.1367	0.5178	0.015
318.2	0.0894	0.4723	0.0147
318.2	0.0665	0.3804	0.012
318.2	0.0539	0.2981	0.0095
318.2	0.0317	0.2088	0.0069
318.2	0.0188	0.1101	0.0051
318.2	0.0097	0	

System: butanoic acid + butyl ethanoate + water; phases: Liquid mixture 1, Liquid mixture 2
Fixed: Pressure, kPa = 101.325
Property: Mass fraction of water (Liquid mixture 1); method: Chromatography
Property: Mass fraction of water (Liquid mixture 2); method: Chromatography
Property: Mass fraction of butanoic acid (Liquid mixture 2); method: Chromatography
Temperature, K	Mass fraction of butanoic acid	Mass fraction of water	uncertainty	Mass fraction of water	uncertainty	Mass fraction of butanoic acid	uncertainty
298.2	0.0168	0.9815	0.0006	0.0134	0.0004	0.0939	
308.2	0.0648	0.9267	0.0008	0.0694	0.0007	0.4386	
318.2	0.0173	0.9794	0.0006	0.0169	0.0004	0.0925	
318.2	0.0286	0.9675	0.0006	0.0368	0.0005	0.1884	
318.2	0.0401	0.9552	0.0007	0.0572	0.0007	0.2756	
318.2	0.0528	0.9417	0.0007	0.0683	0.0007	0.3651	
318.2	0.0662	0.9262	0.0008	0.0858	0.0008	0.4448	
298.2	0.0282	0.9685	0.0006	0.0236	0.0004	0.1807	
298.2	0.0403	0.9559	0.0007	0.0362	0.0005	0.2707	
298.2	0.0515	0.9405	0.0008	0.0552	0.0006	0.3559	
298.2	0.0643	0.926	0.0008	0.0734	0.0007	0.4375	
308.2	0.0169	0.9814	0.0006	0.0163	0.0004	0.0945	
308.2	0.0281	0.9691	0.0006	0.0249	0.0005	0.1872	
308.2	0.0395	0.9562	0.0007	0.0353	0.0005	0.2742	
308.2	0.0517	0.9408	0.0007	0.0507	0.0006	0.357	
