Measured thermophysical data. The behavior of mercury in water, alcohols, monoethylene glycol and triethylene glycol II. Elemental mercury solubility in alcohols, ethers and acetone; gas plant mercury distribution; and speciation in monoethylene glycol solution
Source: Fluid Phase Equilib., 2018, 10.1016/j.fluid.2018.08.014
Compound 1: acetone, C3H6O, InChI=1S/C3H6O/c1-3(2)4/h1-2H3, purity 99.9%
Compound 2: hexan-1-ol, C6H14O, InChI=1S/C6H14O/c1-2-3-4-5-6-7/h7H,2-6H2,1H3, purity 99.9%
Compound 3: decan-1-ol, C10H22O, InChI=1S/C10H22O/c1-2-3-4-5-6-7-8-9-10-11/h11H,2-10H2,1H3, purity 99.9%
Compound 4: diisopropyl ether, C6H14O, InChI=1S/C6H14O/c1-5(2)7-6(3)4/h5-6H,1-4H3, purity 99.9%
Compound 5: dibutyl ether, C8H18O, InChI=1S/C8H18O/c1-3-5-7-9-8-6-4-2/h3-8H2,1-2H3, purity 99.9%
Compound 6: mercury, Hg, InChI=1S/Hg, purity 99.999%

System: mercury + acetone; phases: Liquid mixture 1, Liquid
Fixed: Pressure, kPa = 101
Property: Mass ratio of solute to solvent of mercury (Liquid mixture 1); method: Cold vapor atomic fluorescence spectrometry
Temperature, K	Mass ratio of solute to solvent of mercury	uncertainty
255.15	2.7e-08	2.2e-08
255.65	3.8e-08	1.6e-08
258.15	5.7e-08	1.6e-08
272.15	1.33e-07	3.1e-08
293.15	5.2e-07	1.39e-07
307.65	2.364e-06	3.85e-07

System: mercury + hexan-1-ol; phases: Liquid mixture 1, Liquid
Fixed: Pressure, kPa = 101
Property: Mass ratio of solute to solvent of mercury (Liquid mixture 1); method: Cold vapor atomic fluorescence spectrometry
Temperature, K	Mass ratio of solute to solvent of mercury	uncertainty
272.15	3.56e-07	5.3e-08
288.15	7.07e-07	1.82e-07
293.15	9.93e-07	2.17e-07
295.15	1.111e-06	3.22e-07
308.15	1.803e-06	3.62e-07

System: mercury + decan-1-ol; phases: Liquid mixture 1, Liquid
Fixed: Pressure, kPa = 101
Property: Mass ratio of solute to solvent of mercury (Liquid mixture 1); method: Cold vapor atomic fluorescence spectrometry
Temperature, K	Mass ratio of solute to solvent of mercury	uncertainty
294.15	1.135e-06	6.9e-08
296.65	1.175e-06	1.12e-07
308.25	1.956e-06	3.69e-07
314.85	2.265e-06	4.02e-07

System: mercury + diisopropyl ether; phases: Liquid mixture 1, Liquid
Fixed: Pressure, kPa = 101
Property: Mass ratio of solute to solvent of mercury (Liquid mixture 1); method: Cold vapor atomic fluorescence spectrometry
Temperature, K	Mass ratio of solute to solvent of mercury	uncertainty
273.15	3.45e-07	7.7e-08
288.15	9.11e-07	1.44e-07
298.15	1.557e-06	3.08e-07
315.15	3.698e-06	5.53e-07
333.15	8.816e-06	9.23e-07

System: mercury + dibutyl ether; phases: Liquid mixture 1, Liquid
Fixed: Pressure, kPa = 101
Property: Mass ratio of solute to solvent of mercury (Liquid mixture 1); method: Cold vapor atomic fluorescence spectrometry
Temperature, K	Mass ratio of solute to solvent of mercury	uncertainty
273.15	6.85e-07	1.39e-07
288.15	1.584e-06	2.04e-07
298.15	2.704e-06	3.94e-07
315.15	6.448e-06	8.59e-07
333.15	1.54e-05	1.971e-06
