Measured thermophysical data. The liquid-liquid coexistence curves of {x  1-octyl-3-methylimidazolium hexafluorophosphate + (1-x)  1-butanol} and  {x 1-octyl-3-methylimidazolium hexafluorophosphate + (1  -  x) 2-butanol} in the critical region
Source: Fluid Phase Equilib., 2013, 10.1016/j.fluid.2013.03.020
Compound 1: 1-octyl-3-methylimidazolium hexafluorophosphate, C12H23F6N2P, InChI=1S/C12H23N2.F6P/c1-3-4-5-6-7-8-9-14-11-10-13(2)12-14;1-7(2,3,4,5)6/h10-12H,3-9H2,1-2H3;/q+1;-1, purity 99%
Compound 2: butan-1-ol, C4H10O, InChI=1S/C4H10O/c1-2-3-4-5/h5H,2-4H2,1H3, purity 99.9%
Compound 3: butan-2-ol, C4H10O, InChI=1S/C4H10O/c1-3-4(2)5/h4-5H,3H2,1-2H3, purity 99.9%

System: butan-1-ol + 1-octyl-3-methylimidazolium hexafluorophosphate; phases: Liquid
Fixed: Pressure, kPa = 101.3
Property: Refractive index (Na D-line) (Liquid); method: Minimum deviation angle technique
Temperature, K	Mole fraction of 1-octyl-3-methylimidazolium hexafluorophosphate	Refractive index (Na D-line)	uncertainty
326.526	0.082	1.3907	0.0003
326.517	0.081	1.3906	0.0003
326.511	0.079	1.3905	0.0003
326.495	0.076	1.3903	0.0003
326.48	0.073	1.3901	0.0004
326.463	0.072	1.39	0.0004
326.441	0.069	1.3898	0.0004
326.427	0.067	1.3897	0.0003
326.413	0.066	1.3896	0.0003
326.385	0.064	1.3895	0.0003
326.352	0.063	1.3894	0.0004
326.326	0.061	1.3893	0.0003
326.276	0.06	1.3892	0.0003
326.249	0.058	1.3891	0.0003
326.221	0.057	1.389	0.0004
326.166	0.055	1.3889	0.0005
326.135	0.054	1.3888	0.0004
326.063	0.052	1.3887	0.0004
325.987	0.05	1.3886	0.0004
325.946	0.05	1.3886	0.0003
325.824	0.048	1.3885	0.0003
325.749	0.047	1.3884	0.0003
325.658	0.045	1.3883	0.0004
325.635	0.045	1.3883	0.0003
325.406	0.042	1.3882	0.0003
325.252	0.04	1.3881	0.0003
325.048	0.038	1.388	0.0003
324.798	0.035	1.3879	0.0003
324.489	0.033	1.3878	0.0003
324.112	0.031	1.3878	0.0003
323.677	0.029	1.3878	0.0003
323.156	0.026	1.3878	0.0003
322.54	0.024	1.3879	0.0003
321.83	0.022	1.388	0.0003
321.018	0.019	1.3881	0.0003
320.113	0.017	1.3883	0.0003
319.111	0.016	1.3886	0.0003
318.006	0.014	1.3889	0.0003
316.811	0.013	1.3893	0.0003
315.525	0.011	1.3897	0.0003
326.526	0.113	1.3927	0.0003
326.517	0.117	1.393	0.0003
326.511	0.119	1.3931	0.0003
326.495	0.124	1.3934	0.0003
326.48	0.126	1.3935	0.0003
326.463	0.127	1.3936	0.0003
326.441	0.129	1.3937	0.0003
326.427	0.132	1.3939	0.0003
326.413	0.134	1.394	0.0003
326.385	0.139	1.3943	0.0003
326.352	0.14	1.3944	0.0003
326.326	0.142	1.3945	0.0003
326.276	0.147	1.3948	0.0003
326.249	0.149	1.3949	0.0003
326.221	0.15	1.395	0.0004
326.166	0.152	1.3951	0.0004
326.135	0.155	1.3953	0.0003
326.063	0.158	1.3955	0.0003
325.987	0.162	1.3957	0.0002
325.946	0.163	1.3958	0.0002
325.824	0.168	1.3961	0.0002
325.749	0.172	1.3963	0.0003
325.658	0.175	1.3965	0.0002
325.635	0.175	1.3965	0.0003
325.406	0.183	1.397	0.0003
325.252	0.186	1.3972	0.0003
325.048	0.191	1.3975	0.0003
324.798	0.195	1.3978	0.0003
324.489	0.204	1.3983	0.0003
324.112	0.212	1.3988	0.0003
323.677	0.219	1.3993	0.0003
323.156	0.227	1.3998	0.0003
322.54	0.238	1.4005	0.0003
321.83	0.249	1.4012	0.0003
321.018	0.26	1.4019	0.0003
320.113	0.267	1.4025	0.0003
319.111	0.282	1.4034	0.0003
318.006	0.294	1.4042	0.0003
316.811	0.305	1.405	0.0003
315.525	0.319	1.4059	0.0003

System: butan-2-ol + 1-octyl-3-methylimidazolium hexafluorophosphate; phases: Liquid
Fixed: Pressure, kPa = 101.3
Property: Refractive index (Na D-line) (Liquid); method: Minimum deviation angle technique
Temperature, K	Mole fraction of 1-octyl-3-methylimidazolium hexafluorophosphate	Refractive index (Na D-line)	uncertainty
324.53	0.074	1.3887	0.0004
324.528	0.073	1.3886	0.0004
324.524	0.071	1.3885	0.0004
324.518	0.07	1.3884	0.0004
324.511	0.069	1.3883	0.0004
324.502	0.067	1.3882	0.0004
324.492	0.066	1.3881	0.0004
324.484	0.065	1.388	0.0004
324.473	0.064	1.3879	0.0004
324.464	0.062	1.3878	0.0004
324.455	0.061	1.3877	0.0004
324.447	0.06	1.3876	0.0004
324.433	0.059	1.3875	0.0005
324.419	0.059	1.3875	0.0004
324.391	0.057	1.3874	0.0005
324.377	0.056	1.3873	0.0003
324.353	0.055	1.3872	0.0004
324.325	0.054	1.3871	0.0003
324.294	0.052	1.387	0.0003
324.258	0.051	1.3869	0.0003
324.215	0.05	1.3868	0.0004
324.165	0.048	1.3867	0.0004
324.105	0.047	1.3866	0.0004
324.032	0.045	1.3865	0.0004
323.943	0.043	1.3863	0.0004
323.844	0.041	1.3862	0.0004
323.719	0.039	1.3861	0.0004
323.579	0.037	1.386	0.0004
323.394	0.035	1.3859	0.0004
323.177	0.033	1.3858	0.0004
322.917	0.031	1.3857	0.0004
322.608	0.028	1.3856	0.0004
322.244	0.026	1.3856	0.0004
321.793	0.024	1.3856	0.0004
321.223	0.021	1.3856	0.0004
320.524	0.02	1.3858	0.0004
319.67	0.018	1.386	0.0004
318.643	0.015	1.3862	0.0003
317.43	0.013	1.3866	0.0003
316.006	0.01	1.387	0.0003
314.613	0.009	1.3875	0.0003
324.53	0.093	1.3902	0.0004
324.528	0.094	1.3903	0.0004
324.524	0.097	1.3905	0.0004
324.518	0.098	1.3906	0.0004
324.511	0.101	1.3908	0.0003
324.502	0.104	1.391	0.0004
324.492	0.107	1.3912	0.0003
324.484	0.108	1.3913	0.0004
324.473	0.109	1.3914	0.0004
324.464	0.111	1.3915	0.0004
324.455	0.112	1.3916	0.0004
324.447	0.113	1.3917	0.0004
324.433	0.115	1.3918	0.0003
324.419	0.116	1.3919	0.0004
324.391	0.117	1.392	0.0003
324.377	0.119	1.3921	0.0004
324.353	0.12	1.3922	0.0004
324.325	0.123	1.3924	0.0003
324.294	0.124	1.3925	0.0004
324.258	0.125	1.3926	0.0003
324.215	0.128	1.3928	0.0004
324.165	0.131	1.393	0.0003
324.105	0.134	1.3932	0.0003
324.032	0.138	1.3935	0.0003
323.943	0.14	1.3937	0.0002
323.844	0.145	1.394	0.0003
323.719	0.147	1.3942	0.0003
323.579	0.152	1.3946	0.0004
323.394	0.156	1.3949	0.0004
323.177	0.161	1.3953	0.0004
322.917	0.166	1.3957	0.0004
322.608	0.173	1.3962	0.0004
322.244	0.181	1.3968	0.0004
321.793	0.188	1.3974	0.0004
321.223	0.193	1.3979	0.0004
320.524	0.205	1.3988	0.0004
319.67	0.214	1.3996	0.0004
318.643	0.226	1.4006	0.0003
317.43	0.239	1.4017	0.0003
316.006	0.251	1.4028	0.0003
314.613	0.263	1.4039	0.0003
