Measured thermophysical data. The influence of Na2SO4 on the CO2 solubility in water at high pressure
Source: Fluid Phase Equilib., 2005, 10.1016/j.fluid.2005.10.006
Compound 1: carbon dioxide, CO2, InChI=1S/CO2/c2-1-3
Compound 2: sodium sulfate, Na2O4S, InChI=1S/2Na.H2O4S/c;;1-5(2,3)4/h;;(H2,1,2,3,4)/q2*+1;/p-2, purity 99%
Compound 3: water, H2O, InChI=1S/H2O/h1H2

System: carbon dioxide + water; phases: Liquid, Gas
Property: Vapor or sublimation pressure, kPa (Liquid); method: CCELL:UFactor:4
Mole fraction of carbon dioxide	Temperature, K	Vapor or sublimation pressure, kPa	uncertainty
0.00764	296.73	1550	20
0.00764	307.68	2020	30
0.00764	319.03	2560	40
0.00764	323.08	2740	40
0.00764	327.92	3040	40
0.00764	338.12	3580	50
0.00764	347.35	4070	60
0.00764	352.67	4280	60
0.00764	358.73	4670	60
0.00764	367.86	5070	70
0.01	299.82	1990	30
0.01	309.39	2530	40
0.01	318.93	3170	50
0.01	327.35	3720	50
0.01	338.4	4490	60
0.01	347.48	5030	70
0.01	357.84	5610	80
0.01	366.54	6090	90
0.01258	299.98	2630	40
0.01258	307.81	3240	50
0.01258	317.53	4070	60
0.01258	327.84	5010	80
0.01258	338.17	5940	90
0.01258	347.03	6700	100
0.01258	357.42	7540	110
0.01258	369.65	8340	120

System: carbon dioxide + water + sodium sulfate; phases: Liquid, Gas
Property: Vapor or sublimation pressure, kPa (Liquid); method: CCELL:UFactor:2
Solvent: Molality, mol/kg of sodium sulfate	Mole fraction of carbon dioxide	Temperature, K	Vapor or sublimation pressure, kPa	uncertainty
0.0249711	0.0078	298.4	1980	20
0.0249711	0.0078	307.73	2460	30
0.0249711	0.0078	318.98	3100	30
0.0249711	0.0078	328.26	3630	40
0.0249711	0.0078	339.37	4280	50
0.0249711	0.0078	348.45	4750	50
0.0249711	0.0078	358.07	5250	60
0.0249711	0.0078	368.81	5710	70
0.0249711	0.01026	298.2	2570	30
0.0249711	0.01026	307.19	3220	40
0.0249711	0.01026	317.6	4060	50
0.0249711	0.01026	327.45	4890	60
0.0249711	0.01026	337.2	5690	80
0.0249711	0.01026	345.93	6410	90
0.0249711	0.01026	355.81	7130	100
0.0249711	0.01026	364.57	7720	100
0.0249711	0.01289	298.2	3540	50
0.0249711	0.01289	309.18	4690	60
0.0249711	0.01289	318.04	5640	70
0.0249711	0.01289	327.87	6960	90
0.0249711	0.01289	337.88	8260	110
0.0249711	0.01289	349.65	9660	120
0.0249711	0.01289	359.57	10640	140
0.0249711	0.01289	367.44	11320	150
0.50154	0.00744	298.84	2500	40
0.50154	0.00744	304.01	2740	40
0.50154	0.00744	309.52	3150	50
0.50154	0.00744	312.44	3350	50
0.50154	0.00744	317.79	3710	60
0.50154	0.00744	322.3	4040	60
0.50154	0.00744	328.34	4440	60
0.50154	0.00744	338.06	5070	80
0.50154	0.00744	347.87	5690	90
0.50154	0.00744	357.52	6210	90
0.50154	0.00744	367.2	6660	100
0.50154	0.01002	298.02	3560	40
0.50154	0.01002	300.06	3720	40
0.50154	0.01002	302.97	3970	50
0.50154	0.01002	309.67	4500	50
0.50154	0.01002	310.27	4620	50
0.50154	0.01002	315.71	5140	60
0.50154	0.01002	319.73	5500	60
0.50154	0.01002	327.87	6270	80
0.50154	0.01002	337.41	7190	90
0.50154	0.01002	348.39	8170	100
0.50154	0.01002	356.66	8860	100
0.50154	0.01002	362.62	9320	110
0.50154	0.01249	289.23	3030	30
0.50154	0.01249	291.45	3250	30
0.50154	0.01249	293.38	3440	30
0.50154	0.01249	298.89	4040	40
0.50154	0.01249	308.51	5240	60
0.50154	0.01249	318.04	6580	70
0.50154	0.01249	328.08	8100	90
0.50154	0.01249	333.26	8900	110
0.50154	0.01249	339.66	9840	120
0.50154	0.01249	348.05	11000	140
0.50154	0.01249	349.26	11130	140
0.986703	0.00773	299.31	3540	40
0.986703	0.00773	307.78	4350	50
0.986703	0.00773	317.53	5270	70
0.986703	0.00773	322.93	5900	80
0.986703	0.00773	327.19	6400	80
0.986703	0.01026	298.3	4700	50
0.986703	0.01026	310.86	6540	80
0.986703	0.01026	319.63	8090	130
0.986703	0.01026	325.29	9160	170
0.986703	0.01026	330.34	10090	130
0.986703	0.01026	332.74	10510	140
0.986703	0.01026	340.1	11820	170
0.986703	0.01026	344.05	12440	170
0.986703	0.01026	349.42	13110	170
0.986703	0.01155	291.75	4470	80
0.986703	0.01155	295.23	5020	110
0.986703	0.01155	297.63	5390	200
0.986703	0.01155	302.59	6270	70
0.986703	0.01155	307.71	7320	110
0.986703	0.01155	310.66	8040	120
0.986703	0.01155	312.88	8570	120
0.986703	0.01155	316.64	9770	190
0.986703	0.01155	318.77	10500	190
0.986703	0.01155	319.73	10800	190
0.986703	0.01155	323.6	12150	250
0.986703	0.01155	325.37	12790	250
0.986703	0.01304	286.97	4840	80
0.986703	0.01304	289.51	5280	90
0.986703	0.01304	291.57	5760	110
0.986703	0.01304	295.03	7160	160
0.986703	0.01304	296.31	7960	220
0.986703	0.01304	297.63	9660	410
0.986703	0.01304	298.15	10170	370
0.995676	0.00986	298.97	4650	50
0.995676	0.00986	303.13	5190	60
0.995676	0.00986	308.02	5880	60
0.995676	0.00986	314.54	6860	80
0.995676	0.00986	317.86	7390	80
0.995676	0.00986	325.03	8560	110
0.995676	0.00986	329.54	9310	130
0.995676	0.00986	335.38	10260	130
0.995676	0.00986	342.19	11240	170
0.995676	0.00986	345.02	11630	170
0.995676	0.01154	300.42	5720	170
0.995676	0.01154	313.45	8890	550
0.996313	0.01161	294.2	4800	130
0.996313	0.01161	299.02	5620	170
0.996313	0.01161	304.65	6720	80
0.996313	0.01161	306.52	7140	120
0.996313	0.01161	308.12	7640	120
0.996313	0.01161	310.03	8060	120
0.996313	0.01161	311.69	8550	140
0.996313	0.01161	313.77	9460	440
0.996313	0.01161	316.51	10480	200
