Measured thermophysical data. Liquid-liquid equilibria of imidazolium ionic liquids having bistriflamide or triflate anions with aromatic non-polar and polar compounds
Source: Fluid Phase Equilib., 2013, 10.1016/j.fluid.2012.10.007
Compound 1: 1-butyl-3-methylimidazolium trifluoromethanesulfonate, C9H15F3N2O3S, InChI=1S/C8H15N2.CHF3O3S/c1-3-4-5-10-7-6-9(2)8-10;2-1(3,4)8(5,6)7/h6-8H,3-5H2,1-2H3;(H,5,6,7)/q+1;/p-1, purity 99%
Compound 2: 1,4-dimethylbenzene, C8H10, InChI=1S/C8H10/c1-7-3-5-8(2)6-4-7/h3-6H,1-2H3, purity 99%
Compound 3: benzene, C6H6, InChI=1S/C6H6/c1-2-4-6-5-3-1/h1-6H, purity 99.9%
Compound 4: (-)-3-(N-methylpyrrolidino)pyridine, C10H14N2, InChI=1S/C10H14N2/c1-12-7-3-5-10(12)9-4-2-6-11-8-9/h2,4,6,8,10H,3,5,7H2,1H3/t10-/m0/s1, purity 99%
Compound 5: aniline, C6H7N, InChI=1S/C6H7N/c7-6-4-2-1-3-5-6/h1-5H,7H2, purity 99.5%
Compound 6: toluene, C7H8, InChI=1S/C7H8/c1-7-5-3-2-4-6-7/h2-6H,1H3, purity 99.9%
Compound 7: 1-hexyl-3-methylimidazolium bis[(trifluoromethyl)sulfonyl]imide, C12H19F6N3O4S2, InChI=1S/C10H19N2.C2F6NO4S2/c1-3-4-5-6-7-12-9-8-11(2)10-12;3-1(4,5)14(10,11)9-15(12,13)2(6,7)8/h8-10H,3-7H2,1-2H3;/q+1;-1, purity 99%
Compound 8: 1-ethyl-3-methylimidazolium trifluoromethanesulfonate, C7H11F3N2O3S, InChI=1S/C6H11N2.CHF3O3S/c1-3-8-5-4-7(2)6-8;2-1(3,4)8(5,6)7/h4-6H,3H2,1-2H3;(H,5,6,7)/q+1;/p-1, purity 99%
Compound 9: 1-hexyl-3-methylimidazolium trifluoromethanesulfonate, C11H19F3N2O3S, InChI=1S/C10H19N2.CHF3O3S/c1-3-4-5-6-7-12-9-8-11(2)10-12;2-1(3,4)8(5,6)7/h8-10H,3-7H2,1-2H3;(H,5,6,7)/q+1;/p-1, purity 99%
Compound 10: 1-decyl-3-methylimidazolium bis(trifluoromethylsulfonyl)amide, C16H27F6N3O4S2, InChI=1S/C14H27N2.C2F6NO4S2/c1-3-4-5-6-7-8-9-10-11-16-13-12-15(2)14-16;3-1(4,5)14(10,11)9-15(12,13)2(6,7)8/h12-14H,3-11H2,1-2H3;/q+1;-1, purity 99%

System: benzene + 1-ethyl-3-methylimidazolium trifluoromethanesulfonate; phases: Liquid mixture 1, Liquid mixture 2
Fixed: Pressure, kPa = 100
Property: Liquid-liquid equilibrium temperature, K (Liquid mixture 1); method: VISOBS
Mole fraction of 1-ethyl-3-methylimidazolium trifluoromethanesulfonate	Liquid-liquid equilibrium temperature, K	uncertainty
0.48058	296.55	2.01
0.46625	316.35	2.01
0.45085	342.05	2.01
0.44235	352.05	2.01

System: benzene + 1-hexyl-3-methylimidazolium trifluoromethanesulfonate; phases: Liquid mixture 1, Liquid mixture 2
Fixed: Pressure, kPa = 100
Property: Liquid-liquid equilibrium temperature, K (Liquid mixture 1); method: VISOBS
Mole fraction of 1-hexyl-3-methylimidazolium trifluoromethanesulfonate	Liquid-liquid equilibrium temperature, K	uncertainty
0.18372	294.85	2.01
0.17348	334.15	2.01
0.17112	353.65	2.01
0.17855	316.65	2.01

System: toluene + 1-ethyl-3-methylimidazolium trifluoromethanesulfonate; phases: Liquid mixture 1, Liquid mixture 2
Fixed: Pressure, kPa = 100
Property: Liquid-liquid equilibrium temperature, K (Liquid mixture 1); method: VISOBS
Mole fraction of 1-ethyl-3-methylimidazolium trifluoromethanesulfonate	Liquid-liquid equilibrium temperature, K	uncertainty
0.62178	297.95	2.01
0.57676	333.25	2.01
0.60521	314.25	2.01

System: toluene + 1-hexyl-3-methylimidazolium trifluoromethanesulfonate; phases: Liquid mixture 1, Liquid mixture 2
Fixed: Pressure, kPa = 100
Property: Liquid-liquid equilibrium temperature, K (Liquid mixture 1); method: VISOBS
Mole fraction of 1-hexyl-3-methylimidazolium trifluoromethanesulfonate	Liquid-liquid equilibrium temperature, K	uncertainty
0.30178	296.25	2.01
0.29798	334.45	2.01
0.30023	315.25	2.01

System: 1,4-dimethylbenzene + 1-ethyl-3-methylimidazolium trifluoromethanesulfonate; phases: Liquid mixture 1, Liquid mixture 2
Fixed: Pressure, kPa = 100
Property: Liquid-liquid equilibrium temperature, K (Liquid mixture 1); method: VISOBS
Mole fraction of 1-ethyl-3-methylimidazolium trifluoromethanesulfonate	Liquid-liquid equilibrium temperature, K	uncertainty
0.78386	296.25	2.01
0.76095	333.35	2.01
0.74411	365.65	2.01

System: 1,4-dimethylbenzene + 1-hexyl-3-methylimidazolium trifluoromethanesulfonate; phases: Liquid mixture 1, Liquid mixture 2
Fixed: Pressure, kPa = 100
Property: Liquid-liquid equilibrium temperature, K (Liquid mixture 1); method: VISOBS
Mole fraction of 1-hexyl-3-methylimidazolium trifluoromethanesulfonate	Liquid-liquid equilibrium temperature, K	uncertainty
0.46403	294.15	2.01
0.47106	333.45	2.01
0.48012	363.15	2.01

System: 1,4-dimethylbenzene + 1-hexyl-3-methylimidazolium bis[(trifluoromethyl)sulfonyl]imide; phases: Liquid mixture 1, Liquid mixture 2
Fixed: Pressure, kPa = 100
Property: Liquid-liquid equilibrium temperature, K (Liquid mixture 1); method: VISOBS
Mole fraction of 1-hexyl-3-methylimidazolium bis[(trifluoromethyl)sulfonyl]imide	Liquid-liquid equilibrium temperature, K	uncertainty
0.27845	297.05	2.01
0.27709	334.35	2.01
0.27011	363.15	2.01

System: 1,4-dimethylbenzene + 1-decyl-3-methylimidazolium bis(trifluoromethylsulfonyl)amide; phases: Liquid mixture 1, Liquid mixture 2
Fixed: Pressure, kPa = 100
Property: Liquid-liquid equilibrium temperature, K (Liquid mixture 1); method: VISOBS
Mole fraction of 1-decyl-3-methylimidazolium bis(trifluoromethylsulfonyl)amide	Liquid-liquid equilibrium temperature, K	uncertainty
0.11393	298.15	2.01
0.1065	327.65	2.01
0.09703	342.65	2.01
0.09203	353.85	2.01
0.08966	359.95	2.01

System: (-)-3-(N-methylpyrrolidino)pyridine + 1-ethyl-3-methylimidazolium trifluoromethanesulfonate; phases: Liquid mixture 1, Liquid mixture 2
Fixed: Pressure, kPa = 100
Property: Liquid-liquid equilibrium temperature, K (Liquid mixture 1); method: VISOBS
Mole fraction of 1-ethyl-3-methylimidazolium trifluoromethanesulfonate	Liquid-liquid equilibrium temperature, K	uncertainty
0.02275	294.65	2.01
0.02923	334.85	2.01
0.06215	392.15	2.01
0.0695	411.65	2.01
0.07366	436.75	2.01
0.04808	374.65	2.01
0.02451	310.25	2.01
0.03612	355.65	2.01
0.62101	295.05	2.01
0.60557	334.05	2.01
0.5575	386.75	2.01
0.52205	411.35	2.01
0.50689	432.25	2.01
0.58585	365.25	2.01
0.6157	310.35	2.01

System: aniline + 1-ethyl-3-methylimidazolium trifluoromethanesulfonate; phases: Liquid mixture 1, Liquid mixture 2
Fixed: Pressure, kPa = 100
Property: Liquid-liquid equilibrium temperature, K (Liquid mixture 1); method: VISOBS
Mole fraction of 1-ethyl-3-methylimidazolium trifluoromethanesulfonate	Liquid-liquid equilibrium temperature, K	uncertainty
0.1222	311.65	2.01
0.13051	360.45	2.01
0.11863	297.65	2.01
0.12554	336.95	2.01
0.14025	371.45	2.01
0.80593	314.85	2.01
0.6023	346.15	2.01
0.49641	359.35	2.01
0.93394	296.15	2.01
0.38553	369.45	2.01
0.3167	374.55	2.01
0.24716	376.05	2.01
0.20543	376.65	2.01

System: aniline + 1-butyl-3-methylimidazolium trifluoromethanesulfonate; phases: Liquid mixture 1, Liquid mixture 2
Fixed: Pressure, kPa = 100
Property: Liquid-liquid equilibrium temperature, K (Liquid mixture 1); method: VISOBS
Mole fraction of 1-butyl-3-methylimidazolium trifluoromethanesulfonate	Liquid-liquid equilibrium temperature, K	uncertainty
0.51399	332.55	2.01
0.28667	369.75	2.01
0.48132	338.25	2.01
0.31755	366.45	2.01
0.13104	350.15	2.01
0.24215	371.65	2.01
0.40172	353.15	2.01
0.58945	316.15	2.01
0.12541	328.15	2.01
0.12153	295.15	2.01
0.12203	310.65	2.01
0.15542	366.75	2.01
0.20898	371.15	2.01
0.68887	295.05	2.01
0.58945	316.15	2.01
0.12541	328.15	2.01
0.12153	295.15	2.01
0.12203	310.65	2.01
0.15542	366.75	2.01
0.20898	371.15	2.01
0.68887	295.05	2.01
