Measured thermophysical data. Ternary liquid-liquid equilibrium of an azeotropic mixture (hexane + methanol) with different imidazolium-based ionic liquids at T = 298.15 K and 101.325 kPa
Source: Fluid Phase Equilib., 2018, 10.1016/j.fluid.2018.01.008
Compound 1: hexane, C6H14, InChI=1S/C6H14/c1-3-5-6-4-2/h3-6H2,1-2H3, purity 99.5%
Compound 2: methanol, CH4O, InChI=1S/CH4O/c1-2/h2H,1H3, purity 99%
Compound 3: 1-methylimidazolium hydrogen sulfate, C4H8N2O4S, InChI=1S/C4H6N2.H2O4S/c1-6-3-2-5-4-6;1-5(2,3)4/h2-4H,1H3;(H2,1,2,3,4), purity 98%
Compound 4: 1-butyl-3-methylimidazolium hydrogen sulfate, C8H16N2O4S, InChI=1S/C8H15N2.H2O4S/c1-3-4-5-10-7-6-9(2)8-10;1-5(2,3)4/h6-8H,3-5H2,1-2H3;(H2,1,2,3,4)/q+1;/p-1, purity 98%
Compound 5: 1-butyl-3-methylimidazolium trifluoromethanesulfonate, C9H15F3N2O3S, InChI=1S/C8H15N2.CHF3O3S/c1-3-4-5-10-7-6-9(2)8-10;2-1(3,4)8(5,6)7/h6-8H,3-5H2,1-2H3;(H,5,6,7)/q+1;/p-1, purity 98%

System: hexane + methanol + 1-methylimidazolium hydrogen sulfate; phases: Liquid mixture 2, Liquid mixture 1
Fixed: Temperature, K = 298.15
Fixed: Pressure, kPa = 101
Property: Mole fraction of hexane (Liquid mixture 2); method: Chromatography
Property: Mole fraction of methanol (Liquid mixture 1); method: Chromatography
Property: Mole fraction of hexane (Liquid mixture 1); method: Chromatography
Mole fraction of methanol	Mole fraction of hexane	uncertainty	Mole fraction of methanol	uncertainty	Mole fraction of hexane	uncertainty
0.1171	0.0116	0.006	0.0037	0.0037	0.9954	
0.3225	0.016	0.006	0.0109	0.0082	0.9872	
0.4532	0.0179	0.006	0.0231	0.0087	0.9744	
0.5913	0.0168	0.006	0.0341	0.0088	0.965	
0.6831	0.0156	0.006	0.0474	0.0085	0.9517	
0.7664	0.0137	0.006	0.0601	0.006	0.9391	

System: hexane + methanol + 1-butyl-3-methylimidazolium hydrogen sulfate; phases: Liquid mixture 2, Liquid mixture 1
Fixed: Temperature, K = 298.15
Fixed: Pressure, kPa = 101
Property: Mole fraction of hexane (Liquid mixture 2); method: Chromatography
Property: Mole fraction of methanol (Liquid mixture 1); method: Chromatography
Property: Mole fraction of hexane (Liquid mixture 1); method: Chromatography
Mole fraction of methanol	Mole fraction of hexane	uncertainty	Mole fraction of methanol	uncertainty	Mole fraction of hexane	uncertainty
0.1131	0.0082	0.006	0.0031	0.0031	0.9963	
0.1906	0.0097	0.006	0.0053	0.0053	0.9938	
0.3754	0.0103	0.006	0.0116	0.0083	0.9871	
0.536	0.0156	0.006	0.0164	0.0083	0.9819	
0.7301	0.02	0.006	0.0242	0.0084	0.9739	
0.9239	0.0242	0.006	0.04	0.006	0.9577	

System: hexane + methanol + 1-butyl-3-methylimidazolium trifluoromethanesulfonate; phases: Liquid mixture 2, Liquid mixture 1
Fixed: Temperature, K = 298.15
Fixed: Pressure, kPa = 101
Property: Mole fraction of hexane (Liquid mixture 2); method: Chromatography
Property: Mole fraction of methanol (Liquid mixture 1); method: Chromatography
Property: Mole fraction of hexane (Liquid mixture 1); method: Chromatography
Mole fraction of methanol	Mole fraction of hexane	uncertainty	Mole fraction of methanol	uncertainty	Mole fraction of hexane	uncertainty
0.179	0.029	0.006	0.0038	0.0038	0.9962	
0.3075	0.0318	0.006	0.007	0.006	0.9929	
0.5131	0.0326	0.006	0.0122	0.0085	0.9878	
0.6409	0.026	0.006	0.0216	0.0085	0.9784	
0.714	0.0263	0.006	0.0269	0.0085	0.9731	
0.7812	0.0329	0.006	0.0319	0.0085	0.9681	
0.8158	0.0309	0.006	0.0469	0.006	0.9531	
