Measured thermophysical data. The solid-liquid phase diagrams of binary mixtures of even saturated fatty alcohols
Source: Fluid Phase Equilib., 2011, 10.1016/j.fluid.2011.01.028
Compound 1: octan-1-ol, C8H18O, InChI=1S/C8H18O/c1-2-3-4-5-6-7-8-9/h9H,2-8H2,1H3, purity 99.5%
Compound 2: decan-1-ol, C10H22O, InChI=1S/C10H22O/c1-2-3-4-5-6-7-8-9-10-11/h11H,2-10H2,1H3, purity 99.4%
Compound 3: dodecan-1-ol, C12H26O, InChI=1S/C12H26O/c1-2-3-4-5-6-7-8-9-10-11-12-13/h13H,2-12H2,1H3, purity 99.8%
Compound 4: 1-tetradecanol, C14H30O, InChI=1S/C14H30O/c1-2-3-4-5-6-7-8-9-10-11-12-13-14-15/h15H,2-14H2,1H3, purity 98.4%
Compound 5: 1-hexadecanol, C16H34O, InChI=1S/C16H34O/c1-2-3-4-5-6-7-8-9-10-11-12-13-14-15-16-17/h17H,2-16H2,1H3, purity 99.9%
Compound 6: 1-octadecanol, C18H38O, InChI=1S/C18H38O/c1-2-3-4-5-6-7-8-9-10-11-12-13-14-15-16-17-18-19/h19H,2-18H2,1H3, purity 99.6%

System: octan-1-ol + dodecan-1-ol; phases: Liquid, Crystal, Crystal
Property: Triple point temperature, K (Liquid); method: DTA
Mole fraction of octan-1-ol	Triple point temperature, K	uncertainty
0	297.84	1.25
0.1082	295.19	1.25
0.1977	293.32	1.25
0.3018	290.83	1.25
0.4003	287.21	1.25
0.5097	284.76	1.25
0.6004	280.85	1.25
0.695	276.53	1.25
0.7958	269.13	1.25
0.8503	260.57	1.26
0.9006	253.13	1.25
0.9467	252.11	1.25
1	258.7	1.25

System: octan-1-ol + dodecan-1-ol; phases: Liquid, Crystal, Crystal
Property: Eutectic temperature, K (Liquid); method: DTA
Mole fraction of octan-1-ol	Eutectic temperature, K	uncertainty
0.1082	247.12	1.25
0.1977	247.18	1.25
0.3018	248.5	1.25
0.5097	249.31	1.25
0.6004	249.21	1.25
0.695	249.99	1.25
0.7958	248.74	1.25
0.8503	251.41	1.25
0.9006	248.93	1.25

System: octan-1-ol + 1-tetradecanol; phases: Liquid, Crystal, Crystal
Property: Triple point temperature, K (Liquid); method: DTA
Mole fraction of octan-1-ol	Triple point temperature, K	uncertainty
0	311.32	1.25
0.0571	310.81	1.25
0.1111	309.05	1.25
0.149	308.81	1.25
0.2035	307.03	1.25
0.2463	306.36	1.25
0.3005	305.56	1.25
0.4063	302.77	1.25
0.4507	301.45	1.25
0.5072	299.01	1.25
0.5497	297.75	1.25
0.6008	296.25	1.25
0.6526	293.75	1.25
0.7006	291.86	1.25
0.7491	288.23	1.25
0.7976	286.19	1.25
0.8504	282.17	1.26
0.8995	275.61	1.28
0.9506	255	1.26
1	258.7	1.25

System: octan-1-ol + 1-tetradecanol; phases: Liquid, Crystal, Crystal
Property: Eutectic temperature, K (Liquid); method: DTA
Mole fraction of octan-1-ol	Eutectic temperature, K	uncertainty
0.1111	248.16	1.25
0.2035	249.11	1.25
0.2463	249.35	1.25
0.3005	251.44	1.25
0.4063	251.23	1.25
0.4507	254.4	1.25
0.5072	254.05	1.25
0.5497	254.03	1.25
0.6008	252.43	1.25
0.6526	254.36	1.25
0.7976	253.2	1.25
0.8504	252.72	1.25
0.8995	253.21	1.25

System: decan-1-ol + 1-tetradecanol; phases: Liquid, Crystal, Crystal
Property: Triple point temperature, K (Liquid); method: DTA
Mole fraction of decan-1-ol	Triple point temperature, K	uncertainty
0	311.31	1.25
0.0445	310.23	1.25
0.1118	308.78	1.25
0.1618	307.72	1.25
0.2057	307.21	1.25
0.2444	306.24	1.25
0.3098	304.86	1.25
0.3523	303.5	1.25
0.4032	301.44	1.25
0.503	299.37	1.25
0.5451	297.96	1.25
0.6001	295.15	1.25
0.6514	293.53	1.25
0.7009	290.71	1.25
0.7526	286.9	1.25
0.802	280.92	1.26
0.8456	273.78	1.25
0.8979	275.78	1.25
0.9533	277.12	1.25
1	281.08	1.25

System: decan-1-ol + 1-tetradecanol; phases: Liquid, Crystal, Crystal
Property: Eutectic temperature, K (Liquid); method: DTA
Mole fraction of decan-1-ol	Eutectic temperature, K	uncertainty
0.1118	271.55	1.25
0.1618	272.29	1.25
0.2057	273.17	1.25
0.2444	273.25	1.25
0.3098	273.49	1.25
0.3523	273.96	1.25
0.4032	272.52	1.25
0.503	274.31	1.25
0.5451	274.5	1.25
0.6001	274.05	1.25
0.6514	274.73	1.25
0.7009	274.92	1.25
0.7526	274.91	1.25
0.802	274.06	1.25

System: decan-1-ol + 1-hexadecanol; phases: Liquid, Crystal, Crystal
Property: Triple point temperature, K (Liquid); method: DTA
Mole fraction of decan-1-ol	Triple point temperature, K	uncertainty
0	323.27	1.25
0.0546	322.01	1.25
0.0963	321.45	1.25
0.2292	318.7	1.25
0.2493	318.58	1.25
0.2942	317.26	1.25
0.3552	315.89	1.25
0.3988	315.87	1.25
0.447	314.36	1.25
0.5018	313.68	1.25
0.5501	311.75	1.25
0.5995	309.68	1.25
0.6463	307.21	1.25
0.7013	304.38	1.25
0.7471	303.02	1.25
0.8041	299.07	1.25
0.8505	295.35	1.26
0.9022	287.16	1.26
0.9517	277.63	1.25
1	281.08	1.25

System: decan-1-ol + 1-hexadecanol; phases: Liquid, Crystal, Crystal
Property: Eutectic temperature, K (Liquid); method: DTA
Mole fraction of decan-1-ol	Eutectic temperature, K	uncertainty
0.0546	275.51	1.25
0.0963	276.56	1.25
0.2292	276.75	1.25
0.2493	276.82	1.25
0.2942	277.08	1.25
0.3552	276.81	1.25
0.3988	277.11	1.25
0.447	276.92	1.25
0.5018	277.06	1.25
0.5501	276.94	1.25
0.5995	277.3	1.25
0.6463	277.78	1.25
0.7013	277.5	1.25
0.7471	277.53	1.25
0.8041	277.48	1.25
0.8505	277.68	1.25
0.9022	277.78	1.25

System: dodecan-1-ol + 1-octadecanol; phases: Liquid, Crystal, Crystal
Property: Triple point temperature, K (Liquid); method: DTA
Mole fraction of dodecan-1-ol	Triple point temperature, K	uncertainty
0	331.6	1.25
0.1	329.91	1.25
0.1961	328.33	1.25
0.2988	326.34	1.25
0.404	323.77	1.25
0.4973	321.46	1.25
0.5984	318.4	1.25
0.6964	314.96	1.25
0.7989	307.07	1.25
0.9018	295.36	1.25
0.9487	296	1.25
1	297.84	1.25

System: dodecan-1-ol + 1-octadecanol; phases: Liquid, Crystal, Crystal
Property: Eutectic temperature, K (Liquid); method: DTA
Mole fraction of dodecan-1-ol	Eutectic temperature, K	uncertainty
0.1	294.05	1.25
0.1961	294.28	1.25
0.2988	294.83	1.25
0.404	294.89	1.25
0.4973	295.05	1.25
0.5984	294.35	1.25
0.6964	294.9	1.25
0.7989	294.9	1.25
0.9018	293.97	1.25
