Measured thermophysical data. Isothermal vapour liquid equilibria in the binary and ternary systems composed of 2-propanol, 3-methyl-2-butanone and 2,2,4-trimethylpentane
Source: Fluid Phase Equilib., 2008, 10.1016/j.fluid.2007.10.016
Compound 1: propan-2-ol, C3H8O, InChI=1S/C3H8O/c1-3(2)4/h3-4H,1-2H3
Compound 2: 3-methyl-2-butanone, C5H10O, InChI=1S/C5H10O/c1-4(2)5(3)6/h4H,1-3H3
Compound 3: 2,2,4-trimethylpentane, C8H18, InChI=1S/C8H18/c1-7(2)6-8(3,4)5/h7H,6H2,1-5H3

System: propan-2-ol; phases: Liquid
Property: Refractive index (Na D-line) (Liquid); method: Standard Abbe refractometry
Temperature, K	Pressure, kPa	Refractive index (Na D-line)	uncertainty
298.15	101.325	1.37504	0.00072

System: propan-2-ol; phases: Liquid
Property: Mass density, kg/m3 (Liquid); method: VIBTUB:UFactor:2
Temperature, K	Pressure, kPa	Mass density, kg/m3	uncertainty
298.15	101.325	780.91	0.31

System: propan-2-ol; phases: Liquid, Gas
Property: Vapor or sublimation pressure, kPa (Liquid); method: Ebulliometric method (Recirculating still)
Temperature, K	Vapor or sublimation pressure, kPa	uncertainty
330	33.25	0.19
340	52.97	0.26

System: 3-methyl-2-butanone; phases: Liquid
Property: Refractive index (Na D-line) (Liquid); method: Standard Abbe refractometry
Temperature, K	Pressure, kPa	Refractive index (Na D-line)	uncertainty
298.15	101.325	1.3862	0.00072

System: 3-methyl-2-butanone; phases: Liquid
Property: Mass density, kg/m3 (Liquid); method: VIBTUB:UFactor:3
Temperature, K	Pressure, kPa	Mass density, kg/m3	uncertainty
298.15	101.325	799.55	0.45

System: 3-methyl-2-butanone; phases: Liquid, Gas
Property: Vapor or sublimation pressure, kPa (Liquid); method: Ebulliometric method (Recirculating still)
Temperature, K	Vapor or sublimation pressure, kPa	uncertainty
330	27.69	0.16
340	40.45	0.2

System: 2,2,4-trimethylpentane; phases: Liquid
Property: Refractive index (Na D-line) (Liquid); method: Standard Abbe refractometry
Temperature, K	Pressure, kPa	Refractive index (Na D-line)	uncertainty
298.15	101.325	1.38894	0.00072

System: 2,2,4-trimethylpentane; phases: Liquid
Property: Mass density, kg/m3 (Liquid); method: VIBTUB:UFactor:2
Temperature, K	Pressure, kPa	Mass density, kg/m3	uncertainty
298.15	101.325	687.79	0.41

System: 2,2,4-trimethylpentane; phases: Liquid, Gas
Property: Vapor or sublimation pressure, kPa (Liquid); method: Ebulliometric method (Recirculating still)
Temperature, K	Vapor or sublimation pressure, kPa	uncertainty
330	25.47	0.14
340	36.64	0.19

System: propan-2-ol + 3-methyl-2-butanone; phases: Liquid, Gas
Property: Vapor or sublimation pressure, kPa (Liquid); method: Ebulliometric method (Recirculating still)
Mole fraction of propan-2-ol	Temperature, K	Vapor or sublimation pressure, kPa	uncertainty
0	330	27.69	0.16
0	340	40.45	0.2
0.0203	340	41.29	0.23
0.021	330	28.24	0.17
0.053	340	42.83	0.23
0.0542	330	29.31	0.17
0.1036	340	44.81	0.24
0.1052	330	30.53	0.18
0.1702	340	47.27	0.24
0.1719	330	32.18	0.18
0.2463	340	49.21	0.25
0.2491	330	33.27	0.18
0.3304	340	50.85	0.25
0.3337	330	34.21	0.19
0.4051	340	52.27	0.26
0.4087	330	34.93	0.19
0.4883	340	53.37	0.26
0.4928	330	35.44	0.19
0.5715	340	54.17	0.26
0.5764	330	35.75	0.19
0.6524	340	54.65	0.26
0.6582	330	35.87	0.19
0.7289	340	54.92	0.27
0.7325	330	35.77	0.19
0.7941	340	54.88	0.27
0.7982	330	35.53	0.19
0.8525	340	54.57	0.27
0.8565	330	35.08	0.19
0.9011	340	54.16	0.26
0.9047	330	34.58	0.19
0.9401	340	53.78	0.26
0.9427	330	34.13	0.19
0.9698	340	53.4	0.26
0.971	330	33.71	0.19
0.9897	340	53.11	0.26
0.9901	330	33.4	0.19
1	330	33.25	0.19
1	340	52.97	0.26

System: propan-2-ol + 3-methyl-2-butanone; phases: Gas, Liquid
Property: Mole fraction of propan-2-ol (Gas); method: Chromatography
Mole fraction of propan-2-ol	Temperature, K	Mole fraction of propan-2-ol	uncertainty
0	330	0	0.0001
0	340	0	0.0001
0.0203	340	0.0369	0.0045
0.021	330	0.0392	0.0043
0.053	340	0.1051	0.0042
0.0542	330	0.1041	0.004
0.1036	340	0.1861	0.0039
0.1052	330	0.1823	0.0038
0.1702	340	0.2772	0.0039
0.1719	330	0.269	0.0038
0.2463	340	0.357	0.0041
0.2491	330	0.3486	0.0041
0.3304	340	0.431	0.0045
0.3337	330	0.4206	0.0044
0.4051	340	0.4918	0.0049
0.4087	330	0.4778	0.0048
0.4883	340	0.5552	0.0046
0.4928	330	0.5371	0.0047
0.5715	340	0.6141	0.0041
0.5764	330	0.596	0.0042
0.6524	340	0.6716	0.0037
0.6582	330	0.6536	0.0039
0.7289	340	0.726	0.0035
0.7325	330	0.7075	0.0036
0.7941	340	0.7808	0.0032
0.7982	330	0.7628	0.0034
0.8525	340	0.831	0.0031
0.8565	330	0.8174	0.0032
0.9011	340	0.8791	0.0031
0.9047	330	0.8693	0.0032
0.9401	340	0.9257	0.0032
0.9427	330	0.9162	0.0033
0.9698	340	0.9606	0.0032
0.971	330	0.9552	0.0035
0.9897	340	0.9858	0.0033
0.9901	330	0.9843	0.0037
1	330	1	0.0001
1	340	1	0.0001

System: 2,2,4-trimethylpentane + 3-methyl-2-butanone; phases: Liquid, Gas
Property: Vapor or sublimation pressure, kPa (Liquid); method: Ebulliometric method (Recirculating still)
Mole fraction of 3-methyl-2-butanone	Temperature, K	Vapor or sublimation pressure, kPa	uncertainty
0	330	25.47	0.14
0	340	36.64	0.19
0.016	330	26.28	0.17
0.0168	340	37.78	0.23
0.0473	340	39.75	0.23
0.0496	330	27.68	0.17
0.0975	340	42.1	0.22
0.1023	330	29.38	0.17
0.1704	330	30.98	0.17
0.1747	340	44.4	0.22
0.2516	330	32.27	0.18
0.2571	340	46.15	0.23
0.3484	330	33.14	0.18
0.3485	340	47.46	0.23
0.4472	340	48.22	0.24
0.4476	330	33.7	0.18
0.5433	340	48.58	0.24
0.5437	330	33.91	0.18
0.6337	340	48.48	0.24
0.6363	330	33.76	0.18
0.7143	340	47.98	0.24
0.7187	330	33.36	0.18
0.7841	340	47.12	0.23
0.7886	330	32.71	0.18
0.8786	340	45.11	0.23
0.8818	330	31.19	0.17
0.9192	340	43.93	0.23
0.9227	330	30.28	0.17
0.9526	340	42.69	0.23
0.9542	330	29.34	0.17
0.9758	340	41.65	0.23
0.9776	330	28.54	0.17
0.9909	340	40.94	0.23
0.9914	330	28.01	0.17
1	330	27.69	0.16
1	340	40.45	0.2

System: 2,2,4-trimethylpentane + 3-methyl-2-butanone; phases: Gas, Liquid
Property: Mole fraction of 3-methyl-2-butanone (Gas); method: Chromatography
Mole fraction of 3-methyl-2-butanone	Temperature, K	Mole fraction of 3-methyl-2-butanone	uncertainty
0	330	0	0.0001
0	340	0	0.0001
0.016	330	0.0461	0.0053
0.0168	340	0.0461	0.0055
0.0473	340	0.1209	0.0046
0.0496	330	0.1233	0.0044
0.0975	340	0.2088	0.0038
0.1023	330	0.2095	0.0038
0.1704	330	0.2904	0.0038
0.1747	340	0.292	0.0037
0.2516	330	0.3631	0.004
0.2571	340	0.3618	0.004
0.3484	330	0.4264	0.0043
0.3485	340	0.4263	0.0044
0.4472	340	0.4851	0.0048
0.4476	330	0.4825	0.0047
0.5433	340	0.5384	0.0046
0.5437	330	0.5328	0.0046
0.6337	340	0.5895	0.0043
0.6363	330	0.585	0.0043
0.7143	340	0.6451	0.004
0.7187	330	0.6379	0.004
0.7841	340	0.6973	0.0038
0.7886	330	0.6917	0.0038
0.8786	340	0.7902	0.0035
0.8818	330	0.7849	0.0036
0.9192	340	0.8468	0.0039
0.9227	330	0.8445	0.004
0.9526	340	0.9049	0.0042
0.9542	330	0.8986	0.0043
0.9758	340	0.95	0.0045
0.9776	330	0.9474	0.0048
0.9909	340	0.981	0.0046
0.9914	330	0.9802	0.0051
1	330	1	0.0001
1	340	1	0.0001

System: propan-2-ol + 2,2,4-trimethylpentane; phases: Liquid, Gas
Property: Vapor or sublimation pressure, kPa (Liquid); method: Ebulliometric method (Recirculating still)
Mole fraction of propan-2-ol	Temperature, K	Vapor or sublimation pressure, kPa	uncertainty
0	330	25.47	0.14
0	340	36.64	0.19
0.0142	330	32.61	1.86
0.0204	340	47.88	2.52
0.0673	330	39.37	1.06
0.0808	340	58.66	1.52
0.0994	330	41.2	0.46
0.1113	340	61.04	0.66
0.1585	330	43.16	0.37
0.1706	340	64.1	0.56
0.1924	330	43.91	0.29
0.2012	340	65.24	0.43
0.264	330	45.04	0.27
0.2698	340	67.07	0.39
0.3257	330	45.67	0.25
0.3281	340	68.22	0.36
0.3796	340	68.95	0.35
0.381	330	46.14	0.25
0.4338	340	69.58	0.34
0.4346	330	46.42	0.24
0.483	340	69.89	0.33
0.4863	330	46.53	0.24
0.5297	340	70.14	0.33
0.5628	340	70.23	0.33
0.5699	330	46.63	0.24
0.6054	340	70.26	0.33
0.6144	330	46.57	0.24
0.6447	340	70.18	0.33
0.6559	330	46.52	0.25
0.6852	340	70.03	0.33
0.716	340	69.79	0.34
0.7327	330	45.99	0.27
0.8472	330	44.01	0.3
0.8662	340	66.16	0.58
0.877	330	42.97	0.45
0.8937	340	64.81	0.66
0.9036	330	41.82	0.55
0.9179	340	63.14	0.82
0.9288	330	40.35	0.67
0.9383	340	61.42	0.98
0.9465	330	39.1	0.82
0.9567	340	59.5	1.29
0.9623	330	37.68	0.94
0.9789	330	36.12	1.08
0.9892	340	55.1	1.5
0.9907	330	34.63	1.19
0.9974	340	53.75	0.45
0.9977	330	33.73	0.35
1	330	33.25	0.19
1	340	52.97	0.26

System: propan-2-ol + 2,2,4-trimethylpentane; phases: Gas, Liquid
Property: Mole fraction of propan-2-ol (Gas); method: Chromatography
Mole fraction of propan-2-ol	Temperature, K	Mole fraction of propan-2-ol	uncertainty
0	330	0	0.0001
0	340	0	0.0001
0.0142	330	0.2363	0.0141
0.0204	340	0.2569	0.0136
0.0673	330	0.3826	0.0114
0.0808	340	0.4087	0.0114
0.0994	330	0.4139	0.0107
0.1113	340	0.4372	0.0108
0.1585	330	0.4508	0.0108
0.1706	340	0.4741	0.0108
0.1924	330	0.4652	0.0108
0.2012	340	0.4881	0.0109
0.264	330	0.4901	0.0109
0.2698	340	0.5172	0.0108
0.3257	330	0.5074	0.0109
0.3281	340	0.5368	0.0108
0.3796	340	0.5552	0.0107
0.381	330	0.5213	0.0108
0.4338	340	0.5586	0.0107
0.4346	330	0.5335	0.0108
0.483	340	0.5714	0.0107
0.4863	330	0.5456	0.0107
0.5297	340	0.5822	0.0106
0.5628	340	0.5912	0.0106
0.5699	330	0.5643	0.0107
0.6054	340	0.6011	0.0106
0.6144	330	0.5744	0.0106
0.6447	340	0.615	0.0105
0.6559	330	0.5853	0.0106
0.6852	340	0.6243	0.0106
0.716	340	0.6569	0.0106
0.7327	330	0.6111	0.0106
0.8472	330	0.6768	0.0104
0.8662	340	0.7193	0.0106
0.877	330	0.7054	0.0105
0.8937	340	0.7522	0.0105
0.9036	330	0.7372	0.0106
0.9179	340	0.7835	0.0106
0.9288	330	0.776	0.0108
0.9383	340	0.8199	0.0109
0.9465	330	0.8128	0.0113
0.9567	340	0.86	0.0114
0.9623	330	0.8587	0.0115
0.9789	330	0.9033	0.012
0.9892	340	0.9528	0.0117
0.9907	330	0.9529	0.0132
0.9974	340	0.9844	0.0131
0.9977	330	0.984	0.014
1	330	1	0.0001
1	340	1	0.0001

System: propan-2-ol + 2,2,4-trimethylpentane + 3-methyl-2-butanone; phases: Liquid, Gas
Property: Mole fraction of 3-methyl-2-butanone (Liquid); method: Chromatography
Property: Mole fraction of 3-methyl-2-butanone (Gas); method: Chromatography
Property: Mole fraction of propan-2-ol (Gas); method: Chromatography
Temperature, K	Pressure, kPa	Mole fraction of propan-2-ol	Mole fraction of 3-methyl-2-butanone	uncertainty	Mole fraction of 3-methyl-2-butanone	uncertainty	Mole fraction of propan-2-ol	uncertainty
330	45.58	0.6999	0.0168	0.002	0.0163	0.002	0.5823	
330	45.42	0.692	0.0475	0.002	0.0441	0.002	0.5767	
330	45.11	0.6661	0.0909	0.0021	0.0803	0.0021	0.5644	
330	44.65	0.6314	0.1468	0.0023	0.1263	0.0023	0.5437	
330	43.9	0.5867	0.2146	0.0025	0.1767	0.0025	0.5216	
330	42.87	0.5337	0.2943	0.0029	0.234	0.0028	0.494	
330	41.58	0.4759	0.379	0.0033	0.2979	0.0032	0.4622	
330	40.16	0.4158	0.4654	0.0039	0.361	0.0037	0.4315	
330	38.46	0.3487	0.5591	0.0037	0.4353	0.0042	0.3947	
330	36.94	0.2858	0.6407	0.0033	0.5076	0.0047	0.3523	
330	35.38	0.2257	0.7179	0.0028	0.5818	0.0041	0.3057	
330	45.35	0.2873	0.0211	0.002	0.023	0.002	0.4709	
330	45.17	0.28	0.0608	0.002	0.0616	0.0021	0.4561	
330	44.77	0.26	0.1166	0.0022	0.1114	0.0022	0.4232	
330	44.15	0.2374	0.1882	0.0024	0.168	0.0025	0.3889	
330	43.16	0.2064	0.2716	0.0028	0.2312	0.0028	0.345	
330	41.88	0.1723	0.3649	0.0033	0.3001	0.0032	0.2965	
330	40.36	0.1403	0.4625	0.0038	0.3734	0.0038	0.2474	
330	38.88	0.1151	0.5543	0.0038	0.4436	0.0043	0.2057	
330	37.35	0.0917	0.6412	0.0033	0.5158	0.0046	0.1672	
330	35.84	0.0723	0.7178	0.0029	0.5862	0.0041	0.1325	
330	34.39	0.055	0.7847	0.0025	0.6567	0.0036	0.1022	
330	40.51	0.0863	0.0212	0.002	0.0306	0.002	0.3708	
330	40.28	0.0836	0.0608	0.002	0.0827	0.0021	0.3447	
330	39.76	0.0742	0.1183	0.0022	0.1492	0.0024	0.2993	
330	39.14	0.071	0.1914	0.0024	0.2218	0.0027	0.248	
330	38.23	0.0595	0.2765	0.0028	0.2992	0.0032	0.1925	
330	37.37	0.0488	0.3676	0.0033	0.3751	0.0038	0.1435	
330	36.55	0.0388	0.4626	0.0038	0.4451	0.0043	0.1032	
330	35.83	0.0312	0.5523	0.0038	0.5087	0.0047	0.0741	
330	35.04	0.023	0.643	0.0032	0.5725	0.0042	0.0512	
330	34.25	0.0178	0.7216	0.0028	0.6313	0.0038	0.0383	
330	33.36	0.0141	0.7891	0.0025	0.6896	0.0034	0.0279	
340	68.85	0.6902	0.0171	0.002	0.0152	0.002	0.6088	
340	68.46	0.6831	0.048	0.002	0.0408	0.002	0.6061	
340	67.93	0.657	0.0919	0.0021	0.0766	0.0021	0.5895	
340	66.94	0.6228	0.1484	0.0023	0.1197	0.0022	0.5688	
340	65.62	0.5802	0.2164	0.0025	0.1697	0.0025	0.5452	
340	63.89	0.5316	0.2955	0.0029	0.2239	0.0028	0.5182	
340	61.79	0.4696	0.3807	0.0034	0.2876	0.0032	0.4861	
340	59.52	0.4089	0.469	0.0039	0.352	0.0036	0.4495	
340	56.83	0.3442	0.561	0.0037	0.4277	0.0042	0.4095	
340	54.42	0.2825	0.6416	0.0033	0.5022	0.0047	0.3644	
340	52.01	0.2231	0.7187	0.0028	0.5755	0.0042	0.3162	
340	67.28	0.2822	0.0215	0.002	0.0212	0.002	0.4906	
340	66.78	0.2692	0.0559	0.002	0.0586	0.0021	0.4757	
340	65.87	0.2557	0.1194	0.0022	0.1057	0.0022	0.4393	
340	64.69	0.2316	0.191	0.0024	0.1646	0.0024	0.4047	
340	62.95	0.2028	0.2717	0.0028	0.228	0.0028	0.3591	
340	60.78	0.17	0.364	0.0033	0.2992	0.0032	0.3056	
340	58.42	0.1383	0.4605	0.0038	0.3722	0.0038	0.256	
340	56.23	0.1124	0.5544	0.0038	0.4459	0.0043	0.2116	
340	54.01	0.0913	0.6392	0.0033	0.5169	0.0046	0.1713	
340	51.85	0.0683	0.721	0.0028	0.5892	0.0041	0.1354	
340	49.8	0.0548	0.7821	0.0025	0.6599	0.0036	0.1056	
340	59.06	0.0869	0.0213	0.002	0.0296	0.002	0.3823	
340	58.45	0.0838	0.0613	0.002	0.08	0.0021	0.3516	
340	57.44	0.0769	0.1196	0.0022	0.1469	0.0024	0.307	
340	56.32	0.0697	0.1929	0.0024	0.2218	0.0027	0.2534	
340	54.95	0.0595	0.2767	0.0028	0.2979	0.0032	0.196	
340	53.66	0.0433	0.3663	0.0033	0.374	0.0038	0.1464	
340	52.49	0.039	0.4617	0.0038	0.448	0.0043	0.1051	
340	51.52	0.0301	0.5534	0.0038	0.5135	0.0047	0.0761	
340	50.4	0.0228	0.6383	0.0033	0.5791	0.0042	0.0506	
340	49.31	0.0181	0.7185	0.0028	0.6374	0.0038	0.0382	
340	48.12	0.0139	0.7856	0.0025	0.6937	0.0034	0.0293	
