Measured thermophysical data. Ferrocene: Temperature adjustments of sublimation and vaporization enthalpies
Source: Fluid Phase Equilib., 2018, 10.1016/j.fluid.2018.05.004
Compound 1: ferrocene, C10H10Fe, InChI=1S/2C5H5.Fe/c2*1-2-4-5-3-1;/h2*1-5H;, purity 99%

System: ferrocene; phases: Crystal, Gas
Property: Vapor or sublimation pressure, kPa (Crystal); method: Transpiration method
Temperature, K	Vapor or sublimation pressure, kPa	uncertainty
361.2	0.172	0.021
368.2	0.263	0.034
374.4	0.398	0.05
385.7	0.789	0.098
392.1	1.13	0.142
419.4	4.338	0.542
430.7	7.571	0.951
435.2	9.195	1.157
363.2	0.198	0.025
366.5	0.244	0.031
371.7	0.332	0.042
378.3	0.494	0.063
388.6	0.907	0.113
394	1.23	0.155
401.8	1.881	0.236
410.1	2.869	0.36
417.3	4.29	0.537
429.4	7.204	0.903
434.6	9.559	1.203

System: ferrocene; phases: Crystal, Gas
Property: Molar enthalpy of vaporization or sublimation, kJ/mol (Crystal); method: Derived by Second law
Temperature, K	Molar enthalpy of vaporization or sublimation, kJ/mol	uncertainty
394	70	1.4
394.5	71.2	1.4
