Measured thermophysical data. Isobaric vapor liquid equilibria of the binary system maleic anhydride and di-isobutyl hexahydrophthalate at 2.67, 5.33 and 8.00 kPa
Source: Fluid Phase Equilib., 2005, 10.1016/j.fluid.2005.03.019
Compound 1: maleic anhydride, C4H2O3, InChI=1S/C4H2O3/c5-3-1-2-4(6)7-3/h1-2H
Compound 2: diisobutyl hexahydrophthalate, C16H28O4, InChI=1S/C16H28O4/c1-11(2)9-19-15(17)13-7-5-6-8-14(13)16(18)20-10-12(3)4/h11-14H,5-10H2,1-4H3

System: diisobutyl hexahydrophthalate; phases: Liquid
Property: Refractive index (Na D-line) (Liquid); method: Standard Abbe refractometry
Temperature, K	Pressure, kPa	Refractive index (Na D-line)	uncertainty
293.1	101.325	1.453	0.0007

System: diisobutyl hexahydrophthalate; phases: Liquid, Gas
Property: Vapor or sublimation pressure, kPa (Liquid); method: EBULLIO:UFactor:32
Temperature, K	Vapor or sublimation pressure, kPa	uncertainty
434.4	0.732	0.322
448.2	1.539	0.325
463.3	2.912	0.329
478.7	4.813	0.335
486.4	6.342	0.34
491.5	7.672	0.345
500.3	10.198	0.353
506.6	12.498	0.36
509.6	13.987	0.365
515	16.314	0.372
519.5	18.668	0.38
524.1	21.3	0.388
527.8	23.694	0.396
534.8	28.613	0.412
538.2	30.94	0.42

System: maleic anhydride + diisobutyl hexahydrophthalate; phases: Liquid, Gas
Property: Boiling temperature at pressure P, K (Liquid); method: EBULLIO:UFactor:2
Pressure, kPa	Mole fraction of maleic anhydride	Boiling temperature at pressure P, K	uncertainty
2.67	0.0843	417	1.5
2.67	0.1463	403.7	1.2
2.67	0.2579	388	1.2
2.67	0.3384	383.1	1.2
2.67	0.481	375.6	1.1
2.67	0.5939	372.3	1.2
2.67	0.7744	370.1	1.2
2.67	0.8127	369.4	1.2
2.67	0.9074	368.9	1.2
5.33	0.0863	436.5	1.3
5.33	0.1473	421.6	1.2
5.33	0.2584	406	1.2
5.33	0.3387	398.5	1.1
5.33	0.4811	390.8	1
5.33	0.594	388.4	1
5.33	0.7744	385.4	1
5.33	0.8129	385.1	1
5.33	0.9074	384.6	1
8	0.0879	448.3	1
8	0.1481	433.7	1.2
8	0.2588	417	1.1
8	0.3389	410.8	1
8	0.4812	401.9	1
8	0.5835	398.7	0.9
8	0.7744	396.2	0.9
8	0.8129	395.2	0.9
8	0.9075	394.6	0.8
