Measured thermophysical data. Influence of anion structure on the liquid-liquid equilibria of  1-(3-hydroxypropyl)pyridinium cation based ionic liquid-hydrocarbon binary systems
Source: Fluid Phase Equilib., 2011, 10.1016/j.fluid.2011.01.025
Compound 1: 1-(3-hydroxypropyl)pyridinium bis(trifluoromethylsulfonyl)amide, C10H12F6N2O5S2, InChI=1S/C8H12NO.C2F6NO4S2/c10-8-4-7-9-5-2-1-3-6-9;3-1(4,5)14(10,11)9-15(12,13)2(6,7)8/h1-3,5-6,10H,4,7-8H2;/q+1;-1, purity 99.9%
Compound 2: 1-(3-hydroxypropyl)pyridinium trifluorotris(perfluoroethyl)phosphate(V), C14H12F18NOP, InChI=1S/C8H12NO.C6F18P/c10-8-4-7-9-5-2-1-3-6-9;7-1(8,9)4(16,17)25(22,23,24,5(18,19)2(10,11)12)6(20,21)3(13,14)15/h1-3,5-6,10H,4,7-8H2;/q+1;-1, purity 99.9%
Compound 3: hexane, C6H14, InChI=1S/C6H14/c1-3-5-6-4-2/h3-6H2,1-2H3, purity 99.7%
Compound 4: heptane, C7H16, InChI=1S/C7H16/c1-3-5-7-6-4-2/h3-7H2,1-2H3, purity 99.5%
Compound 5: cyclohexane, C6H12, InChI=1S/C6H12/c1-2-4-6-5-3-1/h1-6H2, purity 99.7%
Compound 6: benzene, C6H6, InChI=1S/C6H6/c1-2-4-6-5-3-1/h1-6H, purity 99.9%
Compound 7: toluene, C7H8, InChI=1S/C7H8/c1-7-5-3-2-4-6-7/h2-6H,1H3, purity 99.9%

System: hexane + 1-(3-hydroxypropyl)pyridinium bis(trifluoromethylsulfonyl)amide; phases: Liquid mixture 1, Liquid mixture 2
Fixed: Pressure, kPa = 101.325
Property: Liquid-liquid equilibrium temperature, K (Liquid mixture 1); method: VISOBS
Mole fraction of 1-(3-hydroxypropyl)pyridinium bis(trifluoromethylsulfonyl)amide	Liquid-liquid equilibrium temperature, K	uncertainty
0.9763	300.5	2
0.9708	304.4	2
0.9613	310.3	2
0.9543	316.4	2
0.9485	320.9	2
0.9385	328.8	2
0.9303	335.3	2

System: heptane + 1-(3-hydroxypropyl)pyridinium bis(trifluoromethylsulfonyl)amide; phases: Liquid mixture 1, Liquid mixture 2
Fixed: Pressure, kPa = 101.325
Property: Liquid-liquid equilibrium temperature, K (Liquid mixture 1); method: VISOBS
Mole fraction of 1-(3-hydroxypropyl)pyridinium bis(trifluoromethylsulfonyl)amide	Liquid-liquid equilibrium temperature, K	uncertainty
0.9906	300.1	2.1
0.9864	304.9	2.1
0.98	313.3	2.1
0.9737	322.7	2.1
0.9702	329.1	2.1
0.966	336	2.1
0.9624	342.3	2.1
0.957	352	2.1

System: cyclohexane + 1-(3-hydroxypropyl)pyridinium bis(trifluoromethylsulfonyl)amide; phases: Liquid mixture 1, Liquid mixture 2
Fixed: Pressure, kPa = 101.325
Property: Liquid-liquid equilibrium temperature, K (Liquid mixture 1); method: VISOBS
Mole fraction of 1-(3-hydroxypropyl)pyridinium bis(trifluoromethylsulfonyl)amide	Liquid-liquid equilibrium temperature, K	uncertainty
0.968	294.5	2
0.9612	299.9	2
0.9553	305.4	2
0.9469	314.2	2.1
0.9385	323.8	2.1
0.9327	330.9	2.1
0.927	337	2
0.9212	343	2.1
0.9139	351	2.1

System: benzene + 1-(3-hydroxypropyl)pyridinium bis(trifluoromethylsulfonyl)amide; phases: Liquid mixture 1, Liquid mixture 2
Fixed: Pressure, kPa = 101.325
Property: Liquid-liquid equilibrium temperature, K (Liquid mixture 1); method: VISOBS
Mole fraction of 1-(3-hydroxypropyl)pyridinium bis(trifluoromethylsulfonyl)amide	Liquid-liquid equilibrium temperature, K	uncertainty
0.347	298.9	3.9
0.3459	308.2	3.9
0.3447	318.3	3.3
0.3431	326.6	3.1
0.342	334.7	3.7
0.3409	343.9	3.9

System: toluene + 1-(3-hydroxypropyl)pyridinium bis(trifluoromethylsulfonyl)amide; phases: Liquid mixture 1, Liquid mixture 2
Fixed: Pressure, kPa = 101.325
Property: Liquid-liquid equilibrium temperature, K (Liquid mixture 1); method: VISOBS
Mole fraction of 1-(3-hydroxypropyl)pyridinium bis(trifluoromethylsulfonyl)amide	Liquid-liquid equilibrium temperature, K	uncertainty
0.5087	297.1	2.8
0.5073	303.7	2.4
0.5049	310.2	2.3
0.502	318.6	2.5
0.4996	330.3	2.7
0.4971	340.4	2.6
0.4945	350.7	2.5
0.4918	359.9	2.4

System: hexane + 1-(3-hydroxypropyl)pyridinium trifluorotris(perfluoroethyl)phosphate(V); phases: Liquid mixture 1, Liquid mixture 2
Fixed: Pressure, kPa = 101.325
Property: Liquid-liquid equilibrium temperature, K (Liquid mixture 1); method: VISOBS
Mole fraction of 1-(3-hydroxypropyl)pyridinium trifluorotris(perfluoroethyl)phosphate(V)	Liquid-liquid equilibrium temperature, K	uncertainty
0.9541	303.5	2
0.9472	307.3	2
0.9414	311.2	2
0.9334	316.3	2
0.9201	323.7	2
0.9062	330.4	2
0.8925	336.7	2

System: heptane + 1-(3-hydroxypropyl)pyridinium trifluorotris(perfluoroethyl)phosphate(V); phases: Liquid mixture 1, Liquid mixture 2
Fixed: Pressure, kPa = 101.325
Property: Liquid-liquid equilibrium temperature, K (Liquid mixture 1); method: VISOBS
Mole fraction of 1-(3-hydroxypropyl)pyridinium trifluorotris(perfluoroethyl)phosphate(V)	Liquid-liquid equilibrium temperature, K	uncertainty
0.9707	308.8	2
0.9653	312.1	2
0.9626	315.4	2
0.9569	320.7	2
0.9515	325.6	2
0.9455	330.3	2
0.9401	336.7	2.1
0.9353	342.2	2.1
0.9269	351.2	2.1

System: cyclohexane + 1-(3-hydroxypropyl)pyridinium trifluorotris(perfluoroethyl)phosphate(V); phases: Liquid mixture 1, Liquid mixture 2
Fixed: Pressure, kPa = 101.325
Property: Liquid-liquid equilibrium temperature, K (Liquid mixture 1); method: VISOBS
Mole fraction of 1-(3-hydroxypropyl)pyridinium trifluorotris(perfluoroethyl)phosphate(V)	Liquid-liquid equilibrium temperature, K	uncertainty
0.9427	303.2	2
0.9359	309	2
0.9267	316.9	2
0.9215	320.8	2
0.9169	323.8	2
0.9085	329	2
0.8993	334.3	2
0.8816	343.5	2
0.8655	350.9	2

System: benzene + 1-(3-hydroxypropyl)pyridinium trifluorotris(perfluoroethyl)phosphate(V); phases: Liquid mixture 1, Liquid mixture 2
Fixed: Pressure, kPa = 101.325
Property: Liquid-liquid equilibrium temperature, K (Liquid mixture 1); method: VISOBS
Mole fraction of 1-(3-hydroxypropyl)pyridinium trifluorotris(perfluoroethyl)phosphate(V)	Liquid-liquid equilibrium temperature, K	uncertainty
0.2177	292	2.7
0.2172	294.3	2.3
0.216	296.8	2.1
0.2137	301.1	2.1
0.2109	305.2	2.1
0.2074	311.8	2.2
0.2041	318.5	2.2
0.201	325.7	2.2
0.1977	332.3	2.1
0.1943	337.4	2.1
0.1896	344.3	2.1
0.1851	352.6	2.1

System: toluene + 1-(3-hydroxypropyl)pyridinium trifluorotris(perfluoroethyl)phosphate(V); phases: Liquid mixture 1, Liquid mixture 2
Fixed: Pressure, kPa = 101.325
Property: Liquid-liquid equilibrium temperature, K (Liquid mixture 1); method: VISOBS
Mole fraction of 1-(3-hydroxypropyl)pyridinium trifluorotris(perfluoroethyl)phosphate(V)	Liquid-liquid equilibrium temperature, K	uncertainty
0.284	296.3	2.2
0.2817	301.2	2.3
0.2799	306.9	2.2
0.2766	313.4	2.2
0.2739	320.3	2.3
0.2713	328.5	2.4
0.2691	335.7	2.4
0.2672	342.9	2.6
0.2655	350	2.7
0.2638	358.3	2.8
