Measured thermophysical data. Isobaric vapor-liquid equilibrium for binary systemsof toluene + o-xylene, benzene + o-xylene, nonane + benzene and nonane + heptane at 101.3 kPa
Source: Fluid Phase Equilib., 2013, 10.1016/j.fluid.2013.05.016
Compound 1: nonane, C9H20, InChI=1S/C9H20/c1-3-5-7-9-8-6-4-2/h3-9H2,1-2H3, purity 99.98%
Compound 2: benzene, C6H6, InChI=1S/C6H6/c1-2-4-6-5-3-1/h1-6H, purity 99.97%
Compound 3: heptane, C7H16, InChI=1S/C7H16/c1-3-5-7-6-4-2/h3-7H2,1-2H3, purity 99.98%
Compound 4: toluene, C7H8, InChI=1S/C7H8/c1-7-5-3-2-4-6-7/h2-6H,1H3, purity 99.96%
Compound 5: 1,2-dimethylbenzene, C8H10, InChI=1S/C8H10/c1-7-5-3-4-6-8(7)2/h3-6H,1-2H3, purity 99.95%

System: nonane; phases: Liquid, Gas
Property: Normal boiling temperature, K (Liquid); method: Ebulliometric method (Recirculating still)
Normal boiling temperature, K	uncertainty
423.8	1

System: nonane; phases: Liquid
Property: Mass density, kg/m3 (Liquid); method: Vibrating tube method
Temperature, K	Pressure, kPa	Mass density, kg/m3	uncertainty
298.2	101.325	714.07	0.24

System: nonane; phases: Liquid, Gas
Property: Vapor or sublimation pressure, kPa (Liquid); method: Ebulliometric method (Recirculating still)
Temperature, K	Vapor or sublimation pressure, kPa	uncertainty
423.8	101.3	1.1

System: benzene; phases: Liquid, Gas
Property: Normal boiling temperature, K (Liquid); method: Ebulliometric method (Recirculating still)
Normal boiling temperature, K	uncertainty
353.3	1

System: benzene; phases: Liquid
Property: Mass density, kg/m3 (Liquid); method: Vibrating tube method
Temperature, K	Pressure, kPa	Mass density, kg/m3	uncertainty
298.2	101.325	873.66	0.24

System: benzene; phases: Liquid, Gas
Property: Vapor or sublimation pressure, kPa (Liquid); method: Ebulliometric method (Recirculating still)
Temperature, K	Vapor or sublimation pressure, kPa	uncertainty
353.3	101.3	1.1

System: heptane; phases: Liquid, Gas
Property: Normal boiling temperature, K (Liquid); method: Ebulliometric method (Recirculating still)
Normal boiling temperature, K	uncertainty
371.4	1

System: heptane; phases: Liquid
Property: Mass density, kg/m3 (Liquid); method: Vibrating tube method
Temperature, K	Pressure, kPa	Mass density, kg/m3	uncertainty
298.2	101.325	679.52	0.24

System: heptane; phases: Liquid, Gas
Property: Vapor or sublimation pressure, kPa (Liquid); method: Ebulliometric method (Recirculating still)
Temperature, K	Vapor or sublimation pressure, kPa	uncertainty
371.4	101.3	1.1

System: toluene; phases: Liquid, Gas
Property: Normal boiling temperature, K (Liquid); method: Ebulliometric method (Recirculating still)
Normal boiling temperature, K	uncertainty
383.4	1

System: toluene; phases: Liquid
Property: Mass density, kg/m3 (Liquid); method: Vibrating tube method
Temperature, K	Pressure, kPa	Mass density, kg/m3	uncertainty
298.2	101.325	862.18	0.24

System: toluene; phases: Liquid, Gas
Property: Vapor or sublimation pressure, kPa (Liquid); method: Ebulliometric method (Recirculating still)
Temperature, K	Vapor or sublimation pressure, kPa	uncertainty
383.4	101.3	1.1

System: 1,2-dimethylbenzene; phases: Liquid, Gas
Property: Normal boiling temperature, K (Liquid); method: Ebulliometric method (Recirculating still)
Normal boiling temperature, K	uncertainty
417.5	1

System: 1,2-dimethylbenzene; phases: Liquid
Property: Mass density, kg/m3 (Liquid); method: Vibrating tube method
Temperature, K	Pressure, kPa	Mass density, kg/m3	uncertainty
298.2	101.325	875.66	0.24

System: 1,2-dimethylbenzene; phases: Liquid, Gas
Property: Vapor or sublimation pressure, kPa (Liquid); method: Ebulliometric method (Recirculating still)
Temperature, K	Vapor or sublimation pressure, kPa	uncertainty
417.5	101.3	1.1

System: 1,2-dimethylbenzene + toluene; phases: Liquid, Gas
Fixed: Pressure, kPa = 101.3
Property: Boiling temperature at pressure P, K (Liquid); method: Ebulliometric method (Recirculating still)
Mole fraction of toluene	Boiling temperature at pressure P, K	uncertainty
1	383.4	0.2
0.937	385	0.3
0.92	385.4	0.3
0.88	386.3	0.3
0.796	388.1	0.3
0.693	390.5	0.3
0.662	391.4	0.4
0.579	393.9	0.4
0.5	396.3	0.4
0.426	399	0.4
0.367	401.3	0.5
0.291	404.4	0.5
0.23	407	0.5
0.132	411.4	0.5
0.094	413.2	0.5
0.069	414.3	0.5
0	417.5	0.2

System: 1,2-dimethylbenzene + toluene; phases: Gas, Liquid
Fixed: Pressure, kPa = 101.3
Property: Mole fraction of toluene (Gas); method: Chromatography
Mole fraction of toluene	Mole fraction of toluene	uncertainty
1	1	
0.937	0.981	0.01
0.92	0.976	0.011
0.88	0.961	0.011
0.796	0.93	0.011
0.693	0.886	0.011
0.662	0.871	0.011
0.579	0.825	0.012
0.5	0.765	0.013
0.426	0.693	0.015
0.367	0.626	0.016
0.291	0.526	0.018
0.23	0.436	0.019
0.132	0.269	0.02
0.094	0.196	0.022
0.069	0.147	0.023
0	0	

System: benzene + 1,2-dimethylbenzene; phases: Liquid, Gas
Fixed: Pressure, kPa = 101.3
Property: Boiling temperature at pressure P, K (Liquid); method: Ebulliometric method (Recirculating still)
Mole fraction of benzene	Boiling temperature at pressure P, K	uncertainty
1	353.3	0.2
0.98	353.8	0.3
0.948	354.6	0.3
0.909	355.7	0.4
0.887	356.3	0.3
0.826	357.9	0.4
0.768	359.8	0.4
0.657	363.9	0.5
0.543	368.7	0.5
0.428	375.2	0.7
0.318	383.6	0.9
0.305	384.7	0.9
0.273	387.5	1
0.216	393.2	1.1
0.139	401.4	1.1
0.093	406.7	1.2
0.057	410.8	1.2
0.03	413.9	1.2
0	417.5	0.2

System: benzene + 1,2-dimethylbenzene; phases: Gas, Liquid
Fixed: Pressure, kPa = 101.3
Property: Mole fraction of benzene (Gas); method: Chromatography
Mole fraction of benzene	Mole fraction of benzene	uncertainty
1	1	
0.98	0.998	0.002
0.948	0.995	0.005
0.909	0.991	0.009
0.887	0.989	0.01
0.826	0.981	0.01
0.768	0.973	0.01
0.657	0.95	0.01
0.543	0.921	0.011
0.428	0.855	0.012
0.318	0.758	0.015
0.305	0.743	0.016
0.273	0.703	0.018
0.216	0.612	0.022
0.139	0.451	0.025
0.093	0.326	0.031
0.057	0.214	0.034
0.03	0.12	0.039
0	0	

System: benzene + nonane; phases: Liquid, Gas
Fixed: Pressure, kPa = 101.3
Property: Boiling temperature at pressure P, K (Liquid); method: Ebulliometric method (Recirculating still)
Mole fraction of nonane	Boiling temperature at pressure P, K	uncertainty
0	353.3	0.2
0.048	354.3	0.3
0.061	354.8	0.3
0.089	355.2	0.3
0.13	356.2	0.3
0.182	357.2	0.3
0.231	358.2	0.4
0.359	363.4	0.5
0.455	367.3	0.6
0.574	374.2	0.6
0.586	374.9	0.6
0.694	383.6	0.9
0.773	391.4	1.1
0.783	392.5	1.1
0.869	402.9	1.3
0.925	411.1	1.6
1	423.8	0.2

System: benzene + nonane; phases: Gas, Liquid
Fixed: Pressure, kPa = 101.3
Property: Mole fraction of nonane (Gas); method: Chromatography
Mole fraction of nonane	Mole fraction of nonane	uncertainty
0	0	
0.048	0.005	0.005
0.061	0.006	0.006
0.089	0.008	0.008
0.13	0.013	0.01
0.182	0.018	0.01
0.231	0.023	0.01
0.359	0.049	0.01
0.455	0.073	0.011
0.574	0.118	0.011
0.586	0.123	0.011
0.694	0.207	0.014
0.773	0.302	0.019
0.783	0.318	0.019
0.869	0.49	0.026
0.925	0.657	0.041
1	1	

System: nonane + heptane; phases: Liquid, Gas
Fixed: Pressure, kPa = 101.3
Property: Boiling temperature at pressure P, K (Liquid); method: Ebulliometric method (Recirculating still)
Mole fraction of nonane	Boiling temperature at pressure P, K	uncertainty
0	371.4	0.2
0.071	373.3	0.3
0.163	375.7	0.4
0.249	378.7	0.4
0.367	382.3	0.4
0.42	385.1	0.5
0.534	390.3	0.5
0.641	396.2	0.6
0.722	401.6	0.7
0.802	407.5	0.8
0.83	409.6	0.8
0.883	413.9	0.8
0.902	415.5	0.9
0.957	420	0.9
0.965	420.7	0.9
1	423.8	0.2

System: nonane + heptane; phases: Gas, Liquid
Fixed: Pressure, kPa = 101.3
Property: Mole fraction of nonane (Gas); method: Chromatography
Mole fraction of nonane	Mole fraction of nonane	uncertainty
0	0	
0.071	0.01	0.01
0.163	0.027	0.01
0.249	0.05	0.01
0.367	0.084	0.011
0.42	0.117	0.011
0.534	0.176	0.012
0.641	0.274	0.015
0.722	0.375	0.018
0.802	0.506	0.02
0.83	0.56	0.024
0.883	0.675	0.024
0.902	0.72	0.028
0.957	0.867	0.03
0.965	0.891	0.03
1	1	
