Measured thermophysical data. The effect of the end group, molecular weight and size on the solubility of compounds in supercritical carbon dioxide
Source: Fluid Phase Equilib., 2012, 10.1016/j.fluid.2011.12.018
Compound 1: carbon dioxide, CO2, InChI=1S/CO2/c2-1-3, purity 99.99%
Compound 2: diethylene glycol, C4H10O3, InChI=1S/C4H10O3/c5-1-3-7-4-2-6/h5-6H,1-4H2, purity 99%
Compound 3: tetraethylene glycol, C8H18O5, InChI=1S/C8H18O5/c9-1-3-11-5-7-13-8-6-12-4-2-10/h9-10H,1-8H2, purity 99.5%
Compound 4: dimethyl O,O'-(oxybis(ethane-2,1-diyl)) dimalonate, C12H18O9, InChI=1S/C12H18O9/c1-17-9(13)7-11(15)20-5-3-19-4-6-21-12(16)8-10(14)18-2/h3-8H2,1-2H3
Compound 5: dimethyl O,O'-(((oxybis(ethane-2,1-diyl))bis(oxy))bis(ethane-2,1-diyl)) dimalonate, C16H26O11, InChI=1S/C16H26O11/c1-21-13(17)11-15(19)26-9-7-24-5-3-23-4-6-25-8-10-27-16(20)12-14(18)22-2/h3-12H2,1-2H3

System: diethylene glycol + carbon dioxide; phases: Fluid (supercritical or subcritical phases), Liquid
Property: Mole fraction of diethylene glycol (Fluid (supercritical or subcritical phases)); method: Phase equilibration
Temperature, K	Pressure, kPa	Mole fraction of diethylene glycol	uncertainty
313	11800	0.00457	0.00169
313	12800	0.00617	0.00142
313	13700	0.00773	0.00153
313	15000	0.00918	0.00124
313	15800	0.01069	0.00155
323	13800	0.00488	0.00167
323	14700	0.00658	0.00149
323	15800	0.00816	0.00166
323	16600	0.00976	0.00168
323	17700	0.01125	0.00151
333	15700	0.00518	0.00174
333	16600	0.00696	0.00155
333	17700	0.0086	0.00172
333	18700	0.01021	0.00167
333	19600	0.0118	0.00183
343	17500	0.00544	0.00205
343	18300	0.00735	0.00177
343	19300	0.00909	0.00193
343	20300	0.01077	0.00183
343	21200	0.01242	0.00191
353	19600	0.00557	0.00171
353	20500	0.00752	0.00141
353	21800	0.00926	0.00179
353	22800	0.011	0.00165
353	23600	0.01273	0.00207
363	21300	0.00576	0.00183
363	22400	0.00774	0.0021
363	23500	0.0096	0.00184
363	24600	0.01138	0.00112
363	25700	0.01308	0.00173

System: tetraethylene glycol + carbon dioxide; phases: Fluid (supercritical or subcritical phases), Liquid
Property: Mole fraction of tetraethylene glycol (Fluid (supercritical or subcritical phases)); method: Phase equilibration
Temperature, K	Pressure, kPa	Mole fraction of tetraethylene glycol	uncertainty
313	11100	0.00259	0.00111
313	12100	0.00346	0.00149
313	12700	0.00435	0.00114
313	13300	0.00523	0.00151
313	14200	0.00604	0.00118
323	13200	0.00276	0.00126
323	14000	0.00371	0.00143
323	14700	0.00463	0.00124
323	15300	0.00554	0.00145
323	16200	0.00638	0.00123
333	15200	0.00291	0.00133
333	15900	0.00393	0.00119
333	16700	0.00488	0.00121
333	17500	0.00579	0.00121
333	18400	0.00666	0.00112
343	17200	0.00302	0.0015
343	17800	0.00411	0.00116
343	18600	0.00511	0.0013
343	19500	0.00604	0.00119
343	20300	0.00697	0.00117
353	19100	0.00312	0.00135
353	19800	0.00423	0.0013
353	20700	0.00526	0.00127
353	21400	0.00627	0.00133
353	22400	0.00719	0.00122
363	21100	0.00318	0.00123
363	22000	0.0043	0.00126
363	22900	0.00536	0.00128
363	23700	0.00639	0.00129
363	24500	0.00738	0.00134

System: carbon dioxide + dimethyl O,O'-(oxybis(ethane-2,1-diyl)) dimalonate; phases: Fluid (supercritical or subcritical phases), Liquid
Property: Mole fraction of dimethyl O,O'-(oxybis(ethane-2,1-diyl)) dimalonate (Fluid (supercritical or subcritical phases)); method: Phase equilibration
Temperature, K	Pressure, kPa	Mole fraction of dimethyl O,O'-(oxybis(ethane-2,1-diyl)) dimalonate	uncertainty
313	9200	0.0024	0.0024
313	9500	0.00309	0.00076
313	9700	0.00383	0.00061
313	10000	0.0045	0.00052
313	10300	0.00515	0.00252
323	11100	0.0025	0.00204
323	11500	0.00328	0.00195
323	11900	0.004	0.00075
323	12200	0.00474	0.00206
323	12600	0.00541	0.00196
333	12800	0.00261	0.00142
333	13400	0.0034	0.00159
333	13900	0.00416	0.00143
333	14300	0.00492	0.00157
333	14800	0.00561	0.00161
343	14500	0.00267	0.00155
343	15000	0.00356	0.00145
343	15600	0.00436	0.00156
343	16100	0.00514	0.00147
343	16600	0.00588	0.00149
353	15900	0.00277	0.00149
353	16500	0.0037	0.00127
353	17100	0.00455	0.00133
353	17800	0.00532	0.00129
353	18400	0.00608	0.00123
363	17200	0.00287	0.00132
363	17900	0.00382	0.00113
363	18600	0.0047	0.0011
363	19400	0.00548	0.00115
363	20300	0.0062	0.00096

System: carbon dioxide + dimethyl O,O'-(((oxybis(ethane-2,1-diyl))bis(oxy))bis(ethane-2,1-diyl)) dimalonate; phases: Fluid (supercritical or subcritical phases), Liquid
Property: Mole fraction of dimethyl O,O'-(((oxybis(ethane-2,1-diyl))bis(oxy))bis(ethane-2,1-diyl)) dimalonate (Fluid (supercritical or subcritical phases)); method: Phase equilibration
Temperature, K	Pressure, kPa	Mole fraction of dimethyl O,O'-(((oxybis(ethane-2,1-diyl))bis(oxy))bis(ethane-2,1-diyl)) dimalonate	uncertainty
313	9900	0.00152	0.00152
313	10100	0.00208	0.00046
313	10400	0.0026	0.00037
313	10700	0.00312	0.0003
313	11000	0.00361	0.00191
323	12100	0.0016	0.0015
323	12500	0.00216	0.00203
323	12800	0.00272	0.00132
323	13200	0.00324	0.0015
323	13500	0.00376	0.00156
333	14000	0.00169	0.00159
333	14400	0.00229	0.00139
333	14800	0.00286	0.00132
333	15100	0.00343	0.0016
333	15600	0.00395	0.0014
343	15700	0.00177	0.0014
343	16100	0.00241	0.00124
343	16600	0.003	0.00059
343	17000	0.00358	0.00141
343	17500	0.00413	0.00125
353	17500	0.00181	0.00125
353	18000	0.00246	0.0012
353	18500	0.00308	0.0006
353	19000	0.00368	0.00127
353	19500	0.00424	0.00121
363	19100	0.00187	0.00091
363	19800	0.00252	0.00094
363	20500	0.00313	0.001
363	21100	0.00373	0.00096
363	21600	0.00432	0.00111
