Measured thermophysical data. Measurement of infinite dilution partition coefficients of isomeric benzene derivatives in [bmim][Tf2N]-CO2 biphasic system and correlation with the ePC-SAFT equation of state
Source: Fluid Phase Equilib., 2016, 10.1016/j.fluid.2015.10.042
Compound 1: 1-butyl-3-methylimidazolium bis(trifluoromethylsulfonyl)imide, C10H15F6N3O4S2, InChI=1S/C8H15N2.C2F6NO4S2/c1-3-4-5-10-7-6-9(2)8-10;3-1(4,5)14(10,11)9-15(12,13)2(6,7)8/h6-8H,3-5H2,1-2H3;/q+1;-1, purity 98%
Compound 2: carbon dioxide, CO2, InChI=1S/CO2/c2-1-3, purity 99.99%
Compound 3: chlorobenzene, C6H5Cl, InChI=1S/C6H5Cl/c7-6-4-2-1-3-5-6/h1-5H, purity 99.9%
Compound 4: bromobenzene, C6H5Br, InChI=1S/C6H5Br/c7-6-4-2-1-3-5-6/h1-5H, purity 98%
Compound 5: toluene, C7H8, InChI=1S/C7H8/c1-7-5-3-2-4-6-7/h2-6H,1H3, purity 98%
Compound 6: ethylbenzene, C8H10, InChI=1S/C8H10/c1-2-8-6-4-3-5-7-8/h3-7H,2H2,1H3, purity 98%
Compound 7: benzaldehyde, C7H6O, InChI=1S/C7H6O/c8-6-7-4-2-1-3-5-7/h1-6H, purity 99.5%
Compound 8: benzenemethanol, C7H8O, InChI=1S/C7H8O/c8-6-7-4-2-1-3-5-7/h1-5,8H,6H2, purity 99%
Compound 9: 1,2-dimethylbenzene, C8H10, InChI=1S/C8H10/c1-7-5-3-4-6-8(7)2/h3-6H,1-2H3, purity 98%
Compound 10: 1,3-dimethylbenzene, C8H10, InChI=1S/C8H10/c1-7-4-3-5-8(2)6-7/h3-6H,1-2H3, purity 98%
Compound 11: 1,4-dimethylbenzene, C8H10, InChI=1S/C8H10/c1-7-3-5-8(2)6-4-7/h3-6H,1-2H3, purity 98%
Compound 12: 2-methylphenol, C7H8O, InChI=1S/C7H8O/c1-6-4-2-3-5-7(6)8/h2-5,8H,1H3, purity 99%
Compound 13: 3-methylphenol, C7H8O, InChI=1S/C7H8O/c1-6-3-2-4-7(8)5-6/h2-5,8H,1H3, purity 98%
Compound 14: 4-methylphenol, C7H8O, InChI=1S/C7H8O/c1-6-2-4-7(8)5-3-6/h2-5,8H,1H3, purity 99%

System: chlorobenzene + carbon dioxide + 1-butyl-3-methylimidazolium bis(trifluoromethylsulfonyl)imide; phases: Fluid (supercritical or subcritical phases), Liquid
Fixed: Mole fraction of chlorobenzene = 0
Property: Mass fraction of carbon dioxide (Fluid (supercritical or subcritical phases)); method: Chromatography
Pressure, kPa	Temperature, K	Mass fraction of carbon dioxide	uncertainty
5990	353	0.16	0.028
9030	353	0.237	0.041
11980	353	0.425	0.074
15010	353	0.78	0.135
6040	333	0.102	0.018
9000	333	0.215	0.039
12020	333	0.688	0.12
14970	333	1.14	0.2
6010	313	0.0686	0.0275
9040	313	0.821	0.142
12010	313	1.12	0.19
14960	313	1.38	0.24

System: bromobenzene + carbon dioxide + 1-butyl-3-methylimidazolium bis(trifluoromethylsulfonyl)imide; phases: Fluid (supercritical or subcritical phases), Liquid
Fixed: Mole fraction of bromobenzene = 0
Property: Mass fraction of carbon dioxide (Fluid (supercritical or subcritical phases)); method: Chromatography
Pressure, kPa	Temperature, K	Mass fraction of carbon dioxide	uncertainty
6010	353	0.0976	0.017
9040	353	0.155	0.027
11980	353	0.293	0.051
15010	353	0.581	0.101
5970	333	0.0603	0.0107
8980	333	0.141	0.026
12020	333	0.484	0.085
14980	333	0.889	0.112
6000	313	0.042	0.0199
9040	313	0.605	0.105
12020	313	0.898	0.102
15040	313	1.05	0.18

System: toluene + carbon dioxide + 1-butyl-3-methylimidazolium bis(trifluoromethylsulfonyl)imide; phases: Fluid (supercritical or subcritical phases), Liquid
Fixed: Mole fraction of toluene = 0
Property: Mass fraction of carbon dioxide (Fluid (supercritical or subcritical phases)); method: Chromatography
Pressure, kPa	Temperature, K	Mass fraction of carbon dioxide	uncertainty
5990	333	0.186	0.033
8970	333	0.397	0.072
12020	333	1.39	0.24
6040	353	0.288	0.05
9030	353	0.418	0.073
11970	353	0.744	0.129
5980	313	0.13	0.049
9030	313	1.45	0.25

System: ethylbenzene + carbon dioxide + 1-butyl-3-methylimidazolium bis(trifluoromethylsulfonyl)imide; phases: Fluid (supercritical or subcritical phases), Liquid
Fixed: Mole fraction of ethylbenzene = 0
Property: Mass fraction of carbon dioxide (Fluid (supercritical or subcritical phases)); method: Chromatography
Pressure, kPa	Temperature, K	Mass fraction of carbon dioxide	uncertainty
6040	353	0.214	0.037
9030	353	0.339	0.059
11970	353	0.652	0.113
6000	333	0.137	0.024
8970	333	0.322	0.058
12010	333	1.06	0.18
5990	313	0.0925	0.0527
9030	313	1.62	0.28

System: benzaldehyde + carbon dioxide + 1-butyl-3-methylimidazolium bis(trifluoromethylsulfonyl)imide; phases: Fluid (supercritical or subcritical phases), Liquid
Fixed: Mole fraction of benzaldehyde = 0
Property: Mass fraction of carbon dioxide (Fluid (supercritical or subcritical phases)); method: Chromatography
Pressure, kPa	Temperature, K	Mass fraction of carbon dioxide	uncertainty
5970	353	0.0226	0.004
9030	353	0.0406	0.0071
11970	353	0.0856	0.015
14990	353	0.179	0.031
5980	333	0.0136	0.0025
8970	333	0.0373	0.0069
12020	333	0.152	0.027
14990	333	0.304	0.053
5980	313	0.00933	0.00653
9040	313	0.203	0.036
12030	313	0.358	0.062
15040	313	0.458	0.079

System: benzenemethanol + carbon dioxide + 1-butyl-3-methylimidazolium bis(trifluoromethylsulfonyl)imide; phases: Fluid (supercritical or subcritical phases), Liquid
Fixed: Mole fraction of benzenemethanol = 0
Property: Mass fraction of carbon dioxide (Fluid (supercritical or subcritical phases)); method: Chromatography
Pressure, kPa	Temperature, K	Mass fraction of carbon dioxide	uncertainty
5990	353	0.00645	0.00114
9020	353	0.0131	0.0023
11990	353	0.0301	0.0053
14990	353	0.0673	0.0117
5980	333	0.00358	0.00068
8960	333	0.0115	0.0022
11980	333	0.0512	0.009
14990	333	0.105	0.018
9050	313	0.0623	0.0109
11980	313	0.11	0.019
15030	313	0.148	0.026

System: 1,2-dimethylbenzene + carbon dioxide + 1-butyl-3-methylimidazolium bis(trifluoromethylsulfonyl)imide; phases: Fluid (supercritical or subcritical phases), Liquid
Fixed: Mole fraction of 1,2-dimethylbenzene = 0
Property: Mass fraction of carbon dioxide (Fluid (supercritical or subcritical phases)); method: Chromatography
Pressure, kPa	Temperature, K	Mass fraction of carbon dioxide	uncertainty
6040	353	0.158	0.028
9020	353	0.25	0.044
11990	353	0.506	0.088
6000	333	0.1	0.018
9020	333	0.25	0.045
11990	333	0.806	0.14
5970	313	0.0687	0.039
9040	313	1.21	0.21

System: 1,3-dimethylbenzene + carbon dioxide + 1-butyl-3-methylimidazolium bis(trifluoromethylsulfonyl)imide; phases: Fluid (supercritical or subcritical phases), Liquid
Fixed: Mole fraction of 1,3-dimethylbenzene = 0
Property: Mass fraction of carbon dioxide (Fluid (supercritical or subcritical phases)); method: Chromatography
Pressure, kPa	Temperature, K	Mass fraction of carbon dioxide	uncertainty
6040	353	0.204	0.036
9010	353	0.333	0.058
11990	353	0.692	0.12
5990	333	0.13	0.024
9020	333	0.368	0.066
12000	333	1.08	0.19
5960	313	0.0904	0.0571
9040	313	1.78	0.31

System: 1,4-dimethylbenzene + carbon dioxide + 1-butyl-3-methylimidazolium bis(trifluoromethylsulfonyl)imide; phases: Fluid (supercritical or subcritical phases), Liquid
Fixed: Mole fraction of 1,4-dimethylbenzene = 0
Property: Mass fraction of carbon dioxide (Fluid (supercritical or subcritical phases)); method: Chromatography
Pressure, kPa	Temperature, K	Mass fraction of carbon dioxide	uncertainty
6040	353	0.204	0.036
9010	353	0.333	0.058
11990	353	0.695	0.12
5990	333	0.135	0.024
9020	333	0.333	0.061
12010	333	1.17	0.2
5970	313	0.0931	0.0596
9030	313	1.85	0.32

System: 2-methylphenol + carbon dioxide + 1-butyl-3-methylimidazolium bis(trifluoromethylsulfonyl)imide; phases: Fluid (supercritical or subcritical phases), Liquid
Fixed: Mole fraction of 2-methylphenol = 0
Property: Mass fraction of carbon dioxide (Fluid (supercritical or subcritical phases)); method: Chromatography
Pressure, kPa	Temperature, K	Mass fraction of carbon dioxide	uncertainty
6010	353	0.00531	0.00093
9030	353	0.0101	0.0018
11990	353	0.0225	0.0039
15000	353	0.0467	0.0081
5970	333	0.00274	0.00051
9030	333	0.00852	0.00157
11990	333	0.0337	0.0059
14980	333	0.066	0.0115
9040	313	0.0359	0.0063
12030	313	0.0647	0.0112
15020	313	0.082	0.0142

System: 3-methylphenol + carbon dioxide + 1-butyl-3-methylimidazolium bis(trifluoromethylsulfonyl)imide; phases: Fluid (supercritical or subcritical phases), Liquid
Fixed: Mole fraction of 3-methylphenol = 0
Property: Mass fraction of carbon dioxide (Fluid (supercritical or subcritical phases)); method: Chromatography
Pressure, kPa	Temperature, K	Mass fraction of carbon dioxide	uncertainty
5980	353	0.00317	0.00056
9040	353	0.0062	0.00109
11990	353	0.0143	0.0025
15010	353	0.0311	0.0054
9030	333	0.00522	0.00097
11950	333	0.0216	0.0038
14980	333	0.0435	0.0076
9030	313	0.0232	0.0041
12020	313	0.0429	0.0075
15030	313	0.0555	0.0096

System: 4-methylphenol + carbon dioxide + 1-butyl-3-methylimidazolium bis(trifluoromethylsulfonyl)imide; phases: Fluid (supercritical or subcritical phases), Liquid
Fixed: Mole fraction of 4-methylphenol = 0
Property: Mass fraction of carbon dioxide (Fluid (supercritical or subcritical phases)); method: Chromatography
Pressure, kPa	Temperature, K	Mass fraction of carbon dioxide	uncertainty
6020	353	0.00332	0.00058
9030	353	0.00643	0.00113
11980	353	0.0148	0.0026
15020	353	0.0322	0.0056
9050	333	0.00541	0.00101
12020	333	0.0227	0.004
14980	333	0.0454	0.0079
9050	313	0.0243	0.0043
11970	313	0.0442	0.0077
15030	313	0.0584	0.0101
