Measured thermophysical data. Thermodynamics of aqueous solutions of methyldiethanolamine and diisopropanolamine.
Source: Fluid Phase Equilib., 2010, 10.1016/j.fluid.2010.08.026
Compound 1: N-methyldiethanolamine, C5H13NO2, InChI=1S/C5H13NO2/c1-6(2-4-7)3-5-8/h7-8H,2-5H2,1H3, purity 99%
Compound 2: water, H2O, InChI=1S/H2O/h1H2, purity 99.8%
Compound 3: diisopropylamine, C6H15N, InChI=1S/C6H15N/c1-5(2)7-6(3)4/h5-7H,1-4H3, purity 99.4%
Compound 4: N-(2-hydroxypropyl)-2-hydroxy-1-propanamine, C6H15NO2, InChI=1S/C6H15NO2/c1-5(8)3-7-4-6(2)9/h5-9H,3-4H2,1-2H3

System: N-methyldiethanolamine; phases: Crystal 1, Liquid, Air at 1 atmosphere
Property: Normal melting temperature, K (Crystal 1); method: Closed cell (Static) method
Normal melting temperature, K	uncertainty
250	

System: N-methyldiethanolamine; phases: Liquid, Gas
Property: Vapor or sublimation pressure, kPa (Liquid); method: Closed cell (Static) method
Temperature, K	Vapor or sublimation pressure, kPa	uncertainty
356.86	0.2	

System: diisopropylamine; phases: Crystal, Liquid, Gas
Property: Molar enthalpy of transition or fusion, kJ/mol (Crystal); method: DSC
Molar enthalpy of transition or fusion, kJ/mol	uncertainty
22.74	0.72

System: N-(2-hydroxypropyl)-2-hydroxy-1-propanamine; phases: Crystal 1, Liquid, Gas
Property: Molar enthalpy of transition or fusion, kJ/mol (Crystal 1); method: Closed cell (Static) method
Molar enthalpy of transition or fusion, kJ/mol	uncertainty
22.74	

System: N-(2-hydroxypropyl)-2-hydroxy-1-propanamine; phases: Crystal 1, Liquid, Air at 1 atmosphere
Property: Normal melting temperature, K (Crystal 1); method: Closed cell (Static) method
Normal melting temperature, K	uncertainty
315.8	

System: N-methyldiethanolamine + water; phases: Liquid, Crystal
Fixed: Pressure, kPa = 101.3
Property: Solid-liquid equilibrium temperature, K (Liquid); method: DTA
Mole fraction of N-methyldiethanolamine	Solid-liquid equilibrium temperature, K	uncertainty
0.0166	270.2	2
0.0258	269.3	2
0.0356	267.5	2
0.0479	265.5	2
0.0609	263.2	2
0.0721	261.2	2
0.0911	255.9	2
0.0993	254	2
0.1273	246.7	2
1	250	2

System: N-methyldiethanolamine + water; phases: Liquid, Crystal
Fixed: Pressure, kPa = 101.3
Property: Solid-liquid equilibrium temperature, K (Liquid); method: VISOBS
Mole fraction of N-methyldiethanolamine	Solid-liquid equilibrium temperature, K	uncertainty
0	273.2	1
0.0079	272.3	1
0.0165	271.3	1
0.0262	269.7	1
0.0477	266.5	1
0.0606	264.9	1
0.0747	261.6	1
0.0913	259.4	1

System: N-methyldiethanolamine + water; phases: Gas, Liquid
Property: Vapor or sublimation pressure, kPa (Gas); method: Closed cell (Static) method
Mole fraction of N-methyldiethanolamine	Temperature, K	Vapor or sublimation pressure, kPa	uncertainty
0.0314	357.91	57.9	2.4
0.0647	357.91	55.2	2.2
0.0831	357.92	54	2.5
0.0929	357.91	53.4	2.3
0.1202	357.91	51.8	2.1
0.1496	357.9	50.1	2.1
0.15	333.8	18.2	1.1
0.1691	333.81	17.7	1.1
0.1693	357.91	48.9	2.1
0.1699	356.92	46.6	2.1
0.2069	333.81	16.5	1
0.2081	356.92	44.4	2.3
0.2456	333.8	15.5	0.9
0.2465	356.92	42.1	2.2
0.2655	333.81	15	0.9
0.293	356.91	39.2	2.2
0.2937	333.81	14.3	0.9
0.333	333.81	13.4	0.9
0.3627	333.81	12.7	0.9
0.3636	356.91	34.9	2.2
0.3933	333.81	11.9	0.9
0.4439	333.8	10.8	0.8
0.4515	356.91	29.6	2.1
0.5162	333.8	9.2	0.8
0.568	333.81	8.1	0.8
0.5825	356.92	22.2	2
0.6602	333.81	6.3	0.7
0.7301	333.8	4.9	0.7
0.7636	356.91	12.2	1.9
1	333.79	0.2	0.2
1	356.86	0.2	0.2

System: diisopropylamine + water; phases: Liquid, Crystal
Fixed: Pressure, kPa = 101.3
Property: Solid-liquid equilibrium temperature, K (Liquid); method: DTA
Mole fraction of diisopropylamine	Solid-liquid equilibrium temperature, K	uncertainty
0.0071	273.5	2
0.0148	271.3	2
0.023	270.3	2
0.0331	269.3	2
0.0436	266.2	2
0.0548	264.1	2
0.0664	259.9	2
0.0799	257.7	2
1	317.7	2

System: diisopropylamine + water; phases: Liquid, Crystal
Fixed: Pressure, kPa = 101.3
Property: Solid-liquid equilibrium temperature, K (Liquid); method: VISOBS
Mole fraction of diisopropylamine	Solid-liquid equilibrium temperature, K	uncertainty
0	273.2	1
0.0069	272.2	1
0.0146	271.4	1
0.0232	271	1
0.0326	268.6	1
0.0435	266.9	1
0.0545	263.9	1
0.067	261.6	1
0.0802	259.3	1
1	315.8	1

System: diisopropylamine + water; phases: Gas, Liquid
Property: Vapor or sublimation pressure, kPa (Gas); method: Closed cell (Static) method
Mole fraction of diisopropylamine	Temperature, K	Vapor or sublimation pressure, kPa	uncertainty
0.0707	357.3	53.4	1.8
0.0809	357.31	52.8	1.7
0.1009	357.31	51.8	1.7
0.1418	357.31	49.9	1.8
0.1613	334.59	18.1	0.9
0.165	349.15	34.1	3
0.1707	334.59	17.8	0.8
0.1712	357.3	48.4	1.8
0.175	349.15	33.8	3
0.202	334.59	17.1	0.9
0.2029	357.3	46.8	1.8
0.2059	349.14	32.6	1.2
0.2218	334.6	16.7	0.8
0.2265	349.15	31.8	1
0.2417	334.59	16.2	0.9
0.2446	357.31	44.6	2.1
0.2467	349.15	31.1	1.4
0.2623	334.59	15.7	0.9
0.268	349.15	30.2	2
0.2927	334.6	15	0.9
0.2937	357.3	41.5	2.1
0.2937	357.31	41.8	2.2
0.2987	349.15	28.9	1.6
0.3227	334.6	14.3	0.9
0.3282	349.15	27.7	1.9
0.3534	334.59	13.5	0.9
0.3591	349.15	26.4	1.6
0.3634	357.3	37.4	2.2
0.3825	334.6	12.8	0.9
0.392	349.15	24.9	1.5
0.4036	357.3	34.8	2.3
0.433	334.59	11.5	0.9
0.442	349.16	22.7	1.7
0.4424	357.31	32.4	2.2
0.5039	334.59	9.8	0.9
0.5043	357.3	28.5	2.2
0.5128	349.14	19.6	1.6
0.5535	357.3	25.4	2.2
0.5558	334.6	8.6	0.8
0.5638	349.15	17.3	1.6
0.609	357.3	21.9	2.2
0.645	334.59	6.6	0.8
0.6502	349.16	13.8	1.6
0.7016	357.3	16.3	2
0.7325	334.59	4.8	0.7
0.7396	349.15	10.1	1.4
1	334.59	0	0.2
1	349.15	0	0.2
1	357.28	0	0.2
