Measured thermophysical data. CO2 absorption using aqueous solution of potassium carbonate: Experimental measurement and thermodynamic modeling
Source: Fluid Phase Equilib., 2017, 10.1016/j.fluid.2017.05.023
Compound 1: potassium carbonate, CK2O3, InChI=1S/CH2O3.2K/c2-1(3)4;;/h(H2,2,3,4);;/q;2*+1/p-2, purity 99.5%
Compound 2: carbon dioxide, CO2, InChI=1S/CO2/c2-1-3, purity 99.9%
Compound 3: water, H2O, InChI=1S/H2O/h1H2, purity 99.8%

System: carbon dioxide + potassium carbonate + water; phases: Liquid, Gas
Property: Mole fraction of carbon dioxide (Liquid); method: Phase equilibration
Solvent: Mass fraction of potassium carbonate	Temperature, K	Pressure, kPa	Mole fraction of carbon dioxide	uncertainty
0.15	313.15	1090	1	
0.15	313.15	1020	0.99	0.01
0.15	313.15	900	0.98	0.02
0.15	313.15	750	0.95	0.04
0.15	313.15	640	0.93	0.04
0.15	313.15	510	0.89	0.04
0.15	313.15	180	0.6	0.04
0.15	313.15	100	0.52	0.04
0.15	313.15	50	0.48	0.04
0.15	313.15	30	0.45	0.04
0.15	323.15	1090	0.95	0.04
0.15	323.15	970	0.94	0.04
0.15	323.15	880	0.94	0.04
0.15	323.15	750	0.91	0.04
0.15	323.15	620	0.88	0.04
0.15	323.15	530	0.83	0.04
0.15	323.15	190	0.57	0.04
0.15	323.15	110	0.53	0.04
0.15	323.15	90	0.48	0.04
0.15	323.15	50	0.45	0.04
0.15	333.15	1120	0.82	0.04
0.15	333.15	970	0.81	0.04
0.15	333.15	890	0.81	0.04
0.15	333.15	800	0.75	0.04
0.15	333.15	640	0.7	0.04
0.15	333.15	550	0.68	0.04
0.15	333.15	130	0.54	0.04
0.15	333.15	90	0.5	0.04
0.15	333.15	60	0.46	0.04
0.15	333.15	30	0.41	0.04
0.2	313.15	930	1.25	0.04
0.2	313.15	820	1.25	0.04
0.2	313.15	730	1.22	0.04
0.2	313.15	650	1.19	0.04
0.2	313.15	530	1.1	0.04
0.2	313.15	410	1.02	0.04
0.2	313.15	150	0.77	0.04
0.2	313.15	100	0.73	0.04
0.2	313.15	50	0.71	0.04
0.2	313.15	30	0.68	0.04
0.2	323.15	990	0.98	0.02
0.2	323.15	920	0.96	0.04
0.2	323.15	810	0.95	0.04
0.2	323.15	730	0.91	0.04
0.2	323.15	540	0.84	0.04
0.2	323.15	410	0.79	0.04
0.2	323.15	150	0.62	0.04
0.2	323.15	100	0.57	0.04
0.2	323.15	60	0.55	0.04
0.2	323.15	30	0.53	0.04
0.2	333.15	930	0.79	0.04
0.2	333.15	900	0.79	0.04
0.2	333.15	810	0.78	0.04
0.2	333.15	700	0.76	0.04
0.2	333.15	540	0.71	0.04
0.2	333.15	390	0.65	0.04
0.2	333.15	130	0.55	0.04
0.2	333.15	90	0.5	0.04
0.2	333.15	70	0.44	0.04
0.2	333.15	40	0.4	0.04
0.3	313.15	780	1.16	0.04
0.3	313.15	650	1.15	0.04
0.3	313.15	590	1.13	0.04
0.3	313.15	490	1.1	0.04
0.3	313.15	320	1.05	0.04
0.3	313.15	230	1.02	0.04
0.3	313.15	150	0.97	0.03
0.3	313.15	100	0.94	0.04
0.3	313.15	40	0.88	0.04
0.3	323.15	810	1.1	0.04
0.3	323.15	660	1.1	0.04
0.3	323.15	570	1.08	0.04
0.3	323.15	470	1.04	0.04
0.3	323.15	350	1.01	0.04
0.3	323.15	250	0.95	0.04
0.3	323.15	160	0.94	0.04
0.3	323.15	90	0.91	0.04
0.3	323.15	50	0.86	0.04
0.3	333.15	790	1.07	0.04
0.3	333.15	640	1.05	0.04
0.3	333.15	550	1.03	0.04
0.3	333.15	450	1	
0.3	333.15	330	0.95	0.04
0.3	333.15	240	0.91	0.04
0.3	333.15	170	0.9	0.04
0.3	333.15	100	0.85	0.04
0.3	333.15	60	0.82	0.04
