Measured thermophysical data. Liquid density measurements of cumene, tert-butylbenzene, and hexadecane over wide ranges of temperature and pressure
Source: Fluid Phase Equilib., 2018, 10.1016/j.fluid.2018.02.008
Compound 1: hexadecane, C16H34, InChI=1S/C16H34/c1-3-5-7-9-11-13-15-16-14-12-10-8-6-4-2/h3-16H2,1-2H3, purity 99%
Compound 2: isopropylbenzene, C9H12, InChI=1S/C9H12/c1-8(2)9-6-4-3-5-7-9/h3-8H,1-2H3, purity 98%
Compound 3: (1,1-dimethylethyl)benzene, C10H14, InChI=1S/C10H14/c1-10(2,3)9-7-5-4-6-8-9/h4-8H,1-3H3, purity 99%

System: hexadecane; phases: Liquid
Property: Mass density, kg/m3 (Liquid); method: Vibrating tube method
Temperature, K	Pressure, kPa	Mass density, kg/m3	uncertainty
298.15	100	769.98	0.32
313.15	100	759.6	0.32
333.15	100	745.81	0.31
373.15	100	717.79	0.31
393.15	100	703.59	0.31
433.15	100	674.64	0.31
298.15	10100	776.41	0.38
313.15	10100	766.44	0.38
373.15	10100	727.21	0.39
393.15	10100	714.02	0.39
433.15	10100	687.77	0.4
298.15	20100	782.34	0.44
313.15	20100	772.76	0.44
333.15	20100	760.5	0.45
373.15	20100	735.47	0.46
393.15	20100	723.09	0.47
433.15	20100	698.82	0.49
313.15	30100	778.65	0.51
373.15	30100	742.97	0.54
313.15	40100	784.24	0.57
333.15	40100	773.01	0.59
373.15	40100	749.88	0.63
393.15	40100	738.85	0.65
433.15	40100	717.04	0.69
333.15	50100	778.56	0.67
373.15	50100	756.25	0.71
313.15	60100	794.38	0.71
333.15	60100	783.47	0.74
373.15	60100	762.2	0.79
393.15	60100	752	0.82
433.15	60100	731.95	0.87
313.15	80100	803.42	0.84
333.15	80100	793.1	0.88
373.15	80100	773.03	0.94
393.15	80100	763.28	0.97
433.15	80100	744.68	1.04
333.15	100100	801.83	1
373.15	100100	782.74	1.08
393.15	100100	773.48	1.12
433.15	100100	755.89	1.19

System: isopropylbenzene; phases: Liquid
Property: Mass density, kg/m3 (Liquid); method: Vibrating tube method
Temperature, K	Pressure, kPa	Mass density, kg/m3	uncertainty
298.15	100	857.94	0.68
313.15	100	845.05	0.67
333.15	100	827.73	0.65
353.15	100	810.17	0.64
373.15	100	792.31	0.62
393.15	100	773.98	0.6
413.15	100	755.04	0.59
433.15	10100	752.29	0.69
298.15	20100	871.79	0.79
313.15	20100	859.97	0.79
333.15	20100	844.44	0.79
353.15	20100	828.86	0.78
373.15	20100	813.36	0.78
393.15	20100	797.74	0.78
413.15	20100	781.98	0.78
433.15	20100	766.12	0.78
298.15	40100	883.81	0.89
313.15	40100	872.84	0.89
333.15	40100	858.51	0.9
353.15	40100	844.27	0.91
373.15	40100	830.23	0.92
393.15	40100	816.2	0.93
413.15	40100	802.25	0.94
433.15	40100	788.34	0.95
298.15	60100	894.47	0.96
313.15	60100	884.19	0.98
333.15	60100	870.78	0.99
353.15	60100	857.52	1.01
373.15	60100	844.51	1.03
393.15	60100	831.6	1.05
413.15	60100	818.85	1.07
433.15	60100	806.14	1.09
298.15	80100	904.16	1.02
313.15	80100	894.38	1.04
333.15	80100	881.68	1.07
353.15	80100	869.22	1.1
373.15	80100	857	1.12
393.15	80100	844.92	1.15
413.15	80100	833.04	1.18
433.15	80100	821.27	1.21
298.15	100100	913.02	1.07
313.15	100100	903.69	1.1
333.15	100100	891.56	1.13
353.15	100100	879.74	1.17
373.15	100100	868.11	1.2
393.15	100100	856.72	1.24
413.15	100100	845.53	1.27
433.15	100100	834.45	1.31

System: (1,1-dimethylethyl)benzene; phases: Liquid
Property: Mass density, kg/m3 (Liquid); method: Vibrating tube method
Temperature, K	Pressure, kPa	Mass density, kg/m3	uncertainty
298.15	100	862.38	0.33
313.15	100	849.98	0.33
333.15	100	833.32	0.33
353.15	100	816.42	0.33
373.15	100	799.33	0.32
393.15	100	781.81	0.32
413.15	100	763.74	0.32
433.15	100	745.23	0.32
298.15	20100	875.86	0.4
313.15	20100	864.52	0.4
333.15	20100	849.54	0.41
353.15	20100	834.5	0.41
373.15	20100	819.57	0.42
393.15	20100	804.5	0.43
413.15	20100	789.38	0.44
433.15	20100	774.28	0.45
298.15	40100	887.54	0.46
313.15	40100	877	0.47
333.15	40100	863.16	0.48
353.15	40100	849.4	0.5
373.15	40100	835.86	0.51
393.15	40100	822.33	0.53
413.15	40100	808.84	0.55
433.15	40100	795.55	0.56
298.15	60100	897.94	0.5
313.15	60100	888.01	0.52
333.15	60100	875.06	0.54
353.15	60100	862.22	0.57
373.15	60100	849.64	0.59
393.15	60100	837.18	0.61
413.15	60100	824.82	0.64
433.15	60100	812.75	0.68
298.15	80100	907.35	0.55
313.15	80100	897.93	0.57
333.15	80100	885.65	0.6
353.15	80100	873.52	0.63
373.15	80100	861.72	0.66
393.15	80100	850.05	0.7
413.15	80100	838.52	0.74
433.15	80100	827.29	0.78
298.15	100100	915.98	0.58
313.15	100100	906.96	0.6
333.15	100100	895.25	0.64
353.15	100100	883.72	0.68
373.15	100100	872.52	0.73
393.15	100100	861.47	0.77
413.15	100100	850.58	0.81
433.15	100100	840.05	0.86
