Measured thermophysical data. Liquid density of oxygenated additives to bio-fuels: 1-Hexanol at pressures up to 140 MPa and from 293.15 K to 403.15 K
Source: Fluid Phase Equilib., 2012, 10.1016/j.fluid.2012.02.007
Compound 1: hexan-1-ol, C6H14O, InChI=1S/C6H14O/c1-2-3-4-5-6-7/h7H,2-6H2,1H3, purity 99.9%

System: hexan-1-ol; phases: Liquid
Property: Mass density, kg/m3 (Liquid); method: Vibrating tube method
Temperature, K	Pressure, kPa	Mass density, kg/m3	uncertainty
293.15	100	818.6	1
293.15	10000	824.8	1
293.15	20000	830.9	1
293.15	30000	836.4	1
293.15	40000	841.6	1
293.15	50000	846.5	1.1
293.15	60000	851.1	1.1
293.15	70000	855.5	1.1
293.15	80000	859.8	1.1
293.15	90000	863.7	1.1
293.15	100000	867.9	1.1
293.15	110000	871.5	1.2
293.15	120000	875.2	1.2
293.15	130000	878.7	1.2
293.15	140000	882.2	1.2
303.15	100	811.5	1
303.15	10000	818.2	1
303.15	20000	824.1	1
303.15	30000	830	1
303.15	40000	835.1	1.1
303.15	50000	840.5	1.1
303.15	60000	845.3	1.1
303.15	70000	849.8	1.1
303.15	80000	854.2	1.1
303.15	90000	858.4	1.1
303.15	100000	862.4	1.1
303.15	110000	866.3	1.2
303.15	120000	870	1.2
303.15	130000	873.6	1.2
303.15	140000	877.1	1.2
313.15	100	804.2	1
313.15	10000	811.1	1
313.15	20000	817.4	1
313.15	30000	823.5	1
313.15	40000	829	1.1
313.15	50000	834.4	1.1
313.15	60000	839.4	1.1
313.15	70000	844.3	1.1
313.15	80000	848.7	1.1
313.15	90000	853.1	1.1
313.15	100000	857.1	1.2
313.15	110000	861.2	1.2
313.15	120000	865.1	1.2
313.15	130000	868.7	1.2
313.15	140000	872.5	1.2
323.15	100	797.3	1
323.15	10000	804.5	1
323.15	20000	811.2	1
323.15	30000	817.4	1
323.15	40000	823.3	1.1
323.15	50000	828.7	1.1
323.15	60000	833.8	1.1
323.15	70000	838.5	1.1
323.15	80000	843.1	1.1
323.15	90000	847.6	1.2
323.15	100000	851.8	1.2
323.15	110000	856	1.2
323.15	120000	860	1.2
323.15	130000	863.7	1.2
323.15	140000	867.3	1.2
333.15	100	789.7	1
333.15	10000	797.2	1
333.15	20000	804.3	1
333.15	30000	810.8	1
333.15	40000	817	1.1
333.15	50000	822.7	1.1
333.15	60000	828	1.1
333.15	70000	832.8	1.1
333.15	80000	837.6	1.1
333.15	90000	842.5	1.2
333.15	100000	846.8	1.2
333.15	110000	850.8	1.2
333.15	120000	854.4	1.2
333.15	130000	858.5	1.2
333.15	140000	862.2	1.3
343.15	100	781.9	1
343.15	10000	790.2	1
343.15	20000	797.6	1
343.15	30000	804.4	1
343.15	40000	810.6	1.1
343.15	50000	816.4	1.1
343.15	60000	822.1	1.1
343.15	70000	827.3	1.1
343.15	80000	832.1	1.1
343.15	90000	836.9	1.2
343.15	100000	841.4	1.2
343.15	110000	845.7	1.2
343.15	120000	849.7	1.2
343.15	130000	853.6	1.3
343.15	140000	857.5	1.3
353.15	100	773.8	1
353.15	10000	782.3	1
353.15	20000	790.1	1
353.15	30000	797.3	1.1
353.15	40000	803.8	1.1
353.15	50000	810	1.1
353.15	60000	815.6	1.1
353.15	70000	821	1.1
353.15	80000	826.2	1.2
353.15	90000	831.1	1.2
353.15	100000	835.6	1.2
353.15	110000	840	1.2
353.15	120000	844.3	1.2
353.15	130000	848.4	1.3
353.15	140000	852.3	1.3
363.15	100	765.5	1
363.15	10000	774.9	1
363.15	20000	783.1	1
363.15	30000	790.6	1.1
363.15	40000	797.5	1.1
363.15	50000	803.8	1.1
363.15	60000	809.7	1.1
363.15	70000	815.4	1.1
363.15	80000	820.6	1.2
363.15	90000	825.6	1.2
363.15	100000	830.3	1.2
363.15	110000	834.8	1.2
363.15	120000	839.2	1.3
363.15	130000	843.3	1.3
363.15	140000	847.2	1.3
373.15	100	756.9	7.5
373.15	10000	766.6	1
373.15	20000	775.4	1
373.15	30000	783.4	1.1
373.15	40000	790.4	1.1
373.15	50000	796.9	1.1
373.15	60000	803.1	1.1
373.15	70000	808.9	1.2
373.15	80000	814.2	1.2
373.15	90000	819.5	1.2
373.15	100000	824.4	1.2
373.15	110000	829.2	1.3
373.15	120000	833.3	1.3
373.15	130000	837.7	1.3
373.15	140000	841.7	1.3
383.15	100	748.2	7.5
383.15	10000	759.1	1
383.15	20000	767.8	1
383.15	30000	776.5	1.1
383.15	40000	783.5	1.1
383.15	50000	790.4	1.1
383.15	60000	796.8	1.1
383.15	70000	802.6	1.2
383.15	80000	808.3	1.2
383.15	90000	813.7	1.2
383.15	100000	818.7	1.2
383.15	110000	823.4	1.3
383.15	120000	828	1.3
383.15	130000	832.3	1.3
383.15	140000	836.5	1.3
393.15	100	739.4	7.2
393.15	10000	750.8	1
393.15	20000	760.5	1
393.15	30000	768.8	1.1
393.15	40000	777	1.1
393.15	50000	783.7	1.1
393.15	60000	790.3	1.1
393.15	70000	796.5	1.2
393.15	80000	802.5	1.2
393.15	90000	807.8	1.2
393.15	100000	813	1.3
393.15	110000	818.1	1.3
393.15	120000	822.6	1.3
393.15	130000	827.2	1.3
393.15	140000	831.5	1.4
403.15	100	730.2	7.2
403.15	10000	741.8	1
403.15	20000	751.9	1
403.15	30000	761.1	1.1
403.15	40000	769.3	1.1
403.15	50000	776.9	1.1
403.15	60000	783.7	1.2
403.15	70000	790.1	1.2
403.15	80000	796.2	1.2
403.15	90000	801.8	1.2
403.15	100000	807.2	1.3
403.15	110000	812.3	1.3
403.15	120000	817.1	1.3
403.15	130000	821.8	1.4
403.15	140000	826.5	1.4
