Measured thermophysical data. Liquid liquid equilibrium of (1H,1H,7H-perfluoroheptan-1-ol + perfluoroalkane) binary mixtures
Source: Fluid Phase Equilib., 2007, 10.1016/j.fluid.2006.10.025
Compound 1: 1,1,7-trihydrododecafluoroheptan-1-ol, C7H4F12O, InChI=1S/C7H4F12O/c8-2(9)4(12,13)6(16,17)7(18,19)5(14,15)3(10,11)1-20/h2,20H,1H2
Compound 2: perfluorohexane, C6F14, InChI=1S/C6F14/c7-1(8,3(11,12)5(15,16)17)2(9,10)4(13,14)6(18,19)20
Compound 3: hexadecafluoroheptane, C7F16, InChI=1S/C7F16/c8-1(9,2(10,11)4(14,15)6(18,19)20)3(12,13)5(16,17)7(21,22)23
Compound 4: octadecafluorooctane, C8F18, InChI=1S/C8F18/c9-1(10,3(13,14)5(17,18)7(21,22)23)2(11,12)4(15,16)6(19,20)8(24,25)26
Compound 5: eicosafluorononane, C9F20, InChI=1S/C9F20/c10-1(11,2(12,13)4(16,17)6(20,21)8(24,25)26)3(14,15)5(18,19)7(22,23)9(27,28)29

System: 1,1,7-trihydrododecafluoroheptan-1-ol; phases: Liquid
Fixed: Pressure, kPa = 101.325
Property: Mass density, kg/m3 (Liquid); method: VIBTUB:UFactor:16
Temperature, K	Mass density, kg/m3	uncertainty
293.15	1750.1	7.8
293.15	1750.2	7.8
303.15	1732.7	7.6
313.15	1715	7.4
323.15	1696.9	7.3
333.15	1678.5	7.1
343.15	1659.7	6.9

System: 1,1,7-trihydrododecafluoroheptan-1-ol + perfluorohexane; phases: Liquid mixture 1, Liquid mixture 2
Fixed: Pressure, kPa = 101
Property: Liquid-liquid equilibrium temperature, K (Liquid mixture 1); method: VISOBS
Mole fraction of 1,1,7-trihydrododecafluoroheptan-1-ol	Liquid-liquid equilibrium temperature, K	uncertainty
0.0877	276.37	0.17
0.0919	277.66	0.17
0.1026	279.58	0.17
0.1066	279.83	0.17
0.1265	283.36	0.17
0.1419	285.2	0.17
0.1495	285.46	0.17
0.1716	286.7	0.17
0.19	287.11	0.17
0.2167	287.63	0.17
0.2291	287.89	0.17
0.2568	288.36	0.17
0.2857	288.42	0.17
0.2959	288.41	0.17
0.3094	288.56	0.17
0.3429	288.65	0.17
0.3536	288.56	0.17
0.4026	288.38	0.17
0.4339	288.22	0.17
0.4579	287.98	0.17
0.4874	287.5	0.17
0.505	287.14	0.17
0.5388	286.05	0.17
0.5591	285.31	0.17
0.5753	284.5	0.17
0.6012	283.04	0.17
0.6314	280.17	0.17
0.6649	277.48	0.17

System: 1,1,7-trihydrododecafluoroheptan-1-ol + perfluorohexane; phases: Liquid mixture 1, Liquid mixture 2
Fixed: Mole fraction of 1,1,7-trihydrododecafluoroheptan-1-ol = 0.371
Property: Liquid-liquid equilibrium temperature, K (Liquid mixture 1); method: VISOBS
Pressure, kPa	Liquid-liquid equilibrium temperature, K	uncertainty
589	288.75	0.17
630	288.75	0.17
822	288.73	0.17
1066	288.73	0.17
1560	288.7	0.17
2185	288.67	0.17
2234	288.67	0.17
2647	288.64	0.17
3282	288.61	0.17
3984	288.58	0.17
4252	288.57	0.17

System: hexadecafluoroheptane + 1,1,7-trihydrododecafluoroheptan-1-ol; phases: Liquid mixture 1, Liquid mixture 2
Fixed: Pressure, kPa = 101
Property: Liquid-liquid equilibrium temperature, K (Liquid mixture 1); method: VISOBS
Mole fraction of 1,1,7-trihydrododecafluoroheptan-1-ol	Liquid-liquid equilibrium temperature, K	uncertainty
0.0946	278.03	0.17
0.1257	283.71	0.17
0.1391	285.59	0.17
0.1528	286.94	0.17
0.167	288.18	0.17
0.1874	289.35	0.17
0.2112	290.37	0.17
0.2321	291.18	0.17
0.2494	291.2	0.17
0.2532	291.52	0.17
0.2741	291.89	0.17
0.2863	291.95	0.17
0.304	292.2	0.17
0.3399	292.15	0.17
0.3418	292.2	0.17
0.3623	292.15	0.17
0.3835	292.18	0.17
0.4078	292.15	0.17
0.4483	292.1	0.17
0.4682	292.07	0.17
0.5109	291.47	0.17
0.5386	290.88	0.17
0.5798	289.5	0.17
0.5818	289.23	0.17
0.6174	287.42	0.17
0.65	285.53	0.17
0.6637	284.38	0.17
0.6878	281.61	0.17
0.7005	280.44	0.17
0.729	277.35	0.17
0.7396	275.97	0.17

System: hexadecafluoroheptane + 1,1,7-trihydrododecafluoroheptan-1-ol; phases: Liquid mixture 1, Liquid mixture 2
Fixed: Mole fraction of 1,1,7-trihydrododecafluoroheptan-1-ol = 0.3991
Property: Liquid-liquid equilibrium temperature, K (Liquid mixture 1); method: VISOBS
Pressure, kPa	Liquid-liquid equilibrium temperature, K	uncertainty
542	291.99	0.17
890	292.02	0.17
1273	292.04	0.17
2011	292.1	0.17
2523	292.14	0.17
3240	292.19	0.17
3825	292.24	0.17
4450	292.28	0.17

System: octadecafluorooctane + 1,1,7-trihydrododecafluoroheptan-1-ol; phases: Liquid mixture 1, Liquid mixture 2
Fixed: Pressure, kPa = 101
Property: Liquid-liquid equilibrium temperature, K (Liquid mixture 1); method: VISOBS
Mole fraction of 1,1,7-trihydrododecafluoroheptan-1-ol	Liquid-liquid equilibrium temperature, K	uncertainty
0.1298	290.65	0.17
0.1416	292.53	0.17
0.1589	294.57	0.17
0.165	295.13	0.17
0.1836	296.95	0.17
0.1889	297.17	0.17
0.206	298.29	0.17
0.2246	299.18	0.17
0.2449	299.92	0.17
0.2539	300.25	0.17
0.284	300.98	0.17
0.2933	301.16	0.17
0.3027	301.29	0.17
0.3068	301.43	0.17
0.3205	301.52	0.17
0.338	301.72	0.17
0.3478	301.73	0.17
0.3643	301.8	0.17
0.3779	301.81	0.17
0.4113	301.89	0.17
0.4135	301.91	0.17
0.4256	301.93	0.17
0.4397	301.9	0.17
0.4596	301.78	0.17
0.4838	301.64	0.17
0.4864	301.65	0.17
0.5087	301.55	0.17
0.5264	301.42	0.17
0.5427	301.23	0.17
0.5582	301.08	0.17
0.6058	299.93	0.17
0.6265	299.45	0.17
0.6483	298.19	0.17
0.671	296.82	0.17
0.6991	294.77	0.17
0.7033	294.46	0.17
0.7188	293.19	0.17
0.7403	290.35	0.17
0.7616	287.11	0.17
0.8058	279.03	0.17

System: octadecafluorooctane + 1,1,7-trihydrododecafluoroheptan-1-ol; phases: Liquid mixture 1, Liquid mixture 2
Fixed: Mole fraction of 1,1,7-trihydrododecafluoroheptan-1-ol = 0.4277
Property: Liquid-liquid equilibrium temperature, K (Liquid mixture 1); method: VISOBS
Pressure, kPa	Liquid-liquid equilibrium temperature, K	uncertainty
179	301.78	0.17
535	301.82	0.17
1071	301.89	0.17
1585	301.95	0.17
2304	302.04	0.17
2757	302.08	0.17
3077	302.12	0.17
3721	302.2	0.17
4150	302.26	0.17
4425	302.3	0.17

System: 1,1,7-trihydrododecafluoroheptan-1-ol + eicosafluorononane; phases: Liquid mixture 1, Liquid mixture 2
Fixed: Pressure, kPa = 101
Property: Liquid-liquid equilibrium temperature, K (Liquid mixture 1); method: VISOBS
Mole fraction of 1,1,7-trihydrododecafluoroheptan-1-ol	Liquid-liquid equilibrium temperature, K	uncertainty
0.0827	286.03	0.17
0.1137	292.73	0.17
0.1279	295.11	0.17
0.1562	298.05	0.17
0.1864	301.03	0.17
0.2018	302.36	0.17
0.2229	303.49	0.17
0.2454	304.86	0.17
0.264	305.71	0.17
0.2862	306.26	0.17
0.3152	306.8	0.17
0.3391	307.33	0.17
0.3699	307.74	0.17
0.4125	307.78	0.17
0.4556	307.93	0.17
0.502	307.92	0.17
0.541	307.93	0.17
0.5719	307.42	0.17
0.6045	306.86	0.17
0.6467	305.75	0.17
0.6681	304.83	0.17
0.7131	301.97	0.17
0.7465	299.15	0.17
0.7625	297.11	0.17
0.8008	291.22	0.17
0.8477	279.07	0.17
0.8831	271.97	0.17

System: 1,1,7-trihydrododecafluoroheptan-1-ol + eicosafluorononane; phases: Liquid mixture 1, Liquid mixture 2
Fixed: Mole fraction of 1,1,7-trihydrododecafluoroheptan-1-ol = 0.4531
Property: Liquid-liquid equilibrium temperature, K (Liquid mixture 1); method: VISOBS
Pressure, kPa	Liquid-liquid equilibrium temperature, K	uncertainty
226	307.97	0.17
594	308.03	0.17
1160	308.14	0.17
1746	308.25	0.17
2171	308.33	0.17
2821	308.45	0.17
3339	308.54	0.17
3819	308.62	0.17
4406	308.73	0.17
