Measured thermophysical data. Measurement and correlation of the solubility of 4,4'-oxydianiline in different organic solvents
Source: Fluid Phase Equilib., 2013, 10.1016/j.fluid.2013.07.010
Compound 1: 4,4'-diaminodiphenyl ether, C12H12N2O, InChI=1S/C12H12N2O/c13-9-1-5-11(6-2-9)15-12-7-3-10(14)4-8-12/h1-8H,13-14H2, purity 99.5%
Compound 2: dimethyl sulfoxide, C2H6OS, InChI=1S/C2H6OS/c1-4(2)3/h1-2H3, purity 99.5%
Compound 3: N,N-dimethylethanamide, C4H9NO, InChI=1S/C4H9NO/c1-4(6)5(2)3/h1-3H3, purity 99.5%
Compound 4: dimethylformamide, C3H7NO, InChI=1S/C3H7NO/c1-4(2)3-5/h3H,1-2H3, purity 99.5%
Compound 5: 2-ethoxyethan-1-ol, C4H10O2, InChI=1S/C4H10O2/c1-2-6-4-3-5/h5H,2-4H2,1H3, purity 99.5%
Compound 6: methanol, CH4O, InChI=1S/CH4O/c1-2/h2H,1H3, purity 99.5%
Compound 7: ethanol, C2H6O, InChI=1S/C2H6O/c1-2-3/h3H,2H2,1H3, purity 99.5%

System: 4,4'-diaminodiphenyl ether; phases: Crystal, Liquid, Air at 1 atmosphere
Property: Normal melting temperature, K (Crystal); method: DTA
Normal melting temperature, K	uncertainty
462.67	0.39

System: 4,4'-diaminodiphenyl ether; phases: Crystal, Liquid, Air at 1 atmosphere
Property: Molar enthalpy of transition or fusion, kJ/mol (Crystal); method: DSC
Molar enthalpy of transition or fusion, kJ/mol	uncertainty
37.86	1.69

System: dimethyl sulfoxide + 4,4'-diaminodiphenyl ether; phases: Liquid, Crystal
Fixed: Pressure, kPa = 101
Property: Mole fraction of 4,4'-diaminodiphenyl ether (Liquid); method: Gravimetric
Temperature, K	Mole fraction of 4,4'-diaminodiphenyl ether	uncertainty
298.15	0.152575	0.044001
303.15	0.158583	0.044001
308.15	0.165193	0.044002
313.15	0.172145	0.044002
318.15	0.179432	0.044002
323.15	0.187111	0.044002

System: 4,4'-diaminodiphenyl ether + N,N-dimethylethanamide; phases: Liquid, Crystal
Fixed: Pressure, kPa = 101
Property: Mole fraction of 4,4'-diaminodiphenyl ether (Liquid); method: Gravimetric
Temperature, K	Mole fraction of 4,4'-diaminodiphenyl ether	uncertainty
283.15	0.133202	0.044001
288.15	0.13618	0.044001
293.15	0.139498	0.044001
298.15	0.143043	0.044001
303.15	0.146998	0.044001
308.15	0.151518	0.044001
313.15	0.156414	0.044001
318.15	0.161716	0.044001
323.15	0.167684	0.044002

System: dimethylformamide + 4,4'-diaminodiphenyl ether; phases: Liquid, Crystal
Fixed: Pressure, kPa = 101
Property: Mole fraction of 4,4'-diaminodiphenyl ether (Liquid); method: Gravimetric
Temperature, K	Mole fraction of 4,4'-diaminodiphenyl ether	uncertainty
283.15	0.104097	0.044001
288.15	0.10669	0.044001
293.15	0.110279	0.044001
298.15	0.114754	0.044001
303.15	0.119783	0.044001
308.15	0.125537	0.044001
313.15	0.131599	0.044001
318.15	0.137913	0.044001
323.15	0.144616	0.044001

System: 4,4'-diaminodiphenyl ether + 2-ethoxyethan-1-ol; phases: Liquid, Crystal
Fixed: Pressure, kPa = 101
Property: Mole fraction of 4,4'-diaminodiphenyl ether (Liquid); method: Gravimetric
Temperature, K	Mole fraction of 4,4'-diaminodiphenyl ether	uncertainty
283.15	0.027414	0.027414
288.15	0.0288	0.0288
293.15	0.030621	0.030621
298.15	0.032945	0.032945
303.15	0.035846	0.035846
308.15	0.039381	0.039381
313.15	0.043618	0.043618
318.15	0.04861	0.044
323.15	0.054409	0.044

System: methanol + 4,4'-diaminodiphenyl ether; phases: Liquid, Crystal
Fixed: Pressure, kPa = 101
Property: Mole fraction of 4,4'-diaminodiphenyl ether (Liquid); method: Gravimetric
Temperature, K	Mole fraction of 4,4'-diaminodiphenyl ether	uncertainty
283.15	0.00114	0.00114
288.15	0.001322	0.001322
293.15	0.001527	0.001527
298.15	0.001775	0.001775
303.15	0.002081	0.002081
308.15	0.002464	0.002464
313.15	0.002929	0.002929
318.15	0.003489	0.003489
323.15	0.004158	0.004158

System: ethanol + 4,4'-diaminodiphenyl ether; phases: Liquid, Crystal
Fixed: Pressure, kPa = 101
Property: Mole fraction of 4,4'-diaminodiphenyl ether (Liquid); method: Gravimetric
Temperature, K	Mole fraction of 4,4'-diaminodiphenyl ether	uncertainty
283.15	0.000434	0.000434
288.15	0.000549	0.000549
293.15	0.0007	0.0007
298.15	0.00089	0.00089
303.15	0.00113	0.00113
308.15	0.001428	0.001428
313.15	0.001764	0.001764
318.15	0.002173	0.002173
323.15	0.002704	0.002704
