Measured thermophysical data. P-x data for binary systems using a novel static total pressure apparatus
Source: Fluid Phase Equilib., 2011, 10.1016/j.fluid.2011.08.009
Compound 1: propan-1-ol, C3H8O, InChI=1S/C3H8O/c1-2-3-4/h4H,2-3H2,1H3
Compound 2: water, H2O, InChI=1S/H2O/h1H2
Compound 3: dodecane, C12H26, InChI=1S/C12H26/c1-3-5-7-9-11-12-10-8-6-4-2/h3-12H2,1-2H3
Compound 4: butan-2-ol, C4H10O, InChI=1S/C4H10O/c1-3-4(2)5/h4-5H,3H2,1-2H3
Compound 5: hexane, C6H14, InChI=1S/C6H14/c1-3-5-6-4-2/h3-6H2,1-2H3

System: propan-1-ol; phases: Liquid, Gas
Property: Vapor or sublimation pressure, kPa (Liquid); method: Closed cell (Static) method
Temperature, K	Vapor or sublimation pressure, kPa	uncertainty
313.17	6.99	0.19
342.83	31.45	0.24
352.68	49.8	0.4

System: water; phases: Liquid, Gas
Property: Vapor or sublimation pressure, kPa (Liquid); method: Closed cell (Static) method
Temperature, K	Vapor or sublimation pressure, kPa	uncertainty
313.17	7.36	0.14
323.18	12.18	0.19
342.83	30.65	0.22

System: dodecane; phases: Liquid, Gas
Property: Vapor or sublimation pressure, kPa (Liquid); method: Closed cell (Static) method
Temperature, K	Vapor or sublimation pressure, kPa	uncertainty
342.18	0.36	0.1
352.68	0.75	0.1

System: butan-2-ol; phases: Liquid, Gas
Property: Vapor or sublimation pressure, kPa (Liquid); method: Closed cell (Static) method
Temperature, K	Vapor or sublimation pressure, kPa	uncertainty
323.18	10.74	0.16
329.22	14.55	0.21
342.83	28.43	0.28
352.68	44.66	0.35

System: hexane; phases: Liquid, Gas
Property: Vapor or sublimation pressure, kPa (Liquid); method: Closed cell (Static) method
Temperature, K	Vapor or sublimation pressure, kPa	uncertainty
329.22	65.63	0.67

System: propan-1-ol + water; phases: Liquid, Gas
Fixed: Temperature, K = 313.17
Property: Vapor or sublimation pressure, kPa (Liquid); method: Closed cell (Static) method
Mole fraction of propan-1-ol	Vapor or sublimation pressure, kPa	uncertainty
0	6.99	0.13
0.038	7.86	0.15
0.085	8.65	0.15
0.124	9.15	0.15
0.14	9.35	0.15
0.186	9.84	0.15
0.232	10.28	0.15
0.283	10.63	0.15
0.326	10.83	0.16
0.359	10.93	0.16
0.441	11.21	0.16
0.497	11.28	0.16
0.529	11.2	0.16
0.596	11.38	0.16
0.641	11.41	0.16
0.691	11.31	0.16
0.748	11.25	0.16
0.817	11.35	0.16
0.857	11.35	0.16
0.91	11.17	0.16
0.959	10.36	0.26
0.969	9.83	0.27
0.974	9.52	0.3
0.984	8.85	0.31
0.991	8.32	0.34
0.997	7.82	0.28
1	7.42	0.13
1	7.36	0.13

System: butan-2-ol + hexane; phases: Liquid, Gas
Fixed: Temperature, K = 329.22
Property: Vapor or sublimation pressure, kPa (Liquid); method: Closed cell (Static) method
Mole fraction of butan-2-ol	Vapor or sublimation pressure, kPa	uncertainty
0	14.55	0.19
0.0002	15.31	0.2
0.0011	15.52	0.41
0.0019	15.84	0.64
0.0029	16.16	0.96
0.0073	17.58	1.15
0.0118	18.67	0.95
0.0297	22.75	0.84
0.0489	26.08	0.69
0.0685	28.76	0.68
0.1073	34.81	0.72
0.1482	40.95	0.66
0.2062	47.17	0.65
0.2488	51.15	0.63
0.3074	55.03	0.63
0.3991	59.44	0.65
0.5026	62.96	0.68
0.6009	66.12	0.81
0.6063	65.56	0.81
0.7132	67.4	0.7
0.8147	68.4	0.7
0.9004	68.83	0.73
0.9694	67.96	0.74
0.9801	67.46	0.76
0.9916	66.58	0.8
0.9952	66.1	0.8
0.9984	65.67	0.73
1	65.63	0.7

System: propan-1-ol + dodecane; phases: Liquid, Gas
Property: Vapor or sublimation pressure, kPa (Liquid); method: Closed cell (Static) method
Temperature, K	Mole fraction of propan-1-ol	Vapor or sublimation pressure, kPa	uncertainty
342.8	0	0.63	0.1
342.8	0.0047	1.21	0.86
342.8	0.0094	2.63	1.07
342.8	0.0156	4.13	0.74
342.8	0.0204	4.62	0.24
342.8	0.025	4.62	0.35
342.8	0.0409	6.22	0.64
342.8	0.0577	9.78	0.82
342.8	0.0757	13.24	0.62
342.8	0.0967	15.69	0.45
342.8	0.1199	17.92	0.42
342.8	0.142	19.83	0.34
342.8	0.1612	20.57	0.28
342.8	0.1836	21.52	0.27
342.8	0.2056	22.25	0.26
342.8	0.2388	23.2	0.3
342.8	0.2692	23.69	0.29
342.8	0.2971	24.31	0.3
342.8	0.3358	24.87	0.31
342.8	0.3746	25.46	0.32
342.8	0.4136	26.26	0.33
342.8	0.4481	26.35	0.33
342.8	0.4866	26.73	0.33
342.8	0.5268	27.13	0.34
342.8	0.5617	27.4	0.4
342.8	0.5952	27.57	0.34
342.8	0.6129	28.28	0.34
342.8	0.6161	27.45	0.35
342.8	0.6652	28.86	0.35
342.8	0.7197	29.04	0.34
342.8	0.7687	28.99	0.36
342.8	0.8228	29.91	0.37
342.8	0.8661	30.16	0.37
342.8	0.9096	30.31	0.37
342.8	0.9473	30.71	0.39
342.8	0.9674	30.91	0.39
342.8	0.9862	31.16	0.4
342.8	0.9919	31.4	0.4
342.8	0.9969	31.48	0.4
342.8	1	31.47	0.4
352.7	0	0.77	0.1
352.7	0.0035	1.76	1.38
352.7	0.0077	3.41	1.03
352.7	0.0147	4.73	0.81
352.7	0.0225	6.37	0.64
352.7	0.0263	6.77	0.66
352.7	0.0307	7.28	0.63
352.7	0.0326	7.67	0.62
352.7	0.04	8.86	1.18
352.7	0.0435	10.88	1.15
352.7	0.0562	14.4	0.72
352.7	0.0572	12.61	0.71
352.7	0.0685	15.28	1.11
352.7	0.0772	18.13	0.74
352.7	0.1006	21.42	0.77
352.7	0.1151	25.44	0.6
352.7	0.1382	27	0.43
352.7	0.1445	28.47	0.96
352.7	0.1763	30.3	0.32
352.7	0.2017	31.57	0.37
352.7	0.2186	33.26	0.36
352.7	0.2625	35.68	0.35
352.7	0.2812	36.26	0.33
352.7	0.3017	37.18	0.33
352.7	0.35	38.56	0.34
352.7	0.3515	38.87	0.34
352.7	0.3915	39.98	0.35
352.7	0.4235	40.77	0.35
352.7	0.4449	41.38	0.35
352.7	0.4828	41.67	0.36
352.7	0.504	42.33	0.36
352.7	0.5278	42.4	0.36
352.7	0.5738	43.14	0.36
352.7	0.6044	42.77	0.34
352.7	0.6146	43.01	0.36
352.7	0.6521	43.51	0.35
352.7	0.7069	44.35	0.37
352.7	0.76	45.52	0.39
352.7	0.8093	46.34	0.39
352.7	0.8579	47.01	0.39
352.7	0.9071	47.44	0.4
352.7	0.9572	48.73	0.42
352.7	0.9781	49.09	0.42
352.7	0.9876	49.4	0.43
352.7	0.9946	49.58	0.43
352.7	0.9976	49.61	0.42
352.7	1	49.8	0.42

System: butan-2-ol + dodecane; phases: Liquid, Gas
Property: Vapor or sublimation pressure, kPa (Liquid); method: Closed cell (Static) method
Temperature, K	Mole fraction of butan-2-ol	Vapor or sublimation pressure, kPa	uncertainty
342.7	0	0.36	0.1
342.7	0.005	0.96	0.7
342.7	0.013	2.57	0.75
342.7	0.0197	3.68	0.57
342.7	0.0342	5.59	0.54
342.7	0.0564	8.54	0.49
342.7	0.066	9.3	0.37
342.7	0.0771	10.36	0.39
342.7	0.0899	11.48	0.37
342.7	0.1032	12.58	0.29
342.7	0.119	13.3	0.27
342.7	0.1314	14.17	0.24
342.7	0.148	14.61	0.26
342.7	0.1659	15.83	0.26
342.7	0.1814	16.15	0.22
342.7	0.1965	16.6	0.25
342.7	0.2134	17.27	0.25
342.7	0.2352	17.91	0.24
342.7	0.2515	18.19	0.24
342.7	0.2715	18.82	0.24
342.7	0.2946	19.27	0.24
342.7	0.3199	19.85	0.25
342.7	0.3453	20.4	0.24
342.7	0.3743	20.87	0.25
342.7	0.4007	21.43	0.26
342.7	0.4277	21.94	0.26
342.7	0.4557	22.26	0.26
342.7	0.4855	22.65	0.27
342.7	0.5104	23.16	0.28
342.7	0.5331	23.47	0.28
342.7	0.5662	24	0.26
342.7	0.6217	24.7	0.28
342.7	0.6791	25.23	0.28
342.7	0.7297	25.64	0.3
342.7	0.7572	26.27	0.3
342.7	0.8053	26.59	0.3
342.7	0.8521	26.77	0.32
342.7	0.8991	27.69	0.33
342.7	0.952	27.91	0.34
342.7	0.9769	28.3	0.35
342.7	0.9833	28.33	0.35
342.7	0.9893	28.42	0.35
342.7	0.9939	28.48	0.35
342.7	0.9979	28.4	0.35
342.7	1	28.43	0.35
352.8	0	0.75	0.1
352.8	0.0053	1.87	0.97
352.8	0.0094	3.03	1.12
352.8	0.0146	4.46	0.83
352.8	0.0258	6.48	0.72
352.8	0.0354	8.17	0.68
352.8	0.0442	9.58	0.57
352.8	0.059	11.49	0.61
352.8	0.0789	14.72	0.58
352.8	0.0989	17.11	0.46
352.8	0.1199	19.14	0.4
352.8	0.1501	21.75	0.36
352.8	0.1825	23.95	0.33
352.8	0.2092	25.59	0.29
352.8	0.2429	27.04	0.26
352.8	0.2934	28.63	0.26
352.8	0.3366	29.89	0.27
352.8	0.3745	31.15	0.29
352.8	0.4102	32.43	0.29
352.8	0.4481	33.54	0.29
352.8	0.4818	34.07	0.29
352.8	0.5166	35.21	0.29
352.8	0.5638	35.96	0.29
352.8	0.5661	34.74	0.28
352.8	0.6382	36.95	0.29
352.8	0.7561	39.26	0.31
352.8	0.8052	40.06	0.33
352.8	0.8565	41.31	0.34
352.8	0.907	42.24	0.35
352.8	0.9487	43.4	0.37
352.8	0.9828	44.18	0.37
352.8	0.9895	44.33	0.37
352.8	0.9969	44.38	0.36
352.8	1	44.66	0.37
