Measured thermophysical data. Solubility determination and correlation of cyromazine in sixteen pure solvents and mixing properties of solutions
Source: Fluid Phase Equilib., 2018, 10.1016/j.fluid.2018.07.024
Compound 1: cyromazine, C6H10N6, InChI=1S/C6H10N6/c7-4-10-5(8)12-6(11-4)9-3-1-2-3/h3H,1-2H2,(H5,7,8,9,10,11,12), purity 98%
Compound 2: methanol, CH4O, InChI=1S/CH4O/c1-2/h2H,1H3, purity 99.9%
Compound 3: ethanol, C2H6O, InChI=1S/C2H6O/c1-2-3/h3H,2H2,1H3, purity 99.5%
Compound 4: propan-1-ol, C3H8O, InChI=1S/C3H8O/c1-2-3-4/h4H,2-3H2,1H3, purity 99%
Compound 5: butan-1-ol, C4H10O, InChI=1S/C4H10O/c1-2-3-4-5/h5H,2-4H2,1H3, purity 99.5%
Compound 6: pentan-1-ol, C5H12O, InChI=1S/C5H12O/c1-2-3-4-5-6/h6H,2-5H2,1H3, purity 99%
Compound 7: hexan-1-ol, C6H14O, InChI=1S/C6H14O/c1-2-3-4-5-6-7/h7H,2-6H2,1H3, purity 98%
Compound 8: heptan-1-ol, C7H16O, InChI=1S/C7H16O/c1-2-3-4-5-6-7-8/h8H,2-7H2,1H3, purity 99.5%
Compound 9: acetic acid, C2H4O2, InChI=1S/C2H4O2/c1-2(3)4/h1H3,(H,3,4), purity 99.5%
Compound 10: propanoic acid, C3H6O2, InChI=1S/C3H6O2/c1-2-3(4)5/h2H2,1H3,(H,4,5), purity 99.5%
Compound 11: propenoic acid, C3H4O2, InChI=1S/C3H4O2/c1-2-3(4)5/h2H,1H2,(H,4,5), purity 99%
Compound 12: propan-2-ol, C3H8O, InChI=1S/C3H8O/c1-3(2)4/h3-4H,1-2H3, purity 99.7%
Compound 13: 2-methyl-1-propanol, C4H10O, InChI=1S/C4H10O/c1-4(2)3-5/h4-5H,3H2,1-2H3, purity 98%
Compound 14: 3-methylbutan-1-ol, C5H12O, InChI=1S/C5H12O/c1-5(2)3-4-6/h5-6H,3-4H2,1-2H3, purity 98.5%
Compound 15: butan-2-ol, C4H10O, InChI=1S/C4H10O/c1-3-4(2)5/h4-5H,3H2,1-2H3, purity 99%
Compound 16: acetone, C3H6O, InChI=1S/C3H6O/c1-3(2)4/h1-2H3, purity 99.5%
Compound 17: water, H2O, InChI=1S/H2O/h1H2, purity 99.9%

System: cyromazine + methanol; phases: Liquid, Crystal
Fixed: Pressure, kPa = 101
Property: Mole fraction of cyromazine (Liquid); method: Phase equilibration
Temperature, K	Mole fraction of cyromazine	uncertainty
283.15	0.001987	0.000119
288.15	0.002244	0.000135
293.15	0.00251	0.000151
298.15	0.002788	0.000167
303.15	0.003095	0.000186
308.15	0.003437	0.000206
313.15	0.003778	0.000227
318.15	0.004157	0.00025
323.15	0.004559	0.000274

System: cyromazine + ethanol; phases: Liquid, Crystal
Fixed: Pressure, kPa = 101
Property: Mole fraction of cyromazine (Liquid); method: Phase equilibration
Temperature, K	Mole fraction of cyromazine	uncertainty
283.15	0.0009163	5.51e-05
288.15	0.001067	6.4e-05
293.15	0.001267	7.6e-05
298.15	0.001487	8.9e-05
303.15	0.001725	0.000104
308.15	0.002052	0.000123
313.15	0.00253	0.000152
318.15	0.002994	0.00018
323.15	0.003553	0.000214

System: cyromazine + propan-1-ol; phases: Liquid, Crystal
Fixed: Pressure, kPa = 101
Property: Mole fraction of cyromazine (Liquid); method: Phase equilibration
Temperature, K	Mole fraction of cyromazine	uncertainty
283.15	0.0008092	4.86e-05
288.15	0.0009265	5.57e-05
293.15	0.00113	6.8e-05
298.15	0.001356	8.2e-05
303.15	0.001629	9.8e-05
308.15	0.001913	0.000115
313.15	0.002372	0.000143
318.15	0.002812	0.000169
323.15	0.003274	0.000197

System: cyromazine + butan-1-ol; phases: Liquid, Crystal
Fixed: Pressure, kPa = 101
Property: Mole fraction of cyromazine (Liquid); method: Phase equilibration
Temperature, K	Mole fraction of cyromazine	uncertainty
283.15	0.0007302	4.39e-05
288.15	0.0008715	5.24e-05
293.15	0.001038	6.2e-05
298.15	0.001257	7.6e-05
303.15	0.001496	9e-05
308.15	0.001792	0.000108
313.15	0.002172	0.000131
318.15	0.002622	0.000158
323.15	0.003103	0.000187

System: cyromazine + pentan-1-ol; phases: Liquid, Crystal
Fixed: Pressure, kPa = 101
Property: Mole fraction of cyromazine (Liquid); method: Phase equilibration
Temperature, K	Mole fraction of cyromazine	uncertainty
283.15	0.0006713	4.04e-05
288.15	0.000818	4.92e-05
293.15	0.0009815	5.9e-05
298.15	0.00119	7.2e-05
303.15	0.001422	8.6e-05
308.15	0.001715	0.000103
313.15	0.002045	0.000123
318.15	0.002446	0.000147
323.15	0.002913	0.000175

System: cyromazine + hexan-1-ol; phases: Liquid, Crystal
Fixed: Pressure, kPa = 101
Property: Mole fraction of cyromazine (Liquid); method: Phase equilibration
Temperature, K	Mole fraction of cyromazine	uncertainty
283.15	0.0005341	3.22e-05
288.15	0.0006613	3.98e-05
293.15	0.0008157	4.91e-05
298.15	0.001002	6e-05
303.15	0.001234	7.4e-05
308.15	0.001513	9.1e-05
313.15	0.001852	0.000111
318.15	0.002265	0.000136
323.15	0.002787	0.000168

System: cyromazine + heptan-1-ol; phases: Liquid, Crystal
Fixed: Pressure, kPa = 101
Property: Mole fraction of cyromazine (Liquid); method: Phase equilibration
Temperature, K	Mole fraction of cyromazine	uncertainty
283.15	0.0002345	1.42e-05
288.15	0.0003215	1.94e-05
293.15	0.0004216	2.54e-05
298.15	0.0005562	3.35e-05
303.15	0.0007366	4.44e-05
308.15	0.0009568	5.77e-05
313.15	0.001241	7.5e-05
318.15	0.001625	9.8e-05
323.15	0.002125	0.000128

System: cyromazine + acetic acid; phases: Liquid, Crystal
Fixed: Pressure, kPa = 101
Property: Mole fraction of cyromazine (Liquid); method: Phase equilibration
Temperature, K	Mole fraction of cyromazine	uncertainty
293.15	0.01278	0.00077
298.15	0.01546	0.00093
303.15	0.01873	0.00113
308.15	0.02272	0.00137
313.15	0.02751	0.00165
318.15	0.033	0.00198
323.15	0.0395	0.00238
328.15	0.04714	0.00284
333.15	0.05624	0.00338

System: cyromazine + propanoic acid; phases: Liquid, Crystal
Fixed: Pressure, kPa = 101
Property: Mole fraction of cyromazine (Liquid); method: Phase equilibration
Temperature, K	Mole fraction of cyromazine	uncertainty
278.15	0.004722	0.000284
283.15	0.005623	0.000338
288.15	0.006974	0.00042
293.15	0.008475	0.00051
298.15	0.01015	0.00061
303.15	0.01229	0.00074
308.15	0.01478	0.00089
313.15	0.01772	0.00107
318.15	0.02121	0.00128

System: cyromazine + propenoic acid; phases: Liquid, Crystal
Fixed: Pressure, kPa = 101
Property: Mole fraction of cyromazine (Liquid); method: Phase equilibration
Temperature, K	Mole fraction of cyromazine	uncertainty
293.15	0.0341	0.00205
298.15	0.04133	0.00249
303.15	0.04921	0.00296
308.15	0.05813	0.0035
313.15	0.06825	0.0041
318.15	0.07852	0.00472
323.15	0.09001	0.00541
328.15	0.1005	0.006
333.15	0.1115	0.0067

System: cyromazine + propan-2-ol; phases: Liquid, Crystal
Fixed: Pressure, kPa = 101
Property: Mole fraction of cyromazine (Liquid); method: Phase equilibration
Temperature, K	Mole fraction of cyromazine	uncertainty
283.15	0.0004649	2.79e-05
288.15	0.0005287	3.18e-05
293.15	0.0006382	3.84e-05
298.15	0.0007513	4.52e-05
303.15	0.0009152	5.5e-05
308.15	0.001086	6.5e-05
313.15	0.001249	7.5e-05
318.15	0.001463	8.8e-05
323.15	0.001721	0.000103

System: cyromazine + 2-methyl-1-propanol; phases: Liquid, Crystal
Fixed: Pressure, kPa = 101
Property: Mole fraction of cyromazine (Liquid); method: Phase equilibration
Temperature, K	Mole fraction of cyromazine	uncertainty
283.15	0.0003963	2.39e-05
288.15	0.0004826	2.9e-05
293.15	0.0005945	3.58e-05
298.15	0.0007021	4.22e-05
303.15	0.0008402	5.05e-05
308.15	0.0009826	5.91e-05
313.15	0.001147	6.9e-05
318.15	0.001313	7.9e-05
323.15	0.001499	9e-05

System: cyromazine + 3-methylbutan-1-ol; phases: Liquid, Crystal
Fixed: Pressure, kPa = 101
Property: Mole fraction of cyromazine (Liquid); method: Phase equilibration
Temperature, K	Mole fraction of cyromazine	uncertainty
283.15	0.0004685	2.82e-05
288.15	0.0005924	3.57e-05
293.15	0.0007251	4.36e-05
298.15	0.0008696	5.23e-05
303.15	0.001039	6.3e-05
308.15	0.001266	7.6e-05
313.15	0.001484	8.9e-05
318.15	0.001797	0.000108
323.15	0.002144	0.000129

System: cyromazine + butan-2-ol; phases: Liquid, Crystal
Fixed: Pressure, kPa = 101
Property: Mole fraction of cyromazine (Liquid); method: Phase equilibration
Temperature, K	Mole fraction of cyromazine	uncertainty
283.15	0.0003013	1.82e-05
288.15	0.0003796	2.29e-05
293.15	0.0004803	2.89e-05
298.15	0.0005812	3.5e-05
303.15	0.000686	4.13e-05
308.15	0.0008463	5.09e-05
313.15	0.0009946	5.98e-05
318.15	0.001204	7.2e-05
323.15	0.001471	8.8e-05

System: cyromazine + acetone; phases: Liquid, Crystal
Fixed: Pressure, kPa = 101
Property: Mole fraction of cyromazine (Liquid); method: Phase equilibration
Temperature, K	Mole fraction of cyromazine	uncertainty
283.15	0.0004863	2.92e-05
288.15	0.0005346	3.21e-05
293.15	0.0006171	3.71e-05
298.15	0.0007102	4.27e-05
303.15	0.0008051	4.84e-05
308.15	0.0009095	5.46e-05
313.15	0.001026	6.2e-05
318.15	0.001145	6.9e-05
323.15	0.001272	7.6e-05

System: cyromazine + water; phases: Liquid, Crystal
Fixed: Pressure, kPa = 101
Property: Mole fraction of cyromazine (Liquid); method: Phase equilibration
Temperature, K	Mole fraction of cyromazine	uncertainty
283.15	0.0009311	5.6e-05
288.15	0.001078	6.5e-05
293.15	0.001245	7.5e-05
298.15	0.001438	8.6e-05
303.15	0.00166	0.0001
308.15	0.001925	0.000116
313.15	0.002208	0.000133
318.15	0.002543	0.000153
323.15	0.002928	0.000176
