Measured thermophysical data. Experiment and model for the surface tension of carbonated MEA-MDEA aqueous solutions
Source: Fluid Phase Equilib., 2013, 10.1016/j.fluid.2012.10.013
Compound 1: N-methyldiethanolamine, C5H13NO2, InChI=1S/C5H13NO2/c1-6(2-4-7)3-5-8/h7-8H,2-5H2,1H3, purity 99.5%
Compound 2: 2-aminoethan-1-ol, C2H7NO, InChI=1S/C2H7NO/c3-1-2-4/h4H,1-3H2, purity 99.4%
Compound 3: water, H2O, InChI=1S/H2O/h1H2, purity 99.9%

System: N-methyldiethanolamine + 2-aminoethan-1-ol + water; phases: Liquid, Air at 1 atmosphere
Property: Surface tension liquid-gas, N/m (Liquid); method: Drop weight
Temperature, K	Mass fraction of 2-aminoethan-1-ol	Mass fraction of N-methyldiethanolamine	Surface tension liquid-gas, N/m	uncertainty
293.15	0.05	0.15	0.06049	0.00102
293.15	0.05	0.25	0.0563	0.00102
293.15	0.05	0.35	0.05333	0.00102
293.15	0.05	0.45	0.05109	0.00102
298.15	0.05	0.15	0.05968	0.00102
298.15	0.05	0.25	0.0554	0.00102
298.15	0.05	0.35	0.0524	0.00102
298.15	0.05	0.45	0.05014	0.00102
303.15	0.05	0.15	0.0588	0.00102
303.15	0.05	0.25	0.05447	0.00102
303.15	0.05	0.35	0.05145	0.00102
303.15	0.05	0.45	0.04919	0.00102
308.15	0.05	0.15	0.05815	0.00102
308.15	0.05	0.25	0.05377	0.00102
308.15	0.05	0.35	0.05072	0.00102
308.15	0.05	0.45	0.04845	0.00102
313.15	0.05	0.15	0.057	0.00102
313.15	0.05	0.25	0.05258	0.00102
313.15	0.05	0.35	0.04952	0.00102
313.15	0.05	0.45	0.04726	0.00102
318.15	0.05	0.15	0.05612	0.00102
318.15	0.05	0.25	0.05167	0.00102
318.15	0.05	0.35	0.04859	0.00102
318.15	0.05	0.45	0.04634	0.00102
323.15	0.05	0.15	0.05526	0.00102
323.15	0.05	0.25	0.05075	0.00102
323.15	0.05	0.35	0.04764	0.00102
323.15	0.05	0.45	0.04538	0.00101
328.15	0.05	0.15	0.05449	0.00102
328.15	0.05	0.25	0.04992	0.00102
328.15	0.05	0.35	0.04678	0.00101
328.15	0.05	0.45	0.04452	0.00101
333.15	0.05	0.15	0.05345	0.00102
333.15	0.05	0.25	0.04884	0.00101
333.15	0.05	0.35	0.04568	0.00101
333.15	0.05	0.45	0.04343	0.00101
293.15	0.1	0.1	0.06167	0.00102
293.15	0.1	0.2	0.05753	0.00102
293.15	0.1	0.3	0.05458	0.00102
293.15	0.1	0.4	0.05208	0.00102
298.15	0.1	0.1	0.06088	0.00102
298.15	0.1	0.2	0.05667	0.00102
298.15	0.1	0.3	0.05367	0.00102
298.15	0.1	0.4	0.05114	0.00102
303.15	0.1	0.1	0.06002	0.00102
303.15	0.1	0.2	0.05575	0.00102
303.15	0.1	0.3	0.05274	0.00102
303.15	0.1	0.4	0.05021	0.00102
308.15	0.1	0.1	0.05939	0.00102
308.15	0.1	0.2	0.05507	0.00102
308.15	0.1	0.3	0.05203	0.00102
308.15	0.1	0.4	0.04949	0.00102
313.15	0.1	0.1	0.05825	0.00102
313.15	0.1	0.2	0.0539	0.00102
313.15	0.1	0.3	0.05084	0.00102
313.15	0.1	0.4	0.0483	0.00102
318.15	0.1	0.1	0.05739	0.00102
318.15	0.1	0.2	0.053	0.00102
318.15	0.1	0.3	0.04993	0.00102
318.15	0.1	0.4	0.04739	0.00102
323.15	0.1	0.1	0.05655	0.00102
323.15	0.1	0.2	0.0521	0.00102
323.15	0.1	0.3	0.049	0.00102
323.15	0.1	0.4	0.04645	0.00102
328.15	0.1	0.1	0.0558	0.00102
328.15	0.1	0.2	0.05129	0.00102
328.15	0.1	0.3	0.04816	0.00102
328.15	0.1	0.4	0.0456	0.00101
333.15	0.1	0.1	0.05478	0.00102
333.15	0.1	0.2	0.05023	0.00102
333.15	0.1	0.3	0.04708	0.00101
333.15	0.1	0.4	0.04452	0.00101
293.15	0.15	0.05	0.06271	0.00102
293.15	0.15	0.15	0.05859	0.00102
293.15	0.15	0.25	0.05564	0.00102
293.15	0.15	0.35	0.05295	0.00102
298.15	0.15	0.05	0.06195	0.00102
298.15	0.15	0.15	0.05775	0.00102
298.15	0.15	0.25	0.05475	0.00102
298.15	0.15	0.35	0.05203	0.00102
303.15	0.15	0.05	0.0611	0.00102
303.15	0.15	0.15	0.05685	0.00102
303.15	0.15	0.25	0.05383	0.00102
303.15	0.15	0.35	0.0511	0.00102
308.15	0.15	0.05	0.06049	0.00102
308.15	0.15	0.15	0.05618	0.00102
308.15	0.15	0.25	0.05314	0.00102
308.15	0.15	0.35	0.05039	0.00102
313.15	0.15	0.05	0.05937	0.00102
313.15	0.15	0.15	0.05502	0.00102
313.15	0.15	0.25	0.05196	0.00102
313.15	0.15	0.35	0.04921	0.00102
318.15	0.15	0.05	0.05851	0.00102
318.15	0.15	0.15	0.05413	0.00102
318.15	0.15	0.25	0.05107	0.00102
318.15	0.15	0.35	0.04831	0.00102
323.15	0.15	0.05	0.0577	0.00102
323.15	0.15	0.15	0.05325	0.00102
323.15	0.15	0.25	0.05015	0.00102
323.15	0.15	0.35	0.04738	0.00102
328.15	0.15	0.05	0.05696	0.00102
328.15	0.15	0.15	0.05246	0.00102
328.15	0.15	0.25	0.04933	0.00102
328.15	0.15	0.35	0.04655	0.00102
333.15	0.15	0.05	0.05596	0.00102
333.15	0.15	0.15	0.05141	0.00102
333.15	0.15	0.25	0.04826	0.00102
333.15	0.15	0.35	0.04547	0.00102
293.15	0.2	0	0.06365	0.00102
293.15	0.2	0.1	0.05949	0.00102
293.15	0.2	0.2	0.05654	0.00102
293.15	0.2	0.3	0.05372	0.00102
298.15	0.2	0	0.06291	0.00102
298.15	0.2	0.1	0.05867	0.00102
298.15	0.2	0.2	0.05567	0.00102
298.15	0.2	0.3	0.05282	0.00102
303.15	0.2	0	0.06207	0.00102
303.15	0.2	0.1	0.05779	0.00102
303.15	0.2	0.2	0.05476	0.00102
303.15	0.2	0.3	0.0519	0.00102
308.15	0.2	0	0.06148	0.00102
308.15	0.2	0.1	0.05714	0.00102
308.15	0.2	0.2	0.05408	0.00102
308.15	0.2	0.3	0.0512	0.00102
313.15	0.2	0	0.06036	0.00102
313.15	0.2	0.1	0.05598	0.00102
313.15	0.2	0.2	0.05292	0.00102
313.15	0.2	0.3	0.05003	0.00102
318.15	0.2	0	0.05952	0.00102
318.15	0.2	0.1	0.05511	0.00102
318.15	0.2	0.2	0.05203	0.00102
318.15	0.2	0.3	0.04913	0.00102
323.15	0.2	0	0.05872	0.00102
323.15	0.2	0.1	0.05424	0.00102
323.15	0.2	0.2	0.05113	0.00102
323.15	0.2	0.3	0.04821	0.00102
328.15	0.2	0	0.058	0.00102
328.15	0.2	0.1	0.05347	0.00102
328.15	0.2	0.2	0.05032	0.00102
328.15	0.2	0.3	0.04739	0.00102
333.15	0.2	0	0.05701	0.00102
333.15	0.2	0.1	0.05243	0.00102
333.15	0.2	0.2	0.04926	0.00102
333.15	0.2	0.3	0.04632	0.00102
