Measured thermophysical data. Phase equilibria in the systems isobutyl alcohol +N,N-dimethylformamide, isobutyl acetate +N,N-dimethylformamide and isobutyl alcohol + isobutyl acetate +N,N-dimethylformamide at 101.3 kPa
Source: Fluid Phase Equilib., 2005, 10.1016/j.fluid.2005.03.014
Compound 1: 2-methyl-1-propanol, C4H10O, InChI=1S/C4H10O/c1-4(2)3-5/h4-5H,3H2,1-2H3, purity 99.5%
Compound 2: dimethylformamide, C3H7NO, InChI=1S/C3H7NO/c1-4(2)3-5/h3H,1-2H3, purity 99.9%
Compound 3: 2-methylpropyl ethanoate, C6H12O2, InChI=1S/C6H12O2/c1-5(2)4-8-6(3)7/h5H,4H2,1-3H3, purity 99%

System: 2-methyl-1-propanol; phases: Liquid
Property: Refractive index (Na D-line) (Liquid); method: Standard Abbe refractometry
Temperature, K	Pressure, kPa	Refractive index (Na D-line)	uncertainty
298.15	101.325	1.3937	0.0007

System: 2-methyl-1-propanol; phases: Liquid
Property: Mass density, kg/m3 (Liquid); method: VIBTUB:UFactor:4
Temperature, K	Pressure, kPa	Mass density, kg/m3	uncertainty
298.15	101.325	797.83	0.61

System: dimethylformamide; phases: Liquid
Property: Refractive index (Na D-line) (Liquid); method: Standard Abbe refractometry
Temperature, K	Pressure, kPa	Refractive index (Na D-line)	uncertainty
298.15	101.325	1.4265	0.0007

System: dimethylformamide; phases: Liquid
Property: Mass density, kg/m3 (Liquid); method: VIBTUB:UFactor:4
Temperature, K	Pressure, kPa	Mass density, kg/m3	uncertainty
298.15	101.325	948.72	0.27

System: dimethylformamide; phases: Liquid, Gas
Property: Vapor or sublimation pressure, kPa (Liquid); method: EBULLIO:UFactor:16
Temperature, K	Vapor or sublimation pressure, kPa	uncertainty
345.45	6.3	0.23
350.38	7.81	0.23
354.51	9.27	0.24
359.05	11.16	0.24
362.74	12.93	0.24
366.7	15.07	0.24
370.69	17.53	0.24
374.89	20.48	0.24
379.24	23.95	0.24
382.97	27.32	0.25
386.75	31.1	0.25
390.07	34.78	0.25
393.2	38.56	0.26
396.61	43.04	0.26
399.91	47.82	0.26
403.1	52.73	0.27
405.94	57.53	0.27
408.79	62.66	0.27
411.23	67.37	0.28
413.35	71.68	0.28
415.66	76.65	0.29
417.84	81.58	0.29
419.86	86.33	0.29
421.87	91.37	0.3
423.7	96.06	0.3
425.6	101.2	0.31

System: 2-methylpropyl ethanoate; phases: Liquid
Property: Refractive index (Na D-line) (Liquid); method: Standard Abbe refractometry
Temperature, K	Pressure, kPa	Refractive index (Na D-line)	uncertainty
298.15	101.325	1.3876	0.0008

System: 2-methylpropyl ethanoate; phases: Liquid
Property: Mass density, kg/m3 (Liquid); method: VIBTUB:UFactor:4
Temperature, K	Pressure, kPa	Mass density, kg/m3	uncertainty
298.15	101.325	866.12	0.62

System: dimethylformamide + 2-methyl-1-propanol; phases: Liquid, Gas
Fixed: Pressure, kPa = 101.3
Property: Boiling temperature at pressure P, K (Liquid); method: EBULLIO:UFactor:16
Mole fraction of 2-methyl-1-propanol	Boiling temperature at pressure P, K	uncertainty
0	425.63	0.49
0.057	421.95	0.51
0.104	418.45	0.51
0.164	414.98	0.51
0.226	411.65	0.5
0.275	408.99	0.51
0.328	405.92	0.5
0.385	403.28	0.5
0.446	400.58	0.5
0.494	398.11	0.5
0.544	395.95	0.5
0.602	393.97	0.5
0.654	391.86	0.5
0.709	389.26	0.5
0.759	387.69	0.5
0.808	385.97	0.5
0.851	384.64	0.5
0.895	383.2	0.5
0.937	382.06	0.49
1	381.09	0.49

System: dimethylformamide + 2-methyl-1-propanol; phases: Gas, Liquid
Fixed: Pressure, kPa = 101.3
Property: Mole fraction of 2-methyl-1-propanol (Gas); method: CHROM:UFactor:8
Mole fraction of 2-methyl-1-propanol	Mole fraction of 2-methyl-1-propanol	uncertainty
0	0	0.001
0.057	0.149	0.012
0.104	0.258	0.02
0.164	0.385	0.029
0.226	0.49	0.037
0.275	0.567	0.032
0.328	0.639	0.027
0.385	0.705	0.022
0.446	0.758	0.018
0.494	0.8	0.015
0.544	0.836	0.012
0.602	0.864	0.01
0.654	0.891	0.008
0.709	0.924	0.006
0.759	0.941	0.005
0.808	0.956	0.004
0.851	0.969	0.003
0.895	0.979	0.003
0.937	0.988	0.002
1	1	0.001

System: dimethylformamide + 2-methylpropyl ethanoate; phases: Liquid, Gas
Fixed: Pressure, kPa = 101.3
Property: Boiling temperature at pressure P, K (Liquid); method: EBULLIO:UFactor:16
Mole fraction of 2-methylpropyl ethanoate	Boiling temperature at pressure P, K	uncertainty
0	425.63	0.49
0.016	423.84	0.54
0.043	420.74	0.53
0.077	417.59	0.52
0.122	414	0.51
0.167	410.89	0.51
0.211	408.28	0.5
0.256	406.16	0.5
0.31	403.85	0.5
0.358	402.14	0.5
0.407	400.55	0.5
0.458	399.19	0.5
0.512	397.8	0.5
0.562	396.58	0.5
0.616	395.54	0.49
0.668	394.57	0.49
0.724	393.54	0.49
0.774	392.76	0.49
0.825	391.89	0.49
0.894	391.13	0.49
1	389.9	0.49

System: dimethylformamide + 2-methylpropyl ethanoate; phases: Gas, Liquid
Fixed: Pressure, kPa = 101.3
Property: Mole fraction of 2-methylpropyl ethanoate (Gas); method: CHROM:UFactor:8
Mole fraction of 2-methylpropyl ethanoate	Mole fraction of 2-methylpropyl ethanoate	uncertainty
0	0	0.001
0.016	0.065	0.009
0.043	0.172	0.014
0.077	0.263	0.02
0.122	0.378	0.028
0.167	0.458	0.034
0.211	0.524	0.036
0.256	0.575	0.032
0.31	0.624	0.028
0.358	0.658	0.026
0.407	0.698	0.023
0.458	0.724	0.021
0.512	0.763	0.018
0.562	0.788	0.016
0.616	0.813	0.014
0.668	0.835	0.012
0.724	0.858	0.011
0.774	0.881	0.009
0.825	0.908	0.007
0.894	0.937	0.005
1	1	0.001

System: dimethylformamide + 2-methyl-1-propanol + 2-methylpropyl ethanoate; phases: Liquid, Gas
Fixed: Pressure, kPa = 101.3
Property: Mole fraction of 2-methylpropyl ethanoate (Liquid); method: CHROM:UFactor:8
Property: Mole fraction of 2-methylpropyl ethanoate (Gas); method: CHROM:UFactor:8
Property: Mole fraction of 2-methyl-1-propanol (Gas); method: CHROM:UFactor:8
Temperature, K	Mole fraction of 2-methyl-1-propanol	Mole fraction of 2-methylpropyl ethanoate	uncertainty	Mole fraction of 2-methylpropyl ethanoate	uncertainty	Mole fraction of 2-methyl-1-propanol	uncertainty
381.55	0.912	0.048	0.003	0.053	0.004	0.94	
381.78	0.612	0.356	0.022	0.328	0.024	0.66	
382.81	0.808	0.102	0.006	0.115	0.009	0.866	
383.13	0.712	0.186	0.012	0.205	0.015	0.772	
383.3	0.384	0.582	0.026	0.515	0.036	0.47	
383.81	0.502	0.4	0.025	0.394	0.029	0.576	
385.49	0.631	0.212	0.013	0.248	0.018	0.706	
385.51	0.309	0.593	0.025	0.57	0.032	0.395	
385.6	0.203	0.764	0.015	0.694	0.023	0.288	
386.18	0.389	0.445	0.028	0.472	0.035	0.477	
386.5	0.501	0.286	0.018	0.337	0.025	0.608	
387.48	0.198	0.687	0.019	0.681	0.024	0.271	
387.94	0.309	0.486	0.03	0.538	0.034	0.393	
388.14	0.7	0.037	0.003	0.059	0.005	0.884	
388.93	0.393	0.331	0.021	0.42	0.031	0.498	
389.2	0.615	0.099	0.006	0.146	0.011	0.774	
389.14	0.103	0.785	0.013	0.792	0.016	0.154	
389.35	0.053	0.88	0.007	0.879	0.009	0.083	
389.8	0.505	0.18	0.011	0.262	0.02	0.647	
390.45	0.207	0.523	0.03	0.621	0.028	0.276	
390.59	0.308	0.382	0.024	0.495	0.037	0.403	
390.9	0.103	0.686	0.02	0.759	0.018	0.144	
392.46	0.394	0.215	0.013	0.337	0.025	0.539	
392.89	0.103	0.578	0.026	0.719	0.021	0.143	
393	0.208	0.412	0.026	0.572	0.032	0.283	
393.58	0.055	0.641	0.022	0.773	0.017	0.075	
393.68	0.303	0.266	0.016	0.426	0.032	0.428	
395.03	0.104	0.471	0.029	0.672	0.025	0.147	
396.29	0.211	0.295	0.018	0.494	0.037	0.306	
396.49	0.3	0.168	0.01	0.339	0.025	0.473	
396.6	0.391	0.089	0.006	0.19	0.014	0.634	
396.67	0.484	0.032	0.003	0.068	0.005	0.756	
398.34	0.103	0.37	0.023	0.608	0.029	0.146	
398.92	0.052	0.422	0.026	0.671	0.025	0.079	
400.5	0.21	0.183	0.011	0.397	0.03	0.344	
400.69	0.099	0.262	0.016	0.558	0.033	0.163	
404.19	0.304	0.036	0.003	0.099	0.007	0.59	
405.59	0.1	0.159	0.01	0.428	0.032	0.19	
405.91	0.047	0.219	0.014	0.511	0.036	0.083	
406.17	0.209	0.077	0.005	0.217	0.016	0.404	
414.99	0.083	0.051	0.004	0.199	0.015	0.205	
419.34	0.049	0.044	0.003	0.155	0.012	0.114	
