Measured thermophysical data. Viscosity of liquid diethylene, triethylene and tetraethylene glycols at moderately high pressures using a vibrating wire instrument
Source: Fluid Phase Equilib., 2019, 10.1016/j.fluid.2018.09.026
Compound 1: diethylene glycol, C4H10O3, InChI=1S/C4H10O3/c5-1-3-7-4-2-6/h5-6H,1-4H2, purity 99%
Compound 2: triethylene glycol, C6H14O4, InChI=1S/C6H14O4/c7-1-3-9-5-6-10-4-2-8/h7-8H,1-6H2, purity 99%
Compound 3: tetraethylene glycol, C8H18O5, InChI=1S/C8H18O5/c9-1-3-11-5-7-13-8-6-12-4-2-10/h9-10H,1-8H2, purity 99%

System: diethylene glycol; phases: Liquid
Property: Mass density, kg/m3 (Liquid); method: Vibrating tube method
Temperature, K	Pressure, kPa	Mass density, kg/m3	uncertainty
283.15	100	1123.1	4.5
283.15	100	1123.1	4.5
283.15	640	1123.3	4.5
283.15	1080	1123.5	4.5
283.15	1590	1123.7	4.5
283.15	2140	1124	4.5
283.15	3050	1124.3	4.5
283.15	5050	1125.2	4.5
283.15	6930	1126	4.5
283.15	9930	1127.2	4.5
283.15	14810	1129.3	4.5
283.15	19760	1131.3	4.5
283.15	24610	1133.3	4.6
283.15	29600	1135.2	4.6
283.15	34500	1137.1	4.6
283.15	39420	1139	4.6
283.15	44300	1140.8	4.6
283.15	49180	1142.6	4.6
283.15	54060	1144.4	4.6
283.15	59030	1146.1	4.6
283.15	63810	1147.8	4.6
283.15	68760	1149.5	4.6
293.15	100	1115.9	4.5
293.15	100	1115.9	4.5
293.15	570	1116.1	4.5
293.15	1080	1116.3	4.5
293.15	1530	1116.6	4.5
293.15	2110	1116.8	4.5
293.15	3080	1117.2	4.5
293.15	5040	1118.1	4.5
293.15	6990	1118.9	4.5
293.15	9940	1120.2	4.5
293.15	14840	1122.3	4.5
293.15	19740	1124.3	4.5
293.15	24680	1126.4	4.5
293.15	29600	1128.4	4.5
293.15	34530	1130.3	4.5
293.15	39360	1132.2	4.6
293.15	44320	1134.1	4.6
293.15	49120	1136	4.6
293.15	54090	1137.8	4.6
293.15	58990	1139.6	4.6
293.15	63820	1141.3	4.6
293.15	68750	1143	4.6
303.15	100	1108.8	4.4
303.15	100	1108.8	4.4
303.15	680	1109	4.4
303.15	1130	1109.2	4.4
303.15	1580	1109.4	4.4
303.15	2120	1109.7	4.5
303.15	3030	1110.1	4.5
303.15	5040	1111	4.5
303.15	6950	1111.9	4.5
303.15	9960	1113.2	4.5
303.15	14840	1115.4	4.5
303.15	19740	1117.5	4.5
303.15	24680	1119.6	4.5
303.15	29610	1121.6	4.5
303.15	34520	1123.6	4.5
303.15	39380	1125.6	4.5
303.15	44350	1127.5	4.5
303.15	49140	1129.4	4.5
303.15	54090	1131.3	4.6
303.15	58990	1133.1	4.6
303.15	63850	1134.9	4.6
303.15	68760	1136.6	4.6
313.15	100	1101.7	4.4
313.15	100	1101.6	4.4
313.15	640	1101.8	4.4
313.15	1140	1102.1	4.4
313.15	1640	1102.3	4.4
313.15	2100	1102.5	4.4
313.15	3090	1103	4.4
313.15	5130	1103.9	4.4
313.15	6960	1104.8	4.4
313.15	9960	1106.1	4.4
313.15	14940	1108.4	4.4
313.15	19750	1110.6	4.5
313.15	24640	1112.7	4.5
313.15	29640	1114.8	4.5
313.15	34510	1116.9	4.5
313.15	39340	1118.9	4.5
313.15	44340	1120.9	4.5
313.15	49190	1123.2	4.5
313.15	54020	1124.7	4.5
313.15	59030	1126.7	4.5
313.15	63880	1128.5	4.6
313.15	68820	1130.3	4.6
323.15	100	1094.3	4.4
323.15	100	1094.3	4.4
323.15	680	1094.6	4.4
323.15	1130	1094.8	4.4
323.15	1570	1095	4.4
323.15	2100	1095.2	4.4
323.15	3080	1095.7	4.4
323.15	5080	1096.7	4.4
323.15	7000	1097.6	4.4
323.15	9950	1099	4.4
323.15	14890	1101.4	4.4
323.15	19770	1103.6	4.4
323.15	24680	1105.8	4.4
323.15	29600	1108	4.5
323.15	34530	1110.1	4.5
323.15	39360	1112.2	4.5
323.15	44290	1114.3	4.5
323.15	49260	1116.3	4.5
323.15	54100	1118.2	4.5
323.15	59060	1120.2	4.5
323.15	63880	1122	4.5
323.15	68770	1123.8	4.5
333.15	100	1087	4.4
333.15	100	1087	4.4
333.15	660	1087.3	4.4
333.15	1120	1087.5	4.4
333.15	1630	1087.8	4.4
333.15	2100	1088	4.4
333.15	3070	1088.5	4.4
333.15	5060	1089.5	4.4
333.15	7050	1090.5	4.4
333.15	9930	1091.9	4.4
333.15	14780	1094.3	4.4
333.15	19770	1096.7	4.4
333.15	24660	1099	4.4
333.15	29540	1101.2	4.4
333.15	34500	1103.4	4.4
333.15	39330	1105.5	4.4
333.15	44230	1107.6	4.5
333.15	49130	1109.7	4.5
333.15	54060	1111.7	4.5
333.15	59020	1113.7	4.5
333.15	63840	1115.7	4.5
333.15	68830	1117.5	4.5
343.15	100	1079.7	4.3
343.15	100	1079.7	4.3
343.15	670	1080	4.3
343.15	1100	1080.2	4.3
343.15	1520	1080.4	4.3
343.15	2120	1080.7	4.3
343.15	3060	1081.2	4.3
343.15	5040	1082.3	4.3
343.15	6970	1083.3	4.3
343.15	9950	1084.8	4.4
343.15	14870	1087.3	4.4
343.15	19740	1089.6	4.4
343.15	24710	1092.1	4.4
343.15	29560	1094.4	4.4
343.15	34490	1096.6	4.4
343.15	39350	1098.8	4.4
343.15	44290	1101	4.4
343.15	49180	1103.1	4.4
343.15	54070	1105.2	4.4
343.15	58980	1107.3	4.5
343.15	63910	1109.3	4.5
343.15	68720	1111.2	4.5
353.15	100	1072.2	4.3
353.15	100	1072.2	4.3
353.15	560	1072.5	4.3
353.15	1090	1072.8	4.3
353.15	1550	1073	4.3
353.15	2080	1073.3	4.3
353.15	3040	1073.8	4.3
353.15	5060	1074.9	4.3
353.15	7020	1076	4.3
353.15	9970	1077.5	4.3
353.15	14830	1080.1	4.3
353.15	19740	1082.6	4.3
353.15	24680	1085.1	4.4
353.15	29560	1087.5	4.4
353.15	34550	1089.8	4.4
353.15	39420	1092.1	4.4
353.15	44280	1094.3	4.4
353.15	49230	1096.5	4.4
353.15	54110	1098.7	4.4
353.15	59020	1100.8	4.4
353.15	64010	1102.9	4.4
353.15	68770	1104.8	4.5
363.08	100	1064.5	4.3
363.08	100	1064.4	4.3
363.08	620	1064.7	4.3
363.08	1110	1065	4.3
363.08	1570	1065.2	4.3
363.08	2100	1065.5	4.3
363.08	3020	1066	4.3
363.08	5070	1067.2	4.3
363.08	7000	1068.3	4.3
363.08	9970	1069.9	4.3
363.08	14840	1072.6	4.3
363.08	19750	1075.1	4.3
363.08	24660	1077.7	4.3
363.08	29610	1080.2	4.3
363.08	34480	1082.6	4.3
363.08	39400	1084.9	4.4
363.08	44290	1087.2	4.4
363.08	49160	1089.5	4.4
363.08	54110	1091.7	4.4
363.08	58990	1093.9	4.4
363.08	63880	1096	4.4
363.08	68760	1098	4.4

System: diethylene glycol; phases: Liquid
Property: Viscosity, Pa*s (Liquid); method: Vibrating wire viscometry
Temperature, K	Pressure, kPa	Viscosity, Pa*s	uncertainty
293.23	180	0.03468	0.00141
293.23	180	0.03435	0.0014
293.23	180	0.0346	0.00141
293.23	180	0.03467	0.00141
293.23	1170	0.03484	0.00142
293.23	1170	0.03485	0.00142
293.23	1170	0.03472	0.00141
293.23	1170	0.03479	0.00141
293.23	2100	0.03486	0.00142
293.23	2100	0.0349	0.00142
293.23	2100	0.03501	0.00142
293.23	2100	0.03521	0.00143
293.23	2100	0.03499	0.00142
293.23	2110	0.03515	0.00143
293.23	5060	0.03584	0.00146
293.23	5070	0.03572	0.00145
293.23	5060	0.03603	0.00147
293.23	5060	0.03604	0.00147
293.23	10240	0.03752	0.00153
293.23	10240	0.03731	0.00152
293.23	10240	0.03739	0.00152
293.23	10240	0.03719	0.00151
293.23	19990	0.04043	0.00164
293.23	19990	0.04054	0.00165
293.23	19990	0.04052	0.00165
293.23	19990	0.04042	0.00164
293.23	29920	0.0435	0.00177
293.23	29910	0.04347	0.00177
293.23	29910	0.04345	0.00177
293.23	29920	0.0436	0.00177
293.23	40040	0.04705	0.00191
293.23	40040	0.04712	0.00192
293.23	40040	0.04692	0.00191
293.23	40040	0.04698	0.00191
293.23	40040	0.04704	0.00191
293.23	50530	0.05071	0.00206
293.23	50530	0.05114	0.00207
293.23	50530	0.05113	0.00207
293.23	50530	0.05124	0.00208
293.23	70070	0.05852	0.00238
293.23	69990	0.05838	0.00237
293.23	69900	0.05855	0.00238
303.27	180	0.02147	0.00095
303.27	180	0.02144	0.00095
303.27	180	0.02143	0.00095
303.27	190	0.02149	0.00095
303.27	180	0.02152	0.00095
303.27	180	0.02141	0.00095
303.27	180	0.02144	0.00095
303.27	180	0.02144	0.00095
303.27	1070	0.02142	0.00087
303.27	1080	0.02142	0.00087
303.27	1080	0.0215	0.00088
303.27	1080	0.02148	0.00088
303.27	2100	0.02172	0.00089
303.27	2100	0.02169	0.00088
303.27	5160	0.02214	0.0009
303.27	5160	0.02235	0.00091
303.27	5160	0.02213	0.0009
303.27	5170	0.02208	0.0009
303.27	10180	0.02297	0.00094
303.27	10190	0.02305	0.00094
303.27	10190	0.0232	0.00095
303.27	10190	0.023	0.00094
303.27	20040	0.0247	0.00101
303.27	20040	0.02505	0.00102
303.27	20040	0.02487	0.00101
303.27	30920	0.02683	0.00109
303.27	30920	0.02673	0.00109
303.27	30920	0.02685	0.00109
303.27	30920	0.02677	0.00109
303.27	30920	0.02669	0.00109
303.27	30920	0.02673	0.00109
303.27	40100	0.0284	0.00116
303.27	40100	0.02864	0.00117
303.27	40100	0.02834	0.00116
303.27	40100	0.02849	0.00116
303.27	40100	0.0285	0.00116
303.27	50070	0.03049	0.00124
303.27	50060	0.03059	0.00125
303.27	50050	0.03052	0.00125
303.27	50050	0.03043	0.00124
303.27	50040	0.0304	0.00124
303.27	69090	0.03481	0.00189
303.27	69030	0.03474	0.00187
303.27	68920	0.03455	0.00191
303.27	68860	0.03435	0.00187
313.38	200	0.01425	0.00063
313.38	200	0.01424	0.00063
313.38	200	0.01426	0.00063
313.38	200	0.01424	0.00063
313.38	210	0.01422	0.00063
313.38	210	0.0142	0.00063
313.38	210	0.01424	0.00063
313.38	210	0.01427	0.00064
313.38	210	0.01427	0.00064
313.38	210	0.01423	0.00063
313.38	1180	0.01433	0.00058
313.38	1170	0.01427	0.00058
313.38	1170	0.01427	0.00058
313.38	1170	0.01428	0.00058
313.38	2310	0.0145	0.00059
313.38	2320	0.01438	0.00058
313.38	2300	0.01428	0.00058
313.38	5060	0.01469	0.0006
313.38	5060	0.01472	0.0006
313.38	5070	0.01463	0.00059
313.38	5070	0.01465	0.00059
313.38	5080	0.01464	0.00059
313.38	10300	0.0152	0.00062
313.38	10290	0.01513	0.00061
313.38	10280	0.01526	0.00062
313.38	10280	0.01526	0.00062
313.38	20110	0.01616	0.00066
313.38	20110	0.01617	0.00066
313.38	20100	0.01633	0.00066
313.38	30110	0.01727	0.0007
313.38	30110	0.01734	0.0007
313.38	30110	0.01733	0.0007
313.38	40110	0.01844	0.00075
313.38	40110	0.0185	0.00075
313.38	40110	0.01849	0.00075
313.38	40110	0.01849	0.00075
313.38	40110	0.01853	0.00075
313.38	50110	0.01966	0.0008
313.38	50110	0.01968	0.0008
313.38	50120	0.01964	0.0008
313.38	50130	0.01961	0.0008
313.38	69580	0.02198	0.00089
313.38	69530	0.02204	0.0009
313.38	69490	0.02211	0.0009
333.28	210	0.00726	0.000316
333.28	210	0.007268	0.000317
333.28	210	0.007309	0.000319
333.28	210	0.007323	0.00032
333.28	210	0.007305	0.000319
333.28	210	0.007265	0.000316
333.28	1080	0.007347	0.000299
333.28	1080	0.007376	0.0003
333.28	1080	0.007374	0.0003
333.28	2290	0.007394	0.000301
333.28	2290	0.007367	0.0003
333.28	2290	0.007418	0.000302
333.28	2290	0.007361	0.0003
333.28	2290	0.007397	0.000301
333.28	2290	0.00744	0.000303
333.28	5100	0.007491	0.000305
333.28	5110	0.007506	0.000306
333.28	5110	0.007492	0.000305
333.28	5120	0.00753	0.000307
333.28	5120	0.007547	0.000307
333.28	10360	0.007749	0.000316
333.28	10360	0.007734	0.000315
333.28	10340	0.007758	0.000316
333.28	10340	0.007739	0.000315
333.28	19960	0.008228	0.000335
333.28	19960	0.008182	0.000333
333.28	19960	0.008173	0.000333
333.28	19960	0.008176	0.000333
333.28	19960	0.008178	0.000333
333.28	30160	0.008678	0.000354
333.28	30160	0.008671	0.000353
333.28	30150	0.008721	0.000355
333.28	30150	0.008673	0.000353
333.28	40010	0.009192	0.000375
333.28	40010	0.009199	0.000375
333.28	40010	0.009178	0.000374
333.28	40000	0.009197	0.000375
333.28	50250	0.009728	0.000396
333.28	50260	0.009736	0.000397
333.28	50250	0.009806	0.0004
333.28	69180	0.0108	0.00051
333.28	69100	0.01077	0.00051
333.28	68880	0.01071	0.00051
342.75	260	0.005588	0.000232
342.75	260	0.005573	0.000231
342.75	250	0.005567	0.000231
342.75	250	0.005585	0.000232
342.75	250	0.005609	0.000233
342.75	250	0.005567	0.000231
342.75	1040	0.00565	0.000229
342.75	1040	0.005639	0.000229
342.75	1040	0.005634	0.000229
342.75	1040	0.005596	0.000227
342.75	1040	0.005621	0.000228
342.75	2130	0.005624	0.000228
342.75	2130	0.005673	0.00023
342.75	2130	0.005675	0.00023
342.75	2130	0.005634	0.000229
342.75	2130	0.005655	0.00023
342.75	5010	0.00577	0.000234
342.75	5020	0.005764	0.000234
342.75	5020	0.005765	0.000234
342.75	10000	0.005925	0.00024
342.75	9990	0.0059	0.000239
342.75	9990	0.005894	0.000239
342.75	9990	0.005912	0.00024
342.75	20280	0.006256	0.000254
342.75	20280	0.006268	0.000254
342.75	20270	0.006257	0.000254
342.75	20270	0.006245	0.000253
342.75	30150	0.006648	0.00027
342.75	30150	0.006616	0.000269
342.75	30150	0.006641	0.00027
342.75	30150	0.006662	0.00027
342.75	30150	0.006622	0.000269
342.75	30150	0.006603	0.000268
342.75	39700	0.006991	0.000284
342.75	39710	0.006946	0.000282
342.75	39690	0.006989	0.000284
342.75	39710	0.006939	0.000282
342.75	39710	0.006957	0.000282
342.75	50090	0.007318	0.000297
342.75	50090	0.007305	0.000296
342.75	50090	0.00735	0.000298
342.75	50090	0.007306	0.000297
342.75	50090	0.00736	0.000299
342.75	50090	0.007319	0.000297
342.75	70510	0.008177	0.000332
342.75	70500	0.008131	0.00033
342.75	70480	0.008152	0.000331
342.75	70460	0.008145	0.000331
342.75	70450	0.008148	0.000331
342.75	70440	0.008133	0.00033
362.81	230	0.003462	0.000141
362.81	230	0.003451	0.00014
362.81	230	0.003458	0.000141
362.81	230	0.003439	0.00014
362.81	240	0.003444	0.00014
362.81	1070	0.003462	0.000141
362.81	1070	0.003462	0.000141
362.81	1070	0.003469	0.000141
362.81	2190	0.003473	0.000141
362.81	2190	0.003514	0.000143
362.81	2190	0.003458	0.000141
362.81	5080	0.003546	0.000144
362.81	5080	0.003552	0.000145
362.81	5080	0.003534	0.000144
362.81	5080	0.00355	0.000144
362.81	5080	0.003543	0.000144
362.81	9970	0.003659	0.000149
362.81	9970	0.003652	0.000149
362.81	9970	0.003631	0.000148
362.81	9970	0.003648	0.000148
362.81	20050	0.003862	0.000157
362.81	20050	0.00382	0.000155
362.81	20050	0.003837	0.000156
362.81	20040	0.003834	0.000156
362.81	30210	0.004007	0.000163
362.81	30200	0.004039	0.000164
362.81	40250	0.004205	0.000171
362.81	40250	0.004242	0.000173
362.81	40240	0.004264	0.000173
362.81	40240	0.004237	0.000172
362.81	50110	0.00447	0.000182
362.81	50110	0.004453	0.000181
362.81	50100	0.004435	0.00018
362.81	70020	0.004924	0.0002
362.81	70000	0.004894	0.000199
362.81	69950	0.004913	0.0002
362.81	69940	0.004921	0.0002

System: triethylene glycol; phases: Liquid
Property: Mass density, kg/m3 (Liquid); method: Vibrating tube method
Temperature, K	Pressure, kPa	Mass density, kg/m3	uncertainty
283.15	100	1130.8	4.5
283.15	100	1130.8	4.5
283.15	660	1131	4.5
283.15	1150	1131.2	4.5
283.15	1570	1131.4	4.5
283.15	2090	1131.6	4.5
283.15	3090	1132	4.5
283.15	5060	1132.9	4.5
283.15	6940	1133.6	4.5
283.15	10020	1134.9	4.6
283.15	14850	1136.9	4.6
283.15	19830	1138.9	4.6
283.15	24700	1140.8	4.6
283.15	29600	1142.7	4.6
283.15	34510	1144.6	4.6
283.15	39360	1146.4	4.6
283.15	44290	1148.2	4.6
283.15	49180	1150	4.6
283.15	54110	1151.7	4.6
283.15	58970	1153.4	4.7
283.15	63860	1155.1	4.7
283.15	68790	1156.8	4.7
293.15	100	1122.9	4.5
293.15	100	1122.9	4.5
293.15	640	1123.1	4.5
293.15	1090	1123.4	4.5
293.15	1600	1123.6	4.5
293.15	2140	1123.8	4.5
293.15	3080	1124.2	4.5
293.15	5030	1125.1	4.5
293.15	7010	1125.9	4.5
293.15	9950	1127.2	4.5
293.15	14850	1129.3	4.5
293.15	19770	1131.3	4.5
293.15	24660	1133.3	4.6
293.15	29510	1135.2	4.6
293.15	34610	1137.2	4.6
293.15	39370	1139.1	4.6
293.15	44320	1141	4.6
293.15	49130	1142.8	4.6
293.15	54050	1144.6	4.6
293.15	59060	1146.4	4.6
293.15	63780	1148	4.6
303.15	100	1115.2	4.5
303.15	100	1115.1	4.5
303.15	630	1115.4	4.5
303.15	1130	1115.6	4.5
303.15	1620	1115.9	4.5
303.15	2140	1116.1	4.5
303.15	3070	1116.5	4.5
303.15	5080	1117.4	4.5
303.15	6960	1118.3	4.5
303.15	9960	1119.6	4.5
303.15	14840	1121.7	4.5
303.15	19750	1123.8	4.5
303.15	24670	1125.9	4.5
303.15	29570	1127.9	4.5
303.15	34500	1129.9	4.5
303.15	39360	1131.9	4.6
303.15	44300	1133.8	4.6
303.15	49190	1135.7	4.6
303.15	54090	1137.6	4.6
303.15	58850	1139.3	4.6
303.15	63890	1141.2	4.6
303.15	68750	1142.9	4.6
313.15	100	1107.4	4.4
313.15	100	1107.4	4.4
313.15	670	1107.6	4.4
313.15	1130	1107.9	4.4
313.15	1600	1108.1	4.4
313.15	2080	1108.3	4.4
313.15	3100	1108.8	4.4
313.15	5030	1109.7	4.5
313.15	7010	1110.6	4.5
313.15	10010	1112	4.5
313.15	14880	1114.2	4.5
313.15	19750	1116.4	4.5
313.15	24680	1118.6	4.5
313.15	29560	1120.6	4.5
313.15	34510	1122.7	4.5
313.15	39330	1124.7	4.5
313.15	44290	1126.7	4.5
313.15	49180	1128.6	4.5
313.15	54160	1130.6	4.6
313.15	59000	1132.4	4.6
313.15	63910	1134.3	4.6
313.15	68840	1136	4.6
323.15	100	1099.6	4.4
323.15	100	1099.5	4.4
323.15	590	1099.8	4.4
323.15	1140	1100	4.4
323.15	1600	1100.3	4.4
323.15	2080	1100.5	4.4
323.15	3020	1101	4.4
323.15	5050	1101.9	4.4
323.15	7000	1102.9	4.4
323.15	9970	1104.3	4.4
323.15	14870	1106.7	4.4
323.15	19780	1108.9	4.5
323.15	24700	1111.2	4.5
323.15	29650	1113.3	4.5
323.15	34470	1115.4	4.5
323.15	39340	1117.5	4.5
323.15	44250	1119.6	4.5
323.15	49170	1121.6	4.5
323.15	54080	1123.5	4.5
323.15	58970	1125.5	4.5
323.15	63800	1127.3	4.5
323.15	68780	1129.2	4.6
333.15	100	1091.7	4.4
333.15	100	1091.7	4.4
333.15	660	1092	4.4
333.15	1110	1092.2	4.4
333.15	1600	1092.5	4.4
333.15	2100	1092.7	4.4
333.15	3070	1093.2	4.4
333.15	5060	1094.2	4.4
333.15	6980	1095.2	4.4
333.15	9970	1096.6	4.4
333.15	14840	1099	4.4
333.15	19660	1101.3	4.4
333.15	24670	1103.7	4.4
333.15	29610	1106	4.4
333.15	34530	1108.2	4.5
333.15	39400	1110.3	4.5
333.15	44280	1112.5	4.5
333.15	49110	1114.5	4.5
333.15	54040	1116.5	4.5
333.15	59060	1118.6	4.5
333.15	63830	1120.5	4.5
333.15	68770	1122.4	4.5
343.15	100	1083.9	4.3
343.15	100	1083.9	4.3
343.15	640	1084.2	4.3
343.15	1120	1084.4	4.3
343.15	1600	1084.7	4.3
343.15	2110	1084.9	4.4
343.15	3040	1085.5	4.4
343.15	5040	1086.6	4.4
343.15	6960	1087.5	4.4
343.15	9920	1089	4.4
343.15	14810	1091.6	4.4
343.15	19680	1093.9	4.4
343.15	24620	1096.4	4.4
343.15	29580	1098.7	4.4
343.15	34460	1101	4.4
343.15	39370	1103.3	4.4
343.15	44240	1105.4	4.4
343.15	49160	1107.6	4.5
343.15	54020	1109.7	4.5
343.15	58940	1111.7	4.5
343.15	63890	1113.8	4.5
343.15	68680	1115.7	4.5
353.15	100	1076	4.3
353.15	100	1076	4.3
353.15	650	1076.3	4.3
353.15	1100	1076.5	4.3
353.15	1550	1076.7	4.3
353.15	2100	1077.1	4.3
353.15	3050	1077.6	4.3
353.15	5040	1078.6	4.3
353.15	7010	1079.8	4.3
353.15	9960	1081.3	4.3
353.15	14810	1084	4.3
353.15	19780	1086.5	4.4
353.15	24610	1089	4.4
353.15	29560	1091.9	4.4
353.15	34450	1093.8	4.4
353.15	39370	1096.1	4.4
353.15	44270	1098.4	4.4
353.15	49200	1100.6	4.4
353.15	54090	1102.8	4.4
353.15	59010	1104.9	4.4
353.15	63820	1107	4.5
353.15	68800	1109	4.5
363.15	100	1068.1	4.3
363.15	100	1068	4.3
363.15	660	1068.4	4.3
363.15	1120	1068.7	4.3
363.15	1560	1068.9	4.3
363.15	2130	1069.2	4.3
363.15	3050	1069.8	4.3
363.15	5090	1070.9	4.3
363.15	6990	1072	4.3
363.15	9980	1073.7	4.3
363.15	14880	1076.4	4.3
363.15	19680	1079	4.3
363.15	24720	1081.7	4.3
363.15	29630	1084.2	4.4
363.15	34490	1086.6	4.4
363.15	39430	1089	4.4
363.15	44200	1091.4	4.4
363.15	49240	1093.7	4.4
363.15	54100	1095.9	4.4
363.15	59010	1098.1	4.4
363.15	63880	1100.2	4.4
363.15	68830	1102.3	4.4

System: triethylene glycol; phases: Liquid
Property: Viscosity, Pa*s (Liquid); method: Vibrating wire viscometry
Temperature, K	Pressure, kPa	Viscosity, Pa*s	uncertainty
293.35	240	0.04683	0.00191
293.35	240	0.04682	0.00191
293.35	240	0.04654	0.00191
293.35	240	0.04687	0.00191
293.35	1240	0.04746	0.00193
293.35	1240	0.04721	0.00192
293.35	1240	0.04742	0.00193
293.35	1230	0.04749	0.00193
293.35	1200	0.04773	0.00194
293.35	1160	0.04782	0.00195
293.35	2170	0.04809	0.00196
293.35	2200	0.0479	0.00195
293.35	2220	0.04744	0.00193
293.35	2270	0.04758	0.00194
293.35	5040	0.04942	0.00201
293.35	5030	0.04923	0.002
293.35	5010	0.04943	0.00201
293.35	10530	0.05162	0.00209
293.35	10520	0.05172	0.0021
293.35	10540	0.05126	0.00208
293.35	10630	0.0515	0.00209
293.35	10620	0.05134	0.00208
293.35	20180	0.05636	0.00229
293.35	20210	0.05639	0.00229
293.35	20210	0.05629	0.00228
293.35	20210	0.05671	0.0023
293.35	29660	0.06145	0.0025
293.35	29650	0.06122	0.00249
293.35	63230	0.08204	0.00435
293.35	62810	0.08171	0.00433
293.35	62400	0.08101	0.0043
303	190	0.02883	0.00125
303	190	0.02909	0.00126
303	190	0.02902	0.00126
303	190	0.02888	0.00125
303	190	0.02878	0.00125
303	340	0.02902	0.0013
303	330	0.0285	0.00127
303	330	0.02908	0.0013
303	1220	0.02935	0.0012
303	1220	0.02962	0.00121
303	1210	0.02906	0.00119
303	2020	0.02929	0.0012
303	2030	0.02932	0.0012
303	2100	0.02931	0.0012
303	2150	0.02915	0.00119
303	2000	0.0294	0.0012
303	5280	0.03031	0.00124
303	5270	0.03007	0.00123
303	5250	0.03007	0.00123
303	10220	0.03149	0.00128
303	10220	0.03152	0.00129
303	10210	0.03152	0.00129
303	10190	0.03165	0.00129
303	10170	0.03141	0.00128
303	10160	0.03163	0.00129
303	20290	0.0342	0.0014
303	20300	0.03425	0.0014
303	20320	0.03432	0.0014
303	20330	0.03425	0.0014
303	20330	0.0343	0.0014
303	30260	0.03703	0.00151
303	30260	0.03715	0.00152
303	30270	0.037	0.00151
303	30260	0.03736	0.00152
303	50660	0.04363	0.00177
303	50590	0.04357	0.00177
303	50510	0.04339	0.00176
303	66350	0.04926	0.002
303	65190	0.04895	0.00199
303	64010	0.04791	0.00208
313.26	170	0.01884	0.00121
313.26	170	0.01862	0.00118
313.26	170	0.01866	0.00118
313.26	170	0.01862	0.00118
313.26	170	0.01868	0.00119
313.26	510	0.01897	0.00078
313.26	510	0.01884	0.00077
313.26	510	0.01884	0.00077
313.26	510	0.01873	0.00077
313.26	520	0.01883	0.00077
313.26	930	0.01889	0.00122
313.26	930	0.01877	0.00121
313.26	930	0.01888	0.00122
313.26	930	0.01896	0.00122
313.26	930	0.01879	0.00121
313.26	930	0.01896	0.00122
313.26	930	0.01885	0.00122
313.26	4470	0.01949	0.00079
313.26	4470	0.01951	0.00079
313.26	4470	0.01952	0.00079
313.26	4470	0.01953	0.00079
313.26	4460	0.01945	0.00079
313.26	9670	0.0202	0.00082
313.26	9670	0.02018	0.00082
313.26	9660	0.02002	0.00081
313.26	19990	0.02169	0.00088
313.26	19980	0.02207	0.0009
313.26	19980	0.02192	0.00089
313.26	29410	0.0233	0.0018
313.26	29400	0.0234	0.00177
313.26	29400	0.02328	0.00179
313.26	29570	0.02318	0.00173
313.26	29550	0.02354	0.00096
313.26	29540	0.02353	0.00096
313.26	29530	0.02321	0.00094
313.26	49950	0.02689	0.00109
313.26	49920	0.02722	0.00111
313.26	49830	0.02718	0.0011
313.26	49800	0.02684	0.00109
313.26	66900	0.03018	0.00134
313.26	65380	0.03008	0.00122
313.26	64840	0.0303	0.00161
313.26	64360	0.02973	0.0022
333.21	150	0.009284	0.000451
333.21	150	0.009306	0.000454
333.21	150	0.0093	0.000453
333.21	150	0.009343	0.000457
333.21	170	0.009264	0.000459
333.21	170	0.009339	0.000466
333.21	170	0.009365	0.000469
333.21	170	0.009251	0.000458
333.21	170	0.009327	0.000465
333.21	170	0.009352	0.000468
333.21	170	0.009364	0.000469
333.21	760	0.009422	0.000397
333.21	750	0.009338	0.000394
333.21	760	0.009347	0.000394
333.21	790	0.009383	0.000395
333.21	1460	0.009386	0.000385
333.21	1470	0.009379	0.000385
333.21	1470	0.009375	0.000385
333.21	1470	0.009363	0.000385
333.21	1460	0.009437	0.000385
333.21	1460	0.009379	0.000385
333.21	1460	0.009376	0.000384
333.21	5030	0.009613	0.000392
333.21	4990	0.009704	0.000395
333.21	4980	0.009595	0.000391
333.21	4980	0.009684	0.000395
333.21	4930	0.00961	0.000392
333.21	4940	0.009609	0.000392
333.21	4950	0.009611	0.000392
333.21	4950	0.009655	0.000393
333.21	4950	0.009594	0.000391
333.21	4970	0.009688	0.000395
333.21	4970	0.009672	0.000394
333.21	4950	0.009682	0.000395
333.21	4940	0.009653	0.000393
333.21	9720	0.009986	0.000407
333.21	9700	0.009918	0.000404
333.21	9690	0.009942	0.000405
333.21	9690	0.009978	0.000407
333.21	9680	0.009927	0.000405
333.21	9620	0.00996	0.000406
333.21	9620	0.009899	0.000403
333.21	9610	0.01002	0.00041
333.21	20940	0.01078	0.00044
333.21	20940	0.01079	0.00044
333.21	20930	0.01079	0.00044
333.21	20900	0.01078	0.00044
333.21	29520	0.01149	0.00064
333.21	29490	0.01136	0.00064
333.21	29460	0.01134	0.00064
333.21	29450	0.01136	0.00063
333.21	29770	0.01142	0.00075
333.21	29760	0.01147	0.00075
333.21	29740	0.01135	0.00075
333.21	29730	0.01135	0.00075
333.21	29220	0.01136	0.00065
333.21	29410	0.01132	0.00062
333.21	29400	0.01132	0.00062
333.21	29370	0.01148	0.00068
333.21	29290	0.01128	0.00068
333.21	29260	0.01137	0.00066
333.21	37490	0.01207	0.00049
333.21	37430	0.01199	0.00049
333.21	37260	0.01204	0.00049
333.21	37210	0.01194	0.00049
333.21	38270	0.01205	0.00049
333.21	38150	0.01206	0.00049
333.21	38020	0.01213	0.00049
333.21	48280	0.01276	0.00056
333.21	48010	0.01275	0.00056
333.21	47910	0.01277	0.00056
333.21	49730	0.01291	0.00056
333.21	49700	0.01296	0.00057
333.21	49670	0.01299	0.00057
333.21	49640	0.01301	0.00057
333.21	49590	0.01291	0.00057
333.21	69650	0.01474	0.00063
333.21	69130	0.01452	0.00063
333.21	68790	0.01461	0.00066
343.08	200	0.006978	0.000292
343.08	200	0.006969	0.000292
343.08	200	0.006931	0.00029
343.08	1160	0.006959	0.000282
343.08	1160	0.006951	0.000282
343.08	1160	0.006981	0.000283
343.08	1160	0.006971	0.000283
343.08	4890	0.007185	0.000292
343.08	4900	0.007179	0.000291
343.08	4900	0.007239	0.000294
343.08	4900	0.007214	0.000293
343.08	9770	0.007403	0.0003
343.08	9760	0.007403	0.0003
343.08	9750	0.007392	0.0003
343.08	20600	0.00808	0.000328
343.08	20590	0.008036	0.000326
343.08	20590	0.007937	0.000322
343.08	20580	0.008071	0.000328
343.08	20580	0.007965	0.000323
343.08	30390	0.008519	0.000346
343.08	30350	0.008469	0.000344
343.08	30350	0.008515	0.000346
343.08	30350	0.008474	0.000344
343.08	30330	0.008459	0.000343
343.08	39640	0.009065	0.000368
343.08	39590	0.009055	0.000367
343.08	39560	0.008994	0.000365
343.08	50570	0.009608	0.000471
343.08	50470	0.009572	0.000388
343.08	50420	0.009687	0.000393
343.08	50360	0.009671	0.000473
343.08	67870	0.01063	0.00049
343.08	67540	0.01064	0.00047
343.08	67230	0.01062	0.00048
362.88	190	0.004249	0.000173
362.88	190	0.004236	0.000172
362.88	190	0.004251	0.000173
362.88	190	0.004241	0.000173
362.88	190	0.004251	0.000173
362.88	190	0.004243	0.000173
362.88	190	0.004247	0.000173
362.88	190	0.00425	0.000173
362.88	1270	0.004265	0.000174
362.88	1270	0.004262	0.000173
362.88	1270	0.004269	0.000174
362.88	1270	0.004266	0.000174
362.88	1270	0.004274	0.000174
362.88	1270	0.00427	0.000174
362.88	1270	0.00428	0.000174
362.88	1270	0.004277	0.000174
362.88	1270	0.004269	0.000174
362.88	2000	0.004299	0.000175
362.88	2000	0.004306	0.000175
362.88	1990	0.004308	0.000175
362.88	2000	0.004292	0.000175
362.88	1990	0.004283	0.000174
362.88	1990	0.004311	0.000176
362.88	2000	0.004269	0.000174
362.88	2000	0.00429	0.000175
362.88	4990	0.00437	0.000178
362.88	4990	0.0044	0.000179
362.88	4990	0.004385	0.000178
362.88	5000	0.004396	0.000179
362.88	5000	0.004394	0.000179
362.88	5000	0.004386	0.000178
362.88	4990	0.004388	0.000179
362.88	4990	0.004388	0.000179
362.88	10020	0.004524	0.000184
362.88	10020	0.004525	0.000184
362.88	10020	0.004518	0.000184
362.88	10020	0.004508	0.000183
362.88	10010	0.00454	0.000185
362.88	10010	0.004522	0.000184
362.88	10010	0.004512	0.000184
362.88	19840	0.004789	0.000195
362.88	19830	0.004792	0.000195
362.88	19830	0.004786	0.000195
362.88	19830	0.004794	0.000195
362.88	19820	0.004812	0.000196
362.88	19820	0.004812	0.000196
362.88	29790	0.005109	0.000208
362.88	29780	0.005088	0.000207
362.88	29770	0.005089	0.000207
362.88	29760	0.005092	0.000207
362.88	39330	0.005395	0.00022
362.88	39070	0.005395	0.00022
362.88	39060	0.005382	0.000219
362.88	39050	0.00539	0.000219
362.88	39030	0.005381	0.000219
362.88	50430	0.005763	0.000234
362.88	50380	0.005739	0.000233
362.88	50300	0.005756	0.000234
362.88	50260	0.005754	0.000234
362.88	50130	0.005747	0.000234
362.88	67980	0.006382	0.000261
362.88	67660	0.006331	0.000258
362.88	67370	0.006356	0.000259

System: tetraethylene glycol; phases: Liquid
Property: Mass density, kg/m3 (Liquid); method: Vibrating tube method
Temperature, K	Pressure, kPa	Mass density, kg/m3	uncertainty
283.15	100	1130.1	4.5
283.15	100	1130.1	4.5
283.15	630	1130.3	4.5
283.15	1170	1130.2	4.5
283.15	1640	1130.8	4.6
283.15	2110	1131	4.5
283.15	3060	1131.4	4.5
283.15	5060	1132.2	4.5
283.15	7000	1133.1	4.5
283.15	9990	1134.3	4.6
283.15	14800	1136.3	4.6
283.15	19770	1138.4	4.6
283.15	24630	1140.4	4.6
283.15	29550	1142.3	4.6
283.15	34530	1144.2	4.6
283.15	39370	1146.1	4.6
283.15	44340	1147.9	4.6
283.15	49210	1149.7	4.6
283.15	54130	1151.5	4.6
283.15	59040	1153.3	4.7
283.15	63940	1155	4.7
283.15	68790	1156.7	4.7
293.15	100	1122	4.5
293.15	100	1122	4.5
293.15	570	1122.2	4.5
293.15	1090	1122.4	4.5
293.15	1480	1122.6	4.5
293.15	2030	1122.8	4.5
293.15	3030	1123.3	4.5
293.15	5050	1124.2	4.5
293.15	7090	1125.1	4.5
293.15	9890	1126.3	4.5
293.15	14910	1128.5	4.5
293.15	19720	1130.5	4.5
293.15	24600	1132.6	4.6
293.15	29670	1134.6	4.6
293.15	34600	1136.6	4.6
293.15	39380	1138.5	4.6
293.15	44310	1140.4	4.6
293.15	49240	1142.3	4.6
293.15	54080	1144.1	4.6
293.15	58950	1145.9	4.6
293.15	63910	1147.7	4.6
293.15	68760	1149.4	4.6
303.15	100	1114	4.5
303.15	100	1114	4.5
303.15	630	1114.2	4.5
303.15	1200	1114.5	4.5
303.15	1610	1114.7	4.5
303.15	2120	1114.9	4.5
303.15	3090	1115.4	4.5
303.15	5080	1116.3	4.5
303.15	7050	1117.2	4.5
303.15	10000	1118.5	4.5
303.15	14920	1120.8	4.5
303.15	19740	1122.9	4.5
303.15	24580	1125	4.5
303.15	29520	1127.1	4.5
303.15	34410	1129.1	4.5
303.15	39420	1131.2	4.6
303.15	44270	1133.1	4.6
303.15	49210	1135.1	4.6
303.15	54140	1136.9	4.6
303.15	59090	1138.8	4.6
303.15	63880	1140.6	4.6
303.15	68800	1142.4	4.6
313.15	100	1106	4.4
313.15	100	1106	4.4
313.15	570	1106.3	4.4
313.15	1110	1106.5	4.4
313.15	1570	1106.7	4.4
313.15	2100	1107	4.4
313.15	3080	1107.5	4.4
313.15	5070	1108.4	4.4
313.15	7000	1109.4	4.5
313.15	9960	1110.7	4.5
313.15	14830	1113	4.5
313.15	19730	1115.2	4.5
313.15	24720	1117.5	4.5
313.15	29640	1119.6	4.5
313.15	34400	1121.8	4.5
313.15	39380	1123.8	4.5
313.15	44210	1125.9	4.5
313.15	49240	1127.8	4.5
313.15	54040	1129.8	4.6
313.15	59030	1131.7	4.6
313.15	63920	1133.6	4.6
313.15	68770	1135.4	4.6
323.15	100	1098	4.4
323.15	100	1098	4.4
323.15	590	1098.3	4.4
323.15	1180	1098.5	4.4
323.15	1580	1098.8	4.4
323.15	2100	1099	4.4
323.15	3000	1099.5	4.4
323.15	5060	1100.5	4.4
323.15	7010	1101.5	4.4
323.15	9930	1102.9	4.4
323.15	14900	1105.3	4.4
323.15	19770	1107.6	4.4
323.15	24760	1110	4.5
323.15	29530	1112.1	4.5
323.15	34470	1114.4	4.5
323.15	39440	1116.5	4.5
323.15	44180	1118.6	4.5
323.15	49200	1120.6	4.5
323.15	54100	1122.7	4.5
323.15	58970	1124.6	4.5
323.15	63800	1126.5	4.5
323.15	68790	1128.4	4.6
333.15	100	1090.1	4.4
333.15	100	1090.1	4.4
333.15	660	1090.4	4.4
333.15	1170	1090.6	4.4
333.15	1590	1090.8	4.4
333.15	2110	1091.1	4.4
333.15	3020	1091.6	4.4
333.15	5110	1092.7	4.4
333.15	6990	1093.7	4.4
333.15	9900	1095.1	4.4
333.15	14860	1097.7	4.4
333.15	19730	1100	4.4
333.15	23990	1102.6	4.4
333.15	29600	1104.7	4.4
333.15	34450	1107.1	4.4
333.15	39370	1109.2	4.5
333.15	44310	1111.5	4.5
333.15	49120	1113.5	4.5
333.15	54060	1115.6	4.5
333.15	59100	1117.7	4.5
333.15	63900	1119.7	4.5
333.15	68790	1121.6	4.5
343.15	100	1082.1	4.3
343.15	100	1082.1	4.3
343.15	720	1082.5	4.3
343.15	1090	1082.7	4.3
343.15	1600	1082.9	4.3
343.15	2060	1083.2	4.3
343.15	3100	1083.7	4.3
343.15	5040	1084.8	4.4
343.15	6870	1085.8	4.4
343.15	9930	1087.4	4.4
343.15	14830	1090	4.4
343.15	19790	1092.5	4.4
343.15	24630	1095	4.4
343.15	29580	1097.4	4.4
343.15	34440	1099.7	4.4
343.15	39430	1102.1	4.4
343.15	44410	1104.4	4.4
343.15	49170	1106.5	4.5
343.15	54160	1108.6	4.5
343.15	58970	1110.7	4.5
343.15	63920	1112.8	4.5
343.15	68720	1114.7	4.5
353.15	100	1074.1	4.3
353.15	100	1074.1	4.3
353.15	560	1074.4	4.3
353.15	1190	1074.7	4.3
353.15	1660	1075	4.3
353.15	2160	1075.3	4.3
353.15	3100	1075.8	4.3
353.15	5040	1076.9	4.3
353.15	6910	1078	4.3
353.15	10040	1079.7	4.3
353.15	14770	1082.3	4.3
353.15	19790	1085	4.4
353.15	24570	1087.5	4.4
353.15	29460	1090	4.4
353.15	34560	1092.5	4.4
353.15	39340	1094.8	4.4
353.15	44310	1097.2	4.4
353.15	49190	1099.5	4.4
353.15	54020	1101.6	4.4
353.15	59160	1103.9	4.4
353.15	63870	1106	4.5
353.15	68800	1108	4.5
363.15	100	1066.1	4.3
363.15	100	1066.1	4.3
363.15	650	1066.5	4.3
363.15	1150	1066.7	4.3
363.15	1550	1067	4.3
363.15	2070	1067.2	4.3
363.15	3090	1067.9	4.3
363.15	5060	1069	4.3
363.15	7010	1070.2	4.3
363.15	9860	1071.8	4.3
363.15	14820	1074.7	4.3
363.15	19750	1077.4	4.3
363.15	24740	1080.1	4.3
363.15	29560	1082.6	4.3
363.15	34540	1085.2	4.4
363.15	39360	1087.6	4.4
363.15	44280	1090.1	4.4
363.15	49130	1092.3	4.4
363.15	54040	1094.7	4.4
363.15	59030	1097	4.4
363.15	63900	1099.1	4.4
363.15	68810	1101.6	4.4

System: tetraethylene glycol; phases: Liquid
Property: Viscosity, Pa*s (Liquid); method: Vibrating wire viscometry
Temperature, K	Pressure, kPa	Viscosity, Pa*s	uncertainty
293.33	140	0.05776	0.00234
293.33	140	0.05729	0.00232
293.33	140	0.0574	0.00232
293.33	850	0.05759	0.00233
293.33	870	0.05757	0.00233
293.33	870	0.05786	0.00234
293.33	1090	0.05781	0.00235
293.33	1080	0.05778	0.00234
293.33	1080	0.05785	0.00235
293.33	1080	0.0578	0.00235
293.33	1070	0.05814	0.00239
293.33	2170	0.05864	0.00238
293.33	2170	0.05937	0.00242
293.33	2180	0.05903	0.0024
293.33	2180	0.059	0.0024
293.33	2190	0.05903	0.0024
293.33	9880	0.06327	0.00257
293.33	9880	0.06347	0.00258
293.33	9880	0.06328	0.00257
293.33	9870	0.06332	0.00257
293.33	14960	0.06722	0.00274
293.33	14950	0.06738	0.00275
293.33	14950	0.06734	0.00274
293.33	14950	0.06739	0.00275
293.33	20000	0.07023	0.0037
293.33	20000	0.07049	0.00371
293.33	20000	0.07089	0.00373
293.33	20000	0.07036	0.0037
293.33	19990	0.07054	0.00371
293.33	19990	0.07044	0.00371
293.33	30230	0.07785	0.00411
293.33	30210	0.07832	0.00414
293.33	30190	0.07807	0.00412
293.33	30180	0.07802	0.00412
293.33	50570	0.0944	0.00503
293.33	50570	0.09471	0.00505
293.33	50560	0.09477	0.00505
293.33	50550	0.09479	0.00505
293.33	50550	0.09466	0.00505
293.33	70400	0.1151	0.0062
293.33	70300	0.1153	0.0062
293.33	70270	0.1146	0.0062
293.33	70200	0.1141	0.0062
293.33	70170	0.1141	0.0062
312.78	150	0.02198	0.0025
312.78	150	0.02198	0.0025
312.78	150	0.02209	0.00252
312.78	700	0.02214	0.00093
312.78	700	0.02213	0.00093
312.78	1220	0.02249	0.00098
312.78	1220	0.02232	0.00097
312.78	1220	0.02244	0.00098
312.78	1960	0.02258	0.00215
312.78	1950	0.02263	0.00218
312.78	1950	0.02255	0.00218
312.78	1940	0.0225	0.0022
312.78	1940	0.02245	0.0022
312.78	1930	0.0225	0.00223
312.78	1930	0.02254	0.00223
312.78	1910	0.02246	0.00228
312.78	1910	0.02252	0.00228
312.78	1900	0.02251	0.0023
312.78	1900	0.02258	0.00231
312.78	1890	0.02255	0.00233
312.78	1890	0.02258	0.00233
312.78	1890	0.02252	0.00233
312.78	5290	0.02322	0.00096
312.78	5290	0.02334	0.00096
312.78	5290	0.02331	0.00096
312.78	5280	0.02319	0.00096
312.78	5280	0.02319	0.00096
312.78	7910	0.02369	0.001
312.78	7910	0.02377	0.00101
312.78	7900	0.02376	0.00101
312.78	7890	0.02372	0.00101
312.78	7890	0.02379	0.00101
312.78	7880	0.0238	0.00101
312.78	7950	0.0238	0.00101
312.78	7950	0.02381	0.00101
312.78	7940	0.02375	0.00101
312.78	7940	0.02377	0.00101
312.78	7930	0.0237	0.001
312.78	7930	0.02366	0.001
312.78	10550	0.02432	0.001
312.78	10550	0.02416	0.00099
312.78	10540	0.02424	0.00099
312.78	10530	0.02437	0.001
312.78	10590	0.02417	0.00099
312.78	10590	0.02418	0.00099
312.78	10590	0.02424	0.00099
312.78	10580	0.02419	0.00099
312.78	10580	0.02425	0.00099
312.78	10570	0.02437	0.001
312.78	15160	0.02522	0.00103
312.78	15150	0.02511	0.00103
312.78	15200	0.02515	0.00103
312.78	20150	0.02638	0.00847
312.78	20130	0.0265	0.00823
312.78	20110	0.02649	0.00792
312.78	20100	0.02649	0.00774
312.78	20090	0.02631	0.00776
312.78	20090	0.02647	0.00776
312.78	20320	0.02642	0.00774
312.78	20310	0.02656	0.00776
312.78	20260	0.02654	0.00966
312.78	20240	0.02645	0.00108
312.78	29960	0.02843	0.00116
312.78	29940	0.02824	0.00115
312.78	50180	0.03343	0.00137
312.78	50170	0.03356	0.00137
312.78	50170	0.03332	0.00136
312.78	50160	0.03344	0.00137
312.78	50170	0.0334	0.00137
312.78	50180	0.03335	0.00137
312.78	50190	0.03362	0.00138
312.78	70060	0.03898	0.00639
312.78	69890	0.03883	0.00562
312.78	69840	0.03901	0.00639
312.78	69790	0.03897	0.006
312.78	69740	0.03893	0.00574
312.78	69930	0.03899	0.00569
312.78	69810	0.03904	0.00619
312.78	69710	0.03917	0.0055
312.78	70060	0.03898	0.00639
312.78	70130	0.03914	0.00684
312.78	69990	0.039	0.0058
312.78	69910	0.03902	0.00565
312.78	69860	0.03909	0.00651
312.78	69750	0.03888	0.0058
333.18	210	0.01052	0.00138
333.18	230	0.01058	0.00148
333.18	230	0.01049	0.00147
333.18	230	0.0105	0.00147
333.18	230	0.0105	0.00147
333.18	590	0.01054	0.00043
333.18	590	0.01055	0.00043
333.18	590	0.01058	0.00043
333.18	590	0.01055	0.00043
333.18	590	0.01055	0.00043
333.18	590	0.01053	0.00043
333.18	580	0.01053	0.00043
333.18	580	0.01056	0.00043
333.18	1210	0.01061	0.00043
333.18	1210	0.01063	0.00043
333.18	1210	0.01059	0.00043
333.18	1210	0.01062	0.00043
333.18	1210	0.01062	0.00043
333.18	1210	0.01059	0.00043
333.18	1990	0.01066	0.00044
333.18	1990	0.01066	0.00044
333.18	1990	0.01065	0.00044
333.18	1990	0.01068	0.00044
333.18	1990	0.01067	0.00044
333.18	2000	0.01065	0.00044
333.18	2000	0.01069	0.00044
333.18	2000	0.01064	0.00044
333.18	5100	0.01091	0.00044
333.18	5110	0.01089	0.00044
333.18	5110	0.01089	0.00044
333.18	5120	0.01095	0.00045
333.18	5130	0.0109	0.00044
333.18	5130	0.01092	0.00044
333.18	5130	0.0109	0.00044
333.18	9270	0.01134	0.0006
333.18	9260	0.01129	0.0006
333.18	9260	0.01134	0.0006
333.18	9250	0.01128	0.0006
333.18	9250	0.01135	0.0006
333.18	9270	0.01133	0.0006
333.18	8820	0.01128	0.0005
333.18	8820	0.01124	0.00049
333.18	8820	0.01131	0.00051
333.18	8820	0.01124	0.00049
333.18	8820	0.01126	0.0005
333.18	8820	0.01129	0.0005
333.18	8820	0.01126	0.0005
333.18	8820	0.0113	0.0005
333.18	8810	0.01119	0.00047
333.18	10450	0.01136	0.00046
333.18	10450	0.01139	0.00046
333.18	10450	0.01143	0.00047
333.18	10450	0.0114	0.00046
333.18	10450	0.01148	0.00047
333.18	10450	0.01139	0.00046
333.18	10450	0.01139	0.00046
333.18	10450	0.0114	0.00046
333.18	14520	0.01187	0.00048
333.18	14520	0.01177	0.00048
333.18	14510	0.01182	0.00048
333.18	14510	0.01185	0.00048
333.18	14510	0.0118	0.00048
333.18	14510	0.01183	0.00048
333.18	14500	0.01177	0.00048
333.18	14500	0.01186	0.00048
333.18	20000	0.01237	0.0005
333.18	19980	0.01233	0.0005
333.18	19970	0.01238	0.0005
333.18	19960	0.0123	0.0005
333.18	19950	0.0123	0.0005
333.18	19940	0.01233	0.0005
333.18	29790	0.01344	0.0016
333.18	29350	0.01324	0.00159
333.18	29330	0.01327	0.00152
333.18	29280	0.01324	0.0014
333.18	29260	0.01321	0.00136
333.18	29240	0.01321	0.00132
333.18	29210	0.01327	0.00125
333.18	50440	0.01538	0.00063
333.18	50400	0.01536	0.00062
333.18	50390	0.01542	0.00063
333.18	50380	0.01545	0.00063
333.18	50360	0.01539	0.00063
333.18	50350	0.01538	0.00063
333.18	71260	0.01788	0.00073
333.18	71160	0.0179	0.00073
333.18	71140	0.0179	0.00073
362.6	200	0.004755	0.000194
362.6	200	0.004776	0.000195
362.6	210	0.004774	0.000195
362.6	220	0.004782	0.000195
362.6	210	0.004772	0.000195
362.6	210	0.004776	0.000195
362.6	210	0.004759	0.000194
362.6	210	0.004771	0.000195
362.6	570	0.004774	0.000195
362.6	560	0.004777	0.000195
362.6	560	0.004783	0.000195
362.6	560	0.004781	0.000195
362.6	560	0.004793	0.000195
362.6	560	0.004786	0.000195
362.6	550	0.004755	0.000194
362.6	550	0.004773	0.000195
362.6	550	0.004788	0.000195
362.6	1370	0.004809	0.000196
362.6	1380	0.004833	0.000212
362.6	1370	0.004792	0.000195
362.6	1370	0.004804	0.000196
362.6	1380	0.004837	0.000212
362.6	1380	0.004846	0.000212
362.6	2190	0.004862	0.000198
362.6	2200	0.004875	0.000199
362.6	2260	0.004836	0.000197
362.6	2260	0.004816	0.000196
362.6	2260	0.004825	0.000197
362.6	2260	0.004835	0.000197
362.6	2260	0.004841	0.000197
362.6	2260	0.004829	0.000197
362.6	6020	0.005015	0.000204
362.6	6020	0.005023	0.000205
362.6	6020	0.005021	0.000205
362.6	6020	0.005019	0.000205
362.6	6020	0.004987	0.000203
362.6	6010	0.004989	0.000203
362.6	10540	0.005137	0.000209
362.6	10550	0.005149	0.00021
362.6	10550	0.005165	0.00021
362.6	10550	0.005187	0.000211
362.6	10550	0.005143	0.00021
362.6	10550	0.005166	0.000211
362.6	15110	0.005316	0.000217
362.6	15110	0.005318	0.000217
362.6	15110	0.005336	0.000218
362.6	15110	0.005318	0.000217
362.6	15110	0.005326	0.000217
362.6	15100	0.00533	0.000217
362.6	19840	0.00552	0.000225
362.6	19840	0.005478	0.000223
362.6	19840	0.0055	0.000224
362.6	19840	0.005522	0.000225
362.6	19840	0.005526	0.000225
362.6	29730	0.005921	0.000241
362.6	29720	0.00591	0.000241
362.6	29720	0.005933	0.000242
362.6	29720	0.005941	0.000242
362.6	29720	0.005968	0.000243
362.6	29720	0.005933	0.000242
362.6	29710	0.005931	0.000242
362.6	50180	0.006768	0.000276
362.6	70450	0.007826	0.000319
362.6	70430	0.007826	0.000319
362.6	70380	0.007821	0.000319
362.6	70370	0.007804	0.000318
