Measured thermophysical data. Critical temperatures and pressures of caprolactam, dimethyl sulfoxide, 1,4-dimethylpiperazine, and 2,6-dimethylpiperazine
Source: Fluid Phase Equilib., 2018, 10.1016/j.fluid.2018.05.029
Compound 1: 1-aza-2-cycloheptanone, C6H11NO, InChI=1S/C6H11NO/c8-6-4-2-1-3-5-7-6/h1-5H2,(H,7,8), purity 99.99%
Compound 2: dimethyl sulfoxide, C2H6OS, InChI=1S/C2H6OS/c1-4(2)3/h1-2H3, purity 99.9%
Compound 3: 1,4-dimethylpiperazine, C6H14N2, InChI=1S/C6H14N2/c1-7-3-5-8(2)6-4-7/h3-6H2,1-2H3, purity 99.9%
Compound 4: 2,6-dimethylpiperazine, C6H14N2, InChI=1S/C6H14N2/c1-5-3-7-4-6(2)8-5/h5-8H,3-4H2,1-2H3, purity 99.8%

System: 1-aza-2-cycloheptanone; phases: Liquid, Gas
Property: Critical temperature, K (Liquid); method: Resistive pulse heating
Critical temperature, K	uncertainty
801	8

System: 1-aza-2-cycloheptanone; phases: Liquid, Gas
Property: Critical pressure, kPa (Liquid); method: Resistive pulse heating
Critical pressure, kPa	uncertainty
4660	140

System: dimethyl sulfoxide; phases: Liquid, Gas
Property: Critical temperature, K (Liquid); method: Resistive pulse heating
Critical temperature, K	uncertainty
718	7

System: dimethyl sulfoxide; phases: Liquid, Gas
Property: Critical pressure, kPa (Liquid); method: Resistive pulse heating
Critical pressure, kPa	uncertainty
5130	160

System: 1,4-dimethylpiperazine; phases: Liquid, Gas
Property: Critical temperature, K (Liquid); method: Resistive pulse heating
Critical temperature, K	uncertainty
606	6

System: 1,4-dimethylpiperazine; phases: Liquid, Gas
Property: Critical pressure, kPa (Liquid); method: Resistive pulse heating
Critical pressure, kPa	uncertainty
3730	120

System: 2,6-dimethylpiperazine; phases: Liquid, Gas
Property: Critical temperature, K (Liquid); method: Resistive pulse heating
Critical temperature, K	uncertainty
646	6

System: 2,6-dimethylpiperazine; phases: Liquid, Gas
Property: Critical pressure, kPa (Liquid); method: Resistive pulse heating
Critical pressure, kPa	uncertainty
3800	120
