Measured thermophysical data. Activity coefficients at infinite dilution measurements for organic solutes  in the ionic liquid N-butyl-4-methylpyridinium tosylate using  GLC at T = (328.15, 333.15, 338.15, and 343.15)K
Source: Fluid Phase Equilib., 2009, 10.1016/j.fluid.2008.10.008
Compound 1: pentane, C5H12, InChI=1S/C5H12/c1-3-5-4-2/h3-5H2,1-2H3
Compound 2: hexane, C6H14, InChI=1S/C6H14/c1-3-5-6-4-2/h3-6H2,1-2H3
Compound 3: heptane, C7H16, InChI=1S/C7H16/c1-3-5-7-6-4-2/h3-7H2,1-2H3
Compound 4: octane, C8H18, InChI=1S/C8H18/c1-3-5-7-8-6-4-2/h3-8H2,1-2H3
Compound 5: cyclopentane, C5H10, InChI=1S/C5H10/c1-2-4-5-3-1/h1-5H2
Compound 6: cyclohexane, C6H12, InChI=1S/C6H12/c1-2-4-6-5-3-1/h1-6H2
Compound 7: cycloheptane, C7H14, InChI=1S/C7H14/c1-2-4-6-7-5-3-1/h1-7H2
Compound 8: cyclooctane, C8H16, InChI=1S/C8H16/c1-2-4-6-8-7-5-3-1/h1-8H2
Compound 9: 1-pentene, C5H10, InChI=1S/C5H10/c1-3-5-4-2/h3H,1,4-5H2,2H3
Compound 10: hex-1-ene, C6H12, InChI=1S/C6H12/c1-3-5-6-4-2/h3H,1,4-6H2,2H3
Compound 11: 1-heptene, C7H14, InChI=1S/C7H14/c1-3-5-7-6-4-2/h3H,1,4-7H2,2H3
Compound 12: oct-1-ene, C8H16, InChI=1S/C8H16/c1-3-5-7-8-6-4-2/h3H,1,4-8H2,2H3
Compound 13: 1-pentyne, C5H8, InChI=1S/C5H8/c1-3-5-4-2/h1H,4-5H2,2H3
Compound 14: 1-hexyne, C6H10, InChI=1S/C6H10/c1-3-5-6-4-2/h1H,4-6H2,2H3
Compound 15: 1-heptyne, C7H12, InChI=1S/C7H12/c1-3-5-7-6-4-2/h1H,4-7H2,2H3
Compound 16: 1-octyne, C8H14, InChI=1S/C8H14/c1-3-5-7-8-6-4-2/h1H,4-8H2,2H3
Compound 17: benzene, C6H6, InChI=1S/C6H6/c1-2-4-6-5-3-1/h1-6H
Compound 18: methanol, CH4O, InChI=1S/CH4O/c1-2/h2H,1H3
Compound 19: ethanol, C2H6O, InChI=1S/C2H6O/c1-2-3/h3H,2H2,1H3
Compound 20: N-butyl-4-methylpyridinium tosylate, C17H23NO3S, InChI=1S/C10H16N.C7H8O3S/c1-3-4-7-11-8-5-10(2)6-9-11;1-6-2-4-7(5-3-6)11(8,9)10/h5-6,8-9H,3-4,7H2,1-2H3;2-5H,1H3,(H,8,9,10)/q+1;/p-1, purity 98%

System: pentane + N-butyl-4-methylpyridinium tosylate; phases: Liquid
Fixed: Pressure, kPa = 101
Fixed: Mole fraction of pentane = 0
Property: Activity coefficient of pentane (Liquid); method: Chromatography
Temperature, K	Activity coefficient of pentane	uncertainty
328.15	27.6	1.9
333.15	27.5	1.9
338.15	27.7	1.9
343.15	27.3	1.9

System: pentane + N-butyl-4-methylpyridinium tosylate; phases: Liquid
Fixed: Pressure, kPa = 101
Fixed: Mole fraction of pentane = 0
Property: Activity coefficient of pentane (Liquid); method: Chromatography
Temperature, K	Activity coefficient of pentane	uncertainty
328.15	28.7	2
333.15	27.8	1.9
338.15	27.8	1.9
343.15	27.4	1.9

System: hexane + N-butyl-4-methylpyridinium tosylate; phases: Liquid
Fixed: Pressure, kPa = 101
Fixed: Mole fraction of hexane = 0
Property: Activity coefficient of hexane (Liquid); method: Chromatography
Temperature, K	Activity coefficient of hexane	uncertainty
328.15	37.3	1.7
333.15	37.2	1.7
338.15	36	1.7
343.15	36.9	1.7

System: hexane + N-butyl-4-methylpyridinium tosylate; phases: Liquid
Fixed: Pressure, kPa = 101
Fixed: Mole fraction of hexane = 0
Property: Activity coefficient of hexane (Liquid); method: Chromatography
Temperature, K	Activity coefficient of hexane	uncertainty
328.15	38.9	1.8
333.15	37.2	1.7
338.15	36	1.7
343.15	37.1	1.7

System: heptane + N-butyl-4-methylpyridinium tosylate; phases: Liquid
Fixed: Pressure, kPa = 101
Fixed: Mole fraction of heptane = 0
Property: Activity coefficient of heptane (Liquid); method: Chromatography
Temperature, K	Activity coefficient of heptane	uncertainty
328.15	53	2.5
333.15	51.8	2.4
338.15	50.6	2.4
343.15	49.3	2.3

System: heptane + N-butyl-4-methylpyridinium tosylate; phases: Liquid
Fixed: Pressure, kPa = 101
Fixed: Mole fraction of heptane = 0
Property: Activity coefficient of heptane (Liquid); method: Chromatography
Temperature, K	Activity coefficient of heptane	uncertainty
328.15	55	2.6
333.15	51	2.4
338.15	50.4	2.4
343.15	49.5	2.3

System: octane + N-butyl-4-methylpyridinium tosylate; phases: Liquid
Fixed: Pressure, kPa = 101
Fixed: Mole fraction of octane = 0
Property: Activity coefficient of octane (Liquid); method: Chromatography
Temperature, K	Activity coefficient of octane	uncertainty
328.15	71.6	3.4
333.15	71.3	3.3
338.15	67.8	3.2
343.15	68.7	3.2

System: octane + N-butyl-4-methylpyridinium tosylate; phases: Liquid
Fixed: Pressure, kPa = 101
Fixed: Mole fraction of octane = 0
Property: Activity coefficient of octane (Liquid); method: Chromatography
Temperature, K	Activity coefficient of octane	uncertainty
328.15	75.8	3.5
333.15	70.6	3.3
338.15	68.4	3.2
343.15	68.9	3.2

System: cyclopentane + N-butyl-4-methylpyridinium tosylate; phases: Liquid
Fixed: Pressure, kPa = 101
Fixed: Mole fraction of cyclopentane = 0
Property: Activity coefficient of cyclopentane (Liquid); method: Chromatography
Temperature, K	Activity coefficient of cyclopentane	uncertainty
328.15	12.5	0.6
333.15	12.8	0.6
338.15	12	0.6
343.15	11.7	0.5

System: cyclopentane + N-butyl-4-methylpyridinium tosylate; phases: Liquid
Fixed: Pressure, kPa = 101
Fixed: Mole fraction of cyclopentane = 0
Property: Activity coefficient of cyclopentane (Liquid); method: Chromatography
Temperature, K	Activity coefficient of cyclopentane	uncertainty
328.15	13.6	0.6
333.15	12.4	0.6
338.15	11.7	0.5
343.15	11.9	0.6

System: cyclohexane + N-butyl-4-methylpyridinium tosylate; phases: Liquid
Fixed: Pressure, kPa = 101
Fixed: Mole fraction of cyclohexane = 0
Property: Activity coefficient of cyclohexane (Liquid); method: Chromatography
Temperature, K	Activity coefficient of cyclohexane	uncertainty
328.15	18.6	0.9
333.15	18	0.8
338.15	17.5	0.8
343.15	16.9	0.8

System: cyclohexane + N-butyl-4-methylpyridinium tosylate; phases: Liquid
Fixed: Pressure, kPa = 101
Fixed: Mole fraction of cyclohexane = 0
Property: Activity coefficient of cyclohexane (Liquid); method: Chromatography
Temperature, K	Activity coefficient of cyclohexane	uncertainty
328.15	20.6	1
333.15	18.1	0.8
338.15	17.5	0.8
343.15	17	0.8

System: cycloheptane + N-butyl-4-methylpyridinium tosylate; phases: Liquid
Fixed: Pressure, kPa = 101
Fixed: Mole fraction of cycloheptane = 0
Property: Activity coefficient of cycloheptane (Liquid); method: Chromatography
Temperature, K	Activity coefficient of cycloheptane	uncertainty
328.15	21.2	1
333.15	20.8	1
338.15	20	0.9
343.15	19.8	0.9

System: cycloheptane + N-butyl-4-methylpyridinium tosylate; phases: Liquid
Fixed: Pressure, kPa = 101
Fixed: Mole fraction of cycloheptane = 0
Property: Activity coefficient of cycloheptane (Liquid); method: Chromatography
Temperature, K	Activity coefficient of cycloheptane	uncertainty
328.15	23.4	1.1
333.15	20.8	1
338.15	20	0.9
343.15	19.9	0.9

System: cyclooctane + N-butyl-4-methylpyridinium tosylate; phases: Liquid
Fixed: Pressure, kPa = 101
Fixed: Mole fraction of cyclooctane = 0
Property: Activity coefficient of cyclooctane (Liquid); method: Chromatography
Temperature, K	Activity coefficient of cyclooctane	uncertainty
328.15	26.2	1.2
333.15	25.2	1.2
338.15	23.7	1.1
343.15	23.6	1.1

System: cyclooctane + N-butyl-4-methylpyridinium tosylate; phases: Liquid
Fixed: Pressure, kPa = 101
Fixed: Mole fraction of cyclooctane = 0
Property: Activity coefficient of cyclooctane (Liquid); method: Chromatography
Temperature, K	Activity coefficient of cyclooctane	uncertainty
328.15	28.4	1.3
333.15	25	1.2
338.15	24.6	1.1
343.15	24.5	1.1

System: 1-pentene + N-butyl-4-methylpyridinium tosylate; phases: Liquid
Fixed: Pressure, kPa = 101
Fixed: Mole fraction of 1-pentene = 0
Property: Activity coefficient of 1-pentene (Liquid); method: Chromatography
Temperature, K	Activity coefficient of 1-pentene	uncertainty
328.15	16.8	0.8
333.15	16.1	0.7
338.15	15.3	0.7
343.15	15.7	0.7

System: 1-pentene + N-butyl-4-methylpyridinium tosylate; phases: Liquid
Fixed: Pressure, kPa = 101
Fixed: Mole fraction of 1-pentene = 0
Property: Activity coefficient of 1-pentene (Liquid); method: Chromatography
Temperature, K	Activity coefficient of 1-pentene	uncertainty
328.15	15.3	0.7
333.15	14.8	0.7
338.15	15.5	0.7
343.15	14.2	0.7

System: hex-1-ene + N-butyl-4-methylpyridinium tosylate; phases: Liquid
Fixed: Pressure, kPa = 101
Fixed: Mole fraction of hex-1-ene = 0
Property: Activity coefficient of hex-1-ene (Liquid); method: Chromatography
Temperature, K	Activity coefficient of hex-1-ene	uncertainty
328.15	21.2	1
333.15	20.7	1
338.15	20.3	0.9
343.15	20	0.9

System: hex-1-ene + N-butyl-4-methylpyridinium tosylate; phases: Liquid
Fixed: Pressure, kPa = 101
Fixed: Mole fraction of hex-1-ene = 0
Property: Activity coefficient of hex-1-ene (Liquid); method: Chromatography
Temperature, K	Activity coefficient of hex-1-ene	uncertainty
328.15	21.1	1
333.15	20.1	0.9
338.15	19.5	0.9
343.15	20.1	0.9

System: 1-heptene + N-butyl-4-methylpyridinium tosylate; phases: Liquid
Fixed: Pressure, kPa = 101
Fixed: Mole fraction of 1-heptene = 0
Property: Activity coefficient of 1-heptene (Liquid); method: Chromatography
Temperature, K	Activity coefficient of 1-heptene	uncertainty
328.15	28.7	1.3
333.15	29.5	1.4
338.15	27.2	1.3
343.15	28	1.3

System: 1-heptene + N-butyl-4-methylpyridinium tosylate; phases: Liquid
Fixed: Pressure, kPa = 101
Fixed: Mole fraction of 1-heptene = 0
Property: Activity coefficient of 1-heptene (Liquid); method: Chromatography
Temperature, K	Activity coefficient of 1-heptene	uncertainty
328.15	29.2	1.4
333.15	28.2	1.3
338.15	27.9	1.3
343.15	27.5	1.3

System: oct-1-ene + N-butyl-4-methylpyridinium tosylate; phases: Liquid
Fixed: Pressure, kPa = 101
Fixed: Mole fraction of oct-1-ene = 0
Property: Activity coefficient of oct-1-ene (Liquid); method: Chromatography
Temperature, K	Activity coefficient of oct-1-ene	uncertainty
328.15	39.7	1.8
333.15	39.7	1.8
338.15	38.7	1.8
343.15	37.8	1.8

System: oct-1-ene + N-butyl-4-methylpyridinium tosylate; phases: Liquid
Fixed: Pressure, kPa = 101
Fixed: Mole fraction of oct-1-ene = 0
Property: Activity coefficient of oct-1-ene (Liquid); method: Chromatography
Temperature, K	Activity coefficient of oct-1-ene	uncertainty
328.15	40.6	1.9
333.15	39.2	1.8
338.15	38.9	1.8
343.15	38	1.8

System: 1-pentyne + N-butyl-4-methylpyridinium tosylate; phases: Liquid
Fixed: Pressure, kPa = 101
Fixed: Mole fraction of 1-pentyne = 0
Property: Activity coefficient of 1-pentyne (Liquid); method: Chromatography
Temperature, K	Activity coefficient of 1-pentyne	uncertainty
328.15	3.05	0.14
333.15	3.37	0.15
338.15	3.36	0.15
343.15	3.38	0.15

System: 1-pentyne + N-butyl-4-methylpyridinium tosylate; phases: Liquid
Fixed: Pressure, kPa = 101
Fixed: Mole fraction of 1-pentyne = 0
Property: Activity coefficient of 1-pentyne (Liquid); method: Chromatography
Temperature, K	Activity coefficient of 1-pentyne	uncertainty
328.15	3.09	0.14
333.15	3.06	0.14
338.15	3.2	0.15
343.15	3.41	0.16

System: 1-hexyne + N-butyl-4-methylpyridinium tosylate; phases: Liquid
Fixed: Pressure, kPa = 101
Fixed: Mole fraction of 1-hexyne = 0
Property: Activity coefficient of 1-hexyne (Liquid); method: Chromatography
Temperature, K	Activity coefficient of 1-hexyne	uncertainty
328.15	4.25	0.19
333.15	4.43	0.2
338.15	4.37	0.2
343.15	4.8	0.22

System: 1-hexyne + N-butyl-4-methylpyridinium tosylate; phases: Liquid
Fixed: Pressure, kPa = 101
Fixed: Mole fraction of 1-hexyne = 0
Property: Activity coefficient of 1-hexyne (Liquid); method: Chromatography
Temperature, K	Activity coefficient of 1-hexyne	uncertainty
328.15	4.19	0.19
333.15	4.26	0.19
338.15	4.61	0.21
343.15	4.36	0.2

System: 1-heptyne + N-butyl-4-methylpyridinium tosylate; phases: Liquid
Fixed: Pressure, kPa = 101
Fixed: Mole fraction of 1-heptyne = 0
Property: Activity coefficient of 1-heptyne (Liquid); method: Chromatography
Temperature, K	Activity coefficient of 1-heptyne	uncertainty
328.15	5.76	0.26
333.15	6.03	0.28
338.15	6.01	0.27
343.15	6.14	0.28

System: 1-heptyne + N-butyl-4-methylpyridinium tosylate; phases: Liquid
Fixed: Pressure, kPa = 101
Fixed: Mole fraction of 1-heptyne = 0
Property: Activity coefficient of 1-heptyne (Liquid); method: Chromatography
Temperature, K	Activity coefficient of 1-heptyne	uncertainty
328.15	5.88	0.27
333.15	5.9	0.27
338.15	5.98	0.27
343.15	6	0.27

System: 1-octyne + N-butyl-4-methylpyridinium tosylate; phases: Liquid
Fixed: Pressure, kPa = 101
Fixed: Mole fraction of 1-octyne = 0
Property: Activity coefficient of 1-octyne (Liquid); method: Chromatography
Temperature, K	Activity coefficient of 1-octyne	uncertainty
328.15	8.01	0.37
333.15	8.45	0.39
338.15	8.27	0.38
343.15	8.56	0.39

System: 1-octyne + N-butyl-4-methylpyridinium tosylate; phases: Liquid
Fixed: Pressure, kPa = 101
Fixed: Mole fraction of 1-octyne = 0
Property: Activity coefficient of 1-octyne (Liquid); method: Chromatography
Temperature, K	Activity coefficient of 1-octyne	uncertainty
328.15	8.11	0.37
333.15	8.13	0.37
338.15	8.18	0.38
343.15	8.3	0.38

System: benzene + N-butyl-4-methylpyridinium tosylate; phases: Liquid
Fixed: Pressure, kPa = 101
Fixed: Mole fraction of benzene = 0
Property: Activity coefficient of benzene (Liquid); method: Chromatography
Temperature, K	Activity coefficient of benzene	uncertainty
328.15	4.01	0.18
333.15	3.92	0.18
338.15	3.97	0.18
343.15	3.94	0.18

System: benzene + N-butyl-4-methylpyridinium tosylate; phases: Liquid
Fixed: Pressure, kPa = 101
Fixed: Mole fraction of benzene = 0
Property: Activity coefficient of benzene (Liquid); method: Chromatography
Temperature, K	Activity coefficient of benzene	uncertainty
328.15	4.01	0.18
333.15	4	0.18
338.15	3.95	0.18
343.15	3.97	0.18

System: methanol + N-butyl-4-methylpyridinium tosylate; phases: Liquid
Fixed: Pressure, kPa = 101
Fixed: Mole fraction of methanol = 0
Property: Activity coefficient of methanol (Liquid); method: Chromatography
Temperature, K	Activity coefficient of methanol	uncertainty
328.15	0.555	0.032
333.15	0.545	0.032
338.15	0.541	0.032
343.15	0.548	0.032

System: methanol + N-butyl-4-methylpyridinium tosylate; phases: Liquid
Fixed: Pressure, kPa = 101
Fixed: Mole fraction of methanol = 0
Property: Activity coefficient of methanol (Liquid); method: Chromatography
Temperature, K	Activity coefficient of methanol	uncertainty
328.15	0.542	0.04
333.15	0.542	0.04
338.15	0.536	0.039
343.15	0.527	0.039

System: ethanol + N-butyl-4-methylpyridinium tosylate; phases: Liquid
Fixed: Pressure, kPa = 101
Fixed: Mole fraction of ethanol = 0
Property: Activity coefficient of ethanol (Liquid); method: Chromatography
Temperature, K	Activity coefficient of ethanol	uncertainty
328.15	0.905	0.026
333.15	0.895	0.027
338.15	0.88	0.027
343.15	0.871	0.027

System: ethanol + N-butyl-4-methylpyridinium tosylate; phases: Liquid
Fixed: Pressure, kPa = 101
Fixed: Mole fraction of ethanol = 0
Property: Activity coefficient of ethanol (Liquid); method: Chromatography
Temperature, K	Activity coefficient of ethanol	uncertainty
328.15	0.893	0.027
333.15	0.881	0.027
338.15	0.87	0.027
343.15	0.863	0.027
