Measured thermophysical data. Vapor-liquid equilibrium data for the carbon dioxide and carbon monoxide (CO2 + CO) system at the temperatures 253, 273, 283 and 298 K and pressures up to 13 MPa
Source: Fluid Phase Equilib., 2018, 10.1016/j.fluid.2018.05.006
Compound 1: carbon dioxide, CO2, InChI=1S/CO2/c2-1-3, purity 99.9993%
Compound 2: carbon monoxide, CO, InChI=1S/CO/c1-2, purity 99.997%

System: carbon dioxide + carbon monoxide; phases: Liquid, Gas
Property: Vapor or sublimation pressure, kPa (Liquid); method: Closed cell (Static) method
Mole fraction of carbon dioxide	Temperature, K	Vapor or sublimation pressure, kPa	uncertainty
0.99999	253.152	1970.5	6.3
0.90512	253.152	6033.6	32.1
0.84956	253.152	8060.7	32.8
0.78593	253.152	9990.4	35.2
0.70224	253.152	11805.1	1229.2
0.63715	253.153	12495.6	548.9
0.62585	253.153	12544.7	774.4
0.99999	273.16	3486.1	10.9
0.93536	273.159	6175.2	2476.3
0.87986	273.16	8124.3	2149.4
0.85494	273.159	8871.8	1797.7
0.82453	273.16	9646.3	1401.2
0.77169	273.16	10575.7	1197.6
0.74965	273.159	10757.9	596.4
0.74629	273.159	10774.3	684.1
0.99999	283.292	4518.5	14.1
0.96208	283.296	6065.1	1355
0.89192	283.296	8414.8	2020.3
0.86505	283.295	9080.5	1417.1
0.83998	283.293	9527.6	1080.5
0.82677	283.294	9677.2	707.8
0.81835	283.295	9736.9	596.3
0.99999	298.166	6436.8	20
0.98234	298.162	7067.8	572.2
0.98223	298.162	7071.3	577.5
0.98161	298.164	7091.7	595.8
0.972	298.163	7400.1	806.9
0.95545	298.162	7850.2	979
0.9519	298.163	7928.3	854.7
0.94376	298.162	8061.3	796.9
0.93989	298.163	8093.6	500.4

System: carbon dioxide + carbon monoxide; phases: Gas, Liquid
Property: Mole fraction of carbon dioxide (Gas); method: Chromatography
Mole fraction of carbon dioxide	Temperature, K	Mole fraction of carbon dioxide	uncertainty
0.99999	253.152	0.99999	1e-05
0.90512	253.152	0.47118	0.26183
0.84956	253.152	0.42746	0.05917
0.78593	253.152	0.42564	0.0571
0.70224	253.152	0.46643	0.07831
0.63715	253.153	0.52545	0.18021
0.62585	253.153	0.53766	0.25805
0.99999	273.16	0.99999	1e-05
0.93536	273.159	0.70553	0.20481
0.87986	273.16	0.63519	0.08498
0.85494	273.159	0.62543	0.05552
0.82453	273.16	0.62597	0.05684
0.77169	273.16	0.65411	0.08401
0.74965	273.159	0.6749	0.17182
0.74629	273.159	0.67839	0.19776
0.99999	283.292	0.99999	1e-05
0.96208	283.296	0.84456	0.10036
0.89192	283.296	0.74612	0.08899
0.86505	283.295	0.74186	0.05242
0.83998	283.293	0.75116	0.06324
0.82677	283.294	0.76098	0.0823
0.81835	283.295	0.76886	0.10652
0.99999	298.166	0.99999	1e-05
0.98234	298.162	0.95929	0.04071
0.98223	298.162	0.95791	0.04209
0.98161	298.164	0.94291	0.05709
0.972	298.163	0.92781	0.05433
0.95545	298.162	0.92663	0.05203
0.9519	298.163	0.9265	0.05215
0.94376	298.162	0.92747	0.05417
0.93989	298.163	0.93007	0.06993
