Measured thermophysical data. Activity coefficients of the binary mixtures of a-cresol or p-cresol with C l-C4 aliphatic alcohols near ambient pressure
Source: Fluid Phase Equilib., 2006, 10.1016/j.fluid.2006.03.018
Compound 1: 2-methylphenol, C7H8O, InChI=1S/C7H8O/c1-6-4-2-3-5-7(6)8/h2-5,8H,1H3
Compound 2: 4-methylphenol, C7H8O, InChI=1S/C7H8O/c1-6-2-4-7(8)5-3-6/h2-5,8H,1H3
Compound 3: methanol, CH4O, InChI=1S/CH4O/c1-2/h2H,1H3
Compound 4: ethanol, C2H6O, InChI=1S/C2H6O/c1-2-3/h3H,2H2,1H3
Compound 5: propan-1-ol, C3H8O, InChI=1S/C3H8O/c1-2-3-4/h4H,2-3H2,1H3
Compound 6: propan-2-ol, C3H8O, InChI=1S/C3H8O/c1-3(2)4/h3-4H,1-2H3
Compound 7: butan-1-ol, C4H10O, InChI=1S/C4H10O/c1-2-3-4-5/h5H,2-4H2,1H3
Compound 8: 2-methyl-1-propanol, C4H10O, InChI=1S/C4H10O/c1-4(2)3-5/h4-5H,3H2,1-2H3
Compound 9: butan-2-ol, C4H10O, InChI=1S/C4H10O/c1-3-4(2)5/h4-5H,3H2,1-2H3
Compound 10: 2-methylpropan-2-ol, C4H10O, InChI=1S/C4H10O/c1-4(2,3)5/h5H,1-3H3

System: 2-methylphenol; phases: Liquid
Property: Refractive index (Na D-line) (Liquid); method: ABBE:UFactor:2
Temperature, K	Pressure, kPa	Refractive index (Na D-line)	uncertainty
298.15	101.325	1.5468	0.001

System: 2-methylphenol; phases: Liquid
Property: Mass density, kg/m3 (Liquid); method: PYCNOM:UFactor:8
Temperature, K	Pressure, kPa	Mass density, kg/m3	uncertainty
298.15	101.325	1046	2.9

System: 2-methylphenol; phases: Liquid, Gas
Property: Vapor or sublimation pressure, kPa (Liquid); method: EBULLIO:UFactor:32
Temperature, K	Vapor or sublimation pressure, kPa	uncertainty
461.85	95.76	4.81

System: 4-methylphenol; phases: Liquid
Property: Refractive index (Na D-line) (Liquid); method: ABBE:UFactor:2
Temperature, K	Pressure, kPa	Refractive index (Na D-line)	uncertainty
298.15	101.325	1.539	0.001

System: 4-methylphenol; phases: Crystal
Property: Mass density, kg/m3 (Crystal); method: PYCNOM:UFactor:8
Temperature, K	Pressure, kPa	Mass density, kg/m3	uncertainty
298.15	101.325	1155	4

System: 4-methylphenol; phases: Liquid, Gas
Property: Vapor or sublimation pressure, kPa (Liquid); method: EBULLIO:UFactor:32
Temperature, K	Vapor or sublimation pressure, kPa	uncertainty
472.85	95.23	4.79

System: methanol; phases: Liquid
Property: Refractive index (Na D-line) (Liquid); method: ABBE:UFactor:2
Temperature, K	Pressure, kPa	Refractive index (Na D-line)	uncertainty
298.15	101.325	1.3265	0.001

System: methanol; phases: Liquid
Property: Mass density, kg/m3 (Liquid); method: PYCNOM:UFactor:8
Temperature, K	Pressure, kPa	Mass density, kg/m3	uncertainty
298.15	101.325	786.4	2

System: methanol; phases: Liquid, Gas
Property: Vapor or sublimation pressure, kPa (Liquid); method: EBULLIO:UFactor:32
Temperature, K	Vapor or sublimation pressure, kPa	uncertainty
336.15	95.23	4.79
336.35	95.76	4.81

System: ethanol; phases: Liquid
Property: Refractive index (Na D-line) (Liquid); method: ABBE:UFactor:2
Temperature, K	Pressure, kPa	Refractive index (Na D-line)	uncertainty
298.15	101.325	1.3594	0.001

System: ethanol; phases: Liquid
Property: Mass density, kg/m3 (Liquid); method: PYCNOM:UFactor:8
Temperature, K	Pressure, kPa	Mass density, kg/m3	uncertainty
298.15	101.325	784.9	2

System: ethanol; phases: Liquid, Gas
Property: Vapor or sublimation pressure, kPa (Liquid); method: EBULLIO:UFactor:32
Temperature, K	Vapor or sublimation pressure, kPa	uncertainty
349.95	95.23	4.79
350.05	95.76	4.81

System: propan-1-ol; phases: Liquid
Property: Refractive index (Na D-line) (Liquid); method: ABBE:UFactor:2
Temperature, K	Pressure, kPa	Refractive index (Na D-line)	uncertainty
298.15	101.325	1.3837	0.0008

System: propan-1-ol; phases: Liquid
Property: Mass density, kg/m3 (Liquid); method: PYCNOM:UFactor:8
Temperature, K	Pressure, kPa	Mass density, kg/m3	uncertainty
298.15	101.325	799.6	2.2

System: propan-1-ol; phases: Liquid, Gas
Property: Vapor or sublimation pressure, kPa (Liquid); method: EBULLIO:UFactor:32
Temperature, K	Vapor or sublimation pressure, kPa	uncertainty
368.85	95.23	4.79
368.95	95.76	4.82

System: propan-2-ol; phases: Liquid
Property: Refractive index (Na D-line) (Liquid); method: ABBE:UFactor:2
Temperature, K	Pressure, kPa	Refractive index (Na D-line)	uncertainty
298.15	101.325	1.3752	0.001

System: propan-2-ol; phases: Liquid
Property: Mass density, kg/m3 (Liquid); method: PYCNOM:UFactor:8
Temperature, K	Pressure, kPa	Mass density, kg/m3	uncertainty
298.15	101.325	781.3	2

System: propan-2-ol; phases: Liquid, Gas
Property: Vapor or sublimation pressure, kPa (Liquid); method: EBULLIO:UFactor:32
Temperature, K	Vapor or sublimation pressure, kPa	uncertainty
353.95	95.23	4.79
354.05	95.76	4.81

System: butan-1-ol; phases: Liquid
Property: Refractive index (Na D-line) (Liquid); method: ABBE:UFactor:2
Temperature, K	Pressure, kPa	Refractive index (Na D-line)	uncertainty
298.15	101.325	1.3974	0.001

System: butan-1-ol; phases: Liquid
Property: Mass density, kg/m3 (Liquid); method: PYCNOM:UFactor:8
Temperature, K	Pressure, kPa	Mass density, kg/m3	uncertainty
298.15	101.325	805.8	2.1

System: butan-1-ol; phases: Liquid, Gas
Property: Vapor or sublimation pressure, kPa (Liquid); method: EBULLIO:UFactor:32
Temperature, K	Vapor or sublimation pressure, kPa	uncertainty
389.45	95.76	4.81
391.55	95.23	4.79

System: 2-methyl-1-propanol; phases: Liquid
Property: Refractive index (Na D-line) (Liquid); method: ABBE:UFactor:2
Temperature, K	Pressure, kPa	Refractive index (Na D-line)	uncertainty
298.15	101.325	1.3939	0.001

System: 2-methyl-1-propanol; phases: Liquid
Property: Mass density, kg/m3 (Liquid); method: PYCNOM:UFactor:8
Temperature, K	Pressure, kPa	Mass density, kg/m3	uncertainty
298.15	101.325	797.8	2

System: 2-methyl-1-propanol; phases: Liquid, Gas
Property: Vapor or sublimation pressure, kPa (Liquid); method: EBULLIO:UFactor:32
Temperature, K	Vapor or sublimation pressure, kPa	uncertainty
379.55	95.23	4.79
379.75	95.76	4.81

System: butan-2-ol; phases: Liquid
Property: Refractive index (Na D-line) (Liquid); method: ABBE:UFactor:2
Temperature, K	Pressure, kPa	Refractive index (Na D-line)	uncertainty
298.15	101.325	1.3953	0.001

System: butan-2-ol; phases: Liquid
Property: Mass density, kg/m3 (Liquid); method: PYCNOM:UFactor:8
Temperature, K	Pressure, kPa	Mass density, kg/m3	uncertainty
298.15	101.325	802.4	2.1

System: butan-2-ol; phases: Liquid, Gas
Property: Vapor or sublimation pressure, kPa (Liquid); method: EBULLIO:UFactor:32
Temperature, K	Vapor or sublimation pressure, kPa	uncertainty
371.15	95.23	4.79
371.35	95.76	4.81

System: 2-methylpropan-2-ol; phases: Liquid
Property: Refractive index (Na D-line) (Liquid); method: ABBE:UFactor:2
Temperature, K	Pressure, kPa	Refractive index (Na D-line)	uncertainty
298.15	101.325	1.3852	0.001

System: 2-methylpropan-2-ol; phases: Liquid
Property: Mass density, kg/m3 (Liquid); method: PYCNOM:UFactor:8
Temperature, K	Pressure, kPa	Mass density, kg/m3	uncertainty
298.15	101.325	781.2	2

System: 2-methylpropan-2-ol; phases: Liquid, Gas
Property: Vapor or sublimation pressure, kPa (Liquid); method: EBULLIO:UFactor:32
Temperature, K	Vapor or sublimation pressure, kPa	uncertainty
354.05	95.23	4.79
354.15	95.76	4.81

System: methanol + 2-methylphenol; phases: Liquid, Gas
Fixed: Pressure, kPa = 95.76
Property: Boiling temperature at pressure P, K (Liquid); method: EBULLIO:UFactor:32
Mole fraction of methanol	Boiling temperature at pressure P, K	uncertainty
0	461.85	1.01
0.0752	457.55	1.01
0.1482	444.45	1.01
0.2281	426.35	1.01
0.3022	408.35	1.01
0.3815	391.75	1.01
0.4654	377.55	1.01
0.5201	369.95	1.01
0.6102	359.65	1.01
0.6901	352.45	1.01
0.7579	347.45	1.01
0.8353	342.85	1.01
0.912	339.15	1.01
1	336.35	1.01

System: propan-1-ol + 2-methylphenol; phases: Liquid, Gas
Fixed: Pressure, kPa = 95.76
Property: Boiling temperature at pressure P, K (Liquid); method: EBULLIO:UFactor:32
Mole fraction of propan-1-ol	Boiling temperature at pressure P, K	uncertainty
0	461.85	1.01
0.0511	439.65	1.01
0.1006	426.15	1.01
0.1504	416.75	1.01
0.204	408.95	1.01
0.3003	398.55	1.01
0.3914	391.15	1.01
0.5002	383.35	1.02
0.608	378.95	1.02
0.7005	375.25	1.02
0.795	372.25	1.02
0.9004	369.95	1.02
0.9505	369.35	1.02
1	368.95	1.02

System: butan-1-ol + 2-methylphenol; phases: Liquid, Gas
Fixed: Pressure, kPa = 95.76
Property: Boiling temperature at pressure P, K (Liquid); method: EBULLIO:UFactor:32
Mole fraction of butan-1-ol	Boiling temperature at pressure P, K	uncertainty
0	461.85	1.01
0.0511	443.65	1.01
0.1005	432.65	1.01
0.1432	425.65	1.01
0.188	420.15	1.01
0.3002	410.65	1.01
0.41	404.45	1.01
0.5002	400.55	1.01
0.609	397.55	1.01
0.7002	395.35	1.01
0.778	393.85	1.01
0.9002	391.35	1.01
0.9511	390.45	1.01
1	389.45	1.01

System: butan-2-ol + 2-methylphenol; phases: Liquid, Gas
Fixed: Pressure, kPa = 95.76
Property: Boiling temperature at pressure P, K (Liquid); method: EBULLIO:UFactor:32
Mole fraction of butan-2-ol	Boiling temperature at pressure P, K	uncertainty
0	461.85	1.01
0.0521	447.15	1.01
0.1003	436.95	1.01
0.1606	426.85	1.01
0.2388	416.85	1.01
0.3003	410.35	1.01
0.4227	399.95	1.01
0.5004	394.55	1.01
0.5843	389.35	1.01
0.7002	383.15	1.01
0.7599	380.25	1.01
0.9005	374.45	1.01
0.9503	372.75	1.01
1	371.35	1.01

System: ethanol + 2-methylphenol; phases: Liquid, Gas
Fixed: Pressure, kPa = 95.76
Property: Boiling temperature at pressure P, K (Liquid); method: EBULLIO:UFactor:32
Mole fraction of ethanol	Boiling temperature at pressure P, K	uncertainty
0	461.85	1.01
0.0512	434.85	1.01
0.1002	419.35	1.01
0.1505	408.15	1.01
0.1926	400.85	1.01
0.3003	387.15	1.01
0.4005	378.05	1.01
0.5003	370.85	1.01
0.6096	364.55	1.01
0.7002	360.15	1.01
0.8226	355.35	1.01
0.9003	352.85	1.01
0.9511	351.35	1.01
1	350.05	1.01

System: propan-2-ol + 2-methylphenol; phases: Liquid, Gas
Fixed: Pressure, kPa = 95.76
Property: Boiling temperature at pressure P, K (Liquid); method: EBULLIO:UFactor:32
Mole fraction of propan-2-ol	Boiling temperature at pressure P, K	uncertainty
0	461.85	1.01
0.0521	445.25	1.01
0.1002	433.35	1.01
0.1515	422.85	1.01
0.2006	414.35	1.01
0.3004	400.25	1.01
0.3856	390.65	1.01
0.5002	380.15	1.01
0.602	372.45	1.01
0.7002	366.35	1.01
0.7915	361.55	1.01
0.9005	357.05	1.01
0.9505	355.45	1.01
1	354.05	1.01

System: 2-methyl-1-propanol + 2-methylphenol; phases: Liquid, Gas
Fixed: Pressure, kPa = 95.76
Property: Boiling temperature at pressure P, K (Liquid); method: EBULLIO:UFactor:32
Mole fraction of 2-methyl-1-propanol	Boiling temperature at pressure P, K	uncertainty
0	461.85	1.01
0.0501	450.05	1.01
0.1005	440.65	1.01
0.1601	431.85	1.01
0.1989	426.95	1.01
0.3002	416.55	1.01
0.4007	408.45	1.01
0.5002	401.65	1.01
0.6077	395.55	1.01
0.7002	390.85	1.01
0.7926	386.85	1.01
0.9006	382.75	1.01
0.9511	381.05	1.01
1	379.75	1.01

System: 2-methylpropan-2-ol + 2-methylphenol; phases: Liquid, Gas
Fixed: Pressure, kPa = 95.76
Property: Boiling temperature at pressure P, K (Liquid); method: EBULLIO:UFactor:32
Mole fraction of 2-methylpropan-2-ol	Boiling temperature at pressure P, K	uncertainty
0	461.85	1.01
0.0521	441.45	1.01
0.1006	428.15	1.01
0.1655	415.25	1.01
0.2389	405.25	1.01
0.3006	397.15	1.01
0.4145	386.35	1.01
0.5002	379.75	1.01
0.6046	372.75	1.01
0.7002	367.25	1.01
0.803	361.85	1.01
0.9007	357.55	1.01
0.9504	355.65	1.01
1	354.15	1.01

System: methanol + 4-methylphenol; phases: Liquid, Gas
Fixed: Pressure, kPa = 95.23
Property: Boiling temperature at pressure P, K (Liquid); method: EBULLIO:UFactor:32
Mole fraction of methanol	Boiling temperature at pressure P, K	uncertainty
0	472.85	1.02
0.0755	461.15	1.02
0.1506	447.65	1.02
0.2251	433.45	1.02
0.3003	419.65	1.02
0.4501	395.35	1.02
0.6002	375.1	1.02
0.7502	358.05	1.02
0.8213	350.75	1.02
0.9002	343.15	1.02
0.9521	338.75	1.02
1	336.15	1.02

System: propan-1-ol + 4-methylphenol; phases: Liquid, Gas
Fixed: Pressure, kPa = 95.23
Property: Boiling temperature at pressure P, K (Liquid); method: EBULLIO:UFactor:32
Mole fraction of propan-1-ol	Boiling temperature at pressure P, K	uncertainty
0	472.85	1.02
0.0513	456.75	1.02
0.1002	443.95	1.02
0.206	422.65	1.02
0.3001	409.15	1.02
0.394	399.05	1.02
0.5003	390.35	1.02
0.611	383.45	1.02
0.7002	378.15	1.02
0.7975	375.15	1.02
0.9003	371.65	1.02
1	368.85	1.02

System: butan-1-ol + 4-methylphenol; phases: Liquid, Gas
Fixed: Pressure, kPa = 95.23
Property: Boiling temperature at pressure P, K (Liquid); method: EBULLIO:UFactor:32
Mole fraction of butan-1-ol	Boiling temperature at pressure P, K	uncertainty
0	472.85	1.02
0.0513	448.45	1.02
0.1002	435.15	1.02
0.1756	422.65	1.02
0.3003	410.35	1.02
0.389	405.95	1.02
0.5002	401.35	1.02
0.618	397.85	1.02
0.7002	395.85	1.02
0.81	393.45	1.02
0.9001	391.55	1.02
1	391.55	1.02

System: butan-2-ol + 4-methylphenol; phases: Liquid, Gas
Fixed: Pressure, kPa = 95.23
Property: Boiling temperature at pressure P, K (Liquid); method: EBULLIO:UFactor:32
Mole fraction of butan-2-ol	Boiling temperature at pressure P, K	uncertainty
0	472.85	1.02
0.0512	452.25	1.02
0.1004	438.85	1.02
0.1739	424.55	1.02
0.3005	408.45	1.02
0.388	400.55	1.02
0.5005	392.95	1.02
0.616	385.25	1.02
0.7002	381.85	1.02
0.81	377.25	1.02
0.9006	374.15	1.02
1	371.15	1.02

System: ethanol + 4-methylphenol; phases: Liquid, Gas
Fixed: Pressure, kPa = 95.23
Property: Boiling temperature at pressure P, K (Liquid); method: EBULLIO:UFactor:32
Mole fraction of ethanol	Boiling temperature at pressure P, K	uncertainty
0	472.85	1.02
0.0502	451.35	1.02
0.1001	436.75	1.02
0.1972	417.25	1.02
0.3003	402.75	1.02
0.424	389.45	1.02
0.5002	382.55	1.02
0.624	372.25	1.02
0.7003	367.05	1.02
0.815	359.25	1.02
0.9002	354.15	1.02
1	349.95	1.02

System: propan-2-ol + 4-methylphenol; phases: Liquid, Gas
Fixed: Pressure, kPa = 95.23
Property: Boiling temperature at pressure P, K (Liquid); method: EBULLIO:UFactor:32
Mole fraction of propan-2-ol	Boiling temperature at pressure P, K	uncertainty
0	472.85	1.02
0.0512	452.05	1.02
0.1002	437.05	1.02
0.202	414.25	1.02
0.3001	398.75	1.02
0.387	388.25	1.02
0.5002	377.65	1.02
0.6058	370.25	1.02
0.7003	364.85	1.02
0.793	360.75	1.02
0.9002	355.65	1.02
1	353.95	1.02

System: 2-methyl-1-propanol + 4-methylphenol; phases: Liquid, Gas
Fixed: Pressure, kPa = 95.23
Property: Boiling temperature at pressure P, K (Liquid); method: EBULLIO:UFactor:32
Mole fraction of 2-methyl-1-propanol	Boiling temperature at pressure P, K	uncertainty
0	472.85	1.02
0.0521	456.25	1.02
0.1002	444.75	1.02
0.1739	431.35	1.02
0.3004	415.45	1.02
0.387	408.55	1.02
0.5002	399.65	1.02
0.614	393.45	1.02
0.7002	389.55	1.02
0.8009	385.65	1.02
0.9002	382.35	1.02
1	379.55	1.02

System: 2-methylpropan-2-ol + 4-methylphenol; phases: Liquid, Gas
Fixed: Pressure, kPa = 95.23
Property: Boiling temperature at pressure P, K (Liquid); method: EBULLIO:UFactor:32
Mole fraction of 2-methylpropan-2-ol	Boiling temperature at pressure P, K	uncertainty
0	472.85	1.02
0.0511	453.45	1.02
0.1002	439.05	1.02
0.1702	423.35	1.02
0.3002	402.65	1.02
0.38	393.15	1.02
0.5005	381.65	1.02
0.6076	373.25	1.02
0.7007	367.15	1.02
0.805	361.45	1.02
0.9002	357.25	1.02
1	354.05	1.02
