Measured thermophysical data. Measurements of the speed of sound in liquid and supercritical ethane
Source: Fluid Phase Equilib., 2016, 10.1016/j.fluid.2015.11.019
Compound 1: ethane, C2H6, InChI=1S/C2H6/c1-2/h1-2H3

System: ethane; phases: Liquid
Fixed: Frequency, MHz = 8
Property: Speed of sound, m/s (Liquid); method: Dual path-length method
Temperature, K	Pressure, kPa	Speed of sound, m/s	uncertainty
240.0012	4105.93	925.763	0.908
239.9981	5106.52	940.945	0.923
239.998	6107.17	955.52	0.956
239.9978	7107.81	969.562	0.97
239.9978	8108.48	983.126	1.003
239.9977	9109.14	996.249	1.037
240.0013	10109.8	1008.96	1.01
239.9985	10110	1008.98	1.01
239.9988	12611.7	1039.17	1.04
239.999	15113.3	1067.42	1.07
239.9994	17615	1094	1.31
239.9993	20116.6	1119.17	1.34
239.9997	25119.9	1165.94	1.4
240.0001	30123.1	1208.8	1.45
240.0001	35126.4	1248.52	1.5
240.0001	40130.3	1285.64	1.8
240.0003	45133.5	1320.54	1.85
240.0008	50136.8	1353.53	1.9
240.001	60143.4	1414.76	2.26
240.0011	70149.9	1470.8	2.35
240	80157.4	1522.63	2.44
240	90164.1	1571	2.83
240.0003	100171	1616.41	2.91
259.9961	4105.2	758.383	0.638
259.9963	4105.21	758.386	0.638
259.9964	5105.87	779.502	0.671
259.9964	6106.58	799.28	0.704
259.9962	7107.27	817.917	0.721
259.9963	8107.95	835.581	0.753
259.9959	9108.59	852.394	0.785
259.9959	10109.2	868.453	0.8
259.9985	10108.8	868.423	0.8
259.9974	25118.2	1054.69	1.27
259.9973	30121.6	1103.09	1.32
259.9972	35125	1147.34	1.38
259.9969	40129.2	1188.26	1.43
259.9969	45132.6	1226.43	1.72
259.9971	50136.1	1262.28	1.77
259.9969	60142.9	1328.26	1.86
259.9992	60142.9	1328.25	1.86
259.9994	70149.8	1388.14	1.94
280.0052	4105.15	566.583	0.445
280.0052	5105.8	601.029	0.459
280.0053	6106.5	631.087	0.494
280.0055	7107.21	657.999	0.515
280.0054	8107.89	682.515	0.548
280.0049	9108.55	705.137	0.566
280.0054	10109.2	726.207	0.597
280.0051	12610.9	773.631	0.667
280.0057	15112.6	815.405	0.719
280.0058	17614.4	853.035	0.786
280.0057	20116.1	887.449	0.853
280.0055	25119.5	948.992	0.969
280.0058	30122.9	1003.29	1
280.0057	35126.3	1052.22	1.26
280.0061	40129.7	1096.96	1.32
280.0058	45132.9	1138.35	1.37
280.0059	50136.2	1176.96	1.41
280.0057	60142.9	1247.48	1.75
279.9958	70149.6	1311	1.84
279.9965	80156.3	1369.01	2.19
279.9967	90163	1422.61	2.28
279.9968	100169	1472.55	2.65
299.9958	5104.86	368.772	0.36
299.9955	6105.63	434.335	0.345
299.9953	7106.43	481.551	0.361
299.9955	8107.14	519.902	0.378
299.996	9107.82	552.801	0.412
299.9959	10108.5	581.928	0.433
299.996	12610.2	643.77	0.504
299.9959	15111.9	695.353	0.558
299.9963	17613.3	740.223	0.624
299.9981	20115.1	780.276	0.688
299.9981	25118.6	850.196	0.801
299.9981	30122	910.523	0.912
299.9985	35125.5	964.074	1.023
299.9981	40128.9	1012.53	1.22
299.9983	45132.6	1056.98	1.27
299.9986	50135.9	1098.18	1.32
299.9986	60142.8	1172.9	1.64
299.9984	70149.5	1239.68	1.74
299.9992	80156.3	1300.36	2.08
299.9992	90163.1	1356.21	2.17
299.9993	100170	1408.09	2.25
305.3173	6104.96	370.713	0.334
305.3176	7105.78	429.663	0.334
305.3174	8106.55	474.293	0.356
305.3172	9107.32	511.282	0.372
305.3175	10108	543.313	0.395
305.3176	12609.8	609.924	0.466
305.3175	15111.6	664.48	0.521
305.3175	17613.4	711.441	0.586
305.3175	20115.2	753.077	0.649
305.3173	25118.7	825.252	0.761
305.3185	25119	825.252	0.761
305.3188	30122.2	887.154	0.871
305.3189	35125.4	941.89	0.981
305.3189	40129	991.286	1.092
305.3192	45132.3	1036.51	1.25
305.3196	50135.7	1078.35	1.3
305.3194	60142.4	1154.11	1.62
305.3197	70148.9	1221.7	1.71
305.32	80155.4	1283.04	2.05
305.3202	90161.8	1339.44	2.14
305.3202	100168	1391.79	2.23

System: ethane; phases: Fluid (supercritical or subcritical phases)
Fixed: Frequency, MHz = 8
Property: Speed of sound, m/s (Fluid (supercritical or subcritical phases)); method: Dual path-length method
Temperature, K	Pressure, kPa	Speed of sound, m/s	uncertainty
320.0042	8108.53	346.188	0.271
320.0043	9109.28	397.229	0.293
319.9967	9108.2	397.236	0.293
319.9969	9108.22	397.229	0.293
320.0044	10110	438.742	0.313
320.0044	11110.7	474.19	0.337
320.0044	12111.4	505.421	0.358
319.9971	12110.4	505.428	0.358
320.0047	13112.1	533.53	0.388
320.0045	14112.8	559.178	0.406
320.0043	15113.5	582.877	0.434
319.997	15112.4	582.886	0.457
320.0044	17615.2	635.644	0.473
320.0047	20117.1	681.543	0.547
320.0049	25120.5	759.747	0.671
320.0048	30123.9	825.811	0.778
320.005	35127.3	883.651	0.885
320.0049	40130.8	935.485	0.993
320.0046	45134.1	982.697	1.102
320.0048	50137.5	1026.21	1.23
320.0047	60144.3	1104.64	1.33
320.0047	70151.4	1174.3	1.65
320.0048	80158.2	1237.33	1.73
320.0049	90165	1295.15	2.07
320.0051	100172	1348.7	2.16
340.003	10109	323.965	0.204
340.0038	10109	323.951	0.204
340.0029	11109.7	362.031	0.234
340.0026	12110.4	397.043	0.262
340.0027	13111	428.887	0.289
340.0036	14111.4	457.954	0.317
340.0034	15112	484.711	0.334
340.004	15112.5	484.715	0.334
340.0039	17613.7	543.694	0.396
340.0042	17614.2	543.701	0.396
340.004	20115.4	594.374	0.455
340.0044	25118.8	679.429	0.56
340.0048	30122.2	750.255	0.678
340.0044	35125.6	811.672	0.781
340.0043	40128.9	866.323	0.886
340.0045	45132.2	915.833	0.973
340.0043	50136.9	961.288	1.078
340.0041	60143.9	1042.82	1.25
340.0043	70150.8	1114.89	1.56
340.0043	80157.8	1179.88	1.65
340.0041	90164.7	1239.33	1.98
340.004	100172	1294.29	2.07
350.002	13111.4	388.731	0.253
350.002	14112	417.453	0.265
350.0033	15112.4	444.332	0.299
350.0027	15112.4	444.332	0.299
350.002	15112.7	444.35	0.299
350.0023	16113.5	469.511	0.324
350.0024	17114.2	493.13	0.34
350.0023	18114.9	515.382	0.365
350.0021	19115.6	536.421	0.391
350.0023	20116.2	556.39	0.415
350.0019	22618	602.339	0.461
350.0025	25119.7	643.7	0.519
360.0045	11109.1	308.616	0.144
360.0048	12109.8	333.275	0.154
360.0049	11108.9	308.618	0.162
360.0053	13110.4	359.615	0.201
360.0049	14111.1	386.014	0.23
360.0053	15111.8	411.551	0.26
360.0058	17613.5	470.559	0.315
360.0059	20115.1	522.69	0.37
359.9961	20115.5	522.729	0.37
359.9966	22616.7	569.193	0.425
359.9967	25118.4	611.167	0.48
359.9966	30121.6	684.935	0.578
359.996	35126	748.773	0.677
359.9959	40129.5	805.431	0.776
359.9959	45133	856.625	0.876
359.9959	50136.4	903.516	0.978
359.9957	60143.2	987.406	1.167
359.9959	70150.1	1061.36	1.28
359.9959	80156.9	1127.89	1.58
359.996	90163.5	1188.64	1.67
359.9963	100170	1244.74	1.99
379.9982	15112.2	370.522	0.187
379.9983	16112.9	390.736	0.215
379.9982	17113.7	411.015	0.244
379.9984	18114.4	431.038	0.263
379.9984	19115.2	450.624	0.286
379.9972	20115.8	469.68	0.305
379.997	22617.6	514.778	0.365
379.9971	25119.3	556.36	0.416
379.9968	27620.9	594.799	0.456
379.9968	30122.6	630.512	0.508
379.9964	35126	695.236	0.601
379.9962	40129.5	752.866	0.695
379.9962	45132.9	805.006	0.791
379.9966	50136.3	852.778	0.889
379.9968	60143.1	938.215	1.09
379.9965	70149.8	1013.47	1.22
379.9993	80157.4	1081.12	1.52
379.9993	90164.3	1142.85	1.6
379.999	100171	1199.79	1.92
400.001	15112.2	355.537	0.151
400.0009	16113	370.338	0.174
399.9986	17113.8	386.065	0.197
399.999	18114.4	402.339	0.213
399.9985	19115.1	418.878	0.239
399.9988	20115.7	435.465	0.256
399.9987	22617.4	476.285	0.309
399.9986	25119.1	515.342	0.355
399.9987	27620.8	552.278	0.402
399.9984	30122.4	587.105	0.45
399.9986	35125.8	651.032	0.55
399.9988	40128.8	708.512	0.641
399.9992	45132.3	760.805	0.733
399.9993	50135.6	808.857	0.811
399.999	60142.5	894.998	1.005
399.9992	70149.3	970.987	1.187
399.9998	80156	1039.33	1.46
399.9998	90162.6	1101.69	1.54
400.0003	100169	1159.22	1.86
420.002	15110.6	355.025	0.137
420.0021	16111.3	365.629	0.156
420.0023	17112.5	377.359	0.169
420.0025	18113.2	389.954	0.19
420.0027	19113.9	403.188	0.237
420.0027	20114.6	416.861	0.22
420.0028	22616.3	451.941	0.266
420.0027	25118.1	487.025	0.316
420.0029	27619.8	521.211	0.358
420.003	30121.5	554.111	0.403
420.003	35124.9	615.71	0.496
420.0036	40128.4	671.993	0.581
420.0033	45131.8	723.66	0.669
420.0034	50135.2	771.408	0.759
420.0034	60142.1	857.421	0.929
420.0032	70149.5	933.582	1.123
420.0036	80156.5	1002.21	1.41
420.0035	90163.5	1064.9	1.49
420.0035	100170	1122.77	1.57
