Measured thermophysical data. High-pressure experimental vapour-liquid-liquid equilibrium measurements and modelling for natural gas processing: Equipment validation, and the system CH4 + nC6H14 + H2O
Source: Fluid Phase Equilib., 2019, 10.1016/j.fluid.2019.112276
Compound 1: methane, CH4, InChI=1S/CH4/h1H4, purity 99.999%
Compound 2: hexane, C6H14, InChI=1S/C6H14/c1-3-5-6-4-2/h3-6H2,1-2H3, purity 99%
Compound 3: water, H2O, InChI=1S/H2O/h1H2, purity 99.9%

System: methane + hexane + water; phases: Liquid mixture 1, Gas
Property: Mole fraction of water (Liquid mixture 1); method: Chromatography
Property: Mole fraction of water (Gas); method: Chromatography
Property: Mole fraction of methane (Gas); method: Chromatography
Temperature, K	Pressure, kPa	Mole fraction of methane	Mole fraction of water	uncertainty	Mole fraction of water	uncertainty	Mole fraction of methane	uncertainty
303.2	7700	0.307	0.0059	0.0031	0.000498	0.000189	0.967	
313.2	7000	0.269	0.0199	0.0103	0.00053	0.000201	0.965	
323.2	6200	0.26	0.0156	0.0081	0.000597	0.000227	0.962	
303.2	4600	0.21	0.0105	0.0055	0.000137	5.2e-05	0.965	
313.2	4600	0.186	0.0163	0.0085	6.5e-05	2.5e-05	0.953	
323.2	4400	0.191	0.0137	0.0071	0.000147	5.6e-05	0.951	
303.2	10800	0.468	0.0026	0.0014	6e-05	2.3e-05	0.9655	
313.2	11200	0.408	0.0009	0.0005	0.000169	6.4e-05	0.9587	
323.2	11700	0.413	0.001	0.0005	0.000272	0.000103	0.9566	

System: methane + hexane + water; phases: Liquid mixture 2, Gas
Property: Mole fraction of hexane (Liquid mixture 2); method: Chromatography
Property: Mole fraction of water (Gas); method: Chromatography
Property: Mole fraction of hexane (Gas); method: Chromatography
Temperature, K	Pressure, kPa	Mole fraction of water	Mole fraction of hexane	uncertainty	Mole fraction of water	uncertainty	Mole fraction of hexane	uncertainty
303.2	7700	0.9971	0.000503	0.000503	0.000498	0.000189	0.033	
313.2	7000	0.9977	0.000144	0.000144	0.00053	0.000201	0.0347	
323.2	6200	0.9985	1.5e-05	1.5e-05	0.000597	0.000227	0.0371	
303.2	4600	0.9989	1.7e-05	1.7e-05	0.000137	5.2e-05	0.0348	
313.2	4600	0.9989	1.4e-05	1.4e-05	6.5e-05	2.5e-05	0.0466	
323.2	4400	0.9989	1.6e-05	1.6e-05	0.000147	5.6e-05	0.0489	
303.2	10800	0.9974	4.9e-05	4.9e-05	6e-05	2.3e-05	0.0345	
313.2	11200	0.9974	2.6e-05	2.6e-05	0.000169	6.4e-05	0.0411	
323.2	11700	0.9968	1.8e-05	1.8e-05	0.000272	0.000103	0.0431	

System: methane + hexane + water; phases: Liquid mixture 2, Liquid mixture 1
Property: Mole fraction of hexane (Liquid mixture 2); method: Chromatography
Property: Mole fraction of hexane (Liquid mixture 1); method: Chromatography
Property: Mole fraction of methane (Liquid mixture 1); method: Chromatography
Temperature, K	Pressure, kPa	Mole fraction of methane	Mole fraction of hexane	uncertainty	Mole fraction of hexane	uncertainty	Mole fraction of methane	uncertainty
303.2	7700	0.002348	0.000503	0.000503	0.687	0.045	0.307	
313.2	7000	0.002177	0.000144	0.000144	0.711	0.031	0.269	
323.2	6200	0.001489	1.5e-05	1.5e-05	0.725	0.03	0.26	
303.2	4600	0.001123	1.7e-05	1.7e-05	0.78	0.024	0.21	
313.2	4600	0.001118	1.4e-05	1.4e-05	0.798	0.022	0.186	
323.2	4400	0.001048	1.6e-05	1.6e-05	0.796	0.022	0.191	
303.2	10800	0.002571	4.9e-05	4.9e-05	0.53	0.052	0.468	
313.2	11200	0.002598	2.6e-05	2.6e-05	0.591	0.093	0.408	
323.2	11700	0.003159	1.8e-05	1.8e-05	0.586	0.045	0.413	
