Measured thermophysical data. Measurement of vapor liquid equilibria for the binary mixture of propylene (R-1270) + propane (R-290)
Source: Fluid Phase Equilib., 2006, 10.1016/j.fluid.2006.03.009
Compound 1: propene, C3H6, InChI=1S/C3H6/c1-3-2/h3H,1H2,2H3, purity 99.5%
Compound 2: propane, C3H8, InChI=1S/C3H8/c1-3-2/h3H2,1-2H3, purity 99.8%

System: propene; phases: Liquid, Gas
Property: Vapor or sublimation pressure, kPa (Liquid); method: EBULLIO:UFactor:4
Temperature, K	Vapor or sublimation pressure, kPa	uncertainty
273.15	586	2.8
278.15	678.5	3
283.15	780.8	3.3
293.15	1019	3.8
303.15	1307.6	4.6
313.15	1652.2	5.6

System: propane; phases: Liquid, Gas
Property: Vapor or sublimation pressure, kPa (Liquid); method: EBULLIO:UFactor:4
Temperature, K	Vapor or sublimation pressure, kPa	uncertainty
273.15	474	2.6
278.15	550.8	2.8
283.15	636	2.9
293.15	836.2	3.4
303.15	1077.6	4
313.15	1368	4.7

System: propane + propene; phases: Gas, Liquid
Property: Vapor or sublimation pressure, kPa (Gas); method: EBULLIO:UFactor:4
Mole fraction of propene	Temperature, K	Vapor or sublimation pressure, kPa	uncertainty
0	273.15	474	2.6
0	278.15	550.8	2.8
0	283.15	636	2.9
0	293.15	836.2	3.4
0	303.15	1077.6	4
0	313.15	1368	4.7
0.037	293.15	847.4	3.5
0.037	303.15	1089.1	4.2
0.049	278.15	560.1	2.9
0.05	313.15	1385.7	5
0.075	283.15	651.8	3.1
0.077	278.15	564.7	2.9
0.092	273.15	489	2.7
0.097	293.15	861.2	3.6
0.104	303.15	1107.4	4.2
0.116	283.15	659.2	3.1
0.12	313.15	1409.8	5
0.153	278.15	576.5	2.9
0.162	273.15	498.5	2.7
0.167	293.15	876.1	3.6
0.169	303.15	1125.3	4.3
0.17	283.15	669.1	3.1
0.204	313.15	1437.7	5.1
0.232	303.15	1141.5	4.3
0.233	278.15	588.6	2.9
0.233	283.15	680.1	3.1
0.259	293.15	894.9	3.6
0.261	273.15	511.6	2.7
0.283	303.15	1154.4	4.3
0.293	313.15	1467.2	5.2
0.326	278.15	601.7	2.9
0.328	283.15	695.6	3.1
0.35	293.15	913.2	3.7
0.355	273.15	523.2	2.8
0.358	303.15	1173.8	4.4
0.366	313.15	1489	5.2
0.424	283.15	711.1	3.2
0.429	313.15	1509.4	5.3
0.43	278.15	615.5	2.9
0.432	303.15	1192.4	4.4
0.436	293.15	930.9	3.7
0.442	273.15	533.8	2.8
0.511	303.15	1211.8	4.5
0.517	313.15	1536.6	5.4
0.518	293.15	946.6	3.8
0.528	278.15	628.3	3
0.53	283.15	726.8	3.2
0.531	273.15	543.7	2.8
0.587	303.15	1229	4.5
0.59	293.15	960.4	3.8
0.612	283.15	738.6	3.2
0.615	313.15	1564	5.4
0.622	278.15	639.9	3
0.657	273.15	557.4	2.8
0.658	293.15	972.5	3.8
0.678	313.15	1581.1	5.5
0.681	303.15	1250.3	4.5
0.703	283.15	750.5	3.2
0.705	278.15	649.3	3
0.709	293.15	981.5	3.8
0.754	313.15	1600	5.5
0.758	273.15	567.5	2.8
0.765	303.15	1267.8	4.6
0.772	293.15	991	3.8
0.774	283.15	759	3.3
0.799	278.15	659.5	3
0.817	313.15	1615	5.6
0.825	273.15	573.6	2.8
0.838	293.15	1000.5	3.9
0.838	303.15	1281.8	4.6
0.856	283.15	768	3.3
0.871	278.15	666.9	3
0.875	313.15	1628.9	5.6
0.902	293.15	1008.2	3.9
0.905	303.15	1293	4.6
0.914	283.15	773.5	3.3
0.917	273.15	580.5	2.8
0.921	278.15	671.7	3
0.93	313.15	1640.7	5.6
0.951	293.15	1013.9	4
0.956	313.15	1646.5	5.6
0.96	278.15	674.5	3.1
0.973	283.15	778.7	3.3
0.994	273.15	585.6	2.8
1	273.15	586	2.8
1	278.15	678.5	3
1	283.15	780.8	3.3
1	293.15	1019	3.8
1	303.15	1307.6	4.6
1	313.15	1652.2	5.6

System: propane + propene; phases: Gas, Liquid
Property: Mole fraction of propene (Gas); method: Chromatography
Mole fraction of propene	Temperature, K	Mole fraction of propene	uncertainty
0	273.15	0	0.001
0	278.15	0	0.001
0	283.15	0	0.001
0	293.15	0	0.001
0	303.15	0	0.001
0	313.15	0	0.001
0.037	293.15	0.046	0.006
0.037	303.15	0.045	0.006
0.049	278.15	0.06	0.006
0.05	313.15	0.059	0.006
0.075	283.15	0.09	0.006
0.077	278.15	0.093	0.006
0.092	273.15	0.112	0.006
0.097	293.15	0.118	0.006
0.104	303.15	0.124	0.006
0.116	283.15	0.138	0.006
0.12	313.15	0.138	0.006
0.153	278.15	0.181	0.006
0.162	273.15	0.191	0.006
0.167	293.15	0.198	0.006
0.169	303.15	0.198	0.006
0.17	283.15	0.199	0.006
0.204	313.15	0.231	0.006
0.232	303.15	0.266	0.006
0.233	278.15	0.27	0.006
0.233	283.15	0.268	0.006
0.259	293.15	0.298	0.006
0.261	273.15	0.299	0.006
0.283	303.15	0.318	0.006
0.293	313.15	0.32	0.006
0.326	278.15	0.366	0.007
0.328	283.15	0.366	0.007
0.35	293.15	0.388	0.007
0.355	273.15	0.394	0.007
0.358	303.15	0.396	0.007
0.366	313.15	0.397	0.007
0.424	283.15	0.463	0.007
0.429	313.15	0.463	0.007
0.43	278.15	0.47	0.007
0.432	303.15	0.472	0.007
0.436	293.15	0.474	0.007
0.442	273.15	0.483	0.007
0.511	303.15	0.55	0.007
0.517	313.15	0.55	0.007
0.518	293.15	0.554	0.007
0.528	278.15	0.566	0.007
0.53	283.15	0.567	0.007
0.531	273.15	0.568	0.007
0.587	303.15	0.622	0.006
0.59	293.15	0.627	0.007
0.612	283.15	0.646	0.006
0.615	313.15	0.645	0.006
0.622	278.15	0.656	0.006
0.657	273.15	0.687	0.006
0.658	293.15	0.688	0.006
0.678	313.15	0.703	0.006
0.681	303.15	0.708	0.006
0.703	283.15	0.732	0.006
0.705	278.15	0.732	0.006
0.709	293.15	0.738	0.006
0.754	313.15	0.772	0.006
0.758	273.15	0.78	0.006
0.765	303.15	0.785	0.006
0.772	293.15	0.792	0.006
0.774	283.15	0.793	0.006
0.799	278.15	0.817	0.006
0.817	313.15	0.83	0.006
0.825	273.15	0.84	0.006
0.838	293.15	0.854	0.006
0.838	303.15	0.853	0.006
0.856	283.15	0.869	0.006
0.871	278.15	0.882	0.006
0.875	313.15	0.884	0.006
0.902	293.15	0.911	0.005
0.905	303.15	0.912	0.006
0.914	283.15	0.923	0.005
0.917	273.15	0.923	0.006
0.921	278.15	0.928	0.006
0.93	313.15	0.935	0.006
0.951	293.15	0.956	0.005
0.956	313.15	0.96	0.005
0.96	278.15	0.964	0.005
0.973	283.15	0.975	0.005
0.994	273.15	0.995	0.004
1	273.15	1	0.001
1	278.15	1	0.001
1	283.15	1	0.001
1	293.15	1	0.001
1	303.15	1	0.001
1	313.15	1	0.001
