Measured thermophysical data. Liquid liquid equilibria for the ternary system water + octane + 2-butyloxy-ethanol
Source: Fluid Phase Equilib., 2015, 10.1016/j.fluid.2015.04.019
Compound 1: octane, C8H18, InChI=1S/C8H18/c1-3-5-7-8-6-4-2/h3-8H2,1-2H3, purity 99%
Compound 2: 2-butoxyethan-1-ol, C6H14O2, InChI=1S/C6H14O2/c1-2-3-5-8-6-4-7/h7H,2-6H2,1H3, purity 99%
Compound 3: water, H2O, InChI=1S/H2O/h1H2

System: octane; phases: Liquid
Fixed: Pressure, kPa = 101.325
Property: Mass density, kg/m3 (Liquid); method: Vibrating tube method
Temperature, K	Mass density, kg/m3	uncertainty
293.15	702.64	0.32
313.15	686.39	0.32

System: 2-butoxyethan-1-ol; phases: Liquid
Fixed: Pressure, kPa = 101.325
Property: Mass density, kg/m3 (Liquid); method: Vibrating tube method
Temperature, K	Mass density, kg/m3	uncertainty
293.15	900.64	0.15
313.15	883.8	0.15

System: octane + 2-butoxyethan-1-ol + water; phases: Liquid mixture 2, Liquid mixture 1
Fixed: Temperature, K = 283.15
Fixed: Pressure, kPa = 101
Property: Mass fraction of 2-butoxyethan-1-ol (Liquid mixture 2); method: Chromatography
Property: Mass fraction of water (Liquid mixture 1); method: Chromatography
Property: Mass fraction of 2-butoxyethan-1-ol (Liquid mixture 1); method: Chromatography
Mass fraction of water	Mass fraction of 2-butoxyethan-1-ol	uncertainty	Mass fraction of water	uncertainty	Mass fraction of 2-butoxyethan-1-ol	uncertainty
0.9034	0.0966	0.0017	0.0002	0.0002	0.0286	
0.8431	0.1564	0.0024	0.0022	0.0016	0.0847	
0.6736	0.3022	0.003	0.0028	0.0016	0.0923	
0.5695	0.3845	0.0034	0.0031	0.0016	0.0937	
0.4662	0.4602	0.0038	0.0032	0.0016	0.0959	
0.4017	0.5038	0.004	0.0033	0.0016	0.0994	
0.3329	0.5448	0.0037	0.004	0.0016	0.1005	
0.272	0.5641	0.0035	0.0058	0.0016	0.117	
0.1892	0.557	0.0036	0.0121	0.0016	0.1588	
0.1332	0.5029	0.0039	0.0282	0.0016	0.2338	

System: octane + 2-butoxyethan-1-ol + water; phases: Liquid mixture 3, Liquid mixture 2, Liquid mixture 1
Property: Mass fraction of water (Liquid mixture 3); method: Chromatography
Property: Mass fraction of 2-butoxyethan-1-ol (Liquid mixture 3); method: Chromatography
Property: Mass fraction of water (Liquid mixture 2); method: Chromatography
Property: Mass fraction of 2-butoxyethan-1-ol (Liquid mixture 2); method: Chromatography
Property: Mass fraction of water (Liquid mixture 1); method: Chromatography
Property: Mass fraction of 2-butoxyethan-1-ol (Liquid mixture 1); method: Chromatography
Temperature, K	Pressure, kPa	Mass fraction of water	uncertainty	Mass fraction of 2-butoxyethan-1-ol	uncertainty	Mass fraction of water	uncertainty	Mass fraction of 2-butoxyethan-1-ol	uncertainty	Mass fraction of water	uncertainty	Mass fraction of 2-butoxyethan-1-ol	uncertainty
293.15	101	0.8671	0.0019	0.132	0.0019	0.2446	0.0024	0.5405	0.0036	0.015	0.0016	0.1825	0.0021

System: octane + 2-butoxyethan-1-ol + water; phases: Liquid mixture 2, Liquid mixture 1
Fixed: Temperature, K = 293.15
Fixed: Pressure, kPa = 101
Property: Mass fraction of 2-butoxyethan-1-ol (Liquid mixture 2); method: Chromatography
Property: Mass fraction of water (Liquid mixture 1); method: Chromatography
Property: Mass fraction of 2-butoxyethan-1-ol (Liquid mixture 1); method: Chromatography
Mass fraction of water	Mass fraction of 2-butoxyethan-1-ol	uncertainty	Mass fraction of water	uncertainty	Mass fraction of 2-butoxyethan-1-ol	uncertainty
0.1969	0.5343	0.0037	0.0204	0.0016	0.2063	
0.1224	0.4699	0.0037	0.0436	0.0017	0.2913	
0.1072	0.4458	0.0035	0.0578	0.0017	0.3273	

System: octane + 2-butoxyethan-1-ol + water; phases: Liquid mixture 2, Liquid mixture 1
Fixed: Temperature, K = 293.15
Fixed: Pressure, kPa = 101
Property: Mass fraction of 2-butoxyethan-1-ol (Liquid mixture 2); method: Chromatography
Property: Mass fraction of water (Liquid mixture 1); method: Chromatography
Property: Mass fraction of 2-butoxyethan-1-ol (Liquid mixture 1); method: Chromatography
Mass fraction of water	Mass fraction of 2-butoxyethan-1-ol	uncertainty	Mass fraction of water	uncertainty	Mass fraction of 2-butoxyethan-1-ol	uncertainty
0.906	0.094	0.0017	0.0004	0.0004	0.0443	
0.8861	0.1139	0.0024	0.0015	0.0015	0.0859	
0.8704	0.1294	0.0018	0.0067	0.0016	0.1391	

System: octane + 2-butoxyethan-1-ol + water; phases: Liquid mixture 2, Liquid mixture 1
Fixed: Temperature, K = 293.15
Fixed: Pressure, kPa = 101
Property: Mass fraction of 2-butoxyethan-1-ol (Liquid mixture 2); method: Chromatography
Property: Mass fraction of 2-butoxyethan-1-ol (Liquid mixture 1); method: Chromatography
Property: Mass fraction of water (Liquid mixture 1); method: Chromatography
Mass fraction of water	Mass fraction of 2-butoxyethan-1-ol	uncertainty	Mass fraction of 2-butoxyethan-1-ol	uncertainty	Mass fraction of water	uncertainty
0.8575	0.1409	0.0019	0.5627	0.0035	0.2868	
0.8135	0.1837	0.0026	0.5481	0.0037	0.3471	
0.8018	0.1947	0.0026	0.4667	0.0038	0.4868	
0.7555	0.2385	0.0023	0.3798	0.0031	0.5917	

System: octane + 2-butoxyethan-1-ol + water; phases: Liquid mixture 2, Liquid mixture 1
Fixed: Temperature, K = 303.15
Fixed: Pressure, kPa = 101
Property: Mass fraction of water (Liquid mixture 2); method: Chromatography
Property: Mass fraction of water (Liquid mixture 1); method: Chromatography
Property: Mass fraction of 2-butoxyethan-1-ol (Liquid mixture 1); method: Chromatography
Mass fraction of 2-butoxyethan-1-ol	Mass fraction of water	uncertainty	Mass fraction of water	uncertainty	Mass fraction of 2-butoxyethan-1-ol	uncertainty
0.9202	0.0798	0.0017	0.0811	0.0017	0.001	
0.9036	0.0964	0.0017	0.2014	0.0132	0.0124	
0.9019	0.0978	0.0023	0.3145	0.0067	0.0293	
0.9011	0.0984	0.0022	0.4177	0.005	0.066	
0.9005	0.0985	0.0023	0.4889	0.0048	0.104	
0.8991	0.1004	0.0024	0.5231	0.0043	0.1249	
0.8984	0.1012	0.0025	0.551	0.004	0.1505	
0.8957	0.104	0.0024	0.5852	0.0035	0.1807	
0.8916	0.1081	0.0018	0.6132	0.0032	0.2568	
0.8622	0.1367	0.0024	0.5581	0.0037	0.3927	
0.7559	0.2407	0.0023	0.3853	0.0032	0.6015	

System: octane + 2-butoxyethan-1-ol + water; phases: Liquid mixture 3, Liquid mixture 2, Liquid mixture 1
Fixed: Pressure, kPa = 101
Property: Mass fraction of 2-butoxyethan-1-ol (Liquid mixture 3); method: Chromatography
Property: Mass fraction of water (Liquid mixture 3); method: Chromatography
Property: Mass fraction of 2-butoxyethan-1-ol (Liquid mixture 2); method: Chromatography
Property: Mass fraction of water (Liquid mixture 2); method: Chromatography
Property: Mass fraction of water (Liquid mixture 1); method: Chromatography
Property: Mass fraction of 2-butoxyethan-1-ol (Liquid mixture 1); method: Chromatography
Temperature, K	Mass fraction of 2-butoxyethan-1-ol	uncertainty	Mass fraction of water	uncertainty	Mass fraction of 2-butoxyethan-1-ol	uncertainty	Mass fraction of water	uncertainty	Mass fraction of water	uncertainty	Mass fraction of 2-butoxyethan-1-ol	uncertainty
288.15	0.8196	0.0021	0.1753	0.002	0.4076	0.0034	0.4918	0.0038	0.1226	0.0018	0.0059	0.0016
291.15	0.8518	0.0019	0.1464	0.0019	0.2944	0.0027	0.5456	0.0036	0.1531	0.0019	0.0096	0.0016
293.15	0.8671	0.0019	0.132	0.0019	0.2446	0.0024	0.5405	0.0036	0.1825	0.0021	0.015	0.0016
