Measured thermophysical data. Solubility of mixed gases containing carbon dioxide in ionic liquids: Measurements and predictions
Source: Fluid Phase Equilib., 2007, 10.1016/j.fluid.2006.11.019
Compound 1: carbon dioxide, CO2, InChI=1S/CO2/c2-1-3
Compound 2: nitrogen, N2, InChI=1S/N2/c1-2
Compound 3: propane, C3H8, InChI=1S/C3H8/c1-3-2/h3H2,1-2H3
Compound 4: 1-hexyl-3-methylimidazolium bis[(trifluoromethyl)sulfonyl]imide, C12H19F6N3O4S2, InChI=1S/C10H19N2.C2F6NO4S2/c1-3-4-5-6-7-12-9-8-11(2)10-12;3-1(4,5)14(10,11)9-15(12,13)2(6,7)8/h8-10H,3-7H2,1-2H3;/q+1;-1, purity 99%

System: carbon dioxide + 1-hexyl-3-methylimidazolium bis[(trifluoromethyl)sulfonyl]imide; phases: Liquid, Gas
Fixed: Temperature, K = 298.15
Property: Mole fraction of carbon dioxide (Liquid); method: Pressure change on dissolution
Pressure, kPa	Mole fraction of carbon dioxide	uncertainty
157	0.039	0.004
214	0.053	0.005
333	0.091	0.009
405	0.109	0.011
498	0.133	0.013
586	0.156	0.016
663	0.177	0.018
754	0.194	0.019
828	0.205	0.021
840	0.215	0.022

System: propane + 1-hexyl-3-methylimidazolium bis[(trifluoromethyl)sulfonyl]imide; phases: Liquid, Gas
Fixed: Temperature, K = 298.15
Property: Mole fraction of propane (Liquid); method: Pressure change on dissolution
Pressure, kPa	Mole fraction of propane	uncertainty
322	0.096	0.01
342	0.106	0.011
381	0.123	0.012
450	0.149	0.015
508	0.181	0.018
545	0.183	0.018
610	0.209	0.021
636	0.213	0.021
698	0.232	0.023
731	0.241	0.024

System: carbon dioxide + nitrogen + 1-hexyl-3-methylimidazolium bis[(trifluoromethyl)sulfonyl]imide; phases: Gas, Liquid
Fixed: Temperature, K = 298.15
Property: Mole fraction of carbon dioxide (Gas); method: Chromatography
Pressure, kPa	Mole fraction of carbon dioxide	Mole fraction of carbon dioxide	uncertainty
436	0.024	0.178	0.018
495	0.039	0.321	0.032
559	0.06	0.42	0.042
693	0.105	0.546	0.055
773	0.127	0.608	0.061
827	0.141	0.652	0.065
967	0.176	0.711	0.071

System: carbon dioxide + nitrogen + 1-hexyl-3-methylimidazolium bis[(trifluoromethyl)sulfonyl]imide; phases: Liquid, Gas
Fixed: Temperature, K = 298.15
Property: Mole fraction of nitrogen (Liquid); method: pressure change on dissolution
Pressure, kPa	Mole fraction of carbon dioxide	Mole fraction of nitrogen	uncertainty
436	0.024	0	0.002
495	0.039	0	0.002
559	0.06	0	0.002
693	0.105	0	0.002
773	0.127	0	0.002
827	0.141	0	0.002
967	0.176	0	0.002

System: propane + carbon dioxide + 1-hexyl-3-methylimidazolium bis[(trifluoromethyl)sulfonyl]imide; phases: Liquid, Gas
Fixed: Temperature, K = 298.15
Property: Mole fraction of propane (Liquid); method: pressure change on dissolution
Pressure, kPa	Mole fraction of carbon dioxide	Mole fraction of propane	uncertainty
335	0.02	0.077	0.008
422	0.033	0.071	0.007
487	0.047	0.068	0.007
493	0.079	0.066	0.007
512	0.081	0.072	0.007
639	0.088	0.062	0.006
654	0.048	0.175	0.018
690	0.059	0.171	0.017
727	0.108	0.061	0.006
766	0.05	0.198	0.02
824	0.043	0.22	0.022
839	0.133	0.058	0.006

System: propane + carbon dioxide + 1-hexyl-3-methylimidazolium bis[(trifluoromethyl)sulfonyl]imide; phases: Gas, Liquid
Fixed: Temperature, K = 298.15
Property: Mole fraction of carbon dioxide (Gas); method: Chromatography
Pressure, kPa	Mole fraction of carbon dioxide	Mole fraction of carbon dioxide	uncertainty
335	0.02	0.252	0.025
422	0.033	0.424	0.043
487	0.047	0.512	0.051
493	0.079	0.516	0.052
512	0.081	0.507	0.051
639	0.088	0.637	0.064
654	0.048	0.402	0.04
690	0.059	0.373	0.037
727	0.108	0.695	0.07
766	0.05	0.332	0.033
824	0.043	0.302	0.03
839	0.133	0.743	0.074
