Measured thermophysical data. Liquid viscosities of benzene, n-tetradecane, and benzene + n-tetradecane from 313 to 393K and pressures up to 60MPa: Experiment and modeling
Source: Fluid Phase Equilib., 2007, 10.1016/j.fluid.2007.08.010
Compound 1: benzene, C6H6, InChI=1S/C6H6/c1-2-4-6-5-3-1/h1-6H, purity 99.9%
Compound 2: tetradecane, C14H30, InChI=1S/C14H30/c1-3-5-7-9-11-13-14-12-10-8-6-4-2/h3-14H2,1-2H3, purity 99%

System: benzene; phases: Liquid
Property: Viscosity, Pa*s (Liquid); method: Falling or rolling sphere viscometry
Temperature, K	Pressure, kPa	Viscosity, Pa*s	uncertainty
313.2	690	0.000479	2e-05
313.2	5000	0.0005	2e-05
313.2	10000	0.000524	2.1e-05
313.2	20000	0.000574	2.3e-05
313.2	30000	0.000625	2.5e-05
313.2	40000	0.000675	2.7e-05
313.2	50000	0.000725	2.9e-05
313.2	60000	0.000774	3.1e-05
333.2	690	0.000387	1.6e-05
333.2	5000	0.000404	1.6e-05
333.2	10000	0.000424	1.7e-05
333.2	20000	0.000466	1.9e-05
333.2	30000	0.000509	2.1e-05
333.2	40000	0.000553	2.3e-05
333.2	50000	0.000597	2.4e-05
333.2	60000	0.000641	2.6e-05
353.2	690	0.000317	1.3e-05
353.2	5000	0.000331	1.3e-05
353.2	10000	0.000347	1.4e-05
353.2	20000	0.00038	1.5e-05
353.2	30000	0.000415	1.7e-05
353.2	40000	0.000451	1.8e-05
353.2	50000	0.000489	2e-05
353.2	60000	0.000526	2.1e-05
373.2	690	0.000269	1.1e-05
373.2	5000	0.000279	1.1e-05
373.2	10000	0.000291	1.2e-05
373.2	20000	0.000316	1.3e-05
373.2	30000	0.000344	1.4e-05
373.2	40000	0.000372	1.5e-05
373.2	50000	0.000402	1.6e-05
373.2	60000	0.000434	1.8e-05
393.2	690	0.000239	1e-05
393.2	5000	0.000246	1e-05
393.2	10000	0.000255	1e-05
393.2	20000	0.000273	1.1e-05
393.2	30000	0.000294	1.2e-05
393.2	40000	0.000315	1.3e-05
393.2	50000	0.000339	1.4e-05
393.2	60000	0.000364	1.5e-05

System: tetradecane; phases: Liquid
Property: Viscosity, Pa*s (Liquid); method: Falling or rolling sphere viscometry
Temperature, K	Pressure, kPa	Viscosity, Pa*s	uncertainty
313.2	690	0.001653	6.8e-05
313.2	5000	0.001738	7.1e-05
313.2	10000	0.001831	7.5e-05
313.2	20000	0.002025	8.3e-05
313.2	30000	0.002241	9.2e-05
313.2	40000	0.002483	0.000102
313.2	50000	0.002767	0.000114
313.2	60000	0.003093	0.000127
333.2	690	0.001218	5e-05
333.2	5000	0.001283	5.3e-05
333.2	10000	0.001345	5.5e-05
333.2	20000	0.001473	6e-05
333.2	30000	0.001607	6.6e-05
333.2	40000	0.00174	7.1e-05
333.2	50000	0.001886	7.7e-05
333.2	60000	0.002043	8.4e-05
353.2	690	0.000896	3.7e-05
353.2	5000	0.000957	3.9e-05
353.2	10000	0.001017	4.2e-05
353.2	20000	0.001128	4.6e-05
353.2	30000	0.001229	5e-05
353.2	40000	0.001325	5.4e-05
353.2	50000	0.001423	5.8e-05
353.2	60000	0.001518	6.2e-05
373.2	690	0.00066	2.7e-05
373.2	5000	0.000708	2.9e-05
373.2	10000	0.000757	3.1e-05
373.2	20000	0.000852	3.5e-05
373.2	30000	0.000943	3.9e-05
373.2	40000	0.001031	4.2e-05
373.2	50000	0.001117	4.6e-05
373.2	60000	0.001202	4.9e-05
393.2	690	0.000527	2.2e-05
393.2	5000	0.000568	2.3e-05
393.2	10000	0.000609	2.5e-05
393.2	20000	0.000687	2.8e-05
393.2	30000	0.000767	3.1e-05
393.2	40000	0.000839	3.4e-05
393.2	50000	0.000908	3.7e-05
393.2	60000	0.000976	4e-05

System: benzene + tetradecane; phases: Liquid
Property: Viscosity, Pa*s (Liquid); method: Falling or rolling sphere viscometry
Mole fraction of benzene	Temperature, K	Pressure, kPa	Viscosity, Pa*s	uncertainty
0.179	313.2	690	0.001393	5.7e-05
0.179	313.2	5000	0.001461	6e-05
0.179	313.2	10000	0.001538	6.3e-05
0.179	313.2	20000	0.001695	6.9e-05
0.179	313.2	30000	0.00186	7.6e-05
0.179	313.2	40000	0.002036	8.3e-05
0.179	313.2	50000	0.002224	9.1e-05
0.179	313.2	60000	0.002434	0.0001
0.179	333.2	690	0.001045	4.3e-05
0.179	333.2	5000	0.001098	4.5e-05
0.179	333.2	10000	0.001157	4.7e-05
0.179	333.2	20000	0.001273	5.2e-05
0.179	333.2	30000	0.001389	5.7e-05
0.179	333.2	40000	0.001515	6.2e-05
0.179	333.2	50000	0.001657	6.8e-05
0.179	333.2	60000	0.001846	7.6e-05
0.179	353.2	690	0.000819	3.4e-05
0.179	353.2	5000	0.000855	3.5e-05
0.179	353.2	10000	0.000904	3.7e-05
0.179	353.2	20000	0.000996	4.1e-05
0.179	353.2	30000	0.00108	4.4e-05
0.179	353.2	40000	0.001168	4.8e-05
0.179	353.2	50000	0.001278	5.2e-05
0.179	353.2	60000	0.001391	5.7e-05
0.179	373.2	690	0.000596	2.4e-05
0.179	373.2	5000	0.000635	2.6e-05
0.179	373.2	10000	0.000678	2.8e-05
0.179	373.2	20000	0.000765	3.1e-05
0.179	373.2	30000	0.000849	3.5e-05
0.179	373.2	40000	0.000926	3.8e-05
0.179	373.2	50000	0.001001	4.1e-05
0.179	373.2	60000	0.00107	4.4e-05
0.179	393.2	690	0.000466	1.9e-05
0.179	393.2	5000	0.000495	2e-05
0.179	393.2	10000	0.000531	2.2e-05
0.179	393.2	20000	0.000601	2.5e-05
0.179	393.2	30000	0.00067	2.7e-05
0.179	393.2	40000	0.000738	3e-05
0.179	393.2	50000	0.000804	3.3e-05
0.179	393.2	60000	0.000868	3.6e-05
0.436	313.2	690	0.001103	4.5e-05
0.436	313.2	5000	0.001159	4.7e-05
0.436	313.2	10000	0.001223	5e-05
0.436	313.2	20000	0.001347	5.5e-05
0.436	313.2	30000	0.001473	6e-05
0.436	313.2	40000	0.0016	6.5e-05
0.436	313.2	50000	0.001729	7.1e-05
0.436	313.2	60000	0.001866	7.6e-05
0.436	333.2	690	0.000838	3.4e-05
0.436	333.2	5000	0.000884	3.6e-05
0.436	333.2	10000	0.000935	3.8e-05
0.436	333.2	20000	0.001037	4.2e-05
0.436	333.2	30000	0.001135	4.6e-05
0.436	333.2	40000	0.001228	5e-05
0.436	333.2	50000	0.001319	5.4e-05
0.436	333.2	60000	0.001421	5.8e-05
0.436	353.2	690	0.000614	2.5e-05
0.436	353.2	5000	0.000662	2.7e-05
0.436	353.2	10000	0.000705	2.9e-05
0.436	353.2	20000	0.000793	3.2e-05
0.436	353.2	30000	0.000883	3.6e-05
0.436	353.2	40000	0.000956	3.9e-05
0.436	353.2	50000	0.001032	4.2e-05
0.436	353.2	60000	0.001116	4.6e-05
0.436	373.2	690	0.000485	2e-05
0.436	373.2	5000	0.000515	2.1e-05
0.436	373.2	10000	0.000549	2.2e-05
0.436	373.2	20000	0.00062	2.5e-05
0.436	373.2	30000	0.000688	2.8e-05
0.436	373.2	40000	0.000753	3.1e-05
0.436	373.2	50000	0.000819	3.3e-05
0.436	373.2	60000	0.000879	3.6e-05
0.436	393.2	690	0.000394	1.6e-05
0.436	393.2	5000	0.000419	1.7e-05
0.436	393.2	10000	0.000445	1.8e-05
0.436	393.2	20000	0.000496	2e-05
0.436	393.2	30000	0.000554	2.3e-05
0.436	393.2	40000	0.00061	2.5e-05
0.436	393.2	50000	0.000662	2.7e-05
0.436	393.2	60000	0.000717	2.9e-05
0.602	313.2	690	0.000905	3.7e-05
0.602	313.2	5000	0.000955	3.9e-05
0.602	313.2	10000	0.001011	4.1e-05
0.602	313.2	20000	0.001118	4.6e-05
0.602	313.2	30000	0.001225	5e-05
0.602	313.2	40000	0.001329	5.4e-05
0.602	313.2	50000	0.001432	5.8e-05
0.602	313.2	60000	0.001535	6.3e-05
0.602	333.2	690	0.000688	2.8e-05
0.602	333.2	5000	0.000728	3e-05
0.602	333.2	10000	0.000775	3.2e-05
0.602	333.2	20000	0.000862	3.5e-05
0.602	333.2	30000	0.000946	3.9e-05
0.602	333.2	40000	0.001032	4.2e-05
0.602	333.2	50000	0.001115	4.5e-05
0.602	333.2	60000	0.001216	5e-05
0.602	353.2	690	0.000537	2.2e-05
0.602	353.2	5000	0.000566	2.3e-05
0.602	353.2	10000	0.000601	2.5e-05
0.602	353.2	20000	0.000668	2.7e-05
0.602	353.2	30000	0.000739	3e-05
0.602	353.2	40000	0.000809	3.3e-05
0.602	353.2	50000	0.000878	3.6e-05
0.602	353.2	60000	0.000959	3.9e-05
0.602	373.2	690	0.00043	1.8e-05
0.602	373.2	5000	0.000452	1.8e-05
0.602	373.2	10000	0.000477	1.9e-05
0.602	373.2	20000	0.000533	2.2e-05
0.602	373.2	30000	0.00059	2.4e-05
0.602	373.2	40000	0.000646	2.6e-05
0.602	373.2	50000	0.000704	2.9e-05
0.602	373.2	60000	0.000761	3.1e-05
0.602	393.2	690	0.000347	1.4e-05
0.602	393.2	5000	0.000368	1.5e-05
0.602	393.2	10000	0.00039	1.6e-05
0.602	393.2	20000	0.000436	1.8e-05
0.602	393.2	30000	0.000479	2e-05
0.602	393.2	40000	0.000524	2.1e-05
0.602	393.2	50000	0.000565	2.3e-05
0.602	393.2	60000	0.000604	2.5e-05
0.798	313.2	690	0.000679	2.8e-05
0.798	313.2	5000	0.000712	2.9e-05
0.798	313.2	10000	0.000753	3.1e-05
0.798	313.2	20000	0.000835	3.4e-05
0.798	313.2	30000	0.000916	3.7e-05
0.798	313.2	40000	0.001	4.1e-05
0.798	313.2	50000	0.001081	4.4e-05
0.798	313.2	60000	0.00116	4.7e-05
0.798	333.2	690	0.000528	2.2e-05
0.798	333.2	5000	0.000557	2.3e-05
0.798	333.2	10000	0.000592	2.4e-05
0.798	333.2	20000	0.000661	2.7e-05
0.798	333.2	30000	0.00073	3e-05
0.798	333.2	40000	0.000797	3.2e-05
0.798	333.2	50000	0.000863	3.5e-05
0.798	333.2	60000	0.000927	3.8e-05
0.798	353.2	690	0.000421	1.7e-05
0.798	353.2	5000	0.000443	1.8e-05
0.798	353.2	10000	0.000469	1.9e-05
0.798	353.2	20000	0.000523	2.1e-05
0.798	353.2	30000	0.000578	2.4e-05
0.798	353.2	40000	0.000634	2.6e-05
0.798	353.2	50000	0.00069	2.8e-05
0.798	353.2	60000	0.000745	3e-05
0.798	373.2	690	0.000356	1.5e-05
0.798	373.2	5000	0.000371	1.5e-05
0.798	373.2	10000	0.000389	1.6e-05
0.798	373.2	20000	0.000427	1.7e-05
0.798	373.2	30000	0.000467	1.9e-05
0.798	373.2	40000	0.000509	2.1e-05
0.798	373.2	50000	0.000553	2.3e-05
0.798	373.2	60000	0.000598	2.4e-05
0.798	393.2	690	0.000307	1.3e-05
0.798	393.2	5000	0.00032	1.3e-05
0.798	393.2	10000	0.000336	1.4e-05
0.798	393.2	20000	0.000367	1.5e-05
0.798	393.2	30000	0.000398	1.6e-05
0.798	393.2	40000	0.000432	1.8e-05
0.798	393.2	50000	0.000466	1.9e-05
0.798	393.2	60000	0.000499	2e-05
