Measured thermophysical data. Measurements of the thermal conductivity of propane at the approach of the coexistence line
Source: Fluid Phase Equilib., 2017, 10.1016/j.fluid.2017.06.019
Compound 1: propane, C3H8, InChI=1S/C3H8/c1-3-2/h3H2,1-2H3, purity 99.95%

System: propane; phases: Gas
Property: Thermal conductivity, W/m/K (Gas); method: Coaxial cylinder method
Temperature, K	Pressure, kPa	Thermal conductivity, W/m/K	uncertainty
369.12	3948	0.04135	0.00259
369.12	3960	0.0417	0.00261
369.12	4020	0.04343	0.00272
369.12	4040	0.04417	0.00277
369.12	4115	0.0486	0.00304
369.12	4120	0.04907	0.00307
369.12	4125	0.04956	0.0031
369.12	4130	0.05011	0.00314
369.12	4135	0.05071	0.00318
369.12	4140	0.05135	0.00322
369.12	4145	0.05207	0.00326
369.12	4150	0.0529	0.00332
369.12	4154	0.05366	0.02198
369.12	4156	0.05402	0.00339
369.12	4158	0.05445	0.01845
369.12	4160	0.05488	0.01679
369.12	4162	0.0554	0.01531
369.12	4164	0.05743	0.014
369.12	4166	0.06032	0.01284
369.12	4168	0.0639	0.01182
369.12	4170	0.06861	0.00574
369.12	4172	0.07431	0.00839
369.12	4180	0.11296	0.01166
369.12	4182	0.12704	0.01506
369.12	4184	0.14259	0.00953
369.12	4186	0.15875	0.01023
369.12	4188	0.17899	0.01127
369.12	4190	0.19558	0.01991
369.12	4192	0.21553	0.02032
368.46	2968	0.03214	0.00202
368.46	2972	0.03214	0.00202
368.46	2978	0.03213	0.00202
368.46	3000	0.03223	0.00203
368.46	3030	0.03238	0.00204
368.46	3100	0.03275	0.00206
368.46	3150	0.03302	0.00208
368.46	3200	0.03331	0.00209
368.46	3250	0.0336	0.00211
368.46	3300	0.03395	0.00213
368.46	3350	0.03428	0.00215
368.46	3400	0.03471	0.00218
368.46	3500	0.03552	0.00223
368.46	3575	0.03626	0.00228
368.46	3650	0.03704	0.00233
368.46	3700	0.03759	0.00236
368.46	3720	0.03785	0.00238
368.46	3730	0.03799	0.00238
368.46	3740	0.0381	0.00239
368.46	3750	0.03825	0.0024
368.46	3755	0.03832	0.0024
368.46	3765	0.03844	0.00241
368.46	3775	0.03858	0.00242
368.46	3785	0.03873	0.00243
368.46	3790	0.03878	0.00243
368.46	3800	0.03892	0.00244
368.46	3850	0.03974	0.00249
368.46	3900	0.04073	0.00255
368.46	3950	0.04194	0.00263
368.46	4000	0.04351	0.00273
368.46	4038	0.04518	0.00283
368.46	4060	0.04654	0.00321
368.46	4080	0.04809	0.00375
368.46	4096	0.04969	0.0237
368.46	4099	0.05013	0.01373
368.46	4102	0.0505	0.01052
368.46	4104	0.05078	0.01001
368.46	4106	0.05104	0.00737
368.46	4112	0.05196	0.00326
368.46	4114	0.05236	0.00329
368.46	4115	0.0525	0.0033
368.46	4116	0.0527	0.00331
368.46	4117	0.05291	0.00332
368.46	4118	0.05307	0.00333
368.46	4119	0.05335	0.00335
368.46	4120	0.05349	0.00343
368.46	4121	0.05378	0.00358
368.46	4122	0.05392	0.00382
368.46	4123	0.05418	0.00414
368.46	4124	0.0565	0.00471
368.46	4125	0.0589	0.00538
368.46	4126	0.06178	0.0062
368.46	4127	0.06494	0.00715
368.46	4128	0.06863	0.00792
368.46	4129	0.07284	0.00885
368.46	4130	0.07749	0.00984
368.46	4131	0.08276	0.01104
368.46	4132	0.08878	0.01234
368.46	4133	0.09573	0.01392
368.46	4134	0.10332	0.01589
368.46	4135	0.11224	0.01779
368.46	4136	0.12206	0.02019
368.46	4137	0.13373	0.02354
368.46	4138	0.14784	0.02467
368.46	4139	0.16193	0.02582
368.46	4140	0.17927	0.02701
368.46	4141	0.20222	0.02845
368.46	4142	0.21402	0.02916
368.46	4143	0.22718	0.03048
368.46	4144	0.24101	0.02962
367.32	4010	0.04654	0.01199
367.32	4012	0.04665	0.01207
367.32	4014	0.04687	0.0077
367.32	4025	0.04792	0.01228
367.32	4026	0.05076	0.01124
367.32	4027	0.05394	0.011
367.32	4028	0.05642	0.01015
367.32	4029	0.05957	0.00934
367.32	4030	0.06288	0.00876
367.32	4031	0.06655	0.00827
367.32	4032	0.06997	0.00783
367.32	4033	0.07414	0.0075
367.32	4034	0.07824	0.00722
367.32	4035	0.08231	0.00702
367.32	4036	0.08718	0.00692
367.32	4037	0.09169	0.00687
367.32	4038	0.09661	0.00689
367.32	4039	0.10183	0.00698
367.32	4040	0.1068	0.0071
367.32	4041	0.1118	0.00727
367.32	4042	0.11705	0.00749
367.32	4043	0.12255	0.00774
367.32	4044	0.1282	0.00803
367.32	4045	0.13395	0.00837
367.32	4046	0.13968	0.00868
367.32	4047	0.14502	0.009
367.32	4048	0.15138	0.00939
367.32	4050	0.16445	0.01024
367.32	4051	0.17143	0.01071
367.32	4052	0.17807	0.01116
367.32	4053	0.18556	0.01168
367.32	4054	0.19245	0.01214
367.32	4055	0.19982	0.01644
367.32	4056	0.20779	0.01785
367.32	4057	0.21529	0.0182
367.32	4058	0.22334	0.01867
367.32	4059	0.23153	0.01927
366.45	3595	0.03694	0.00232
366.45	3610	0.0371	0.00233
366.45	3880	0.04193	0.00263
366.45	3882	0.04198	0.00263
366.45	3908	0.04282	0.00268
366.45	3915	0.04316	0.0027
366.45	3920	0.04339	0.00272
366.45	3925	0.04359	0.00273
366.45	3930	0.04383	0.00275
366.45	3935	0.04406	0.00276
366.45	3937	0.04421	0.00277
366.45	3949	0.04486	0.00281
366.45	3950	0.04487	0.00281
366.45	3951	0.04497	0.00299
366.45	3952	0.04502	0.00305
366.45	3953	0.04507	0.02196
366.45	3954	0.04513	0.02105
366.45	3955	0.04847	0.02002
366.45	3956	0.0498	0.01903
366.45	3957	0.0512	0.01807
366.45	3958	0.05294	0.01716
366.45	3959	0.05452	0.01629
366.45	3960	0.05651	0.01546
366.45	3961	0.05848	0.01471
366.45	3962	0.06058	0.01399
366.45	3963	0.06307	0.01333
366.45	3964	0.06573	0.01271
366.45	3965	0.06816	0.0121
366.45	3966	0.07114	0.01154
366.45	3967	0.07411	0.01099
366.45	3968	0.07748	0.01056
366.45	3969	0.08195	0.01022
366.45	3970	0.08706	0.00988
366.45	3971	0.09339	0.01485
366.45	3972	0.09783	0.01414
366.45	3973	0.10166	0.01274
366.45	3974	0.10805	0.01089
366.45	3975	0.11401	0.00922
366.45	3976	0.11852	0.00837
366.45	3977	0.12385	0.0082
366.45	3978	0.1288	0.00824
366.45	3979	0.13408	0.0085
366.45	3980	0.13932	0.00884
366.45	3981	0.14493	0.00921
366.45	3982	0.15023	0.00965
366.45	3983	0.15587	0.01009
366.45	3984	0.16141	0.01052
366.45	3985	0.16611	0.01091
366.45	3986	0.17322	0.01145
366.45	3987	0.1794	0.01194
366.45	3988	0.18526	0.01427
366.45	3989	0.19163	0.01499
366.45	3990	0.19767	0.01579
366.45	3991	0.20452	0.01666
366.45	3992	0.21079	0.01753
366.45	3993	0.2174	0.01723
366.45	3994	0.224	0.01764
366.45	3995	0.23087	0.01775
366.45	3996	0.23886	0.01856
365.72	3306	0.03402	0.00214
365.72	3882	0.04279	0.01634
365.72	3883	0.04289	0.00947
365.72	3884	0.04575	0.00974
365.72	3885	0.04607	0.00975
365.72	3890	0.05157	0.00735
365.72	3891	0.05307	0.00682
365.72	3892	0.05526	0.00637
365.72	3893	0.0573	0.00646
365.72	3894	0.05933	0.00616
365.72	3895	0.06131	0.00594
365.72	3896	0.06342	0.00735
365.72	3897	0.06568	0.00779
365.72	3898	0.06813	0.00773
365.72	3899	0.07049	0.0075
365.72	3900	0.07276	0.00719
365.72	3901	0.07497	0.00689
365.72	3902	0.07801	0.00663
365.72	3903	0.0811	0.00642
365.72	3904	0.08423	0.00628
365.72	3905	0.08726	0.00621
365.72	3906	0.09038	0.00619
365.72	3907	0.09365	0.00621
365.72	3908	0.09697	0.00629
365.72	3909	0.10005	0.00639
365.72	3910	0.1033	0.00652
365.72	3911	0.10678	0.00669
365.72	3912	0.10989	0.00685
365.72	3913	0.1132	0.00704
365.72	3914	0.11643	0.00723
365.72	3915	0.1201	0.00746
365.72	3916	0.12343	0.00767
365.72	3917	0.12726	0.00792
365.72	3918	0.13066	0.00989
365.72	3919	0.1341	0.01007
365.72	3920	0.13792	0.0103
365.72	3921	0.14134	0.01047
365.72	3922	0.14536	0.01074
365.72	3923	0.14905	0.01098
365.72	3924	0.15272	0.0112
365.72	3925	0.15646	0.01145
365.72	3926	0.16047	0.01166
365.72	3927	0.16437	0.0119
365.72	3928	0.1684	0.01217
365.72	3929	0.17238	0.01241
365.72	3930	0.17633	0.01268
365.72	3931	0.18039	0.0129
365.72	3932	0.18457	0.01316
365.72	3933	0.18859	0.01341
365.72	3934	0.19316	0.01372
365.72	3935	0.19718	0.01396
365.72	3936	0.20149	0.01423
365.72	3937	0.20586	0.01454
365.72	3938	0.21043	0.01482
365.72	3939	0.21479	0.01512
365.72	3940	0.21933	0.01557
365.72	3941	0.22407	0.01586
365.72	3942	0.229	0.01615
365.72	3943	0.23362	0.01626
365.72	3944	0.24008	0.01697
364.65	3818	0.04192	0.00263
364.65	3819	0.04192	0.00294
364.65	3820	0.04192	0.00291
364.65	3826	0.04799	0.00401
364.65	3827	0.05041	0.00426
364.65	3828	0.05375	0.00599
364.65	3829	0.05683	0.00628
364.65	3830	0.05989	0.00376
364.65	3831	0.06347	0.00399
364.65	3832	0.0673	0.00425
364.65	3833	0.07157	0.00453
364.65	3834	0.0754	0.00478
364.65	3835	0.07969	0.00507
364.65	3836	0.08397	0.00536
364.65	3837	0.08791	0.00564
364.65	3838	0.09202	0.00592
364.65	3839	0.09605	0.00621
364.65	3840	0.10024	0.00651
364.65	3841	0.1044	0.00682
364.65	3842	0.10879	0.00714
364.65	3843	0.11313	0.00746
364.65	3844	0.1173	0.00778
364.65	3845	0.12181	0.00813
364.65	3846	0.12629	0.00848
364.65	3847	0.1307	0.00884
364.65	3848	0.13499	0.00919
364.65	3849	0.14003	0.0096
364.65	3850	0.14451	0.00999
364.65	3851	0.14911	0.0104
364.65	3852	0.1538	0.01082
364.65	3853	0.15843	0.01126
364.65	3854	0.16347	0.01174
364.65	3855	0.16926	0.01228
364.65	3856	0.17324	0.01273
364.65	3857	0.17816	0.01326
364.65	3858	0.18306	0.01381
364.65	3859	0.18806	0.01442
364.65	3860	0.1933	0.01503
364.65	3861	0.19831	0.01568
364.65	3862	0.20356	0.01638
364.65	3863	0.20895	0.01714
364.65	3864	0.21414	0.01793
364.65	3865	0.21941	0.01877
364.65	3866	0.22489	0.01614
364.65	3867	0.23035	0.01642
364.65	3868	0.23611	0.01691
364.65	3869	0.24044	0.01697

System: propane; phases: Liquid
Property: Thermal conductivity, W/m/K (Liquid); method: Coaxial cylinder method
Temperature, K	Pressure, kPa	Thermal conductivity, W/m/K	uncertainty
369.12	4194	0.21553	0.01697
369.12	4196	0.19167	0.01477
369.12	4198	0.17411	0.01318
369.12	4200	0.16057	0.01197
369.12	4202	0.14971	0.01101
369.12	4204	0.14068	0.01022
369.12	4206	0.13352	0.01102
369.12	4208	0.1259	0.01054
369.12	4210	0.1185	0.01009
369.12	4212	0.11215	0.0097
369.12	4213	0.10926	0.00903
369.12	4215	0.10352	0.00866
369.12	4228	0.08399	0.00733
369.12	4230	0.08176	0.00717
369.12	4232	0.07987	0.00661
369.12	4234	0.07806	0.00606
369.12	4236	0.07633	0.00575
369.12	4238	0.07491	0.00551
369.12	4240	0.07344	0.0053
369.12	4260	0.06913	0.00452
369.12	4280	0.06803	0.00442
369.12	4300	0.06726	0.00437
369.12	4320	0.06665	0.00433
369.12	4340	0.06616	0.0043
369.12	4380	0.06546	0.00425
369.12	4400	0.06519	0.00424
369.12	8500	0.0737	0.00476
369.12	9020	0.07453	0.00481
369.12	10028	0.07577	0.00488
369.12	14772	0.08097	0.0052
368.46	4145	0.26118	0.01907
368.46	4146	0.24047	0.01735
368.46	4147	0.22279	0.01601
368.46	4148	0.2065	0.01468
368.46	4149	0.19329	0.01371
368.46	4150	0.18089	0.01272
368.46	4151	0.17447	0.0123
368.46	4152	0.16861	0.01184
368.46	4153	0.16403	0.01156
368.46	4154	0.15812	0.0111
368.46	4155	0.15329	0.01081
368.46	4156	0.14895	0.01048
368.46	4157	0.14485	0.01147
368.46	4158	0.14097	0.01129
368.46	4159	0.13729	0.01093
368.46	4160	0.13379	0.01077
368.46	4161	0.13047	0.01063
368.46	4162	0.1273	0.01039
368.46	4163	0.12429	0.01027
368.46	4164	0.12141	0.01005
368.46	4165	0.12002	0.01001
368.46	4166	0.11663	0.00977
368.46	4167	0.11421	0.00967
368.46	4168	0.11201	0.00949
368.46	4169	0.10984	0.0094
368.46	4170	0.10786	0.00924
368.46	4171	0.10594	0.00916
368.46	4172	0.1041	0.009
368.46	4173	0.10231	0.00893
368.46	4174	0.10073	0.00878
368.46	4175	0.09915	0.00871
368.46	4176	0.09767	0.00857
368.46	4177	0.09622	0.00851
368.46	4178	0.09487	0.00838
368.46	4179	0.09359	0.00833
368.46	4180	0.0923	0.00819
368.46	4181	0.09113	0.00814
368.46	4182	0.09007	0.00775
368.46	4183	0.08899	0.00749
368.46	4184	0.08793	0.0072
368.46	4185	0.08689	0.00702
368.46	4186	0.08599	0.00681
368.46	4187	0.08507	0.00672
368.46	4188	0.08424	0.0066
368.46	4189	0.08337	0.00654
368.46	4190	0.08257	0.00642
368.46	4191	0.08179	0.00636
368.46	4192	0.08112	0.00627
368.46	4193	0.08042	0.00622
368.46	4194	0.07971	0.00614
368.46	4195	0.0791	0.0061
368.46	4196	0.0785	0.00583
368.46	4197	0.07791	0.00579
368.46	4198	0.07733	0.0056
368.46	4199	0.07676	0.00556
368.46	4200	0.07619	0.00541
368.46	4201	0.07577	0.00538
368.46	4202	0.07536	0.00527
368.46	4203	0.07481	0.00523
368.46	4204	0.07441	0.00514
368.46	4205	0.07401	0.00511
368.46	4206	0.07348	0.00503
368.46	4207	0.07318	0.00501
368.46	4208	0.07282	0.00494
368.46	4209	0.07244	0.00491
368.46	4210	0.07206	0.00484
368.46	4211	0.07181	0.00483
368.46	4212	0.07151	0.00478
368.46	4213	0.07116	0.00474
368.46	4214	0.07087	0.00472
368.46	4215	0.07063	0.00468
368.46	4216	0.07039	0.00466
368.46	4217	0.0701	0.00464
368.46	4218	0.06986	0.00462
368.46	4219	0.06962	0.00461
368.46	4220	0.06939	0.00459
368.46	4221	0.0692	0.00457
368.46	4222	0.06897	0.00451
368.46	4223	0.06874	0.0045
368.46	4224	0.0686	0.00448
368.46	4225	0.0684	0.00447
368.46	4226	0.06824	0.00446
368.46	4227	0.06804	0.00445
368.46	4228	0.0679	0.00443
368.46	4229	0.06777	0.00443
368.46	4230	0.06761	0.00441
368.46	4231	0.06749	0.0044
368.46	4232	0.06733	0.00439
368.46	4233	0.06722	0.00438
368.46	4234	0.06709	0.00437
368.46	4235	0.06698	0.00436
368.46	4236	0.06684	0.00435
368.46	4237	0.06677	0.00435
368.46	4238	0.06652	0.00433
368.46	4239	0.06652	0.00433
368.46	4240	0.06647	0.00432
368.46	4241	0.06643	0.00432
368.46	4242	0.06641	0.00432
368.46	4244	0.06637	0.00432
368.46	4246	0.0663	0.00431
368.46	4248	0.06624	0.00431
368.46	4250	0.06619	0.0043
368.46	4252	0.06614	0.0043
368.46	4254	0.06611	0.0043
368.46	4256	0.06607	0.00429
368.46	4258	0.066	0.00429
368.46	4260	0.06598	0.00429
368.46	4262	0.06591	0.00428
368.46	4264	0.06587	0.00428
368.46	4266	0.06583	0.00428
368.46	4268	0.06578	0.00427
368.46	4270	0.06574	0.00427
368.46	4272	0.06572	0.00427
368.46	4274	0.06568	0.00427
368.46	4276	0.06564	0.00427
368.46	4278	0.06564	0.00427
368.46	4280	0.06559	0.00426
368.46	4282	0.06555	0.00426
368.46	4284	0.0655	0.00426
368.46	4286	0.0655	0.00426
368.46	4288	0.06543	0.00425
368.46	4290	0.06539	0.00425
368.46	4292	0.06535	0.00425
368.46	4294	0.06533	0.00425
368.46	4296	0.06529	0.00424
368.46	4298	0.06529	0.00424
368.46	4300	0.06527	0.00424
368.46	4302	0.06525	0.00424
368.46	4304	0.06521	0.00424
368.46	4306	0.06516	0.00424
368.46	4308	0.06514	0.00423
368.46	4310	0.06514	0.00423
368.46	4312	0.0651	0.00423
368.46	4314	0.06505	0.00423
368.46	4316	0.06503	0.00423
368.46	4318	0.06501	0.00423
368.46	4320	0.06499	0.00423
368.46	4322	0.06499	0.00423
368.46	4324	0.06497	0.00422
368.46	4326	0.06493	0.00422
368.46	4328	0.06493	0.00422
368.46	4330	0.06489	0.00422
368.46	4332	0.06487	0.00422
368.46	4334	0.06484	0.00422
368.46	4336	0.06484	0.00422
368.46	4338	0.06482	0.00421
368.46	4340	0.06482	0.00421
368.46	4345	0.06476	0.00421
368.46	4350	0.06472	0.00421
368.46	4355	0.06468	0.00421
368.46	4360	0.06461	0.0042
368.46	4365	0.06458	0.0042
368.46	4368	0.06458	0.0042
368.46	4375	0.06454	0.0042
368.46	4380	0.0645	0.0042
368.46	4385	0.06446	0.00419
368.46	4390	0.06443	0.00419
368.46	4400	0.06439	0.00419
368.46	4450	0.06421	0.00418
368.46	4500	0.06413	0.00417
368.46	4550	0.06411	0.00417
368.46	4600	0.06411	0.00417
368.46	4650	0.06421	0.00418
368.46	4700	0.06427	0.00418
368.46	4750	0.06439	0.00419
368.46	4800	0.06451	0.0042
368.46	4900	0.06477	0.00421
368.46	4960	0.06496	0.00422
368.46	4965	0.065	0.00423
368.46	4967	0.065	0.00423
368.46	5000	0.06509	0.00423
368.46	5100	0.06542	0.00425
368.46	5200	0.06573	0.00427
368.46	5300	0.06605	0.00429
368.46	5400	0.06646	0.00431
368.46	5500	0.06674	0.00433
368.46	5600	0.06707	0.00435
368.46	5700	0.06732	0.00437
368.46	5800	0.06767	0.00439
368.46	5900	0.06794	0.0044
368.46	6010	0.06831	0.00443
368.46	6020	0.06831	0.00443
368.46	6200	0.06884	0.00446
368.46	6210	0.06886	0.00446
367.32	4060	0.23152	0.01735
367.32	4061	0.21637	0.01613
367.32	4062	0.20785	0.01504
367.32	4063	0.19985	0.01446
367.32	4064	0.19254	0.01393
367.32	4065	0.18567	0.01345
367.32	4066	0.18082	0.01312
367.32	4067	0.17612	0.01281
367.32	4068	0.17117	0.01228
367.32	4069	0.16691	0.012
367.32	4070	0.16272	0.01173
367.32	4071	0.15863	0.01147
367.32	4072	0.1546	0.01223
367.32	4073	0.15106	0.01183
367.32	4074	0.14753	0.01167
367.32	4075	0.14395	0.0115
367.32	4076	0.14054	0.01136
367.32	4077	0.13776	0.01124
367.32	4078	0.13447	0.01086
367.32	4079	0.13168	0.01074
367.32	4080	0.129	0.01065
367.32	4081	0.12697	0.01058
367.32	4082	0.12492	0.01051
367.32	4083	0.12301	0.01022
367.32	4084	0.12101	0.01015
367.32	4085	0.11888	0.01007
367.32	4086	0.11656	0.00998
367.32	4087	0.11502	0.00994
367.32	4088	0.11358	0.00968
367.32	4089	0.11178	0.00962
367.32	4090	0.11053	0.00958
367.32	4091	0.10903	0.00954
367.32	4092	0.10846	0.00953
367.32	4093	0.10679	0.00927
367.32	4094	0.10512	0.0092
367.32	4095	0.10423	0.00919
367.32	4096	0.10342	0.00916
367.32	4097	0.10275	0.00893
367.32	4098	0.10205	0.00864
367.32	4099	0.1016	0.00854
367.32	4100	0.10071	0.00843
367.32	4101	0.09965	0.00832
367.32	4102	0.09856	0.00823
367.32	4103	0.09755	0.00803
367.32	4104	0.09655	0.00795
367.32	4105	0.09562	0.00787
367.32	4106	0.0947	0.00781
367.32	4107	0.0938	0.00774
367.32	4108	0.09296	0.00758
367.32	4109	0.09214	0.00753
367.32	4110	0.09124	0.00747
367.32	4112	0.08967	0.00737
367.32	4114	0.0892	0.00725
367.32	4116	0.08674	0.00713
367.32	4118	0.08545	0.007
367.32	4120	0.08412	0.00694
367.32	4122	0.08294	0.00688
367.32	4124	0.08176	0.00678
367.32	4126	0.08067	0.00674
367.32	4128	0.07964	0.00665
367.32	4130	0.07867	0.00662
367.32	4132	0.07775	0.00659
367.32	4134	0.07688	0.00657
367.32	4136	0.07609	0.00645
367.32	4138	0.07523	0.00642
367.32	4140	0.07455	0.0064
367.32	4142	0.0738	0.00637
367.32	4144	0.07315	0.00636
367.32	4146	0.0725	0.00598
367.32	4148	0.07187	0.00554
367.32	4150	0.07132	0.00525
367.32	4152	0.07076	0.00511
367.32	4154	0.07028	0.00499
367.32	4156	0.06982	0.00487
367.32	4160	0.06894	0.00471
367.32	4162	0.06852	0.00465
367.32	4164	0.06814	0.0046
367.32	4166	0.06773	0.00453
367.32	4168	0.0674	0.00449
367.32	4170	0.06707	0.00446
367.32	4172	0.06674	0.00442
367.32	4174	0.06646	0.00439
367.32	4176	0.0662	0.00436
367.32	4178	0.06599	0.00434
367.32	4180	0.06574	0.00432
367.32	4182	0.06551	0.0043
367.32	4184	0.0653	0.00428
367.32	4186	0.06509	0.00426
367.32	4188	0.0649	0.00424
367.32	4190	0.06474	0.00423
367.32	4192	0.0647	0.00422
367.32	4194	0.06462	0.00422
367.32	4196	0.06458	0.00421
367.32	4198	0.06458	0.00421
367.32	4200	0.06456	0.00421
367.32	4202	0.06454	0.00421
367.32	4204	0.06452	0.0042
367.32	4206	0.0645	0.0042
367.32	4208	0.06448	0.0042
367.32	4210	0.06446	0.0042
367.32	4212	0.06444	0.00419
367.32	4214	0.06445	0.00419
367.32	4216	0.06443	0.00419
367.32	4218	0.06443	0.00419
367.32	4220	0.06439	0.00419
367.32	4222	0.06437	0.00419
367.32	4224	0.06435	0.00419
367.32	4226	0.06433	0.00419
367.32	4228	0.06435	0.00419
367.32	4230	0.06433	0.00419
367.32	4232	0.06431	0.00418
367.32	4234	0.06432	0.00418
367.32	4236	0.06432	0.00418
367.32	4238	0.0643	0.00418
367.32	4240	0.06428	0.00418
367.32	4250	0.06424	0.00418
367.32	4260	0.0642	0.00418
367.32	4270	0.06416	0.00417
367.32	4280	0.06413	0.00417
367.32	4290	0.06409	0.00417
367.32	4300	0.06407	0.00417
367.32	4350	0.06399	0.00416
367.32	4400	0.06399	0.00416
367.32	4450	0.06405	0.00417
367.32	4500	0.06413	0.00417
367.32	4550	0.06426	0.00418
367.32	4600	0.0644	0.00419
367.32	4650	0.06452	0.0042
367.32	4700	0.06466	0.0042
367.32	4770	0.06483	0.00422
367.32	4800	0.06498	0.00422
367.32	4850	0.06516	0.00424
367.32	4900	0.06532	0.00425
367.32	4950	0.06554	0.00426
367.32	4976	0.06564	0.00426
367.32	5077	0.06597	0.00428
366.45	3997	0.25348	0.02037
366.45	3998	0.23892	0.01873
366.45	3999	0.22611	0.01773
366.45	4000	0.21529	0.01689
366.45	4001	0.20509	0.0161
366.45	4002	0.19595	0.01541
366.45	4003	0.18792	0.0148
366.45	4004	0.18011	0.01422
366.45	4005	0.17336	0.01374
366.45	4006	0.16686	0.01266
366.45	4007	0.16121	0.01235
366.45	4008	0.15635	0.01202
366.45	4009	0.15133	0.01309
366.45	4010	0.14671	0.0129
366.45	4011	0.14248	0.01274
366.45	4012	0.13868	0.01243
366.45	4013	0.13453	0.01201
366.45	4014	0.13197	0.01194
366.45	4015	0.12983	0.01189
366.45	4016	0.12697	0.01181
366.45	4017	0.12409	0.01153
366.45	4018	0.12234	0.01113
366.45	4019	0.12021	0.01107
366.45	4020	0.11749	0.01099
366.45	4021	0.11451	0.01084
366.45	4022	0.11264	0.0108
366.45	4023	0.11083	0.01044
366.45	4024	0.10891	0.01039
366.45	4025	0.10699	0.0101
366.45	4026	0.1052	0.01005
366.45	4027	0.10351	0.01001
366.45	4028	0.10183	0.00971
366.45	4029	0.10034	0.00967
366.45	4030	0.09876	0.00964
366.45	4031	0.09718	0.0096
366.45	4032	0.09578	0.00942
366.45	4033	0.09438	0.00913
366.45	4034	0.0931	0.00891
366.45	4035	0.09185	0.00872
366.45	4036	0.09064	0.00855
366.45	4037	0.08946	0.00832
366.45	4038	0.0883	0.00801
366.45	4039	0.08718	0.0079
366.45	4040	0.08608	0.00779
366.45	4045	0.08137	0.00723
366.45	4050	0.0775	0.00687
366.45	4055	0.07438	0.00663
366.45	4057	0.07324	0.00657
366.45	4065	0.06968	0.00561
366.45	4070	0.06809	0.00522
366.45	4075	0.0668	0.00481
366.45	4080	0.0658	0.00461
366.45	4085	0.06508	0.00449
366.45	4090	0.06449	0.00439
366.45	4095	0.06445	0.00432
366.45	4100	0.06429	0.00429
366.45	4105	0.06425	0.00427
366.45	4110	0.06421	0.00424
366.45	4115	0.06418	0.00423
366.45	4120	0.06414	0.00421
366.45	4125	0.0641	0.0042
366.45	4130	0.06408	0.00419
366.45	4140	0.06408	0.00418
366.45	4150	0.06404	0.00417
366.45	4160	0.064	0.00417
366.45	4170	0.06396	0.00416
366.45	4180	0.06392	0.00416
366.45	4190	0.06394	0.00416
366.45	4200	0.06392	0.00416
366.45	4210	0.06392	0.00416
366.45	4220	0.06388	0.00416
366.45	4230	0.06388	0.00416
366.45	4240	0.06387	0.00416
366.45	4250	0.06387	0.00416
366.45	4260	0.0639	0.00416
366.45	4270	0.0639	0.00416
366.45	4280	0.0639	0.00416
366.45	4290	0.0639	0.00416
366.45	4300	0.06392	0.00416
366.45	4330	0.06396	0.00416
366.45	4400	0.0641	0.00417
366.45	4410	0.06416	0.00417
366.45	4477	0.06435	0.00419
366.45	4491	0.06439	0.00419
365.72	3945	0.26122	0.01933
365.72	3946	0.25019	0.01854
365.72	3947	0.23732	0.0177
365.72	3948	0.22404	0.01635
365.72	3949	0.21248	0.01552
365.72	3950	0.20054	0.01465
365.72	3951	0.19034	0.0139
365.72	3952	0.18049	0.01336
365.72	3953	0.17115	0.01242
365.72	3954	0.16223	0.0118
365.72	3955	0.15442	0.01125
365.72	3956	0.14665	0.01071
365.72	3957	0.13935	0.01161
365.72	3958	0.13351	0.01104
365.72	3959	0.12733	0.01076
365.72	3960	0.12169	0.01052
365.72	3961	0.11645	0.01031
365.72	3962	0.11389	0.01019
365.72	3963	0.11162	0.00983
365.72	3964	0.10938	0.00977
365.72	3965	0.10722	0.00973
365.72	3966	0.10521	0.00969
365.72	3967	0.10316	0.00965
365.72	3968	0.10129	0.0093
365.72	3969	0.09939	0.00911
365.72	3970	0.09778	0.00908
365.72	3971	0.09605	0.00905
365.72	3972	0.09456	0.00903
365.72	3973	0.09289	0.00873
365.72	3974	0.09145	0.0087
365.72	3975	0.09005	0.00869
365.72	3976	0.08869	0.00867
365.72	3977	0.08737	0.00857
365.72	3978	0.08613	0.00829
365.72	3979	0.08495	0.00828
365.72	3980	0.08381	0.00827
365.72	3985	0.07882	0.0075
365.72	3990	0.07478	0.00686
365.72	3995	0.07164	0.00606
365.72	4000	0.06921	0.00549
365.72	4010	0.066	0.00469
365.72	4014	0.06521	0.00446
365.72	4020	0.06438	0.00433
365.72	4025	0.06418	0.00428
365.72	4030	0.06394	0.00423
365.72	4035	0.06394	0.0042
365.72	4040	0.06389	0.00418
365.72	4045	0.06389	0.00417
365.72	4050	0.06389	0.00417
365.72	4055	0.06385	0.00416
365.72	4060	0.06385	0.00416
365.72	4080	0.06377	0.00415
365.72	4100	0.06375	0.00415
365.72	4120	0.06375	0.00415
365.72	4140	0.06377	0.00415
365.72	4160	0.06377	0.00415
365.72	4180	0.06377	0.00415
365.72	4200	0.06381	0.00415
365.72	4250	0.06392	0.00416
365.72	4275	0.06396	0.00416
365.72	4350	0.06412	0.00417
365.72	4400	0.06428	0.00418
365.72	4450	0.06442	0.00419
365.72	4500	0.06459	0.0042
365.72	4560	0.06484	0.00422
365.72	4580	0.0649	0.00422
365.72	4670	0.06519	0.00424
365.72	4690	0.06519	0.00424
365.72	3306	0.03402	0.0026
364.65	3870	0.26107	0.02362
364.65	3871	0.25476	0.02312
364.65	3872	0.249	0.02266
364.65	3873	0.24235	0.02203
364.65	3874	0.23658	0.02145
364.65	3875	0.23055	0.02086
364.65	3876	0.22458	0.02027
364.65	3877	0.21891	0.01972
364.65	3878	0.21266	0.01914
364.65	3879	0.20681	0.01859
364.65	3880	0.20082	0.01826
364.65	3881	0.1952	0.01796
364.65	3882	0.18985	0.01728
364.65	3883	0.18382	0.01704
364.65	3884	0.17783	0.01681
364.65	3885	0.17279	0.01663
364.65	3886	0.1668	0.01642
364.65	3887	0.16134	0.01534
364.65	3888	0.15557	0.01514
364.65	3889	0.15026	0.01497
364.65	3890	0.14437	0.01479
364.65	3891	0.13912	0.01463
364.65	3892	0.13369	0.0137
364.65	3893	0.1279	0.01353
364.65	3894	0.12242	0.01338
364.65	3895	0.11702	0.01325
364.65	3896	0.11155	0.01312
364.65	3897	0.10612	0.01229
364.65	3898	0.10076	0.01217
364.65	3899	0.09527	0.01206
364.65	3900	0.08987	0.01197
364.65	3901	0.08442	0.01188
364.65	3902	0.07906	0.01114
364.65	3903	0.07632	0.01111
364.65	3904	0.0735	0.01109
364.65	3905	0.07087	0.00476
364.65	3906	0.06861	0.01105
364.65	3907	0.06633	0.01037
364.65	3908	0.06424	0.01029
364.65	3909	0.06367	0.00431
364.65	3910	0.06367	0.01017
364.65	3911	0.06367	0.01012
364.65	3912	0.06367	0.00961
364.65	3913	0.06367	0.00956
364.65	3914	0.06367	0.00424
364.65	3915	0.0637	0.00947
364.65	3920	0.06366	0.00893
364.65	3925	0.06366	0.00856
364.65	3930	0.06362	0.00835
364.65	3935	0.06364	0.00831
364.65	3940	0.06364	0.00839
364.65	3945	0.06362	0.00847
364.65	3950	0.06362	0.00658
364.65	3955	0.06362	0.00535
364.65	3960	0.06362	0.00468
364.65	3965	0.06362	0.00445
364.65	3970	0.06362	0.00433
364.65	3975	0.0636	0.00426
364.65	3980	0.0636	0.00421
364.65	4000	0.06363	0.00415
364.65	4020	0.06367	0.00414
364.65	4040	0.06367	0.00414
364.65	4060	0.06371	0.00415
364.65	4080	0.06377	0.00415
364.65	4100	0.06381	0.00415
364.65	4120	0.06385	0.00416
364.65	4140	0.06391	0.00416
364.65	4160	0.06398	0.00416
364.65	4180	0.06404	0.00417
364.65	4200	0.06412	0.00417
364.65	4220	0.06418	0.00418
364.65	4240	0.06424	0.00418
364.65	4260	0.06432	0.00418
364.65	4280	0.06439	0.00419
364.65	4300	0.06445	0.00419
364.65	4349	0.06465	0.0042
364.65	4364	0.06469	0.00421
364.65	4372	0.06473	0.00421
364.65	4380	0.06475	0.00421
364.65	4388	0.06475	0.00421
