Measured thermophysical data. Densities and thermal conductivities of N-alkylpyridinium tetrafluoroborates at high pressure
Source: Fluid Phase Equilib., 2013, 10.1016/j.fluid.2012.12.008
Compound 1: 1-butylpyridinium tetrafluoroborate, C9H14BF4N, InChI=1S/C9H14N.BF4/c1-2-3-7-10-8-5-4-6-9-10;2-1(3,4)5/h4-6,8-9H,2-3,7H2,1H3;/q+1;-1
Compound 2: 1-hexylpyridinium tetrafluoroborate, C11H18BF4N, InChI=1S/C11H18N.BF4/c1-2-3-4-6-9-12-10-7-5-8-11-12;2-1(3,4)5/h5,7-8,10-11H,2-4,6,9H2,1H3;/q+1;-1
Compound 3: 1-octylpyridinium tetrafluoroborate, C13H22BF4N, InChI=1S/C13H22N.BF4/c1-2-3-4-5-6-8-11-14-12-9-7-10-13-14;2-1(3,4)5/h7,9-10,12-13H,2-6,8,11H2,1H3;/q+1;-1

System: 1-butylpyridinium tetrafluoroborate; phases: Liquid
Property: Mass density, kg/m3 (Liquid); method: Vibrating tube method
Temperature, K	Pressure, kPa	Mass density, kg/m3	uncertainty
293.15	100	1216.5	5
293.15	5000	1219	5
293.15	10000	1221.1	5.1
293.15	15000	1223.4	5.1
293.15	20000	1225.5	5.1
303.15	100	1209.5	5
303.15	5000	1211.9	5
303.15	10000	1214.3	5
303.15	15000	1216.4	5
303.15	20000	1218.7	5.1
313.15	100	1202.6	4.9
313.15	5000	1205.1	5
313.15	10000	1207.6	5
313.15	15000	1209.9	5
313.15	20000	1212	5
323.15	100	1196	4.9
323.15	5000	1198.5	4.9
323.15	10000	1200.9	5
323.15	15000	1203.2	5
323.15	20000	1205.5	5
333.15	100	1188.9	4.9
333.15	5000	1191.4	4.9
333.15	10000	1193.9	4.9
333.15	15000	1196.4	4.9
333.15	20000	1198.8	5
343.15	100	1182	4.9
343.15	5000	1184.5	4.9
343.15	10000	1187	4.9
343.15	15000	1189.5	4.9
343.15	20000	1191.9	4.9
353.15	100	1175.4	4.8
353.15	5000	1177.9	4.8
353.15	10000	1180.6	4.9
353.15	15000	1183.3	4.9
353.15	20000	1185.8	4.9

System: 1-butylpyridinium tetrafluoroborate; phases: Liquid
Property: Thermal conductivity, W/m/K (Liquid); method: Hot wire method
Temperature, K	Pressure, kPa	Thermal conductivity, W/m/K	uncertainty
294.2	100	0.171	0.009
294.2	10000	0.171	0.009
294.2	20000	0.173	0.009
314.3	100	0.17	0.009
314.3	10000	0.171	0.009
314.3	20000	0.173	0.009
334.3	100	0.169	0.009
334.3	10000	0.171	0.009
334.3	20000	0.172	0.009

System: 1-hexylpyridinium tetrafluoroborate; phases: Liquid
Property: Mass density, kg/m3 (Liquid); method: Vibrating tube method
Temperature, K	Pressure, kPa	Mass density, kg/m3	uncertainty
293.15	100	1157	4.8
293.15	5000	1159.5	4.8
293.15	10000	1161.8	4.8
293.15	15000	1164.1	4.8
293.15	20000	1166.5	4.8
303.15	100	1150.3	4.7
303.15	5000	1152.9	4.7
303.15	10000	1155.3	4.8
303.15	15000	1157.6	4.8
303.15	20000	1159.9	4.8
313.15	100	1143.5	4.7
313.15	5000	1146.1	4.7
313.15	10000	1148.7	4.7
313.15	15000	1151.1	4.7
313.15	20000	1153.4	4.8
323.15	100	1137	4.7
323.15	5000	1139.7	4.7
323.15	10000	1142.2	4.7
323.15	15000	1144.5	4.7
323.15	20000	1146.9	4.7
333.15	100	1130	4.6
333.15	5000	1132.7	4.6
333.15	10000	1135.2	4.7
333.15	15000	1137.8	4.7
333.15	20000	1140.3	4.7
343.15	100	1123.4	4.6
343.15	5000	1126	4.6
343.15	10000	1128.7	4.6
343.15	15000	1131.2	4.7
343.15	20000	1133.8	4.7
353.15	100	1116.8	4.6
353.15	5000	1119.5	4.6
353.15	10000	1122.3	4.6
353.15	15000	1125	4.6
353.15	20000	1127.6	4.6

System: 1-hexylpyridinium tetrafluoroborate; phases: Liquid
Property: Thermal conductivity, W/m/K (Liquid); method: Hot wire method
Temperature, K	Pressure, kPa	Thermal conductivity, W/m/K	uncertainty
294.2	100	0.163	0.009
294.2	10000	0.165	0.009
294.2	20000	0.166	0.009
314.3	100	0.163	0.009
314.3	10000	0.163	0.009
314.3	20000	0.164	0.009
334.3	100	0.161	0.008
334.3	10000	0.162	0.009
334.3	20000	0.163	0.009

System: 1-octylpyridinium tetrafluoroborate; phases: Liquid
Property: Mass density, kg/m3 (Liquid); method: Vibrating tube method
Temperature, K	Pressure, kPa	Mass density, kg/m3	uncertainty
293.15	100	1111.2	4.6
293.15	5000	1113.8	4.6
293.15	10000	1116.2	4.6
293.15	15000	1118.6	4.6
293.15	20000	1120.9	4.6
303.15	100	1104.4	4.5
303.15	5000	1107.1	4.5
303.15	10000	1109.6	4.6
303.15	15000	1112.1	4.6
303.15	20000	1114.4	4.6
313.15	100	1097.6	4.5
313.15	5000	1100.3	4.5
313.15	10000	1103	4.5
313.15	15000	1105.4	4.5
313.15	20000	1107.8	4.6
323.15	100	1091.1	4.5
323.15	5000	1093.9	4.5
323.15	10000	1096.6	4.5
323.15	15000	1099	4.5
323.15	20000	1101.5	4.5
333.15	100	1084.4	4.4
333.15	5000	1087.1	4.5
333.15	10000	1089.9	4.5
333.15	15000	1092.6	4.5
333.15	20000	1095.2	4.5
343.15	100	1077.9	4.4
343.15	5000	1080.7	4.4
343.15	10000	1083.6	4.4
343.15	15000	1086.2	4.5
343.15	20000	1089	4.5
353.15	100	1071.6	4.4
353.15	5000	1074.4	4.4
353.15	10000	1077.3	4.4
353.15	15000	1080.1	4.4
353.15	20000	1083	4.4

System: 1-octylpyridinium tetrafluoroborate; phases: Liquid
Property: Thermal conductivity, W/m/K (Liquid); method: Hot wire method
Temperature, K	Pressure, kPa	Thermal conductivity, W/m/K	uncertainty
294.2	100	0.16	0.008
294.2	10000	0.163	0.009
294.2	20000	0.165	0.009
314.3	100	0.16	0.008
314.3	10000	0.161	0.008
314.3	20000	0.164	0.009
334.3	100	0.158	0.008
334.3	10000	0.159	0.008
334.3	20000	0.161	0.008
