Measured thermophysical data. Determination and correlation of liquid liquid equilibria for four binary N,N-dimethylformamide + hydrocarbon systems
Source: Fluid Phase Equilib., 2007, 10.1016/j.fluid.2007.03.010
Compound 1: dimethylformamide, C3H7NO, InChI=1S/C3H7NO/c1-4(2)3-5/h3H,1-2H3
Compound 2: hexane, C6H14, InChI=1S/C6H14/c1-3-5-6-4-2/h3-6H2,1-2H3
Compound 3: heptane, C7H16, InChI=1S/C7H16/c1-3-5-7-6-4-2/h3-7H2,1-2H3
Compound 4: octane, C8H18, InChI=1S/C8H18/c1-3-5-7-8-6-4-2/h3-8H2,1-2H3
Compound 5: cyclohexane, C6H12, InChI=1S/C6H12/c1-2-4-6-5-3-1/h1-6H2

System: dimethylformamide + hexane; phases: Liquid mixture 1, Liquid mixture 2
Fixed: Pressure, kPa = 101
Property: Liquid-liquid equilibrium temperature, K (Liquid mixture 1); method: Laser scattering
Mole fraction of dimethylformamide	Liquid-liquid equilibrium temperature, K	uncertainty
0.0505	289.61	5.43
0.0655	303.17	4.29
0.075	306.63	1.77
0.1015	313.92	1.21
0.15	321.95	0.89
0.1985	327.88	0.78
0.2212	331	0.64
0.2459	332.73	0.52
0.2641	334.45	0.4
0.2976	335.8	0.27
0.341	336.77	0.22
0.3746	337.06	0.21
0.399	337.24	0.21
0.4228	337.45	0.2
0.4756	337.55	0.2
0.4863	337.54	0.2
0.519	337.53	0.2
0.5434	337.37	0.2
0.581	337.14	0.21
0.6017	336.87	0.22
0.6242	336.49	0.24
0.641	336.01	0.25
0.6723	335.25	0.28
0.6888	334.39	0.42
0.7136	332.73	0.47
0.7281	331.62	0.72
0.7515	328.47	0.73
0.7801	325.51	0.91
0.7987	321.33	1.17
0.8252	316.78	1.26
0.8488	310.87	1.77
0.8777	301.49	2.18
0.9004	292.07	2.5

System: dimethylformamide + heptane; phases: Liquid mixture 1, Liquid mixture 2
Fixed: Pressure, kPa = 101
Property: Liquid-liquid equilibrium temperature, K (Liquid mixture 1); method: Laser scattering
Mole fraction of dimethylformamide	Liquid-liquid equilibrium temperature, K	uncertainty
0.0405	285.97	4.34
0.0504	293.12	3.44
0.06	297.13	2.48
0.0709	301.58	2.15
0.0755	304.07	2.15
0.1007	311.83	1.81
0.1299	320.41	1.48
0.1495	323.51	0.98
0.1716	327.06	0.86
0.1856	328.49	0.73
0.2033	330.77	0.68
0.2198	332.21	0.63
0.2227	332.5	0.63
0.2509	335.46	0.54
0.2782	337.18	0.42
0.3056	338.85	0.43
0.3236	340.07	0.32
0.3516	340.85	0.28
0.3833	342.06	0.27
0.4097	342.57	0.22
0.4231	342.69	0.21
0.4524	342.95	0.2
0.4775	343.08	0.2
0.5045	343.21	0.2
0.5324	343.32	0.2
0.5535	343.35	0.2
0.5613	343.36	0.2
0.577	343.27	0.2
0.5963	343.18	0.21
0.6209	342.85	0.22
0.6485	342.39	0.22
0.6746	341.98	0.26
0.7004	340.9	0.32
0.7238	339.93	0.42
0.7259	339.83	0.42
0.7538	337.65	0.58
0.777	335.21	0.7
0.8009	332.35	0.82
0.8205	329.41	0.97
0.8316	327.47	1.19
0.8441	324.8	1.38
0.8459	324.28	1.38
0.8464	324.17	1.38
0.8509	323.05	1.45
0.8596	321.08	1.66
0.8759	316.26	1.89
0.8907	311.34	2.32
0.9054	304.87	2.8
0.917	299.08	3.05
0.9232	295.82	3.92
0.9269	293.2	3.76
0.9322	289.26	4.22
0.9359	287.24	3.98
0.9415	282.97	4.06

System: dimethylformamide + octane; phases: Liquid mixture 1, Liquid mixture 2
Fixed: Pressure, kPa = 101
Property: Liquid-liquid equilibrium temperature, K (Liquid mixture 1); method: Laser scattering
Mole fraction of dimethylformamide	Liquid-liquid equilibrium temperature, K	uncertainty
0.0449	298.27	1.57
0.0747	306.02	1.46
0.0896	308.9	1.56
0.1179	316.95	1.65
0.1335	320.83	1.2
0.1498	323.24	1.14
0.1694	327.51	1.13
0.1849	329.72	0.89
0.2044	332.54	0.75
0.2423	336.71	0.67
0.2694	339.5	0.61
0.2828	340.56	0.45
0.2968	341.32	0.4
0.2971	341.35	0.4
0.3151	342.43	0.47
0.3282	343.59	0.45
0.348	344.7	0.32
0.3696	345.36	0.28
0.3756	345.59	0.28
0.3985	346.37	0.29
0.4163	347	0.24
0.4484	347.56	0.22
0.4757	347.92	0.21
0.4884	348.06	0.22
0.4967	348.22	0.23
0.5326	348.48	0.2
0.5461	348.5	0.2
0.5517	348.49	0.2
0.5665	348.52	0.2
0.5787	348.46	0.2
0.595	348.36	0.2
0.6148	348.27	0.2
0.6154	348.38	0.2
0.6385	348.22	0.21
0.6633	348.01	0.21
0.6795	347.87	0.22
0.7027	347.48	0.25
0.7132	347.01	0.31
0.727	346.52	0.31
0.7431	345.85	0.37
0.7541	345.11	0.45
0.7725	343.9	0.46
0.7828	343.14	0.56
0.791	342.28	0.63
0.7983	341.6	0.59
0.8088	340.64	0.75
0.8174	339.27	0.9
0.8316	337.3	1
0.8455	334.69	1.2
0.8724	329.25	1.38
0.8886	324.75	2.04
0.9134	315.5	2.57
0.9266	308.21	3.45
0.9351	302.99	4.82
0.9479	291.32	5.47

System: dimethylformamide + cyclohexane; phases: Liquid mixture 1, Liquid mixture 2
Fixed: Pressure, kPa = 101
Property: Liquid-liquid equilibrium temperature, K (Liquid mixture 1); method: Laser scattering
Mole fraction of dimethylformamide	Liquid-liquid equilibrium temperature, K	uncertainty
0.1009	303.68	1.29
0.1119	306.02	1.16
0.12	307.29	0.86
0.1317	308.79	0.86
0.1424	310.42	0.98
0.1524	312.09	0.71
0.1757	314.35	0.53
0.2072	316.62	0.42
0.2325	317.79	0.34
0.2456	318.35	0.29
0.2678	319.02	0.26
0.278	319.26	0.23
0.2861	319.39	0.23
0.2882	319.46	0.23
0.297	319.61	0.21
0.3111	319.75	0.21
0.3261	319.87	0.2
0.3335	319.91	0.2
0.3462	319.97	0.2
0.3547	319.99	0.2
0.3639	320	0.2
0.3769	320.03	0.2
0.3895	320.04	0.2
0.4026	320.04	0.2
0.4027	320.04	0.2
0.4133	320.03	0.2
0.4284	320.03	0.2
0.4389	320.02	0.2
0.4517	320.01	0.2
0.4606	320	0.2
0.4692	319.98	0.2
0.4839	319.94	0.2
0.4989	319.85	0.2
0.5154	319.79	0.2
0.5273	319.66	0.21
0.5435	319.56	0.21
0.5551	319.34	0.23
0.5609	319.25	0.23
0.5824	318.78	0.24
0.5983	318.42	0.28
0.6182	317.65	0.34
0.6418	316.44	0.41
0.6727	314.37	0.47
0.6951	312.64	0.54
0.7042	311.7	0.77
0.7191	309.71	0.76
0.7298	308.57	0.9
0.7404	306.61	1.06
0.7585	303.58	1.02
