Measured thermophysical data. A novel static analytical apparatus for phase equilibrium measurements
Source: Fluid Phase Equilib., 2013, 10.1016/j.fluid.2012.11.008
Compound 1: 2-methoxy-2-methylbutane, C6H14O, InChI=1S/C6H14O/c1-5-6(2,3)7-4/h5H2,1-4H3, purity 97%
Compound 2: 2-methoxy-2-methylpropane, C5H12O, InChI=1S/C5H12O/c1-5(2,3)6-4/h1-4H3, purity 99.8%
Compound 3: acetonitrile, C2H3N, InChI=1S/C2H3N/c1-2-3/h1H3, purity 99.9%
Compound 4: ethanol, C2H6O, InChI=1S/C2H6O/c1-2-3/h3H,2H2,1H3, purity 99.5%
Compound 5: ethyl acetate, C4H8O2, InChI=1S/C4H8O2/c1-3-6-4(2)5/h3H2,1-2H3, purity 99.8%
Compound 6: heptane, C7H16, InChI=1S/C7H16/c1-3-5-7-6-4-2/h3-7H2,1-2H3, purity 99.5%
Compound 7: hexane, C6H14, InChI=1S/C6H14/c1-3-5-6-4-2/h3-6H2,1-2H3, purity 99.9%
Compound 8: methanol, CH4O, InChI=1S/CH4O/c1-2/h2H,1H3, purity 99.9%
Compound 9: 2-methyl-2-pentene, C6H12, InChI=1S/C6H12/c1-4-5-6(2)3/h5H,4H2,1-3H3, purity 98%

System: 2-methoxy-2-methylbutane; phases: Liquid
Property: Refractive index (Na D-line) (Liquid); method: Standard Abbe refractometry
Temperature, K	Pressure, kPa	Refractive index (Na D-line)	uncertainty
293.15	101.325	1.3886	0.0009

System: 2-methoxy-2-methylpropane; phases: Liquid
Property: Refractive index (Na D-line) (Liquid); method: Standard Abbe refractometry
Temperature, K	Pressure, kPa	Refractive index (Na D-line)	uncertainty
293.15	101.325	1.3689	0.0007

System: acetonitrile; phases: Liquid
Property: Refractive index (Na D-line) (Liquid); method: Standard Abbe refractometry
Temperature, K	Pressure, kPa	Refractive index (Na D-line)	uncertainty
293.15	101.325	1.3439	0.0007

System: ethanol; phases: Liquid
Property: Refractive index (Na D-line) (Liquid); method: Standard Abbe refractometry
Temperature, K	Pressure, kPa	Refractive index (Na D-line)	uncertainty
293.15	101.325	1.3618	0.0007

System: ethyl acetate; phases: Liquid
Property: Refractive index (Na D-line) (Liquid); method: Standard Abbe refractometry
Temperature, K	Pressure, kPa	Refractive index (Na D-line)	uncertainty
293.15	101.325	1.3724	0.0007

System: heptane; phases: Liquid
Property: Refractive index (Na D-line) (Liquid); method: Standard Abbe refractometry
Temperature, K	Pressure, kPa	Refractive index (Na D-line)	uncertainty
293.15	101.325	1.3878	0.0007

System: hexane; phases: Liquid
Property: Refractive index (Na D-line) (Liquid); method: Standard Abbe refractometry
Temperature, K	Pressure, kPa	Refractive index (Na D-line)	uncertainty
293.15	101.325	1.3752	0.0007

System: methanol; phases: Liquid
Property: Refractive index (Na D-line) (Liquid); method: Standard Abbe refractometry
Temperature, K	Pressure, kPa	Refractive index (Na D-line)	uncertainty
293.15	101.325	1.3287	0.0007

System: 2-methyl-2-pentene; phases: Liquid
Property: Refractive index (Na D-line) (Liquid); method: Standard Abbe refractometry
Temperature, K	Pressure, kPa	Refractive index (Na D-line)	uncertainty
293.15	101.325	1.4003	0.0008

System: ethyl acetate + 2-methoxy-2-methylpropane; phases: Gas, Liquid
Fixed: Temperature, K = 373.17
Property: Vapor or sublimation pressure, kPa (Gas); method: Closed cell (Static) method
Mole fraction of 2-methoxy-2-methylpropane	Vapor or sublimation pressure, kPa	uncertainty
0	203.9	2.2
0.077	221.2	3.9
0.149	237.7	3.8
0.239	254.3	3.7
0.298	265.4	3.6
0.39	280.2	3.6
0.465	293.5	3.7
0.548	306.5	3.7
0.6	314.1	3.6
0.685	325.9	3.6
0.765	335.5	3.6
0.826	343.6	3.6
1	363.3	3.4

System: ethyl acetate + 2-methoxy-2-methylpropane; phases: Gas, Liquid
Fixed: Temperature, K = 373.17
Property: Mole fraction of 2-methoxy-2-methylpropane (Gas); method: ROLSI capillary
Mole fraction of 2-methoxy-2-methylpropane	Mole fraction of 2-methoxy-2-methylpropane	uncertainty
0	0	
0.077	0.139	0.139
0.149	0.252	0.252
0.239	0.363	0.363
0.298	0.43	0.43
0.39	0.522	0.478
0.465	0.592	0.408
0.548	0.664	0.336
0.6	0.703	0.297
0.685	0.777	0.223
0.765	0.833	0.167
0.826	0.873	0.127
1	1	

System: acetonitrile + hexane; phases: Liquid mixture 1, Liquid mixture 2
Fixed: Pressure, kPa = 350
Property: Mole fraction of hexane (Liquid mixture 1); method: OTHER
Temperature, K	Mole fraction of hexane	uncertainty
348.22	0.312	0.006
344.43	0.277	0.006
337.55	0.221	0.006
331.36	0.176	0.006
321.94	0.109	0.006
313.13	0.062	0.006

System: acetonitrile + hexane; phases: Liquid mixture 2, Liquid mixture 1
Fixed: Pressure, kPa = 350
Property: Mole fraction of hexane (Liquid mixture 2); method: OTHER
Temperature, K	Mole fraction of hexane	uncertainty
348.22	0.654	0.007
344.43	0.729	0.006
337.55	0.805	0.006
331.36	0.845	0.006
321.94	0.889	0.006
313.13	0.919	0.006

System: acetonitrile + hexane; phases: Liquid, Gas
Fixed: Temperature, K = 348.2
Property: Vapor or sublimation pressure, kPa (Liquid); method: Closed cell (Static) method
Mole fraction of hexane	Vapor or sublimation pressure, kPa	uncertainty
0	83.7	0.4
0.042	138	0.6
0.064	151.5	0.6
0.081	162.2	0.7
0.099	171.8	0.7
0.132	184	0.8
0.312	188	0.8
0.654	188	0.8
0.872	184.4	0.8
0.916	176.2	0.7
0.934	169.1	0.7
0.971	156.5	0.7
0.989	140.5	0.6
1	125.3	0.5

System: acetonitrile + hexane; phases: Gas, Liquid
Fixed: Temperature, K = 348.2
Property: Mole fraction of hexane (Gas); method: Chromatography
Mole fraction of hexane	Mole fraction of hexane	uncertainty
0	0	
0.042	0.475	0.006
0.064	0.525	0.006
0.081	0.565	0.005
0.099	0.595	0.005
0.132	0.624	0.005
0.312	0.65	0.004
0.654	0.65	0.004
0.872	0.674	0.004
0.916	0.714	0.003
0.934	0.756	0.003
0.971	0.815	0.002
0.989	0.899	0.001
1	1	

System: methanol + heptane; phases: Liquid mixture 1, Liquid mixture 2
Fixed: Pressure, kPa = 350
Property: Mole fraction of methanol (Liquid mixture 1); method: OTHER
Temperature, K	Mole fraction of methanol	uncertainty
308.41	0.887	0.006
312.96	0.867	0.006
317.98	0.844	0.006

System: methanol + heptane; phases: Liquid mixture 2, Liquid mixture 1
Fixed: Pressure, kPa = 350
Property: Mole fraction of methanol (Liquid mixture 2); method: OTHER
Temperature, K	Mole fraction of methanol	uncertainty
308.41	0.244	0.006
312.96	0.289	0.006
317.98	0.339	0.006

System: ethanol + 2-methoxy-2-methylbutane; phases: Liquid, Gas
Property: Vapor or sublimation pressure, kPa (Liquid); method: Closed cell (Static) method
Mole fraction of ethanol	Temperature, K	Vapor or sublimation pressure, kPa	uncertainty
0	398.25	285.8	2.7
0.026	398.25	307.4	4.2
0.049	398.25	323	4
0.11	398.25	364.9	4
0.19	398.25	409.7	3.9
0.318	398.25	460.1	3.8
0.453	398.25	496.3	3.8
0.547	398.25	512.6	3.7
0.732	398.25	528.8	3.6
0.769	398.25	529.6	3.7
0.855	398.25	526.9	3.6
0.895	398.25	523.2	3.6
0.935	398.25	517.3	3.7
1	398.25	498.3	3.5
0	413.19	400	3.2
0.044	413.19	453.1	5.7
0.09	413.19	501.7	5.5
0.15	413.19	557.2	5.2
0.213	413.19	605.1	5
0.303	413.19	662	4.9
0.4	413.19	708	4.8
0.479	413.19	736.1	4.5
0.622	413.19	771.1	4.4
0.691	413.19	782.6	4.3
0.783	413.19	790.7	4.2
0.936	413.19	779.8	4
1	413.19	757	3.9

System: ethanol + 2-methoxy-2-methylbutane; phases: Gas, Liquid
Property: Mole fraction of ethanol (Gas); method: ROLSI capillary
Mole fraction of ethanol	Temperature, K	Mole fraction of ethanol	uncertainty
0	398.25	0	
0.026	398.25	0.094	0.094
0.049	398.25	0.155	0.155
0.11	398.25	0.291	0.291
0.19	398.25	0.413	0.413
0.318	398.25	0.517	0.483
0.453	398.25	0.606	0.394
0.547	398.25	0.654	0.346
0.732	398.25	0.75	0.25
0.769	398.25	0.77	0.23
0.855	398.25	0.832	0.168
0.895	398.25	0.872	0.128
0.935	398.25	0.909	0.091
1	398.25	1	
0	413.19	0	
0.044	413.19	0.143	0.143
0.09	413.19	0.253	0.253
0.15	413.19	0.356	0.356
0.213	413.19	0.449	0.449
0.303	413.19	0.522	0.478
0.4	413.19	0.591	0.409
0.479	413.19	0.646	0.354
0.622	413.19	0.715	0.285
0.691	413.19	0.75	0.25
0.783	413.19	0.781	0.219
0.936	413.19	0.921	0.079
1	413.19	1	

System: ethanol + 2-methyl-2-pentene; phases: Liquid, Gas
Fixed: Temperature, K = 383.2
Property: Vapor or sublimation pressure, kPa (Liquid); method: Closed cell (Static) method
Mole fraction of 2-methyl-2-pentene	Vapor or sublimation pressure, kPa	uncertainty
0	315.6	1.4
0.077	399.9	1.7
0.128	435.3	1.9
0.194	465.1	2.1
0.296	488.2	2.2
0.457	501.1	2.4
0.59	501	2.5
0.719	491.9	2.6
0.788	480.1	2.6
0.865	455	2.5
0.931	412.8	2.3
0.955	389.8	2.2
1	329.6	1.9

System: ethanol + 2-methyl-2-pentene; phases: Gas, Liquid
Fixed: Temperature, K = 383.2
Property: Mole fraction of 2-methyl-2-pentene (Gas); method: ROLSI capillary
Mole fraction of 2-methyl-2-pentene	Mole fraction of 2-methyl-2-pentene	uncertainty
0	0	
0.077	0.271	0.001
0.128	0.336	0.002
0.194	0.409	0.004
0.296	0.472	0.005
0.457	0.535	0.007
0.59	0.562	0.007
0.719	0.597	0.007
0.788	0.616	0.007
0.865	0.676	0.007
0.931	0.778	0.006
0.955	0.824	0.005
1	1	
