Measured thermophysical data. Water activities of sodium molybdate solutions at different temperatures
Source: Fluid Phase Equilib., 2018, 10.1016/j.fluid.2018.08.002
Compound 1: sodium molybdate, MoNa2O4, InChI=1S/Mo.2Na.4O/q;2*+1;;;2*-1, purity 99.5%
Compound 2: water, H2O, InChI=1S/H2O/h1H2, purity 99.8%

System: sodium molybdate + water; phases: Liquid
Fixed: Pressure, kPa = 101.3
Property: (Relative) activity of water (Liquid); method: Osmometer
Temperature, K	Molality, mol/kg of sodium molybdate	(Relative) activity of water	uncertainty
303.15	0.06	0.9967	0.0387
303.15	0.08	0.9959	0.0387
303.15	0.1	0.995	0.0387
303.15	0.2	0.9907	0.0387
303.15	0.4	0.9822	0.0387
303.15	0.6	0.9739	0.0387
303.15	0.8	0.9657	0.0387
303.15	1	0.9575	0.0387
303.15	1.2	0.9491	0.0387
303.15	1.4	0.9405	0.0387
303.15	1.6	0.9316	0.0387
303.15	1.8	0.9222	0.0387
303.15	2	0.9122	0.0387
303.15	2.2	0.9016	0.0387
313.15	0.06	0.9976	0.0387
313.15	0.08	0.9969	0.0387
313.15	0.1	0.9961	0.0387
313.15	0.2	0.9922	0.0387
313.15	0.4	0.9843	0.0387
313.15	0.6	0.976	0.0387
313.15	0.8	0.9674	0.0387
313.15	1	0.9585	0.0387
313.15	1.2	0.9493	0.0387
313.15	1.4	0.9398	0.0387
313.15	1.6	0.9299	0.0387
313.15	1.8	0.9198	0.0387
313.15	2	0.9093	0.0387
313.15	2.2	0.8985	0.0387
323.15	0.06	0.9977	0.0387
323.15	0.08	0.997	0.0387
323.15	0.1	0.9963	0.0387
323.15	0.2	0.9925	0.0387
323.15	0.4	0.9844	0.0387
323.15	0.6	0.9759	0.0387
323.15	0.8	0.9669	0.0387
323.15	1	0.9575	0.0387
323.15	1.2	0.9479	0.0387
323.15	1.4	0.938	0.0387
323.15	1.6	0.9281	0.0387
323.15	1.8	0.9182	0.0387
323.15	2	0.9083	0.0387
323.15	2.2	0.8986	0.0387
333.15	0.06	0.9972	0.0387
333.15	0.08	0.9963	0.0387
333.15	0.1	0.9954	0.0387
333.15	0.2	0.9912	0.0387
333.15	0.4	0.9827	0.0387
333.15	0.6	0.9742	0.0387
333.15	0.8	0.9656	0.0387
333.15	1	0.9568	0.0387
333.15	1.2	0.9478	0.0387
333.15	1.4	0.9385	0.0387
333.15	1.6	0.9289	0.0387
333.15	1.8	0.9189	0.0387
333.15	2	0.9085	0.0387
333.15	2.2	0.8976	0.0387
