Measured thermophysical data. Effect of cosolvent on the phase behavior of binary and ternary mixture for the poly(2- dimethylaminoethyl methacrylate) in supercritical solvents
Source: Fluid Phase Equilib., 2014, 10.1016/j.fluid.2014.08.016
Compound 1: carbon dioxide, CO2, InChI=1S/CO2/c2-1-3, purity 99.9%
Compound 2: 2-(dimethylamino)ethyl methylpropenoate, C8H15NO2, InChI=1S/C8H15NO2/c1-7(2)8(10)11-6-5-9(3)4/h1,5-6H2,2-4H3, purity 99%

System: carbon dioxide + 2-(dimethylamino)ethyl methylpropenoate; phases: Liquid, Gas
Property: Boiling temperature at pressure P, K (Liquid); method: Closed cell (Static) method
Mole fraction of 2-(dimethylamino)ethyl methylpropenoate	Pressure, kPa	Boiling temperature at pressure P, K	uncertainty
0.05	8860	313.2	0.5
0.068	8640	313.2	0.5
0.08	8620	313.2	0.4
0.108	8500	313.2	0.5
0.132	8280	313.2	0.5
0.16	8140	313.2	0.5
0.203	7660	313.2	0.5
0.278	7040	313.2	0.7
0.373	6240	313.2	0.8
0.435	5590	313.2	0.9
0.562	4660	313.2	1.7
0.651	4170	313.2	2.1
0.068	11900	333.2	0.5
0.08	11900	333.2	0.5
0.108	11480	333.2	0.5
0.132	11280	333.2	0.5
0.16	10930	333.2	0.6
0.203	10380	333.2	0.7
0.278	8930	333.2	0.7
0.373	7790	333.2	0.9
0.435	6950	333.2	1
0.562	5350	333.2	1.5
0.08	14720	353.2	0.6
0.108	14590	353.2	0.6
0.132	14380	353.2	0.6
0.16	13730	353.2	0.6
0.203	12790	353.2	0.7
0.278	11280	353.2	0.7
0.373	9480	353.2	0.9
0.435	8310	353.2	1
0.562	6280	353.2	1.4
0.651	5280	353.2	2
0.108	17280	373.2	0.6
0.132	16930	373.2	0.8
0.16	16410	373.2	0.7
0.203	15520	373.2	0.7
0.278	13350	373.2	0.8
0.373	11280	373.2	0.9
0.435	9640	373.2	1.1
0.562	7140	373.2	1.5
0.651	5970	373.2	1.9
0.132	18720	393.2	0.9
0.16	18660	393.2	0.7
0.203	17790	393.2	0.8
0.278	15520	393.2	0.8
0.373	13000	393.2	0.9
0.435	11000	393.2	1.2
0.562	7970	393.2	1.6
0.651	6620	393.2	1.9

System: carbon dioxide + 2-(dimethylamino)ethyl methylpropenoate; phases: Gas, Liquid
Property: Vapor or sublimation pressure, kPa (Gas); method: Closed cell (Static) method
Mole fraction of 2-(dimethylamino)ethyl methylpropenoate	Temperature, K	Vapor or sublimation pressure, kPa	uncertainty
0.05	333.2	12100	60
0.05	353.2	14690	60
0.05	373.2	16590	70
0.068	373.2	16660	70
0.08	373.2	17000	80
0.05	393.2	17760	80
0.068	393.2	18310	90
0.08	393.2	18790	100

System: carbon dioxide + 2-(dimethylamino)ethyl methylpropenoate; phases: Liquid, Gas
Property: Critical pressure, kPa (Liquid); method: Direct measurement
Mole fraction of 2-(dimethylamino)ethyl methylpropenoate	Critical pressure, kPa	uncertainty
0.068	14830	170
0.108	19070	170
