Measured thermophysical data. Isobaric vapor-liquid equilibrium for binary and ternary systems with toluene, 2-methoxyethanol and dimethyl sulfoxide at 101.3 kPa
Source: Fluid Phase Equilib., 2014, 10.1016/j.fluid.2014.04.025
Compound 1: toluene, C7H8, InChI=1S/C7H8/c1-7-5-3-2-4-6-7/h2-6H,1H3, purity 99.5%
Compound 2: 2-methoxyethan-1-ol, C3H8O2, InChI=1S/C3H8O2/c1-5-3-2-4/h4H,2-3H2,1H3, purity 99.5%
Compound 3: dimethyl sulfoxide, C2H6OS, InChI=1S/C2H6OS/c1-4(2)3/h1-2H3, purity 99.5%

System: toluene; phases: Liquid, Gas
Property: Normal boiling temperature, K (Liquid); method: Ebulliometric method (Recirculating still)
Normal boiling temperature, K	uncertainty
383.73	0.2

System: toluene; phases: Liquid
Property: Mass density, kg/m3 (Liquid); method: Densimeter
Temperature, K	Pressure, kPa	Mass density, kg/m3	uncertainty
293.15	101.325	867.02	0.11

System: toluene; phases: Liquid
Property: Refractive index (Na D-line) (Liquid); method: Standard Abbe refractometry
Temperature, K	Pressure, kPa	Refractive index (Na D-line)	uncertainty
293.15	101.325	1.49678	0.00033

System: 2-methoxyethan-1-ol; phases: Liquid, Gas
Property: Normal boiling temperature, K (Liquid); method: Ebulliometric method (Recirculating still)
Normal boiling temperature, K	uncertainty
397.63	0.2

System: 2-methoxyethan-1-ol; phases: Liquid
Property: Mass density, kg/m3 (Liquid); method: Densimeter
Temperature, K	Pressure, kPa	Mass density, kg/m3	uncertainty
293.15	101.325	964.74	0.12

System: 2-methoxyethan-1-ol; phases: Liquid
Property: Refractive index (Na D-line) (Liquid); method: Standard Abbe refractometry
Temperature, K	Pressure, kPa	Refractive index (Na D-line)	uncertainty
293.15	101.325	1.40234	0.00034

System: dimethyl sulfoxide; phases: Liquid, Gas
Property: Normal boiling temperature, K (Liquid); method: Ebulliometric method (Recirculating still)
Normal boiling temperature, K	uncertainty
462.18	0.2

System: dimethyl sulfoxide; phases: Liquid
Property: Mass density, kg/m3 (Liquid); method: Densimeter
Temperature, K	Pressure, kPa	Mass density, kg/m3	uncertainty
293.15	101.325	1100.36	0.14

System: dimethyl sulfoxide; phases: Liquid
Property: Refractive index (Na D-line) (Liquid); method: Standard Abbe refractometry
Temperature, K	Pressure, kPa	Refractive index (Na D-line)	uncertainty
293.15	101.325	1.47987	0.00034

System: toluene + 2-methoxyethan-1-ol; phases: Liquid, Gas
Fixed: Pressure, kPa = 101.3
Property: Boiling temperature at pressure P, K (Liquid); method: Ebulliometric method (Recirculating still)
Mole fraction of toluene	Boiling temperature at pressure P, K	uncertainty
0.971	382.76	0.11
0.9294	381.47	0.1
0.8586	380.08	0.1
0.8044	379.47	0.09
0.7616	379.27	0.09
0.7131	379.18	0.09
0.649	379.12	0.09
0.5903	379.21	0.09
0.511	379.64	0.09
0.3404	381.26	0.09
0.2246	383.6	0.11
0.1383	386.79	0.12
0.0998	389.06	0.16
0.0595	391.9	0.18
0.0261	394.94	0.2

System: toluene + 2-methoxyethan-1-ol; phases: Gas, Liquid
Fixed: Pressure, kPa = 101.3
Property: Mole fraction of toluene (Gas); method: Chromatography
Mole fraction of toluene	Mole fraction of toluene	uncertainty
0.971	0.945	0.0037
0.9294	0.8807	0.0035
0.8586	0.7949	0.0034
0.8044	0.7502	0.0032
0.7616	0.7311	0.0032
0.7131	0.708	0.0033
0.649	0.6836	0.0035
0.5903	0.6601	0.0037
0.511	0.62	0.0039
0.3404	0.5557	0.0045
0.2246	0.4755	0.0049
0.1383	0.3745	0.0046
0.0998	0.3085	0.0053
0.0595	0.213	0.0061
0.0261	0.1045	0.0069

System: toluene + 2-methoxyethan-1-ol; phases: Liquid, Gas
Property: Azeotropic temperature, K (Liquid); method: By X=Y
Mole fraction of toluene	Azeotropic temperature, K	uncertainty
0.702	379.08	0.23

System: toluene + 2-methoxyethan-1-ol; phases: Liquid, Gas
Property: Azeotropic pressure, kPa (Liquid); method: By X=Y
Mole fraction of toluene	Azeotropic pressure, kPa	uncertainty
0.702	101.3	0.6

System: dimethyl sulfoxide + 2-methoxyethan-1-ol; phases: Liquid, Gas
Fixed: Pressure, kPa = 101.3
Property: Boiling temperature at pressure P, K (Liquid); method: Ebulliometric method (Recirculating still)
Mole fraction of 2-methoxyethan-1-ol	Boiling temperature at pressure P, K	uncertainty
0.8554	403.31	0.12
0.7455	407.91	0.13
0.6568	412.41	0.14
0.5775	416.99	0.15
0.4946	422.24	0.16
0.4449	425.42	0.16
0.4117	427.88	0.17
0.3527	432.15	0.18
0.2846	437.53	0.18
0.2266	442.09	0.19
0.1781	446.32	0.2
0.0995	453.71	0.22
0.0549	458.52	0.23

System: dimethyl sulfoxide + 2-methoxyethan-1-ol; phases: Gas, Liquid
Fixed: Pressure, kPa = 101.3
Property: Mole fraction of 2-methoxyethan-1-ol (Gas); method: Chromatography
Mole fraction of 2-methoxyethan-1-ol	Mole fraction of 2-methoxyethan-1-ol	uncertainty
0.8554	0.9831	0.002
0.7455	0.9648	0.0021
0.6568	0.9429	0.0022
0.5775	0.9139	0.0023
0.4946	0.8695	0.0026
0.4449	0.8378	0.0029
0.4117	0.8103	0.0032
0.3527	0.7563	0.0037
0.2846	0.6759	0.0044
0.2266	0.5869	0.0053
0.1781	0.4994	0.0064
0.0995	0.3204	0.0061
0.0549	0.1862	0.0065

System: dimethyl sulfoxide + toluene; phases: Liquid, Gas
Fixed: Pressure, kPa = 101.3
Property: Boiling temperature at pressure P, K (Liquid); method: Ebulliometric method (Recirculating still)
Mole fraction of toluene	Boiling temperature at pressure P, K	uncertainty
0.942	384.69	0.1
0.8956	385.68	0.1
0.8066	387.42	0.1
0.719	389.17	0.1
0.6314	391.15	0.11
0.3824	399.95	0.13
0.2195	411.12	0.18
0.1519	418.78	0.28
0.0974	427.14	0.41
0.0514	439.23	0.59
0.0321	446.65	0.8
0.0239	450.22	0.96
0.0157	454.45	1.04

System: dimethyl sulfoxide + toluene; phases: Gas, Liquid
Fixed: Pressure, kPa = 101.3
Property: Mole fraction of toluene (Gas); method: Chromatography
Mole fraction of toluene	Mole fraction of toluene	uncertainty
0.942	0.9899	0.002
0.8956	0.982	0.002
0.8066	0.9718	0.002
0.719	0.9621	0.002
0.6314	0.9507	0.0021
0.3824	0.9056	0.0022
0.2195	0.8306	0.0027
0.1519	0.7632	0.0038
0.0974	0.6752	0.0061
0.0514	0.5102	0.0098
0.0321	0.3832	0.0145
0.0239	0.3148	0.0191
0.0157	0.2289	0.0211

System: dimethyl sulfoxide + toluene + 2-methoxyethan-1-ol; phases: Liquid, Gas
Fixed: Pressure, kPa = 101.3
Property: Mole fraction of 2-methoxyethan-1-ol (Liquid); method: Chromatography
Property: Mole fraction of 2-methoxyethan-1-ol (Gas); method: Chromatography
Property: Mole fraction of toluene (Gas); method: Chromatography
Temperature, K	Mole fraction of toluene	Mole fraction of 2-methoxyethan-1-ol	uncertainty	Mole fraction of 2-methoxyethan-1-ol	uncertainty	Mole fraction of toluene	uncertainty
385.71	0.2675	0.6339	0.0033	0.4867	0.0047	0.5082	
386.48	0.5161	0.2716	0.0028	0.2289	0.0028	0.7539	
387.12	0.3709	0.4234	0.0036	0.3291	0.0034	0.6573	
387.45	0.6314	0.1429	0.0022	0.1414	0.0023	0.8373	
392.03	0.1874	0.6134	0.0034	0.5389	0.0045	0.4471	
392.36	0.1377	0.7126	0.0029	0.6197	0.0039	0.3689	
393.73	0.4842	0.0997	0.0021	0.0955	0.0022	0.8559	
396.04	0.3321	0.2597	0.0027	0.2111	0.0027	0.7392	
397.77	0.1254	0.6142	0.0034	0.6154	0.0039	0.3598	
400.69	0.1905	0.4113	0.0035	0.4285	0.0042	0.5238	
403.32	0.2908	0.098	0.0021	0.0763	0.0021	0.8256	
406.67	0.0785	0.5339	0.0039	0.6355	0.0038	0.3097	
409.8	0.1812	0.2116	0.0025	0.2492	0.0029	0.6373	
411.62	0.1084	0.3604	0.0033	0.4449	0.0043	0.4502	
412.53	0.188	0.0805	0.0021	0.0783	0.0021	0.7621	
414.71	0.1077	0.2959	0.0029	0.3797	0.0038	0.4867	
421.75	0.0431	0.3683	0.0033	0.6022	0.004	0.2398	
430.41	0.0654	0.1249	0.0022	0.2015	0.0026	0.4892	

System: dimethyl sulfoxide + toluene + 2-methoxyethan-1-ol; phases: Liquid, Gas
Fixed: Pressure, kPa = 101.3
Property: Boiling temperature at pressure P, K (Liquid); method: Ebulliometric method (Recirculating still)
Mole fraction of toluene	Mole fraction of 2-methoxyethan-1-ol	Boiling temperature at pressure P, K	uncertainty
0.2675	0.6339	385.71	0.18
0.5161	0.2716	386.48	0.15
0.3709	0.4234	387.12	0.19
0.6314	0.1429	387.45	0.13
0.1874	0.6134	392.03	0.23
0.1377	0.7126	392.36	0.2
0.4842	0.0997	393.73	0.15
0.3321	0.2597	396.04	0.2
0.1254	0.6142	397.77	0.23
0.1905	0.4113	400.69	0.19
0.2908	0.098	403.32	0.17
0.0785	0.5339	406.67	0.24
0.1812	0.2116	409.8	0.19
0.1084	0.3604	411.62	0.35
0.188	0.0805	412.53	0.2
0.1077	0.2959	414.71	0.22
0.0431	0.3683	421.75	0.35
0.0654	0.1249	430.41	0.36
