Measured thermophysical data. Surface tension, density and composition in the methane-pentane system at high pressure
Source: Fluid Phase Equilib., 2018, 10.1016/j.fluid.2017.10.023
Compound 1: methane, CH4, InChI=1S/CH4/h1H4, purity 99.995%
Compound 2: pentane, C5H12, InChI=1S/C5H12/c1-3-5-4-2/h3-5H2,1-2H3, purity 99.5%

System: methane + pentane; phases: Liquid, Gas
Fixed: Temperature, K = 313.15
Property: Mass density, kg/m3 (Liquid); method: Vibrating tube method
Mole fraction of methane	Mass density, kg/m3	uncertainty
0.048	594.4	1.1
0.101	581	1.2
0.181	558.8	1.3
0.263	533.1	1.4
0.351	501.8	1.7
0.43	466.3	1.9
0.501	431.5	2

System: methane + pentane; phases: Gas, Liquid
Fixed: Temperature, K = 313.15
Property: Mass density, kg/m3 (Gas); method: Vibrating tube method
Mole fraction of methane	Mass density, kg/m3	uncertainty
0.048	16.7	0.9
0.101	27.2	0.8
0.181	40	0.9
0.263	59.3	1.2
0.351	86.2	1.4
0.43	116	1.8
0.501	151.4	2

System: methane + pentane; phases: Liquid, Gas
Fixed: Temperature, K = 313.15
Property: Surface tension liquid-gas, N/m (Liquid); method: Pendant drop shape
Mole fraction of methane	Surface tension liquid-gas, N/m	uncertainty
0.048	0.012	0.0002
0.101	0.01013	0.00021
0.181	0.00761	0.00018
0.263	0.00537	0.00016
0.351	0.00326	0.00014
0.43	0.00168	0.00011
0.501	0.000761	0.0001

System: methane + pentane; phases: Gas, Liquid
Fixed: Temperature, K = 313.15
Property: Vapor or sublimation pressure, kPa (Gas); method: Closed cell (Static) method
Mole fraction of methane	Vapor or sublimation pressure, kPa	uncertainty
0.048	1100	2003
0.101	2600	2004
0.181	5100	2004
0.263	7600	2004
0.351	10100	2004
0.43	12600	2004
0.501	14200	2004

System: methane + pentane; phases: Gas, Liquid
Fixed: Temperature, K = 313.15
Property: Mole fraction of methane (Gas); method: Chromatography
Mole fraction of methane	Mole fraction of methane	uncertainty
0.048	0.823	0.006
0.101	0.886	0.005
0.181	0.923	0.004
0.263	0.925	0.004
0.351	0.918	0.004
0.43	0.896	0.004
0.501	0.871	0.004
