Measured thermophysical data. High selective water/butan-1-ol separation on investigation of limiting activity coefficients with [P8,8,8,8][[NTf2] ionic liquid
Source: Fluid Phase Equilib., 2017, 10.1016/j.fluid.2017.06.001
Compound 1: tetraoctylphosphonium bis((trifluoromethyl)sulfonyl)amide, C34H68F6NO4PS2, InChI=1S/C32H68P.C2F6NO4S2/c1-5-9-13-17-21-25-29-33(30-26-22-18-14-10-6-2,31-27-23-19-15-11-7-3)32-28-24-20-16-12-8-4;3-1(4,5)14(10,11)9-15(12,13)2(6,7)8/h5-32H2,1-4H3;/q+1;-1
Compound 2: ethylbenzene, C8H10, InChI=1S/C8H10/c1-2-8-6-4-3-5-7-8/h3-7H,2H2,1H3, purity 99.8%
Compound 3: 1,2-dimethylbenzene, C8H10, InChI=1S/C8H10/c1-7-5-3-4-6-8(7)2/h3-6H,1-2H3, purity 99%
Compound 4: 1,3-dimethylbenzene, C8H10, InChI=1S/C8H10/c1-7-4-3-5-8(2)6-7/h3-6H,1-2H3, purity 99%
Compound 5: 1,4-dimethylbenzene, C8H10, InChI=1S/C8H10/c1-7-3-5-8(2)6-4-7/h3-6H,1-2H3, purity 99%
Compound 6: propylbenzene, C9H12, InChI=1S/C9H12/c1-2-6-9-7-4-3-5-8-9/h3-5,7-8H,2,6H2,1H3, purity 98%
Compound 7: isopropylbenzene, C9H12, InChI=1S/C9H12/c1-8(2)9-6-4-3-5-7-9/h3-8H,1-2H3, purity 99%
Compound 8: styrene, C8H8, InChI=1S/C8H8/c1-2-8-6-4-3-5-7-8/h2-7H,1H2, purity 99.9%
Compound 9: (1-methylethenyl)benzene, C9H10, InChI=1S/C9H10/c1-8(2)9-6-4-3-5-7-9/h3-7H,1H2,2H3, purity 99%
Compound 10: thiophene, C4H4S, InChI=1S/C4H4S/c1-2-4-5-3-1/h1-4H, purity 99%
Compound 11: pyridine, C5H5N, InChI=1S/C5H5N/c1-2-4-6-5-3-1/h1-5H, purity 99.8%
Compound 12: methanol, CH4O, InChI=1S/CH4O/c1-2/h2H,1H3, purity 99.9%
Compound 13: ethanol, C2H6O, InChI=1S/C2H6O/c1-2-3/h3H,2H2,1H3, purity 99.8%
Compound 14: propan-1-ol, C3H8O, InChI=1S/C3H8O/c1-2-3-4/h4H,2-3H2,1H3, purity 99.9%
Compound 15: propan-2-ol, C3H8O, InChI=1S/C3H8O/c1-3(2)4/h3-4H,1-2H3, purity 99.9%
Compound 16: butan-1-ol, C4H10O, InChI=1S/C4H10O/c1-2-3-4-5/h5H,2-4H2,1H3, purity 99.8%
Compound 17: 2-methyl-1-propanol, C4H10O, InChI=1S/C4H10O/c1-4(2)3-5/h4-5H,3H2,1-2H3, purity 99.8%
Compound 18: 2-methylpropan-2-ol, C4H10O, InChI=1S/C4H10O/c1-4(2,3)5/h5H,1-3H3, purity 99.7%
Compound 19: pentan-1-ol, C5H12O, InChI=1S/C5H12O/c1-2-3-4-5-6/h6H,2-5H2,1H3, purity 99.8%
Compound 20: water, H2O, InChI=1S/H2O/h1H2
Compound 21: methyl ethanoate, C3H6O2, InChI=1S/C3H6O2/c1-3(4)5-2/h1-2H3, purity 99.8%
Compound 22: methyl propanoate, C4H8O2, InChI=1S/C4H8O2/c1-3-4(5)6-2/h3H2,1-2H3, purity 99%
Compound 23: methyl butanoate, C5H10O2, InChI=1S/C5H10O2/c1-3-4-5(6)7-2/h3-4H2,1-2H3, purity 99%
Compound 24: ethyl acetate, C4H8O2, InChI=1S/C4H8O2/c1-3-6-4(2)5/h3H2,1-2H3, purity 99.8%
Compound 25: pentane, C5H12, InChI=1S/C5H12/c1-3-5-4-2/h3-5H2,1-2H3, purity 99%
Compound 26: hexane, C6H14, InChI=1S/C6H14/c1-3-5-6-4-2/h3-6H2,1-2H3, purity 99%
Compound 27: 3-methylpentane, C6H14, InChI=1S/C6H14/c1-4-6(3)5-2/h6H,4-5H2,1-3H3, purity 99%
Compound 28: 2,2-dimethylbutane, C6H14, InChI=1S/C6H14/c1-5-6(2,3)4/h5H2,1-4H3, purity 99%
Compound 29: heptane, C7H16, InChI=1S/C7H16/c1-3-5-7-6-4-2/h3-7H2,1-2H3, purity 99.5%
Compound 30: octane, C8H18, InChI=1S/C8H18/c1-3-5-7-8-6-4-2/h3-8H2,1-2H3, purity 99%
Compound 31: 2,2,4-trimethylpentane, C8H18, InChI=1S/C8H18/c1-7(2)6-8(3,4)5/h7H,6H2,1-5H3, purity 99%
Compound 32: nonane, C9H20, InChI=1S/C9H20/c1-3-5-7-9-8-6-4-2/h3-9H2,1-2H3, purity 99%
Compound 33: decane, C10H22, InChI=1S/C10H22/c1-3-5-7-9-10-8-6-4-2/h3-10H2,1-2H3, purity 99%
Compound 34: cyclopentane, C5H10, InChI=1S/C5H10/c1-2-4-5-3-1/h1-5H2, purity 99%
Compound 35: cyclohexane, C6H12, InChI=1S/C6H12/c1-2-4-6-5-3-1/h1-6H2, purity 99%
Compound 36: methylcyclohexane, C7H14, InChI=1S/C7H14/c1-7-5-3-2-4-6-7/h7H,2-6H2,1H3, purity 99%
Compound 37: cycloheptane, C7H14, InChI=1S/C7H14/c1-2-4-6-7-5-3-1/h1-7H2, purity 98%
Compound 38: cyclooctane, C8H16, InChI=1S/C8H16/c1-2-4-6-8-7-5-3-1/h1-8H2, purity 99%
Compound 39: 1-pentene, C5H10, InChI=1S/C5H10/c1-3-5-4-2/h3H,1,4-5H2,2H3, purity 98.5%
Compound 40: hex-1-ene, C6H12, InChI=1S/C6H12/c1-3-5-6-4-2/h3H,1,4-6H2,2H3, purity 99%
Compound 41: cyclohexene, C6H10, InChI=1S/C6H10/c1-2-4-6-5-3-1/h1-2H,3-6H2, purity 99%
Compound 42: 1-heptene, C7H14, InChI=1S/C7H14/c1-3-5-7-6-4-2/h3H,1,4-7H2,2H3, purity 99%
Compound 43: oct-1-ene, C8H16, InChI=1S/C8H16/c1-3-5-7-8-6-4-2/h3H,1,4-8H2,2H3, purity 98%
Compound 44: 1-decene, C10H20, InChI=1S/C10H20/c1-3-5-7-9-10-8-6-4-2/h3H,1,4-10H2,2H3, purity 97%
Compound 45: 1-pentyne, C5H8, InChI=1S/C5H8/c1-3-5-4-2/h1H,4-5H2,2H3, purity 99%
Compound 46: 1-hexyne, C6H10, InChI=1S/C6H10/c1-3-5-6-4-2/h1H,4-6H2,2H3, purity 97%
Compound 47: 1-heptyne, C7H12, InChI=1S/C7H12/c1-3-5-7-6-4-2/h1H,4-7H2,2H3, purity 98%
Compound 48: 1-octyne, C8H14, InChI=1S/C8H14/c1-3-5-7-8-6-4-2/h1H,4-8H2,2H3, purity 97%
Compound 49: benzene, C6H6, InChI=1S/C6H6/c1-2-4-6-5-3-1/h1-6H, purity 99.8%
Compound 50: toluene, C7H8, InChI=1S/C7H8/c1-7-5-3-2-4-6-7/h2-6H,1H3, purity 99.8%
Compound 51: tetrahydrofuran, C4H8O, InChI=1S/C4H8O/c1-2-4-5-3-1/h1-4H2, purity 99.9%
Compound 52: 1,4-dioxane, C4H8O2, InChI=1S/C4H8O2/c1-2-6-4-3-5-1/h1-4H2, purity 99.8%
Compound 53: 2-methoxy-2-methylpropane, C5H12O, InChI=1S/C5H12O/c1-5(2,3)6-4/h1-4H3, purity 99.8%
Compound 54: 2-ethoxy-2-methylpropane, C6H14O, InChI=1S/C6H14O/c1-5-7-6(2,3)4/h5H2,1-4H3, purity 99%
Compound 55: 2-methoxy-2-methylbutane, C6H14O, InChI=1S/C6H14O/c1-5-6(2,3)7-4/h5H2,1-4H3, purity 97%
Compound 56: diethyl ether, C4H10O, InChI=1S/C4H10O/c1-3-5-4-2/h3-4H2,1-2H3, purity 99.9%
Compound 57: dipropyl ether, C6H14O, InChI=1S/C6H14O/c1-3-5-7-6-4-2/h3-6H2,1-2H3, purity 99%
Compound 58: diisopropyl ether, C6H14O, InChI=1S/C6H14O/c1-5(2)7-6(3)4/h5-6H,1-4H3, purity 99%
Compound 59: dibutyl ether, C8H18O, InChI=1S/C8H18O/c1-3-5-7-9-8-6-4-2/h3-8H2,1-2H3, purity 99.3%
Compound 60: acetone, C3H6O, InChI=1S/C3H6O/c1-3(2)4/h1-2H3, purity 99.9%
Compound 61: pentan-2-one, C5H10O, InChI=1S/C5H10O/c1-3-4-5(2)6/h3-4H2,1-2H3, purity 99%
Compound 62: pentan-3-one, C5H10O, InChI=1S/C5H10O/c1-3-5(6)4-2/h3-4H2,1-2H3, purity 99%
Compound 63: butanal, C4H8O, InChI=1S/C4H8O/c1-2-3-4-5/h4H,2-3H2,1H3, purity 99%
Compound 64: acetonitrile, C2H3N, InChI=1S/C2H3N/c1-2-3/h1H3, purity 99.9%
Compound 65: 1-nitropropane, C3H7NO2, InChI=1S/C3H7NO2/c1-2-3-4(5)6/h2-3H2,1H3, purity 98.5%
Compound 66: butan-2-ol, C4H10O, InChI=1S/C4H10O/c1-3-4(2)5/h4-5H,3H2,1-2H3, purity 99.5%

System: tetraoctylphosphonium bis((trifluoromethyl)sulfonyl)amide; phases: Crystal, Liquid, Air at 1 atmosphere
Property: Normal melting temperature, K (Crystal); method: DTA
Normal melting temperature, K	uncertainty
284.3	0.4

System: tetraoctylphosphonium bis((trifluoromethyl)sulfonyl)amide; phases: Crystal, Liquid, Air at 1 atmosphere
Property: Molar enthalpy of transition or fusion, kJ/mol (Crystal); method: DSC
Molar enthalpy of transition or fusion, kJ/mol	uncertainty
284.3	5.6

System: tetraoctylphosphonium bis((trifluoromethyl)sulfonyl)amide; phases: Liquid
Fixed: Pressure, kPa = 101.325
Property: Mass density, kg/m3 (Liquid); method: Vibrating tube method
Temperature, K	Mass density, kg/m3	uncertainty
298.15	1066.6	6.3
303.15	1063	6.2
308.15	1059.4	6.2
313.15	1055.8	6.2
318.15	1052.2	6.1
323.15	1048.6	6.1
328.15	1044.9	6.1
333.15	1041.3	6
338.15	1037.8	6
343.15	1034.2	6
348.15	1030.6	5.9
353.15	1027	5.9
358.15	1023.4	5.9
363.15	1019.9	5.8
368.15	1016.3	5.8

System: tetraoctylphosphonium bis((trifluoromethyl)sulfonyl)amide; phases: Liquid
Fixed: Pressure, kPa = 101.325
Property: Viscosity, Pa*s (Liquid); method: Capillary tube (Ostwald; Ubbelohde) method
Temperature, K	Viscosity, Pa*s	uncertainty
298.15	0.446	0.02
308.15	0.254	0.01
318.15	0.154	0.005
328.15	0.0982	0.0028
338.15	0.0659	0.0018
348.15	0.0452	0.0012
358.15	0.0328	0.0009

System: pentane + tetraoctylphosphonium bis((trifluoromethyl)sulfonyl)amide; phases: Liquid
Fixed: Pressure, kPa = 101
Fixed: Mole fraction of pentane = 0
Property: Activity coefficient of pentane (Liquid); method: Chromatography
Temperature, K	Activity coefficient of pentane	uncertainty
318.15	1.08	0.07
328.15	1.11	0.07
338.15	1.13	0.07
348.15	1.15	0.07
358.15	1.18	0.08
368.15	1.19	0.08

System: hexane + tetraoctylphosphonium bis((trifluoromethyl)sulfonyl)amide; phases: Liquid
Fixed: Pressure, kPa = 101
Fixed: Mole fraction of hexane = 0
Property: Activity coefficient of hexane (Liquid); method: Chromatography
Temperature, K	Activity coefficient of hexane	uncertainty
318.15	1.21	0.08
328.15	1.23	0.08
338.15	1.26	0.08
348.15	1.28	0.08
358.15	1.31	0.09
368.15	1.33	0.09

System: 3-methylpentane + tetraoctylphosphonium bis((trifluoromethyl)sulfonyl)amide; phases: Liquid
Fixed: Pressure, kPa = 101
Fixed: Mole fraction of 3-methylpentane = 0
Property: Activity coefficient of 3-methylpentane (Liquid); method: Chromatography
Temperature, K	Activity coefficient of 3-methylpentane	uncertainty
318.15	1.13	0.07
328.15	1.16	0.07
338.15	1.18	0.08
348.15	1.21	0.08
358.15	1.23	0.08
368.15	1.25	0.08

System: 2,2-dimethylbutane + tetraoctylphosphonium bis((trifluoromethyl)sulfonyl)amide; phases: Liquid
Fixed: Pressure, kPa = 101
Fixed: Mole fraction of 2,2-dimethylbutane = 0
Property: Activity coefficient of 2,2-dimethylbutane (Liquid); method: Chromatography
Temperature, K	Activity coefficient of 2,2-dimethylbutane	uncertainty
318.15	1.17	0.07
328.15	1.2	0.08
338.15	1.22	0.08
348.15	1.25	0.08
358.15	1.27	0.08
368.15	1.3	0.08

System: heptane + tetraoctylphosphonium bis((trifluoromethyl)sulfonyl)amide; phases: Liquid
Fixed: Pressure, kPa = 101
Fixed: Mole fraction of heptane = 0
Property: Activity coefficient of heptane (Liquid); method: Chromatography
Temperature, K	Activity coefficient of heptane	uncertainty
318.15	1.4	0.09
328.15	1.42	0.09
338.15	1.44	0.09
348.15	1.46	0.1
358.15	1.48	0.1
368.15	1.5	0.1

System: octane + tetraoctylphosphonium bis((trifluoromethyl)sulfonyl)amide; phases: Liquid
Fixed: Pressure, kPa = 101
Fixed: Mole fraction of octane = 0
Property: Activity coefficient of octane (Liquid); method: Chromatography
Temperature, K	Activity coefficient of octane	uncertainty
318.15	1.59	0.11
328.15	1.62	0.11
338.15	1.64	0.11
348.15	1.66	0.11
358.15	1.67	0.11
368.15	1.69	0.11

System: 2,2,4-trimethylpentane + tetraoctylphosphonium bis((trifluoromethyl)sulfonyl)amide; phases: Liquid
Fixed: Pressure, kPa = 101
Fixed: Mole fraction of 2,2,4-trimethylpentane = 0
Property: Activity coefficient of 2,2,4-trimethylpentane (Liquid); method: Chromatography
Temperature, K	Activity coefficient of 2,2,4-trimethylpentane	uncertainty
318.15	1.4	0.09
328.15	1.43	0.09
338.15	1.46	0.1
348.15	1.48	0.1
358.15	1.5	0.1
368.15	1.52	0.1

System: nonane + tetraoctylphosphonium bis((trifluoromethyl)sulfonyl)amide; phases: Liquid
Fixed: Pressure, kPa = 101
Fixed: Mole fraction of nonane = 0
Property: Activity coefficient of nonane (Liquid); method: Chromatography
Temperature, K	Activity coefficient of nonane	uncertainty
318.15	1.84	0.12
328.15	1.86	0.13
338.15	1.87	0.13
348.15	1.88	0.13
358.15	1.9	0.13
368.15	1.91	0.13

System: decane + tetraoctylphosphonium bis((trifluoromethyl)sulfonyl)amide; phases: Liquid
Fixed: Pressure, kPa = 101
Fixed: Mole fraction of decane = 0
Property: Activity coefficient of decane (Liquid); method: Chromatography
Temperature, K	Activity coefficient of decane	uncertainty
318.15	2.09	0.14
328.15	2.12	0.14
338.15	2.14	0.15
348.15	2.17	0.15
358.15	2.19	0.15
368.15	2.21	0.15

System: cyclopentane + tetraoctylphosphonium bis((trifluoromethyl)sulfonyl)amide; phases: Liquid
Fixed: Pressure, kPa = 101
Fixed: Mole fraction of cyclopentane = 0
Property: Activity coefficient of cyclopentane (Liquid); method: Chromatography
Temperature, K	Activity coefficient of cyclopentane	uncertainty
318.15	0.761	0.05
328.15	0.775	0.051
338.15	0.787	0.051
348.15	0.8	0.052
358.15	0.813	0.053
368.15	0.824	0.053

System: cyclohexane + tetraoctylphosphonium bis((trifluoromethyl)sulfonyl)amide; phases: Liquid
Fixed: Pressure, kPa = 101
Fixed: Mole fraction of cyclohexane = 0
Property: Activity coefficient of cyclohexane (Liquid); method: Chromatography
Temperature, K	Activity coefficient of cyclohexane	uncertainty
318.15	0.879	0.056
328.15	0.889	0.057
338.15	0.898	0.057
348.15	0.908	0.058
358.15	0.917	0.058
368.15	0.926	0.059

System: methylcyclohexane + tetraoctylphosphonium bis((trifluoromethyl)sulfonyl)amide; phases: Liquid
Fixed: Pressure, kPa = 101
Fixed: Mole fraction of methylcyclohexane = 0
Property: Activity coefficient of methylcyclohexane (Liquid); method: Chromatography
Temperature, K	Activity coefficient of methylcyclohexane	uncertainty
318.15	0.985	0.062
328.15	0.999	0.062
338.15	1.01	0.06
348.15	1.03	0.06
358.15	1.04	0.07
368.15	1.05	0.07

System: cycloheptane + tetraoctylphosphonium bis((trifluoromethyl)sulfonyl)amide; phases: Liquid
Fixed: Pressure, kPa = 101
Fixed: Mole fraction of cycloheptane = 0
Property: Activity coefficient of cycloheptane (Liquid); method: Chromatography
Temperature, K	Activity coefficient of cycloheptane	uncertainty
318.15	0.962	0.06
328.15	0.971	0.061
338.15	0.982	0.062
348.15	0.994	0.062
358.15	1	0.06
368.15	1.01	0.06

System: 1-pentene + tetraoctylphosphonium bis((trifluoromethyl)sulfonyl)amide; phases: Liquid
Fixed: Pressure, kPa = 101
Fixed: Mole fraction of 1-pentene = 0
Property: Activity coefficient of 1-pentene (Liquid); method: Chromatography
Temperature, K	Activity coefficient of 1-pentene	uncertainty
318.15	0.882	0.056
328.15	0.91	0.058
338.15	0.939	0.059
348.15	0.967	0.061
358.15	0.994	0.062
368.15	1.02	0.06

System: hex-1-ene + tetraoctylphosphonium bis((trifluoromethyl)sulfonyl)amide; phases: Liquid
Fixed: Pressure, kPa = 101
Fixed: Mole fraction of hex-1-ene = 0
Property: Activity coefficient of hex-1-ene (Liquid); method: Chromatography
Temperature, K	Activity coefficient of hex-1-ene	uncertainty
318.15	1	1
328.15	1.02	0.06
338.15	1.04	0.07
348.15	1.06	0.07
358.15	1.08	0.07
368.15	1.1	0.1

System: cyclohexene + tetraoctylphosphonium bis((trifluoromethyl)sulfonyl)amide; phases: Liquid
Fixed: Pressure, kPa = 101
Fixed: Mole fraction of cyclohexene = 0
Property: Activity coefficient of cyclohexene (Liquid); method: Chromatography
Temperature, K	Activity coefficient of cyclohexene	uncertainty
318.15	0.735	0.049
328.15	0.75	0.049
338.15	0.765	0.05
348.15	0.78	0.051
358.15	0.794	0.052
368.15	0.809	0.052

System: 1-heptene + tetraoctylphosphonium bis((trifluoromethyl)sulfonyl)amide; phases: Liquid
Fixed: Pressure, kPa = 101
Fixed: Mole fraction of 1-heptene = 0
Property: Activity coefficient of 1-heptene (Liquid); method: Chromatography
Temperature, K	Activity coefficient of 1-heptene	uncertainty
318.15	1.13	0.07
328.15	1.16	0.07
338.15	1.19	0.08
348.15	1.22	0.08
358.15	1.25	0.08
368.15	1.28	0.08

System: oct-1-ene + tetraoctylphosphonium bis((trifluoromethyl)sulfonyl)amide; phases: Liquid
Fixed: Pressure, kPa = 101
Fixed: Mole fraction of oct-1-ene = 0
Property: Activity coefficient of oct-1-ene (Liquid); method: Chromatography
Temperature, K	Activity coefficient of oct-1-ene	uncertainty
318.15	1.31	0.09
328.15	1.33	0.09
338.15	1.36	0.09
348.15	1.38	0.09
358.15	1.41	0.09
368.15	1.43	0.09

System: 1-decene + tetraoctylphosphonium bis((trifluoromethyl)sulfonyl)amide; phases: Liquid
Fixed: Pressure, kPa = 101
Fixed: Mole fraction of 1-decene = 0
Property: Activity coefficient of 1-decene (Liquid); method: Chromatography
Temperature, K	Activity coefficient of 1-decene	uncertainty
318.15	1.65	0.11
328.15	1.7	0.11
338.15	1.74	0.12
348.15	1.79	0.12
358.15	1.83	0.12
368.15	1.87	0.13

System: 1-pentyne + tetraoctylphosphonium bis((trifluoromethyl)sulfonyl)amide; phases: Liquid
Fixed: Pressure, kPa = 101
Fixed: Mole fraction of 1-pentyne = 0
Property: Activity coefficient of 1-pentyne (Liquid); method: Chromatography
Temperature, K	Activity coefficient of 1-pentyne	uncertainty
318.15	0.667	0.045
328.15	0.695	0.047
338.15	0.723	0.048
348.15	0.75	0.049
358.15	0.777	0.051
368.15	0.802	0.052

System: 1-hexyne + tetraoctylphosphonium bis((trifluoromethyl)sulfonyl)amide; phases: Liquid
Fixed: Pressure, kPa = 101
Fixed: Mole fraction of 1-hexyne = 0
Property: Activity coefficient of 1-hexyne (Liquid); method: Chromatography
Temperature, K	Activity coefficient of 1-hexyne	uncertainty
318.15	0.721	0.048
328.15	0.753	0.05
338.15	0.783	0.051
348.15	0.813	0.053
358.15	0.843	0.054
368.15	0.872	0.056

System: 1-heptyne + tetraoctylphosphonium bis((trifluoromethyl)sulfonyl)amide; phases: Liquid
Fixed: Pressure, kPa = 101
Fixed: Mole fraction of 1-heptyne = 0
Property: Activity coefficient of 1-heptyne (Liquid); method: Chromatography
Temperature, K	Activity coefficient of 1-heptyne	uncertainty
318.15	0.815	0.053
328.15	0.849	0.054
338.15	0.881	0.056
348.15	0.915	0.058
358.15	0.945	0.06
368.15	0.978	0.061

System: 1-octyne + tetraoctylphosphonium bis((trifluoromethyl)sulfonyl)amide; phases: Liquid
Fixed: Pressure, kPa = 101
Fixed: Mole fraction of 1-octyne = 0
Property: Activity coefficient of 1-octyne (Liquid); method: Chromatography
Temperature, K	Activity coefficient of 1-octyne	uncertainty
318.15	0.915	0.058
328.15	0.954	0.06
338.15	0.992	0.062
348.15	1.03	0.06
358.15	1.06	0.07
368.15	1.1	0.07

System: benzene + tetraoctylphosphonium bis((trifluoromethyl)sulfonyl)amide; phases: Liquid
Fixed: Pressure, kPa = 101
Fixed: Mole fraction of benzene = 0
Property: Activity coefficient of benzene (Liquid); method: Chromatography
Temperature, K	Activity coefficient of benzene	uncertainty
318.15	0.42	0.035
328.15	0.436	0.035
338.15	0.451	0.036
348.15	0.466	0.036
358.15	0.48	0.037
368.15	0.495	0.038

System: toluene + tetraoctylphosphonium bis((trifluoromethyl)sulfonyl)amide; phases: Liquid
Fixed: Pressure, kPa = 101
Fixed: Mole fraction of toluene = 0
Property: Activity coefficient of toluene (Liquid); method: Chromatography
Temperature, K	Activity coefficient of toluene	uncertainty
318.15	0.492	0.037
328.15	0.512	0.038
338.15	0.533	0.039
348.15	0.554	0.04
358.15	0.573	0.041
368.15	0.592	0.042

System: ethylbenzene + tetraoctylphosphonium bis((trifluoromethyl)sulfonyl)amide; phases: Liquid
Fixed: Pressure, kPa = 101
Fixed: Mole fraction of ethylbenzene = 0
Property: Activity coefficient of ethylbenzene (Liquid); method: Chromatography
Temperature, K	Activity coefficient of ethylbenzene	uncertainty
318.15	0.615	0.043
328.15	0.639	0.044
338.15	0.661	0.045
348.15	0.684	0.046
358.15	0.705	0.047
368.15	0.726	0.048

System: 1,2-dimethylbenzene + tetraoctylphosphonium bis((trifluoromethyl)sulfonyl)amide; phases: Liquid
Fixed: Pressure, kPa = 101
Fixed: Mole fraction of 1,2-dimethylbenzene = 0
Property: Activity coefficient of 1,2-dimethylbenzene (Liquid); method: Chromatography
Temperature, K	Activity coefficient of 1,2-dimethylbenzene	uncertainty
318.15	0.566	0.041
328.15	0.589	0.042
338.15	0.612	0.043
348.15	0.636	0.044
358.15	0.659	0.045
368.15	0.681	0.046

System: 1,3-dimethylbenzene + tetraoctylphosphonium bis((trifluoromethyl)sulfonyl)amide; phases: Liquid
Fixed: Pressure, kPa = 101
Fixed: Mole fraction of 1,3-dimethylbenzene = 0
Property: Activity coefficient of 1,3-dimethylbenzene (Liquid); method: Chromatography
Temperature, K	Activity coefficient of 1,3-dimethylbenzene	uncertainty
318.15	0.599	0.042
328.15	0.625	0.043
338.15	0.649	0.044
348.15	0.673	0.046
358.15	0.698	0.047
368.15	0.72	0.048

System: 1,4-dimethylbenzene + tetraoctylphosphonium bis((trifluoromethyl)sulfonyl)amide; phases: Liquid
Fixed: Pressure, kPa = 101
Fixed: Mole fraction of 1,4-dimethylbenzene = 0
Property: Activity coefficient of 1,4-dimethylbenzene (Liquid); method: Chromatography
Temperature, K	Activity coefficient of 1,4-dimethylbenzene	uncertainty
318.15	0.607	0.042
328.15	0.631	0.044
338.15	0.655	0.045
348.15	0.679	0.046
358.15	0.703	0.047
368.15	0.725	0.048

System: propylbenzene + tetraoctylphosphonium bis((trifluoromethyl)sulfonyl)amide; phases: Liquid
Fixed: Pressure, kPa = 101
Fixed: Mole fraction of propylbenzene = 0
Property: Activity coefficient of propylbenzene (Liquid); method: Chromatography
Temperature, K	Activity coefficient of propylbenzene	uncertainty
318.15	0.704	0.047
328.15	0.732	0.048
338.15	0.759	0.05
348.15	0.784	0.051
358.15	0.809	0.052
368.15	0.835	0.054

System: isopropylbenzene + tetraoctylphosphonium bis((trifluoromethyl)sulfonyl)amide; phases: Liquid
Fixed: Pressure, kPa = 101
Fixed: Mole fraction of isopropylbenzene = 0
Property: Activity coefficient of isopropylbenzene (Liquid); method: Chromatography
Temperature, K	Activity coefficient of isopropylbenzene	uncertainty
318.15	0.751	0.049
328.15	0.777	0.051
338.15	0.802	0.052
348.15	0.826	0.053
358.15	0.85	0.055
368.15	0.873	0.056

System: styrene + tetraoctylphosphonium bis((trifluoromethyl)sulfonyl)amide; phases: Liquid
Fixed: Pressure, kPa = 101
Fixed: Mole fraction of styrene = 0
Property: Activity coefficient of styrene (Liquid); method: Chromatography
Temperature, K	Activity coefficient of styrene	uncertainty
318.15	0.468	0.037
328.15	0.489	0.037
338.15	0.51	0.038
348.15	0.53	0.039
358.15	0.55	0.04
368.15	0.57	0.041

System: (1-methylethenyl)benzene + tetraoctylphosphonium bis((trifluoromethyl)sulfonyl)amide; phases: Liquid
Fixed: Pressure, kPa = 101
Fixed: Mole fraction of (1-methylethenyl)benzene = 0
Property: Activity coefficient of (1-methylethenyl)benzene (Liquid); method: Chromatography
Temperature, K	Activity coefficient of (1-methylethenyl)benzene	uncertainty
318.15	0.537	0.039
328.15	0.573	0.041
338.15	0.607	0.042
348.15	0.642	0.044
358.15	0.676	0.046
368.15	0.712	0.047

System: thiophene + tetraoctylphosphonium bis((trifluoromethyl)sulfonyl)amide; phases: Liquid
Fixed: Pressure, kPa = 101
Fixed: Mole fraction of thiophene = 0
Property: Activity coefficient of thiophene (Liquid); method: Chromatography
Temperature, K	Activity coefficient of thiophene	uncertainty
318.15	0.421	0.035
328.15	0.433	0.035
338.15	0.445	0.036
348.15	0.456	0.036
358.15	0.468	0.037
368.15	0.478	0.037

System: pyridine + tetraoctylphosphonium bis((trifluoromethyl)sulfonyl)amide; phases: Liquid
Fixed: Pressure, kPa = 101
Fixed: Mole fraction of pyridine = 0
Property: Activity coefficient of pyridine (Liquid); method: Chromatography
Temperature, K	Activity coefficient of pyridine	uncertainty
318.15	0.343	0.032
328.15	0.354	0.032
338.15	0.364	0.033
348.15	0.374	0.033
358.15	0.384	0.033
368.15	0.394	0.034

System: methanol + tetraoctylphosphonium bis((trifluoromethyl)sulfonyl)amide; phases: Liquid
Fixed: Pressure, kPa = 101
Fixed: Mole fraction of methanol = 0
Property: Activity coefficient of methanol (Liquid); method: Chromatography
Temperature, K	Activity coefficient of methanol	uncertainty
318.15	1.44	0.09
328.15	1.35	0.09
338.15	1.27	0.08
348.15	1.21	0.08
358.15	1.14	0.07
368.15	1.08	0.07

System: ethanol + tetraoctylphosphonium bis((trifluoromethyl)sulfonyl)amide; phases: Liquid
Fixed: Pressure, kPa = 101
Fixed: Mole fraction of ethanol = 0
Property: Activity coefficient of ethanol (Liquid); method: Chromatography
Temperature, K	Activity coefficient of ethanol	uncertainty
318.15	1.51	0.1
328.15	1.4	0.09
338.15	1.31	0.09
348.15	1.23	0.08
358.15	1.16	0.07
368.15	1.09	0.07

System: propan-1-ol + tetraoctylphosphonium bis((trifluoromethyl)sulfonyl)amide; phases: Liquid
Fixed: Pressure, kPa = 101
Fixed: Mole fraction of propan-1-ol = 0
Property: Activity coefficient of propan-1-ol (Liquid); method: Chromatography
Temperature, K	Activity coefficient of propan-1-ol	uncertainty
318.15	1.41	0.09
328.15	1.32	0.09
338.15	1.24	0.08
348.15	1.17	0.07
358.15	1.11	0.07
368.15	1.05	0.07

System: propan-2-ol + tetraoctylphosphonium bis((trifluoromethyl)sulfonyl)amide; phases: Liquid
Fixed: Pressure, kPa = 101
Fixed: Mole fraction of propan-2-ol = 0
Property: Activity coefficient of propan-2-ol (Liquid); method: Chromatography
Temperature, K	Activity coefficient of propan-2-ol	uncertainty
318.15	1.42	0.09
328.15	1.32	0.09
338.15	1.23	0.08
348.15	1.15	0.07
358.15	1.08	0.07
368.15	1.02	0.06

System: butan-1-ol + tetraoctylphosphonium bis((trifluoromethyl)sulfonyl)amide; phases: Liquid
Fixed: Pressure, kPa = 101
Fixed: Mole fraction of butan-1-ol = 0
Property: Activity coefficient of butan-1-ol (Liquid); method: Chromatography
Temperature, K	Activity coefficient of butan-1-ol	uncertainty
318.15	1.42	0.09
328.15	1.32	0.09
338.15	1.23	0.08
348.15	1.15	0.07
358.15	1.08	0.07
368.15	1.02	0.06

System: butan-1-ol + tetraoctylphosphonium bis((trifluoromethyl)sulfonyl)amide; phases: Liquid
Fixed: Pressure, kPa = 101
Fixed: Mole fraction of butan-1-ol = 0
Property: Activity coefficient of butan-1-ol (Liquid); method: Chromatography
Temperature, K	Activity coefficient of butan-1-ol	uncertainty
318.15	1.36	0.09
328.15	1.28	0.08
338.15	1.21	0.08
348.15	1.14	0.07
358.15	1.09	0.07
368.15	1.03	0.06

System: butan-2-ol + tetraoctylphosphonium bis((trifluoromethyl)sulfonyl)amide; phases: Liquid
Fixed: Pressure, kPa = 101
Fixed: Mole fraction of butan-2-ol = 0
Property: Activity coefficient of butan-2-ol (Liquid); method: Chromatography
Temperature, K	Activity coefficient of butan-2-ol	uncertainty
318.15	1.28	0.08
328.15	1.2	0.08
338.15	1.13	0.07
348.15	1.07	0.07
358.15	1.02	0.06
368.15	0.965	0.061

System: 2-methyl-1-propanol + tetraoctylphosphonium bis((trifluoromethyl)sulfonyl)amide; phases: Liquid
Fixed: Pressure, kPa = 101
Fixed: Mole fraction of 2-methyl-1-propanol = 0
Property: Activity coefficient of 2-methyl-1-propanol (Liquid); method: Chromatography
Temperature, K	Activity coefficient of 2-methyl-1-propanol	uncertainty
318.15	1.4	0.09
328.15	1.29	0.08
338.15	1.2	0.08
348.15	1.11	0.07
358.15	1.04	0.07
368.15	0.973	0.061

System: 2-methylpropan-2-ol + tetraoctylphosphonium bis((trifluoromethyl)sulfonyl)amide; phases: Liquid
Fixed: Pressure, kPa = 101
Fixed: Mole fraction of 2-methylpropan-2-ol = 0
Property: Activity coefficient of 2-methylpropan-2-ol (Liquid); method: Chromatography
Temperature, K	Activity coefficient of 2-methylpropan-2-ol	uncertainty
318.15	1.2	0.08
328.15	1.13	0.07
338.15	1.08	0.07
348.15	1.02	0.06
358.15	0.979	0.061
368.15	0.938	0.059

System: pentan-1-ol + tetraoctylphosphonium bis((trifluoromethyl)sulfonyl)amide; phases: Liquid
Fixed: Pressure, kPa = 101
Fixed: Mole fraction of pentan-1-ol = 0
Property: Activity coefficient of pentan-1-ol (Liquid); method: Chromatography
Temperature, K	Activity coefficient of pentan-1-ol	uncertainty
318.15	1.28	0.08
328.15	1.22	0.08
338.15	1.16	0.07
348.15	1.12	0.07
358.15	1.07	0.07
368.15	1.03	0.06

System: water + tetraoctylphosphonium bis((trifluoromethyl)sulfonyl)amide; phases: Liquid
Fixed: Pressure, kPa = 101
Fixed: Mole fraction of water = 0
Property: Activity coefficient of water (Liquid); method: Chromatography
Temperature, K	Activity coefficient of water	uncertainty
318.15	8.79	0.6
328.15	7.36	0.5
338.15	6.21	0.42
348.15	5.31	0.36
358.15	4.57	0.31
368.15	3.96	0.27

System: methyl ethanoate + tetraoctylphosphonium bis((trifluoromethyl)sulfonyl)amide; phases: Liquid
Fixed: Pressure, kPa = 101
Fixed: Mole fraction of methyl ethanoate = 0
Property: Activity coefficient of methyl ethanoate (Liquid); method: Chromatography
Temperature, K	Activity coefficient of methyl ethanoate	uncertainty
318.15	0.493	0.038
328.15	0.507	0.038
338.15	0.521	0.039
348.15	0.534	0.039
358.15	0.547	0.04
368.15	0.56	0.04

System: methyl propanoate + tetraoctylphosphonium bis((trifluoromethyl)sulfonyl)amide; phases: Liquid
Fixed: Pressure, kPa = 101
Fixed: Mole fraction of methyl propanoate = 0
Property: Activity coefficient of methyl propanoate (Liquid); method: Chromatography
Temperature, K	Activity coefficient of methyl propanoate	uncertainty
318.15	0.458	0.036
328.15	0.475	0.037
338.15	0.492	0.037
348.15	0.509	0.038
358.15	0.525	0.039
368.15	0.541	0.04

System: methyl butanoate + tetraoctylphosphonium bis((trifluoromethyl)sulfonyl)amide; phases: Liquid
Fixed: Pressure, kPa = 101
Fixed: Mole fraction of methyl butanoate = 0
Property: Activity coefficient of methyl butanoate (Liquid); method: Chromatography
Temperature, K	Activity coefficient of methyl butanoate	uncertainty
318.15	0.474	0.037
328.15	0.496	0.038
338.15	0.518	0.039
348.15	0.54	0.039
358.15	0.562	0.04
368.15	0.582	0.041

System: ethyl acetate + tetraoctylphosphonium bis((trifluoromethyl)sulfonyl)amide; phases: Liquid
Fixed: Pressure, kPa = 101
Fixed: Mole fraction of ethyl acetate = 0
Property: Activity coefficient of ethyl acetate (Liquid); method: Chromatography
Temperature, K	Activity coefficient of ethyl acetate	uncertainty
318.15	0.462	0.036
328.15	0.481	0.037
338.15	0.499	0.038
348.15	0.517	0.039
358.15	0.535	0.039
368.15	0.552	0.04

System: tetrahydrofuran + tetraoctylphosphonium bis((trifluoromethyl)sulfonyl)amide; phases: Liquid
Fixed: Pressure, kPa = 101
Fixed: Mole fraction of tetrahydrofuran = 0
Property: Activity coefficient of tetrahydrofuran (Liquid); method: Chromatography
Temperature, K	Activity coefficient of tetrahydrofuran	uncertainty
318.15	0.306	0.031
328.15	0.323	0.032
338.15	0.338	0.032
348.15	0.354	0.032
358.15	0.369	0.033
368.15	0.385	0.033

System: 1,4-dioxane + tetraoctylphosphonium bis((trifluoromethyl)sulfonyl)amide; phases: Liquid
Fixed: Pressure, kPa = 101
Fixed: Mole fraction of 1,4-dioxane = 0
Property: Activity coefficient of 1,4-dioxane (Liquid); method: Chromatography
Temperature, K	Activity coefficient of 1,4-dioxane	uncertainty
318.15	0.511	0.038
328.15	0.526	0.039
338.15	0.54	0.039
348.15	0.554	0.04
358.15	0.568	0.041
368.15	0.582	0.041

System: 2-methoxy-2-methylpropane + tetraoctylphosphonium bis((trifluoromethyl)sulfonyl)amide; phases: Liquid
Fixed: Pressure, kPa = 101
Fixed: Mole fraction of 2-methoxy-2-methylpropane = 0
Property: Activity coefficient of 2-methoxy-2-methylpropane (Liquid); method: Chromatography
Temperature, K	Activity coefficient of 2-methoxy-2-methylpropane	uncertainty
318.15	0.662	0.045
328.15	0.693	0.047
338.15	0.721	0.048
348.15	0.749	0.049
358.15	0.778	0.051
368.15	0.804	0.052

System: 2-ethoxy-2-methylpropane + tetraoctylphosphonium bis((trifluoromethyl)sulfonyl)amide; phases: Liquid
Fixed: Pressure, kPa = 101
Fixed: Mole fraction of 2-ethoxy-2-methylpropane = 0
Property: Activity coefficient of 2-ethoxy-2-methylpropane (Liquid); method: Chromatography
Temperature, K	Activity coefficient of 2-ethoxy-2-methylpropane	uncertainty
318.15	0.947	0.06
328.15	0.974	0.061
338.15	1	0.06
348.15	1.02	0.06
358.15	1.05	0.07
368.15	1.07	0.07

System: 2-methoxy-2-methylbutane + tetraoctylphosphonium bis((trifluoromethyl)sulfonyl)amide; phases: Liquid
Fixed: Pressure, kPa = 101
Fixed: Mole fraction of 2-methoxy-2-methylbutane = 0
Property: Activity coefficient of 2-methoxy-2-methylbutane (Liquid); method: Chromatography
Temperature, K	Activity coefficient of 2-methoxy-2-methylbutane	uncertainty
318.15	0.724	0.048
328.15	0.753	0.05
338.15	0.78	0.051
348.15	0.807	0.052
358.15	0.834	0.054
368.15	0.858	0.055

System: diethyl ether + tetraoctylphosphonium bis((trifluoromethyl)sulfonyl)amide; phases: Liquid
Fixed: Pressure, kPa = 101
Fixed: Mole fraction of diethyl ether = 0
Property: Activity coefficient of diethyl ether (Liquid); method: Chromatography
Temperature, K	Activity coefficient of diethyl ether	uncertainty
318.15	0.693	0.047
328.15	0.718	0.048
338.15	0.743	0.049
348.15	0.766	0.05
358.15	0.79	0.051
368.15	0.813	0.053

System: dipropyl ether + tetraoctylphosphonium bis((trifluoromethyl)sulfonyl)amide; phases: Liquid
Fixed: Pressure, kPa = 101
Fixed: Mole fraction of dipropyl ether = 0
Property: Activity coefficient of dipropyl ether (Liquid); method: Chromatography
Temperature, K	Activity coefficient of dipropyl ether	uncertainty
318.15	0.94	0.059
328.15	0.968	0.061
338.15	0.993	0.062
348.15	1.02	0.06
358.15	1.04	0.07
368.15	1.07	0.07

System: diisopropyl ether + tetraoctylphosphonium bis((trifluoromethyl)sulfonyl)amide; phases: Liquid
Fixed: Pressure, kPa = 101
Fixed: Mole fraction of diisopropyl ether = 0
Property: Activity coefficient of diisopropyl ether (Liquid); method: Chromatography
Temperature, K	Activity coefficient of diisopropyl ether	uncertainty
318.15	1.01	0.06
328.15	1.04	0.07
338.15	1.07	0.07
348.15	1.09	0.07
358.15	1.12	0.07
368.15	1.14	0.07

System: dibutyl ether + tetraoctylphosphonium bis((trifluoromethyl)sulfonyl)amide; phases: Liquid
Fixed: Pressure, kPa = 101
Fixed: Mole fraction of dibutyl ether = 0
Property: Activity coefficient of dibutyl ether (Liquid); method: Chromatography
Temperature, K	Activity coefficient of dibutyl ether	uncertainty
318.15	1.23	0.08
328.15	1.26	0.08
338.15	1.28	0.08
348.15	1.31	0.09
358.15	1.33	0.09
368.15	1.35	0.09

System: acetone + tetraoctylphosphonium bis((trifluoromethyl)sulfonyl)amide; phases: Liquid
Fixed: Pressure, kPa = 101
Fixed: Mole fraction of acetone = 0
Property: Activity coefficient of acetone (Liquid); method: Chromatography
Temperature, K	Activity coefficient of acetone	uncertainty
318.15	0.345	0.032
328.15	0.357	0.033
338.15	0.368	0.033
348.15	0.379	0.033
358.15	0.39	0.034
368.15	0.4	0.034

System: pentan-2-one + tetraoctylphosphonium bis((trifluoromethyl)sulfonyl)amide; phases: Liquid
Fixed: Pressure, kPa = 101
Fixed: Mole fraction of pentan-2-one = 0
Property: Activity coefficient of pentan-2-one (Liquid); method: Chromatography
Temperature, K	Activity coefficient of pentan-2-one	uncertainty
318.15	0.322	0.031
328.15	0.339	0.032
338.15	0.356	0.033
348.15	0.373	0.033
358.15	0.389	0.034
368.15	0.406	0.034

System: pentan-3-one + tetraoctylphosphonium bis((trifluoromethyl)sulfonyl)amide; phases: Liquid
Fixed: Pressure, kPa = 101
Fixed: Mole fraction of pentan-3-one = 0
Property: Activity coefficient of pentan-3-one (Liquid); method: Chromatography
Temperature, K	Activity coefficient of pentan-3-one	uncertainty
318.15	0.318	0.031
328.15	0.338	0.032
338.15	0.358	0.033
348.15	0.377	0.033
358.15	0.396	0.034
368.15	0.415	0.035

System: butanal + tetraoctylphosphonium bis((trifluoromethyl)sulfonyl)amide; phases: Liquid
Fixed: Pressure, kPa = 101
Fixed: Mole fraction of butanal = 0
Property: Activity coefficient of butanal (Liquid); method: Chromatography
Temperature, K	Activity coefficient of butanal	uncertainty
318.15	0.384	0.033
328.15	0.398	0.034
338.15	0.41	0.034
348.15	0.422	0.035
358.15	0.434	0.035
368.15	0.446	0.036

System: acetonitrile + tetraoctylphosphonium bis((trifluoromethyl)sulfonyl)amide; phases: Liquid
Fixed: Pressure, kPa = 101
Fixed: Mole fraction of acetonitrile = 0
Property: Activity coefficient of acetonitrile (Liquid); method: Chromatography
Temperature, K	Activity coefficient of acetonitrile	uncertainty
318.15	0.562	0.04
328.15	0.567	0.041
338.15	0.571	0.041
348.15	0.574	0.041
358.15	0.578	0.041
368.15	0.582	0.041

System: 1-nitropropane + tetraoctylphosphonium bis((trifluoromethyl)sulfonyl)amide; phases: Liquid
Fixed: Pressure, kPa = 101
Fixed: Mole fraction of 1-nitropropane = 0
Property: Activity coefficient of 1-nitropropane (Liquid); method: Chromatography
Temperature, K	Activity coefficient of 1-nitropropane	uncertainty
318.15	0.489	0.037
328.15	0.498	0.038
338.15	0.505	0.038
348.15	0.512	0.038
358.15	0.519	0.039
368.15	0.527	0.039

System: cyclooctane + tetraoctylphosphonium bis((trifluoromethyl)sulfonyl)amide; phases: Liquid
Fixed: Pressure, kPa = 101
Fixed: Mole fraction of cyclooctane = 0
Property: Activity coefficient of cyclooctane (Liquid); method: Chromatography
Temperature, K	Activity coefficient of cyclooctane	uncertainty
318.15	1.07	0.07
328.15	1.08	0.07
338.15	1.09	0.07
348.15	1.11	0.07
358.15	1.12	0.07
368.15	1.13	0.07
