Measured thermophysical data. Experimental determination of solubility and metastable zone width of ammonium dihydrogen phosphate in (NH4)2SO4 + water and NH4F + water systems
Source: Fluid Phase Equilib., 2018, 10.1016/j.fluid.2018.04.008
Compound 1: ammonium dihydrogen phosphate, H6NO4P, InChI=1S/H3N.H3O4P/c;1-5(2,3)4/h1H3;(H3,1,2,3,4), purity 99%
Compound 2: ammonium sulfate, H8N2O4S, InChI=1S/2H3N.H2O4S/c;;1-5(2,3)4/h2*1H3;(H2,1,2,3,4), purity 99%
Compound 3: ammonium fluoride, FH4N, InChI=1S/FH.H3N/h1H;1H3, purity 99%
Compound 4: water, H2O, InChI=1S/H2O/h1H2, purity 99.9%

System: ammonium dihydrogen phosphate + ammonium sulfate + water; phases: Liquid, Crystal
Fixed: Pressure, kPa = 95
Property: Mole fraction of ammonium dihydrogen phosphate (Liquid); method: dynamic
Temperature, K	Solvent: Mass fraction of ammonium sulfate	Mole fraction of ammonium dihydrogen phosphate	uncertainty
293.2	0.0165	0.0527	0.003
303.2	0.0165	0.0647	0.0036
313.2	0.0165	0.0781	0.0044
323.2	0.0165	0.0936	0.0053
333.2	0.0165	0.1102	0.0062
343.2	0.0165	0.1295	0.0073
293.2	0.033	0.0513	0.0029
303.2	0.033	0.0629	0.0035
313.2	0.033	0.0765	0.0043
323.2	0.033	0.0915	0.0051
333.2	0.033	0.108	0.0061
343.2	0.033	0.1266	0.0071
293.2	0.0495	0.0502	0.0028
303.2	0.0495	0.0616	0.0035
313.2	0.0495	0.0749	0.0042
323.2	0.0495	0.0903	0.0051
333.2	0.0495	0.1053	0.0059
343.2	0.0495	0.1249	0.007
293.2	0.066	0.0487	0.0028
303.2	0.066	0.0602	0.0034
313.2	0.066	0.0734	0.0041
323.2	0.066	0.0889	0.005
333.2	0.066	0.1037	0.0058
343.2	0.066	0.124	0.007
293.2	0.0825	0.047	0.0027
303.2	0.0825	0.0583	0.0033
313.2	0.0825	0.0716	0.004
323.2	0.0825	0.087	0.0049
333.2	0.0825	0.1017	0.0057
343.2	0.0825	0.1223	0.0069

System: ammonium dihydrogen phosphate + ammonium fluoride + water; phases: Liquid, Crystal
Fixed: Pressure, kPa = 101
Property: Mole fraction of ammonium dihydrogen phosphate (Liquid); method: dynamic
Temperature, K	Solvent: Mass fraction of ammonium fluoride	Mole fraction of ammonium dihydrogen phosphate	uncertainty
293.2	0.0039	0.0554	0.0031
303.2	0.0039	0.0667	0.0037
313.2	0.0039	0.0806	0.0045
323.2	0.0039	0.0957	0.0054
333.2	0.0039	0.1141	0.0064
343.2	0.0039	0.1346	0.0076
293.2	0.0117	0.0556	0.0031
303.2	0.0117	0.0673	0.0038
313.2	0.0117	0.0813	0.0046
323.2	0.0117	0.097	0.0054
333.2	0.0117	0.1148	0.0064
343.2	0.0117	0.1356	0.0076
293.2	0.0195	0.057	0.0032
303.2	0.0195	0.0698	0.0039
313.2	0.0195	0.0838	0.0047
323.2	0.0195	0.0993	0.0056
333.2	0.0195	0.1162	0.0065
343.2	0.0195	0.1395	0.0078
293.2	0.0292	0.0584	0.0033
303.2	0.0292	0.0712	0.004
313.2	0.0292	0.0855	0.0048
323.2	0.0292	0.1006	0.0057
333.2	0.0292	0.1205	0.0068
343.2	0.0292	0.1435	0.0081
293.2	0.039	0.0607	0.0034
303.2	0.039	0.0729	0.0041
313.2	0.039	0.0887	0.005
323.2	0.039	0.1034	0.0058
333.2	0.039	0.123	0.0069
343.2	0.039	0.1455	0.0082
