Measured thermophysical data. Isobaric vapor-liquid equilibrium of the binary system sec-butyl acetate + para-xylene and the quaternary system methyl acetate + para-xylene + sec-butyl acetate + acetic acid at 101.3 kPa
Source: Fluid Phase Equilib., 2015, 10.1016/j.fluid.2015.05.032
Compound 1: 1,4-dimethylbenzene, C8H10, InChI=1S/C8H10/c1-7-3-5-8(2)6-4-7/h3-6H,1-2H3, purity 99.6%
Compound 2: 1-methylpropyl ethanoate, C6H12O2, InChI=1S/C6H12O2/c1-4-5(2)8-6(3)7/h5H,4H2,1-3H3, purity 99.5%
Compound 3: methyl ethanoate, C3H6O2, InChI=1S/C3H6O2/c1-3(4)5-2/h1-2H3, purity 99.7%
Compound 4: acetic acid, C2H4O2, InChI=1S/C2H4O2/c1-2(3)4/h1H3,(H,3,4), purity 99.8%

System: 1,4-dimethylbenzene; phases: Liquid
Property: Mass density, kg/m3 (Liquid); method: Vibrating tube method
Temperature, K	Pressure, kPa	Mass density, kg/m3	uncertainty
298.15	101.325	856.5	0.3

System: 1,4-dimethylbenzene; phases: Liquid, Gas
Property: Normal boiling temperature, K (Liquid); method: Ebulliometric method (Recirculating still)
Normal boiling temperature, K	uncertainty
411.62	0.2

System: 1,4-dimethylbenzene; phases: Liquid
Property: Refractive index (Na D-line) (Liquid); method: Standard Abbe refractometry
Temperature, K	Pressure, kPa	Refractive index (Na D-line)	uncertainty
293.15	101.325	1.4952	0.0004

System: 1-methylpropyl ethanoate; phases: Liquid
Property: Mass density, kg/m3 (Liquid); method: Vibrating tube method
Temperature, K	Pressure, kPa	Mass density, kg/m3	uncertainty
298.15	101.325	866.4	0.3

System: 1-methylpropyl ethanoate; phases: Liquid, Gas
Property: Normal boiling temperature, K (Liquid); method: Ebulliometric method (Recirculating still)
Normal boiling temperature, K	uncertainty
385.08	0.2

System: 1-methylpropyl ethanoate; phases: Liquid
Property: Refractive index (Na D-line) (Liquid); method: Standard Abbe refractometry
Temperature, K	Pressure, kPa	Refractive index (Na D-line)	uncertainty
293.15	101.325	1.3886	0.0004

System: methyl ethanoate; phases: Liquid
Property: Mass density, kg/m3 (Liquid); method: Vibrating tube method
Temperature, K	Pressure, kPa	Mass density, kg/m3	uncertainty
298.15	101.325	927.5	0.3

System: methyl ethanoate; phases: Liquid, Gas
Property: Normal boiling temperature, K (Liquid); method: Ebulliometric method (Recirculating still)
Normal boiling temperature, K	uncertainty
329.8	0.2

System: methyl ethanoate; phases: Liquid
Property: Refractive index (Na D-line) (Liquid); method: Standard Abbe refractometry
Temperature, K	Pressure, kPa	Refractive index (Na D-line)	uncertainty
293.15	101.325	1.3614	0.0004

System: acetic acid; phases: Liquid
Property: Mass density, kg/m3 (Liquid); method: Vibrating tube method
Temperature, K	Pressure, kPa	Mass density, kg/m3	uncertainty
298.15	101.325	1043.5	0.3

System: acetic acid; phases: Liquid, Gas
Property: Normal boiling temperature, K (Liquid); method: Ebulliometric method (Recirculating still)
Normal boiling temperature, K	uncertainty
391.08	0.2

System: acetic acid; phases: Liquid
Property: Refractive index (Na D-line) (Liquid); method: Standard Abbe refractometry
Temperature, K	Pressure, kPa	Refractive index (Na D-line)	uncertainty
293.15	101.325	1.3718	0.0004

System: 1-methylpropyl ethanoate + 1,4-dimethylbenzene; phases: Liquid, Gas
Fixed: Pressure, kPa = 101.3
Property: Boiling temperature at pressure P, K (Liquid); method: Ebulliometric method (Recirculating still)
Mole fraction of 1-methylpropyl ethanoate	Boiling temperature at pressure P, K	uncertainty
1	385.08	0.22
0.9551	386.11	0.22
0.8487	387.67	0.22
0.7875	388.52	0.22
0.7498	389.41	0.22
0.6221	391.75	0.22
0.4924	394.47	0.22
0.4622	395.07	0.22
0.3872	397.12	0.22
0.3656	397.95	0.22
0.3254	399.22	0.22
0.2986	400.02	0.22
0.2737	400.67	0.22
0.2554	401.26	0.22
0.2014	403.1	0.22
0.186	403.45	0.22
0.1793	404.05	0.23
0.1503	404.86	0.22
0.1307	405.35	0.22
0.1164	406.02	0.22
0.0973	406.93	0.22
0.0832	407.45	0.22
0.0672	408.03	0.22
0.0527	408.66	0.22
0.0391	409.22	0.22
0.0266	409.72	0.22
0.0122	410.37	0.23
0	411.62	0.22

System: 1-methylpropyl ethanoate + 1,4-dimethylbenzene; phases: Gas, Liquid
Fixed: Pressure, kPa = 101.3
Property: Mole fraction of 1-methylpropyl ethanoate (Gas); method: Chromatography
Mole fraction of 1-methylpropyl ethanoate	Mole fraction of 1-methylpropyl ethanoate	uncertainty
1	1	
0.9551	0.9704	0.0011
0.8487	0.9322	0.0013
0.7875	0.8873	0.0017
0.7498	0.8746	0.0018
0.6221	0.7881	0.0025
0.4924	0.692	0.0034
0.4622	0.6694	0.0036
0.3872	0.6119	0.0042
0.3656	0.57	0.0047
0.3254	0.5195	0.0049
0.2986	0.5223	0.005
0.2737	0.4655	0.0049
0.2554	0.4526	0.0047
0.2014	0.3767	0.0039
0.186	0.3535	0.0044
0.1793	0.3115	0.0069
0.1503	0.2868	0.0029
0.1307	0.2616	0.0026
0.1164	0.2587	0.0029
0.0973	0.2127	0.0031
0.0832	0.184	0.003
0.0672	0.1431	0.0027
0.0527	0.1173	0.0024
0.0391	0.0901	0.0026
0.0266	0.059	0.0025
0.0122	0.0306	0.0024
0	0	
