Measured thermophysical data. Phase equilibria, volumetric and compressibility properties of (tetra-n-butylammonium bromide + trisodium citrate) system at temperatures (298.15 K - 318.15 K) and atmospheric pressure
Source: Fluid Phase Equilib., 2016, 10.1016/j.fluid.2016.02.035
Compound 1: trisodium citrate, C6H5Na3O7, InChI=1S/C6H8O7.3Na/c7-3(8)1-6(13,5(11)12)2-4(9)10;;;/h13H,1-2H2,(H,7,8)(H,9,10)(H,11,12);;;/q;3*+1/p-3, purity 99%
Compound 2: tetrabutylammonium bromide, C16H36BrN, InChI=1S/C16H36N.BrH/c1-5-9-13-17(14-10-6-2,15-11-7-3)16-12-8-4;/h5-16H2,1-4H3;1H/q+1;/p-1, purity 99%
Compound 3: water, H2O, InChI=1S/H2O/h1H2, purity 99.8%

System: trisodium citrate + tetrabutylammonium bromide + water; phases: Liquid
Fixed: Solvent: Amount ratio of component to other component of binary solvent of trisodium citrate = 0.5
Fixed: Pressure, kPa = 101
Property: Mass density, kg/m3 (Liquid); method: Vibrating tube method
Temperature, K	Molality, mol/kg of tetrabutylammonium bromide	Mass density, kg/m3	uncertainty
293.15	0.00271	1016.512	0.169
293.15	0.003125	1016.538	0.169
293.15	0.004944	1016.57	0.17
293.15	0.006172	1016.605	0.168
293.15	0.010977	1016.672	0.168
293.15	0.019516	1016.826	0.169
293.15	0.024419	1016.913	0.169
293.15	0.032183	1017.089	0.169
293.15	0.079836	1017.943	0.169
293.15	0.129471	1018.876	0.17
293.15	0.183938	1019.872	0.17
293.15	0.229396	1020.707	0.17
293.15	0.284238	1021.762	0.171
293.15	0.345016	1022.948	0.172
293.15	0.534177	1026.563	0.173
293.15	0.767267	1030.671	0.175
298.15	0.00271	1015.191	0.176
298.15	0.003125	1015.211	0.173
298.15	0.004944	1015.245	0.168
298.15	0.006172	1015.283	0.168
298.15	0.010977	1015.341	0.168
298.15	0.019516	1015.489	0.168
298.15	0.024419	1015.568	0.168
298.15	0.032183	1015.74	0.168
298.15	0.079836	1016.545	0.168
298.15	0.129471	1017.428	0.169
298.15	0.183938	1018.367	0.169
298.15	0.229396	1019.151	0.17
298.15	0.284238	1020.144	0.17
298.15	0.345016	1021.256	0.171
298.15	0.534177	1024.632	0.172
298.15	0.767267	1028.434	0.174
303.15	0.00271	1013.653	0.175
303.15	0.003125	1013.675	0.172
303.15	0.004944	1013.706	0.167
303.15	0.006172	1013.742	0.167
303.15	0.010977	1013.797	0.167
303.15	0.019516	1013.935	0.167
303.15	0.024419	1014.013	0.168
303.15	0.032183	1014.175	0.167
303.15	0.079836	1014.937	0.168
303.15	0.129471	1015.771	0.168
303.15	0.183938	1016.654	0.169
303.15	0.229396	1017.392	0.169
303.15	0.284238	1018.324	0.169
303.15	0.345016	1019.367	0.17
303.15	0.534177	1022.52	0.171
303.15	0.767267	1026.042	0.173
308.15	0.00271	1011.919	0.173
308.15	0.003125	1011.94	0.171
308.15	0.004944	1011.971	0.167
308.15	0.006172	1012.005	0.167
308.15	0.010977	1012.056	0.166
308.15	0.019516	1012.186	0.166
308.15	0.024419	1012.262	0.167
308.15	0.032183	1012.415	0.166
308.15	0.079836	1013.135	0.167
308.15	0.129471	1013.922	0.167
308.15	0.183938	1014.752	0.168
308.15	0.229396	1015.446	0.168
308.15	0.284238	1016.32	0.169
308.15	0.345016	1017.297	0.169
308.15	0.534177	1020.239	0.17
308.15	0.767267	1023.505	0.172
313.15	0.00271	1010.004	0.172
313.15	0.003125	1010.023	0.169
313.15	0.004944	1010.051	0.166
313.15	0.006172	1010.084	0.166
313.15	0.010977	1010.134	0.166
313.15	0.019516	1010.257	0.166
313.15	0.024419	1010.323	0.166
313.15	0.032183	1010.473	0.166
313.15	0.079836	1011.151	0.166
313.15	0.129471	1011.892	0.167
313.15	0.183938	1012.672	0.167
313.15	0.229396	1013.322	0.167
313.15	0.284238	1014.141	0.168
313.15	0.345016	1015.057	0.168
313.15	0.534177	1017.802	0.169
313.15	0.767267	1020.831	0.171
318.15	0.00271	1007.916	0.166
318.15	0.003125	1007.936	0.165
318.15	0.004944	1007.963	0.166
318.15	0.006172	1007.995	0.165
318.15	0.010977	1008.04	0.165
318.15	0.019516	1008.158	0.165
318.15	0.024419	1008.218	0.165
318.15	0.032183	1008.362	0.165
318.15	0.079836	1009.002	0.165
318.15	0.129471	1009.699	0.166
318.15	0.183938	1010.432	0.166
318.15	0.229396	1011.039	0.166
318.15	0.284238	1011.804	0.167
318.15	0.345016	1012.662	0.167
318.15	0.534177	1015.22	0.168
318.15	0.767267	1018.031	0.17

System: trisodium citrate + tetrabutylammonium bromide + water; phases: Liquid
Fixed: Solvent: Amount ratio of component to other component of binary solvent of trisodium citrate = 0.5
Fixed: Pressure, kPa = 101
Property: Speed of sound, m/s (Liquid); method: Sing-around technique in a fixed-path interferometer
Temperature, K	Molality, mol/kg of tetrabutylammonium bromide	Speed of sound, m/s	uncertainty
293.15	0.00271	1504.99	1.41
293.15	0.003125	1505.08	1.41
293.15	0.004944	1505.57	1.41
293.15	0.006172	1506.01	1.41
293.15	0.010977	1507.03	1.41
293.15	0.019516	1509.25	1.41
293.15	0.024419	1510.23	1.41
293.15	0.032183	1512.37	1.41
293.15	0.079836	1524.06	1.42
293.15	0.129471	1535.86	1.42
293.15	0.183938	1548.09	1.42
293.15	0.229396	1557.92	1.42
293.15	0.284238	1569.54	1.42
293.15	0.345016	1581.97	1.43
293.15	0.534177	1616.6	1.4
293.15	0.767267	1651.35	1.44
298.15	0.00271	1518.39	1.41
298.15	0.003125	1518.48	1.41
298.15	0.004944	1518.91	1.41
298.15	0.006172	1519.25	1.41
298.15	0.010977	1520.3	1.41
298.15	0.019516	1522.33	1.41
298.15	0.024419	1523.31	1.42
298.15	0.032183	1525.24	1.42
298.15	0.079836	1536	1.42
298.15	0.129471	1546.84	1.42
298.15	0.183938	1558.1	1.42
298.15	0.229396	1567.1	1.42
298.15	0.284238	1577.69	1.42
298.15	0.345016	1589.01	1.43
298.15	0.534177	1620.22	1.43
298.15	0.767267	1651.08	1.44
303.15	0.00271	1530.14	1.42
303.15	0.003125	1530.19	1.42
303.15	0.004944	1530.58	1.42
303.15	0.006172	1530.89	1.42
303.15	0.010977	1531.88	1.42
303.15	0.019516	1533.73	1.42
303.15	0.024419	1534.61	1.42
303.15	0.032183	1536.44	1.42
303.15	0.079836	1546.29	1.42
303.15	0.129471	1556.27	1.42
303.15	0.183938	1566.57	1.42
303.15	0.229396	1574.76	1.42
303.15	0.284238	1584.41	1.43
303.15	0.345016	1594.69	1.43
303.15	0.534177	1622.67	1.43
303.15	0.767267	1649.96	1.44
308.15	0.00271	1540.16	1.42
308.15	0.003125	1540.21	1.42
308.15	0.004944	1540.58	1.42
308.15	0.006172	1540.84	1.42
308.15	0.010977	1541.78	1.42
308.15	0.019516	1543.46	1.42
308.15	0.024419	1544.38	1.42
308.15	0.032183	1545.96	1.42
308.15	0.079836	1555	1.42
308.15	0.129471	1564.21	1.42
308.15	0.183938	1573.59	1.42
308.15	0.229396	1581.05	1.42
308.15	0.284238	1589.78	1.43
308.15	0.345016	1599.03	1.43
308.15	0.534177	1624.05	1.43
308.15	0.767267	1648.09	1.44
313.15	0.00271	1548.64	1.42
313.15	0.003125	1548.75	1.42
313.15	0.004944	1549.06	1.42
313.15	0.006172	1549.33	1.42
313.15	0.010977	1550.18	1.42
313.15	0.019516	1551.7	1.42
313.15	0.024419	1552.51	1.42
313.15	0.032183	1554.02	1.42
313.15	0.079836	1562.25	1.42
313.15	0.129471	1570.61	1.42
313.15	0.183938	1579.14	1.42
313.15	0.229396	1585.87	1.43
313.15	0.284238	1593.91	1.43
313.15	0.345016	1602.15	1.43
313.15	0.534177	1624.35	1.43
313.15	0.767267	1645.36	1.44
318.15	0.00271	1555.78	1.42
318.15	0.003125	1555.77	1.42
318.15	0.004944	1556.07	1.42
318.15	0.006172	1556.33	1.42
318.15	0.010977	1557.13	1.42
318.15	0.019516	1558.5	1.42
318.15	0.024419	1559.27	1.42
318.15	0.032183	1560.66	1.42
318.15	0.079836	1568.12	1.42
318.15	0.129471	1575.68	1.42
318.15	0.183938	1583.4	1.42
318.15	0.229396	1589.48	1.43
318.15	0.284238	1596.72	1.43
318.15	0.345016	1604	1.43
318.15	0.534177	1623.6	1.43
318.15	0.767267	1641.83	1.44

System: trisodium citrate + tetrabutylammonium bromide + water; phases: Liquid mixture 1, Liquid mixture 2
Fixed: Pressure, kPa = 101
Property: Molality, mol/kg of tetrabutylammonium bromide (Liquid mixture 1); method: Titration
Temperature, K	Molality, mol/kg of trisodium citrate	Molality, mol/kg of tetrabutylammonium bromide	uncertainty
298.15	0.1704	2.6278	0.0398
298.15	0.2788	1.9619	0.0255
298.15	0.3069	1.7972	0.0204
298.15	0.356	1.6223	0.016
298.15	0.4204	1.4085	0.0112
298.15	0.5026	1.1812	0.0067
298.15	0.5694	1.0322	0.0053
298.15	0.623	0.8942	0.0055
298.15	0.6891	0.7641	0.0069
298.15	0.7344	0.662	0.0088
298.15	0.7883	0.571	0.0105
298.15	0.8351	0.4967	0.012
298.15	0.8766	0.4359	0.0106
298.15	0.8902	0.4166	0.0101
298.15	0.9802	0.331	0.0079
298.15	1.0581	0.2638	0.0064
298.15	1.1159	0.2187	0.0052
298.15	1.2031	0.1723	0.0042
298.15	1.3239	0.1388	0.0036
308.15	0.2426	2.1008	0.0268
308.15	0.286	1.9272	0.0234
308.15	0.3169	1.7649	0.0195
308.15	0.361	1.5926	0.0159
308.15	0.4178	1.3647	0.0108
308.15	0.5026	1.1176	0.0066
308.15	0.5697	0.9311	0.0058
308.15	0.6321	0.7825	0.0068
308.15	0.6878	0.6654	0.0088
308.15	0.7414	0.5691	0.0106
308.15	0.7891	0.4893	0.0119
308.15	0.8339	0.4187	0.0101
308.15	0.8659	0.3807	0.0092
308.15	0.9075	0.3352	0.008
308.15	0.9708	0.2781	0.0066
308.15	1.0584	0.224	0.0053
308.15	1.1265	0.1919	0.0046
308.15	1.2054	0.1528	0.0039
308.15	1.3346	0.1121	0.0032
318.15	0.1785	2.5715	0.0396
318.15	0.218	2.2684	0.0331
318.15	0.2502	2.0334	0.0269
318.15	0.2917	1.8152	0.0209
318.15	0.3547	1.5717	0.0153
318.15	0.4178	1.3325	0.0108
318.15	0.4761	1.1162	0.0073
318.15	0.538	0.9402	0.006
318.15	0.5887	0.8091	0.0068
318.15	0.6192	0.7336	0.0094
318.15	0.6251	0.7131	0.0097
318.15	0.678	0.5931	0.0102
318.15	0.7543	0.4718	0.0114
318.15	0.8488	0.3481	0.0084
318.15	0.9634	0.2559	0.0061
318.15	1.1282	0.1811	0.0044
318.15	1.2688	0.139	0.0036
318.15	1.4184	0.1067	0.0031

System: trisodium citrate + tetrabutylammonium bromide + water; phases: Liquid mixture 2, Liquid mixture 1
Fixed: Pressure, kPa = 101
Property: Mass fraction of tetrabutylammonium bromide (Liquid mixture 2); method: Flame Photometry
Property: Mass fraction of trisodium citrate (Liquid mixture 1); method: Flame Photometry
Property: Mass fraction of tetrabutylammonium bromide (Liquid mixture 1); method: Flame Photometry
Temperature, K	Mass fraction of trisodium citrate	Mass fraction of tetrabutylammonium bromide	uncertainty	Mass fraction of trisodium citrate	uncertainty	Mass fraction of tetrabutylammonium bromide	uncertainty
298.15	0.2179	0.0946	0.0025	0.0702	0.0018	0.3348	
308.15	0.3231	0.0258	0.0012	0.0231	0.0011	0.5616	
318.15	0.2131	0.077	0.002	0.0446	0.0014	0.4024	
318.15	0.2349	0.0645	0.0018	0.0381	0.0013	0.4552	
318.15	0.2549	0.0496	0.0015	0.0357	0.0013	0.5029	
318.15	0.2831	0.0432	0.0014	0.0302	0.0012	0.5356	
318.15	0.3014	0.0397	0.0013	0.0266	0.0012	0.5671	
298.15	0.2564	0.0528	0.0017	0.0416	0.0014	0.4219	
298.15	0.2767	0.0455	0.0015	0.0357	0.0013	0.4499	
298.15	0.3072	0.0319	0.0013	0.03	0.0012	0.4915	
298.15	0.3346	0.0269	0.0012	0.0276	0.0012	0.5228	
308.15	0.2256	0.0711	0.0019	0.058	0.0016	0.3687	
308.15	0.2426	0.0654	0.0018	0.0442	0.0014	0.4354	
308.15	0.2669	0.0432	0.0015	0.0325	0.0012	0.4979	
308.15	0.2983	0.0311	0.0012	0.0338	0.0012	0.5141	

System: tetrabutylammonium bromide + water; phases: Liquid
Fixed: Pressure, kPa = 101
Property: Mass density, kg/m3 (Liquid); method: Vibrating tube method
Temperature, K	Molality, mol/kg of tetrabutylammonium bromide	Mass density, kg/m3	uncertainty
293.15	0.0015	998.245	0.107
293.15	0.0047	998.318	0.107
293.15	0.0061	998.352	0.107
293.15	0.013	998.509	0.107
293.15	0.0183	998.632	0.107
293.15	0.026	998.809	0.107
293.15	0.031	998.934	0.107
293.15	0.0492	999.359	0.108
293.15	0.0796	1000.083	0.108
293.15	0.0997	1000.555	0.109
293.15	0.1118	1000.849	0.11
293.15	0.1291	1001.257	0.11
293.15	0.1464	1001.68	0.111
293.15	0.1626	1002.061	0.112
293.15	0.1952	1002.853	0.113
293.15	0.2309	1003.709	0.115
293.15	0.2732	1004.727	0.118
293.15	0.3073	1005.546	0.121
293.15	0.3449	1006.427	0.124
293.15	0.5437	1011.096	0.147
293.15	0.7712	1016.121	0.188
298.15	0.0015	997.085	0.107
298.15	0.0047	997.156	0.107
298.15	0.0061	997.187	0.107
298.15	0.013	997.335	0.107
298.15	0.0183	997.458	0.107
298.15	0.026	997.626	0.107
298.15	0.031	997.744	0.107
298.15	0.0492	998.14	0.108
298.15	0.0796	998.844	0.109
298.15	0.0997	999.297	0.109
298.15	0.1118	999.574	0.11
298.15	0.1291	999.966	0.11
298.15	0.1464	1000.369	0.111
298.15	0.1626	1000.734	0.112
298.15	0.1952	1001.489	0.113
298.15	0.2309	1002.304	0.115
298.15	0.2732	1003.274	0.118
298.15	0.3073	1004.05	0.12
298.15	0.3449	1004.884	0.123
298.15	0.5437	1009.296	0.146
298.15	0.7712	1014.011	0.187
303.15	0.0015	995.686	0.107
303.15	0.0047	995.754	0.107
303.15	0.0061	995.785	0.107
303.15	0.013	995.926	0.108
303.15	0.0183	996.041	0.108
303.15	0.026	996.204	0.108
303.15	0.031	996.318	0.108
303.15	0.0492	996.704	0.108
303.15	0.0796	997.37	0.109
303.15	0.0997	997.802	0.11
303.15	0.1118	998.068	0.11
303.15	0.1291	998.443	0.111
303.15	0.1464	998.826	0.111
303.15	0.1626	999.177	0.112
303.15	0.1952	999.897	0.113
303.15	0.2309	1000.673	0.115
303.15	0.2732	1001.595	0.118
303.15	0.3073	1002.332	0.12
303.15	0.3449	1003.121	0.123
303.15	0.5437	1007.293	0.146
303.15	0.7712	1011.727	0.186
308.15	0.0015	994.069	0.108
308.15	0.0047	994.133	0.108
308.15	0.0061	994.141	0.108
308.15	0.013	994.299	0.108
308.15	0.0183	994.411	0.108
308.15	0.026	994.559	0.108
308.15	0.031	994.67	0.108
308.15	0.0492	995.05	0.109
308.15	0.0796	995.683	0.109
308.15	0.0997	996.092	0.11
308.15	0.1118	996.35	0.11
308.15	0.1291	996.709	0.111
308.15	0.1464	997.075	0.112
308.15	0.1626	997.408	0.112
308.15	0.1952	998.092	0.114
308.15	0.2309	998.837	0.115
308.15	0.2732	999.711	0.118
308.15	0.3073	1000.414	0.12
308.15	0.3449	1001.162	0.123
308.15	0.5437	1005.109	0.145
308.15	0.7712	1009.282	0.185
313.15	0.0015	992.252	0.108
313.15	0.0047	992.309	0.108
313.15	0.0061	992.322	0.108
313.15	0.013	992.471	0.108
313.15	0.0183	992.571	0.108
313.15	0.026	992.724	0.109
313.15	0.031	992.829	0.109
313.15	0.0492	993.186	0.109
313.15	0.0796	993.797	0.11
313.15	0.0997	994.191	0.11
313.15	0.1118	994.435	0.111
313.15	0.1291	994.777	0.111
313.15	0.1464	995.128	0.112
313.15	0.1626	995.446	0.113
313.15	0.1952	996.099	0.114
313.15	0.2309	996.807	0.116
313.15	0.2732	997.64	0.118
313.15	0.3073	998.309	0.12
313.15	0.3449	999.017	0.123
313.15	0.5437	1002.753	0.144
313.15	0.7712	1006.685	0.183
318.15	0.0015	990.25	0.108
318.15	0.0047	990.268	0.109
318.15	0.0061	990.285	0.109
318.15	0.013	990.457	0.109
318.15	0.0183	990.535	0.109
318.15	0.026	990.703	0.109
318.15	0.031	990.802	0.109
318.15	0.0492	991.142	0.109
318.15	0.0796	991.727	0.11
318.15	0.0997	992.105	0.111
318.15	0.1118	992.338	0.111
318.15	0.1291	992.665	0.112
318.15	0.1464	992.999	0.112
318.15	0.1626	993.303	0.113
318.15	0.1952	993.923	0.114
318.15	0.2309	994.602	0.116
318.15	0.2732	995.396	0.119
318.15	0.3073	996.027	0.121
318.15	0.3449	996.7	0.123
318.15	0.5437	1000.237	0.144
318.15	0.7712	1003.95	0.182

System: tetrabutylammonium bromide + water; phases: Liquid
Fixed: Pressure, kPa = 101
Property: Speed of sound, m/s (Liquid); method: Sing-around technique in a fixed-path interferometer
Temperature, K	Molality, mol/kg of tetrabutylammonium bromide	Speed of sound, m/s	uncertainty
293.15	0.0015	1483.27	1.22
293.15	0.0047	1484.13	1.22
293.15	0.0061	1484.58	1.22
293.15	0.013	1486.14	1.22
293.15	0.0183	1487.67	1.22
293.15	0.026	1489.46	1.22
293.15	0.031	1490.87	1.22
293.15	0.0492	1495.07	1.22
293.15	0.0796	1502.6	1.23
293.15	0.0997	1507.48	1.23
293.15	0.1118	1510.38	1.23
293.15	0.1291	1514.52	1.23
293.15	0.1464	1518.52	1.23
293.15	0.1626	1522.22	1.23
293.15	0.1952	1529.48	1.24
293.15	0.2309	1537.45	1.24
293.15	0.2732	1546.54	1.24
293.15	0.3073	1553.8	1.25
293.15	0.3449	1561.66	1.25
293.15	0.5437	1599.45	1.27
293.15	0.7712	1635.95	1.28
298.15	0.0015	1497.31	1.22
298.15	0.0047	1498.17	1.22
298.15	0.0061	1498.62	1.22
298.15	0.013	1500.05	1.22
298.15	0.0183	1501.38	1.22
298.15	0.026	1503.06	1.22
298.15	0.031	1504.3	1.22
298.15	0.0492	1508.43	1.23
298.15	0.0796	1515.22	1.23
298.15	0.0997	1519.66	1.23
298.15	0.1118	1522.39	1.23
298.15	0.1291	1526.18	1.23
298.15	0.1464	1529.93	1.23
298.15	0.1626	1533.31	1.24
298.15	0.1952	1540.09	1.24
298.15	0.2309	1547.3	1.24
298.15	0.2732	1555.72	1.25
298.15	0.3073	1562.33	1.25
298.15	0.3449	1569.46	1.25
298.15	0.5437	1603.7	1.27
298.15	0.7712	1636.27	1.28
303.15	0.0015	1509.6	1.22
303.15	0.0047	1510.35	1.22
303.15	0.0061	1510.72	1.22
303.15	0.013	1512.13	1.22
303.15	0.0183	1513.35	1.23
303.15	0.026	1514.92	1.23
303.15	0.031	1516.07	1.23
303.15	0.0492	1519.77	1.23
303.15	0.0796	1526.18	1.23
303.15	0.0997	1530.26	1.23
303.15	0.1118	1532.75	1.23
303.15	0.1291	1536.21	1.23
303.15	0.1464	1539.67	1.24
303.15	0.1626	1542.77	1.24
303.15	0.1952	1548.89	1.24
303.15	0.2309	1555.6	1.24
303.15	0.2732	1563.29	1.25
303.15	0.3073	1569.35	1.25
303.15	0.3449	1575.83	1.25
303.15	0.5437	1606.74	1.27
303.15	0.7712	1635.69	1.28
308.15	0.0015	1520.2	1.23
308.15	0.0047	1520.88	1.23
308.15	0.0061	1521.24	1.23
308.15	0.013	1522.55	1.23
308.15	0.0183	1523.7	1.23
308.15	0.026	1525.09	1.23
308.15	0.031	1526.13	1.23
308.15	0.0492	1529.46	1.23
308.15	0.0796	1535.44	1.23
308.15	0.0997	1539.17	1.23
308.15	0.1118	1541.49	1.23
308.15	0.1291	1544.67	1.24
308.15	0.1464	1547.84	1.24
308.15	0.1626	1550.7	1.24
308.15	0.1952	1556.31	1.24
308.15	0.2309	1562.45	1.24
308.15	0.2732	1569.49	1.25
308.15	0.3073	1574.94	1.25
308.15	0.3449	1580.82	1.25
308.15	0.5437	1608.64	1.27
308.15	0.7712	1634.37	1.28
313.15	0.0015	1529.24	1.23
313.15	0.0047	1529.9	1.23
313.15	0.0061	1530.23	1.23
313.15	0.013	1531.39	1.23
313.15	0.0183	1532.39	1.23
313.15	0.026	1533.75	1.23
313.15	0.031	1534.74	1.23
313.15	0.0492	1537.75	1.23
313.15	0.0796	1543.23	1.23
313.15	0.0997	1546.64	1.24
313.15	0.1118	1548.76	1.24
313.15	0.1291	1551.67	1.24
313.15	0.1464	1554.58	1.24
313.15	0.1626	1557.18	1.24
313.15	0.1952	1562.32	1.24
313.15	0.2309	1567.87	1.25
313.15	0.2732	1574.35	1.25
313.15	0.3073	1579.16	1.25
313.15	0.3449	1584.52	1.25
313.15	0.5437	1609.48	1.27
313.15	0.7712	1632.03	1.28
318.15	0.0015	1536.78	1.23
318.15	0.0047	1537.36	1.23
318.15	0.0061	1537.62	1.23
318.15	0.013	1538.74	1.23
318.15	0.0183	1539.66	1.23
318.15	0.026	1540.89	1.23
318.15	0.031	1541.78	1.23
318.15	0.0492	1544.57	1.23
318.15	0.0796	1549.59	1.23
318.15	0.0997	1552.7	1.24
318.15	0.1118	1554.64	1.24
318.15	0.1291	1557.27	1.24
318.15	0.1464	1559.94	1.24
318.15	0.1626	1562.3	1.24
318.15	0.1952	1566.98	1.24
318.15	0.2309	1572.01	1.25
318.15	0.2732	1577.81	1.25
318.15	0.3073	1582.27	1.25
318.15	0.3449	1587.07	1.25
318.15	0.5437	1609.22	1.27
318.15	0.7712	1629.03	1.28
