Measured thermophysical data. Pressure volume temperature (PVT) measurements of ionic liquids ([bmim+][PF6-], [bmim+][BF4-], [bmim+][OcSO4-]) and analysis with the Sanchez Lacombe equation of state
Source: Fluid Phase Equilib., 2008, 10.1016/j.fluid.2007.11.005
Compound 1: 1-butyl-3-methylimidazolium hexafluorophosphate, C8H15F6N2P, InChI=1S/C8H15N2.F6P/c1-3-4-5-10-7-6-9(2)8-10;1-7(2,3,4,5)6/h6-8H,3-5H2,1-2H3;/q+1;-1
Compound 2: 1-butyl-3-methylimidazolium tetrafluoroborate, C8H15BF4N2, InChI=1S/C8H15N2.BF4/c1-3-4-5-10-7-6-9(2)8-10;2-1(3,4)5/h6-8H,3-5H2,1-2H3;/q+1;-1
Compound 3: 1-butyl-3-methylimidazolium octyl sulfate, C16H32N2O4S, InChI=1S/C8H15N2.C8H18O4S/c1-3-4-5-10-7-6-9(2)8-10;1-2-3-4-5-6-7-8-12-13(9,10)11/h6-8H,3-5H2,1-2H3;2-8H2,1H3,(H,9,10,11)/q+1;/p-1

System: 1-butyl-3-methylimidazolium hexafluorophosphate; phases: Liquid
Property: Mass density, kg/m3 (Liquid); method: Bellows volumetry
Pressure, kPa	Temperature, K	Mass density, kg/m3	uncertainty
100	312.8	1352	4
10000	312.8	1358	4
10000	332.6	1342	3
10000	353.2	1325	3
10000	372.7	1310	3
10000	392.8	1299	3
10000	412.8	1284	3
10000	432.6	1269	3
10000	452.5	1254	3
10000	472.3	1240	3
20000	312.8	1363	4
20000	332.6	1347	4
20000	353.2	1332	3
20000	372.7	1317	3
20000	392.8	1305	3
20000	412.8	1290	3
20000	432.6	1276	3
20000	452.5	1262	3
20000	472.3	1248	3
30000	312.8	1368	4
30000	332.6	1353	4
30000	353.2	1338	3
30000	372.7	1323	3
30000	392.8	1311	3
30000	412.8	1297	3
30000	432.6	1283	3
30000	452.5	1269	3
30000	472.3	1256	3
40000	312.8	1373	4
40000	332.6	1358	4
40000	353.2	1343	3
40000	372.7	1329	3
40000	392.8	1317	3
40000	412.8	1303	3
40000	432.6	1290	3
40000	452.5	1276	3
40000	472.3	1263	3
50000	312.8	1378	4
50000	332.6	1363	4
50000	353.2	1349	4
50000	372.7	1334	3
50000	392.8	1323	3
50000	412.8	1309	3
50000	432.6	1296	3
50000	452.5	1283	3
50000	472.3	1270	3
60000	312.8	1383	4
60000	332.6	1368	4
60000	353.2	1354	4
60000	372.7	1339	3
60000	392.8	1329	3
60000	412.8	1315	3
60000	432.6	1302	3
60000	452.5	1289	3
60000	472.3	1276	3
70000	312.8	1388	4
70000	332.6	1373	4
70000	353.2	1359	4
70000	372.7	1345	4
70000	392.8	1334	3
70000	412.8	1321	3
70000	432.6	1308	3
70000	452.5	1295	3
70000	472.3	1282	3
80000	312.8	1392	4
80000	332.6	1378	4
80000	353.2	1364	4
80000	372.7	1350	4
80000	392.8	1339	3
80000	412.8	1326	3
80000	432.6	1313	3
80000	452.5	1301	3
80000	472.3	1289	3
90000	312.8	1396	4
90000	332.6	1382	4
90000	353.2	1368	4
90000	372.7	1355	4
90000	392.8	1344	4
90000	412.8	1331	3
90000	432.6	1319	3
90000	452.5	1306	3
90000	472.3	1294	3
100000	312.8	1400	4
100000	332.6	1387	4
100000	353.2	1373	4
100000	372.7	1360	4
100000	392.8	1349	4
100000	412.8	1336	3
100000	432.6	1324	3
100000	452.5	1312	3
100000	472.3	1300	3
110000	312.8	1405	4
110000	332.6	1391	4
110000	353.2	1377	4
110000	372.7	1364	4
110000	392.8	1354	4
110000	412.8	1341	4
110000	432.6	1329	3
110000	452.5	1317	3
110000	472.3	1305	3
120000	312.8	1409	4
120000	332.6	1395	4
120000	353.2	1382	4
120000	372.7	1369	4
120000	392.8	1359	4
120000	412.8	1346	4
120000	432.6	1334	3
120000	452.5	1322	3
120000	472.3	1311	3
130000	312.8	1412	4
130000	332.6	1399	4
130000	353.2	1386	4
130000	372.7	1373	4
130000	392.8	1363	4
130000	412.8	1351	4
130000	432.6	1339	4
130000	452.5	1327	3
130000	472.3	1316	3
140000	312.8	1416	4
140000	332.6	1403	4
140000	353.2	1390	4
140000	372.7	1377	4
140000	392.8	1367	4
140000	412.8	1355	4
140000	432.6	1343	4
140000	452.5	1332	3
140000	472.3	1320	3
150000	312.8	1420	4
150000	332.6	1407	4
150000	353.2	1394	4
150000	372.7	1381	4
150000	392.8	1372	4
150000	412.8	1360	4
150000	432.6	1348	4
150000	452.5	1336	4
150000	472.3	1325	3
160000	312.8	1424	4
160000	332.6	1411	4
160000	353.2	1398	4
160000	372.7	1385	4
160000	392.8	1376	4
160000	412.8	1364	4
160000	432.6	1352	4
160000	452.5	1341	4
160000	472.3	1330	4
170000	312.8	1427	4
170000	332.6	1415	4
170000	353.2	1402	4
170000	372.7	1389	4
170000	392.8	1380	4
170000	412.8	1368	4
170000	432.6	1357	4
170000	452.5	1345	4
170000	472.3	1334	4
180000	312.8	1431	4
180000	332.6	1418	4
180000	353.2	1405	4
180000	372.7	1393	4
180000	392.8	1384	4
180000	412.8	1372	4
180000	432.6	1361	4
180000	452.5	1350	4
180000	472.3	1339	4
190000	312.8	1435	4
190000	332.6	1422	4
190000	353.2	1409	4
190000	372.7	1397	4
190000	392.8	1388	4
190000	412.8	1376	4
190000	432.6	1365	4
190000	452.5	1354	4
190000	472.3	1343	4
200000	312.8	1438	4
200000	332.6	1425	4
200000	353.2	1413	4
200000	372.7	1401	4
200000	392.8	1392	4
200000	412.8	1380	4
200000	432.6	1369	4
200000	452.5	1358	4
200000	472.3	1347	4

System: 1-butyl-3-methylimidazolium tetrafluoroborate; phases: Liquid
Property: Mass density, kg/m3 (Liquid); method: Bellows volumetry
Pressure, kPa	Temperature, K	Mass density, kg/m3	uncertainty
100	313.1	1191	3
10000	313.1	1195	3
10000	332.6	1182	3
10000	352.6	1168	3
10000	372.7	1155	3
10000	392.8	1142	3
10000	412.9	1129	3
10000	432.6	1116	3
10000	452.3	1102	3
10000	472.2	1090	2
20000	313.1	1200	3
20000	332.6	1186	3
20000	352.6	1173	3
20000	372.7	1160	3
20000	392.8	1148	3
20000	412.9	1135	3
20000	432.6	1122	3
20000	452.3	1108	3
20000	472.2	1096	2
30000	313.1	1204	3
30000	332.6	1191	3
30000	352.6	1178	3
30000	372.7	1165	3
30000	392.8	1153	3
30000	412.9	1140	3
30000	432.6	1127	3
30000	452.3	1115	3
30000	472.2	1102	3
40000	313.1	1208	3
40000	332.6	1195	3
40000	352.6	1182	3
40000	372.7	1170	3
40000	392.8	1158	3
40000	412.9	1145	3
40000	432.6	1133	3
40000	452.3	1120	3
40000	472.2	1108	3
50000	313.1	1212	3
50000	332.6	1200	3
50000	352.6	1187	3
50000	372.7	1174	3
50000	392.8	1163	3
50000	412.9	1150	3
50000	432.6	1138	3
50000	452.3	1126	3
50000	472.2	1114	3
60000	313.1	1216	3
60000	332.6	1204	3
60000	352.6	1191	3
60000	372.7	1179	3
60000	392.8	1167	3
60000	412.9	1155	3
60000	432.6	1143	3
60000	452.3	1131	3
60000	472.2	1119	3
70000	313.1	1220	3
70000	332.6	1208	3
70000	352.6	1195	3
70000	372.7	1183	3
70000	392.8	1172	3
70000	412.9	1160	3
70000	432.6	1148	3
70000	452.3	1136	3
70000	472.2	1124	3
80000	313.1	1224	3
80000	332.6	1212	3
80000	352.6	1199	3
80000	372.7	1187	3
80000	392.8	1176	3
80000	412.9	1164	3
80000	432.6	1152	3
80000	452.3	1140	3
80000	472.2	1129	3
90000	313.1	1227	3
90000	332.6	1215	3
90000	352.6	1203	3
90000	372.7	1191	3
90000	392.8	1180	3
90000	412.9	1169	3
90000	432.6	1157	3
90000	452.3	1145	3
90000	472.2	1134	3
100000	313.1	1231	3
100000	332.6	1219	3
100000	352.6	1207	3
100000	372.7	1195	3
100000	392.8	1184	3
100000	412.9	1173	3
100000	432.6	1161	3
100000	452.3	1150	3
100000	472.2	1139	3
110000	313.1	1234	3
110000	332.6	1223	3
110000	352.6	1211	3
110000	372.7	1199	3
110000	392.8	1188	3
110000	412.9	1177	3
110000	432.6	1165	3
110000	452.3	1154	3
110000	472.2	1143	3
120000	313.1	1238	3
120000	332.6	1226	3
120000	352.6	1214	3
120000	372.7	1203	3
120000	392.8	1192	3
120000	412.9	1181	3
120000	432.6	1170	3
120000	452.3	1158	3
120000	472.2	1147	3
130000	313.1	1241	3
130000	332.6	1229	3
130000	352.6	1218	3
130000	372.7	1206	3
130000	392.8	1195	3
130000	412.9	1185	3
130000	432.6	1173	3
130000	452.3	1162	3
130000	472.2	1152	3
140000	313.1	1244	3
140000	332.6	1233	3
140000	352.6	1221	3
140000	372.7	1210	3
140000	392.8	1199	3
140000	412.9	1189	3
140000	432.6	1177	3
140000	452.3	1166	3
140000	472.2	1156	3
150000	313.1	1248	3
150000	332.6	1236	3
150000	352.6	1225	3
150000	372.7	1213	3
150000	392.8	1203	3
150000	412.9	1192	3
150000	432.6	1181	3
150000	452.3	1170	3
150000	472.2	1160	3
160000	313.1	1251	3
160000	332.6	1239	3
160000	352.6	1228	3
160000	372.7	1217	3
160000	392.8	1206	3
160000	412.9	1196	3
160000	432.6	1185	3
160000	452.3	1174	3
160000	472.2	1164	3
170000	313.1	1254	3
170000	332.6	1243	3
170000	352.6	1231	3
170000	372.7	1220	3
170000	392.8	1210	3
170000	412.9	1199	3
170000	432.6	1188	3
170000	452.3	1177	3
170000	472.2	1167	3
180000	313.1	1257	3
180000	332.6	1246	3
180000	352.6	1234	3
180000	372.7	1223	3
180000	392.8	1213	3
180000	412.9	1203	3
180000	432.6	1192	3
180000	452.3	1181	3
180000	472.2	1171	3
190000	313.1	1260	3
190000	332.6	1249	3
190000	352.6	1237	3
190000	372.7	1227	3
190000	392.8	1216	3
190000	412.9	1206	3
190000	432.6	1195	3
190000	452.3	1185	3
190000	472.2	1175	3
200000	313.1	1263	3
200000	332.6	1252	3
200000	352.6	1241	3
200000	372.7	1230	3
200000	392.8	1220	3
200000	412.9	1210	3
200000	432.6	1199	3
200000	452.3	1188	3
200000	472.2	1178	3

System: 1-butyl-3-methylimidazolium octyl sulfate; phases: Liquid
Property: Mass density, kg/m3 (Liquid); method: Bellows volumetry
Pressure, kPa	Temperature, K	Mass density, kg/m3	uncertainty
100	312.9	1060	6
10000	312.9	1065	6
10000	332.8	1052	6
10000	352.8	1040	6
10000	373	1028	6
10000	393.1	1016	6
10000	413	1004	5
10000	432.9	992	5
10000	452.7	978	5
10000	472.6	964	5
20000	312.9	1070	6
20000	332.8	1058	6
20000	352.8	1046	6
20000	373	1034	6
20000	393.1	1023	6
20000	413	1011	6
20000	432.9	999	5
20000	452.7	985	5
20000	472.6	972	5
30000	312.9	1075	6
30000	332.8	1063	6
30000	352.8	1051	6
30000	373	1040	6
30000	393.1	1028	6
30000	413	1017	6
30000	432.9	1006	5
30000	452.7	992	5
30000	472.6	980	5
40000	312.9	1080	6
40000	332.8	1068	6
40000	352.8	1056	6
40000	373	1045	6
40000	393.1	1034	6
40000	413	1023	6
40000	432.9	1012	6
40000	452.7	999	5
40000	472.6	987	5
50000	312.9	1084	6
50000	332.8	1073	6
50000	352.8	1061	6
50000	373	1050	6
50000	393.1	1039	6
50000	413	1029	6
50000	432.9	1018	6
50000	452.7	1005	5
50000	472.6	993	5
60000	312.9	1091	6
60000	332.8	1077	6
60000	352.8	1066	6
60000	373	1055	6
60000	393.1	1045	6
60000	413	1034	6
60000	432.9	1023	6
60000	452.7	1011	6
60000	472.6	999	5
70000	312.9	1093	6
70000	332.8	1081	6
70000	352.8	1070	6
70000	373	1060	6
70000	393.1	1049	6
70000	413	1039	6
70000	432.9	1029	6
70000	452.7	1017	6
70000	472.6	1005	5
80000	312.9	1097	6
80000	332.8	1085	6
80000	352.8	1075	6
80000	373	1064	6
80000	393.1	1054	6
80000	413	1044	6
80000	432.9	1034	6
80000	452.7	1022	6
80000	472.6	1011	6
90000	312.9	1096	6
90000	332.8	1089	6
90000	352.8	1079	6
90000	373	1068	6
90000	393.1	1058	6
90000	413	1049	6
90000	432.9	1038	6
90000	452.7	1027	6
90000	472.6	1016	6
100000	332.8	1093	6
100000	352.8	1083	6
100000	373	1073	6
100000	393.1	1063	6
100000	413	1053	6
100000	432.9	1043	6
100000	452.7	1032	6
100000	472.6	1021	6
110000	332.8	1097	6
110000	352.8	1087	6
110000	373	1077	6
110000	393.1	1067	6
110000	413	1057	6
110000	432.9	1048	6
110000	452.7	1036	6
110000	472.6	1026	6
120000	332.8	1101	7
120000	352.8	1090	6
120000	373	1080	6
120000	393.1	1071	6
120000	413	1062	6
120000	432.9	1052	6
120000	452.7	1041	6
120000	472.6	1030	6
130000	332.8	1104	7
130000	352.8	1094	6
130000	373	1084	6
130000	393.1	1075	6
130000	413	1066	6
130000	432.9	1056	6
130000	452.7	1045	6
130000	472.6	1035	6
140000	332.8	1107	7
140000	352.8	1097	6
140000	373	1088	6
140000	393.1	1078	6
140000	413	1069	6
140000	432.9	1060	6
140000	452.7	1049	6
140000	472.6	1039	6
150000	332.8	1111	7
150000	352.8	1101	7
150000	373	1091	6
150000	393.1	1082	6
150000	413	1073	6
150000	432.9	1064	6
150000	452.7	1053	6
150000	472.6	1043	6
160000	332.8	1114	7
160000	352.8	1104	7
160000	373	1095	6
160000	393.1	1086	6
160000	413	1077	6
160000	432.9	1068	6
160000	452.7	1057	6
160000	472.6	1047	6
170000	332.8	1117	7
170000	352.8	1107	7
170000	373	1098	7
170000	393.1	1089	6
170000	413	1080	6
170000	432.9	1071	6
170000	452.7	1061	6
170000	472.6	1051	6
180000	332.8	1120	7
180000	352.8	1111	7
180000	373	1102	7
180000	393.1	1093	6
180000	413	1084	6
180000	432.9	1075	6
180000	452.7	1065	6
180000	472.6	1055	6
190000	332.8	1123	7
190000	352.8	1114	7
190000	373	1105	7
190000	393.1	1096	7
190000	413	1087	6
190000	432.9	1078	6
190000	452.7	1068	6
190000	472.6	1059	6
200000	332.8	1126	7
200000	352.8	1117	7
200000	373	1108	7
200000	393.1	1099	7
200000	413	1091	6
200000	432.9	1082	6
200000	452.7	1072	6
200000	472.6	1062	6
