Measured thermophysical data. Vapour liquid equilibrium for the 2-methylpropane + methanol, +ethanol, +2-propanol, +2-butanol and +2-methyl-2-propanol systems at 313.15K
Source: Fluid Phase Equilib., 2005, 10.1016/j.fluid.2005.03.016
Compound 1: 2-methylpropane, C4H10, InChI=1S/C4H10/c1-4(2)3/h4H,1-3H3, purity 99.4%
Compound 2: methanol, CH4O, InChI=1S/CH4O/c1-2/h2H,1H3, purity 99.8%
Compound 3: ethanol, C2H6O, InChI=1S/C2H6O/c1-2-3/h3H,2H2,1H3, purity 99.5%
Compound 4: propan-2-ol, C3H8O, InChI=1S/C3H8O/c1-3(2)4/h3-4H,1-2H3, purity 99.8%
Compound 5: butan-2-ol, C4H10O, InChI=1S/C4H10O/c1-3-4(2)5/h4-5H,3H2,1-2H3, purity 99.5%
Compound 6: 2-methylpropan-2-ol, C4H10O, InChI=1S/C4H10O/c1-4(2,3)5/h5H,1-3H3, purity 99.7%

System: 2-methylpropane; phases: Liquid, Gas
Property: Vapor or sublimation pressure, kPa (Liquid); method: Closed cell (Static) method
Temperature, K	Vapor or sublimation pressure, kPa	uncertainty
313.06	529.65	2.33
313.08	530.05	2.37
313.08	529.95	2.35
313.1	529.95	2.37
313.12	530.75	2.34

System: methanol; phases: Liquid, Gas
Property: Vapor or sublimation pressure, kPa (Liquid); method: Closed cell (Static) method
Temperature, K	Vapor or sublimation pressure, kPa	uncertainty
313.07	35.27	0.43

System: ethanol; phases: Liquid, Gas
Property: Vapor or sublimation pressure, kPa (Liquid); method: Closed cell (Static) method
Temperature, K	Vapor or sublimation pressure, kPa	uncertainty
313.07	17.77	0.41

System: propan-2-ol; phases: Liquid, Gas
Property: Vapor or sublimation pressure, kPa (Liquid); method: Closed cell (Static) method
Temperature, K	Vapor or sublimation pressure, kPa	uncertainty
313.11	13.77	0.41

System: butan-2-ol; phases: Liquid, Gas
Property: Vapor or sublimation pressure, kPa (Liquid); method: Closed cell (Static) method
Temperature, K	Vapor or sublimation pressure, kPa	uncertainty
313.1	5.97	0.4

System: 2-methylpropan-2-ol; phases: Liquid, Gas
Property: Vapor or sublimation pressure, kPa (Liquid); method: Closed cell (Static) method
Temperature, K	Vapor or sublimation pressure, kPa	uncertainty
313.08	13.77	0.41

System: methanol + 2-methylpropane; phases: Gas, Liquid
Property: Vapor or sublimation pressure, kPa (Gas); method: Closed cell (Static) method
Temperature, K	Mole fraction of 2-methylpropane	Vapor or sublimation pressure, kPa	uncertainty
313.05	0.9941	538.45	2.37
313.06	0.0467	261.26	1.18
313.06	0.0934	383.35	1.69
313.06	0.4501	535.55	2.36
313.06	0.4997	537.15	2.37
313.06	0.5484	538.35	2.37
313.06	0.5997	539.45	2.38
313.06	0.6499	540.45	2.38
313.06	0.7004	541.55	2.39
313.06	0.7508	542.55	2.39
313.06	0.903	547.04	2.41
313.06	0.9541	548.44	2.42
313.06	1	529.65	2.33
313.07	0	35.27	0.43
313.07	0.0289	190.96	0.9
313.07	0.1429	452.65	2
313.07	0.193	490.25	2.16
313.07	0.2443	510.95	2.25
313.07	0.2953	522.55	2.3
313.07	0.3985	533.35	2.35
313.07	0.801	543.84	2.4
313.07	0.8521	545.34	2.4
313.08	0.3477	529.35	2.33
313.08	0.4004	533.45	2.35

System: ethanol + 2-methylpropane; phases: Gas, Liquid
Property: Vapor or sublimation pressure, kPa (Gas); method: Closed cell (Static) method
Temperature, K	Mole fraction of 2-methylpropane	Vapor or sublimation pressure, kPa	uncertainty
313.07	0	17.77	0.41
313.07	0.1959	378.55	1.7
313.07	0.2459	415.25	1.86
313.07	0.2985	442.55	1.98
313.07	0.3496	461.45	2.06
313.07	0.4006	475.15	2.13
313.07	0.4491	484.45	2.17
313.07	0.4981	491.75	2.2
313.07	0.548	497.65	2.23
313.07	0.5978	502.35	2.25
313.08	0.0305	110.57	0.63
313.08	0.0489	157.77	0.79
313.08	0.0972	256.06	1.17
313.08	0.1457	326.76	1.47
313.08	0.6475	506.35	2.26
313.08	0.6978	509.95	2.28
313.08	1	530.05	2.37
313.09	0.748	513.45	2.3
313.09	0.7987	516.95	2.31
313.09	0.8495	520.85	2.33
313.09	0.9008	524.95	2.35
313.09	0.952	529.35	2.37
313.09	0.9908	531.85	2.38

System: propan-2-ol + 2-methylpropane; phases: Gas, Liquid
Property: Vapor or sublimation pressure, kPa (Gas); method: Closed cell (Static) method
Temperature, K	Mole fraction of 2-methylpropane	Vapor or sublimation pressure, kPa	uncertainty
313.09	0.4971	449.25	1.98
313.09	0.5464	459.75	2.03
313.09	0.5957	468.95	2.07
313.1	0.0318	81.57	0.53
313.1	0.645	477.15	2.1
313.1	0.695	485.05	2.14
313.1	0.7449	492.55	2.17
313.1	0.7946	499.75	2.2
313.1	0.8448	506.95	2.23
313.11	0	13.77	0.41
313.11	0.0505	116.67	0.64
313.11	0.0977	193.06	0.91
313.11	0.1466	255.96	1.16
313.11	0.1945	304.66	1.35
313.11	0.2447	344.86	1.52
313.11	0.2958	376.75	1.66
313.11	0.3459	401.55	1.77
313.11	0.8956	514.15	2.27
313.11	0.9458	521.45	2.3
313.12	0.3972	421.55	1.86
313.12	0.448	437.55	1.93
313.12	0.9867	527.75	2.33
313.12	1	530.75	2.34

System: 2-methylpropane + butan-2-ol; phases: Gas, Liquid
Property: Vapor or sublimation pressure, kPa (Gas); method: Closed cell (Static) method
Temperature, K	Mole fraction of 2-methylpropane	Vapor or sublimation pressure, kPa	uncertainty
313.06	0.3882	382.45	1.71
313.06	0.6441	458.15	2.05
313.07	0.0389	71.47	0.51
313.07	0.054	95.27	0.58
313.07	0.1173	181.46	0.88
313.07	0.1493	217.46	1.02
313.07	0.1866	254.26	1.17
313.07	0.2401	298.76	1.35
313.07	0.2925	334.06	1.5
313.07	0.4473	405.15	1.81
313.07	0.4959	421.35	1.89
313.07	0.4984	421.75	1.89
313.07	0.5335	431.85	1.93
313.07	0.5449	434.85	1.95
313.07	0.5943	447.05	2
313.08	0.3492	365.05	1.64
313.08	0.9931	527.05	2.36
313.09	0.6946	468.65	2.1
313.09	0.7442	478.45	2.14
313.09	0.7938	487.65	2.18
313.09	0.8446	496.65	2.22
313.09	0.8967	505.75	2.26
313.09	0.9527	516.25	2.31
313.1	0	5.97	0.4
313.1	1	529.95	2.37

System: 2-methylpropane + 2-methylpropan-2-ol; phases: Gas, Liquid
Property: Vapor or sublimation pressure, kPa (Gas); method: Closed cell (Static) method
Temperature, K	Mole fraction of 2-methylpropane	Vapor or sublimation pressure, kPa	uncertainty
313.08	0	13.77	0.41
313.08	0.037	67.47	0.5
313.08	0.0521	87.87	0.55
313.08	0.0981	142.67	0.73
313.08	0.1477	193.16	0.92
313.08	0.1965	235.36	1.08
313.08	0.2955	304.26	1.35
313.08	0.3455	332.46	1.48
313.08	0.3966	357.96	1.59
313.08	0.4476	380.45	1.69
313.08	0.7981	485.25	2.15
313.08	0.9484	516.25	2.29
313.08	0.9718	521.35	2.31
313.08	0.9909	526.85	2.33
313.08	0.9957	527.45	2.33
313.08	1	529.95	2.35
313.09	0.2441	270.96	1.22
313.09	0.4506	381.45	1.69
313.09	0.4997	400.65	1.78
313.09	0.549	418.05	1.85
313.09	0.6482	448.45	1.99
313.09	0.6975	461.55	2.04
313.09	0.7472	473.75	2.1
313.09	0.8475	495.75	2.2
313.09	0.898	505.95	2.24
313.1	0.5975	433.65	1.92
