Measured thermophysical data. Ionic liquid structural effects on solute partitioning in biphasic ionic liquid and supercritical carbon dioxide systems
Source: Fluid Phase Equilib., 2010, 10.1016/j.fluid.2009.12.034
Compound 1: carbon dioxide, CO2, InChI=1S/CO2/c2-1-3
Compound 2: 1-butyl-3-methylimidazolium hexafluorophosphate, C8H15F6N2P, InChI=1S/C8H15N2.F6P/c1-3-4-5-10-7-6-9(2)8-10;1-7(2,3,4,5)6/h6-8H,3-5H2,1-2H3;/q+1;-1
Compound 3: 1-hexyl-3-methylimidazolium hexafluorophosphate, C10H19F6N2P, InChI=1S/C10H19N2.F6P/c1-3-4-5-6-7-12-9-8-11(2)10-12;1-7(2,3,4,5)6/h8-10H,3-7H2,1-2H3;/q+1;-1
Compound 4: 1-octyl-3-methylimidazolium hexafluorophosphate, C12H23F6N2P, InChI=1S/C12H23N2.F6P/c1-3-4-5-6-7-8-9-14-11-10-13(2)12-14;1-7(2,3,4,5)6/h10-12H,3-9H2,1-2H3;/q+1;-1
Compound 5: 1-butyl-3-methylimidazolium tetrafluoroborate, C8H15BF4N2, InChI=1S/C8H15N2.BF4/c1-3-4-5-10-7-6-9(2)8-10;2-1(3,4)5/h6-8H,3-5H2,1-2H3;/q+1;-1
Compound 6: 1-hexyl-3-methylimidazolium tetrafluoroborate, C10H19BF4N2, InChI=1S/C10H19N2.BF4/c1-3-4-5-6-7-12-9-8-11(2)10-12;2-1(3,4)5/h8-10H,3-7H2,1-2H3;/q+1;-1
Compound 7: 1-methyl-3-octylimidazolium tetrafluoroborate, C12H23BF4N2, InChI=1S/C12H23N2.BF4/c1-3-4-5-6-7-8-9-14-11-10-13(2)12-14;2-1(3,4)5/h10-12H,3-9H2,1-2H3;/q+1;-1
Compound 8: 1-butyl-3-methylimidazolium chloride, C8H15ClN2, InChI=1S/C8H15N2.ClH/c1-3-4-5-10-7-6-9(2)8-10;/h6-8H,3-5H2,1-2H3;1H/q+1;/p-1
Compound 9: 1-butyl-3-methylimidazolium bis(trifluoromethylsulfonyl)imide, C10H15F6N3O4S2, InChI=1S/C8H15N2.C2F6NO4S2/c1-3-4-5-10-7-6-9(2)8-10;3-1(4,5)14(10,11)9-15(12,13)2(6,7)8/h6-8H,3-5H2,1-2H3;/q+1;-1
Compound 10: phenol, C6H6O, InChI=1S/C6H6O/c7-6-4-2-1-3-5-6/h1-5,7H
Compound 11: acetophenone, C8H8O, InChI=1S/C8H8O/c1-7(9)8-5-3-2-4-6-8/h2-6H,1H3
Compound 12: chlorobenzene, C6H5Cl, InChI=1S/C6H5Cl/c7-6-4-2-1-3-5-6/h1-5H
Compound 13: benzenemethanol, C7H8O, InChI=1S/C7H8O/c8-6-7-4-2-1-3-5-7/h1-5,8H,6H2

System: benzenemethanol + carbon dioxide + 1-butyl-3-methylimidazolium hexafluorophosphate; phases: Gas, Liquid
Fixed: Temperature, K = 333.2
Fixed: Mass fraction of benzenemethanol = 0
Property: Mass fraction of benzenemethanol (Gas); method: Chromatography
Pressure, kPa	Mass fraction of benzenemethanol	uncertainty
12000	0.044	0.004
16000	0.105	0.006
20000	0.116	0.007

System: benzenemethanol + carbon dioxide + 1-hexyl-3-methylimidazolium hexafluorophosphate; phases: Gas, Liquid
Fixed: Temperature, K = 333.2
Fixed: Mass fraction of benzenemethanol = 0
Property: Mass fraction of benzenemethanol (Gas); method: Chromatography
Pressure, kPa	Mass fraction of benzenemethanol	uncertainty
12000	0.05	0.004
16000	0.113	0.007
19900	0.153	0.01

System: benzenemethanol + carbon dioxide + 1-octyl-3-methylimidazolium hexafluorophosphate; phases: Gas, Liquid
Fixed: Temperature, K = 333.2
Fixed: Mass fraction of benzenemethanol = 0
Property: Mass fraction of benzenemethanol (Gas); method: Chromatography
Pressure, kPa	Mass fraction of benzenemethanol	uncertainty
12000	0.043	0.003
16000	0.099	0.006
20000	0.137	0.008

System: benzenemethanol + carbon dioxide + 1-butyl-3-methylimidazolium tetrafluoroborate; phases: Gas, Liquid
Fixed: Temperature, K = 333.2
Fixed: Mass fraction of benzenemethanol = 0
Property: Mass fraction of benzenemethanol (Gas); method: Chromatography
Pressure, kPa	Mass fraction of benzenemethanol	uncertainty
12000	0.023	0.002
16000	0.051	0.003
20000	0.071	0.003

System: benzenemethanol + carbon dioxide + 1-hexyl-3-methylimidazolium tetrafluoroborate; phases: Gas, Liquid
Fixed: Temperature, K = 333.2
Fixed: Mass fraction of benzenemethanol = 0
Property: Mass fraction of benzenemethanol (Gas); method: Chromatography
Pressure, kPa	Mass fraction of benzenemethanol	uncertainty
12000	0.029	0.002
16000	0.061	0.003
20000	0.083	0.004

System: benzenemethanol + carbon dioxide + 1-methyl-3-octylimidazolium tetrafluoroborate; phases: Gas, Liquid
Fixed: Temperature, K = 333.2
Fixed: Mass fraction of benzenemethanol = 0
Property: Mass fraction of benzenemethanol (Gas); method: Chromatography
Pressure, kPa	Mass fraction of benzenemethanol	uncertainty
12000	0.027	0.002
16000	0.055	0.003
20000	0.074	0.004

System: benzenemethanol + carbon dioxide + 1-butyl-3-methylimidazolium chloride; phases: Gas, Liquid
Fixed: Temperature, K = 333.2
Fixed: Mass fraction of benzenemethanol = 0
Property: Mass fraction of benzenemethanol (Gas); method: Chromatography
Pressure, kPa	Mass fraction of benzenemethanol	uncertainty
16000	0.003	0.001
20000	0.004	0.001

System: benzenemethanol + carbon dioxide + 1-butyl-3-methylimidazolium bis(trifluoromethylsulfonyl)imide; phases: Gas, Liquid
Fixed: Temperature, K = 333.2
Fixed: Mass fraction of benzenemethanol = 0
Property: Mass fraction of benzenemethanol (Gas); method: Chromatography
Pressure, kPa	Mass fraction of benzenemethanol	uncertainty
12000	0.056	0.004
16000	0.129	0.007
20000	0.18	0.011

System: acetophenone + carbon dioxide + 1-butyl-3-methylimidazolium chloride; phases: Gas, Liquid
Property: Mass fraction of acetophenone (Gas); method: Chromatography
Pressure, kPa	Temperature, K	Mass fraction of acetophenone	Mass fraction of acetophenone	uncertainty
16000	333	0	0.426	0.049

System: chlorobenzene + carbon dioxide + 1-butyl-3-methylimidazolium chloride; phases: Gas, Liquid
Property: Mass fraction of chlorobenzene (Gas); method: Chromatography
Pressure, kPa	Temperature, K	Mass fraction of chlorobenzene	Mass fraction of chlorobenzene	uncertainty
16000	333	0	1.43	0.38

System: phenol + carbon dioxide + 1-butyl-3-methylimidazolium tetrafluoroborate; phases: Gas, Liquid
Property: Mass fraction of phenol (Gas); method: Chromatography
Pressure, kPa	Temperature, K	Mass fraction of phenol	Mass fraction of phenol	uncertainty
16000	333	0	0.012	0.001

System: acetophenone + carbon dioxide + 1-butyl-3-methylimidazolium tetrafluoroborate; phases: Gas, Liquid
Property: Mass fraction of acetophenone (Gas); method: Chromatography
Pressure, kPa	Temperature, K	Mass fraction of acetophenone	Mass fraction of acetophenone	uncertainty
16000	333	0	0.321	0.028

System: chlorobenzene + carbon dioxide + 1-butyl-3-methylimidazolium tetrafluoroborate; phases: Gas, Liquid
Property: Mass fraction of chlorobenzene (Gas); method: Chromatography
Pressure, kPa	Temperature, K	Mass fraction of chlorobenzene	Mass fraction of chlorobenzene	uncertainty
16000	333	0	1.66	0.01

System: phenol + carbon dioxide + 1-butyl-3-methylimidazolium hexafluorophosphate; phases: Gas, Liquid
Property: Mass fraction of phenol (Gas); method: Chromatography
Pressure, kPa	Temperature, K	Mass fraction of phenol	Mass fraction of phenol	uncertainty
16000	333	0	0.046	0.002

System: acetophenone + carbon dioxide + 1-butyl-3-methylimidazolium hexafluorophosphate; phases: Gas, Liquid
Property: Mass fraction of acetophenone (Gas); method: Chromatography
Pressure, kPa	Temperature, K	Mass fraction of acetophenone	Mass fraction of acetophenone	uncertainty
16000	333	0	0.307	0.027

System: chlorobenzene + carbon dioxide + 1-butyl-3-methylimidazolium hexafluorophosphate; phases: Gas, Liquid
Property: Mass fraction of chlorobenzene (Gas); method: Chromatography
Pressure, kPa	Temperature, K	Mass fraction of chlorobenzene	Mass fraction of chlorobenzene	uncertainty
16000	333	0	1.7	0.46
