Measured thermophysical data. Measurements of the liquid liquid phase equilibria of binary solutions of 1-methyl-3-octylimidazolium tetrafluoroborate with 1-heptanol or 2-pentanol
Source: Fluid Phase Equilib., 2015, 10.1016/j.fluid.2015.03.015
Compound 1: 1-methyl-3-octylimidazolium tetrafluoroborate, C12H23BF4N2, InChI=1S/C12H23N2.BF4/c1-3-4-5-6-7-8-9-14-11-10-13(2)12-14;2-1(3,4)5/h10-12H,3-9H2,1-2H3;/q+1;-1, purity 99%
Compound 2: heptan-1-ol, C7H16O, InChI=1S/C7H16O/c1-2-3-4-5-6-7-8/h8H,2-7H2,1H3, purity 99%
Compound 3: pentan-2-ol, C5H12O, InChI=1S/C5H12O/c1-3-4-5(2)6/h5-6H,3-4H2,1-2H3, purity 99%

System: 1-methyl-3-octylimidazolium tetrafluoroborate; phases: Liquid
Fixed: Pressure, kPa = 85
Fixed: Wavelength, nm = 632.8
Property: Refractive index (other wavelength) (Liquid); method: Minimum Deviation
Temperature, K	Refractive index (other wavelength)	uncertainty
288.805	1.4343	0.0003
290.85	1.4338	0.0003
292.914	1.4332	0.0003
294.952	1.4327	0.0003
297.002	1.4321	0.0003
297.743	1.4319	0.0003
299.055	1.4316	0.0003
299.314	1.4315	0.0003
300.78	1.4312	0.0003
301.112	1.431	0.0003
302.298	1.4307	0.0003
303.204	1.4304	0.0003
303.836	1.4303	0.0003
305.319	1.4299	0.0003
306.843	1.4295	0.0003
308.346	1.429	0.0003

System: heptan-1-ol; phases: Liquid
Fixed: Pressure, kPa = 85
Fixed: Wavelength, nm = 632.8
Property: Refractive index (other wavelength) (Liquid); method: Minimum Deviation
Temperature, K	Refractive index (other wavelength)	uncertainty
297.431	1.4217	0.0003
301.929	1.4199	0.0003
306.718	1.418	0.0003
298.866	1.4211	0.0003
303.444	1.4193	0.0003
308.348	1.4174	0.0003
300.463	1.4205	0.0003
305.083	1.4187	0.0003

System: pentan-2-ol; phases: Liquid
Fixed: Pressure, kPa = 85
Fixed: Wavelength, nm = 632.8
Property: Refractive index (other wavelength) (Liquid); method: Minimum Deviation
Temperature, K	Refractive index (other wavelength)	uncertainty
289.216	1.407	0.0003
299.535	1.4027	0.0003
292.328	1.4058	0.0003
302.617	1.4013	0.0003
295.948	1.4042	0.0003
306.204	1.3997	0.0003

System: heptan-1-ol + 1-methyl-3-octylimidazolium tetrafluoroborate; phases: Liquid mixture 1, Liquid mixture 2
Fixed: Pressure, kPa = 85
Property: Mole fraction of 1-methyl-3-octylimidazolium tetrafluoroborate (Liquid mixture 1); method: Index of refraction calibration data
Temperature, K	Mole fraction of 1-methyl-3-octylimidazolium tetrafluoroborate	uncertainty
307.534	0.117	0.006
307.53	0.117	0.005
307.528	0.111	0.005
307.525	0.111	0.005
307.521	0.111	0.005
307.516	0.104	0.005
307.508	0.104	0.005
307.499	0.104	0.005
307.49	0.104	0.005
307.48	0.097	0.005
307.468	0.097	0.005
307.452	0.097	0.005
307.435	0.096	0.005
307.414	0.09	0.005
307.39	0.089	0.004
307.364	0.089	0.005
307.333	0.082	0.004
307.3	0.081	0.004
307.261	0.081	0.004
307.215	0.08	0.004
307.164	0.073	0.004
307.099	0.071	0.004
307.023	0.064	0.004
306.934	0.062	0.004
306.833	0.06	0.004
306.704	0.051	0.004
306.538	0.048	0.004
306.337	0.043	0.004
306.087	0.038	0.004
305.779	0.037	0.004
305.414	0.035	0.004
304.995	0.031	0.004
304.502	0.027	0.004
303.937	0.025	0.004
303.307	0.023	0.004
302.629	0.019	0.004
301.926	0.015	0.004
301.203	0.016	0.004
300.453	0.011	0.004
299.671	0.011	0.004
298.87	0.01	0.004

System: heptan-1-ol + 1-methyl-3-octylimidazolium tetrafluoroborate; phases: Liquid mixture 2, Liquid mixture 1
Fixed: Pressure, kPa = 85
Property: Mole fraction of 1-methyl-3-octylimidazolium tetrafluoroborate (Liquid mixture 2); method: Index of refraction calibration data
Temperature, K	Mole fraction of 1-methyl-3-octylimidazolium tetrafluoroborate	uncertainty
307.534	0.149	0.007
307.53	0.155	0.006
307.528	0.155	0.006
307.525	0.155	0.006
307.521	0.162	0.006
307.516	0.162	0.006
307.508	0.168	0.006
307.499	0.168	0.006
307.49	0.175	0.006
307.48	0.174	0.006
307.468	0.181	0.006
307.452	0.18	0.006
307.435	0.187	0.006
307.414	0.186	0.006
307.39	0.193	0.006
307.364	0.199	0.006
307.333	0.198	0.006
307.3	0.204	0.006
307.261	0.211	0.006
307.215	0.217	0.006
307.164	0.215	0.006
307.099	0.221	0.006
307.023	0.219	0.006
306.934	0.224	0.006
306.833	0.228	0.006
306.704	0.232	0.006
306.538	0.242	0.007
306.337	0.244	0.007
306.087	0.253	0.007
305.779	0.259	0.007
305.414	0.272	0.007
304.995	0.284	0.007
304.502	0.294	0.007
303.937	0.302	0.008
303.307	0.317	0.008
302.629	0.33	0.008
301.926	0.335	0.008
301.203	0.347	0.008
300.453	0.359	0.009
299.671	0.371	0.009
298.87	0.382	0.009

System: heptan-1-ol + 1-methyl-3-octylimidazolium tetrafluoroborate; phases: Liquid mixture 1, Liquid mixture 2
Fixed: Wavelength, nm = 623.8
Property: Refractive index (other wavelength) (Liquid mixture 1); method: Minimum deviation
Temperature, K	Mole fraction of 1-methyl-3-octylimidazolium tetrafluoroborate	Refractive index (other wavelength)	uncertainty
307.534	0.117	1.4198	0.0003
307.53	0.117	1.4198	0.0004
307.528	0.111	1.4197	0.0003
307.525	0.111	1.4197	0.0003
307.521	0.111	1.4197	0.0003
307.516	0.104	1.4196	0.0003
307.508	0.104	1.4196	0.0003
307.499	0.104	1.4196	0.0003
307.49	0.104	1.4196	0.0003
307.48	0.097	1.4195	0.0003
307.468	0.097	1.4195	0.0003
307.452	0.097	1.4195	0.0003
307.435	0.096	1.4195	0.0003
307.414	0.09	1.4194	0.0003
307.39	0.089	1.4194	0.0003
307.364	0.089	1.4194	0.0003
307.333	0.082	1.4193	0.0003
307.3	0.081	1.4193	0.0003
307.261	0.081	1.4193	0.0003
307.215	0.08	1.4193	0.0003
307.164	0.073	1.4192	0.0003
307.099	0.071	1.4192	0.0003
307.023	0.064	1.4191	0.0003
306.934	0.062	1.4191	0.0003
306.833	0.06	1.4191	0.0003
306.704	0.051	1.419	0.0003
306.538	0.048	1.419	0.0003
306.337	0.043	1.419	0.0003
306.087	0.038	1.419	0.0003
305.779	0.037	1.4191	0.0003
305.414	0.035	1.4192	0.0003
304.995	0.031	1.4193	0.0003
304.502	0.027	1.4194	0.0003
303.937	0.025	1.4196	0.0003
303.307	0.023	1.4198	0.0003
302.629	0.019	1.42	0.0003
301.926	0.015	1.4202	0.0003
301.203	0.016	1.4205	0.0003
300.453	0.011	1.4207	0.0003
299.671	0.011	1.421	0.0003
298.87	0.01	1.4213	0.0003

System: heptan-1-ol + 1-methyl-3-octylimidazolium tetrafluoroborate; phases: Liquid mixture 2, Liquid mixture 1
Fixed: Wavelength, nm = 623.8
Property: Refractive index (other wavelength) (Liquid mixture 2); method: Minimum deviation
Temperature, K	Mole fraction of 1-methyl-3-octylimidazolium tetrafluoroborate	Refractive index (other wavelength)	uncertainty
307.534	0.149	1.4203	0.0003
307.53	0.155	1.4204	0.0003
307.528	0.155	1.4204	0.0003
307.525	0.155	1.4204	0.0003
307.521	0.162	1.4205	0.0003
307.516	0.162	1.4205	0.0005
307.508	0.168	1.4206	0.0003
307.499	0.168	1.4206	0.0003
307.49	0.175	1.4207	0.0003
307.48	0.174	1.4207	0.0003
307.468	0.181	1.4208	0.0003
307.452	0.18	1.4208	0.0003
307.435	0.187	1.4209	0.0003
307.414	0.186	1.4209	0.0003
307.39	0.193	1.421	0.0003
307.364	0.199	1.4211	0.0003
307.333	0.198	1.4211	0.0003
307.3	0.204	1.4212	0.0003
307.261	0.211	1.4213	0.0003
307.215	0.217	1.4214	0.0003
307.164	0.215	1.4214	0.0003
307.099	0.221	1.4215	0.0003
307.023	0.219	1.4215	0.0003
306.934	0.224	1.4216	0.0003
306.833	0.228	1.4217	0.0003
306.704	0.232	1.4218	0.0003
306.538	0.242	1.422	0.0003
306.337	0.244	1.4221	0.0003
306.087	0.253	1.4223	0.0003
305.779	0.259	1.4225	0.0003
305.414	0.272	1.4228	0.0003
304.995	0.284	1.4231	0.0003
304.502	0.294	1.4234	0.0003
303.937	0.302	1.4237	0.0003
303.307	0.317	1.4241	0.0003
302.629	0.33	1.4245	0.0003
301.926	0.335	1.4248	0.0003
301.203	0.347	1.4252	0.0003
300.453	0.359	1.4256	0.0003
299.671	0.371	1.426	0.0003
298.87	0.382	1.4264	0.0003

System: heptan-1-ol + 1-methyl-3-octylimidazolium tetrafluoroborate; phases: Liquid
Fixed: Pressure, kPa = 85
Fixed: Wavelength, nm = 632.8
Property: Refractive index (other wavelength) (Liquid); method: Minimum Deviation
Temperature, K	Mole fraction of 1-methyl-3-octylimidazolium tetrafluoroborate	Refractive index (other wavelength)	uncertainty
308.006	0.1	1.4195	0.0003
312.578	0.1	1.4178	0.0003
309.521	0.1	1.4189	0.0003
314.061	0.1	1.4172	0.0003
311.042	0.1	1.4183	0.0003
315.629	0.1	1.4166	0.0003
307.741	0.2	1.421	0.0003
312.541	0.2	1.4193	0.0003
309.326	0.2	1.4204	0.0003
314.022	0.2	1.4188	0.0003
310.883	0.2	1.4199	0.0003
315.628	0.2	1.4183	0.0003
307.742	0.3	1.4225	0.0003
312.289	0.3	1.4209	0.0003
309.132	0.3	1.422	0.001
313.856	0.3	1.4204	0.0003
310.753	0.3	1.4214	0.0003
315.45	0.3	1.4198	0.0003
307.996	0.399	1.4235	0.0003
313.026	0.399	1.4219	0.0003
309.557	0.399	1.423	0.001
314.31	0.399	1.4214	0.0003
311.127	0.399	1.4225	0.0003
316.323	0.399	1.4208	0.0003
305.584	0.5	1.4254	0.0003
310.16	0.5	1.424	0.0003
307.215	0.5	1.4249	0.0003
311.691	0.5	1.4235	0.0003
308.602	0.5	1.4245	0.0003
313.173	0.5	1.4231	0.0003
306.755	0.6	1.4262	0.0003
312.734	0.6	1.4243	0.0003
308.525	0.6	1.4256	0.0003
314.637	0.6	1.4237	0.0003
310.81	0.6	1.4249	0.0003
316.319	0.6	1.4232	0.0003
301.61	0.7	1.4285	0.0003
307.042	0.7	1.4269	0.0003
303.538	0.7	1.4279	0.0003
308.503	0.7	1.4265	0.0003
305.362	0.7	1.4274	0.0003
310.341	0.7	1.426	0.0003
302.366	0.8	1.429	0.0003
307.101	0.8	1.4278	0.0003
303.98	0.8	1.4286	0.0003
308.632	0.8	1.4274	0.0003
305.645	0.8	1.4282	0.0003
310.339	0.8	1.4269	0.0003
302.37	0.898	1.4299	0.0003
307.116	0.898	1.4286	0.0003
303.938	0.898	1.4295	0.0003
309.273	0.898	1.428	0.0003
305.428	0.898	1.4291	0.0003
311.279	0.898	1.4274	0.0003

System: pentan-2-ol + 1-methyl-3-octylimidazolium tetrafluoroborate; phases: Liquid mixture 1, Liquid mixture 2
Fixed: Pressure, kPa = 85
Property: Mole fraction of 1-methyl-3-octylimidazolium tetrafluoroborate (Liquid mixture 1); method: Index of refraction calibration data
Temperature, K	Mole fraction of 1-methyl-3-octylimidazolium tetrafluoroborate	uncertainty
294.933	0.099	0.005
294.931	0.097	0.005
294.929	0.093	0.005
294.926	0.091	0.005
294.923	0.09	0.005
294.918	0.088	0.005
294.913	0.087	0.005
294.908	0.085	0.005
294.901	0.085	0.005
294.892	0.083	0.005
294.878	0.079	0.004
294.866	0.077	0.004
294.834	0.073	0.004
294.803	0.071	0.004
294.767	0.069	0.004
294.73	0.067	0.004
294.679	0.065	0.004
294.641	0.063	0.004
294.596	0.06	0.004
294.543	0.058	0.004
294.488	0.056	0.004
294.424	0.054	0.004
294.349	0.053	0.004
294.268	0.05	0.004
294.186	0.048	0.004
294.086	0.047	0.004
293.993	0.045	0.004
293.887	0.044	0.004
293.782	0.041	0.004
293.632	0.04	0.004
293.406	0.037	0.004
293.146	0.035	0.004
292.844	0.031	0.004
292.463	0.03	0.004
292.022	0.027	0.004
291.547	0.025	0.004
291.076	0.023	0.004
290.614	0.021	0.004
290.07	0.021	0.004
289.539	0.019	0.004
288.918	0.016	0.004
288.254	0.016	0.004
287.648	0.015	0.004
286.889	0.013	0.004
286.127	0.012	0.004
285.292	0.01	0.004
284.591	0.01	0.004

System: pentan-2-ol + 1-methyl-3-octylimidazolium tetrafluoroborate; phases: Liquid mixture 2, Liquid mixture 1
Fixed: Pressure, kPa = 85
Property: Mole fraction of 1-methyl-3-octylimidazolium tetrafluoroborate (Liquid mixture 2); method: Index of refraction calibration data
Temperature, K	Mole fraction of 1-methyl-3-octylimidazolium tetrafluoroborate	uncertainty
294.933	0.118	0.006
294.931	0.122	0.006
294.929	0.124	0.006
294.926	0.126	0.006
294.923	0.128	0.005
294.918	0.13	0.006
294.913	0.132	0.006
294.908	0.134	0.006
294.901	0.139	0.006
294.892	0.141	0.005
294.878	0.143	0.005
294.866	0.145	0.005
294.834	0.149	0.005
294.803	0.153	0.005
294.767	0.157	0.005
294.73	0.162	0.005
294.679	0.166	0.005
294.641	0.168	0.005
294.596	0.172	0.005
294.543	0.174	0.005
294.488	0.175	0.005
294.424	0.18	0.006
294.349	0.184	0.006
294.268	0.188	0.006
294.186	0.189	0.006
294.086	0.193	0.006
293.993	0.197	0.006
293.887	0.201	0.006
293.782	0.202	0.006
293.632	0.206	0.006
293.406	0.211	0.006
293.146	0.221	0.006
292.844	0.229	0.006
292.463	0.235	0.006
292.022	0.247	0.007
291.547	0.255	0.007
291.076	0.264	0.007
290.614	0.271	0.007
290.07	0.279	0.007
289.539	0.288	0.007
288.918	0.293	0.007
288.254	0.307	0.008
287.648	0.315	0.008
286.889	0.319	0.008
286.127	0.332	0.008
285.292	0.338	0.008
284.591	0.347	0.008

System: pentan-2-ol + 1-methyl-3-octylimidazolium tetrafluoroborate; phases: Liquid mixture 1, Liquid mixture 2
Fixed: Wavelength, nm = 623.8
Property: Refractive index (other wavelength) (Liquid mixture 1); method: Minimum deviation
Temperature, K	Mole fraction of 1-methyl-3-octylimidazolium tetrafluoroborate	Refractive index (other wavelength)	uncertainty
294.933	0.099	1.4101	0.0005
294.931	0.097	1.41	0.0004
294.929	0.093	1.4098	0.0003
294.926	0.091	1.4097	0.0004
294.923	0.09	1.4096	0.0004
294.918	0.088	1.4095	0.0004
294.913	0.087	1.4095	0.0004
294.908	0.085	1.4094	0.0003
294.901	0.085	1.4094	0.0003
294.892	0.083	1.4093	0.0004
294.878	0.079	1.4091	0.0004
294.866	0.077	1.409	0.0004
294.834	0.073	1.4088	0.0004
294.803	0.071	1.4087	0.0004
294.767	0.069	1.4086	0.0004
294.73	0.067	1.4085	0.0004
294.679	0.065	1.4084	0.0003
294.641	0.063	1.4083	0.0004
294.596	0.06	1.4082	0.0003
294.543	0.058	1.4081	0.0004
294.488	0.056	1.408	0.0004
294.424	0.054	1.4079	0.0004
294.349	0.053	1.4079	0.0004
294.268	0.05	1.4078	0.0019
294.186	0.048	1.4077	0.0003
294.086	0.047	1.4077	0.0004
293.993	0.045	1.4076	0.0003
293.887	0.044	1.4076	0.0004
293.782	0.041	1.4075	0.0003
293.632	0.04	1.4075	0.0003
293.406	0.037	1.4074	0.0004
293.146	0.035	1.4074	0.0004
292.844	0.031	1.4073	0.0004
292.463	0.03	1.4074	0.0004
292.022	0.027	1.4074	0.0004
291.547	0.025	1.4075	0.0004
291.076	0.023	1.4076	0.0004
290.614	0.021	1.4077	0.0004
290.07	0.021	1.4079	0.0004
289.539	0.019	1.408	0.0004
288.918	0.016	1.4081	0.0003
288.254	0.016	1.4084	0.0004
287.648	0.015	1.4086	0.0004
286.889	0.013	1.4088	0.0005
286.127	0.012	1.4091	0.0006
285.292	0.01	1.4093	0.0004
284.591	0.01	1.4096	0.0003

System: pentan-2-ol + 1-methyl-3-octylimidazolium tetrafluoroborate; phases: Liquid mixture 2, Liquid mixture 1
Fixed: Wavelength, nm = 623.8
Property: Refractive index (other wavelength) (Liquid mixture 2); method: Minimum deviation
Temperature, K	Mole fraction of 1-methyl-3-octylimidazolium tetrafluoroborate	Refractive index (other wavelength)	uncertainty
294.933	0.118	1.411	0.0004
294.931	0.122	1.4112	0.0004
294.929	0.124	1.4113	0.0004
294.926	0.126	1.4114	0.0004
294.923	0.128	1.4115	0.0004
294.918	0.13	1.4116	0.0004
294.913	0.132	1.4117	0.0003
294.908	0.134	1.4118	0.0003
294.901	0.139	1.412	0.0003
294.892	0.141	1.4121	0.0003
294.878	0.143	1.4122	0.0004
294.866	0.145	1.4123	0.0004
294.834	0.149	1.4125	0.0003
294.803	0.153	1.4127	0.0003
294.767	0.157	1.4129	0.0003
294.73	0.162	1.4131	0.0003
294.679	0.166	1.4133	0.0004
294.641	0.168	1.4134	0.0004
294.596	0.172	1.4136	0.0004
294.543	0.174	1.4137	0.0003
294.488	0.175	1.4138	0.0003
294.424	0.18	1.414	0.0003
294.349	0.184	1.4142	0.0003
294.268	0.188	1.4144	0.0003
294.186	0.189	1.4145	0.0003
294.086	0.193	1.4147	0.0003
293.993	0.197	1.4149	0.0003
293.887	0.201	1.4151	0.0003
293.782	0.202	1.4152	0.0003
293.632	0.206	1.4154	0.0003
293.406	0.211	1.4157	0.0003
293.146	0.221	1.4162	0.0003
292.844	0.229	1.4166	0.0003
292.463	0.235	1.417	0.0003
292.022	0.247	1.4176	0.0003
291.547	0.255	1.4181	0.0003
291.076	0.264	1.4186	0.0003
290.614	0.271	1.419	0.0003
290.07	0.279	1.4195	0.0003
289.539	0.288	1.42	0.0003
288.918	0.293	1.4204	0.0003
288.254	0.307	1.4211	0.0003
287.648	0.315	1.4216	0.0003
286.889	0.319	1.422	0.0003
286.127	0.332	1.4227	0.0003
285.292	0.338	1.4232	0.0003
284.591	0.347	1.4237	0.0004

System: pentan-2-ol + 1-methyl-3-octylimidazolium tetrafluoroborate; phases: Liquid
Fixed: Pressure, kPa = 85
Fixed: Wavelength, nm = 632.8
Property: Refractive index (other wavelength) (Liquid); method: Minimum Deviation
Temperature, K	Mole fraction of 1-methyl-3-octylimidazolium tetrafluoroborate	Refractive index (other wavelength)	uncertainty
295.528	0.099	1.4101	0.0003
301.998	0.099	1.4077	0.0003
297.856	0.099	1.4092	0.0003
304.073	0.099	1.4069	0.0003
299.913	0.099	1.4085	0.0003
306.204	0.099	1.4061	0.0003
299.223	0.2	1.4133	0.0003
303.876	0.2	1.4117	0.0003
300.799	0.2	1.4128	0.0003
305.443	0.2	1.4111	0.0003
302.346	0.2	1.4122	0.0003
307.011	0.2	1.4105	0.0003
296.016	0.3	1.4182	0.0003
300.657	0.3	1.4167	0.0003
297.569	0.3	1.4177	0.0003
302.238	0.3	1.4162	0.0003
299.087	0.3	1.4172	0.0003
303.797	0.3	1.4156	0.0003
293.902	0.4	1.422	0.0003
300.063	0.4	1.4201	0.0003
295.95	0.4	1.4213	0.0003
302.137	0.4	1.4194	0.0003
298.008	0.4	1.4207	0.0003
304.174	0.4	1.4187	0.0003
296.129	0.5	1.4238	0.0003
300.8	0.5	1.4224	0.0003
297.678	0.5	1.4233	0.0003
302.34	0.5	1.4219	0.0003
299.242	0.5	1.4229	0.0003
304.174	0.5	1.4213	0.0003
288.19	0.599	1.4284	0.0003
292.851	0.599	1.427	0.0003
289.74	0.599	1.428	0.0003
294.42	0.599	1.4265	0.0003
291.297	0.599	1.4275	0.0003
296.016	0.599	1.426	0.0003
288.976	0.7	1.4298	0.0003
295.135	0.7	1.4281	0.0003
290.989	0.7	1.4293	0.0003
297.191	0.7	1.4275	0.0003
293.053	0.7	1.4287	0.0003
299.224	0.7	1.4269	0.0003
288.805	0.798	1.4316	0.0003
294.979	0.798	1.4299	0.0003
290.844	0.798	1.4311	0.0003
297.032	0.798	1.4293	0.0003
292.909	0.798	1.4305	0.0003
299.107	0.798	1.4287	0.0003
288.804	0.899	1.4331	0.0003
294.978	0.899	1.4314	0.0003
290.84	0.899	1.4326	0.0003
297.026	0.899	1.4308	0.0003
292.893	0.899	1.432	0.0003
299.105	0.899	1.4303	0.0003
