Measured thermophysical data. Liquid-liquid equilibria for water + 1-propanol (or 1-butanol) + potassium chloride + ammonium chloride quaternary systems at 298.15 K
Source: Fluid Phase Equilib., 2015, 10.1016/j.fluid.2015.03.050
Compound 1: water, H2O, InChI=1S/H2O/h1H2
Compound 2: potassium chloride, ClK, InChI=1S/ClH.K/h1H;/q;+1/p-1, purity 99.5%
Compound 3: ammonium chloride (NH4Cl), ClH4N, InChI=1S/ClH.H3N/h1H;1H3, purity 99.5%
Compound 4: propan-1-ol, C3H8O, InChI=1S/C3H8O/c1-2-3-4/h4H,2-3H2,1H3, purity 99.8%
Compound 5: butan-1-ol, C4H10O, InChI=1S/C4H10O/c1-2-3-4-5/h5H,2-4H2,1H3, purity 99.8%

System: potassium chloride + water + ammonium chloride (NH4Cl); phases: Liquid, Crystal
Fixed: Temperature, K = 298.15
Fixed: Pressure, kPa = 101
Property: Mass fraction of potassium chloride (Liquid); method: Titration method
Mass fraction of ammonium chloride (NH4Cl)	Mass fraction of potassium chloride	uncertainty
0.282	0	
0.2806	0.0017	0.0017

System: potassium chloride + water + ammonium chloride (NH4Cl); phases: Liquid, Crystal
Fixed: Temperature, K = 298.15
Fixed: Pressure, kPa = 101
Property: Mass fraction of potassium chloride (Liquid); method: Titration method
Mass fraction of ammonium chloride (NH4Cl)	Mass fraction of potassium chloride	uncertainty
0.0045	0.2599	0.0017
0	0.264	0.0017

System: potassium chloride + water + ammonium chloride (NH4Cl); phases: Liquid, Crystal, Crystal
Fixed: Pressure, kPa = 101
Fixed: Temperature, K = 298.15
Property: Mass fraction of potassium chloride (Liquid); method: Titration method
Mass fraction of potassium chloride	uncertainty
0.0865	0.0006
0.1582	0.001

System: potassium chloride + water + ammonium chloride (NH4Cl); phases: Liquid, Crystal, Crystal
Fixed: Pressure, kPa = 101
Fixed: Temperature, K = 298.15
Property: Mass fraction of ammonium chloride (NH4Cl) (Liquid); method: Titration method
Mass fraction of ammonium chloride (NH4Cl)	uncertainty
0.1983	0.0013
0.1156	0.0007

System: propan-1-ol + potassium chloride + water; phases: Liquid mixture 2, Liquid mixture 1
Fixed: Temperature, K = 298.15
Fixed: Pressure, kPa = 101
Property: Mass fraction of potassium chloride (Liquid mixture 2); method: Titration method
Property: Mass fraction of potassium chloride (Liquid mixture 1); method: Titration method
Property: Mass fraction of propan-1-ol (Liquid mixture 1); method: Titration method
Mass fraction of propan-1-ol	Mass fraction of potassium chloride	uncertainty	Mass fraction of potassium chloride	uncertainty	Mass fraction of propan-1-ol	uncertainty
0.1921	0.1397	0.0044	0.0235	0.0008	0.6429	
0.1514	0.1654	0.0052	0.0203	0.0007	0.6911	
0.0985	0.1926	0.006	0.017	0.0007	0.7348	
0.0472	0.2009	0.0062	0.0152	0.0007	0.7459	
0.0233	0.2136	0.0066	0.0137	0.0006	0.7612	

System: propan-1-ol + potassium chloride + water; phases: Liquid mixture 1, Liquid mixture 2
Fixed: Temperature, K = 298.15
Fixed: Pressure, kPa = 101
Property: Mass fraction of water (Liquid mixture 1); method: Titration method
Property: Mass fraction of propan-1-ol (Liquid mixture 2); method: Titration method
Property: Mass fraction of water (Liquid mixture 2); method: Titration method
Mass fraction of propan-1-ol	Mass fraction of water	uncertainty	Mass fraction of propan-1-ol	uncertainty	Mass fraction of water	uncertainty
0.25	0.6622	0.0105				
0.0906	0.7275	0.0089	0.2928	0.0102	0.6285	
0.097	0.7301	0.0088	0.336	0.0113	0.5936	
0.1027	0.7324	0.0088	0.3728	0.0123	0.5628	
0.1163	0.7336	0.0087	0.406	0.0132	0.5364	
0.1319	0.731	0.0088	0.4354	0.014	0.5121	
0.1484	0.7258	0.0089	0.462	0.0148	0.49	
0.1678	0.7169	0.0091	0.497	0.0157	0.4614	
0.2162	0.687	0.0098	0.5356	0.0147	0.4273	

System: propan-1-ol + water + ammonium chloride (NH4Cl); phases: Liquid mixture 2, Liquid mixture 1
Fixed: Temperature, K = 298.15
Fixed: Pressure, kPa = 101
Property: Mass fraction of ammonium chloride (NH4Cl) (Liquid mixture 2); method: Titration method
Property: Mass fraction of ammonium chloride (NH4Cl) (Liquid mixture 1); method: Titration method
Property: Mass fraction of propan-1-ol (Liquid mixture 1); method: Titration method
Mass fraction of propan-1-ol	Mass fraction of ammonium chloride (NH4Cl)	uncertainty	Mass fraction of ammonium chloride (NH4Cl)	uncertainty	Mass fraction of propan-1-ol	uncertainty
0.2992	0.1563	0.0049	0.0548	0.0017	0.5891	
0.226	0.1862	0.0058	0.0503	0.0016	0.6586	
0.1869	0.2115	0.0066	0.0475	0.0023	0.7063	
0.1606	0.2221	0.0069	0.0448	0.0016	0.713	
0.1382	0.2375	0.0074	0.0434	0.0014	0.7293	

System: propan-1-ol + water + ammonium chloride (NH4Cl); phases: Liquid mixture 2, Liquid mixture 1
Fixed: Temperature, K = 298.15
Fixed: Pressure, kPa = 101
Property: Mass fraction of propan-1-ol (Liquid mixture 2); method: Titration method
Property: Mass fraction of water (Liquid mixture 1); method: Titration method
Property: Mass fraction of propan-1-ol (Liquid mixture 1); method: Titration method
Mass fraction of water	Mass fraction of propan-1-ol	uncertainty	Mass fraction of water	uncertainty	Mass fraction of propan-1-ol	uncertainty
0.5476	0.3551	0.0118	0.6749	0.0101	0.1451	
0.5132	0.3985	0.0129	0.6727	0.0101	0.1642	
0.4799	0.4401	0.0141	0.6643	0.0104	0.188	
0.4395	0.4895	0.0155	0.6498	0.0109	0.2169	
0.4237	0.5091	0.0155	0.6256	0.0116	0.2542	
0.411	0.5236	0.015	0.6136	0.012	0.2695	

System: butan-1-ol + potassium chloride + water; phases: Liquid mixture 2, Liquid mixture 1
Fixed: Temperature, K = 298.15
Fixed: Pressure, kPa = 101
Property: Mass fraction of butan-1-ol (Liquid mixture 2); method: Titration method
Property: Mass fraction of potassium chloride (Liquid mixture 1); method: Titration method
Property: Mass fraction of butan-1-ol (Liquid mixture 1); method: Titration method
Mass fraction of potassium chloride	Mass fraction of butan-1-ol	uncertainty	Mass fraction of potassium chloride	uncertainty	Mass fraction of butan-1-ol	uncertainty
0	0.0603	0.0019	0		0.7971	
0.0307	0.054	0.0017	0.0005	0.0001	0.8303	
0.0375	0.0513	0.0016	0.0009	0.0001	0.8427	
0.0786	0.0294	0.0009	0.0011	0.0001	0.8773	
0.1303	0.0216	0.0007	0.0023	0.0004	0.8871	
0.1554	0.0148	0.0006	0.002	0.0003	0.8914	
0.1628	0.0077	0.0004	0.0027	0.0001	0.8942	
0.1908	0.004	0.0002	0.0018	0.0018	0.8955	
0.2382	0.002	0.0001	0.0018	0.0001	0.9022	

System: butan-1-ol + potassium chloride + water; phases: Liquid mixture 2, Liquid mixture 1
Fixed: Temperature, K = 298.15
Fixed: Pressure, kPa = 101
Property: Mass fraction of butan-1-ol (Liquid mixture 2); method: Titration method
Property: Mass fraction of water (Liquid mixture 1); method: Titration method
Property: Mass fraction of butan-1-ol (Liquid mixture 1); method: Titration method
Mass fraction of water	Mass fraction of butan-1-ol	uncertainty	Mass fraction of water	uncertainty	Mass fraction of butan-1-ol	uncertainty
0.6052	0.34	0.0114	0.7848	0.0077	0.0525	
0.5623	0.391	0.0127	0.7729	0.0079	0.0715	
0.5086	0.4501	0.0143	0.7652	0.0081	0.1418	
0.2035	0.7834	0.0078	0.7548	0.0083	0.1551	
0.1732	0.8166	0.0072	0.7086	0.0093	0.2215	
0.1587	0.8341	0.007	0.6837	0.0099	0.2787	

System: butan-1-ol + water + ammonium chloride (NH4Cl); phases: Liquid mixture 2, Liquid mixture 1
Fixed: Temperature, K = 298.15
Fixed: Pressure, kPa = 101
Property: Mass fraction of butan-1-ol (Liquid mixture 2); method: Titration method
Property: Mass fraction of ammonium chloride (NH4Cl) (Liquid mixture 1); method: Titration method
Property: Mass fraction of butan-1-ol (Liquid mixture 1); method: Titration method
Mass fraction of ammonium chloride (NH4Cl)	Mass fraction of butan-1-ol	uncertainty	Mass fraction of ammonium chloride (NH4Cl)	uncertainty	Mass fraction of butan-1-ol	uncertainty
0	0.0713	0.0022	0		0.7931	
0.0307	0.0479	0.0015	0.0012	0.0002	0.8208	
0.0469	0.037	0.0012	0.0017	0.0001	0.8427	
0.0745	0.0284	0.0009	0.002	0.0003	0.8615	
0.0975	0.0136	0.0004	0.0036	0.0004	0.8695	
0.1379	0.0121	0.0004	0.0029	0.0003	0.8762	
0.1693	0.0094	0.0003	0.0043	0.001	0.8831	
0.1989	0.0078	0.0003	0.0047	0.0006	0.8859	
0.2311	0.0068	0.0002	0.0051	0.0005	0.8903	

System: butan-1-ol + water + ammonium chloride (NH4Cl); phases: Liquid mixture 2, Liquid mixture 1
Fixed: Temperature, K = 298.15
Fixed: Pressure, kPa = 101
Property: Mass fraction of butan-1-ol (Liquid mixture 2); method: Titration method
Property: Mass fraction of water (Liquid mixture 1); method: Titration method
Property: Mass fraction of butan-1-ol (Liquid mixture 1); method: Titration method
Mass fraction of water	Mass fraction of butan-1-ol	uncertainty	Mass fraction of water	uncertainty	Mass fraction of butan-1-ol	uncertainty
0.5661	0.3702	0.0119	0.7702	0.008	0.0521	
0.5352	0.3986	0.0133	0.7636	0.0081	0.0703	
0.4947	0.4802	0.016	0.7473	0.0084	0.1244	
0.3286	0.6345	0.0115	0.7385	0.0086	0.1419	
0.2305	0.7476	0.0086	0.6897	0.0097	0.2121	
0.2093	0.7711	0.0081	0.6404	0.0112	0.2858	
