Measured thermophysical data. Measurement of activity coefficients at infinite dilution for acetonitrile, water, limonene, limonene epoxide and their binary pairs
Source: Fluid Phase Equilib., 2009, 10.1016/j.fluid.2008.09.011
Compound 1: acetonitrile, C2H3N, InChI=1S/C2H3N/c1-2-3/h1H3, purity 99.5%
Compound 2: water, H2O, InChI=1S/H2O/h1H2
Compound 3: (R)-1-methyl-4-(1-methylethenyl)cyclohexene, C10H16, InChI=1S/C10H16/c1-8(2)10-6-4-9(3)5-7-10/h4,10H,1,5-7H2,2-3H3/t10-/m0/s1, purity 97%
Compound 4: 1-methyl-4-(1-methylethenyl)-7-oxabicyclo[4.1.0]heptane, C10H16O, InChI=1S/C10H16O/c1-7(2)8-4-5-10(3)9(6-8)11-10/h8-9H,1,4-6H2,2-3H3, purity 97%

System: acetonitrile + water; phases: Liquid, Gas
Fixed: Temperature, K = 298.15
Fixed: Mole fraction of acetonitrile = 0
Property: Activity coefficient of acetonitrile (Liquid); method: inert gas stripping
Activity coefficient of acetonitrile	uncertainty
12.04	1.28
11.81	1.26

System: acetonitrile + water; phases: Liquid, Gas
Property: Activity coefficient of water (Liquid); method: inert gas stripping
Temperature, K	Mole fraction of water	Activity coefficient of water	uncertainty
298.15	0	8.19	0.86

System: acetonitrile + (R)-1-methyl-4-(1-methylethenyl)cyclohexene; phases: Liquid, Gas
Property: Activity coefficient of acetonitrile (Liquid); method: inert gas stripping
Temperature, K	Mole fraction of acetonitrile	Activity coefficient of acetonitrile	uncertainty
298.15	0	22.18	2.4

System: acetonitrile + (R)-1-methyl-4-(1-methylethenyl)cyclohexene; phases: Liquid, Gas
Property: Activity coefficient of (R)-1-methyl-4-(1-methylethenyl)cyclohexene (Liquid); method: inert gas stripping
Temperature, K	Mole fraction of (R)-1-methyl-4-(1-methylethenyl)cyclohexene	Activity coefficient of (R)-1-methyl-4-(1-methylethenyl)cyclohexene	uncertainty
298.15	0	10.22	1.08

System: acetonitrile + 1-methyl-4-(1-methylethenyl)-7-oxabicyclo[4.1.0]heptane; phases: Liquid, Gas
Property: Activity coefficient of acetonitrile (Liquid); method: inert gas stripping
Temperature, K	Mole fraction of acetonitrile	Activity coefficient of acetonitrile	uncertainty
298.15	0	1.74	0.12

System: acetonitrile + 1-methyl-4-(1-methylethenyl)-7-oxabicyclo[4.1.0]heptane; phases: Liquid, Gas
Property: Activity coefficient of 1-methyl-4-(1-methylethenyl)-7-oxabicyclo[4.1.0]heptane (Liquid); method: inert gas stripping
Temperature, K	Mole fraction of 1-methyl-4-(1-methylethenyl)-7-oxabicyclo[4.1.0]heptane	Activity coefficient of 1-methyl-4-(1-methylethenyl)-7-oxabicyclo[4.1.0]heptane	uncertainty
298.15	0	2.3	0.23

System: (R)-1-methyl-4-(1-methylethenyl)cyclohexene + water; phases: Liquid, Gas
Property: Activity coefficient of (R)-1-methyl-4-(1-methylethenyl)cyclohexene (Liquid); method: inert gas stripping
Temperature, K	Mole fraction of (R)-1-methyl-4-(1-methylethenyl)cyclohexene	Activity coefficient of (R)-1-methyl-4-(1-methylethenyl)cyclohexene	uncertainty
298.15	0	420000	61122

System: (R)-1-methyl-4-(1-methylethenyl)cyclohexene + water; phases: Liquid, Gas
Property: Activity coefficient of water (Liquid); method: inert gas stripping
Temperature, K	Mole fraction of water	Activity coefficient of water	uncertainty
298.15	0	352.1	41.2

System: 1-methyl-4-(1-methylethenyl)-7-oxabicyclo[4.1.0]heptane + (R)-1-methyl-4-(1-methylethenyl)cyclohexene; phases: Liquid, Gas
Property: Activity coefficient of 1-methyl-4-(1-methylethenyl)-7-oxabicyclo[4.1.0]heptane (Liquid); method: inert gas stripping
Temperature, K	Mole fraction of 1-methyl-4-(1-methylethenyl)-7-oxabicyclo[4.1.0]heptane	Activity coefficient of 1-methyl-4-(1-methylethenyl)-7-oxabicyclo[4.1.0]heptane	uncertainty
298.15	0	4.13	0.43

System: 1-methyl-4-(1-methylethenyl)-7-oxabicyclo[4.1.0]heptane + (R)-1-methyl-4-(1-methylethenyl)cyclohexene; phases: Liquid, Gas
Property: Activity coefficient of (R)-1-methyl-4-(1-methylethenyl)cyclohexene (Liquid); method: inert gas stripping
Temperature, K	Mole fraction of (R)-1-methyl-4-(1-methylethenyl)cyclohexene	Activity coefficient of (R)-1-methyl-4-(1-methylethenyl)cyclohexene	uncertainty
298.15	0	2.81	0.29

System: 1-methyl-4-(1-methylethenyl)-7-oxabicyclo[4.1.0]heptane + water; phases: Liquid, Gas
Property: Activity coefficient of 1-methyl-4-(1-methylethenyl)-7-oxabicyclo[4.1.0]heptane (Liquid); method: inert gas stripping
Temperature, K	Mole fraction of 1-methyl-4-(1-methylethenyl)-7-oxabicyclo[4.1.0]heptane	Activity coefficient of 1-methyl-4-(1-methylethenyl)-7-oxabicyclo[4.1.0]heptane	uncertainty
298.15	0	2721	338

System: 1-methyl-4-(1-methylethenyl)-7-oxabicyclo[4.1.0]heptane + water; phases: Liquid, Gas
Property: Activity coefficient of water (Liquid); method: inert gas stripping
Temperature, K	Mole fraction of water	Activity coefficient of water	uncertainty
298.15	0	26.47	2.88
