Measured thermophysical data. Estimation of properties of the ionic liquid BMIZn3Cl7
Source: Fluid Phase Equilib., 2008, 10.1016/j.fluid.2008.08.007
Compound 1: 1-butyl-3-methylimidazolium chloride, C8H15ClN2, InChI=1S/C8H15N2.ClH/c1-3-4-5-10-7-6-9(2)8-10;/h6-8H,3-5H2,1-2H3;1H/q+1;/p-1, purity 99%
Compound 2: zinc chloride, Cl2Zn, InChI=1S/2ClH.Zn/h2*1H;/q;;+2/p-2, purity 99.99%

System: zinc chloride + 1-butyl-3-methylimidazolium chloride; phases: Liquid
Fixed: Pressure, kPa = 101
Fixed: Mole fraction of zinc chloride = 0.75
Property: Mass density, kg/m3 (Liquid); method: westphal balance
Temperature, K	Mass density, kg/m3	uncertainty
318.2	1779.1	0.5
323.2	1773.6	0.5
328.2	1766.9	0.5
333.2	1758	0.5
338.2	1749.2	0.5
343.2	1742.1	0.5

System: zinc chloride + 1-butyl-3-methylimidazolium chloride; phases: Liquid, Air at 1 atmosphere
Fixed: Mole fraction of zinc chloride = 0.75
Property: Surface tension liquid-gas, N/m (Liquid); method: Ring tensiometer
Temperature, K	Surface tension liquid-gas, N/m	uncertainty
318.2	0.0783	0.00099
323.2	0.078	0.00099
328.2	0.0777	0.00099
333.2	0.0772	0.00098
338.2	0.0768	0.00098
343.2	0.0764	0.00097
