Measured thermophysical data. Thermodynamic models for determination of the solubility of 2, 5-bis(2-furylmethylidene) cyclopentan-1-one in different solvents at temperatures ranging from 308.15 to 403.15 K.
Source: Fluid Phase Equilib., 2014, 10.1016/j.fluid.2014.01.039
Compound 1: cyclopentanone, 2,5-bis(2-furanylmethylene)-, C15H12O3, InChI=1S/C15H12O3/c16-15-11(9-13-3-1-7-17-13)5-6-12(15)10-14-4-2-8-18-14/h1-4,7-10H,5-6H2/b11-9+,12-10+
Compound 2: methanol, CH4O, InChI=1S/CH4O/c1-2/h2H,1H3, purity 99.8%
Compound 3: tetrahydrofuran, C4H8O, InChI=1S/C4H8O/c1-2-4-5-3-1/h1-4H2, purity 99.5%
Compound 4: water, H2O, InChI=1S/H2O/h1H2

System: tetrahydrofuran + cyclopentanone, 2,5-bis(2-furanylmethylene)-; phases: Liquid mixture 1, Liquid mixture 2
Fixed: Pressure, kPa = 101
Property: Mole fraction of cyclopentanone, 2,5-bis(2-furanylmethylene)- (Liquid mixture 1); method: Chromatography
Temperature, K	Mole fraction of cyclopentanone, 2,5-bis(2-furanylmethylene)-	uncertainty
308.15	0.030588	0.000303
313.15	0.035318	0.00037
318.15	0.043063	0.000401
323.15	0.046438	0.000421
333.15	0.059031	0.00052
343.15	0.071262	0.000596
353.15	0.081567	0.000675
363.15	0.09493	0.000777
373.15	0.106777	0.000879
383.15	0.124832	0.001029
393.15	0.142022	0.001173
403.15	0.165593	0.001367

System: tetrahydrofuran + cyclopentanone, 2,5-bis(2-furanylmethylene)- + water; phases: Liquid mixture 1, Liquid mixture 2
Fixed: Pressure, kPa = 101
Fixed: Solvent: Volume fraction of tetrahydrofuran = 0.5
Property: Mole fraction of cyclopentanone, 2,5-bis(2-furanylmethylene)- (Liquid mixture 1); method: Chromatography
Temperature, K	Mole fraction of cyclopentanone, 2,5-bis(2-furanylmethylene)-	uncertainty
313.15	0.001469	2.4e-05
323.15	0.002324	2.9e-05
333.15	0.003379	3.1e-05
343.15	0.003715	3.6e-05
353.15	0.005445	5.3e-05
363.15	0.006855	6e-05
373.15	0.008298	7.4e-05
383.15	0.010547	9.9e-05
393.15	0.013916	0.000126
398.15	0.015423	0.000144
403.15	0.017939	0.000172

System: methanol + cyclopentanone, 2,5-bis(2-furanylmethylene)-; phases: Liquid mixture 1, Liquid mixture 2
Fixed: Pressure, kPa = 101
Property: Mole fraction of cyclopentanone, 2,5-bis(2-furanylmethylene)- (Liquid mixture 1); method: Chromatography
Temperature, K	Mole fraction of cyclopentanone, 2,5-bis(2-furanylmethylene)-	uncertainty
323.15	0.000946	1.6e-05
333.15	0.001178	1.7e-05
343.15	0.001401	1.8e-05
353.15	0.001632	1.9e-05
363.15	0.001957	2e-05
373.15	0.002153	2.2e-05
383.15	0.002591	2.5e-05
393.15	0.003043	2.7e-05
403.15	0.003533	3e-05

System: cyclopentanone, 2,5-bis(2-furanylmethylene)- + water; phases: Liquid mixture 1, Liquid mixture 2
Fixed: Pressure, kPa = 101
Property: Mole fraction of cyclopentanone, 2,5-bis(2-furanylmethylene)- (Liquid mixture 1); method: Chromatography
Temperature, K	Mole fraction of cyclopentanone, 2,5-bis(2-furanylmethylene)-	uncertainty
353.15	7e-06	7e-06
363.15	1.2e-05	1.2e-05
373.15	2e-05	1.4e-05
383.15	3.8e-05	1.4e-05
393.15	6.2e-05	1.4e-05
398.15	8.1e-05	1.4e-05
403.15	0.000111	1.4e-05
