Measured thermophysical data. Solubility, liquid-liquid equilibrium and critical states for the quaternary system acetic acid-ethanol-ethyl acetate-water at 303.15 K and 313.15 K
Source: Fluid Phase Equilib., 2014, 10.1016/j.fluid.2014.04.013
Compound 1: acetic acid, C2H4O2, InChI=1S/C2H4O2/c1-2(3)4/h1H3,(H,3,4)
Compound 2: ethanol, C2H6O, InChI=1S/C2H6O/c1-2-3/h3H,2H2,1H3
Compound 3: ethyl acetate, C4H8O2, InChI=1S/C4H8O2/c1-3-6-4(2)5/h3H2,1-2H3
Compound 4: water, H2O, InChI=1S/H2O/h1H2

System: ethanol + ethyl acetate + water; phases: Liquid, Liquid
Fixed: Pressure, kPa = 101
Property: Mole fraction of water (Liquid); method: Titration method
Temperature, K	Mole fraction of ethanol	Mole fraction of water	uncertainty
303.15	0.102	0.053	0.007
303.15	0.117	0.073	0.009
303.15	0.132	0.103	0.01
303.15	0.135	0.112	0.011
303.15	0.138	0.123	0.013
303.15	0.143	0.134	0.012
303.15	0.147	0.146	0.015
303.15	0.15	0.156	0.016
303.15	0.166	0.217	0.039
303.15	0.176	0.322	0.043
303.15	0.176	0.369	0.062
303.15	0.175	0.411	0.087
313.15	0.132	0.13	0.12
313.15	0.144	0.163	0.017
313.15	0.155	0.204	0.024
313.15	0.165	0.258	0.083
313.15	0.164	0.259	0.096
313.15	0.166	0.279	0.062
313.15	0.168	0.312	0.037
313.15	0.166	0.339	0.033
313.15	0.158	0.402	0.033
313.15	0.124	0.541	0.076
313.15	0.134	0.515	0.077
313.15	0.109	0.588	0.018
313.15	0.094	0.621	0.082
313.15	0.079	0.662	0.016
313.15	0.107	0.081	0.008
313.15	0.13	0.116	0.109
313.15	0.134	0.124	0.076
313.15	0.138	0.137	0.012
313.15	0.145	0.15	0.017
313.15	0.147	0.161	0.017
313.15	0.158	0.206	0.023

System: ethanol + ethyl acetate + water; phases: Liquid mixture 1, Liquid mixture 2
Fixed: Pressure, kPa = 101
Property: Mole fraction of ethyl acetate (Liquid mixture 1); method: Chromatography
Property: Mole fraction of ethanol (Liquid mixture 2); method: Chromatography
Property: Mole fraction of ethyl acetate (Liquid mixture 2); method: Chromatography
Temperature, K	Mole fraction of ethanol	Mole fraction of ethyl acetate	uncertainty	Mole fraction of ethanol	uncertainty	Mole fraction of ethyl acetate	uncertainty
303.15	0	0.032	0.01	0		0.858	
313.15	0.036	0.026	0.01	0.084	0.011	0.606	
313.15	0.042	0.021	0.01	0.106	0.011	0.564	
313.15	0.051	0.026	0.01	0.123	0.01	0.512	
313.15	0.063	0.032	0.011	0.149	0.01	0.41	
313.15	0.078	0.037	0.014	0.153	0.01	0.294	
313.15	0.111	0.074	0.015	0.16	0.01	0.209	
303.15	0.01	0.027	0.01	0.018	0.012	0.825	
303.15	0.026	0.029	0.01	0.042	0.011	0.788	
303.15	0.04	0.033	0.01	0.068	0.011	0.736	
303.15	0.061	0.033	0.01	0.102	0.011	0.667	
303.15	0.08	0.044	0.012	0.135	0.011	0.57	
303.15	0.095	0.053	0.012	0.159	0.01	0.496	
303.15	0.107	0.06	0.012	0.174	0.01	0.419	
313.15	0	0.017	0.01	0		0.838	

System: acetic acid + ethyl acetate + water; phases: Liquid, Liquid
Fixed: Pressure, kPa = 101
Property: Mole fraction of water (Liquid); method: Titration method
Temperature, K	Mole fraction of acetic acid	Mole fraction of water	uncertainty
303.15	0.077	0.05	0.009
303.15	0.093	0.074	0.01
303.15	0.105	0.1	0.011
303.15	0.108	0.11	0.011
303.15	0.111	0.119	0.013
303.15	0.117	0.136	0.014
303.15	0.121	0.148	0.014
303.15	0.125	0.162	0.085
303.15	0.128	0.173	0.051
303.15	0.141	0.24	0.083
303.15	0.144	0.294	0.048
303.15	0.144	0.337	0.035
303.15	0.14	0.377	0.033
303.15	0.131	0.447	0.052
313.15	0.121	0.163	0.015
313.15	0.13	0.215	0.026
313.15	0.139	0.321	0.017
313.15	0.129	0.413	0.022
313.15	0.121	0.448	0.034
313.15	0.095	0.544	0.057
313.15	0.074	0.615	0.062
313.15	0.054	0.683	0.018
313.15	0.092	0.097	0.062
313.15	0.107	0.118	0.065
313.15	0.11	0.127	0.07
313.15	0.144	0.139	0.139
313.15	0.119	0.155	0.015
313.15	0.123	0.166	0.053
313.15	0.126	0.184	0.024
313.15	0.138	0.259	0.021

System: acetic acid + ethyl acetate + water; phases: Liquid mixture 1, Liquid mixture 2
Fixed: Pressure, kPa = 101
Property: Mole fraction of ethyl acetate (Liquid mixture 1); method: Chromatography
Property: Mole fraction of acetic acid (Liquid mixture 2); method: Chromatography
Property: Mole fraction of ethyl acetate (Liquid mixture 2); method: Chromatography
Temperature, K	Mole fraction of acetic acid	Mole fraction of ethyl acetate	uncertainty	Mole fraction of acetic acid	uncertainty	Mole fraction of ethyl acetate	uncertainty
303.15	0	0.032	0.01	0		0.858	
313.15	0.027	0.023	0.011	0.087	0.01	0.504	
313.15	0.036	0.031	0.012	0.103	0.01	0.454	
313.15	0.043	0.032	0.016	0.115	0.01	0.381	
313.15	0.052	0.038	0.016	0.123	0.01	0.319	
313.15	0.082	0.086	0.019	0.105	0.01	0.17	
303.15	0.014	0.029	0.01	0.016	0.011	0.815	
303.15	0.025	0.032	0.01	0.039	0.011	0.769	
303.15	0.037	0.035	0.011	0.066	0.011	0.697	
303.15	0.057	0.043	0.011	0.099	0.01	0.592	
303.15	0.069	0.049	0.011	0.129	0.01	0.47	
313.15	0	0.017	0.01	0		0.838	
313.15	0.022	0.02	0.011	0.063	0.01	0.631	
313.15	0.02	0.022	0.011	0.075	0.01	0.572	
