Measured thermophysical data. Solid liquid phase equilibrium and phase diagram for ternary 3-nitrophthalic acid 4-nitrophthalic acid water system at 283.15K and 333.15K
Source: Fluid Phase Equilib., 2008, 10.1016/j.fluid.2007.12.002
Compound 1: 4-nitrophthalic acid, C8H5NO6, InChI=1S/C8H5NO6/c10-7(11)5-2-1-4(9(14)15)3-6(5)8(12)13/h1-3H,(H,10,11)(H,12,13), purity 99.92%
Compound 2: water, H2O, InChI=1S/H2O/h1H2
Compound 3: 3-nitro-1,2-benzenedicarboxylic acid, C8H5NO6, InChI=1S/C8H5NO6/c10-7(11)4-2-1-3-5(9(14)15)6(4)8(12)13/h1-3H,(H,10,11)(H,12,13), purity 99.92%

System: 3-nitro-1,2-benzenedicarboxylic acid + 4-nitrophthalic acid + water; phases: Liquid, Crystal
Fixed: Pressure, kPa = 101
Property: Mass density, kg/m3 (Liquid); method: Pycnometric method
Temperature, K	Mass fraction of 4-nitrophthalic acid	Mass density, kg/m3	uncertainty
283.15	0	951.1	9.5
283.15	0.0291	998.8	10
283.15	0.0665	1025.3	10.3
283.15	0.0756	1035.1	10.4
333.15	0	999.1	10
333.15	0.0312	1013.4	10.2
333.15	0.059	1014.3	10.2
333.15	0.0769	1015.2	10.2
333.15	0.0843	1015.6	10.2

System: 3-nitro-1,2-benzenedicarboxylic acid + 4-nitrophthalic acid + water; phases: Liquid, Crystal
Fixed: Pressure, kPa = 101
Property: Mass density, kg/m3 (Liquid); method: Pycnometric method
Temperature, K	Mass fraction of 4-nitrophthalic acid	Mass density, kg/m3	uncertainty
283.15	0.4288	1162	11.7
283.15	0.452	1141.9	11.5
283.15	0.4788	1129	11.3
283.15	0.5275	1142.2	11.5
333.15	0.6221	1204.1	15.2
333.15	0.6283	1184.7	16.4
333.15	0.63	1171	21.4
333.15	0.6313	1166.5	15.4
333.15	0.66	1156.7	12.4
333.15	0.6982	1260	13.3
333.15	0.7451	1273.7	12.7

System: 3-nitro-1,2-benzenedicarboxylic acid + 4-nitrophthalic acid + water; phases: Liquid, Crystal of intercomponent compound 1
Fixed: Pressure, kPa = 101
Property: Mass density, kg/m3 (Liquid); method: Pycnometric method
Temperature, K	Mass fraction of 4-nitrophthalic acid	Mass density, kg/m3	uncertainty
283.15	0.0835	1036.6	10.4
283.15	0.1324	1035.7	10.4
283.15	0.1823	1037.2	10.4
283.15	0.2307	1051.8	10.6
283.15	0.2816	1073.5	10.8
283.15	0.3371	1100.7	11.1
283.15	0.401	1127	11.3
283.15	0.4111	1142.7	11.5
333.15	0.0854	1035	10.4
333.15	0.1462	1063.6	10.7
333.15	0.24	1112.5	11.2
333.15	0.3237	1163.7	11.7
333.15	0.423	1202.3	12.1
333.15	0.5102	1217.1	12.2

System: 3-nitro-1,2-benzenedicarboxylic acid + 4-nitrophthalic acid + water; phases: Liquid, Crystal
Fixed: Pressure, kPa = 101
Property: Mass fraction of 3-nitro-1,2-benzenedicarboxylic acid (Liquid); method: Chromatography
Temperature, K	Mass fraction of 4-nitrophthalic acid	Mass fraction of 3-nitro-1,2-benzenedicarboxylic acid	uncertainty
283.15	0	0.009	0.009
283.15	0.0291	0.0233	0.02
283.15	0.0665	0.0303	0.02
283.15	0.0756	0.0497	0.02
333.15	0	0.0641	0.02
333.15	0.0312	0.0908	0.02
333.15	0.059	0.106	0.02
333.15	0.0769	0.1475	0.02
333.15	0.0843	0.1355	0.02

System: 3-nitro-1,2-benzenedicarboxylic acid + 4-nitrophthalic acid + water; phases: Liquid, Crystal
Fixed: Pressure, kPa = 101
Property: Mass fraction of 3-nitro-1,2-benzenedicarboxylic acid (Liquid); method: Chromatography
Temperature, K	Mass fraction of 4-nitrophthalic acid	Mass fraction of 3-nitro-1,2-benzenedicarboxylic acid	uncertainty
283.15	0.4288	0.0873	0.02
283.15	0.452	0.0367	0.02
283.15	0.4788	0.0208	0.02
283.15	0.5275	0	0.0001
333.15	0.6221	0.1385	0.02
333.15	0.6283	0.12	0.02
333.15	0.63	0.1335	0.02
333.15	0.6313	0.1167	0.02
333.15	0.66	0.067	0.02
333.15	0.6982	0.0336	0.02
333.15	0.7451	0	0.0001

System: 3-nitro-1,2-benzenedicarboxylic acid + 4-nitrophthalic acid + water; phases: Liquid, Crystal of intercomponent compound 1
Fixed: Pressure, kPa = 101
Property: Mass fraction of 3-nitro-1,2-benzenedicarboxylic acid (Liquid); method: Chromatography
Temperature, K	Mass fraction of 4-nitrophthalic acid	Mass fraction of 3-nitro-1,2-benzenedicarboxylic acid	uncertainty
283.15	0.0835	0.0508	0.02
283.15	0.1324	0.0483	0.02
283.15	0.1823	0.0308	0.02
283.15	0.2307	0.0451	0.02
283.15	0.2816	0.0608	0.02
283.15	0.3371	0.0802	0.02
283.15	0.401	0.0914	0.02
283.15	0.4111	0.0918	0.02
333.15	0.0854	0.15	0.02
333.15	0.1462	0.1486	0.02
333.15	0.24	0.16	0.02
333.15	0.3237	0.1715	0.02
333.15	0.423	0.1655	0.02
333.15	0.5102	0.158	0.02
