Measured thermophysical data. Phase equilibria of the water + 1-butanol + toluene ternary system at 101.3 kPa
Source: Fluid Phase Equilib., 2015, 10.1016/j.fluid.2014.10.038
Compound 1: butan-1-ol, C4H10O, InChI=1S/C4H10O/c1-2-3-4-5/h5H,2-4H2,1H3, purity 99.8%
Compound 2: toluene, C7H8, InChI=1S/C7H8/c1-7-5-3-2-4-6-7/h2-6H,1H3, purity 99.9%
Compound 3: water, H2O, InChI=1S/H2O/h1H2, purity 99.8%

System: butan-1-ol + toluene + water; phases: Liquid mixture 2, Liquid mixture 1
Fixed: Temperature, K = 313.15
Fixed: Pressure, kPa = 101
Property: Mole fraction of butan-1-ol (Liquid mixture 2); method: Chromatography
Property: Mole fraction of butan-1-ol (Liquid mixture 1); method: Chromatography
Property: Mole fraction of water (Liquid mixture 1); method: Chromatography
Mole fraction of water	Mole fraction of butan-1-ol	uncertainty	Mole fraction of butan-1-ol	uncertainty	Mole fraction of water	uncertainty
0.9999	0		0		0.008	
0.994	0.006	0.006	0.096	0.004	0.019	
0.991	0.009	0.009	0.31	0.015	0.087	
0.99	0.01	0.01	0.38	0.017	0.131	
0.989	0.011	0.011	0.421	0.019	0.162	
0.989	0.011	0.011	0.451	0.019	0.187	
0.988	0.012	0.012	0.501	0.021	0.253	
0.987	0.013	0.013	0.517	0.021	0.287	
0.987	0.013	0.013	0.522	0.021	0.33	
0.986	0.014	0.014	0.53	0.022	0.383	
0.985	0.015	0.015	0.505	0.022	0.442	
0.984	0.016	0.016	0.487	0.021	0.5	
0.981	0.019	0.001	0.484	0.02	0.516	

System: butan-1-ol + toluene + water; phases: Liquid, Gas
Fixed: Pressure, kPa = 101.3
Property: Mole fraction of water (Liquid); method: Chromatography
Property: Mole fraction of water (Gas); method: Chromatography
Property: Mole fraction of butan-1-ol (Gas); method: Chromatography
Temperature, K	Mole fraction of butan-1-ol	Mole fraction of water	uncertainty	Mole fraction of water	uncertainty	Mole fraction of butan-1-ol	uncertainty
376.91	0.633	0.022	0.001	0.111	0.005	0.422	
377.28	0.688	0.027	0.001	0.141	0.006	0.435	
384.81	0.915	0.029	0.001	0.144	0.006	0.698	
379.13	0.8	0.03	0.001	0.176	0.007	0.508	
377.8	0.741	0.03	0.001	0.159	0.007	0.466	
381.06	0.844	0.033	0.001	0.173	0.007	0.559	
378.06	0.739	0.035	0.002	0.162	0.007	0.483	
378.37	0.801	0.05	0.002	0.224	0.009	0.496	
379.25	0.837	0.05	0.002	0.265	0.011	0.509	
368.81	0.359	0.057	0.002	0.415	0.017	0.168	
370.42	0.601	0.06	0.002	0.33	0.014	0.275	
381.7	0.918	0.063	0.003	0.296	0.012	0.641	
379.86	0.868	0.064	0.003	0.291	0.012	0.555	
380.9	0.899	0.064	0.003	0.309	0.013	0.587	
368.37	0.452	0.064	0.003	0.362	0.015	0.219	
379.09	0.867	0.065	0.003	0.319	0.013	0.523	
369.65	0.524	0.07	0.003	0.388	0.016	0.222	
366.9	0.472	0.071	0.003	0.389	0.016	0.212	
372.41	0.71	0.076	0.003	0.381	0.016	0.292	
375.73	0.817	0.091	0.004	0.414	0.017	0.391	
372.23	0.776	0.103	0.004	0.444	0.018	0.334	
368.76	0.621	0.115	0.005	0.445	0.018	0.23	
376.64	0.858	0.127	0.005	0.48	0.02	0.476	
369.17	0.718	0.13	0.005	0.498	0.02	0.265	
374.76	0.836	0.139	0.006	0.519	0.021	0.413	
369.87	0.754	0.163	0.007	0.518	0.021	0.321	
372.61	0.799	0.17	0.007	0.548	0.022	0.378	
367.93	0.775	0.177	0.007	0.602	0.024	0.293	
370.27	0.779	0.184	0.007	0.586	0.024	0.322	
364.74	0.609	0.195	0.008	0.517	0.021	0.217	
366.79	0.687	0.203	0.008	0.546	0.022	0.261	
360.51	0.529	0.212	0.009	0.547	0.022	0.157	
362.43	0.566	0.212	0.009	0.547	0.022	0.169	
364.27	0.658	0.213	0.009	0.564	0.023	0.22	
363.42	0.633	0.226	0.009	0.567	0.023	0.21	
361.76	0.582	0.259	0.011	0.576	0.023	0.181	
365.94	0.679	0.266	0.011	0.621	0.025	0.262	
360.88	0.559	0.268	0.011	0.573	0.023	0.17	
359.19	0.505	0.278	0.011	0.568	0.023	0.145	
364.07	0.644	0.29	0.012	0.63	0.025	0.233	
363	0.598	0.333	0.014	0.642	0.026	0.202	
361.64	0.559	0.363	0.015	0.636	0.026	0.188	
360.71	0.513	0.4	0.016	0.629	0.025	0.177	

System: butan-1-ol + toluene + water; phases: Liquid mixture 1, Liquid mixture 2, Gas
Fixed: Pressure, kPa = 101.3
Property: Mole fraction of water (Liquid mixture 1); method: Chromatography
Property: Mole fraction of butan-1-ol (Liquid mixture 1); method: Chromatography
Property: Mole fraction of water (Liquid mixture 2); method: Chromatography
Property: Mole fraction of butan-1-ol (Liquid mixture 2); method: Chromatography
Property: Mole fraction of water (Gas); method: Chromatography
Property: Mole fraction of butan-1-ol (Gas); method: Chromatography
Temperature, K	Mole fraction of water	uncertainty	Mole fraction of butan-1-ol	uncertainty	Mole fraction of water	uncertainty	Mole fraction of butan-1-ol	uncertainty	Mole fraction of water	uncertainty	Mole fraction of butan-1-ol	uncertainty
357.34	0.012	0.012	0		0.9997	0.0003	0		0.561	0.023	0	
357.15	0.014	0.014	0.012	0.012	0.9997	0.0003	0		0.548	0.023	0.015	0.015
357.18	0.014	0.014	0.044	0.044	0.998	0.002	0.001	0.001	0.536	0.022	0.038	0.036
356.59	0.025	0.025	0.102	0.102	0.996	0.004	0.003	0.002	0.527	0.022	0.066	0.018
356.54	0.033	0.028	0.135	0.081	0.995	0.005	0.005	0.001	0.528	0.022	0.073	0.011
356.53	0.034	0.034	0.156	0.098	0.995	0.005	0.005	0.002	0.531	0.022	0.077	0.015
356.57	0.054	0.022	0.196	0.062	0.994	0.006	0.006	0.001	0.531	0.022	0.084	0.008
356.59	0.054	0.024	0.234	0.047	0.994	0.006	0.006	0.001	0.53	0.022	0.089	0.006
356.64	0.077	0.027	0.264	0.069	0.993	0.007	0.007	0.001	0.534	0.022	0.093	0.009
356.76	0.095	0.028	0.313	0.043	0.993	0.007	0.007	0.001	0.536	0.022	0.097	0.006
356.89	0.145	0.022	0.366	0.036	0.992	0.008	0.008	0.001	0.542	0.022	0.104	0.006
357.04	0.156	0.047	0.404	0.128	0.992	0.008	0.008	0.003	0.545	0.022	0.108	0.032
357.37	0.204	0.034	0.461	0.059	0.991	0.009	0.009	0.001	0.548	0.022	0.117	0.013
357.85	0.264	0.016	0.496	0.021	0.99	0.01	0.01	0.001	0.561	0.023	0.13	0.006
358.17	0.299	0.018	0.506	0.021	0.989	0.011	0.011	0.001	0.562	0.023	0.138	0.006
358.69	0.375	0.018	0.497	0.02	0.988	0.012	0.012	0.001	0.586	0.024	0.152	0.007
359.2	0.404	0.017	0.494	0.02	0.987	0.013	0.013	0.001	0.603	0.024	0.159	0.007
359.76	0.436	0.019	0.483	0.02	0.987	0.013	0.013	0.001	0.613	0.025	0.165	0.007
360.55	0.478	0.02	0.468	0.019	0.986	0.014	0.014	0.001	0.633	0.026	0.176	0.007
361.53	0.515	0.021	0.451	0.018	0.986	0.014	0.014	0.001	0.661	0.027	0.194	0.008
362.49	0.537	0.022	0.44	0.018	0.985	0.015	0.015	0.001	0.69	0.028	0.204	0.008
362.96	0.549	0.022	0.432	0.018	0.984	0.016	0.016	0.001	0.697	0.028	0.211	0.009
