Measured thermophysical data. Thermodynamic Study of binary an ternary systems containing CO2 + impurities in the context of CO2 transportation
Source: Fluid Phase Equilib., 2014, 10.1016/j.fluid.2014.08.031
Compound 1: carbon dioxide, CO2, InChI=1S/CO2/c2-1-3, purity 99.995%
Compound 2: nitrogen oxide (NO), NO, InChI=1S/NO/c1-2, purity 99.9%
Compound 3: argon, Ar, InChI=1S/Ar, purity 99.9995%
Compound 4: oxygen, O2, InChI=1S/O2/c1-2, purity 99.9995%
Compound 5: sulfur dioxide, O2S, InChI=1S/O2S/c1-3-2, purity 99.9%

System: carbon dioxide + sulfur dioxide; phases: Liquid, Gas
Property: Vapor or sublimation pressure, kPa (Liquid); method: Closed cell (Static) method
Mole fraction of carbon dioxide	Temperature, K	Vapor or sublimation pressure, kPa	uncertainty
0	333.21	1105	7.7
0.0296	333.21	1410	125.5
0.0935	333.21	2080	125
0.1488	333.21	2648	124
0.2071	333.21	3241	122
0.2674	333.21	3845	119
0.3892	333.21	5025	119
0.4455	333.21	5565	119
0.5052	333.21	6142	119
0.5703	333.21	6763	121
0.6195	333.21	7241	125
0.686	333.21	7911	125
0.7522	333.21	8544	120
0.7814	333.21	8785	110
0	263.15	104.1	7
0.083	263.15	355.4	37.5
0.165	263.15	599.6	36.5
0.26	263.15	860.3	36.6
0.354	263.15	1105.6	37.1
0.46	263.15	1351.6	37.3
0.573	263.15	1613.4	40.5
0.687	263.15	1863.2	43.8
0.788	263.15	2082	51
0.897	263.15	2349.5	56.3

System: carbon dioxide + sulfur dioxide; phases: Gas, Liquid
Property: Mole fraction of carbon dioxide (Gas); method: Chromatography
Mole fraction of carbon dioxide	Temperature, K	Mole fraction of carbon dioxide	uncertainty
0	333.21	0	
0.0296	333.21	0.208	0.0572
0.0935	333.21	0.451	0.038
0.1488	333.21	0.563	0.024
0.2071	333.21	0.63	0.03
0.2674	333.21	0.6848	0.0252
0.3892	333.21	0.757	0.014
0.4455	333.21	0.7794	0.013
0.5052	333.21	0.8001	0.0126
0.5703	333.21	0.815	0.012
0.6195	333.21	0.823	0.012
0.686	333.21	0.836	0.012
0.7522	333.21	0.84	0.012
0.7814	333.21	0.8361	0.0122
0	263.15	0	
0.083	263.15	0.742	0.062
0.165	263.15	0.834	0.016
0.26	263.15	0.888	0.013
0.354	263.15	0.9222	0.0125
0.46	263.15	0.941	0.0122
0.573	263.15	0.952	0.012
0.687	263.15	0.9635	0.0121
0.788	263.15	0.9738	0.0121
0.897	263.15	0.9853	0.0147

System: carbon dioxide + nitrogen oxide (NO); phases: Liquid, Gas
Property: Vapor or sublimation pressure, kPa (Liquid); method: Closed cell (Static) method
Mole fraction of nitrogen oxide (NO)	Temperature, K	Vapor or sublimation pressure, kPa	uncertainty
0	273.02	3505	11
0.0318	273.02	4554	385
0.079	273.02	6005	367
0.0284	273.02	4439	385
0.0626	273.02	5514	370
0.0925	273.02	6427	331
0.13	273.02	7423	304
0.175	273.02	8516	276
0.212	273.02	9298	214
0.263	273.02	10081	187
0	252.98	1979.9	7.3
0.0292	252.98	2901	357
0.0758	252.98	4332	350
0.1117	252.98	5328	335
0.1441	252.98	6187	306
0.1781	252.98	7047	290
0.2229	252.98	8082	266
0.2666	252.98	9005	250
0.323	252.98	10090	210
0.38	252.98	10992	178
0.4194	252.98	11486	350
0	232.93	1009.9	5.3
0.0157	232.93	1483	349
0.058	232.93	2700	300
0.1042	232.93	3910	300
0.1487	232.93	4980	280
0.1953	232.93	5999	254
0.2446	232.93	7008	240
0.296	232.93	8008	234
0.3479	232.93	9009	222
0.409	232.93	10082	213
0.473	232.93	11208	214

System: carbon dioxide + nitrogen oxide (NO); phases: Gas, Liquid
Property: Mole fraction of nitrogen oxide (NO) (Gas); method: Chromatography
Mole fraction of nitrogen oxide (NO)	Temperature, K	Mole fraction of nitrogen oxide (NO)	uncertainty
0	273.02	0	
0.0318	273.02	0.1656	0.0514
0.079	273.02	0.2948	0.0266
0.0284	273.02	0.1514	0.051
0.0626	273.02	0.2605	0.0355
0.0925	273.02	0.3192	0.02
0.13	273.02	0.3636	0.016
0.175	273.02	0.3897	0.0133
0.212	273.02	0.3945	0.0125
0.263	273.02	0.3806	0.0129
0	252.98	0	
0.0292	252.98	0.2622	0.0675
0.0758	252.98	0.45	0.039
0.1117	252.98	0.5168	0.0222
0.1441	252.98	0.5535	0.017
0.1781	252.98	0.5787	0.0142
0.2229	252.98	0.5988	0.0129
0.2666	252.98	0.6062	0.0126
0.323	252.98	0.6018	0.0126
0.38	252.98	0.5875	0.013
0.4194	252.98	0.5715	0.0208
0	232.93	0	
0.0157	232.93	0.2841	0.1094
0.058	232.93	0.5629	0.053
0.1042	232.93	0.6669	0.0234
0.1487	232.93	0.7126	0.0155
0.1953	232.93	0.739	0.013
0.2446	232.93	0.755	0.0125
0.296	232.93	0.761	0.012
0.3479	232.93	0.7661	0.0122
0.409	232.93	0.761	0.012
0.473	232.93	0.743	0.013

System: carbon dioxide + argon + oxygen; phases: Liquid, Gas
Property: Mole fraction of argon (Liquid); method: Chromatography
Property: Mole fraction of argon (Gas); method: Chromatography
Property: Mole fraction of carbon dioxide (Gas); method: Chromatography
Temperature, K	Pressure, kPa	Mole fraction of carbon dioxide	Mole fraction of argon	uncertainty	Mole fraction of argon	uncertainty	Mole fraction of carbon dioxide	uncertainty
253.28	2327	0.9911	0.0043	0.004	0.0654	0.004	0.8674	
273.24	4678	0.9707	0.0142	0.004	0.0942	0.0041	0.81	
273.24	5021	0.9626	0.0184	0.004	0.1129	0.0041	0.771	
273.24	5309	0.9547	0.0227	0.004	0.127	0.004	0.744	
273.24	5670	0.9451	0.0271	0.004	0.1418	0.0042	0.714	
293.21	6590	0.9751	0.0122	0.004	0.0395	0.004	0.9208	
293.21	6827	0.9692	0.0151	0.004	0.0471	0.004	0.9047	
293.22	7112	0.9609	0.0193	0.004	0.0559	0.004	0.887	
293.21	7340	0.953	0.0233	0.004	0.0619	0.004	0.875	
293.21	7638	0.942	0.0285	0.004	0.068	0.004	0.862	
253.28	2666	0.9839	0.0079	0.004	0.1125	0.0041	0.7728	
253.28	2999	0.9765	0.0115	0.004	0.1486	0.0042	0.7007	
253.27	3350	0.9685	0.0154	0.004	0.1771	0.0043	0.6435	
253.27	3715	0.9599	0.0198	0.004	0.2029	0.0044	0.5927	
253.27	4031	0.9515	0.024	0.004	0.2214	0.0044	0.555	
253.27	4213	0.9466	0.0263	0.004	0.23	0.004	0.536	
273.26	4096	0.9843	0.0076	0.004	0.0541	0.004	0.8901	
273.24	4368	0.9778	0.0109	0.004	0.073	0.004	0.853	

System: carbon dioxide + sulfur dioxide + oxygen; phases: Liquid, Gas
Property: Mole fraction of oxygen (Liquid); method: Chromatography
Property: Mole fraction of oxygen (Gas); method: Chromatography
Property: Mole fraction of carbon dioxide (Gas); method: Chromatography
Temperature, K	Pressure, kPa	Mole fraction of carbon dioxide	Mole fraction of oxygen	uncertainty	Mole fraction of oxygen	uncertainty	Mole fraction of carbon dioxide	uncertainty
293.24	5207	0.88218	0.00573	0.00573	0.03491	0.01	0.9325	
253.28	2249	0.93231	0.00724	0.00724	0.1408	0.01007	0.85366	
253.29	2466	0.93216	0.01105	0.01	0.19626	0.01014	0.79876	
293.23	6257	0.92273	0.0208	0.01	0.0855	0.01	0.8958	
253.28	2657	0.9306	0.0145	0.01	0.23924	0.0102	0.75607	
253.28	2814	0.92862	0.01733	0.01	0.27052	0.01026	0.72499	
253.28	2912	0.927	0.019	0.01	0.287	0.01	0.709	
293.23	5397	0.89955	0.00726	0.00726	0.0399	0.01	0.9321	
253.28	3022	0.92549	0.02109	0.01	0.30559	0.01033	0.6903	
253.28	3126	0.9239	0.0231	0.01	0.32264	0.01037	0.67329	
293.23	5494	0.90611	0.00819	0.00819	0.0435	0.01	0.9303	
273.26	3962	0.92765	0.01345	0.01	0.1255	0.0101	0.8647	
293.23	5601	0.9124	0.00944	0.00944	0.04789	0.01001	0.92776	
293.23	5712	0.91692	0.01095	0.01	0.05331	0.01001	0.92416	
293.23	5841	0.92038	0.01296	0.01	0.0606	0.01	0.9181	
293.23	6382	0.92177	0.02331	0.01	0.093	0.01	0.8885	
293.23	5966	0.92221	0.01516	0.01	0.068	0.01	0.9117	
293.23	6088	0.92301	0.01741	0.01	0.0748	0.01	0.9058	
293.23	6473	0.92109	0.0253	0.01	0.0981	0.01	0.8835	
273.26	3333	0.90369	0.00404	0.00404	0.04798	0.01001	0.93613	
273.26	3425	0.91268	0.00497	0.00497	0.0557	0.01	0.9301	
273.27	3577	0.92268	0.00695	0.00695	0.07292	0.01002	0.91508	
273.26	4091	0.9269	0.0159	0.01	0.1413	0.0101	0.8492	
273.26	3747	0.92698	0.00972	0.00972	0.0962	0.01	0.8931	
273.26	3823	0.9276	0.01099	0.01	0.1066	0.01	0.8832	
293.24	5301	0.89128	0.00642	0.00642	0.0375	0.01	0.9323	
273.26	4200	0.9262	0.0179	0.01	0.1554	0.0101	0.8355	
273.26	4364	0.9244	0.0211	0.01	0.1743	0.0101	0.8169	
273.27	4517	0.9224	0.0242	0.01	0.1913	0.0101	0.8	
253.28	1935	0.91097	0.00247	0.00247	0.05862	0.01001	0.93321	
253.28	2098	0.9289	0.0047	0.0047	0.0991	0.01	0.8948	
