Measured thermophysical data. Liquid liquid equilibria of aqueous mixtures containing selected dibasic esters and/or methanol
Source: Fluid Phase Equilib., 2006, 10.1016/j.fluid.2006.08.002
Compound 1: methanol, CH4O, InChI=1S/CH4O/c1-2/h2H,1H3
Compound 2: dimethyl 1,6-hexanedioate, C8H14O4, InChI=1S/C8H14O4/c1-11-7(9)5-3-4-6-8(10)12-2/h3-6H2,1-2H3
Compound 3: dimethyl pentanedioate, C7H12O4, InChI=1S/C7H12O4/c1-10-6(8)4-3-5-7(9)11-2/h3-5H2,1-2H3
Compound 4: monomethyl adipate, C7H12O4, InChI=1S/C7H12O4/c1-11-7(10)5-3-2-4-6(8)9/h2-5H2,1H3,(H,8,9)
Compound 5: water, H2O, InChI=1S/H2O/h1H2

System: methanol + dimethyl 1,6-hexanedioate + water; phases: Liquid mixture 1, Liquid mixture 2
Fixed: Temperature, K = 298.15
Fixed: Pressure, kPa = 101
Property: Mole fraction of methanol (Liquid mixture 1); method: Chromatography
Property: Mole fraction of methanol (Liquid mixture 2); method: Chromatography
Property: Mole fraction of water (Liquid mixture 2); method: Chromatography
Mole fraction of water	Mole fraction of methanol	uncertainty	Mole fraction of methanol	uncertainty	Mole fraction of water	uncertainty
0.2555	0.048	0.0266	0.0478	0.0057	0.9452	
0.2693	0.082	0.0101	0.0818	0.0058	0.9128	
0.2923	0.1258	0.0133	0.1255	0.0053	0.8673	
0.3157	0.1525	0.0167	0.1491	0.0063	0.8423	
0.3728	0.21	0.0132	0.1954	0.006	0.7913	
0.436	0.2511	0.0109	0.2319	0.0048	0.7435	
0.2797	0.0482	0.0101	0.0454	0.0045	0.9464	
0.2906	0.0847	0.0142	0.0773	0.0058	0.9172	
0.3175	0.1296	0.018	0.1175	0.0058	0.8749	
0.3545	0.1586	0.0169	0.1396	0.006	0.8504	
0.4074	0.2103	0.0148	0.1831	0.0061	0.8027	
0.4925	0.2504	0.0102	0.225	0.0048	0.7402	
0.2991	0.0517	0.0148	0.0431	0.0045	0.951	
0.3126	0.0864	0.0186	0.0719	0.0058	0.9223	
0.3474	0.1311	0.0173	0.1103	0.0058	0.882	
0.3757	0.1565	0.0144	0.131	0.0053	0.8589	
0.4267	0.2078	0.0114	0.1751	0.0062	0.8098	
0.5412	0.2493	0.0102	0.2197	0.0048	0.73	

System: methanol + dimethyl pentanedioate + water; phases: Liquid mixture 1, Liquid mixture 2
Fixed: Pressure, kPa = 101
Property: Mole fraction of methanol (Liquid mixture 1); method: Chromatography
Property: Mole fraction of methanol (Liquid mixture 2); method: Chromatography
Property: Mole fraction of water (Liquid mixture 2); method: Chromatography
Temperature, K	Mole fraction of water	Mole fraction of methanol	uncertainty	Mole fraction of methanol	uncertainty	Mole fraction of water	uncertainty
298.15	0.2637	0.0347	0.0129	0.0375	0.0054	0.9546	
298.15	0.2901	0.0563	0.0141	0.0551	0.0054	0.9353	
298.15	0.3016	0.0737	0.0177	0.0776	0.0054	0.9107	
298.15	0.3187	0.0982	0.0144	0.101	0.0055	0.8849	
298.15	0.3469	0.1216	0.0126	0.1321	0.0055	0.8523	
298.15	0.4035	0.1628	0.0124	0.1769	0.0056	0.8032	
298.15	0.4352	0.1851	0.0123	0.2158	0.0056	0.7603	
308.15	0.2939	0.0371	0.0148	0.0359	0.0054	0.9559	
308.15	0.3104	0.0552	0.0151	0.052	0.0055	0.9379	
308.15	0.3323	0.0787	0.0144	0.0717	0.0055	0.9171	
308.15	0.356	0.1036	0.0145	0.0962	0.0053	0.8898	
308.15	0.3799	0.129	0.0127	0.121	0.0052	0.8597	
308.15	0.4354	0.1668	0.0116	0.1371	0.0056	0.8372	
308.15	0.4847	0.1872	0.0109	0.2027	0.0058	0.7724	
318.15	0.3162	0.0388	0.0137	0.0339	0.0053	0.9574	
318.15	0.3351	0.0564	0.0142	0.0493	0.0054	0.9397	
318.15	0.3581	0.0808	0.0139	0.0674	0.0054	0.9205	
318.15	0.387	0.1066	0.014	0.0882	0.0054	0.8957	
318.15	0.4127	0.134	0.0131	0.1134	0.0055	0.8689	
318.15	0.4526	0.1624	0.0117	0.1538	0.0054	0.8259	
318.15	0.4907	0.1799	0.0111	0.1908	0.0053	0.7799	

System: monomethyl adipate + dimethyl 1,6-hexanedioate + water; phases: Liquid mixture 1, Liquid mixture 2
Fixed: Pressure, kPa = 101
Property: Mole fraction of monomethyl adipate (Liquid mixture 1); method: Chromatography
Property: Mole fraction of monomethyl adipate (Liquid mixture 2); method: Chromatography
Property: Mole fraction of water (Liquid mixture 2); method: Chromatography
Temperature, K	Mole fraction of water	Mole fraction of monomethyl adipate	uncertainty	Mole fraction of monomethyl adipate	uncertainty	Mole fraction of water	uncertainty
298.15	0.2608	0.0269	0.0127	0.0008	0.0008	0.9948	
298.15	0.2822	0.0435	0.0128	0.001	0.001	0.9956	
298.15	0.3022	0.06	0.0121	0.0015	0.0015	0.9956	
298.15	0.3549	0.0939	0.0118	0.0027	0.0026	0.9935	
298.15	0.3833	0.1099	0.0116	0.0029	0.0026	0.9934	
298.15	0.4102	0.1258	0.0112	0.0035	0.0026	0.993	
298.15	0.4721	0.1537	0.0113	0.006	0.0023	0.9894	
298.15	0.4974	0.1719	0.0124	0.0076	0.0021	0.9853	
308.15	0.2893	0.0252	0.0147	0.0007	0.0007	0.9958	
308.15	0.306	0.0432	0.0135	0.0012	0.0012	0.9954	
308.15	0.3294	0.0616	0.0123	0.0015	0.0015	0.9953	
308.15	0.374	0.0917	0.012	0.0025	0.0025	0.9941	
308.15	0.396	0.107	0.0113	0.0029	0.0026	0.9939	
308.15	0.4304	0.1211	0.0114	0.0036	0.0025	0.9925	
308.15	0.4827	0.1531	0.0115	0.0057	0.0024	0.9896	
308.15	0.5104	0.1642	0.0107	0.0066	0.0025	0.9889	
318.15	0.3117	0.0229	0.0185	0.0014	0.0014	0.995	
318.15	0.324	0.0421	0.0151	0.0011	0.0011	0.9956	
318.15	0.3428	0.0586	0.012	0.002	0.002	0.9936	
318.15	0.3924	0.0889	0.0118	0.0029	0.0023	0.9928	
318.15	0.4168	0.1054	0.0111	0.0035	0.0025	0.9916	
318.15	0.4558	0.1195	0.011	0.0046	0.0021	0.9898	
318.15	0.5114	0.1469	0.0111	0.0068	0.0027	0.988	
318.15	0.5405	0.1591	0.0109	0.0049	0.002	0.9867	
