Measured thermophysical data. Co-solvent effects in LLE of 1-hydroxyethyl-3-methylimidazolium based ionic liquids + 2-propanol + dichloromethane or 1,2-dichloroethane
Source: Fluid Phase Equilib., 2007, 10.1016/j.fluid.2007.02.020
Compound 1: 3-(2-hydroxyethyl)-1-methylimidazolium hexafluorophosphate, C6H11F6N2OP, InChI=1S/C6H11N2O.F6P/c1-7-2-3-8(6-7)4-5-9;1-7(2,3,4,5)6/h2-3,6,9H,4-5H2,1H3;/q+1;-1
Compound 2: 1-(2-hydroxyethyl)-3-methylimidazolium tetrafluoroborate, C6H11BF4N2O, InChI=1S/C6H11N2O.BF4/c1-7-2-3-8(6-7)4-5-9;2-1(3,4)5/h2-3,6,9H,4-5H2,1H3;/q+1;-1
Compound 3: 3-(2-hydroxyethyl)-1-methylimidazolium 1,1,1-trifluoromethanesulfonate, C7H11F3N2O4S, InChI=1S/C6H11N2O.CHF3O3S/c1-7-2-3-8(6-7)4-5-9;2-1(3,4)8(5,6)7/h2-3,6,9H,4-5H2,1H3;(H,5,6,7)/q+1;/p-1
Compound 4: 1-(2-hydroxyethyl)-3-methylimidazolium bis[(trifluoromethyl)sulfonyl]imide, C8H11F6N3O5S2, InChI=1S/C6H11N2O.C2F6NO4S2/c1-7-2-3-8(6-7)4-5-9;3-1(4,5)14(10,11)9-15(12,13)2(6,7)8/h2-3,6,9H,4-5H2,1H3;/q+1;-1
Compound 5: dichloromethane, CH2Cl2, InChI=1S/CH2Cl2/c2-1-3/h1H2, purity 99.9%
Compound 6: 1,2-dichloroethane, C2H4Cl2, InChI=1S/C2H4Cl2/c3-1-2-4/h1-2H2, purity 99.9%
Compound 7: propan-2-ol, C3H8O, InChI=1S/C3H8O/c1-3(2)4/h3-4H,1-2H3, purity 99.5%

System: dichloromethane + 3-(2-hydroxyethyl)-1-methylimidazolium hexafluorophosphate; phases: Liquid mixture 1, Liquid mixture 2
Property: Mole fraction of 3-(2-hydroxyethyl)-1-methylimidazolium hexafluorophosphate (Liquid mixture 1); method: Titration method
Temperature, K	Pressure, kPa	Mole fraction of 3-(2-hydroxyethyl)-1-methylimidazolium hexafluorophosphate	uncertainty
298.15	100	0.0015	0.0002

System: dichloromethane + 3-(2-hydroxyethyl)-1-methylimidazolium hexafluorophosphate; phases: Liquid mixture 2, Liquid mixture 1
Property: Mole fraction of 3-(2-hydroxyethyl)-1-methylimidazolium hexafluorophosphate (Liquid mixture 2); method: Titration method
Temperature, K	Pressure, kPa	Mole fraction of 3-(2-hydroxyethyl)-1-methylimidazolium hexafluorophosphate	uncertainty
298.15	100	0.3076	0.0062

System: dichloromethane + 1-(2-hydroxyethyl)-3-methylimidazolium tetrafluoroborate; phases: Liquid mixture 1, Liquid mixture 2
Property: Mole fraction of 1-(2-hydroxyethyl)-3-methylimidazolium tetrafluoroborate (Liquid mixture 1); method: Titration method
Temperature, K	Pressure, kPa	Mole fraction of 1-(2-hydroxyethyl)-3-methylimidazolium tetrafluoroborate	uncertainty
298.15	100	0.0099	0.0004

System: dichloromethane + 1-(2-hydroxyethyl)-3-methylimidazolium tetrafluoroborate; phases: Liquid mixture 2, Liquid mixture 1
Property: Mole fraction of 1-(2-hydroxyethyl)-3-methylimidazolium tetrafluoroborate (Liquid mixture 2); method: Titration method
Temperature, K	Pressure, kPa	Mole fraction of 1-(2-hydroxyethyl)-3-methylimidazolium tetrafluoroborate	uncertainty
298.15	100	0.4876	0.0098

System: dichloromethane + 3-(2-hydroxyethyl)-1-methylimidazolium 1,1,1-trifluoromethanesulfonate; phases: Liquid mixture 1, Liquid mixture 2
Fixed: Pressure, kPa = 100
Property: Mole fraction of 3-(2-hydroxyethyl)-1-methylimidazolium 1,1,1-trifluoromethanesulfonate (Liquid mixture 1); method: Titration method
Temperature, K	Mole fraction of 3-(2-hydroxyethyl)-1-methylimidazolium 1,1,1-trifluoromethanesulfonate	uncertainty
263.2	0.0011	0.0002
298.2	0.0011	0.0002

System: dichloromethane + 3-(2-hydroxyethyl)-1-methylimidazolium 1,1,1-trifluoromethanesulfonate; phases: Liquid mixture 2, Liquid mixture 1
Fixed: Pressure, kPa = 100
Property: Mole fraction of 3-(2-hydroxyethyl)-1-methylimidazolium 1,1,1-trifluoromethanesulfonate (Liquid mixture 2); method: Titration method
Temperature, K	Mole fraction of 3-(2-hydroxyethyl)-1-methylimidazolium 1,1,1-trifluoromethanesulfonate	uncertainty
298.2	0.4224	0.0084
331.2	0.3925	0.0079

System: dichloromethane + 1-(2-hydroxyethyl)-3-methylimidazolium bis[(trifluoromethyl)sulfonyl]imide; phases: Liquid mixture 1, Liquid mixture 2
Fixed: Pressure, kPa = 100
Property: Liquid-liquid equilibrium temperature, K (Liquid mixture 1); method: VISOBS
Mole fraction of 1-(2-hydroxyethyl)-3-methylimidazolium bis[(trifluoromethyl)sulfonyl]imide	Liquid-liquid equilibrium temperature, K	uncertainty
0.0219	298.2	2
0.0272	327.1	2
0.0344	331.1	2
0.0404	333.2	2
0.0466	334.2	2
0.0595	333.9	2
0.0683	333.8	2
0.0754	331.3	2
0.1025	323.2	2
0.1214	315.2	2
0.1417	298.2	2

System: propan-2-ol + dichloromethane + 3-(2-hydroxyethyl)-1-methylimidazolium hexafluorophosphate; phases: Liquid mixture 1, Liquid mixture 2
Fixed: Pressure, kPa = 100
Fixed: Solvent: Mole fraction of dichloromethane = 0.5425
Property: Liquid-liquid equilibrium temperature, K (Liquid mixture 1); method: VISOBS
Mole fraction of 3-(2-hydroxyethyl)-1-methylimidazolium hexafluorophosphate	Liquid-liquid equilibrium temperature, K	uncertainty
0.0644	261.8	2
0.1143	269.3	2
0.1449	272.6	2
0.181	276	2
0.2109	277.9	2
0.2328	279.1	2
0.2914	278.6	2
0.3207	274.6	2
0.3942	266.3	2

System: propan-2-ol + dichloromethane + 3-(2-hydroxyethyl)-1-methylimidazolium hexafluorophosphate; phases: Liquid mixture 1, Liquid mixture 2
Fixed: Mole fraction of dichloromethane = 0.4537
Fixed: Mole fraction of 3-(2-hydroxyethyl)-1-methylimidazolium hexafluorophosphate = 0.1635
Property: Liquid-liquid equilibrium temperature, K (Liquid mixture 1); method: VISOBS
Pressure, kPa	Liquid-liquid equilibrium temperature, K	uncertainty
320	275.08	2.01
1390	274.96	2.01
2320	274.65	2.01
3200	274.35	2.01
4050	274.1	2.01

System: propan-2-ol + dichloromethane + 3-(2-hydroxyethyl)-1-methylimidazolium hexafluorophosphate; phases: Liquid mixture 1, Liquid mixture 2
Fixed: Temperature, K = 298
Fixed: Pressure, kPa = 100
Property: Mole fraction of dichloromethane (Liquid mixture 1); method: TITR:UFactor:2
Mole fraction of 3-(2-hydroxyethyl)-1-methylimidazolium hexafluorophosphate	Mole fraction of dichloromethane	uncertainty
0.0008	0	0.0001
0.0015	0.9985	0.0001
0.0035	0.1104	0.0088
0.0098	0.9214	0.0063
0.0173	0.2955	0.0236
0.0178	0.8961	0.0083
0.028	0.3402	0.0272
0.0526	0.8166	0.0147
0.0666	0.7772	0.0178
0.0756	0.3797	0.0304
0.0763	0.7648	0.0188
0.0803	0.7585	0.0193
0.0923	0.381	0.0305
0.125	0.7153	0.0228
0.1352	0.3857	0.0309
0.1691	0.3793	0.0303
0.2108	0.6895	0.0248
0.2127	0.3658	0.0293
0.2996	0.3194	0.0256
0.2996	0.3194	0.0256
0.3076	0.6924	0.0246
0.3385	0.2994	0.024
0.3385	0.2994	0.024
0.4217	0.2104	0.0168
0.634	0	0.0001

System: propan-2-ol + dichloromethane + 1-(2-hydroxyethyl)-3-methylimidazolium tetrafluoroborate; phases: Liquid mixture 1, Liquid mixture 2
Fixed: Pressure, kPa = 100
Fixed: Solvent: Mole fraction of dichloromethane = 0.5425
Property: Liquid-liquid equilibrium temperature, K (Liquid mixture 1); method: VISOBS
Mole fraction of 1-(2-hydroxyethyl)-3-methylimidazolium tetrafluoroborate	Liquid-liquid equilibrium temperature, K	uncertainty
0.0978	264.2	2
0.153	272.8	2
0.1634	273.4	2
0.1808	274.4	2
0.2172	277.4	2
0.2301	278.4	2
0.2421	280.1	2
0.2941	282	2
0.343	282.7	2
0.4214	281.5	2
0.4601	278.9	2
0.5203	273.2	2

System: propan-2-ol + dichloromethane + 1-(2-hydroxyethyl)-3-methylimidazolium tetrafluoroborate; phases: Liquid mixture 1, Liquid mixture 2
Fixed: Temperature, K = 298
Fixed: Pressure, kPa = 100
Property: Mole fraction of dichloromethane (Liquid mixture 1); method: TITR:UFactor:2
Mole fraction of 1-(2-hydroxyethyl)-3-methylimidazolium tetrafluoroborate	Mole fraction of dichloromethane	uncertainty
0.001	0	0.0001
0.0099	0.9901	0.0008
0.0119	0.1962	0.0157
0.0211	0.2938	0.0235
0.0304	0.3159	0.0253
0.0316	0.8318	0.0135
0.041	0.8157	0.0147
0.0669	0.7745	0.018
0.0932	0.7608	0.0191
0.1048	0.3402	0.0272
0.1233	0.7148	0.0228
0.1596	0.3354	0.0268
0.2242	0.6497	0.028
0.2455	0.3005	0.024
0.2885	0.6143	0.0309
0.4876	0.5124	0.039
0.5906	0	0.0001

System: propan-2-ol + dichloromethane + 3-(2-hydroxyethyl)-1-methylimidazolium 1,1,1-trifluoromethanesulfonate; phases: Liquid mixture 1, Liquid mixture 2
Fixed: Temperature, K = 298
Fixed: Pressure, kPa = 100
Property: Mole fraction of dichloromethane (Liquid mixture 1); method: TITR:UFactor:2
Mole fraction of 3-(2-hydroxyethyl)-1-methylimidazolium 1,1,1-trifluoromethanesulfonate	Mole fraction of dichloromethane	uncertainty
0.0011	0.9989	0.0001
0.0035	0.9748	0.002
0.0377	0.8024	0.0158
0.0598	0.7744	0.018
0.116	0.746	0.0203
0.1912	0.6898	0.0248
0.261	0.655	0.0276
0.3038	0.6349	0.0292
0.4224	0.5776	0.0338

System: propan-2-ol + dichloromethane + 1-(2-hydroxyethyl)-3-methylimidazolium bis[(trifluoromethyl)sulfonyl]imide; phases: Liquid mixture 1, Liquid mixture 2
Fixed: Temperature, K = 298
Fixed: Pressure, kPa = 100
Property: Mole fraction of dichloromethane (Liquid mixture 1); method: TITR:UFactor:2
Mole fraction of 1-(2-hydroxyethyl)-3-methylimidazolium bis[(trifluoromethyl)sulfonyl]imide	Mole fraction of dichloromethane	uncertainty
0.0219	0.9781	0.0018
0.0499	0.9311	0.0055
0.07	0.912	0.007
0.0984	0.8744	0.01
0.1154	0.8604	0.0112
0.1417	0.8583	0.0113

System: propan-2-ol + 1,2-dichloroethane + 3-(2-hydroxyethyl)-1-methylimidazolium 1,1,1-trifluoromethanesulfonate; phases: Liquid mixture 1, Liquid mixture 2
Fixed: Temperature, K = 298
Fixed: Pressure, kPa = 100
Property: Mole fraction of 1,2-dichloroethane (Liquid mixture 1); method: TITR:UFactor:2
Mole fraction of 3-(2-hydroxyethyl)-1-methylimidazolium 1,1,1-trifluoromethanesulfonate	Mole fraction of 1,2-dichloroethane	uncertainty
0.0034	0.9966	0.0003
0.0113	0.969	0.0025
0.0524	0.8002	0.016
0.0764	0.7702	0.0184
0.0997	0.7267	0.0219
0.2058	0.619	0.0305
0.337	0.5707	0.0343
0.4108	0.5892	0.0329

System: propan-2-ol + 1,2-dichloroethane + 1-(2-hydroxyethyl)-3-methylimidazolium bis[(trifluoromethyl)sulfonyl]imide; phases: Liquid mixture 1, Liquid mixture 2
Fixed: Temperature, K = 298
Fixed: Pressure, kPa = 100
Property: Mole fraction of 1,2-dichloroethane (Liquid mixture 1); method: TITR:UFactor:2
Mole fraction of 1-(2-hydroxyethyl)-3-methylimidazolium bis[(trifluoromethyl)sulfonyl]imide	Mole fraction of 1,2-dichloroethane	uncertainty
0.0107	0.9832	0.0013
0.0312	0.9389	0.0049
0.0498	0.9032	0.0077
0.075	0.8748	0.01
0.0987	0.8521	0.0118
0.1503	0.8497	0.012
