Measured thermophysical data. Liquid liquid equilibria for {hexane + benzene + 1-ethyl-3-methylimidazolium ethylsulfate} at (298.2, 313.2 and 328.2)K
Source: Fluid Phase Equilib., 2009, 10.1016/j.fluid.2009.05.006
Compound 1: hexane, C6H14, InChI=1S/C6H14/c1-3-5-6-4-2/h3-6H2,1-2H3, purity 99%
Compound 2: benzene, C6H6, InChI=1S/C6H6/c1-2-4-6-5-3-1/h1-6H, purity 99.5%
Compound 3: 1-ethyl-3-methylimidazolium ethyl sulfate, C8H16N2O4S, InChI=1S/C6H11N2.C2H6O4S/c1-3-8-5-4-7(2)6-8;1-2-6-7(3,4)5/h4-6H,3H2,1-2H3;2H2,1H3,(H,3,4,5)/q+1;/p-1, purity 95%

System: benzene + hexane + 1-ethyl-3-methylimidazolium ethyl sulfate; phases: Liquid mixture 1, Liquid mixture 2
Fixed: Pressure, kPa = 101.3
Property: Mole fraction of hexane (Liquid mixture 1); method: Chromatography
Property: Mole fraction of hexane (Liquid mixture 2); method: Chromatography
Property: Mole fraction of benzene (Liquid mixture 2); method: Chromatography
Temperature, K	Mole fraction of benzene	Mole fraction of hexane	uncertainty	Mole fraction of hexane	uncertainty	Mole fraction of benzene	uncertainty
298.2	0.0549	0.9451	0.008	0.0069	0.0004	0.0381	
298.2	0.12	0.88	0.0081	0.0069	0.0004	0.0825	
298.2	0.163	0.837	0.0081	0.0068	0.0004	0.1117	
298.2	0.2268	0.7732	0.0082	0.0066	0.0004	0.1515	
298.2	0.2793	0.7207	0.0083	0.0064	0.0004	0.173	
298.2	0.3314	0.6686	0.0084	0.0064	0.0004	0.1994	
298.2	0.4136	0.5864	0.0086	0.0063	0.0004	0.239	
298.2	0.4654	0.5346	0.0088	0.0063	0.0004	0.2652	
313.2	0.0647	0.9353	0.008	0.0083	0.0004	0.0381	
313.2	0.1269	0.8731	0.0081	0.0081	0.0004	0.0743	
313.2	0.1726	0.8274	0.0081	0.008	0.0004	0.1006	
313.2	0.2521	0.7479	0.0082	0.008	0.0004	0.1405	
313.2	0.2992	0.7008	0.0083	0.0077	0.0004	0.1641	
313.2	0.3624	0.6376	0.0085	0.0075	0.0004	0.1876	
313.2	0.4065	0.5935	0.0086	0.0073	0.0004	0.205	
313.2	0.4694	0.5306	0.0088	0.0072	0.0004	0.2292	
328.2	0.0669	0.9331	0.008	0.0092	0.0004	0.0324	
328.2	0.1351	0.8649	0.0081	0.009	0.0004	0.0661	
328.2	0.18	0.82	0.0081	0.0088	0.0004	0.0857	
328.2	0.2436	0.7564	0.0082	0.0087	0.0004	0.1164	
328.2	0.3033	0.6967	0.0083	0.0085	0.0004	0.1391	
328.2	0.3603	0.6397	0.0085	0.0082	0.0004	0.1612	
328.2	0.4289	0.5711	0.0087	0.0082	0.0004	0.1891	
328.2	0.4744	0.5256	0.0088	0.008	0.0004	0.2048	
