Measured thermophysical data. The effect of temperature on the solubility of benzoic acid derivatives in water
Source: Fluid Phase Equilib., 2006, 10.1016/j.fluid.2006.10.014
Compound 1: 2-nitrobenzoic acid, C7H5NO4, InChI=1S/C7H5NO4/c9-7(10)5-3-1-2-4-6(5)8(11)12/h1-4H,(H,9,10)
Compound 2: water, H2O, InChI=1S/H2O/h1H2
Compound 3: 4-hydroxybenzoic acid, C7H6O3, InChI=1S/C7H6O3/c8-6-3-1-5(2-4-6)7(9)10/h1-4,8H,(H,9,10)
Compound 4: 4-methylbenzoic acid, C8H8O2, InChI=1S/C8H8O2/c1-6-2-4-7(5-3-6)8(9)10/h2-5H,1H3,(H,9,10)
Compound 5: 3-methylbenzoic acid, C8H8O2, InChI=1S/C8H8O2/c1-6-3-2-4-7(5-6)8(9)10/h2-5H,1H3,(H,9,10)
Compound 6: benzoic acid, C7H6O2, InChI=1S/C7H6O2/c8-7(9)6-4-2-1-3-5-6/h1-5H,(H,8,9)
Compound 7: 3-nitrobenzoic acid, C7H5NO4, InChI=1S/C7H5NO4/c9-7(10)5-2-1-3-6(4-5)8(11)12/h1-4H,(H,9,10)

System: 2-nitrobenzoic acid + water; phases: Liquid, Crystal
Fixed: Pressure, kPa = 101
Property: Solid-liquid equilibrium temperature, K (Liquid); method: laser monitoring observation technique
Mole fraction of 2-nitrobenzoic acid	Solid-liquid equilibrium temperature, K	uncertainty
0.000556	292.27	0.5
0.0005861	293.47	0.5
0.0006131	294.58	0.5
0.0006812	297.51	0.5
0.0006831	297.04	0.5
0.000729	298.28	0.5
0.00077	301.49	0.5
0.00078	302.47	0.5
0.000798	302.99	0.5
0.000839	304	0.5
0.000891	305.07	0.5
0.0009491	307.48	0.5
0.0009642	308.58	0.5
0.0009721	309.54	0.5
0.0010454	310.57	0.5
0.0010473	311.57	0.5
0.001079	312.68	0.5
0.001112	313.54	0.5
0.001134	314.43	0.5

System: 4-hydroxybenzoic acid + water; phases: Liquid, Crystal
Fixed: Pressure, kPa = 101
Property: Solid-liquid equilibrium temperature, K (Liquid); method: laser monitoring observation technique
Mole fraction of 4-hydroxybenzoic acid	Solid-liquid equilibrium temperature, K	uncertainty
0.0004561	292.07	0.5
0.0005012	293.47	0.5
0.0005931	298.77	0.5
0.000643	300.62	0.5
0.000731	303.32	0.5
0.0007554	304.18	0.5
0.0007992	304.97	0.5
0.0008331	305.48	0.5
0.0009184	306.34	0.5
0.0009542	307.28	0.5
0.0009944	308.77	0.5
0.001013	310.07	0.5
0.001054	311	0.5
0.001093	311.89	0.5
0.001122	312.34	0.5
0.001148	313.38	0.5

System: 4-methylbenzoic acid + water; phases: Liquid, Crystal
Fixed: Pressure, kPa = 101
Property: Solid-liquid equilibrium temperature, K (Liquid); method: laser monitoring observation technique
Mole fraction of 4-methylbenzoic acid	Solid-liquid equilibrium temperature, K	uncertainty
4.548e-05	304	0.5
4.759e-05	305.1	0.5
4.865e-05	306.3	0.5
5.05e-05	308.15	0.5
5.275e-05	309.15	0.5
5.513e-05	309.85	0.5
5.843e-05	310.35	0.5
8.275e-05	314.85	0.5
9.068e-05	317.85	0.5
9.743e-05	320.35	0.5
0.000101	323.25	0.5

System: 3-methylbenzoic acid + water; phases: Liquid, Crystal
Fixed: Pressure, kPa = 101
Property: Solid-liquid equilibrium temperature, K (Liquid); method: laser monitoring observation technique
Mole fraction of 3-methylbenzoic acid	Solid-liquid equilibrium temperature, K	uncertainty
2.961e-05	296.95	0.5
3.199e-05	298.45	0.5
4.217e-05	300.55	0.5
4.468e-05	301.55	0.5
4.997e-05	302.25	0.5
5.394e-05	303.45	0.5
5.724e-05	304.15	0.5
6.544e-05	305.45	0.5
7.112e-05	306.05	0.5
7.297e-05	306.8	0.5
8.249e-05	308.3	0.5
9.002e-05	309.2	0.5
9.914e-05	309.6	0.5
0.00010443	309.7	0.5
0.00011567	310.4	0.5
0.00011805	311.6	0.5
0.00014514	313.67	0.5
0.00017224	315.17	0.5
0.00020105	317	0.5

System: benzoic acid + water; phases: Liquid, Crystal
Fixed: Pressure, kPa = 101
Property: Solid-liquid equilibrium temperature, K (Liquid); method: laser monitoring observation technique
Mole fraction of benzoic acid	Solid-liquid equilibrium temperature, K	uncertainty
0.0003889	290.35	0.5
0.0004011	291.3	0.5
0.0004272	293.01	0.5
0.0004623	295.97	0.5
0.0004951	297.15	0.5
0.0004972	297.38	0.5
0.0005948	303.16	0.5
0.0005988	304.48	0.5
0.0006801	306.72	0.5
0.0007071	308.44	0.5
0.0008285	313.16	0.5
0.0008354	313.18	0.5
0.0008752	314.65	0.5

System: 3-nitrobenzoic acid + water; phases: Liquid, Crystal
Fixed: Pressure, kPa = 101
Property: Solid-liquid equilibrium temperature, K (Liquid); method: laser monitoring observation technique
Mole fraction of 3-nitrobenzoic acid	Solid-liquid equilibrium temperature, K	uncertainty
0.000209	299.2	0.5
0.000235	300.6	0.5
0.000288	302.75	0.5
0.000289	304.35	0.5
0.0002871	306.37	0.5
0.0003527	308.65	0.5
0.0004256	310.69	0.5
0.0004544	311.97	0.5
0.0004954	312.95	0.5
0.0005081	314.15	0.5
0.0005856	314.96	0.5
0.0006084	315.93	0.5
0.0006292	316.39	0.5
0.0006501	317.28	0.5
0.0007787	318.85	0.5
0.0008583	320.6	0.5
