Measured thermophysical data. Solid-liquid phase equilibrium diagrams of binary mixtures containing fatty acids, fatty alcohol compounds and tripalmitin using differential scanning calorimetry
Source: Fluid Phase Equilib., 2019, 10.1016/j.fluid.2019.05.020
Compound 1: 1,2,3-propanetriyl tri(hexadecanoate), C51H98O6, InChI=1S/C51H98O6/c1-4-7-10-13-16-19-22-25-28-31-34-37-40-43-49(52)55-46-48(57-51(54)45-42-39-36-33-30-27-24-21-18-15-12-9-6-3)47-56-50(53)44-41-38-35-32-29-26-23-20-17-14-11-8-5-2/h48H,4-47H2,1-3H3, purity 99%
Compound 2: decanoic acid, C10H20O2, InChI=1S/C10H20O2/c1-2-3-4-5-6-7-8-9-10(11)12/h2-9H2,1H3,(H,11,12), purity 99%
Compound 3: dodecanoic acid, C12H24O2, InChI=1S/C12H24O2/c1-2-3-4-5-6-7-8-9-10-11-12(13)14/h2-11H2,1H3,(H,13,14), purity 99%
Compound 4: tetradecanoic acid, C14H28O2, InChI=1S/C14H28O2/c1-2-3-4-5-6-7-8-9-10-11-12-13-14(15)16/h2-13H2,1H3,(H,15,16), purity 99%
Compound 5: hexadecanoic acid, C16H32O2, InChI=1S/C16H32O2/c1-2-3-4-5-6-7-8-9-10-11-12-13-14-15-16(17)18/h2-15H2,1H3,(H,17,18), purity 99%
Compound 6: octadecanoic acid, C18H36O2, InChI=1S/C18H36O2/c1-2-3-4-5-6-7-8-9-10-11-12-13-14-15-16-17-18(19)20/h2-17H2,1H3,(H,19,20), purity 99%
Compound 7: decan-1-ol, C10H22O, InChI=1S/C10H22O/c1-2-3-4-5-6-7-8-9-10-11/h11H,2-10H2,1H3, purity 99%
Compound 8: dodecan-1-ol, C12H26O, InChI=1S/C12H26O/c1-2-3-4-5-6-7-8-9-10-11-12-13/h13H,2-12H2,1H3, purity 99%
Compound 9: 1-tetradecanol, C14H30O, InChI=1S/C14H30O/c1-2-3-4-5-6-7-8-9-10-11-12-13-14-15/h15H,2-14H2,1H3, purity 99%

System: 1,2,3-propanetriyl tri(hexadecanoate); phases: Crystal, Liquid, Air at 1 atmosphere
Property: Normal melting temperature, K (Crystal); method: DTA
Normal melting temperature, K	uncertainty
339.44	0.65

System: 1,2,3-propanetriyl tri(hexadecanoate); phases: Crystal, Liquid, Air at 1 atmosphere
Property: Molar enthalpy of transition or fusion, kJ/mol (Crystal); method: DSC
Molar enthalpy of transition or fusion, kJ/mol	uncertainty
160.23	8.79

System: decanoic acid; phases: Crystal, Liquid, Air at 1 atmosphere
Property: Normal melting temperature, K (Crystal); method: DTA
Normal melting temperature, K	uncertainty
305.22	0.49

System: decanoic acid; phases: Crystal, Liquid, Air at 1 atmosphere
Property: Molar enthalpy of transition or fusion, kJ/mol (Crystal); method: DSC
Molar enthalpy of transition or fusion, kJ/mol	uncertainty
26.166	1.206

System: dodecanoic acid; phases: Crystal, Liquid, Air at 1 atmosphere
Property: Normal melting temperature, K (Crystal); method: DTA
Normal melting temperature, K	uncertainty
318.5	0.65

System: dodecanoic acid; phases: Crystal, Liquid, Air at 1 atmosphere
Property: Molar enthalpy of transition or fusion, kJ/mol (Crystal); method: DSC
Molar enthalpy of transition or fusion, kJ/mol	uncertainty
33.42	2.59

System: tetradecanoic acid; phases: Crystal, Liquid, Air at 1 atmosphere
Property: Normal melting temperature, K (Crystal); method: DTA
Normal melting temperature, K	uncertainty
329.05	0.73

System: tetradecanoic acid; phases: Crystal, Liquid, Air at 1 atmosphere
Property: Molar enthalpy of transition or fusion, kJ/mol (Crystal); method: DSC
Molar enthalpy of transition or fusion, kJ/mol	uncertainty
41.526	6.828

System: hexadecanoic acid; phases: Crystal, Liquid, Air at 1 atmosphere
Property: Normal melting temperature, K (Crystal); method: DTA
Normal melting temperature, K	uncertainty
337.17	0.55

System: hexadecanoic acid; phases: Crystal, Liquid, Air at 1 atmosphere
Property: Molar enthalpy of transition or fusion, kJ/mol (Crystal); method: DSC
Molar enthalpy of transition or fusion, kJ/mol	uncertainty
49.02	2.652

System: octadecanoic acid; phases: Crystal, Liquid, Air at 1 atmosphere
Property: Normal melting temperature, K (Crystal); method: DTA
Normal melting temperature, K	uncertainty
343.63	0.49

System: octadecanoic acid; phases: Crystal, Liquid, Air at 1 atmosphere
Property: Molar enthalpy of transition or fusion, kJ/mol (Crystal); method: DSC
Molar enthalpy of transition or fusion, kJ/mol	uncertainty
56.165	4.741

System: decan-1-ol; phases: Crystal 2, Crystal 1, Air at 1 atmosphere
Property: Triple point temperature, K (Crystal 2); method: DSC
Triple point temperature, K	uncertainty
275.64	4.06

System: decan-1-ol; phases: Crystal, Liquid, Air at 1 atmosphere
Property: Normal melting temperature, K (Crystal); method: DTA
Normal melting temperature, K	uncertainty
279.84	0.55

System: decan-1-ol; phases: Crystal, Liquid, Air at 1 atmosphere
Property: Molar enthalpy of transition or fusion, kJ/mol (Crystal); method: DSC
Molar enthalpy of transition or fusion, kJ/mol	uncertainty
29.55	3.91

System: dodecan-1-ol; phases: Crystal, Liquid, Air at 1 atmosphere
Property: Normal melting temperature, K (Crystal); method: DTA
Normal melting temperature, K	uncertainty
297.78	0.39

System: dodecan-1-ol; phases: Crystal, Liquid, Air at 1 atmosphere
Property: Molar enthalpy of transition or fusion, kJ/mol (Crystal); method: DSC
Molar enthalpy of transition or fusion, kJ/mol	uncertainty
31.509	8.902

System: 1-tetradecanol; phases: Crystal, Liquid, Air at 1 atmosphere
Property: Normal melting temperature, K (Crystal); method: DTA
Normal melting temperature, K	uncertainty
310.71	0.91

System: 1-tetradecanol; phases: Crystal, Liquid, Air at 1 atmosphere
Property: Molar enthalpy of transition or fusion, kJ/mol (Crystal); method: DSC
Molar enthalpy of transition or fusion, kJ/mol	uncertainty
43.649	5.209

System: 1,2,3-propanetriyl tri(hexadecanoate) + decanoic acid; phases: Liquid, Crystal
Fixed: Pressure, kPa = 94.6
Property: Solid-liquid equilibrium temperature, K (Liquid); method: DTA
Mole fraction of 1,2,3-propanetriyl tri(hexadecanoate)	Solid-liquid equilibrium temperature, K	uncertainty
0.0999	327.35	0.7
0.1995	331.37	0.7
0.3901	335.2	0.7
0.6002	337.63	0.7
0.7995	338.75	0.7

System: 1,2,3-propanetriyl tri(hexadecanoate) + dodecanoic acid; phases: Liquid, Crystal
Fixed: Pressure, kPa = 94.6
Property: Solid-liquid equilibrium temperature, K (Liquid); method: DTA
Mole fraction of 1,2,3-propanetriyl tri(hexadecanoate)	Solid-liquid equilibrium temperature, K	uncertainty
0.0999	327.52	0.7
0.2011	331.04	0.7
0.4082	335.23	0.7
0.6229	337.12	0.7
0.8062	338.06	0.7

System: 1,2,3-propanetriyl tri(hexadecanoate) + tetradecanoic acid; phases: Liquid, Crystal
Fixed: Pressure, kPa = 94.6
Property: Solid-liquid equilibrium temperature, K (Liquid); method: DTA
Mole fraction of 1,2,3-propanetriyl tri(hexadecanoate)	Solid-liquid equilibrium temperature, K	uncertainty
0.0499	327.15	0.7
0.0999	326.61	0.7

System: 1,2,3-propanetriyl tri(hexadecanoate) + tetradecanoic acid; phases: Liquid, Crystal
Fixed: Pressure, kPa = 94.6
Property: Solid-liquid equilibrium temperature, K (Liquid); method: DTA
Mole fraction of 1,2,3-propanetriyl tri(hexadecanoate)	Solid-liquid equilibrium temperature, K	uncertainty
0.15	330.11	0.7
0.1999	331.29	0.7
0.4	334.75	0.7
0.6004	337.3	0.7
0.8003	338.3	0.7
0.9003	339.24	0.7

System: 1,2,3-propanetriyl tri(hexadecanoate) + hexadecanoic acid; phases: Liquid, Crystal
Property: Solid-liquid equilibrium temperature, K (Liquid); method: DTA
Mole fraction of 1,2,3-propanetriyl tri(hexadecanoate)	Pressure, kPa	Solid-liquid equilibrium temperature, K	uncertainty
0.2	94.6	332.6	0.7

System: 1,2,3-propanetriyl tri(hexadecanoate) + hexadecanoic acid; phases: Liquid, Crystal
Fixed: Pressure, kPa = 94.6
Property: Solid-liquid equilibrium temperature, K (Liquid); method: DTA
Mole fraction of 1,2,3-propanetriyl tri(hexadecanoate)	Solid-liquid equilibrium temperature, K	uncertainty
0.2495	333.22	0.7
0.4	335.32	0.7
0.5997	337.14	0.7
0.8	339.19	0.7

System: 1,2,3-propanetriyl tri(hexadecanoate) + octadecanoic acid; phases: Liquid, Crystal
Fixed: Pressure, kPa = 94.6
Property: Solid-liquid equilibrium temperature, K (Liquid); method: DTA
Mole fraction of 1,2,3-propanetriyl tri(hexadecanoate)	Solid-liquid equilibrium temperature, K	uncertainty
0.2	339.48	0.7
0.2999	335.89	0.7

System: 1,2,3-propanetriyl tri(hexadecanoate) + octadecanoic acid; phases: Liquid, Crystal
Fixed: Pressure, kPa = 94.6
Property: Solid-liquid equilibrium temperature, K (Liquid); method: DTA
Mole fraction of 1,2,3-propanetriyl tri(hexadecanoate)	Solid-liquid equilibrium temperature, K	uncertainty
0.35	336.12	0.7
0.3998	336.42	0.7
0.6001	337.43	0.7
0.8004	339	0.7

System: 1,2,3-propanetriyl tri(hexadecanoate) + decan-1-ol; phases: Liquid, Crystal
Fixed: Pressure, kPa = 94.6
Property: Solid-liquid equilibrium temperature, K (Liquid); method: DTA
Mole fraction of 1,2,3-propanetriyl tri(hexadecanoate)	Solid-liquid equilibrium temperature, K	uncertainty
0.1997	333.12	0.7
0.399	335.9	0.7
0.6009	337.64	0.7
0.7993	339.04	0.7

System: 1,2,3-propanetriyl tri(hexadecanoate) + dodecan-1-ol; phases: Liquid, Crystal
Fixed: Pressure, kPa = 94.6
Property: Solid-liquid equilibrium temperature, K (Liquid); method: DTA
Mole fraction of 1,2,3-propanetriyl tri(hexadecanoate)	Solid-liquid equilibrium temperature, K	uncertainty
0.0996	331.26	0.7
0.1993	332.01	0.7
0.3991	335.82	0.7
0.5992	337.16	0.7
0.8004	338.6	0.7
0.8995	338.99	0.7

System: 1,2,3-propanetriyl tri(hexadecanoate) + 1-tetradecanol; phases: Liquid, Crystal
Fixed: Pressure, kPa = 94.6
Property: Solid-liquid equilibrium temperature, K (Liquid); method: DTA
Mole fraction of 1,2,3-propanetriyl tri(hexadecanoate)	Solid-liquid equilibrium temperature, K	uncertainty
0.1	329.6	0.7
0.2006	331.88	0.7
0.3995	334.94	0.7
0.5997	336.54	0.7
0.8	338.28	0.7
