Measured thermophysical data. Study on solid liquid phase equilibria in ionic liquid 2. The solubility of alkali bromide in ionic liquid 1-ethyl-3-methylimidazolium ethyl sulfate
Source: Fluid Phase Equilib., 2007, 10.1016/j.fluid.2007.03.008
Compound 1: 1-ethyl-3-methylimidazolium ethyl sulfate, C8H16N2O4S, InChI=1S/C6H11N2.C2H6O4S/c1-3-8-5-4-7(2)6-8;1-2-6-7(3,4)5/h4-6H,3H2,1-2H3;2H2,1H3,(H,3,4,5)/q+1;/p-1
Compound 2: potassium bromide, BrK, InChI=1S/BrH.K/h1H;/q;+1/p-1
Compound 3: sodium bromide, BrNa, InChI=1S/BrH.Na/h1H;/q;+1/p-1

System: sodium bromide + 1-ethyl-3-methylimidazolium ethyl sulfate; phases: Liquid, Crystal
Fixed: Pressure, kPa = 101
Property: Molality, mol/kg (Liquid); method: Mohr method
Temperature, K	Molality, mol/kg	uncertainty
293.15	0.2654	0.0027
298.15	0.2692	0.0028
303.15	0.2733	0.0028
308.15	0.2774	0.0028
313.15	0.2817	0.0029
318.15	0.2859	0.0029
323.15	0.2901	0.003
328.15	0.2948	0.003
333.15	0.299	0.0031
338.15	0.3037	0.0031
343.15	0.3083	0.0032

System: potassium bromide + 1-ethyl-3-methylimidazolium ethyl sulfate; phases: Liquid, Crystal
Fixed: Pressure, kPa = 101
Property: Molality, mol/kg (Liquid); method: Mohr method
Temperature, K	Molality, mol/kg	uncertainty
293.15	0.25	0.0026
298.15	0.2527	0.0026
303.15	0.2557	0.0026
308.15	0.2589	0.0026
313.15	0.262	0.0027
318.15	0.2654	0.0027
323.15	0.2696	0.0028
328.15	0.2726	0.0028
333.15	0.2765	0.0028
338.15	0.2807	0.0029
343.15	0.2849	0.0029
