Measured thermophysical data. Effect of bis(trifluoromethylsulfonyl)imide-based ionic liquids on the isobaric vapor - liquid equilibrium behavior of ethanol + dimethyl carbonate at 101.3 kPa
Source: Fluid Phase Equilib., 2018, 10.1016/j.fluid.2018.05.024
Compound 1: ethanol, C2H6O, InChI=1S/C2H6O/c1-2-3/h3H,2H2,1H3
Compound 2: dimethyl carbonate, C3H6O3, InChI=1S/C3H6O3/c1-5-3(4)6-2/h1-2H3
Compound 3: 1-hexyl-3-methylimidazolium bis[(trifluoromethyl)sulfonyl]imide, C12H19F6N3O4S2, InChI=1S/C10H19N2.C2F6NO4S2/c1-3-4-5-6-7-12-9-8-11(2)10-12;3-1(4,5)14(10,11)9-15(12,13)2(6,7)8/h8-10H,3-7H2,1-2H3;/q+1;-1
Compound 4: 1-butyl-3-methylimidazolium bis(trifluoromethylsulfonyl)imide, C10H15F6N3O4S2, InChI=1S/C8H15N2.C2F6NO4S2/c1-3-4-5-10-7-6-9(2)8-10;3-1(4,5)14(10,11)9-15(12,13)2(6,7)8/h6-8H,3-5H2,1-2H3;/q+1;-1

System: ethanol + dimethyl carbonate; phases: Liquid, Gas
Fixed: Pressure, kPa = 101.3
Property: Boiling temperature at pressure P, K (Liquid); method: Ebulliometric method (Recirculating still)
Mole fraction of ethanol	Boiling temperature at pressure P, K	uncertainty
0.056	360.25	0.24
0.119	357.15	0.23
0.192	354.65	0.23
0.251	352.95	0.22
0.306	351.85	0.22
0.338	351.25	0.22
0.399	350.25	0.22
0.449	349.55	0.22
0.497	349.15	0.22
0.543	348.75	0.22
0.582	348.55	0.22
0.639	348.25	0.22
0.687	348.15	0.22
0.725	348.25	0.22
0.776	348.45	0.22
0.816	348.75	0.22
0.861	349.15	0.22
0.917	349.75	0.22
0.955	350.35	0.22

System: ethanol + dimethyl carbonate; phases: Gas, Liquid
Fixed: Pressure, kPa = 101.3
Property: Mole fraction of ethanol (Gas); method: Chromatography
Mole fraction of ethanol	Mole fraction of ethanol	uncertainty
0.056	0.164	0.005
0.119	0.291	0.005
0.192	0.386	0.005
0.251	0.444	0.005
0.306	0.485	0.005
0.338	0.509	0.005
0.399	0.549	0.005
0.449	0.578	0.004
0.497	0.605	0.004
0.543	0.635	0.004
0.582	0.65	0.004
0.639	0.679	0.004
0.687	0.706	0.003
0.725	0.728	0.003
0.776	0.758	0.003
0.816	0.786	0.003
0.861	0.822	0.003
0.917	0.878	0.003
0.955	0.926	0.003

System: ethanol + dimethyl carbonate + 1-hexyl-3-methylimidazolium bis[(trifluoromethyl)sulfonyl]imide; phases: Liquid, Gas
Fixed: Pressure, kPa = 101.3
Property: Boiling temperature at pressure P, K (Liquid); method: Ebulliometric method (Recirculating still)
Mole fraction of ethanol	Mole fraction of 1-hexyl-3-methylimidazolium bis[(trifluoromethyl)sulfonyl]imide	Boiling temperature at pressure P, K	uncertainty
0.082	0.05	358.55	0.23
0.189	0.05	355.15	0.23
0.301	0.05	352.75	0.22
0.393	0.05	351.55	0.22
0.488	0.05	350.85	0.22
0.589	0.05	350.45	0.22
0.677	0.05	350.35	0.22
0.762	0.05	350.55	0.22
0.849	0.05	351.15	0.22
0.893	0.05	351.65	0.22
0.07	0.1	360.35	0.23
0.154	0.1	357.35	0.23
0.244	0.1	354.85	0.22
0.347	0.1	353.15	0.22
0.471	0.1	352.05	0.22
0.542	0.1	351.85	0.22
0.621	0.1	351.75	0.22
0.704	0.1	351.95	0.22
0.789	0.1	352.55	0.22
0.833	0.1	353.15	0.22
0.049	0.15	362.95	0.24
0.115	0.15	359.75	0.23
0.204	0.15	357.05	0.23
0.303	0.15	354.65	0.22
0.412	0.15	353.55	0.22
0.477	0.15	353.15	0.22
0.578	0.15	353.35	0.22
0.658	0.15	353.65	0.22
0.742	0.15	354.15	0.22
0.794	0.15	354.45	0.22

System: ethanol + dimethyl carbonate + 1-hexyl-3-methylimidazolium bis[(trifluoromethyl)sulfonyl]imide; phases: Gas, Liquid
Fixed: Pressure, kPa = 101.3
Property: Mole fraction of ethanol (Gas); method: Chromatography
Mole fraction of ethanol	Mole fraction of 1-hexyl-3-methylimidazolium bis[(trifluoromethyl)sulfonyl]imide	Mole fraction of ethanol	uncertainty
0.082	0.05	0.232	0.004
0.189	0.05	0.403	0.005
0.301	0.05	0.506	0.005
0.393	0.05	0.567	0.005
0.488	0.05	0.625	0.004
0.589	0.05	0.671	0.004
0.677	0.05	0.73	0.004
0.762	0.05	0.788	0.004
0.849	0.05	0.868	0.003
0.893	0.05	0.919	0.004
0.07	0.1	0.218	0.005
0.154	0.1	0.38	0.005
0.244	0.1	0.481	0.005
0.347	0.1	0.559	0.005
0.471	0.1	0.639	0.004
0.542	0.1	0.687	0.004
0.621	0.1	0.74	0.004
0.704	0.1	0.802	0.003
0.789	0.1	0.875	0.003
0.833	0.1	0.92	0.003
0.049	0.15	0.185	0.006
0.115	0.15	0.345	0.005
0.204	0.15	0.465	0.005
0.303	0.15	0.548	0.005
0.412	0.15	0.632	0.004
0.477	0.15	0.686	0.004
0.578	0.15	0.754	0.004
0.658	0.15	0.818	0.003
0.742	0.15	0.887	0.003
0.794	0.15	0.94	0.003

System: ethanol + dimethyl carbonate + 1-hexyl-3-methylimidazolium bis[(trifluoromethyl)sulfonyl]imide; phases: Gas, Liquid
Fixed: Pressure, kPa = 101.3
Property: Mole fraction of 1-hexyl-3-methylimidazolium bis[(trifluoromethyl)sulfonyl]imide (Gas); method: Assumed that ionic liquid is non-volatile
Mole fraction of ethanol	Mole fraction of 1-hexyl-3-methylimidazolium bis[(trifluoromethyl)sulfonyl]imide	Mole fraction of 1-hexyl-3-methylimidazolium bis[(trifluoromethyl)sulfonyl]imide	uncertainty
0.082	0.05	0	
0.189	0.05	0	
0.301	0.05	0	
0.393	0.05	0	
0.488	0.05	0	
0.589	0.05	0	
0.677	0.05	0	
0.762	0.05	0	
0.849	0.05	0	
0.893	0.05	0	
0.07	0.1	0	
0.154	0.1	0	
0.244	0.1	0	
0.347	0.1	0	
0.471	0.1	0	
0.542	0.1	0	
0.621	0.1	0	
0.704	0.1	0	
0.789	0.1	0	
0.833	0.1	0	
0.049	0.15	0	
0.115	0.15	0	
0.204	0.15	0	
0.303	0.15	0	
0.412	0.15	0	
0.477	0.15	0	
0.578	0.15	0	
0.658	0.15	0	
0.742	0.15	0	
0.794	0.15	0	

System: ethanol + dimethyl carbonate + 1-butyl-3-methylimidazolium bis(trifluoromethylsulfonyl)imide; phases: Liquid, Gas
Fixed: Pressure, kPa = 101.3
Property: Boiling temperature at pressure P, K (Liquid); method: Ebulliometric method (Recirculating still)
Mole fraction of ethanol	Mole fraction of 1-butyl-3-methylimidazolium bis(trifluoromethylsulfonyl)imide	Boiling temperature at pressure P, K	uncertainty
0.069	0.05	358.85	0.23
0.169	0.05	355.15	0.22
0.295	0.05	352.65	0.22
0.394	0.05	351.45	0.22
0.491	0.05	350.75	0.22
0.582	0.05	350.35	0.22
0.676	0.05	350.25	0.22
0.76	0.05	350.45	0.22
0.85	0.05	350.85	0.22
0.896	0.05	351.55	0.22
0.057	0.1	359.95	0.23
0.127	0.1	357.15	0.23
0.269	0.1	353.95	0.22
0.35	0.1	352.55	0.22
0.456	0.1	351.55	0.22
0.541	0.1	351.25	0.22
0.633	0.1	351.25	0.22
0.715	0.1	351.45	0.22
0.805	0.1	352.15	0.22
0.848	0.1	352.75	0.22
0.042	0.15	361.55	0.24
0.11	0.15	358.15	0.23
0.24	0.15	354.35	0.22
0.323	0.15	352.95	0.22
0.416	0.15	352.15	0.22
0.509	0.15	351.85	0.22
0.591	0.15	351.85	0.22
0.674	0.15	352.25	0.22
0.755	0.15	352.95	0.22
0.795	0.15	353.35	0.22

System: ethanol + dimethyl carbonate + 1-butyl-3-methylimidazolium bis(trifluoromethylsulfonyl)imide; phases: Gas, Liquid
Fixed: Pressure, kPa = 101.3
Property: Mole fraction of ethanol (Gas); method: Chromatography
Mole fraction of ethanol	Mole fraction of 1-butyl-3-methylimidazolium bis(trifluoromethylsulfonyl)imide	Mole fraction of ethanol	uncertainty
0.069	0.05	0.207	0.004
0.169	0.05	0.376	0.005
0.295	0.05	0.501	0.005
0.394	0.05	0.567	0.005
0.491	0.05	0.618	0.004
0.582	0.05	0.668	0.004
0.676	0.05	0.727	0.004
0.76	0.05	0.79	0.003
0.85	0.05	0.867	0.003
0.896	0.05	0.922	0.004
0.057	0.1	0.192	0.005
0.127	0.1	0.33	0.005
0.269	0.1	0.502	0.005
0.35	0.1	0.563	0.005
0.456	0.1	0.631	0.004
0.541	0.1	0.683	0.004
0.633	0.1	0.743	0.004
0.715	0.1	0.809	0.003
0.805	0.1	0.882	0.003
0.848	0.1	0.932	0.003
0.042	0.15	0.167	0.005
0.11	0.15	0.331	0.005
0.24	0.15	0.501	0.005
0.323	0.15	0.566	0.005
0.416	0.15	0.629	0.004
0.509	0.15	0.704	0.004
0.591	0.15	0.761	0.004
0.674	0.15	0.83	0.003
0.755	0.15	0.897	0.003
0.795	0.15	0.938	0.003

System: ethanol + dimethyl carbonate + 1-butyl-3-methylimidazolium bis(trifluoromethylsulfonyl)imide; phases: Gas, Liquid
Fixed: Pressure, kPa = 101.3
Property: Mole fraction of 1-butyl-3-methylimidazolium bis(trifluoromethylsulfonyl)imide (Gas); method: Assumed that ionic liquid is non-volatile
Mole fraction of ethanol	Mole fraction of 1-butyl-3-methylimidazolium bis(trifluoromethylsulfonyl)imide	Mole fraction of 1-butyl-3-methylimidazolium bis(trifluoromethylsulfonyl)imide	uncertainty
0.069	0.05	0	
0.169	0.05	0	
0.295	0.05	0	
0.394	0.05	0	
0.491	0.05	0	
0.582	0.05	0	
0.676	0.05	0	
0.76	0.05	0	
0.85	0.05	0	
0.896	0.05	0	
0.057	0.1	0	
0.127	0.1	0	
0.269	0.1	0	
0.35	0.1	0	
0.456	0.1	0	
0.541	0.1	0	
0.633	0.1	0	
0.715	0.1	0	
0.805	0.1	0	
0.848	0.1	0	
0.042	0.15	0	
0.11	0.15	0	
0.24	0.15	0	
0.323	0.15	0	
0.416	0.15	0	
0.509	0.15	0	
0.591	0.15	0	
0.674	0.15	0	
0.755	0.15	0	
0.795	0.15	0	
