Measured thermophysical data. Solubility of glycine in binary system of ethanol + water solvent mixtures: Experimental data and  thermodynamic modeling
Source: Fluid Phase Equilib., 2013, 10.1016/j.fluid.2013.09.013
Compound 1: 2-aminoacetic acid, C2H5NO2, InChI=1S/C2H5NO2/c3-1-2(4)5/h1,3H2,(H,4,5)
Compound 2: ethanol, C2H6O, InChI=1S/C2H6O/c1-2-3/h3H,2H2,1H3
Compound 3: water, H2O, InChI=1S/H2O/h1H2

System: 2-aminoacetic acid + ethanol + water; phases: Liquid, Crystal
Fixed: Pressure, kPa = 101
Property: Mole fraction of 2-aminoacetic acid (Liquid); method: Mass after drying
Temperature, K	Solvent: Mass fraction of ethanol	Mole fraction of 2-aminoacetic acid	uncertainty
278.15	0	0.0381	0.0005
283.15	0	0.0421	0.0006
288.15	0	0.0472	0.0006
293.15	0	0.0515	0.0007
298.15	0	0.0567	0.0008
303.15	0	0.0617	0.0008
308.15	0	0.0679	0.0009
313.15	0	0.0731	0.001
318.15	0	0.0786	0.0011
323.15	0	0.0851	0.0012
328.15	0	0.0919	0.0013
278.15	0.0806	0.0231	0.0003
283.15	0.0806	0.0257	0.0003
288.15	0.0806	0.0286	0.0004
293.15	0.0806	0.0321	0.0004
298.15	0.0806	0.0354	0.0004
303.15	0.0806	0.0388	0.0005
308.15	0.0806	0.0427	0.0005
313.15	0.0806	0.0465	0.0006
318.15	0.0806	0.0506	0.0006
323.15	0.0806	0.0551	0.0007
328.15	0.0806	0.0605	0.0008
278.15	0.2527	0.009	0.0001
283.15	0.2527	0.0105	0.0001
288.15	0.2527	0.0121	0.0001
293.15	0.2527	0.014	0.0002
298.15	0.2527	0.0159	0.0002
303.15	0.2527	0.0184	0.0002
308.15	0.2527	0.0211	0.0002
313.15	0.2527	0.0242	0.0003
318.15	0.2527	0.0275	0.0003
323.15	0.2527	0.0318	0.0004
328.15	0.2527	0.0376	0.0005
278.15	0.3447	0.006	0.0001
283.15	0.3447	0.007	0.0001
288.15	0.3447	0.0082	0.0001
293.15	0.3447	0.0095	0.0001
298.15	0.3447	0.0113	0.0001
303.15	0.3447	0.0134	0.0002
308.15	0.3447	0.0158	0.0002
313.15	0.3447	0.019	0.0002
318.15	0.3447	0.0225	0.0002
323.15	0.3447	0.0268	0.0003
328.15	0.3447	0.0331	0.0004
278.15	0.542	0.0027	0.0001
283.15	0.542	0.003	0.0001
288.15	0.542	0.0037	0.0001
293.15	0.542	0.0039	0.0001
298.15	0.542	0.0048	0.0001
303.15	0.542	0.0056	0.0001
308.15	0.542	0.007	0.0001
313.15	0.542	0.0083	0.0001
318.15	0.542	0.0097	0.0001
323.15	0.542	0.0118	0.0001
328.15	0.542	0.0143	0.0001
278.15	0.648	0.0015	0.0001
283.15	0.648	0.0017	0.0001
288.15	0.648	0.0019	0.0001
293.15	0.648	0.0021	0.0001
298.15	0.648	0.0024	0.0001
303.15	0.648	0.0027	0.0001
308.15	0.648	0.0031	0.0001
313.15	0.648	0.0034	0.0001
318.15	0.648	0.004	0.0001
323.15	0.648	0.0046	0.0001
328.15	0.648	0.0053	0.0001
278.15	1	0.0003	0.0001
283.15	1	0.0003	0.0001
288.15	1	0.0004	0.0001
293.15	1	0.0005	0.0001
298.15	1	0.0007	0.0001
303.15	1	0.0009	0.0001
308.15	1	0.0011	0.0001
313.15	1	0.0015	0.0001
318.15	1	0.0019	0.0001
323.15	1	0.0023	0.0001
328.15	1	0.0028	0.0001

System: 2-aminoacetic acid + water; phases: Liquid, Crystal
Fixed: Pressure, kPa = 101
Property: Mole fraction of 2-aminoacetic acid (Liquid); method: Mass after drying
Temperature, K	Mole fraction of 2-aminoacetic acid	uncertainty
278.15	0.0381	0.0005
283.15	0.0421	0.0006
288.15	0.0472	0.0006
293.15	0.0515	0.0007
298.15	0.0567	0.0008
303.15	0.0617	0.0008
308.15	0.0679	0.0009
313.15	0.0731	0.001
318.15	0.0786	0.0011
323.15	0.0851	0.0012
328.15	0.0919	0.0013

System: 2-aminoacetic acid + ethanol; phases: Liquid, Crystal
Fixed: Pressure, kPa = 101
Property: Mole fraction of 2-aminoacetic acid (Liquid); method: Mass after drying
Temperature, K	Mole fraction of 2-aminoacetic acid	uncertainty
278.15	0.0003	0.0001
283.15	0.0003	0.0001
288.15	0.0004	0.0001
293.15	0.0005	0.0001
298.15	0.0007	0.0001
303.15	0.0009	0.0001
308.15	0.0011	0.0001
313.15	0.0015	0.0001
318.15	0.0019	0.0001
323.15	0.0023	0.0001
328.15	0.0028	0.0001
