Measured thermophysical data. (Liquid + liquid) equilibria of (water + propionic acid + methyl isoamyl ketone or diisobutyl ketone or ethyl isoamyl keton) at T = 298.2 K
Source: Fluid Phase Equilib., 2006, 10.1016/j.fluid.2006.10.004
Compound 1: water, H2O, InChI=1S/H2O/h1H2
Compound 2: propanoic acid, C3H6O2, InChI=1S/C3H6O2/c1-2-3(4)5/h2H2,1H3,(H,4,5), purity 99%
Compound 3: 5-methyl-2-hexanone, C7H14O, InChI=1S/C7H14O/c1-6(2)4-5-7(3)8/h6H,4-5H2,1-3H3, purity 99%
Compound 4: 2,6-dimethyl-4-heptanone, C9H18O, InChI=1S/C9H18O/c1-7(2)5-9(10)6-8(3)4/h7-8H,5-6H2,1-4H3, purity 99%
Compound 5: 6-methyl-3-heptanone, C8H16O, InChI=1S/C8H16O/c1-4-8(9)6-5-7(2)3/h7H,4-6H2,1-3H3, purity 99%

System: propanoic acid; phases: Liquid
Property: Refractive index (Na D-line) (Liquid); method: Standard Abbe refractometry
Temperature, K	Pressure, kPa	Refractive index (Na D-line)	uncertainty
293.15	101.325	1.3811	0.0008

System: propanoic acid; phases: Liquid
Property: Mass density, kg/m3 (Liquid); method: VIBTUB:UFactor:8
Temperature, K	Pressure, kPa	Mass density, kg/m3	uncertainty
293.15	101.325	992.7	0.6

System: 5-methyl-2-hexanone; phases: Liquid
Property: Refractive index (Na D-line) (Liquid); method: Standard Abbe refractometry
Temperature, K	Pressure, kPa	Refractive index (Na D-line)	uncertainty
293.15	101.325	1.4074	0.0008

System: 5-methyl-2-hexanone; phases: Liquid
Property: Mass density, kg/m3 (Liquid); method: VIBTUB:UFactor:8
Temperature, K	Pressure, kPa	Mass density, kg/m3	uncertainty
293.15	101.325	887.5	1

System: 2,6-dimethyl-4-heptanone; phases: Liquid
Property: Refractive index (Na D-line) (Liquid); method: Standard Abbe refractometry
Temperature, K	Pressure, kPa	Refractive index (Na D-line)	uncertainty
293.15	101.325	1.4155	0.0008

System: 2,6-dimethyl-4-heptanone; phases: Liquid
Property: Mass density, kg/m3 (Liquid); method: VIBTUB:UFactor:8
Temperature, K	Pressure, kPa	Mass density, kg/m3	uncertainty
293.15	101.325	804.8	1.3

System: 6-methyl-3-heptanone; phases: Liquid
Property: Refractive index (Na D-line) (Liquid); method: Standard Abbe refractometry
Temperature, K	Pressure, kPa	Refractive index (Na D-line)	uncertainty
293.15	101.325	1.4194	0.0008

System: 6-methyl-3-heptanone; phases: Liquid
Property: Mass density, kg/m3 (Liquid); method: VIBTUB:UFactor:8
Temperature, K	Pressure, kPa	Mass density, kg/m3	uncertainty
293.15	101.325	822.7	1.2

System: propanoic acid + 5-methyl-2-hexanone + water; phases: Liquid mixture 2, Liquid mixture 1
Fixed: Temperature, K = 298.2
Fixed: Pressure, kPa = 101
Property: Mole fraction of propanoic acid (Liquid mixture 2); method: CHROM:UFactor:8
Property: Mole fraction of water (Liquid mixture 1); method: CHROM:UFactor:8
Property: Mole fraction of propanoic acid (Liquid mixture 1); method: CHROM:UFactor:8
Mole fraction of water	Mole fraction of propanoic acid	uncertainty	Mole fraction of water	uncertainty	Mole fraction of propanoic acid	uncertainty
0.0236	0	0.0001	0.9972	0.0002	0	
0.1395	0.2024	0.0162	0.9808	0.0015	0.0179	
0.2795	0.2844	0.0228	0.9612	0.0031	0.0384	
0.4287	0.3051	0.0244	0.9423	0.0046	0.0575	
0.5479	0.291	0.0233	0.9199	0.0064	0.0792	
0.6407	0.2665	0.0213	0.9068	0.0075	0.0928	

System: propanoic acid + 2,6-dimethyl-4-heptanone + water; phases: Liquid mixture 1, Liquid mixture 2
Fixed: Pressure, kPa = 101
Fixed: Temperature, K = 298.2
Property: Mole fraction of propanoic acid (Liquid mixture 1); method: CHROM:UFactor:16
Property: Mole fraction of propanoic acid (Liquid mixture 2); method: CHROM:UFactor:16
Property: Mole fraction of water (Liquid mixture 2); method: CHROM:UFactor:16
Mole fraction of water	Mole fraction of propanoic acid	uncertainty	Mole fraction of propanoic acid	uncertainty	Mole fraction of water	uncertainty
0.9997	0	0.0001	0	0.0001	0.0063	
0.9722	0.0257	0.0041	0.1765	0.0282	0.1516	
0.9499	0.0485	0.0078	0.3308	0.0529	0.1756	
0.9215	0.0778	0.0124	0.4082	0.0653	0.2652	
0.879	0.1209	0.0193	0.3967	0.0635	0.3962	
0.8238	0.1739	0.0278	0.3464	0.0554	0.5417	

System: propanoic acid + 6-methyl-3-heptanone + water; phases: Liquid mixture 1, Liquid mixture 2
Fixed: Temperature, K = 298.2
Fixed: Pressure, kPa = 101
Property: Mole fraction of propanoic acid (Liquid mixture 1); method: CHROM:UFactor:8
Property: Mole fraction of propanoic acid (Liquid mixture 2); method: CHROM:UFactor:8
Property: Mole fraction of water (Liquid mixture 2); method: CHROM:UFactor:8
Mole fraction of water	Mole fraction of propanoic acid	uncertainty	Mole fraction of propanoic acid	uncertainty	Mole fraction of water	uncertainty
0.9994	0	0.0001	0	0.0001	0.0432	
0.9768	0.023	0.0018	0.1779	0.0142	0.0754	
0.9583	0.0416	0.0033	0.3	0.024	0.1666	
0.9337	0.0654	0.0052	0.3594	0.0288	0.3087	
0.8953	0.1009	0.0081	0.3519	0.0282	0.4564	

System: 5-methyl-2-hexanone + water; phases: Liquid mixture 2, Liquid mixture 1
Property: Mole fraction of water (Liquid mixture 2); method: CHROM:UFactor:8
Temperature, K	Pressure, kPa	Mole fraction of water	uncertainty
298.2	101	0.0236	

System: 5-methyl-2-hexanone + water; phases: Liquid mixture 1, Liquid mixture 2
Property: Mole fraction of water (Liquid mixture 1); method: CHROM:UFactor:8
Temperature, K	Pressure, kPa	Mole fraction of water	uncertainty
298.2	101	0.9972	0.0002

System: 2,6-dimethyl-4-heptanone + water; phases: Liquid mixture 1, Liquid mixture 2
Property: Mole fraction of water (Liquid mixture 1); method: CHROM:UFactor:16
Pressure, kPa	Temperature, K	Mole fraction of water	uncertainty
101	298.2	0.9997	

System: 2,6-dimethyl-4-heptanone + water; phases: Liquid mixture 2, Liquid mixture 1
Property: Mole fraction of water (Liquid mixture 2); method: CHROM:UFactor:16
Temperature, K	Pressure, kPa	Mole fraction of water	uncertainty
298.2	101	0.0063	

System: 6-methyl-3-heptanone + water; phases: Liquid mixture 1, Liquid mixture 2
Property: Mole fraction of water (Liquid mixture 1); method: CHROM:UFactor:8
Temperature, K	Pressure, kPa	Mole fraction of water	uncertainty
298.2	101	0.9994	

System: 6-methyl-3-heptanone + water; phases: Liquid mixture 2, Liquid mixture 1
Property: Mole fraction of water (Liquid mixture 2); method: CHROM:UFactor:8
Temperature, K	Pressure, kPa	Mole fraction of water	uncertainty
298.2	101	0.0432	
