Measured thermophysical data. Diffusion coefficients of 2-fluoroanisole, 2-bromoanisole, allylbenzene and 1,3-divinylbenzene at infinite dilution in supercritical carbon dioxide
Source: Fluid Phase Equilib., 2007, 10.1016/j.fluid.2007.07.039
Compound 1: 2-fluoroanisole, C7H7FO, InChI=1S/C7H7FO/c1-9-7-5-3-2-4-6(7)8/h2-5H,1H3
Compound 2: 1-bromo-2-methoxybenzene, C7H7BrO, InChI=1S/C7H7BrO/c1-9-7-5-3-2-4-6(7)8/h2-5H,1H3
Compound 3: 2-propenylbenzene, C9H10, InChI=1S/C9H10/c1-2-6-9-7-4-3-5-8-9/h2-5,7-8H,1,6H2
Compound 4: 1,3-diethenylbenzene, C10H10, InChI=1S/C10H10/c1-3-9-6-5-7-10(4-2)8-9/h3-8H,1-2H2
Compound 5: carbon dioxide, CO2, InChI=1S/CO2/c2-1-3

System: carbon dioxide + 2-fluoroanisole; phases: Liquid
Fixed: Mole fraction of 2-fluoroanisole = 0
Property: Binary diffusion coefficient, m2/s (Liquid); method: Taylor dispersion method
Pressure, kPa	Temperature, K	Binary diffusion coefficient, m2/s	uncertainty
15000	313.16	1.02e-08	0.31
15000	323.16	1.247e-08	0.33
15000	333.16	1.43e-08	0.35
20000	313.16	9.27e-09	0.22
20000	323.16	1.047e-08	0.27
20000	333.16	1.226e-08	0.33
25000	313.16	8.69e-09	0.22
25000	323.16	9.89e-09	0.24
25000	333.16	1.097e-08	0.26
30000	313.16	8.01e-09	0.2
30000	323.16	9.14e-09	0.23
30000	333.16	1.033e-08	0.25
35000	313.16	7.68e-09	0.19
35000	323.16	8.65e-09	0.21
35000	333.16	9.67e-09	0.23

System: carbon dioxide + 1-bromo-2-methoxybenzene; phases: Liquid
Fixed: Mole fraction of 1-bromo-2-methoxybenzene = 0
Property: Binary diffusion coefficient, m2/s (Liquid); method: Taylor dispersion method
Pressure, kPa	Temperature, K	Binary diffusion coefficient, m2/s	uncertainty
15000	313.16	9.46e-09	0.29
15000	323.16	1.152e-08	0.29
15000	333.16	1.276e-08	0.29
20000	313.16	8.66e-09	0.23
20000	323.16	1.015e-08	0.27
20000	333.16	1.19e-08	0.3
25000	313.16	7.92e-09	0.2
25000	323.16	9.08e-09	0.24
25000	333.16	1.064e-08	0.27
30000	313.16	7.48e-09	0.19
30000	323.16	8.52e-09	0.21
30000	333.16	9.45e-09	0.23
35000	313.16	7.15e-09	0.17
35000	323.16	7.98e-09	0.19
35000	333.16	8.98e-09	0.21

System: carbon dioxide + 2-propenylbenzene; phases: Liquid
Fixed: Mole fraction of 2-propenylbenzene = 0
Property: Binary diffusion coefficient, m2/s (Liquid); method: Taylor dispersion method
Pressure, kPa	Temperature, K	Binary diffusion coefficient, m2/s	uncertainty
15000	313.16	1.029e-08	0.29
15000	323.16	1.225e-08	0.32
15000	333.16	1.411e-08	0.35
20000	313.16	9.11e-09	0.26
20000	323.16	1.115e-08	0.28
20000	333.16	1.222e-08	0.29
25000	313.16	8.93e-09	0.23
25000	323.16	1.002e-08	0.25
25000	333.16	1.146e-08	0.28
30000	313.16	8.29e-09	0.21
30000	323.16	9.35e-09	0.23
30000	333.16	1.051e-08	0.25
35000	313.16	7.67e-09	0.21
35000	323.16	9.01e-09	0.22
35000	333.16	9.87e-09	0.22

System: 1,3-diethenylbenzene + carbon dioxide; phases: Liquid
Fixed: Mole fraction of 1,3-diethenylbenzene = 0
Property: Binary diffusion coefficient, m2/s (Liquid); method: Taylor dispersion method
Pressure, kPa	Temperature, K	Binary diffusion coefficient, m2/s	uncertainty
15000	313.16	1.026e-08	0.33
15000	323.16	1.279e-08	0.36
15000	333.16	1.511e-08	0.39
20000	313.16	9.44e-09	0.23
20000	323.16	1.056e-08	0.26
20000	333.16	1.207e-08	0.33
25000	313.16	8.69e-09	0.21
25000	323.16	9.71e-09	0.24
25000	333.16	1.111e-08	0.27
30000	313.16	8.07e-09	0.19
30000	323.16	8.94e-09	0.21
30000	333.16	9.95e-09	0.24
35000	313.16	7.69e-09	0.18
35000	323.16	8.54e-09	0.2
35000	333.16	9.47e-09	0.22
