Measured thermophysical data. Density, excess molar volume, and COSMO-RS study of reactive aqueous solutions containing formaldehyde
Source: Fluid Phase Equilib., 2018, 10.1016/j.fluid.2018.07.015
Compound 1: methanal, CH2O, InChI=1S/CH2O/c1-2/h1H2, purity 99.5%
Compound 2: methanol, CH4O, InChI=1S/CH4O/c1-2/h2H,1H3, purity 99.99%
Compound 3: water, H2O, InChI=1S/H2O/h1H2

System: methanal + water; phases: Liquid
Fixed: Pressure, kPa = 101
Property: Mass density, kg/m3 (Liquid); method: Vibrating tube method
Temperature, K	Mole fraction of methanal	Mass density, kg/m3	uncertainty
291.15	0.05456	1025.9	1
291.15	0.09849	1045.9	1
291.15	0.1544	1070.2	1.1
291.15	0.2019	1091.8	1.1
291.15	0.2573	1112.8	1.2
298.15	0.0545	1024.6	1
298.15	0.09849	1044.7	1
298.15	0.1544	1069.9	1.1
298.15	0.2019	1089.4	1.1
298.15	0.2573	1111.3	1.2
313.15	0.0545	1019.6	1
313.15	0.09849	1039.7	1
313.15	0.1544	1066.9	1.1
313.15	0.2019	1086.8	1.1
313.15	0.2573	1109.9	1.2

System: methanal + methanol + water; phases: Liquid
Fixed: Pressure, kPa = 101
Property: Mass density, kg/m3 (Liquid); method: Vibrating tube method
Temperature, K	Mole fraction of methanal	Mole fraction of methanol	Mass density, kg/m3	uncertainty
291.15	0.09154	0.6443	831.8	1.2
291.15	0.1572	0.3889	907.3	1.8
291.15	0.1943	0.2451	965.3	2.5
291.15	0.2246	0.1272	1025.3	2.9
298.15	0.09154	0.6443	830.9	1.2
298.15	0.1572	0.3889	906.2	1.8
298.15	0.1943	0.2451	964.1	2.5
298.15	0.2246	0.1272	1023.5	2.9
313.15	0.09154	0.6443	830.48	1.2
313.15	0.1572	0.3889	905.7	1.8
313.15	0.1943	0.2451	963.5	2.5
313.15	0.2246	0.1272	1022.8	2.8
