Measured thermophysical data. Isothermal vapor-liquid equilibria and excess enthalpies of binary mixtures of propyl ethanoate + 1-hexyne, +2-hexyne, +3-hexyne
Source: Fluid Phase Equilib., 2011, 10.1016/j.fluid.2010.10.022
Compound 1: propyl ethanoate, C5H10O2, InChI=1S/C5H10O2/c1-3-4-7-5(2)6/h3-4H2,1-2H3, purity 99%
Compound 2: 1-hexyne, C6H10, InChI=1S/C6H10/c1-3-5-6-4-2/h1H,4-6H2,2H3, purity 99%
Compound 3: 2-hexyne, C6H10, InChI=1S/C6H10/c1-3-5-6-4-2/h3,5H2,1-2H3, purity 99%
Compound 4: 3-hexyne, C6H10, InChI=1S/C6H10/c1-3-5-6-4-2/h3-4H2,1-2H3, purity 99%

System: propyl ethanoate + 1-hexyne; phases: Liquid
Fixed: Temperature, K = 298.15
Fixed: Pressure, kPa = 101
Property: Excess molar enthalpy (molar enthalpy of mixing), kJ/mol (Liquid); method: Flow calorimetry
Mole fraction of propyl ethanoate	Excess molar enthalpy (molar enthalpy of mixing), kJ/mol	uncertainty
0.1079	-0.1274	0.0101
0.1967	-0.1994	0.0102
0.3032	-0.2542	0.0103
0.395	-0.276	0.0103
0.4373	-0.2778	0.0104
0.5003	-0.2738	0.0103
0.595	-0.2532	0.0103
0.6575	-0.2315	0.0103
0.6989	-0.2138	0.0102
0.7967	-0.159	0.0102
0.8992	-0.0857	0.0101

System: propyl ethanoate + 1-hexyne; phases: Liquid, Gas
Property: Vapor or sublimation pressure, kPa (Liquid); method: Closed cell (Static) method
Mole fraction of propyl ethanoate	Temperature, K	Vapor or sublimation pressure, kPa	uncertainty
0	273.15	4.9084	0.033
0	283.15	8.4224	0.0457
0	293.15	13.8089	0.0656
0	298.15	17.4128	0.0793
0	303.15	21.7522	0.096
0	313.15	33.0749	0.1379
0	323.15	48.7383	0.1964
0	333.15	69.8379	0.2751
0	343.15	97.5959	0.3784
0	353.15	133.349	0.5113
0	363.15	178.534	0.6775
0.151	273.15	4.3099	0.0308
0.151	283.15	7.4303	0.0421
0.151	293.15	12.238	0.0598
0.151	298.15	15.4662	0.0722
0.151	303.15	19.3628	0.0872
0.151	313.15	29.567	0.1251
0.151	323.15	43.7472	0.1782
0.151	333.15	62.9324	0.2499
0.151	343.15	88.2773	0.3445
0.151	353.15	121.0529	0.4666
0.151	363.15	162.6337	0.6199
0.2671	273.15	3.8522	0.0291
0.2671	283.15	6.661	0.0393
0.2671	293.15	11.0057	0.0552
0.2671	298.15	13.9316	0.0664
0.2671	303.15	17.4704	0.0801
0.2671	313.15	26.767	0.1146
0.2671	323.15	39.7383	0.1633
0.2671	333.15	57.3582	0.2292
0.2671	343.15	80.7271	0.3165
0.2671	353.15	111.0644	0.4296
0.2671	363.15	149.6972	0.5721
0.3758	273.15	3.4064	0.0274
0.3758	283.15	5.9237	0.0365
0.3758	293.15	9.8384	0.0509
0.3758	298.15	12.4843	0.061
0.3758	303.15	15.6918	0.0734
0.3758	313.15	24.1469	0.1049
0.3758	323.15	35.9928	0.1493
0.3758	333.15	52.1453	0.2098
0.3758	343.15	73.6434	0.2902
0.3758	353.15	101.6434	0.3947
0.3758	363.15	137.4086	0.5266
0.5278	273.15	2.7788	0.0251
0.5278	283.15	4.8843	0.0327
0.5278	293.15	8.1936	0.0448
0.5278	298.15	10.4468	0.0534
0.5278	303.15	13.1916	0.064
0.5278	313.15	20.4795	0.0911
0.5278	323.15	30.7807	0.1298
0.5278	333.15	44.9443	0.1829
0.5278	343.15	63.9442	0.254
0.5278	353.15	88.8745	0.3472
0.5278	363.15	120.9427	0.4656
0.6405	273.15	2.334	0.0235
0.6405	283.15	4.1485	0.03
0.6405	293.15	7.029	0.0405
0.6405	298.15	9.0032	0.0481
0.6405	303.15	11.4184	0.0574
0.6405	313.15	17.8704	0.0814
0.6405	323.15	27.0565	0.116
0.6405	333.15	39.7704	0.1637
0.6405	343.15	56.9279	0.228
0.6405	353.15	79.5646	0.3127
0.6405	363.15	108.8291	0.4208
0.7766	273.15	1.8113	0.0217
0.7766	283.15	3.274	0.0269
0.7766	293.15	5.6336	0.0354
0.7766	298.15	7.2673	0.0416
0.7766	303.15	9.2796	0.0494
0.7766	313.15	14.7079	0.0697
0.7766	323.15	22.5277	0.0992
0.7766	333.15	33.4673	0.1403
0.7766	343.15	48.3769	0.1963
0.7766	353.15	68.2278	0.2707
0.7766	363.15	94.1081	0.3664
0.9044	273.15	1.3387	0.02
0.9044	283.15	2.4756	0.024
0.9044	293.15	4.3475	0.0308
0.9044	298.15	5.662	0.0358
0.9044	303.15	7.2958	0.0421
0.9044	313.15	11.7618	0.0587
0.9044	323.15	18.2975	0.0834
0.9044	333.15	27.5741	0.1185
0.9044	343.15	40.3867	0.1667
0.9044	353.15	57.6568	0.2315
0.9044	363.15	80.4305	0.3159
1	273.15	1.0061	0.0178
1	283.15	1.9091	0.0219
1	293.15	3.43	0.0272
1	298.15	4.514	0.0312
1	303.15	5.8745	0.0364
1	313.15	9.645	0.0502
1	323.15	15.2537	0.0711
1	333.15	23.3323	0.1013
1	343.15	34.6401	0.1435
1	353.15	50.0674	0.2011
1	363.15	70.6374	0.2767

System: propyl ethanoate + 1-hexyne; phases: Gas, Liquid
Property: Mole fraction of propyl ethanoate (Gas); method: Chromatography
Mole fraction of propyl ethanoate	Temperature, K	Mole fraction of propyl ethanoate	uncertainty
0	273.15	0	
0	283.15	0	
0	293.15	0	
0	298.15	0	
0	303.15	0	
0	313.15	0	
0	323.15	0	
0	333.15	0	
0	343.15	0	
0	353.15	0	
0	363.15	0	
0.151	273.15	0.0334	0.0005
0.151	283.15	0.0374	0.0005
0.151	293.15	0.0414	0.0005
0.151	298.15	0.0435	0.0006
0.151	303.15	0.0455	0.0006
0.151	313.15	0.0495	0.0006
0.151	323.15	0.0535	0.0006
0.151	333.15	0.0576	0.0007
0.151	343.15	0.0616	0.0007
0.151	353.15	0.0655	0.0007
0.151	363.15	0.0695	0.0007
0.2671	273.15	0.0665	0.0007
0.2671	283.15	0.074	0.0008
0.2671	293.15	0.0815	0.0008
0.2671	298.15	0.0852	0.0008
0.2671	303.15	0.0889	0.0009
0.2671	313.15	0.0962	0.0009
0.2671	323.15	0.1034	0.001
0.2671	333.15	0.1105	0.0011
0.2671	343.15	0.1175	0.0011
0.2671	353.15	0.1244	0.0012
0.2671	363.15	0.1312	0.0013
0.3758	273.15	0.1067	0.001
0.3758	283.15	0.1178	0.0011
0.3758	293.15	0.1287	0.0012
0.3758	298.15	0.134	0.0013
0.3758	303.15	0.1393	0.0013
0.3758	313.15	0.1498	0.0015
0.3758	323.15	0.16	0.0016
0.3758	333.15	0.17	0.0017
0.3758	343.15	0.1797	0.0018
0.3758	353.15	0.1893	0.0019
0.3758	363.15	0.1986	0.002
0.5278	273.15	0.1863	0.0018
0.5278	283.15	0.2025	0.002
0.5278	293.15	0.2182	0.0022
0.5278	298.15	0.2259	0.0023
0.5278	303.15	0.2334	0.0023
0.5278	313.15	0.2481	0.0025
0.5278	323.15	0.2623	0.0027
0.5278	333.15	0.2761	0.0028
0.5278	343.15	0.2893	0.003
0.5278	353.15	0.3022	0.0032
0.5278	363.15	0.3146	0.0033
0.6405	273.15	0.2727	0.0028
0.6405	283.15	0.2924	0.0031
0.6405	293.15	0.3113	0.0033
0.6405	298.15	0.3205	0.0034
0.6405	303.15	0.3294	0.0035
0.6405	313.15	0.3467	0.0037
0.6405	323.15	0.3633	0.004
0.6405	333.15	0.3792	0.0042
0.6405	343.15	0.3944	0.0044
0.6405	353.15	0.409	0.0046
0.6405	363.15	0.423	0.0048
0.7766	273.15	0.4305	0.005
0.7766	283.15	0.4527	0.0053
0.7766	293.15	0.4735	0.0056
0.7766	298.15	0.4834	0.0058
0.7766	303.15	0.4931	0.006
0.7766	313.15	0.5115	0.006
0.7766	323.15	0.5289	0.0059
0.7766	333.15	0.5454	0.0057
0.7766	343.15	0.5609	0.0056
0.7766	353.15	0.5758	0.0055
0.7766	363.15	0.5898	0.0054
0.9044	273.15	0.6787	0.0046
0.9044	283.15	0.6967	0.0044
0.9044	293.15	0.713	0.0042
0.9044	298.15	0.7207	0.0042
0.9044	303.15	0.728	0.0041
0.9044	313.15	0.7418	0.0039
0.9044	323.15	0.7546	0.0038
0.9044	333.15	0.7664	0.0036
0.9044	343.15	0.7774	0.0035
0.9044	353.15	0.7877	0.0033
0.9044	363.15	0.7973	0.0032
1	273.15	1	
1	283.15	1	
1	293.15	1	
1	298.15	1	
1	303.15	1	
1	313.15	1	
1	323.15	1	
1	333.15	1	
1	343.15	1	
1	353.15	1	
1	363.15	1	

System: propyl ethanoate + 2-hexyne; phases: Liquid
Fixed: Temperature, K = 298.15
Fixed: Pressure, kPa = 101
Property: Excess molar enthalpy (molar enthalpy of mixing), kJ/mol (Liquid); method: Flow calorimetry
Mole fraction of propyl ethanoate	Excess molar enthalpy (molar enthalpy of mixing), kJ/mol	uncertainty
0.1094	0.0445	0.0101
0.204	0.0726	0.0101
0.3153	0.092	0.0101
0.4179	0.104	0.0101
0.5044	0.1024	0.0101
0.5938	0.0899	0.0101
0.7075	0.0657	0.0101
0.7983	0.045	0.0101
0.8927	0.027	0.01

System: propyl ethanoate + 2-hexyne; phases: Liquid, Gas
Property: Vapor or sublimation pressure, kPa (Liquid); method: Closed cell (Static) method
Mole fraction of propyl ethanoate	Temperature, K	Vapor or sublimation pressure, kPa	uncertainty
0	273.15	2.6018	0.0245
0	283.15	4.6442	0.0317
0	293.15	7.8843	0.0435
0	298.15	10.1016	0.0519
0	303.15	12.8101	0.0623
0	313.15	20.0242	0.089
0	323.15	30.2481	0.1272
0	333.15	44.3227	0.1797
0	343.15	63.2049	0.2501
0	353.15	87.9602	0.3422
0	363.15	119.7537	0.4591
0.3284	273.15	2.1428	0.0228
0.3284	283.15	3.8352	0.0288
0.3284	293.15	6.5496	0.0386
0.3284	298.15	8.4245	0.0457
0.3284	303.15	10.7311	0.0546
0.3284	313.15	16.9468	0.0775
0.3284	323.15	25.8979	0.1111
0.3284	333.15	38.4294	0.1579
0.3284	343.15	55.5351	0.2218
0.3284	353.15	78.3604	0.3069
0.3284	363.15	108.2002	0.4165
0.4559	273.15	1.964	0.0222
0.4559	283.15	3.5318	0.0277
0.4559	293.15	6.0574	0.0368
0.4559	298.15	7.807	0.0434
0.4559	303.15	9.9634	0.0517
0.4559	313.15	15.7904	0.0733
0.4559	323.15	24.2094	0.1048
0.4559	333.15	36.0314	0.149
0.4559	343.15	52.2136	0.2095
0.4559	353.15	73.8618	0.2903
0.4559	363.15	102.2302	0.3946
0.6291	273.15	1.6903	0.0212
0.6291	283.15	3.072	0.026
0.6291	293.15	5.3163	0.0341
0.6291	298.15	6.879	0.04
0.6291	303.15	8.8112	0.0474
0.6291	313.15	14.0551	0.0668
0.6291	323.15	21.6682	0.0953
0.6291	333.15	32.4018	0.1354
0.6291	343.15	47.1438	0.1906
0.6291	353.15	66.9209	0.2644
0.6291	363.15	92.8978	0.3601
0.742	273.15	1.5061	0.0205
0.742	283.15	2.7577	0.0249
0.742	293.15	4.8043	0.0322
0.742	298.15	6.2356	0.0376
0.742	303.15	8.0103	0.0444
0.742	313.15	12.8463	0.0623
0.742	323.15	19.9013	0.0887
0.742	333.15	29.8915	0.1261
0.742	343.15	43.667	0.1777
0.742	353.15	62.2146	0.247
0.742	363.15	86.6578	0.337
0.8435	273.15	1.3136	0.0199
0.8435	283.15	2.4303	0.0238
0.8435	293.15	4.2731	0.0303
0.8435	298.15	5.5697	0.0352
0.8435	303.15	7.1836	0.0414
0.8435	313.15	11.606	0.0577
0.8435	323.15	18.1	0.0821
0.8435	333.15	27.3504	0.1168
0.8435	343.15	40.1743	0.1648
0.8435	353.15	57.525	0.2297
0.8435	363.15	80.4925	0.3143
1	273.15	1.0061	0.0178
1	283.15	1.9091	0.0219
1	293.15	3.43	0.0272
1	298.15	4.514	0.0312
1	303.15	5.8745	0.0364
1	313.15	9.6451	0.0502
1	323.15	15.2537	0.0711
1	333.15	23.3324	0.1013
1	343.15	34.6401	0.1435
1	353.15	50.0675	0.2011
1	363.15	70.6375	0.2767

System: propyl ethanoate + 2-hexyne; phases: Gas, Liquid
Property: Mole fraction of propyl ethanoate (Gas); method: Chromatography
Mole fraction of propyl ethanoate	Temperature, K	Mole fraction of propyl ethanoate	uncertainty
0	273.15	0	
0	283.15	0	
0	293.15	0	
0	298.15	0	
0	303.15	0	
0	313.15	0	
0	323.15	0	
0	333.15	0	
0	343.15	0	
0	353.15	0	
0	363.15	0	
0.3284	273.15	0.1683	0.0016
0.3284	283.15	0.1783	0.0017
0.3284	293.15	0.1873	0.0018
0.3284	298.15	0.1915	0.0019
0.3284	303.15	0.1954	0.0019
0.3284	313.15	0.2028	0.002
0.3284	323.15	0.2096	0.0021
0.3284	333.15	0.2158	0.0021
0.3284	343.15	0.2215	0.0022
0.3284	353.15	0.2269	0.0023
0.3284	363.15	0.2319	0.0023
0.4559	273.15	0.2477	0.0025
0.4559	283.15	0.2614	0.0027
0.4559	293.15	0.2736	0.0028
0.4559	298.15	0.2793	0.0029
0.4559	303.15	0.2846	0.0029
0.4559	313.15	0.2944	0.0031
0.4559	323.15	0.3033	0.0032
0.4559	333.15	0.3112	0.0033
0.4559	343.15	0.3184	0.0034
0.4559	353.15	0.3249	0.0035
0.4559	363.15	0.3308	0.0035
0.6291	273.15	0.3815	0.0042
0.6291	283.15	0.3983	0.0045
0.6291	293.15	0.4136	0.0047
0.6291	298.15	0.4207	0.0048
0.6291	303.15	0.4274	0.0049
0.6291	313.15	0.4401	0.0051
0.6291	323.15	0.4517	0.0053
0.6291	333.15	0.4623	0.0054
0.6291	343.15	0.4721	0.0056
0.6291	353.15	0.4812	0.0057
0.6291	363.15	0.4897	0.0059
0.742	273.15	0.4998	0.0061
0.742	283.15	0.5176	0.0059
0.742	293.15	0.5336	0.0058
0.742	298.15	0.541	0.0058
0.742	303.15	0.5481	0.0057
0.742	313.15	0.5613	0.0056
0.742	323.15	0.5734	0.0055
0.742	333.15	0.5847	0.0054
0.742	343.15	0.5951	0.0053
0.742	353.15	0.6048	0.0052
0.742	363.15	0.6139	0.0052
0.8435	273.15	0.6459	0.0049
0.8435	283.15	0.6624	0.0047
0.8435	293.15	0.677	0.0046
0.8435	298.15	0.6836	0.0045
0.8435	303.15	0.6999	0.0043
0.8435	313.15	0.7014	0.0043
0.8435	323.15	0.7118	0.0042
0.8435	333.15	0.7212	0.0041
0.8435	343.15	0.7299	0.004
0.8435	353.15	0.7378	0.0039
0.8435	363.15	0.7452	0.0038
1	273.15	1	
1	283.15	1	
1	293.15	1	
1	298.15	1	
1	303.15	1	
1	313.15	1	
1	323.15	1	
1	333.15	1	
1	343.15	1	
1	353.15	1	
1	363.15	1	

System: propyl ethanoate + 3-hexyne; phases: Liquid
Fixed: Temperature, K = 298.15
Fixed: Pressure, kPa = 101
Property: Excess molar enthalpy (molar enthalpy of mixing), kJ/mol (Liquid); method: Flow calorimetry
Mole fraction of propyl ethanoate	Excess molar enthalpy (molar enthalpy of mixing), kJ/mol	uncertainty
0.0968	0.044	0.0101
0.202	0.0777	0.0101
0.3025	0.1126	0.0101
0.4063	0.1426	0.0101
0.4979	0.1579	0.0102
0.5956	0.1475	0.0102
0.7045	0.1118	0.0101
0.7995	0.0763	0.0101
0.8928	0.0422	0.0101

System: propyl ethanoate + 3-hexyne; phases: Liquid, Gas
Property: Vapor or sublimation pressure, kPa (Liquid); method: Closed cell (Static) method
Mole fraction of propyl ethanoate	Temperature, K	Vapor or sublimation pressure, kPa	uncertainty
0	273.15	2.9245	0.0257
0	283.15	5.2311	0.0339
0	293.15	8.8971	0.0473
0	298.15	11.4087	0.0568
0	303.15	14.479	0.0686
0	313.15	22.6651	0.099
0	323.15	34.2806	0.1424
0	333.15	50.2879	0.2022
0	343.15	71.7831	0.2823
0	353.15	99.9882	0.3872
0	363.15	136.2394	0.5206
0.1507	273.15	2.7453	0.025
0.1507	283.15	4.8714	0.0326
0.1507	293.15	8.2389	0.0449
0.1507	298.15	10.543	0.0536
0.1507	303.15	13.3585	0.0645
0.1507	313.15	20.8658	0.0923
0.1507	323.15	31.5292	0.1322
0.1507	333.15	46.2529	0.1873
0.1507	343.15	66.0765	0.2613
0.1507	353.15	92.1706	0.3585
0.1507	363.15	125.8295	0.4827
0.3753	273.15	2.3646	0.0236
0.3753	283.15	4.2206	0.0304
0.3753	293.15	7.1804	0.0411
0.3753	298.15	9.2154	0.0487
0.3753	303.15	11.7102	0.0584
0.3753	313.15	18.396	0.0837
0.3753	323.15	27.9528	0.1196
0.3753	333.15	41.2297	0.1695
0.3753	343.15	59.212	0.2368
0.3753	353.15	83.0189	0.3257
0.3753	363.15	113.8982	0.4381
0.4302	273.15	2.2654	0.0233
0.4302	283.15	4.0532	0.0296
0.4302	293.15	6.9106	0.04
0.4302	298.15	8.878	0.0474
0.4302	303.15	11.2924	0.0567
0.4302	313.15	17.7719	0.0808
0.4302	323.15	27.0495	0.1155
0.4302	333.15	39.959	0.1639
0.4302	343.15	57.4691	0.2293
0.4302	353.15	80.6821	0.3159
0.4302	363.15	110.8288	0.4268
0.6409	273.15	1.8604	0.0218
0.6409	283.15	3.3647	0.0271
0.6409	293.15	5.7932	0.0359
0.6409	298.15	7.4765	0.0422
0.6409	303.15	9.5513	0.0502
0.6409	313.15	15.1549	0.0709
0.6409	323.15	23.24	0.1012
0.6409	333.15	34.5693	0.1436
0.6409	343.15	50.0363	0.2015
0.6409	353.15	70.6643	0.2785
0.6409	363.15	97.6038	0.3777
0.7608	273.15	1.609	0.0209
0.7608	283.15	2.9433	0.0256
0.7608	293.15	5.1166	0.0334
0.7608	298.15	6.6313	0.0391
0.7608	303.15	8.5047	0.0463
0.7608	313.15	13.5878	0.0651
0.7608	323.15	20.9598	0.0928
0.7608	333.15	31.3345	0.1317
0.7608	343.15	45.549	0.1849
0.7608	353.15	64.5637	0.256
0.7608	363.15	89.4583	0.3477
0.8645	273.15	1.3695	0.0201
0.8645	283.15	2.5244	0.0241
0.8645	293.15	4.4232	0.0309
0.8645	298.15	5.7558	0.0359
0.8645	303.15	7.4118	0.0423
0.8645	313.15	11.9383	0.0591
0.8645	323.15	18.5651	0.084
0.8645	333.15	27.9779	0.1194
0.8645	343.15	40.9919	0.1683
0.8645	353.15	58.5554	0.234
0.8645	363.15	81.749	0.3195
1	273.15	1.0061	0.0178
1	283.15	1.9091	0.0219
1	293.15	3.43	0.0272
1	298.15	4.514	0.0312
1	303.15	5.8745	0.0364
1	313.15	9.6451	0.0502
1	323.15	15.2537	0.0711
1	333.15	23.3324	0.1013
1	343.15	34.6401	0.1435
1	353.15	50.0674	0.2011
1	363.15	70.6375	0.2767

System: propyl ethanoate + 3-hexyne; phases: Gas, Liquid
Property: Mole fraction of propyl ethanoate (Gas); method: Chromatography
Mole fraction of propyl ethanoate	Temperature, K	Mole fraction of propyl ethanoate	uncertainty
0	273.15	0	
0	283.15	0	
0	293.15	0	
0	298.15	0	
0	303.15	0	
0	313.15	0	
0	323.15	0	
0	333.15	0	
0	343.15	0	
0	353.15	0	
0	363.15	0	
0.1507	273.15	0.0694	0.0007
0.1507	283.15	0.0722	0.0008
0.1507	293.15	0.075	0.0008
0.1507	298.15	0.0764	0.0008
0.1507	303.15	0.0779	0.0008
0.1507	313.15	0.0808	0.0008
0.1507	323.15	0.0838	0.0009
0.1507	333.15	0.0869	0.0009
0.1507	343.15	0.09	0.0009
0.1507	353.15	0.0932	0.0009
0.1507	363.15	0.0965	0.001
0.3753	273.15	0.1742	0.0017
0.3753	283.15	0.1863	0.0018
0.3753	293.15	0.1976	0.002
0.3753	298.15	0.2029	0.002
0.3753	303.15	0.208	0.0021
0.3753	313.15	0.2177	0.0022
0.3753	323.15	0.2268	0.0023
0.3753	333.15	0.2352	0.0024
0.3753	343.15	0.2429	0.0025
0.3753	353.15	0.2502	0.0025
0.3753	363.15	0.257	0.0026
0.4302	273.15	0.2068	0.0021
0.4302	283.15	0.22	0.0022
0.4302	293.15	0.2323	0.0023
0.4302	298.15	0.2381	0.0024
0.4302	303.15	0.2437	0.0025
0.4302	313.15	0.2542	0.0026
0.4302	323.15	0.264	0.0027
0.4302	333.15	0.2732	0.0028
0.4302	343.15	0.2816	0.0029
0.4302	353.15	0.2895	0.003
0.4302	363.15	0.2968	0.0031
0.6409	273.15	0.3605	0.0039
0.6409	283.15	0.3768	0.0041
0.6409	293.15	0.3921	0.0044
0.6409	298.15	0.3994	0.0045
0.6409	303.15	0.4066	0.0046
0.6409	313.15	0.4203	0.0048
0.6409	323.15	0.4333	0.005
0.6409	333.15	0.4457	0.0052
0.6409	343.15	0.4574	0.0054
0.6409	353.15	0.4687	0.0055
0.6409	363.15	0.4734	0.0056
0.7608	273.15	0.4817	0.0058
0.7608	283.15	0.5005	0.0061
0.7608	293.15	0.518	0.0059
0.7608	298.15	0.5264	0.0059
0.7608	303.15	0.5345	0.0058
0.7608	313.15	0.55	0.0057
0.7608	323.15	0.5646	0.0056
0.7608	333.15	0.5785	0.0055
0.7608	343.15	0.5917	0.0054
0.7608	353.15	0.6042	0.0052
0.7608	363.15	0.6162	0.0051
0.8645	273.15	0.637	0.005
0.8645	283.15	0.6555	0.0048
0.8645	293.15	0.6723	0.0046
0.8645	298.15	0.6801	0.0046
0.8645	303.15	0.6875	0.0045
0.8645	313.15	0.7014	0.0043
0.8645	323.15	0.7142	0.0042
0.8645	333.15	0.726	0.0041
0.8645	343.15	0.7369	0.0039
0.8645	353.15	0.7471	0.0038
0.8645	363.15	0.7567	0.0037
1	273.15	1	
1	283.15	1	
1	293.15	1	
1	298.15	1	
1	303.15	1	
1	313.15	1	
1	323.15	1	
1	333.15	1	
1	343.15	1	
1	353.15	1	
1	363.15	1	
