Measured thermophysical data. Liquid-liquid phase separation of {amine e H2O e CO2} systems: New methods for key data
Source: Fluid Phase Equilib., 2017, 10.1016/j.fluid.2016.10.010
Compound 1: N-methylpiperidine, C6H13N, InChI=1S/C6H13N/c1-7-5-3-2-4-6-7/h2-6H2,1H3, purity 99.9%
Compound 2: 2-methylpiperidine, C6H13N, InChI=1S/C6H13N/c1-6-4-2-3-5-7-6/h6-7H,2-5H2,1H3, purity 98.3%
Compound 3: carbon dioxide, CO2, InChI=1S/CO2/c2-1-3, purity 99.995%
Compound 4: water, H2O, InChI=1S/H2O/h1H2, purity 99.9%

System: carbon dioxide + N-methylpiperidine + water; phases: Liquid mixture 1, Liquid mixture 2
Property: Liquid-liquid equilibrium temperature, K (Liquid mixture 1); method: VISOBS
Solvent: Mass fraction of N-methylpiperidine	Mole fraction of carbon dioxide	Pressure, kPa	Liquid-liquid equilibrium temperature, K	uncertainty
0.1	0	100	320.15	1.32
0.1	0.019	450	322.15	3.31
0.1	0.045	480	363.35	1.74
0.1	0.037	540	343.65	1.56
0.1	0.028	520	329.85	1.54
0.2	0	100	317.15	1.04
0.2	0.022	520	309.75	5.14
0.2	0.03	510	308.35	1.05
0.2	0.034	510	306.85	10.51
0.2	0.027	520	307.95	1.34
0.2	0.061	500	304.65	2
0.2	0.062	510	303.25	2
0.2	0.082	500	306.25	3.3
0.2	0.084	530	306.45	1.42
0.2	0.088	520	308.45	1.18
0.2	0.088	1150	308.15	1.01
0.2	0.088	2120	308.35	1.01
0.2	0.097	500	316.65	7.59
0.2	0.106	520	322.85	2.83
0.2	0.112	520	326.15	11.82
0.2	0.126	510	341.25	6.18
0.3	0.051	520	295.25	1.02
0.4	0	100	317.15	1.02
0.4	0.022	490	302.25	9.28
0.4	0.034	510	288.95	5.08
0.4	0.053	520	283.95	2.27
0.4	0.053	510	281.75	2.42
0.4	0.064	530	280.55	2.83
0.4	0.083	510	274.65	2.48
0.4	0.208	1040	277.05	2.15
0.4	0.223	1090	278.95	3.74
0.4	0.234	1060	289.75	9.08
0.4	0.236	1140	296.25	4.49
0.4	0.244	1150	301.25	4.49

System: 2-methylpiperidine + carbon dioxide + water; phases: Liquid mixture 1, Liquid mixture 2
Property: Liquid-liquid equilibrium temperature, K (Liquid mixture 1); method: VISOBS
Solvent: Mass fraction of 2-methylpiperidine	Mole fraction of carbon dioxide	Pressure, kPa	Liquid-liquid equilibrium temperature, K	uncertainty
0.1	0.019	500	354.75	1.01
0.15	0.029	520	347.45	1.07
0.2	0.079	510	383.55	1.09
0.2	0.063	530	367.85	1.09
0.2	0.022	530	343.25	1.01
0.2	0.05	530	354.75	1.06
0.2	0.036	530	346.25	1.02
0.25	0.049	520	352.35	1.09
0.3	0.059	520	361.65	1.01
0.4	0.044	530	358.45	1.01
0.4	0.074	530	377.25	3.65
0.4	0.07	500	373.95	1.01
