Measured thermophysical data. Recovery of flavonoids using novel biodegradable choline amino acids ionic liquids based ATPS
Source: Fluid Phase Equilib., 2019, 10.1016/j.fluid.2019.03.024
Compound 1: tripotassium phosphate, K3O4P, InChI=1S/3K.H3O4P/c;;;1-5(2,3)4/h;;;(H3,1,2,3,4)/q3*+1;/p-3, purity 99%
Compound 2: dipotassium hydrogen phosphate, HK2O4P, InChI=1S/2K.H3O4P/c;;1-5(2,3)4/h;;(H3,1,2,3,4)/q2*+1;/p-2, purity 98%
Compound 3: 2-hydroxy-N,N,N-trimethylethanaminium L-alaninate, C8H20N2O3, InChI=1S/C5H14NO.C3H7NO2/c1-6(2,3)4-5-7;1-2(4)3(5)6/h7H,4-5H2,1-3H3;2H,4H2,1H3,(H,5,6)/q+1;/p-1/t;2-/m.0/s1
Compound 4: 2-hydroxy-N,N,N-trimethylethanaminium glycinate, C7H18N2O3, InChI=1S/C5H14NO.C2H5NO2/c1-6(2,3)4-5-7;3-1-2(4)5/h7H,4-5H2,1-3H3;1,3H2,(H,4,5)/q+1;/p-1
Compound 5: 2-hydroxy-N,N,N-trimethylethanaminium L-serinate, C8H20N2O4, InChI=1S/C5H14NO.C3H7NO3/c1-6(2,3)4-5-7;4-2(1-5)3(6)7/h7H,4-5H2,1-3H3;2,5H,1,4H2,(H,6,7)/q+1;/p-1/t;2-/m.0/s1
Compound 6: water, H2O, InChI=1S/H2O/h1H2

System: 2-hydroxy-N,N,N-trimethylethanaminium L-alaninate + tripotassium phosphate + water; phases: Liquid mixture 1, Liquid mixture 2
Fixed: Temperature, K = 298.15
Fixed: Pressure, kPa = 100
Property: Mass fraction of tripotassium phosphate (Liquid mixture 1); method: Titration method
Mass fraction of 2-hydroxy-N,N,N-trimethylethanaminium L-alaninate	Mass fraction of tripotassium phosphate	uncertainty
0.68588	0.01123	0.00035
0.60905	0.02205	0.00068
0.52471	0.03821	0.00118
0.48727	0.04774	0.00148
0.4526	0.05626	0.00174
0.4219	0.06727	0.00208
0.40629	0.07495	0.00232
0.38622	0.08445	0.00262
0.36544	0.0968	0.003
0.3406	0.11174	0.00346
0.32578	0.12404	0.00384
0.30689	0.13558	0.0042
0.29392	0.14547	0.00451
0.26706	0.1647	0.0051
0.25167	0.17752	0.0055
0.23323	0.19234	0.00596
0.21508	0.20849	0.00646
0.1889	0.23323	0.00723
0.17406	0.24487	0.00759
0.16081	0.25853	0.00801
0.14594	0.27144	0.00841
0.13278	0.28481	0.00882
0.11806	0.30188	0.00935
0.11398	0.30533	0.00946
0.10599	0.31517	0.00977
0.09166	0.32783	0.01016
0.07599	0.34609	0.01072
0.05649	0.36826	0.01141
0.04248	0.39081	0.01211
0.03574	0.40168	0.01245
0.02708	0.42068	0.01303
0.02271	0.43459	0.01347
0.02046	0.44358	0.01374

System: 2-hydroxy-N,N,N-trimethylethanaminium L-alaninate + tripotassium phosphate + water; phases: Liquid mixture 1, Liquid mixture 2
Fixed: Temperature, K = 298.15
Fixed: Pressure, kPa = 100
Property: Mass fraction of tripotassium phosphate (Liquid mixture 1); method: OTHER
Property: Mass fraction of 2-hydroxy-N,N,N-trimethylethanaminium L-alaninate (Liquid mixture 2); method: OTHER
Property: Mass fraction of tripotassium phosphate (Liquid mixture 2); method: OTHER
Mass fraction of 2-hydroxy-N,N,N-trimethylethanaminium L-alaninate	Mass fraction of tripotassium phosphate	uncertainty	Mass fraction of 2-hydroxy-N,N,N-trimethylethanaminium L-alaninate	uncertainty	Mass fraction of tripotassium phosphate	uncertainty
0.64329	0.02376	0.00055	0.00414	0.0001	0.51981	
0.61271	0.02964	0.00069	0.01065	0.00025	0.4827	
0.55931	0.03843	0.00089	0.02756	0.00064	0.43098	
0.49203	0.0557	0.00129	0.07305	0.0017	0.35109	

System: 2-hydroxy-N,N,N-trimethylethanaminium glycinate + tripotassium phosphate + water; phases: Liquid mixture 1, Liquid mixture 2
Fixed: Temperature, K = 298.15
Fixed: Pressure, kPa = 100
Property: Mass fraction of tripotassium phosphate (Liquid mixture 1); method: Titration method
Mass fraction of 2-hydroxy-N,N,N-trimethylethanaminium glycinate	Mass fraction of tripotassium phosphate	uncertainty
0.58831	0.03591	0.00111
0.55181	0.04344	0.00135
0.52728	0.05094	0.00158
0.51395	0.0543	0.00168
0.47488	0.06265	0.00194
0.44648	0.07112	0.0022
0.43481	0.07826	0.00242
0.41444	0.08676	0.00269
0.39948	0.09314	0.00289
0.37294	0.10696	0.00331
0.36458	0.11256	0.00349
0.35937	0.11636	0.00361
0.35104	0.1215	0.00376
0.34635	0.12409	0.00384
0.33763	0.1297	0.00402
0.32749	0.13858	0.00429
0.30736	0.15385	0.00477
0.27943	0.17347	0.00537
0.26782	0.1845	0.00572
0.22822	0.2162	0.0067
0.20423	0.23796	0.00737
0.18711	0.25185	0.0078
0.17932	0.26222	0.00812
0.15905	0.27747	0.0086
0.14448	0.29061	0.009
0.11898	0.31165	0.00966
0.11003	0.32278	0.01
0.09566	0.34092	0.01056
0.07972	0.35768	0.01108
0.07046	0.36908	0.01144
0.06201	0.38366	0.01189
0.05387	0.39857	0.01235
0.04554	0.41837	0.01296
0.036	0.43654	0.01353

System: 2-hydroxy-N,N,N-trimethylethanaminium glycinate + tripotassium phosphate + water; phases: Liquid mixture 1, Liquid mixture 2
Fixed: Temperature, K = 298.15
Fixed: Pressure, kPa = 100
Property: Mass fraction of tripotassium phosphate (Liquid mixture 1); method: OTHER
Property: Mass fraction of 2-hydroxy-N,N,N-trimethylethanaminium glycinate (Liquid mixture 2); method: OTHER
Property: Mass fraction of tripotassium phosphate (Liquid mixture 2); method: OTHER
Mass fraction of 2-hydroxy-N,N,N-trimethylethanaminium glycinate	Mass fraction of tripotassium phosphate	uncertainty	Mass fraction of 2-hydroxy-N,N,N-trimethylethanaminium glycinate	uncertainty	Mass fraction of tripotassium phosphate	uncertainty
0.4796	0.07054	0.00164	0.01105	0.00026	0.52421	
0.44389	0.08451	0.00196	0.02716	0.00063	0.46899	
0.43157	0.08925	0.00207	0.03222	0.00075	0.45733	
0.40877	0.09998	0.00232	0.04684	0.00109	0.42098	
0.39779	0.1053	0.00245	0.05476	0.00127	0.40719	

System: 2-hydroxy-N,N,N-trimethylethanaminium L-serinate + tripotassium phosphate + water; phases: Liquid mixture 1, Liquid mixture 2
Fixed: Temperature, K = 298.15
Fixed: Pressure, kPa = 100
Property: Mass fraction of tripotassium phosphate (Liquid mixture 1); method: Titration method
Mass fraction of 2-hydroxy-N,N,N-trimethylethanaminium L-serinate	Mass fraction of tripotassium phosphate	uncertainty
0.7914	0.01553	0.00048
0.72352	0.02775	0.00086
0.69343	0.03469	0.00107
0.6357	0.04717	0.00146
0.61587	0.05181	0.00161
0.57686	0.06599	0.00204
0.53158	0.08096	0.00251
0.48261	0.10332	0.0032
0.46059	0.11551	0.00358
0.43227	0.13159	0.00408
0.41486	0.14132	0.00438
0.39354	0.15338	0.00475
0.3907	0.15727	0.00487
0.35913	0.17819	0.00552
0.33276	0.19506	0.00604
0.30305	0.21745	0.00674
0.27384	0.23965	0.00743
0.23963	0.26583	0.00824
0.21929	0.28224	0.00874
0.18911	0.30475	0.00944
0.17189	0.31815	0.00986
0.16005	0.33062	0.01024
0.13466	0.3509	0.01087
0.1146	0.36978	0.01146
0.0947	0.39206	0.01215
0.07349	0.41594	0.01289
0.06655	0.42271	0.0131

System: 2-hydroxy-N,N,N-trimethylethanaminium L-serinate + tripotassium phosphate + water; phases: Liquid mixture 1, Liquid mixture 2
Fixed: Temperature, K = 298.15
Fixed: Pressure, kPa = 100
Property: Mass fraction of tripotassium phosphate (Liquid mixture 1); method: OTHER
Property: Mass fraction of 2-hydroxy-N,N,N-trimethylethanaminium L-serinate (Liquid mixture 2); method: OTHER
Property: Mass fraction of tripotassium phosphate (Liquid mixture 2); method: OTHER
Mass fraction of 2-hydroxy-N,N,N-trimethylethanaminium L-serinate	Mass fraction of tripotassium phosphate	uncertainty	Mass fraction of 2-hydroxy-N,N,N-trimethylethanaminium L-serinate	uncertainty	Mass fraction of tripotassium phosphate	uncertainty
0.61927	0.06293	0.00146	0.02745	0.00064	0.51769	
0.52697	0.09468	0.0022	0.05045	0.00117	0.46886	
0.49374	0.10976	0.00255	0.06114	0.00142	0.44867	
0.41216	0.15265	0.00355	0.09209	0.00214	0.40737	

System: 2-hydroxy-N,N,N-trimethylethanaminium L-alaninate + dipotassium hydrogen phosphate + water; phases: Liquid mixture 1, Liquid mixture 2
Fixed: Temperature, K = 298.15
Fixed: Pressure, kPa = 100
Property: Mass fraction of dipotassium hydrogen phosphate (Liquid mixture 1); method: Titration method
Mass fraction of 2-hydroxy-N,N,N-trimethylethanaminium L-alaninate	Mass fraction of dipotassium hydrogen phosphate	uncertainty
0.81611	0.00459	0.00014
0.69169	0.01509	0.00047
0.74536	0.01004	0.00031
0.72292	0.01134	0.00035
0.57333	0.03594	0.00111
0.53226	0.04453	0.00138
0.48727	0.06629	0.00205
0.4542	0.0751	0.00233
0.4112	0.09552	0.00296
0.37996	0.12287	0.00381
0.33469	0.15465	0.00479
0.33039	0.16204	0.00502
0.3121	0.17246	0.00534
0.29334	0.18972	0.00588
0.27925	0.20298	0.00629
0.26423	0.21645	0.00671
0.25923	0.22259	0.0069
0.2504	0.23719	0.00735
0.2377	0.25071	0.00777
0.22431	0.268	0.0083
0.20453	0.29245	0.00906
0.18524	0.31365	0.00972
0.17154	0.32937	0.01021
0.15945	0.3498	0.01084
0.11873	0.40328	0.0125
0.10311	0.43126	0.01336
0.09446	0.45978	0.01425
0.07631	0.49199	0.01524
0.06755	0.51328	0.01508
0.05571	0.53408	0.01444
0.04587	0.54914	0.01397
0.03569	0.57585	0.01314
0.0253	0.59584	0.01252
0.02366	0.59684	0.01249

System: 2-hydroxy-N,N,N-trimethylethanaminium L-alaninate + dipotassium hydrogen phosphate + water; phases: Liquid mixture 1, Liquid mixture 2
Fixed: Temperature, K = 298.15
Fixed: Pressure, kPa = 100
Property: Mass fraction of dipotassium hydrogen phosphate (Liquid mixture 1); method: OTHER
Property: Mass fraction of 2-hydroxy-N,N,N-trimethylethanaminium L-alaninate (Liquid mixture 2); method: OTHER
Property: Mass fraction of dipotassium hydrogen phosphate (Liquid mixture 2); method: OTHER
Mass fraction of 2-hydroxy-N,N,N-trimethylethanaminium L-alaninate	Mass fraction of dipotassium hydrogen phosphate	uncertainty	Mass fraction of 2-hydroxy-N,N,N-trimethylethanaminium L-alaninate	uncertainty	Mass fraction of dipotassium hydrogen phosphate	uncertainty
0.61969	0.03862	0.0009	0.03487	0.00081	0.61596	
0.59007	0.043	0.001	0.04018	0.00093	0.5967	
0.54085	0.05917	0.00138	0.05283	0.00123	0.55757	
0.46535	0.0879	0.00204	0.07204	0.00167	0.50929	

System: 2-hydroxy-N,N,N-trimethylethanaminium glycinate + dipotassium hydrogen phosphate + water; phases: Liquid mixture 1, Liquid mixture 2
Fixed: Temperature, K = 298.15
Fixed: Pressure, kPa = 100
Property: Mass fraction of dipotassium hydrogen phosphate (Liquid mixture 1); method: Titration method
Mass fraction of 2-hydroxy-N,N,N-trimethylethanaminium glycinate	Mass fraction of dipotassium hydrogen phosphate	uncertainty
0.79363	0.00784	0.00024
0.73783	0.01881	0.00058
0.64439	0.03338	0.00103
0.55239	0.05591	0.00173
0.51718	0.06593	0.00204
0.48965	0.07666	0.00238
0.4598	0.09032	0.0028
0.42779	0.10628	0.00329
0.4045	0.12314	0.00382
0.37211	0.14537	0.0045
0.34731	0.16859	0.00522
0.32283	0.19299	0.00598
0.31249	0.19979	0.00619
0.29346	0.21824	0.00676
0.2926	0.22129	0.00686
0.27538	0.23693	0.00734
0.26048	0.25222	0.00781
0.24015	0.27695	0.00858
0.23421	0.28823	0.00893
0.22046	0.30574	0.00947
0.20024	0.32471	0.01006
0.16768	0.36574	0.01133
0.15022	0.38826	0.01203
0.14335	0.39707	0.0123
0.14109	0.40506	0.01255
0.13031	0.42299	0.01311
0.11106	0.44141	0.01368
0.09341	0.46535	0.01442
0.07226	0.50346	0.01538
0.06292	0.51726	0.01496
0.05251	0.53297	0.01447
0.0322	0.56563	0.01346
0.02199	0.59786	0.01246

System: 2-hydroxy-N,N,N-trimethylethanaminium glycinate + dipotassium hydrogen phosphate + water; phases: Liquid mixture 1, Liquid mixture 2
Fixed: Temperature, K = 298.15
Fixed: Pressure, kPa = 100
Property: Mass fraction of dipotassium hydrogen phosphate (Liquid mixture 1); method: OTHER
Property: Mass fraction of 2-hydroxy-N,N,N-trimethylethanaminium glycinate (Liquid mixture 2); method: OTHER
Property: Mass fraction of dipotassium hydrogen phosphate (Liquid mixture 2); method: OTHER
Mass fraction of 2-hydroxy-N,N,N-trimethylethanaminium glycinate	Mass fraction of dipotassium hydrogen phosphate	uncertainty	Mass fraction of 2-hydroxy-N,N,N-trimethylethanaminium glycinate	uncertainty	Mass fraction of dipotassium hydrogen phosphate	uncertainty
0.66992	0.03717	0.00086	0.01683	0.00039	0.72883	
0.61127	0.05076	0.00118	0.02693	0.00063	0.66877	
0.53912	0.07374	0.00171	0.04038	0.00094	0.6155	
0.46376	0.10748	0.0025	0.06681	0.00155	0.54274	

System: 2-hydroxy-N,N,N-trimethylethanaminium L-serinate + dipotassium hydrogen phosphate + water; phases: Liquid mixture 1, Liquid mixture 2
Fixed: Temperature, K = 298.15
Fixed: Pressure, kPa = 100
Property: Mass fraction of dipotassium hydrogen phosphate (Liquid mixture 1); method: Titration method
Mass fraction of 2-hydroxy-N,N,N-trimethylethanaminium L-serinate	Mass fraction of dipotassium hydrogen phosphate	uncertainty
0.85176	0.00854	0.00026
0.81773	0.0131	0.00041
0.803	0.01704	0.00053
0.70545	0.04634	0.00144
0.58565	0.09016	0.00279
0.55069	0.10202	0.00316
0.51246	0.12254	0.0038
0.44451	0.16234	0.00503
0.42502	0.17405	0.00539
0.38845	0.2026	0.00628
0.36855	0.22014	0.00682
0.35287	0.23348	0.00723
0.34693	0.2406	0.00745
0.33892	0.24686	0.00765
0.32373	0.26045	0.00807
0.3152	0.26769	0.00829
0.30331	0.27913	0.00865
0.29193	0.2913	0.00903
0.2715	0.30969	0.0096
0.25129	0.32985	0.01022
0.21948	0.36332	0.01126
0.20494	0.37894	0.01174
0.19378	0.38784	0.01202
0.16482	0.41775	0.01294
0.14419	0.44199	0.01369
0.12903	0.4569	0.01416
0.08628	0.50613	0.0153
0.06117	0.54947	0.01396
0.03616	0.58429	0.01288

System: 2-hydroxy-N,N,N-trimethylethanaminium L-serinate + dipotassium hydrogen phosphate + water; phases: Liquid mixture 1, Liquid mixture 2
Fixed: Temperature, K = 298.15
Fixed: Pressure, kPa = 100
Property: Mass fraction of dipotassium hydrogen phosphate (Liquid mixture 1); method: OTHER
Property: Mass fraction of 2-hydroxy-N,N,N-trimethylethanaminium L-serinate (Liquid mixture 2); method: OTHER
Property: Mass fraction of dipotassium hydrogen phosphate (Liquid mixture 2); method: OTHER
Mass fraction of 2-hydroxy-N,N,N-trimethylethanaminium L-serinate	Mass fraction of dipotassium hydrogen phosphate	uncertainty	Mass fraction of 2-hydroxy-N,N,N-trimethylethanaminium L-serinate	uncertainty	Mass fraction of dipotassium hydrogen phosphate	uncertainty
0.76288	0.03453	0.0008	0.01911	0.00044	0.73758	
0.63161	0.07416	0.00172	0.03447	0.0008	0.64983	
0.54695	0.11233	0.00261	0.05468	0.00127	0.59622	
0.5208	0.12512	0.00291	0.05894	0.00137	0.58255	
