Measured thermophysical data. A simple method for estimating mutual diffusion coefficients of ionic liquids-water based on an optofluidic chip
Source: Fluid Phase Equilib., 2014, 10.1016/j.fluid.2014.01.003
Compound 1: 1,3-dimethyl-1H-imidazolium tetrafluoroborate, C5H9BF4N2, InChI=1S/C5H9N2.BF4/c1-6-3-4-7(2)5-6;2-1(3,4)5/h3-5H,1-2H3;/q+1;-1
Compound 2: 1-ethyl-3-methylimidazolium tetrafluoroborate, C6H11BF4N2, InChI=1S/C6H11N2.BF4/c1-3-8-5-4-7(2)6-8;2-1(3,4)5/h4-6H,3H2,1-2H3;/q+1;-1
Compound 3: 1-butyl-3-methylimidazolium tetrafluoroborate, C8H15BF4N2, InChI=1S/C8H15N2.BF4/c1-3-4-5-10-7-6-9(2)8-10;2-1(3,4)5/h6-8H,3-5H2,1-2H3;/q+1;-1
Compound 4: 1-ethyl-3-methylimidazolium dicyanamide, C8H11N5, InChI=1S/C6H11N2.C2N3/c1-3-8-5-4-7(2)6-8;3-1-5-2-4/h4-6H,3H2,1-2H3;/q+1;-1
Compound 5: 1-butyl-3-methylimidazolium dicyanamide, C10H15N5, InChI=1S/C8H15N2.C2N3/c1-3-4-5-10-7-6-9(2)8-10;3-1-5-2-4/h6-8H,3-5H2,1-2H3;/q+1;-1
Compound 6: 1-ethyl-3-methylimidazolium perchlorate, C6H11ClN2O4, InChI=1S/C6H11N2.ClHO4/c1-3-8-5-4-7(2)6-8;2-1(3,4)5/h4-6H,3H2,1-2H3;(H,2,3,4,5)/q+1;/p-1
Compound 7: 1-butyl-3-methylimidazolium nitrate, C8H15N3O3, InChI=1S/C8H15N2.NO3/c1-3-4-5-10-7-6-9(2)8-10;2-1(3)4/h6-8H,3-5H2,1-2H3;/q+1;-1
Compound 8: 1,2-ethanediol, C2H6O2, InChI=1S/C2H6O2/c3-1-2-4/h3-4H,1-2H2, purity 98%
Compound 9: water, H2O, InChI=1S/H2O/h1H2, purity 99.8%

System: 1,3-dimethyl-1H-imidazolium tetrafluoroborate; phases: Liquid
Fixed: Pressure, kPa = 101.325
Property: Refractive index (Na D-line) (Liquid); method: Standard Abbe refractometry
Temperature, K	Refractive index (Na D-line)	uncertainty
298.2	1.4023	0.0004
308.2	1.4055	0.0004
318.2	1.3993	0.0004
328.2	1.3988	0.0004
338.2	1.3975	0.0004

System: 1,3-dimethyl-1H-imidazolium tetrafluoroborate; phases: Liquid
Fixed: Pressure, kPa = 101.325
Property: Viscosity, Pa*s (Liquid); method: Cone and plate viscometry
Temperature, K	Viscosity, Pa*s	uncertainty
298.2	0.034	0.001
308.2	0.022	0.001
318.2	0.015	0.001
328.2	0.011	0.001
338.2	0.0078	0.001

System: 1-ethyl-3-methylimidazolium tetrafluoroborate; phases: Liquid
Fixed: Pressure, kPa = 101.325
Property: Refractive index (Na D-line) (Liquid); method: Standard Abbe refractometry
Temperature, K	Refractive index (Na D-line)	uncertainty
298.2	1.4098	0.0004
308.2	1.4082	0.0004
318.2	1.4065	0.0004
328.2	1.4053	0.0004
338.2	1.4035	0.0004

System: 1-ethyl-3-methylimidazolium tetrafluoroborate; phases: Liquid
Fixed: Pressure, kPa = 101.325
Property: Viscosity, Pa*s (Liquid); method: Cone and plate viscometry
Temperature, K	Viscosity, Pa*s	uncertainty
298.2	0.045	0.001
308.2	0.027	0.001
318.2	0.019	0.001
328.2	0.014	0.001
338.2	0.011	0.001

System: 1-butyl-3-methylimidazolium tetrafluoroborate; phases: Liquid
Fixed: Pressure, kPa = 101.325
Property: Refractive index (Na D-line) (Liquid); method: Standard Abbe refractometry
Temperature, K	Refractive index (Na D-line)	uncertainty
298.2	1.4184	0.0004
308.2	1.4163	0.0004
318.2	1.4142	0.0004
328.2	1.4125	0.0004
338.2	1.4106	0.0004

System: 1-butyl-3-methylimidazolium tetrafluoroborate; phases: Liquid
Fixed: Pressure, kPa = 101.325
Property: Viscosity, Pa*s (Liquid); method: Cone and plate viscometry
Temperature, K	Viscosity, Pa*s	uncertainty
298.2	0.146	0.004
308.2	0.076	0.002
318.2	0.045	0.001
328.2	0.029	0.001
338.2	0.021	0.001

System: water; phases: Liquid
Fixed: Pressure, kPa = 101.325
Property: Refractive index (Na D-line) (Liquid); method: Standard Abbe refractometry
Temperature, K	Refractive index (Na D-line)	uncertainty
298.2	1.3325	0.0005
308.2	1.3313	0.0005
318.2	1.3299	0.0005
328.2	1.3282	0.0005
338.2	1.3275	0.0005

System: water; phases: Liquid
Fixed: Pressure, kPa = 101.325
Property: Viscosity, Pa*s (Liquid); method: Cone and plate viscometry
Temperature, K	Viscosity, Pa*s	uncertainty
298.2	0.0009	0.001
308.2	0.00072	0.001
318.2	0.00061	0.001
328.2	0.0005	0.001
338.2	0.00043	0.001

System: 1,2-ethanediol + water; phases: Liquid
Fixed: Pressure, kPa = 101
Fixed: Temperature, K = 298.2
Property: Binary diffusion coefficient, m2/s (Liquid); method: Camera Imaging
Mole fraction of 1,2-ethanediol	Binary diffusion coefficient, m2/s	uncertainty
0.0323	1.235e-09	0.24
0.0698	8.36e-10	0.147
0.114	7.12e-10	0.076
0.1667	6.38e-10	0.061
0.242	5.86e-10	0.056
0.3104	5.02e-10	0.049
0.4119	4.33e-10	0.042
0.5456	3.2e-10	0.03
0.7298	2.84e-10	0.026

System: water + 1,3-dimethyl-1H-imidazolium tetrafluoroborate; phases: Liquid
Fixed: Pressure, kPa = 101
Fixed: Volume fraction of 1,3-dimethyl-1H-imidazolium tetrafluoroborate = 0.5
Property: Binary diffusion coefficient, m2/s (Liquid); method: Camera Imaging
Temperature, K	Binary diffusion coefficient, m2/s	uncertainty
298.2	6.87e-10	0.065
308.2	7.74e-10	0.073
318.2	8.45e-10	0.079
328.2	9.62e-10	0.09
338.2	1.065e-09	0.1

System: water + 1-ethyl-3-methylimidazolium tetrafluoroborate; phases: Liquid
Fixed: Pressure, kPa = 101
Fixed: Volume fraction of 1-ethyl-3-methylimidazolium tetrafluoroborate = 0.5
Property: Binary diffusion coefficient, m2/s (Liquid); method: Camera Imaging
Temperature, K	Binary diffusion coefficient, m2/s	uncertainty
298.2	3.42e-10	0.032
308.2	4.65e-10	0.044
318.2	5.57e-10	0.052
328.2	6.72e-10	0.063
338.2	7.89e-10	0.074

System: water + 1-butyl-3-methylimidazolium tetrafluoroborate; phases: Liquid
Fixed: Pressure, kPa = 101
Fixed: Volume fraction of 1-butyl-3-methylimidazolium tetrafluoroborate = 0.5
Property: Binary diffusion coefficient, m2/s (Liquid); method: Camera Imaging
Temperature, K	Binary diffusion coefficient, m2/s	uncertainty
298.2	1.24e-10	0.012
308.2	2.56e-10	0.024
318.2	3.83e-10	0.036
328.2	5.13e-10	0.048
338.2	6.45e-10	0.061

System: water + 1-ethyl-3-methylimidazolium dicyanamide; phases: Liquid
Property: Binary diffusion coefficient, m2/s (Liquid); method: Camera Imaging
Volume fraction of 1-ethyl-3-methylimidazolium dicyanamide	Pressure, kPa	Temperature, K	Binary diffusion coefficient, m2/s	uncertainty
0.5	101	298.2	7.25e-10	0.068

System: water + 1-butyl-3-methylimidazolium dicyanamide; phases: Liquid
Property: Binary diffusion coefficient, m2/s (Liquid); method: Camera Imaging
Volume fraction of 1-butyl-3-methylimidazolium dicyanamide	Pressure, kPa	Temperature, K	Binary diffusion coefficient, m2/s	uncertainty
0.5	101	298.2	2.53e-10	0.024

System: water + 1-ethyl-3-methylimidazolium perchlorate; phases: Liquid
Property: Binary diffusion coefficient, m2/s (Liquid); method: Camera Imaging
Volume fraction of 1-ethyl-3-methylimidazolium perchlorate	Pressure, kPa	Temperature, K	Binary diffusion coefficient, m2/s	uncertainty
0.5	101	298.2	1.93e-10	0.018

System: water + 1-butyl-3-methylimidazolium nitrate; phases: Liquid
Property: Binary diffusion coefficient, m2/s (Liquid); method: Camera Imaging
Volume fraction of 1-butyl-3-methylimidazolium nitrate	Pressure, kPa	Temperature, K	Binary diffusion coefficient, m2/s	uncertainty
0.5	101	298.2	3.13e-10	0.029
