Measured thermophysical data. Solubility of disperse dyes in supercritical carbon dioxide and ethanol
Source: Fluid Phase Equilib., 2006, 10.1016/j.fluid.2006.02.010
Compound 1: ethanol, C2H6O, InChI=1S/C2H6O/c1-2-3/h3H,2H2,1H3
Compound 2: carbon dioxide, CO2, InChI=1S/CO2/c2-1-3
Compound 3: Disperse Blue 79, C24H27BrN6O10, InChI=1S/C24H27BrN6O10/c1-5-39-23-13-20(27-28-24-18(25)10-17(30(35)36)11-22(24)31(37)38)19(26-14(2)32)12-21(23)29(6-8-40-15(3)33)7-9-41-16(4)34/h10-13H,5-9H2,1-4H3,(H,26,32)
Compound 4: 4-[(4-nitrophenyl)azo]benzenamine, C12H10N4O2, InChI=1S/C12H10N4O2/c13-9-1-3-10(4-2-9)14-15-11-5-7-12(8-6-11)16(17)18/h1-8H,13H2/b15-14+
Compound 5: 1,3-benzenediamine, 4-(1-naphthalenylazo), C16H14N4, InChI=1S/C16H14N4/c17-12-8-9-16(14(18)10-12)20-19-15-7-3-5-11-4-1-2-6-13(11)15/h1-10H,17-18H2

System: ethanol + carbon dioxide + Disperse Blue 79; phases: Fluid (supercritical or subcritical phases), Crystal
Fixed: Solvent: Mole fraction of ethanol = 0.055
Property: Mole fraction of Disperse Blue 79 (Fluid (supercritical or subcritical phases)); method: Gas volume and solute mass after depressurization
Temperature, K	Pressure, kPa	Mole fraction of Disperse Blue 79	uncertainty
353.2	16080	1.48e-06	4.4e-07
353.2	18170	4.44e-06	1.33e-06
353.2	20100	1.15e-05	3.5e-06
353.2	22020	1.93e-05	5.8e-06
373.2	15970	8.34e-07	2.5e-07
373.2	18050	2.35e-06	7.1e-07
373.2	20060	6.59e-06	1.98e-06
373.2	22000	1.29e-05	3.9e-06
393.2	18040	2.08e-06	6.2e-07
393.2	20010	5.4e-06	1.62e-06
393.2	22010	1.23e-05	3.7e-06
393.2	24090	2.57e-05	7.7e-06

System: ethanol + carbon dioxide + 4-[(4-nitrophenyl)azo]benzenamine; phases: Fluid (supercritical or subcritical phases), Crystal
Fixed: Solvent: Mole fraction of ethanol = 0.055
Property: Mole fraction of 4-[(4-nitrophenyl)azo]benzenamine (Fluid (supercritical or subcritical phases)); method: Gas volume and solute mass after depressurization
Temperature, K	Pressure, kPa	Mole fraction of 4-[(4-nitrophenyl)azo]benzenamine	uncertainty
353.2	16060	9.77e-06	2.93e-06
353.2	18080	2.01e-05	6e-06
353.2	20000	4.8e-05	1.44e-05
353.2	22090	7.74e-05	2.32e-05
353.2	26010	0.000118	3.5e-05
353.2	28040	0.000136	4.1e-05
373.2	16030	1.42e-05	4.3e-06
373.2	18030	2.34e-05	7e-06
373.2	20060	4.6e-05	1.38e-05
373.2	22020	6.66e-05	2e-05
373.2	24040	8.34e-05	2.5e-05
393.2	15920	4.23e-05	1.27e-05
393.2	17940	5.04e-05	1.51e-05
393.2	19990	6.27e-05	1.88e-05
393.2	22160	7.57e-05	2.27e-05
393.2	24060	9.68e-05	2.9e-05

System: ethanol + carbon dioxide + 1,3-benzenediamine, 4-(1-naphthalenylazo); phases: Fluid (supercritical or subcritical phases), Crystal
Fixed: Solvent: Mole fraction of ethanol = 0.055
Property: Mole fraction of 1,3-benzenediamine, 4-(1-naphthalenylazo) (Fluid (supercritical or subcritical phases)); method: Gas volume and solute mass after depressurization
Temperature, K	Pressure, kPa	Mole fraction of 1,3-benzenediamine, 4-(1-naphthalenylazo)	uncertainty
353.2	20010	1.14e-05	3.4e-06
353.2	22020	2.24e-05	6.7e-06
353.2	24020	2.81e-05	8.4e-06
353.2	25980	4.59e-05	1.38e-05
353.2	27990	5.28e-05	1.58e-05
353.2	30000	5.69e-05	1.71e-05
373.2	18000	6.17e-06	1.85e-06
373.2	19970	1.16e-05	3.5e-06
373.2	22010	2.51e-05	7.5e-06
373.2	24100	3.22e-05	9.7e-06
373.2	26060	4.72e-05	1.42e-05
373.2	28060	5.36e-05	1.61e-05
373.2	30040	6.57e-05	1.97e-05
393.2	18010	8.82e-06	2.65e-06
393.2	20070	1.3e-05	3.9e-06
393.2	22120	2.41e-05	7.2e-06
393.2	24080	3.65e-05	1.1e-05
393.2	26070	4.68e-05	1.4e-05
393.2	28120	6.78e-05	2.03e-05
393.2	30110	8.6e-05	2.58e-05
