Measured thermophysical data. Vapour-liquid equilibrium of propanoic acid + water at 423.2, 453.2 and 483.2 K from 1.87 to 19.38 bar. Experimental and modelling with PR, CPA, PC-SAFT and PCP-SAFT
Source: Fluid Phase Equilib., 2015, 10.1016/j.fluid.2015.01.004
Compound 1: propanoic acid, C3H6O2, InChI=1S/C3H6O2/c1-2-3(4)5/h2H2,1H3,(H,4,5)
Compound 2: water, H2O, InChI=1S/H2O/h1H2

System: propanoic acid + water; phases: Liquid, Gas
Property: Vapor or sublimation pressure, kPa (Liquid); method: Closed cell (Static) method
Mole fraction of propanoic acid	Temperature, K	Vapor or sublimation pressure, kPa	uncertainty
0.973	423.2	187	12
0.932	423.2	234	10
0.881	423.2	274	8
0.809	423.2	326	5
0.675	423.2	377	6
0.55	423.2	411	5
0.477	423.2	431	4
0.366	423.2	456	5
0.344	423.2	460	4
0.281	423.2	470	4
0.225	423.2	475	4
0.145	423.2	478	5
0.13	423.2	480	4
0.111	423.2	482	4
0.074	423.2	481	4
0.017	423.2	480	4
0	423.2	476	4
0.96	453.2	415	10
0.918	453.2	504	9
0.85	453.2	602	14
0.774	453.2	683	11
0.724	453.2	736	7
0.6	453.2	823	9
0.482	453.2	892	22
0.398	453.2	936	8
0.292	453.2	984	7
0.226	453.2	1000	6
0.169	453.2	1007	6
0.16	453.2	1008	28
0.133	453.2	1010	53
0.017	453.2	1005	81
0	453.2	1003	6
0.946	483.2	794	19
0.88	483.2	1000	35
0.817	483.2	1164	26
0.76	483.2	1306	16
0.708	483.2	1416	41
0.643	483.2	1523	43
0.534	483.2	1648	14
0.479	483.2	1704	13
0.413	483.2	1765	12
0.339	483.2	1825	11
0.233	483.2	1891	10
0.184	483.2	1910	10
0.128	483.2	1935	10
0.105	483.2	1938	9
0.017	483.2	1935	21
0	483.2	1902	8

System: propanoic acid + water; phases: Gas, Liquid
Property: Mole fraction of propanoic acid (Gas); method: Closed cell (Static) method
Mole fraction of propanoic acid	Temperature, K	Mole fraction of propanoic acid	uncertainty
0.973	423.2	0.705	0.052
0.932	423.2	0.498	0.034
0.881	423.2	0.406	0.02
0.809	423.2	0.285	0.009
0.675	423.2	0.231	0.036
0.55	423.2	0.2	0.042
0.477	423.2	0.159	0.024
0.366	423.2	0.137	0.012
0.344	423.2	0.123	0.006
0.281	423.2	0.104	0.01
0.225	423.2	0.1	0.01
0.145	423.2	0.096	0.012
0.13	423.2	0.086	0.011
0.111	423.2	0.084	0.01
0.074	423.2	0.071	0.012
0.017	423.2	0.026	0.014
0	423.2	0	
0.96	453.2	0.701	0.043
0.918	453.2	0.512	0.021
0.85	453.2	0.34	0.035
0.774	453.2	0.252	0.015
0.724	453.2	0.204	0.009
0.6	453.2	0.155	0.011
0.482	453.2	0.128	0.012
0.398	453.2	0.116	0.01
0.292	453.2	0.108	0.01
0.226	453.2	0.102	0.01
0.169	453.2	0.092	0.01
0.16	453.2	0.09	0.011
0.133	453.2	0.079	0.011
0.017	453.2	0.027	0.018
0	453.2	0	
0.946	483.2	0.647	0.052
0.88	483.2	0.393	0.056
0.817	483.2	0.271	0.068
0.76	483.2	0.204	0.027
0.708	483.2	0.152	0.039
0.643	483.2	0.119	0.025
0.534	483.2	0.105	0.01
0.479	483.2	0.098	0.01
0.413	483.2	0.094	0.01
0.339	483.2	0.09	0.01
0.233	483.2	0.086	0.01
0.184	483.2	0.081	0.01
0.128	483.2	0.072	0.01
0.105	483.2	0.069	0.011
0.017	483.2	0.024	0.017
0	483.2	0	
