Measured thermophysical data. Evaluation of the vapour pressure of aqueous NaCl-sorbitol solution and correlation of the water activity on composition and temperature
Source: Fluid Phase Equilib., 2016, 10.1016/j.fluid.2016.01.048
Compound 1: sodium chloride, ClNa, InChI=1S/ClH.Na/h1H;/q;+1/p-1
Compound 2: D-sorbitol, C6H14O6, InChI=1S/C6H14O6/c7-1-3(9)5(11)6(12)4(10)2-8/h3-12H,1-2H2/t3-,4+,5-,6-/m1/s1
Compound 3: water, H2O, InChI=1S/H2O/h1H2, purity 99.9%

System: D-sorbitol + sodium chloride + water; phases: Liquid, Gas
Property: Vapor or sublimation pressure, kPa (Liquid); method: Manometric method
Temperature, K	Molality, mol/kg of sodium chloride	Molality, mol/kg of D-sorbitol	Vapor or sublimation pressure, kPa	uncertainty
338	0	1	24.51	0.33
338	0	1.9962	24.06	0.33
338	0	1.9992	24.07	0.33
338	0	2.9978	23.51	0.33
338	0	4.993	22.79	0.33
338	0	5.9498	22.28	0.33
338	0	7.7271	21.49	0.33
338	0.1555	1.3482	24.27	0.33
338	0.2047	0.8001	24.41	0.33
338	0.3193	2.247	23.71	0.33
338	0.3482	3.132	23.35	0.33
338	0.4016	1.5951	24.14	0.33
338	0.404	0.5975	24.6	0.33
338	0.4543	1.046	24.1	0.33
338	0.5977	0.4004	24.37	0.33
338	0.5981	2.3972	23.57	0.33
338	0.7514	0.7503	24.04	0.33
338	0.7704	0.75	23.95	0.33
338	0.8006	1.735	23.63	0.33
338	0.802	0.2066	24.23	0.33
338	0.8084	1.2064	24.1	0.33
338	0.8169	3.2006	23	0.33
338	1.05	0.4489	24.13	0.33
338	1.0617	2.4501	22.97	0.33
338	1.1899	0.8007	23.82	0.33
338	1.2142	1.801	23.01	0.33
338	1.2574	1.261	23.6	0.33
338	1.3496	0.1497	23.95	0.33
338	1.5966	0.4	23.68	0.33
338	1.6032	2.3992	22.69	0.33
338	1.6049	0.3998	23.37	0.33
338	1.6189	0.3989	23.56	0.33
338	1.7471	0.7487	23.54	0.33
338	1.8004	1.2047	22.91	0.33
338	1.8384	1.7448	22.71	0.33
338	2.2479	2.2482	22.17	0.33
338	2.2505	0.2499	22.86	0.33
338	2.3957	0.5977	22.79	0.33
338	2.4089	1.5982	22.57	0.33
338	3.1461	0.3499	22	0.33
348	0	1	37.67	0.35
348	0	1.9962	37.07	0.34
348	0	1.9992	36.91	0.34
348	0	2.9978	36.14	0.34
348	0	4.993	35.2	0.34
348	0	5.9498	34.31	0.34
348	0	7.7271	32.99	0.34
348	0.1555	1.3482	37.34	0.35
348	0.2047	0.8001	37.73	0.35
348	0.3193	2.247	36.79	0.35
348	0.4016	1.5951	37.11	0.34
348	0.4543	1.046	37.24	0.35
348	0.5977	0.4004	37.87	0.35
348	0.5981	2.3972	36.34	0.34
348	0.7514	0.7503	37.39	0.35
348	0.8006	1.735	36.27	0.34
348	0.802	0.2066	37.58	0.35
348	0.8084	1.2064	37.42	0.34
348	0.8169	3.2006	35.51	0.34
348	1.05	0.4489	37.13	0.34
348	1.0617	2.4501	35.51	0.34
348	1.1899	0.8007	37.06	0.34
348	1.2142	1.801	35.87	0.34
348	1.2574	1.261	36.43	0.34
348	1.5966	0.4	36.51	0.34
348	1.6032	2.3992	35.13	0.34
348	1.7471	0.7487	36.36	0.34
348	1.7678	2.7065	34.29	0.34
348	1.8004	1.2047	35.83	0.34
348	1.8384	1.7448	34.99	0.34
348	2.0077	3.0119	33.37	0.34
348	2.2479	2.2482	33.63	0.34
348	2.2505	0.2499	35.73	0.34
348	2.3957	0.5977	35.73	0.34
348	2.4089	1.5982	34.96	0.34
348	2.4431	1.0471	35.34	0.34
348	3.003	1.998	32.79	0.34
348	3.1192	1.3366	33.45	0.35
348	3.1461	0.3499	34.61	0.34
348	3.2125	0.8023	33.84	0.34
348	3.9958	1.0002	32.69	0.34
348	4.0232	0.4478	32.63	0.35
