Measured thermophysical data. Extractive distillation of methylal/methanol mixture using ethylene glycol as entrainer
Source: Fluid Phase Equilib., 2018, 10.1016/j.fluid.2018.01.038
Compound 1: dimethoxymethane, C3H8O2, InChI=1S/C3H8O2/c1-4-3-5-2/h3H2,1-2H3, purity 98%
Compound 2: methanol, CH4O, InChI=1S/CH4O/c1-2/h2H,1H3, purity 99.9%
Compound 3: 1,2-ethanediol, C2H6O2, InChI=1S/C2H6O2/c3-1-2-4/h3-4H,1-2H2, purity 99.5%

System: dimethoxymethane + methanol; phases: Liquid, Gas
Fixed: Pressure, kPa = 101.3
Property: Boiling temperature at pressure P, K (Liquid); method: Ebulliometric method (Recirculating still)
Mole fraction of dimethoxymethane	Boiling temperature at pressure P, K	uncertainty
0.0978	329.41	0.79
0.2123	323.2	0.67
0.2961	320.67	0.4
0.4457	317.77	0.31
0.5951	316.33	0.27
0.7462	315.29	0.25
0.8461	315.11	0.24
0.898	315.09	0.25
0.9498	315.59	0.28

System: dimethoxymethane + methanol; phases: Gas, Liquid
Fixed: Pressure, kPa = 101.3
Property: Mole fraction of dimethoxymethane (Gas); method: Chromatography
Mole fraction of dimethoxymethane	Mole fraction of dimethoxymethane	uncertainty
0.0978	0.4005	0.0283
0.2123	0.5891	0.0254
0.2961	0.6664	0.0187
0.4457	0.7314	0.0175
0.5951	0.7812	0.0171
0.7462	0.8261	0.0171
0.8461	0.8704	0.0176
0.898	0.8991	0.0188
0.9498	0.9417	0.0198

System: dimethoxymethane + methanol + 1,2-ethanediol; phases: Liquid, Gas
Fixed: Pressure, kPa = 101.3
Property: Boiling temperature at pressure P, K (Liquid); method: Ebulliometric method (Recirculating still)
Mole fraction of dimethoxymethane	Mole fraction of methanol	Boiling temperature at pressure P, K	uncertainty
0.5735	0.032	316.15	0.3
0.5133	0.0928	317.04	0.26
0.4529	0.1526	317.45	0.27
0.3608	0.2468	318.56	0.3
0.2713	0.3368	321.36	0.36
0.182	0.4267	325.45	0.64
0.122	0.4883	331.05	1.13
0.0609	0.5479	339.6	1.93
0.7629	0.0415	316.94	0.26
0.6789	0.1252	316.8	0.26
0.6	0.2034	317.05	0.26
0.4803	0.3244	317.63	0.36
0.3594	0.4455	319.25	0.56
0.2398	0.5654	323.21	0.8
0.1593	0.6459	326.9	1.48
0.0799	0.7254	333.45	1.47
0.6669	0.0366	316.7	0.27
0.5961	0.1092	316.96	0.26
0.5297	0.1772	317.17	0.27
0.4207	0.2848	318.08	0.29
0.3138	0.3921	319.96	0.65
0.2098	0.4975	324.11	1.17
0.1396	0.5671	328.56	0.84
0.0705	0.6365	336.1	1.52

System: dimethoxymethane + methanol + 1,2-ethanediol; phases: Gas, Liquid
Fixed: Pressure, kPa = 101.3
Property: Mole fraction of dimethoxymethane (Gas); method: Chromatography
Mole fraction of dimethoxymethane	Mole fraction of methanol	Mole fraction of dimethoxymethane	uncertainty
0.5735	0.032	0.9722	0.0153
0.5133	0.0928	0.9562	0.016
0.4529	0.1526	0.9319	0.0162
0.3608	0.2468	0.885	0.0163
0.2713	0.3368	0.8416	0.0169
0.182	0.4267	0.7637	0.0179
0.122	0.4883	0.6581	0.0189
0.0609	0.5479	0.4455	0.038
0.7629	0.0415	0.9738	0.0164
0.6789	0.1252	0.9246	0.0164
0.6	0.2034	0.8818	0.0167
0.4803	0.3244	0.8323	0.0163
0.3594	0.4455	0.7703	0.0165
0.2398	0.5654	0.6936	0.0188
0.1593	0.6459	0.6099	0.0354
0.0799	0.7254	0.4167	0.0333
0.6669	0.0366	0.9783	0.0161
0.5961	0.1092	0.9405	0.0165
0.5297	0.1772	0.9093	0.016
0.4207	0.2848	0.8608	0.0161
0.3138	0.3921	0.8071	0.0159
0.2098	0.4975	0.7137	0.0226
0.1396	0.5671	0.6293	0.0185
0.0705	0.6365	0.4253	0.033

System: dimethoxymethane + methanol + 1,2-ethanediol; phases: Gas, Liquid
Fixed: Pressure, kPa = 101.3
Property: Mole fraction of methanol (Gas); method: Chromatography
Mole fraction of dimethoxymethane	Mole fraction of methanol	Mole fraction of methanol	uncertainty
0.5735	0.032	0.0273	0.0153
0.5133	0.0928	0.0433	0.016
0.4529	0.1526	0.0675	0.0162
0.3608	0.2468	0.1144	0.0162
0.2713	0.3368	0.1576	0.0169
0.182	0.4267	0.2353	0.0178
0.122	0.4883	0.3403	0.0187
0.0609	0.5479	0.5517	0.0379
0.7629	0.0415	0.0257	0.0164
0.6789	0.1252	0.0749	0.0163
0.6	0.2034	0.1177	0.0166
0.4803	0.3244	0.1671	0.0162
0.3594	0.4455	0.2291	0.0163
0.2398	0.5654	0.3056	0.0186
0.1593	0.6459	0.389	0.0352
0.0799	0.7254	0.5815	0.0332
0.6669	0.0366	0.0212	0.0161
0.5961	0.1092	0.0589	0.0165
0.5297	0.1772	0.0902	0.016
0.4207	0.2848	0.1387	0.0161
0.3138	0.3921	0.1922	0.0158
0.2098	0.4975	0.2854	0.0224
0.1396	0.5671	0.3694	0.0184
0.0705	0.6365	0.5725	0.0329
