Measured thermophysical data. Vapor-liquid and vapor-liquid-liquid equilibrium measurements and correlation of the binary mixtures 2,3,3,3-tetrafluoroprop-1-ene (R1234yf) p (tetrafluoromethane (R14), trifluoromethane (R23), octafluoropropane (R218), nitrogen (R728) and argon (R740)) and ethane (R170) p trifluoromethane (R23)
Source: Fluid Phase Equilib., 2017, 10.1016/j.fluid.2017.07.002
Compound 1: tetrafluoromethane, CF4, InChI=1S/CF4/c2-1(3,4)5, purity 99.995%
Compound 2: trifluoromethane, CHF3, InChI=1S/CHF3/c2-1(3)4/h1H, purity 99.998%
Compound 3: ethane, C2H6, InChI=1S/C2H6/c1-2/h1-2H3, purity 99.95%
Compound 4: octafluoropropane, C3F8, InChI=1S/C3F8/c4-1(5,2(6,7)8)3(9,10)11, purity 99.99%
Compound 5: nitrogen, N2, InChI=1S/N2/c1-2, purity 99.999%
Compound 6: argon, Ar, InChI=1S/Ar, purity 99.999%
Compound 7: 2,3,3,3-tetrafluoro-1-propene, C3H2F4, InChI=1S/C3H2F4/c1-2(4)3(5,6)7/h1H2, purity 99.5%

System: tetrafluoromethane; phases: Liquid, Gas
Property: Vapor or sublimation pressure, kPa (Liquid); method: Closed cell (Static) method
Temperature, K	Vapor or sublimation pressure, kPa	uncertainty
153.23	171.92	5.69
193.43	1205.31	6.81

System: trifluoromethane; phases: Liquid, Gas
Property: Vapor or sublimation pressure, kPa (Liquid); method: Closed cell (Static) method
Temperature, K	Vapor or sublimation pressure, kPa	uncertainty
193.19	113.55	3.3
233.16	707.03	6.94
273.25	2502.79	12.61
173.86	34.35	0.58
177.11	41.46	0.77
183.2	62.29	0.92
183.19	62.33	0.9
228.83	600.35	3.2

System: ethane; phases: Liquid, Gas
Property: Vapor or sublimation pressure, kPa (Liquid); method: Closed cell (Static) method
Temperature, K	Vapor or sublimation pressure, kPa	uncertainty
173.63	53.57	0.85
177.24	66.42	1.12
183.28	94.31	1.1
228.82	673.93	3.5

System: octafluoropropane; phases: Liquid, Gas
Property: Vapor or sublimation pressure, kPa (Liquid); method: Closed cell (Static) method
Temperature, K	Vapor or sublimation pressure, kPa	uncertainty
223.21	53.1	1.93
272.76	408.18	2.04

System: 2,3,3,3-tetrafluoro-1-propene; phases: Liquid, Gas
Property: Vapor or sublimation pressure, kPa (Liquid); method: Closed cell (Static) method
Temperature, K	Vapor or sublimation pressure, kPa	uncertainty
193.26	5.46	0.38
233.04	62.24	1.29
272.69	310.8	1.5
272.78	311.18	1.49
193.3	5.69	0.38
233.02	61.64	0.61
272.81	311.46	1.5
223.08	37.41	1.14
272.75	310.76	1.49
223.11	37.48	1.14
272.75	310.85	1.49
223	37.74	0.42
272.8	311.8	1.49

System: tetrafluoromethane + 2,3,3,3-tetrafluoro-1-propene; phases: Gas, Liquid
Property: Vapor or sublimation pressure, kPa (Gas); method: Closed cell (Static) method
Temperature, K	Mole fraction of tetrafluoromethane	Vapor or sublimation pressure, kPa	uncertainty
153.24	0.0469	20.8	20.32
153.25	0.1015	44.46	13.3
153.24	0.1669	66.76	20.27
153.24	0.2751	96.86	5.17
153.25	0.4051	120.88	4.74
153.25	0.5708	139.08	3.73
153.27	0.8508	157.37	5.76
153.23	1	171.92	5.69
193.26	0	5.46	0.43
193.25	0.0135	29.52	36.6
193.25	0.0237	55.97	72.56
193.25	0.0337	81.99	81.44
193.27	0.1574	343.72	23.02
193.33	0.2437	492.54	12.71
193.34	0.4719	773.8	9.82
193.33	0.6815	938.28	33.96
193.43	1	1205.31	6.81
233.04	0	62.24	0.91
233.18	0.0188	164.21	101.55
233.2	0.0747	483.87	36.72
233.2	0.1368	815	31.52
233.21	0.214	1203.91	40.18
233.23	0.2711	1465.04	21.64
233.25	0.3471	1795.83	38.86
272.69	0	310.8	1.7
272.78	0	311.18	1.7
272.81	0.0154	399.98	147.86
272.7	0.0377	665.67	72.75
272.71	0.0575	862.15	66.58
272.72	0.0894	1171.59	45.79
272.75	0.1316	1566.35	41.99
273.03	0.2413	2497.85	263.66
272.84	0.3614	3509.27	224.58
272.89	0.492	4500.73	220.34

System: tetrafluoromethane + 2,3,3,3-tetrafluoro-1-propene; phases: Gas, Liquid
Property: Mole fraction of tetrafluoromethane (Gas); method: Chromatography
Temperature, K	Mole fraction of tetrafluoromethane	Mole fraction of tetrafluoromethane	uncertainty
153.24	0.0469	0.9945	0.0055
153.25	0.1015	0.9987	0.0013
153.24	0.1669	0.9992	0.0008
153.24	0.2751	0.9988	0.0012
153.25	0.4051	0.9992	0.0008
153.25	0.5708	0.9994	0.0006
153.27	0.8508	0.9996	0.0004
153.23	1	1	
193.26	0	0	
193.25	0.0135	0.7968	0.2032
193.25	0.0237	0.8978	0.0499
193.25	0.0337	0.9314	0.0686
193.27	0.1574	0.9834	0.0053
193.33	0.2437	0.9885	0.003
193.34	0.4719	0.9929	0.003
193.33	0.6815	0.9947	0.0031
193.43	1	1	
233.04	0	0	
233.18	0.0188	0.6048	0.1768
233.2	0.0747	0.8616	0.0185
233.2	0.1368	0.9143	0.0046
233.21	0.214	0.9383	0.0032
233.23	0.2711	0.9472	0.0034
233.25	0.3471	0.9544	0.0032
272.69	0	0	
272.78	0	0	
272.81	0.0154	0.1953	0.1953
272.7	0.0377	0.4983	0.0637
272.71	0.0575	0.5969	0.0319
272.72	0.0894	0.6947	0.0116
272.75	0.1316	0.7597	0.0059
273.03	0.2413	0.8246	0.0129
272.84	0.3614	0.853	0.0044
272.89	0.492	0.8586	0.0026

System: trifluoromethane + 2,3,3,3-tetrafluoro-1-propene; phases: Gas, Liquid
Property: Vapor or sublimation pressure, kPa (Gas); method: Closed cell (Static) method
Temperature, K	Mole fraction of trifluoromethane	Vapor or sublimation pressure, kPa	uncertainty
193.3	0	5.69	0.43
193.27	0.1035	18.2	9.95
193.27	0.2018	31.18	5.56
193.28	0.3661	50.3	3.69
193.26	0.491	63.91	2.72
193.27	0.6632	80.29	2.95
193.25	0.7437	87.81	2.75
193.19	1	113.55	3.3
233.02	0	61.64	0.91
233.1	0.0505	107.19	13.05
233.15	0.1686	175.78	14.71
233.16	0.3642	300.34	7.52
233.15	0.5665	425.51	4.92
233.15	0.7451	534.05	7.46
233.16	0.8661	613.26	9.77
233.16	1	707.03	6.94
272.81	0	311.46	1.7
272.79	0.0118	334.09	19.79
272.78	0.0327	370.14	29.11
272.78	0.1315	564.49	16.74
272.81	0.3869	1064.21	12.59
272.82	0.5439	1380.42	16.03
272.9	0.7583	1849.95	16.79
272.89	0.8851	2157.16	19.24
272.95	0.9416	2311.68	19.29
273.25	1	2502.79	12.61

System: trifluoromethane + 2,3,3,3-tetrafluoro-1-propene; phases: Gas, Liquid
Property: Mole fraction of trifluoromethane (Gas); method: Chromatography
Temperature, K	Mole fraction of trifluoromethane	Mole fraction of trifluoromethane	uncertainty
193.3	0	0	
193.27	0.1035	0.7294	0.2706
193.27	0.2018	0.8586	0.0614
193.28	0.3661	0.9276	0.0253
193.26	0.491	0.9508	0.0246
193.27	0.6632	0.972	0.0137
193.25	0.7437	0.9799	0.0182
193.19	1	1	
233.02	0	0	
233.1	0.0505	0.3887	0.2421
233.15	0.1686	0.6934	0.0623
233.16	0.3642	0.8522	0.0133
233.15	0.5665	0.9224	0.0038
233.15	0.7451	0.9584	0.003
233.16	0.8661	0.9789	0.003
233.16	1	1	
272.81	0	0	
272.79	0.0118	0.0735	0.0732
272.78	0.0327	0.1789	0.0847
272.78	0.1315	0.4709	0.016
272.81	0.3869	0.7724	0.0066
272.82	0.5439	0.8516	0.0046
272.9	0.7583	0.9268	0.0037
272.89	0.8851	0.965	0.0034
272.95	0.9416	0.9817	0.0032
273.25	1	1	

System: octafluoropropane + 2,3,3,3-tetrafluoro-1-propene; phases: Gas, Liquid
Property: Vapor or sublimation pressure, kPa (Gas); method: Closed cell (Static) method
Temperature, K	Mole fraction of octafluoropropane	Vapor or sublimation pressure, kPa	uncertainty
223.08	0	37.41	1.64
223.1	0.0757	43.2	1.95
223.12	0.223	50.33	1.96
223.12	0.3119	53.04	1.94
223.21	0.8776	56.7	2.09
223.19	0.9684	54.37	2.02
223.21	1	53.1	1.93
272.75	0	310.76	1.56
272.75	0.0109	315.72	2.27
272.75	0.0556	334.38	2.23
272.75	0.0839	344.78	2.2
272.76	0.0999	350.41	2.27
272.76	0.1833	374.94	2.19
272.77	0.2653	393.26	2.06
272.8	0.5286	427.44	2.07
272.81	0.7987	432.05	2.16
272.81	0.8549	428.61	2.18
272.77	0.9377	419.14	2.17
272.76	0.9905	410.04	2.22
272.76	1	408.18	2.04

System: octafluoropropane + 2,3,3,3-tetrafluoro-1-propene; phases: Gas, Liquid
Property: Mole fraction of octafluoropropane (Gas); method: Chromatography
Temperature, K	Mole fraction of octafluoropropane	Mole fraction of octafluoropropane	uncertainty
223.08	0	0	
223.1	0.0757	0.1917	0.0278
223.12	0.223	0.3923	0.0211
223.12	0.3119	0.4687	0.0147
223.21	0.8776	0.8323	0.0348
223.19	0.9684	0.947	0.0284
223.21	1	1	
272.75	0	0	
272.75	0.0109	0.0243	0.0081
272.75	0.0556	0.1123	0.0069
272.75	0.0839	0.1599	0.0066
272.76	0.0999	0.1851	0.007
272.76	0.1833	0.2947	0.0059
272.77	0.2653	0.3796	0.0057
272.8	0.5286	0.5871	0.0059
272.81	0.7987	0.7869	0.0052
272.81	0.8549	0.8367	0.0053
272.77	0.9377	0.9218	0.0054
272.76	0.9905	0.987	0.0061
272.76	1	1	

System: nitrogen + 2,3,3,3-tetrafluoro-1-propene; phases: Gas, Liquid
Property: Vapor or sublimation pressure, kPa (Gas); method: Closed cell (Static) method
Temperature, K	Mole fraction of nitrogen	Vapor or sublimation pressure, kPa	uncertainty
173.16	0.018	12.98	410.92
173.23	0.0047	104.13	32.22
173.76	0.0543	1132.45	158.77
173.22	0.1408	3200.42	200.48
173.23	0.1691	4025.01	274.16
223.11	0	37.48	1.69
223.15	0.0008	49.12	52.04
223.28	0.0023	109.39	140.25
223.38	0.048	1508.32	250.1
223.39	0.0952	3003.5	333.17
223.84	0.1402	4523.62	348.9
272.75	0	310.85	1.51
272.78	0.0039	405.55	116.25
272.78	0.0065	507.83	217.55
272.8	0.0151	785.11	304.71
272.81	0.0364	1496.36	310.2
272.82	0.0666	2485.44	339.54
272.81	0.0952	3492.94	402.26
272.82	0.1233	4485.4	332.27

System: nitrogen + 2,3,3,3-tetrafluoro-1-propene; phases: Gas, Liquid
Property: Mole fraction of nitrogen (Gas); method: Chromatography
Temperature, K	Mole fraction of nitrogen	Mole fraction of nitrogen	uncertainty
173.16	0.018	0.9328	0.021
173.23	0.0047	0.9901	0.0099
173.76	0.0543	0.9987	0.0013
173.22	0.1408	0.999	0.0006
173.23	0.1691	0.9989	0.0006
223.11	0	0	
223.15	0.0008	0.241	0.181
223.28	0.0023	0.656	0.1907
223.38	0.048	0.9677	0.0276
223.39	0.0952	0.979	0.0019
223.84	0.1402	0.9811	0.001
272.75	0	0	
272.78	0.0039	0.2064	0.2064
272.78	0.0065	0.3516	0.1952
272.8	0.0151	0.5628	0.115
272.81	0.0364	0.7504	0.0478
272.82	0.0666	0.8323	0.0201
272.81	0.0952	0.8663	0.0106
272.82	0.1233	0.8829	0.0061

System: argon + 2,3,3,3-tetrafluoro-1-propene; phases: Gas, Liquid
Property: Vapor or sublimation pressure, kPa (Gas); method: Closed cell (Static) method
Temperature, K	Mole fraction of argon	Vapor or sublimation pressure, kPa	uncertainty
173.17	0.0111	14.29	137.15
173.21	0.0067	68.65	82.92
173.44	0.1222	1474.19	105.37
174.85	0.224	2926.62	196.79
176.74	0.3054	4208.85	181.98
223	0	37.74	1.1
223.17	0.0016	52.66	89.03
223.25	0.0035	100.94	194.73
223.3	0.0338	707.92	144.86
223.31	0.0729	1512.56	160.37
223.31	0.1441	3030.82	212.26
223.74	0.204	4506.19	282.7
272.8	0	311.8	1.48
272.81	0.0216	399.98	881.63
272.82	0.0189	510.02	771.43
272.83	0.0337	841.22	690.44
272.83	0.0708	1464	730.07
272.84	0.1103	2492.06	1024.14
272.85	0.1472	3502.28	5744.42
272.86	0.1486	3685.07	5431.09
272.87	0.1753	4486.28	1224.15

System: argon + 2,3,3,3-tetrafluoro-1-propene; phases: Gas, Liquid
Property: Mole fraction of argon (Gas); method: Chromatography
Temperature, K	Mole fraction of argon	Mole fraction of argon	uncertainty
173.17	0.0111	0.9361	0.0639
173.21	0.0067	0.986	0.014
173.44	0.1222	0.9989	0.0011
174.85	0.224	0.999	0.0006
176.74	0.3054	0.9987	0.0006
223	0	0	
223.17	0.0016	0.2981	0.2224
223.25	0.0035	0.6291	0.3709
223.3	0.0338	0.941	0.0337
223.31	0.0729	0.9687	0.003
223.31	0.1441	0.9801	0.0017
223.74	0.204	0.9823	0.0011
272.8	0	0	
272.81	0.0216	0.2551	0.2551
272.82	0.0189	0.3548	0.3548
272.83	0.0337	0.5917	0.2934
272.83	0.0708	0.7501	0.1078
272.84	0.1103	0.8362	0.0612
272.85	0.1472	0.8708	0.1171
272.86	0.1486	0.8745	0.1107
272.87	0.1753	0.8878	0.0207

System: ethane + trifluoromethane; phases: Gas, Liquid
Property: Vapor or sublimation pressure, kPa (Gas); method: Closed cell (Static) method
Temperature, K	Mole fraction of ethane	Vapor or sublimation pressure, kPa	uncertainty
173.86	0	34.35	0.58
173.96	0.0076	42.75	7.32
174	0.0161	50.12	11.36
174.07	0.0289	58.2	12.1
174.02	0.0699	73.49	6.52
173.82	0.1296	82.97	3.18
173.88	0.9218	80.13	3.7
173.87	0.9366	78.3	2.76
173.88	0.9609	73.48	6.4
173.82	0.9829	65.84	7.8
173.63	1	53.57	0.85
177.11	0	41.46	0.77
177.2	0.018	58.77	11.24
177.25	0.0568	79.89	7
177.27	0.0911	91.58	6.1
177.28	0.8723	100.97	2.07
177.29	0.9573	87.56	5.29
177.27	0.9744	80.29	4.24
177.24	1	66.42	1.12
183.2	0	62.29	0.92
183.19	0	62.33	0.9
183.27	0.0273	90.74	25.98
183.28	0.0407	101.9	12.99
183.3	0.0948	127.28	6.36
183.34	0.2602	144.4	3.92
183.3	0.8853	139.97	16.92
183.32	0.9151	135.73	20.14
183.29	0.9435	126.09	15.6
183.3	0.9784	108.76	12.05
183.28	1	94.31	1.1
228.83	0	600.35	3.2
228.85	0.015	651.63	20.16
228.94	0.0464	738.77	28.79
228.92	0.1193	862.24	28.88
228.91	0.2053	939.15	9.27
228.89	0.3465	993.9	5.41
228.94	0.375	1001.08	5.94
228.94	0.7511	985.98	4.95
228.89	0.8956	889.01	8.08
228.91	0.9774	743.7	15.12
228.82	1	673.93	3.5

System: ethane + trifluoromethane; phases: Gas, Liquid
Property: Mole fraction of ethane (Gas); method: Chromatography
Temperature, K	Mole fraction of ethane	Mole fraction of ethane	uncertainty
173.86	0	0	
173.96	0.0076	0.1937	0.1614
174	0.0161	0.3238	0.1758
174.07	0.0289	0.4237	0.126
174.02	0.0699	0.5656	0.0566
173.82	0.1296	0.6266	0.0312
173.88	0.9218	0.6494	0.0435
173.87	0.9366	0.6687	0.0385
173.88	0.9609	0.7225	0.0805
173.82	0.9829	0.8164	0.1186
173.63	1	1	
177.11	0	0	
177.2	0.018	0.2976	0.1404
177.25	0.0568	0.4865	0.0601
177.27	0.0911	0.5594	0.0403
177.28	0.8723	0.6203	0.021
177.29	0.9573	0.7428	0.0451
177.27	0.9744	0.8157	0.0558
177.24	1	1	
183.2	0	0	
183.19	0	0	
183.27	0.0273	0.3184	0.2666
183.28	0.0407	0.3939	0.0893
183.3	0.0948	0.5275	0.0332
183.34	0.2602	0.5991	0.0082
183.3	0.8853	0.6293	0.1075
183.32	0.9151	0.6571	0.1319
183.29	0.9435	0.7195	0.1138
183.3	0.9784	0.8521	0.1059
183.28	1	1	
228.83	0	0	
228.85	0.015	0.0794	0.0281
228.94	0.0464	0.1938	0.0343
228.92	0.1193	0.3325	0.0313
228.91	0.2053	0.412	0.0114
228.89	0.3465	0.4801	0.0074
228.94	0.375	0.4892	0.0073
228.94	0.7511	0.6104	0.0093
228.89	0.8956	0.7249	0.012
228.91	0.9774	0.9023	0.0203
228.82	1	1	

System: ethane + trifluoromethane; phases: Liquid mixture 2, Liquid mixture 1, Gas
Property: Mole fraction of ethane (Liquid mixture 2); method: Chromatography
Temperature, K	Mole fraction of ethane	uncertainty
173.56	0.13	0.0239
177.2	0.1649	0.0437
177.2	0.1646	0.0437
179.63	0.1893	0.0168
182.72	0.2436	0.0132
183.26	0.2609	0.0449
184.76	0.3064	0.0204
186.22	0.4879	0.0316

System: ethane + trifluoromethane; phases: Gas, Liquid mixture 1, Liquid mixture 2
Property: Vapor or sublimation pressure, kPa (Gas); method: Closed cell (Static) method
Temperature, K	Vapor or sublimation pressure, kPa	uncertainty
173.56	80.59	1.3
177.2	101.11	1.37
177.2	101.2	1.37
179.63	116.87	1.61
182.72	139.54	1.83
183.26	143.85	1.87
184.76	156.08	1.95
186.22	168.93	2.03

System: ethane + trifluoromethane; phases: Liquid mixture 1, Liquid mixture 2, Gas
Property: Mole fraction of ethane (Liquid mixture 1); method: Chromatography
Temperature, K	Mole fraction of ethane	uncertainty
173.56	0.8934	0.0445
177.2	0.8518	0.0407
177.2	0.8516	0.0407
179.63	0.8328	0.0421
182.72	0.7769	0.0421
183.26	0.7543	0.0411
184.76	0.7069	0.0412

System: ethane + trifluoromethane; phases: Gas, Liquid mixture 2, Liquid mixture 1
Property: Mole fraction of ethane (Gas); method: Chromatography
Temperature, K	Mole fraction of ethane	uncertainty
173.56	0.6306	0.0248
177.2	0.6122	0.0421
177.2	0.6131	0.0447
179.63	0.613	0.016
182.72	0.6059	0.0155
183.26	0.5986	0.0411
184.76	0.601	0.0137
186.22	0.5968	0.0114
