Measured thermophysical data. Liquid-liquid equilibria of binary systems {benzene + [x-Mim][NTf2]ionic liquid}: Experimental data and thermodynamic modeling usinga group contribution equation of state
Source: Fluid Phase Equilib., 2014, 10.1016/j.fluid.2013.09.048
Compound 1: benzene, C6H6, InChI=1S/C6H6/c1-2-4-6-5-3-1/h1-6H, purity 99.9%
Compound 2: 1-ethyl-3-methylimidazolium bis((trifluoromethyl)sulfonyl)imide, C8H11F6N3O4S2, InChI=1S/C6H11N2.C2F6NO4S2/c1-3-8-5-4-7(2)6-8;3-1(4,5)14(10,11)9-15(12,13)2(6,7)8/h4-6H,3H2,1-2H3;/q+1;-1, purity 99%
Compound 3: 1-hexyl-3-methylimidazolium bis[(trifluoromethyl)sulfonyl]imide, C12H19F6N3O4S2, InChI=1S/C10H19N2.C2F6NO4S2/c1-3-4-5-6-7-12-9-8-11(2)10-12;3-1(4,5)14(10,11)9-15(12,13)2(6,7)8/h8-10H,3-7H2,1-2H3;/q+1;-1, purity 99%

System: benzene + 1-ethyl-3-methylimidazolium bis((trifluoromethyl)sulfonyl)imide; phases: Liquid mixture 1, Liquid mixture 2
Fixed: Pressure, kPa = 101
Property: Mole fraction of benzene (Liquid mixture 1); method: Density calibration data
Temperature, K	Mole fraction of benzene	uncertainty
293.15	0.7762	0.0111
298.15	0.7723	0.0111
303.15	0.7733	0.0111
308.15	0.773	0.0111
313.15	0.7694	0.0111
318.15	0.7709	0.0111
323.15	0.7698	0.0111
328.15	0.7656	0.0112
333.15	0.7667	0.0112

System: benzene + 1-hexyl-3-methylimidazolium bis[(trifluoromethyl)sulfonyl]imide; phases: Liquid mixture 1, Liquid mixture 2
Fixed: Pressure, kPa = 101
Property: Mole fraction of benzene (Liquid mixture 1); method: Density calibration data
Temperature, K	Mole fraction of benzene	uncertainty
293.15	0.8771	0.0103
298.15	0.8769	0.0103
303.15	0.8757	0.0103
308.15	0.875	0.0103
313.15	0.8748	0.0103
318.15	0.8768	0.0103
323.15	0.8777	0.0103
328.15	0.8779	0.0103
333.15	0.8825	0.0103
