Measured thermophysical data. Vapor liquid equilibria for the ternary mixture of carbon dioxide + 1-propanol + propyl acetate at elevated pressures
Source: Fluid Phase Equilib., 2006, 10.1016/j.fluid.2006.07.016
Compound 1: carbon dioxide, CO2, InChI=1S/CO2/c2-1-3, purity 99%
Compound 2: propan-1-ol, C3H8O, InChI=1S/C3H8O/c1-2-3-4/h4H,2-3H2,1H3, purity 99.5%
Compound 3: propyl ethanoate, C5H10O2, InChI=1S/C5H10O2/c1-3-4-7-5(2)6/h3-4H2,1-2H3, purity 99.5%

System: propan-1-ol; phases: Liquid
Property: Refractive index (Na D-line) (Liquid); method: Standard Abbe refractometry
Temperature, K	Pressure, kPa	Refractive index (Na D-line)	uncertainty
298.2	101.325	1.3839	0.0007

System: propan-1-ol; phases: Liquid
Property: Mass density, kg/m3 (Liquid); method: VIBTUB:UFactor:4
Temperature, K	Pressure, kPa	Mass density, kg/m3	uncertainty
298.2	101.325	799.7	0.5

System: propyl ethanoate; phases: Liquid
Property: Refractive index (Na D-line) (Liquid); method: Standard Abbe refractometry
Temperature, K	Pressure, kPa	Refractive index (Na D-line)	uncertainty
298.2	101.325	1.3828	0.0007

System: propyl ethanoate; phases: Liquid
Property: Mass density, kg/m3 (Liquid); method: VIBTUB:UFactor:4
Temperature, K	Pressure, kPa	Mass density, kg/m3	uncertainty
298.2	101.325	882.5	0.4

System: propan-1-ol + propyl ethanoate + carbon dioxide; phases: Liquid, Gas
Property: Mole fraction of propan-1-ol (Liquid); method: Chromatography
Property: Mole fraction of propan-1-ol (Gas); method: Chromatography
Property: Mole fraction of carbon dioxide (Gas); method: Chromatography
Temperature, K	Pressure, kPa	Mole fraction of carbon dioxide	Mole fraction of propan-1-ol	uncertainty	Mole fraction of propan-1-ol	uncertainty	Mole fraction of carbon dioxide	uncertainty
308.2	4120	0.2949	0.5323	0.0038	0.0073	0.0002	0.9896	
308.2	5070	0.3412	0.5177	0.004	0.0051	0.0002	0.9928	
308.2	6110	0.3826	0.48	0.0039	0.0032	0.0002	0.9955	
308.2	7100	0.56	0.36	0.0029	0.0021	0.0002	0.9971	
308.2	4160	0.2921	0.5004	0.0041	0.007	0.0002	0.9898	
308.2	5030	0.3312	0.4686	0.0038	0.0051	0.0002	0.9927	
308.2	6060	0.3909	0.4261	0.0034	0.0028	0.0002	0.9957	
308.2	7010	0.5826	0.3221	0.0026	0.002	0.0002	0.997	
308.2	3990	0.3075	0.4138	0.0033	0.0066	0.0002	0.9897	
308.2	5020	0.3405	0.3877	0.0031	0.005	0.0002	0.9921	
308.2	6090	0.3954	0.3825	0.0031	0.0023	0.0002	0.996	
308.2	6990	0.6246	0.2693	0.0021	0.002	0.0002	0.9969	
308.2	3980	0.4	0.31	0.0025	0.0065	0.0002	0.9897	
308.2	5000	0.4183	0.3	0.0024	0.0049	0.0002	0.9921	
308.2	6050	0.4642	0.2931	0.0023	0.0021	0.0002	0.9959	
308.2	7100	0.6823	0.2054	0.0016	0.0019	0.0002	0.9968	
308.2	3990	0.5291	0.1724	0.0013	0.0063	0.0002	0.9898	
308.2	5030	0.5503	0.1667	0.0013	0.0048	0.0002	0.9921	
308.2	6010	0.59	0.15	0.0012	0.002	0.0002	0.9959	
308.2	7140	0.7829	0.1	0.0008	0.0018	0.0002	0.9961	
313.2	4030	0.2402	0.6469	0.0029	0.0076	0.0002	0.9892	
313.2	5090	0.2942	0.6047	0.0033	0.0055	0.0002	0.9923	
313.2	6000	0.3679	0.5606	0.0036	0.0041	0.0002	0.9943	
313.2	7070	0.5278	0.4019	0.0033	0.0022	0.0002	0.997	
313.2	4070	0.2548	0.5998	0.0033	0.0075	0.0002	0.9891	
313.2	5070	0.3127	0.5487	0.0037	0.0055	0.0002	0.9922	
313.2	6020	0.3609	0.5131	0.004	0.004	0.0002	0.994	
313.2	7090	0.569	0.3105	0.0025	0.0021	0.0002	0.9969	
313.2	4070	0.2809	0.5	0.0041	0.0075	0.0002	0.9887	
313.2	5050	0.3396	0.4786	0.0039	0.0054	0.0002	0.9917	
313.2	6010	0.3739	0.45	0.0036	0.0039	0.0002	0.994	
313.2	7130	0.6316	0.2094	0.0016	0.0021	0.0002	0.9967	
313.2	4060	0.4	0.3	0.0024	0.0074	0.0002	0.9887	
313.2	4980	0.48	0.235	0.0018	0.0054	0.0002	0.9915	
313.2	5950	0.515	0.22	0.0017	0.0037	0.0002	0.9935	
313.2	7000	0.7201	0.1179	0.0009	0.002	0.0002	0.9966	
313.2	4060	0.5937	0.1	0.0008	0.0073	0.0002	0.9887	
313.2	5010	0.6372	0.0746	0.0007	0.0053	0.0002	0.9915	
313.2	6020	0.6732	0.058	0.0006	0.0036	0.0002	0.9934	
313.2	6990	0.7856	0.05	0.0005	0.0019	0.0002	0.9959	
318.2	4010	0.2	0.7	0.0025	0.0085	0.0002	0.988	
318.2	5070	0.25	0.6609	0.0028	0.0057	0.0002	0.992	
318.2	6020	0.3592	0.58	0.0035	0.0042	0.0002	0.9941	
318.2	7070	0.4714	0.4874	0.004	0.0023	0.0002	0.9969	
318.2	10000	0.8584	0.1212	0.001	0.0019	0.0002	0.9978	
318.2	4110	0.2291	0.5855	0.0034	0.0085	0.0002	0.9879	
318.2	5080	0.2978	0.5368	0.0038	0.0056	0.0002	0.992	
318.2	6050	0.36	0.5	0.0041	0.0041	0.0002	0.9939	
318.2	7020	0.51	0.3823	0.0031	0.0022	0.0002	0.9968	
318.2	4110	0.3	0.4	0.0032	0.0083	0.0002	0.9879	
318.2	5020	0.3548	0.38	0.003	0.0055	0.0002	0.9915	
318.2	5960	0.43	0.35	0.0028	0.004	0.0002	0.9939	
318.2	7030	0.6088	0.2612	0.0021	0.0021	0.0002	0.9966	
318.2	9930	0.8605	0.0904	0.0008	0.0016	0.0002	0.9978	
318.2	4020	0.4042	0.29	0.0023	0.0081	0.0002	0.988	
318.2	5030	0.4742	0.2507	0.002	0.0055	0.0002	0.9913	
318.2	6070	0.52	0.23	0.0018	0.0038	0.0002	0.9934	
318.2	7010	0.6641	0.1759	0.0014	0.0021	0.0002	0.9965	
318.2	4050	0.59	0.1216	0.001	0.0079	0.0002	0.988	
318.2	5000	0.6459	0.1	0.0008	0.0054	0.0002	0.9912	
318.2	5990	0.7	0.08	0.0007	0.0038	0.0002	0.9933	
318.2	6960	0.7706	0.07	0.0006	0.002	0.0002	0.9957	
318.2	9950	0.8964	0.0151	0.0004	0.0008	0.0002	0.9976	
