Measured thermophysical data. Vapor-liquid equilibria of ternary systems with 1-ethyl-3-methylimidazolium ethyl sulfate using headspace gas chromatography
Source: Fluid Phase Equilib., 2011, 10.1016/j.fluid.2011.05.016
Compound 1: propan-1-ol, C3H8O, InChI=1S/C3H8O/c1-2-3-4/h4H,2-3H2,1H3
Compound 2: methanol, CH4O, InChI=1S/CH4O/c1-2/h2H,1H3
Compound 3: methyl ethanoate, C3H6O2, InChI=1S/C3H6O2/c1-3(4)5-2/h1-2H3
Compound 4: 1-ethyl-3-methylimidazolium ethyl sulfate, C8H16N2O4S, InChI=1S/C6H11N2.C2H6O4S/c1-3-8-5-4-7(2)6-8;1-2-6-7(3,4)5/h4-6H,3H2,1-2H3;2H2,1H3,(H,3,4,5)/q+1;/p-1, purity 98%
Compound 5: water, H2O, InChI=1S/H2O/h1H2

System: propan-1-ol + water; phases: Gas, Liquid
Fixed: Temperature, K = 322.41
Property: Mole fraction of propan-1-ol (Gas); method: Chromatography
Mole fraction of propan-1-ol	Mole fraction of propan-1-ol	uncertainty
0.05	0.3	0.006
0.1	0.346	0.007
0.2	0.367	0.008
0.3	0.379	0.008
0.35	0.393	0.008
0.4	0.395	0.008
0.499	0.419	0.009
0.6	0.451	0.01
0.7	0.513	0.011
0.798	0.593	0.009
0.898	0.756	0.004
0.948	0.854	0.003

System: methanol + methyl ethanoate; phases: Gas, Liquid
Fixed: Temperature, K = 322.32
Property: Mole fraction of methyl ethanoate (Gas); method: Chromatography
Mole fraction of methyl ethanoate	Mole fraction of methyl ethanoate	uncertainty
0.05	0.166	0.003
0.101	0.269	0.003
0.2	0.392	0.004
0.3	0.459	0.004
0.4	0.524	0.005
0.5	0.574	0.004
0.598	0.629	0.004
0.646	0.657	0.004
0.7	0.687	0.003
0.749	0.722	0.003
0.798	0.76	0.003
0.85	0.807	0.003
0.9	0.859	0.002
0.949	0.924	0.002

System: propan-1-ol + water + 1-ethyl-3-methylimidazolium ethyl sulfate; phases: Gas, Liquid
Property: Mole fraction of propan-1-ol (Gas); method: Chromatography
Temperature, K	Mole fraction of propan-1-ol	Mole fraction of water	Mole fraction of propan-1-ol	uncertainty
322.29	0.01	0.19	0.153	0.003
322.29	0.021	0.179	0.264	0.004
322.29	0.04	0.16	0.446	0.009
322.29	0.06	0.14	0.576	0.01
322.29	0.08	0.12	0.667	0.009
322.29	0.098	0.102	0.738	0.008
322.29	0.119	0.081	0.799	0.006
322.29	0.138	0.062	0.851	0.005
322.29	0.15	0.05	0.882	0.004
322.29	0.16	0.04	0.916	0.004
322.29	0.18	0.02	0.958	0.003
322.29	0.19	0.01	0.973	0.002
322.39	0.026	0.475	0.165	0.016
322.39	0.051	0.45	0.28	0.017
322.39	0.099	0.401	0.446	0.014
322.39	0.15	0.351	0.553	0.022
322.39	0.201	0.3	0.629	0.009
322.39	0.25	0.251	0.692	0.022
322.39	0.3	0.2	0.768	0.019
322.39	0.35	0.15	0.829	0.005
322.39	0.375	0.125	0.854	0.005
322.39	0.398	0.102	0.882	0.008
322.39	0.421	0.08	0.907	0.006
322.39	0.448	0.053	0.935	0.008
322.39	0.475	0.025	0.972	0.004

System: methanol + methyl ethanoate + 1-ethyl-3-methylimidazolium ethyl sulfate; phases: Gas, Liquid
Property: Mole fraction of methyl ethanoate (Gas); method: Chromatography
Temperature, K	Mole fraction of methanol	Mole fraction of methyl ethanoate	Mole fraction of methyl ethanoate	uncertainty
322.13	0.026	0.475	0.264	0.007
322.13	0.05	0.45	0.415	0.029
322.13	0.101	0.399	0.625	0.035
322.13	0.15	0.351	0.742	0.027
322.13	0.213	0.288	0.808	0.019
322.13	0.251	0.25	0.846	0.018
322.13	0.301	0.2	0.892	0.012
322.13	0.351	0.15	0.93	0.011
322.13	0.4	0.101	0.958	0.013
322.13	0.425	0.076	0.97	0.012
322.13	0.45	0.051	0.982	0.013
322.13	0.474	0.027	0.991	0.009
322.17	0.03	0.57	0.234	0.019
322.17	0.06	0.54	0.412	0.412
322.17	0.12	0.48	0.603	0.397
322.17	0.18	0.42	0.714	0.286
322.17	0.241	0.359	0.772	0.02
322.17	0.299	0.301	0.849	0.013
322.17	0.36	0.24	0.898	0.01
322.17	0.42	0.18	0.926	0.013
322.17	0.48	0.12	0.955	0.012
322.17	0.509	0.091	0.967	0.013
322.17	0.532	0.068	0.972	0.012
322.17	0.57	0.03	0.99	0.01
322.48	0.01	0.19	0.289	0.015
322.48	0.021	0.179	0.465	0.016
322.48	0.04	0.16	0.685	0.014
322.48	0.06	0.14	0.77	0.016
322.48	0.08	0.12	0.844	0.018
322.48	0.1	0.1	0.891	0.019
322.48	0.12	0.08	0.936	0.022
322.48	0.14	0.06	0.953	0.024
322.48	0.159	0.041	0.972	0.025
322.48	0.17	0.03	0.98	0.02
322.48	0.18	0.02	0.988	0.012
322.48	0.19	0.01	0.993	0.007
