Measured thermophysical data. Isochoric heat capacity measurements for H2O+CH3OH mixture in the near-critical and supercritical regions
Source: Fluid Phase Equilib., 2007, 10.1016/j.fluid.2006.12.005
Compound 1: methanol, CH4O, InChI=1S/CH4O/c1-2/h2H,1H3, purity 99.95%
Compound 2: water, H2O, InChI=1S/H2O/h1H2

System: methanol + water; phases: Liquid, Gas
Fixed: Mole fraction of methanol = 0.5004
Property: Molar heat capacity at constant volume, J/K/mol (Liquid); method: Small (less than 1 g) adiabatic calorimetry
Temperature, K	Molar heat capacity at constant volume, J/K/mol	uncertainty
556.816	113.605111708016	5.983169171048
559.48	141.19277876448	6.8843996738
560.874	161.59563597956	7.610390912128
561.403	170.307530839496	8.086040344136
561.494	165.2255921712	7.735561815288
561.673	173.136393250912	8.035971982872
561.709	174.037623753664	8.086040344136
561.797	175.965255662328	8.1361087054

System: methanol + water; phases: Gas, Liquid
Fixed: Mole fraction of methanol = 0.5014
Property: Molar heat capacity at constant volume, J/K/mol (Gas); method: Small (less than 1 g) adiabatic calorimetry
Temperature, K	Molar heat capacity at constant volume, J/K/mol	uncertainty
561.944	173.659220600796	8.040474515052
561.966	174.260377573884	8.065522722264

System: methanol + water; phases: Liquid, Gas
Fixed: Mole fraction of methanol = 0.5004
Property: Mass density, kg/m3 (Liquid); method: derived from heat capacity measurements
Temperature, K	Mass density, kg/m3	uncertainty
556.816	394.8	1.19
559.48	342.1	1.03
560.874	290.78	0.88
561.403	269.5	1.99
561.494	214.42	0.64
561.673	259.5	2.19
561.709	235	0.71
561.797	251.44	0.94

System: methanol + water; phases: Gas, Liquid
Fixed: Mole fraction of methanol = 0.5014
Property: Mass density, kg/m3 (Gas); method: derived from heat capacity measurements
Temperature, K	Mass density, kg/m3	uncertainty
561.944	244.77	1.29
561.966	252.54	1.3

System: methanol + water; phases: Fluid (supercritical or subcritical phases)
Property: Molar heat capacity at constant volume, J/K/mol (Fluid (supercritical or subcritical phases)); method: Small (less than 1 g) adiabatic calorimetry
Mole fraction of methanol	Mass density, kg/m3	Temperature, K	Molar heat capacity at constant volume, J/K/mol	uncertainty
0.5004	214.42	561.494	165.250626351832	9.963603891536
0.5004	214.42	561.542	154.46089449944	7.985903621608
0.5004	214.42	561.632	143.420820840728	6.083305893576
0.5004	214.42	561.811	138.539155617488	5.6326906422
0.5004	214.42	561.991	140.291548261728	5.782895725992
0.5004	214.42	562.17	135.209609593432	5.607656461568
0.5004	235	561.709	174.037623753664	7.610390912128
0.5004	235	561.72	173.662111044184	7.460185828336
0.5004	235	561.809	159.793174974056	7.535288370232
0.5004	235	561.903	152.45816004888	6.458818603056
0.5004	235	562.052	153.885108344904	6.483852783688
0.5004	235	562.231	148.177315160808	6.158408435472
0.5004	235	562.41	145.07307676244	5.933100809784
0.5004	235	562.593	145.023008401176	5.958134990416
0.5004	235	562.772	143.420820840728	5.908066629152
0.5004	235	562.951	137.687993476	5.657724822832
0.5004	235	571.335	120.013861949808	6.333647699896
0.5004	235	571.523	115.808119603632	5.6326906422
0.5004	235	571.612	115.557777797312	5.157041210192
0.5004	235	571.783	112.678847024632	4.531186694392
0.5004	235	571.878	115.232333449096	5.25717793272
0.5004	235	572.059	115.03206000404	4.63132341692
0.5004	251.44	561.797	175.965255662328	8.63679231804
0.5004	251.44	561.815	170.98345371656	8.211211247296
0.5004	251.44	561.905	153.58469817732	6.809297131904
0.5004	251.44	562.084	149.228750747352	6.083305893576
0.5004	251.44	562.174	148.127246799544	6.033237532312
0.5004	251.44	572.342	111.15176200608	4.481118333128
0.5004	251.44	575.608	109.174061736152	4.531186694392
0.5004	251.44	575.874	107.52180581444	4.456084152496
0.5004	259.5	561.673	173.136393250912	7.034604757592
0.5004	259.5	561.772	171.23379552288	6.909433854432
0.5004	259.5	561.863	170.057189033176	7.00957057696
0.5004	259.5	562.234	143.82136773084	6.033237532312
0.5004	259.5	562.503	137.888266921056	5.6326906422
0.5004	259.5	562.682	133.281977684768	5.457451377776
0.5004	259.5	562.774	131.729858485584	5.482485558408
0.5004	259.5	570.989	111.602377257456	4.531186694392
0.5004	259.5	571.256	112.228231773256	4.581255055656
0.5004	259.5	571.523	109.249164278048	4.781528500712
0.5004	269.5	561.403	170.307530839496	6.909433854432
0.5004	269.5	561.49	170.632975187712	6.8843996738
0.5004	269.5	561.58	169.631607962432	6.934468035064
0.5004	269.5	561.675	164.199190765288	6.709160409376
0.5004	269.5	566.066	119.588280879064	5.807929906624
0.5004	269.5	566.245	116.484042480696	5.88303244852
0.5004	269.5	566.424	116.333837396904	5.157041210192
0.5004	269.5	566.888	121.766254594048	5.6326906422
0.5004	269.5	578.089	104.968319389976	4.25581070744
0.5004	269.5	578.266	104.26736233228	4.205742346176
0.5004	269.5	578.354	104.342464874176	4.205742346176
0.5004	269.5	578.531	102.540003868672	4.13063980428
0.5004	269.5	578.62	103.541371093952	4.25581070744
0.5004	290.78	560.874	161.59563597956	6.533921144952
0.5004	290.78	560.896	160.894678921864	6.50888696432
0.5004	290.78	560.917	160.694405476808	6.483852783688
0.5004	290.78	560.934	159.46773062584	6.433784422424
0.5004	290.78	561.022	159.592901529	6.458818603056
0.5004	290.78	561.118	157.414927814016	6.358681880528
0.5004	290.78	561.204	156.71397075632	6.333647699896
0.5004	290.78	561.298	155.412193363456	6.308613519264
0.5004	290.78	562.772	136.81179715388	5.732827364728
0.5004	290.78	562.951	132.80632825276	5.557588100304
0.5004	290.78	563.131	130.202773467032	5.407383016512
0.5004	290.78	563.22	130.027534202608	5.38234883588
0.5004	290.78	567.87	121.891425497208	5.056904487664
0.5004	290.78	568.048	120.639716465608	5.157041210192
0.5004	290.78	568.226	118.687050376312	5.332280474616
0.5004	290.78	568.316	117.435341344712	5.557588100304
0.5004	290.78	577.734	107.371600730648	4.330913249336
0.5004	290.78	577.912	106.695677853584	4.305879068704
0.5004	290.78	578.089	105.844515712096	4.280844888072
0.5004	290.78	578.177	104.567772499864	4.25581070744
0.5004	290.78	578.266	103.316063468264	4.205742346176
0.5004	342.1	559.48	141.19277876448	5.682759003464
0.5004	342.1	559.482	141.042573680688	5.682759003464
0.5004	342.1	559.572	141.042573680688	5.682759003464
0.5004	342.1	559.663	137.738061837264	5.557588100304
0.5004	342.1	559.75	139.740796287824	5.6326906422
0.5004	342.1	559.844	137.637925114736	5.557588100304
0.5004	342.1	559.932	137.362549127784	5.557588100304
0.5004	342.1	561.337	123.41851051576	5.0068361264
0.5004	342.1	561.516	124.444911921672	5.031870307032
0.5004	342.1	561.607	121.591015329624	4.906699403872
0.5004	342.1	564.831	115.03206000404	4.63132341692
0.5004	342.1	565.01	113.630145888648	4.581255055656
0.5004	342.1	565.189	112.90415465032	4.556220875024
0.5004	342.1	565.279	110.926454380392	4.481118333128
0.5004	342.1	565.368	110.851351838496	4.456084152496
0.5004	342.1	574.1	104.467635777336	4.205742346176
0.5004	342.1	574.188	99.5108680122	4.00546890112
0.5004	342.1	574.455	99.235492025248	4.00546890112
0.5004	342.1	574.633	100.311961792424	4.030503081752
0.5004	394.8	556.816	113.605111708016	4.63132341692
0.5004	394.8	556.884	113.079393914744	4.606289236288
0.5004	394.8	556.974	113.129462276008	4.606289236288
0.5004	394.8	557.066	113.429872443592	4.606289236288
0.5004	394.8	557.154	115.232333449096	4.681391778184
0.5004	394.8	557.923	112.40347103768	4.581255055656
0.5004	394.8	558.193	112.503607760208	4.581255055656
0.5004	394.8	558.376	113.429872443592	4.606289236288
0.5004	394.8	558.463	111.802650702512	4.556220875024
0.5004	394.8	558.643	110.65107839344	4.50615251376
0.5004	394.8	558.829	110.225497322696	4.481118333128
0.5004	394.8	559.002	111.327001270504	4.531186694392
0.5004	394.8	559.182	109.875018793848	4.481118333128
0.5004	394.8	562.593	105.669276447672	4.25581070744
0.5004	394.8	562.772	105.619208086408	4.25581070744
0.5004	394.8	562.861	104.993353570608	4.230776526808
0.5004	394.8	562.951	102.865448216888	4.155673984912
0.5004	394.8	563.13	101.814012630344	4.105605623648
0.5004	394.8	571.434	101.363397378968	4.080571443016
0.5004	394.8	571.612	98.334261522496	3.955400539856
0.5004	394.8	571.701	99.085286941456	3.980434720488
0.5004	394.8	571.878	99.310594567144	4.00546890112
0.5014	244.77	561.944	173.659220600796	7.339124713116
0.5014	244.77	562.071	170.82877318584	7.088642640996
0.5014	244.77	562.161	167.271927761736	6.988449812148
0.5014	244.77	562.25	163.965564409752	6.8882569833
0.5014	244.77	562.344	158.955922967352	6.737967740028
0.5014	244.77	568.941	123.086890239768	5.360316343368
0.5014	244.77	569.119	120.682262347416	5.159930685672
0.5014	244.77	569.297	118.85374322094	4.959545027976
0.5014	244.77	569.476	117.425995409856	4.859352199128
0.5014	252.54	561.966	174.260377573884	8.967258181896
0.5014	252.54	561.991	161.786370382308	6.988449812148
0.5014	252.54	562.08	156.17557196682	6.712919532816
0.5014	252.54	562.17	151.566701839812	6.362244631848
0.5014	252.54	562.259	150.113905821516	6.237003595788
0.5014	252.54	562.346	148.185193866192	6.111762559728
0.5014	252.54	562.794	144.52815561324	5.911376902032
0.5014	252.54	568.227	119.10422529306	4.984593235188
0.5014	252.54	568.673	117.751622103612	4.809255784704
0.5014	252.54	577.292	109.911533246256	4.533725505372
0.5014	252.54	577.735	108.734267507292	4.50867729816
0.5014	252.54	578.089	109.059894201048	6.237003595788
0.5014	252.54	578.354	107.7072910116	4.333339847676
0.5014	252.54	578.531	107.256423281784	5.109834271248
