Measured thermophysical data. Phase behaviour of tricyanomethanide-based ionic liquids with alcohols and hydrocarbons
Source: Fluid Phase Equilib., 2015, 10.1016/j.fluid.2014.12.003
Compound 1: 1-butyl-1-methylpyrrolidinium tricyanomethanide, C13H20N4, InChI=1S/C9H20N.C4N3/c1-3-4-7-10(2)8-5-6-9-10;5-1-4(2-6)3-7/h3-9H2,1-2H3;/q+1;-1, purity 97%
Compound 2: 4-butyl-4-methylmorpholinium tricyanomethanide, C13H20N4O, InChI=1S/C9H20NO.C4N3/c1-3-4-5-10(2)6-8-11-9-7-10;5-1-4(2-6)3-7/h3-9H2,1-2H3;/q+1;-1, purity 97%
Compound 3: hexan-1-ol, C6H14O, InChI=1S/C6H14O/c1-2-3-4-5-6-7/h7H,2-6H2,1H3, purity 99%
Compound 4: octan-1-ol, C8H18O, InChI=1S/C8H18O/c1-2-3-4-5-6-7-8-9/h9H,2-8H2,1H3, purity 99%
Compound 5: decan-1-ol, C10H22O, InChI=1S/C10H22O/c1-2-3-4-5-6-7-8-9-10-11/h11H,2-10H2,1H3, purity 99%
Compound 6: benzene, C6H6, InChI=1S/C6H6/c1-2-4-6-5-3-1/h1-6H, purity 99.5%
Compound 7: toluene, C7H8, InChI=1S/C7H8/c1-7-5-3-2-4-6-7/h2-6H,1H3, purity 99.5%
Compound 8: ethylbenzene, C8H10, InChI=1S/C8H10/c1-2-8-6-4-3-5-7-8/h3-7H,2H2,1H3, purity 99%
Compound 9: thiophene, C4H4S, InChI=1S/C4H4S/c1-2-4-5-3-1/h1-4H, purity 99%
Compound 10: heptane, C7H16, InChI=1S/C7H16/c1-3-5-7-6-4-2/h3-7H2,1-2H3, purity 99%

System: 1-butyl-1-methylpyrrolidinium tricyanomethanide; phases: Liquid
Property: Mass density, kg/m3 (Liquid); method: Vibrating tube method
Temperature, K	Pressure, kPa	Mass density, kg/m3	uncertainty
298.15	101.325	1006.75	1.27

System: 4-butyl-4-methylmorpholinium tricyanomethanide; phases: Liquid
Property: Mass density, kg/m3 (Liquid); method: Vibrating tube method
Temperature, K	Pressure, kPa	Mass density, kg/m3	uncertainty
298.15	101.325	1067.06	1.34

System: hexan-1-ol; phases: Liquid
Property: Mass density, kg/m3 (Liquid); method: Vibrating tube method
Temperature, K	Pressure, kPa	Mass density, kg/m3	uncertainty
298.15	101.325	814.94	1.01

System: octan-1-ol; phases: Liquid
Property: Mass density, kg/m3 (Liquid); method: Vibrating tube method
Temperature, K	Pressure, kPa	Mass density, kg/m3	uncertainty
298.15	101.325	823.27	1.01

System: decan-1-ol; phases: Liquid
Property: Mass density, kg/m3 (Liquid); method: Vibrating tube method
Temperature, K	Pressure, kPa	Mass density, kg/m3	uncertainty
298.15	101.325	826.38	1.01

System: benzene; phases: Liquid
Property: Mass density, kg/m3 (Liquid); method: Vibrating tube method
Temperature, K	Pressure, kPa	Mass density, kg/m3	uncertainty
298.15	101.325	873.53	1.01

System: toluene; phases: Liquid
Property: Mass density, kg/m3 (Liquid); method: Vibrating tube method
Temperature, K	Pressure, kPa	Mass density, kg/m3	uncertainty
298.15	101.325	863.67	1.01

System: ethylbenzene; phases: Liquid
Property: Mass density, kg/m3 (Liquid); method: Vibrating tube method
Temperature, K	Pressure, kPa	Mass density, kg/m3	uncertainty
298.15	101.325	862.97	1.01

System: thiophene; phases: Liquid
Property: Mass density, kg/m3 (Liquid); method: Vibrating tube method
Temperature, K	Pressure, kPa	Mass density, kg/m3	uncertainty
298.15	101.325	1058.48	1.03

System: heptane; phases: Liquid
Property: Mass density, kg/m3 (Liquid); method: Vibrating tube method
Temperature, K	Pressure, kPa	Mass density, kg/m3	uncertainty
298.15	101.325	679.55	1.01

System: octan-1-ol + 1-butyl-1-methylpyrrolidinium tricyanomethanide; phases: Liquid mixture 1, Liquid mixture 2
Fixed: Pressure, kPa = 101.33
Property: Liquid-liquid equilibrium temperature, K (Liquid mixture 1); method: VISOBS
Mole fraction of 1-butyl-1-methylpyrrolidinium tricyanomethanide	Liquid-liquid equilibrium temperature, K	uncertainty
0.6645	285.7	0.4
0.6344	287.8	0.4
0.607	289.1	0.4
0.5552	291	0.4
0.4871	292.1	0.4
0.4383	292.1	0.4
0.3798	292	0.4
0.2898	291	0.4
0.1939	287.6	0.4

System: decan-1-ol + 1-butyl-1-methylpyrrolidinium tricyanomethanide; phases: Liquid mixture 1, Liquid mixture 2
Fixed: Pressure, kPa = 101.33
Property: Liquid-liquid equilibrium temperature, K (Liquid mixture 1); method: VISOBS
Mole fraction of 1-butyl-1-methylpyrrolidinium tricyanomethanide	Liquid-liquid equilibrium temperature, K	uncertainty
0.88	300.9	0.5
0.8356	310	0.5
0.794	316.2	0.4
0.6948	322.4	0.4
0.6158	324.3	0.4
0.5339	324.8	0.4
0.4596	324.9	0.4
0.3758	324.9	0.4
0.3037	324.3	0.4
0.2388	322.7	0.4
0.2308	322.5	0.4
0.1611	318.7	0.4
0.0709	300.9	0.5

System: benzene + 1-butyl-1-methylpyrrolidinium tricyanomethanide; phases: Liquid mixture 1, Liquid mixture 2
Fixed: Pressure, kPa = 101.33
Property: Liquid-liquid equilibrium temperature, K (Liquid mixture 1); method: VISOBS
Mole fraction of 1-butyl-1-methylpyrrolidinium tricyanomethanide	Liquid-liquid equilibrium temperature, K	uncertainty
0.2359	337.5	0.4
0.2355	321.3	0.4
0.2348	301.8	0.4
0.2342	285.3	0.4

System: toluene + 1-butyl-1-methylpyrrolidinium tricyanomethanide; phases: Liquid mixture 1, Liquid mixture 2
Fixed: Pressure, kPa = 101.33
Property: Liquid-liquid equilibrium temperature, K (Liquid mixture 1); method: VISOBS
Mole fraction of 1-butyl-1-methylpyrrolidinium tricyanomethanide	Liquid-liquid equilibrium temperature, K	uncertainty
0.3486	332.3	1.8
0.3473	330	1.8
0.3283	304.1	1.5
0.3246	298.7	1.3
0.3193	292.8	1.2

System: ethylbenzene + 1-butyl-1-methylpyrrolidinium tricyanomethanide; phases: Liquid mixture 1, Liquid mixture 2
Fixed: Pressure, kPa = 101.33
Property: Liquid-liquid equilibrium temperature, K (Liquid mixture 1); method: VISOBS
Mole fraction of 1-butyl-1-methylpyrrolidinium tricyanomethanide	Liquid-liquid equilibrium temperature, K	uncertainty
0.4735	349.5	1.4
0.4659	339	1.4
0.4586	330.1	1.3
0.4528	322.3	1.4
0.4434	309.4	1.1
0.4417	307.7	1.1
0.4288	292.5	1.3

System: heptane + 1-butyl-1-methylpyrrolidinium tricyanomethanide; phases: Liquid mixture 1, Liquid mixture 2
Fixed: Pressure, kPa = 101.33
Property: Liquid-liquid equilibrium temperature, K (Liquid mixture 1); method: VISOBS
Mole fraction of 1-butyl-1-methylpyrrolidinium tricyanomethanide	Liquid-liquid equilibrium temperature, K	uncertainty
0.975	306.3	1.4
0.9647	319.8	0.8
0.9518	322.4	0.7
0.9437	331.7	1.2

System: hexan-1-ol + 4-butyl-4-methylmorpholinium tricyanomethanide; phases: Liquid mixture 1, Liquid mixture 2
Fixed: Pressure, kPa = 101.33
Property: Liquid-liquid equilibrium temperature, K (Liquid mixture 1); method: VISOBS
Mole fraction of 4-butyl-4-methylmorpholinium tricyanomethanide	Liquid-liquid equilibrium temperature, K	uncertainty
0.4368	290.4	0.4
0.3795	294.7	0.4
0.3421	296.9	0.4
0.2778	299.2	0.4
0.2312	299.8	0.4
0.1818	299.6	0.4
0.1427	298.3	0.4
0.1055	291.8	0.6
0.0964	288.6	0.7
0.0921	283	1.4

System: octan-1-ol + 4-butyl-4-methylmorpholinium tricyanomethanide; phases: Liquid mixture 1, Liquid mixture 2
Fixed: Pressure, kPa = 101.33
Property: Liquid-liquid equilibrium temperature, K (Liquid mixture 1); method: VISOBS
Mole fraction of 4-butyl-4-methylmorpholinium tricyanomethanide	Liquid-liquid equilibrium temperature, K	uncertainty
0.9129	287.5	0.5
0.8759	299.2	0.5
0.8404	308.7	0.5
0.8349	310.3	0.5
0.809	317.4	0.5
0.7996	319.7	0.5
0.7493	327.3	0.4
0.6514	334.7	0.4
0.5576	336.3	0.4
0.4486	337.6	0.4
0.3928	337.4	0.4
0.3873	337.1	0.4
0.3264	336.6	0.4
0.2635	334.8	0.4
0.2148	333.7	0.4
0.1731	331.7	0.4
0.1357	329.7	0.4
0.0866	324.6	0.5
0.0708	318.9	0.6
0.0437	308.3	0.6

System: decan-1-ol + 4-butyl-4-methylmorpholinium tricyanomethanide; phases: Liquid mixture 1, Liquid mixture 2
Fixed: Pressure, kPa = 101.33
Property: Liquid-liquid equilibrium temperature, K (Liquid mixture 1); method: VISOBS
Mole fraction of 4-butyl-4-methylmorpholinium tricyanomethanide	Liquid-liquid equilibrium temperature, K	uncertainty
0.9587	299.1	1.1
0.9476	310.2	1.1
0.9272	330.2	0.9
0.9027	344.9	0.8
0.8882	356.3	0.7
0.8653	365.4	0.5
0.8171	379.2	0.5
0.7616	384	0.4
0.6916	385.5	0.4
0.627	385.8	0.4
0.5631	386.2	0.4
0.507	386.6	0.4
0.4513	386.2	0.4
0.4047	385.2	0.4
0.2612	380.8	0.4
0.1999	376	0.4
0.1177	364.2	0.5
0.0556	342.8	0.6
0.0286	323	0.8

System: benzene + 4-butyl-4-methylmorpholinium tricyanomethanide; phases: Liquid mixture 1, Liquid mixture 2
Fixed: Pressure, kPa = 101.33
Property: Liquid-liquid equilibrium temperature, K (Liquid mixture 1); method: VISOBS
Mole fraction of 4-butyl-4-methylmorpholinium tricyanomethanide	Liquid-liquid equilibrium temperature, K	uncertainty
0.3066	349.6	3.6
0.2959	311.4	3.6
0.2955	309.6	3.6
0.2885	284.5	3.6

System: toluene + 4-butyl-4-methylmorpholinium tricyanomethanide; phases: Liquid mixture 1, Liquid mixture 2
Fixed: Pressure, kPa = 101.33
Property: Liquid-liquid equilibrium temperature, K (Liquid mixture 1); method: VISOBS
Mole fraction of 4-butyl-4-methylmorpholinium tricyanomethanide	Liquid-liquid equilibrium temperature, K	uncertainty
0.4895	350.3	5.2
0.4844	324.1	5.7
0.4826	310.2	6.8
0.4804	297	6.1
0.4784	284.8	6.1

System: ethylbenzene + 4-butyl-4-methylmorpholinium tricyanomethanide; phases: Liquid mixture 1, Liquid mixture 2
Fixed: Pressure, kPa = 101.33
Property: Liquid-liquid equilibrium temperature, K (Liquid mixture 1); method: VISOBS
Mole fraction of 4-butyl-4-methylmorpholinium tricyanomethanide	Liquid-liquid equilibrium temperature, K	uncertainty
0.6417	350.1	6.4
0.6392	334.2	5.9
0.6357	314.5	6.2
0.6337	299.9	6.5
0.6322	292.1	5.2

System: thiophene + 4-butyl-4-methylmorpholinium tricyanomethanide; phases: Liquid mixture 1, Liquid mixture 2
Fixed: Pressure, kPa = 101.33
Property: Liquid-liquid equilibrium temperature, K (Liquid mixture 1); method: VISOBS
Mole fraction of 4-butyl-4-methylmorpholinium tricyanomethanide	Liquid-liquid equilibrium temperature, K	uncertainty
0.2266	293.2	2.6
0.2301	302.2	2.3
0.2365	315.4	2.2
0.2437	331.2	2.2
0.2445	333.4	2.3

System: heptane + 4-butyl-4-methylmorpholinium tricyanomethanide; phases: Liquid mixture 1, Liquid mixture 2
Fixed: Pressure, kPa = 101.33
Property: Liquid-liquid equilibrium temperature, K (Liquid mixture 1); method: VISOBS
Mole fraction of 4-butyl-4-methylmorpholinium tricyanomethanide	Liquid-liquid equilibrium temperature, K	uncertainty
0.9784	308.1	1.2
0.9771	309.6	1.2
0.9692	321.1	1.5
0.9628	330.7	1.6
