Measured thermophysical data. Temperature and pressure dependence of the electrical conductivity of the ionic liquids 1-methyl-3-octylimidazolium hexafluorophosphate and 1-methyl-3-octylimidazolium tetrafluoroborate
Source: Fluid Phase Equilib., 2007, 10.1016/j.fluid.2007.06.019
Compound 1: 1-octyl-3-methylimidazolium hexafluorophosphate, C12H23F6N2P, InChI=1S/C12H23N2.F6P/c1-3-4-5-6-7-8-9-14-11-10-13(2)12-14;1-7(2,3,4,5)6/h10-12H,3-9H2,1-2H3;/q+1;-1
Compound 2: 1-methyl-3-octylimidazolium tetrafluoroborate, C12H23BF4N2, InChI=1S/C12H23N2.BF4/c1-3-4-5-6-7-8-9-14-11-10-13(2)12-14;2-1(3,4)5/h10-12H,3-9H2,1-2H3;/q+1;-1

System: 1-octyl-3-methylimidazolium hexafluorophosphate; phases: Liquid
Fixed: Pressure, kPa = 101.325
Property: Electrical conductivity, S/m (Liquid); method: Alternating current cell with electrodes
Temperature, K	Electrical conductivity, S/m	uncertainty
273.2	0.00325	0.0002
273.22	0.00331	0.0002
273.22	0.00331	0.0002
278.15	0.0053	0.00032
278.15	0.0053	0.00032
278.15	0.0052	0.00031
283.15	0.00823	0.00049
283.15	0.00822	0.00049
283.15	0.00807	0.00048
288.15	0.01212	0.00073
288.16	0.01243	0.00075
288.16	0.01241	0.00075
293.15	0.01813	0.00109
293.15	0.01817	0.00109
293.15	0.01774	0.00107
298.15	0.0259	0.00156
298.15	0.02573	0.00155
298.15	0.02522	0.00151
298.15	0.02526	0.00152
303.15	0.03602	0.00216
303.15	0.03595	0.00216
303.15	0.03529	0.00212
303.15	0.03576	0.00215
308.15	0.04786	0.00287
308.15	0.04802	0.00288
308.16	0.04933	0.00296
308.16	0.04894	0.00294
313.15	0.06553	0.00393
313.15	0.06532	0.00392
313.16	0.06595	0.00396
313.16	0.0654	0.00393
318.15	0.08672	0.00521
318.15	0.08589	0.00516
318.15	0.08631	0.00518
318.15	0.08584	0.00515
323.11	0.1078	0.0065
323.13	0.1104	0.0066
323.15	0.1113	0.0067
323.15	0.1108	0.0067
328.11	0.1419	0.0085
328.12	0.141	0.0085
328.13	0.1364	0.0082
328.13	0.1369	0.0082
333.11	0.1696	0.0102
333.11	0.1703	0.0102
333.19	0.1734	0.0104
338.18	0.2087	0.0125
338.18	0.2098	0.0126
343.16	0.2539	0.0152
343.17	0.2526	0.0152
348.17	0.304	0.0182
348.18	0.3035	0.0182
353.17	0.358	0.0215
353.17	0.3598	0.0216

System: 1-octyl-3-methylimidazolium hexafluorophosphate; phases: Liquid
Property: Electrical conductivity, S/m (Liquid); method: Alternating current cell with electrodes
Temperature, K	Pressure, kPa	Electrical conductivity, S/m	uncertainty
298.15	100	0.02632	0.00162
298.15	19600	0.02015	0.00124
298.15	39200	0.01537	0.00095
298.15	49500	0.01337	0.00083
298.15	59100	0.01174	0.00072
298.15	78500	0.00918	0.00057
298.15	98100	0.00712	0.00044
323.15	100	0.1071	0.0069
323.15	24200	0.0814	0.005
323.15	49000	0.0625	0.0038
323.15	73500	0.0483	0.0029
323.15	98100	0.0375	0.0023
323.15	122600	0.0292	0.0018
323.15	147100	0.0229	0.0014
323.15	171300	0.0181	0.0011
323.15	196100	0.0143	0.0009
348.15	100	0.2901	0.0176
348.15	24500	0.2325	0.0141
348.15	49300	0.1883	0.0114
348.15	73500	0.1523	0.0092
348.15	98100	0.1237	0.0075
348.15	122600	0.1011	0.0061
348.15	147100	0.083	0.005
348.15	171600	0.0681	0.0041
348.15	195800	0.0562	0.0034

System: 1-methyl-3-octylimidazolium tetrafluoroborate; phases: Liquid
Fixed: Pressure, kPa = 101.325
Property: Electrical conductivity, S/m (Liquid); method: Alternating current cell with electrodes
Temperature, K	Electrical conductivity, S/m	uncertainty
273.23	0.00961	0.00058
273.37	0.00973	0.00058
273.37	0.00997	0.00061
278.15	0.01445	0.00087
278.15	0.01484	0.00089
278.15	0.01445	0.00087
283.15	0.02108	0.00127
283.15	0.0218	0.00131
283.15	0.02123	0.00128
288.15	0.0305	0.00183
288.15	0.03033	0.00182
288.16	0.03123	0.00188
293.15	0.04346	0.00261
293.15	0.04229	0.00254
293.16	0.04271	0.00256
298.15	0.05832	0.0035
298.15	0.05837	0.0035
298.15	0.05941	0.00357
298.15	0.05946	0.00357
298.15	0.05765	0.00346
298.16	0.05799	0.00348
303.15	0.07595	0.00456
303.15	0.07939	0.00477
303.15	0.07755	0.00466
308.15	0.0992	0.00596
308.15	0.1041	0.0062
308.15	0.1017	0.0061
313.15	0.1271	0.0076
313.15	0.1311	0.0079
313.15	0.1317	0.0079
318.15	0.1602	0.0096
318.15	0.1654	0.0099
318.15	0.1673	0.01
323.11	0.1984	0.0119
323.11	0.2051	0.0123
323.13	0.2001	0.012
328.15	0.2436	0.0146
328.15	0.2519	0.0151
328.19	0.246	0.0148
333.11	0.3038	0.0182
333.12	0.2945	0.0177
333.16	0.2979	0.0179
338.12	0.3553	0.0213
338.2	0.3526	0.0212
338.2	0.3643	0.0219
343.16	0.4202	0.0252
343.2	0.4158	0.025
343.2	0.4298	0.0258
348.16	0.4854	0.0291
348.17	0.502	0.0301
348.24	0.4937	0.0296
353.15	0.561	0.0337
353.15	0.5806	0.0348
353.21	0.5715	0.0343

System: 1-methyl-3-octylimidazolium tetrafluoroborate; phases: Liquid
Property: Electrical conductivity, S/m (Liquid); method: Alternating current cell with electrodes
Temperature, K	Pressure, kPa	Electrical conductivity, S/m	uncertainty
298.15	100	0.05872	0.00358
298.15	24500	0.04412	0.0027
298.15	49500	0.03329	0.00204
298.15	73500	0.02569	0.00157
298.15	98400	0.01971	0.00121
298.15	122900	0.01523	0.00093
298.15	147100	0.01198	0.00073
298.15	171600	0.00941	0.00058
298.15	196100	0.00742	0.00046
323.15	100	0.203	0.0127
323.15	24500	0.1622	0.0099
323.15	49300	0.1298	0.0079
323.15	73500	0.1062	0.0064
323.15	98100	0.0853	0.0052
323.15	122600	0.0695	0.0042
323.15	147600	0.0567	0.0034
323.15	171600	0.0468	0.0028
323.15	196100	0.0386	0.0024
348.15	100	0.4857	0.0293
348.15	24500	0.4056	0.0245
348.15	49000	0.3389	0.0205
348.15	73500	0.287	0.0173
348.15	98400	0.2425	0.0146
348.15	122600	0.2056	0.0124
348.15	147100	0.1754	0.0106
348.15	171600	0.149	0.009
348.15	196100	0.1277	0.0077
