Measured thermophysical data. Thermophysical properties of 1-ethyl-3-methylimidazolium bromide ionic liquid in water + ethylene carbonate mixtures at T = (298.2, 308.2 and 318.2) K
Source: Fluid Phase Equilib., 2019, 10.1016/j.fluid.2019.05.015
Compound 1: ethylene carbonate, C3H4O3, InChI=1S/C3H4O3/c4-3-5-1-2-6-3/h1-2H2, purity 99%
Compound 2: water, H2O, InChI=1S/H2O/h1H2, purity 99.9%
Compound 3: 1-ethyl-3-methylimidazolium bromide, C6H11BrN2, InChI=1S/C6H11N2.BrH/c1-3-8-5-4-7(2)6-8;/h4-6H,3H2,1-2H3;1H/q+1;/p-1

System: ethylene carbonate + water + 1-ethyl-3-methylimidazolium bromide; phases: Liquid
Fixed: Pressure, kPa = 100
Property: Molar conductivity, S*m2/mol (Liquid); method: Digital multimeter (Martini instrument Mi180)
Temperature, K	Solvent: Mass fraction of ethylene carbonate	Molality, mol/kg of 1-ethyl-3-methylimidazolium bromide	Molar conductivity, S*m2/mol	uncertainty
298.2	0.1	0.0029	0.013552	0.000506
298.2	0.1	0.0051	0.013041	0.000485
298.2	0.1	0.0071	0.012871	0.000478
298.2	0.1	0.0093	0.012637	0.00047
298.2	0.1	0.0104	0.012611	0.000469
298.2	0.1	0.0389	0.011937	0.000443
298.2	0.1	0.0661	0.011355	0.000422
298.2	0.1	0.1092	0.010946	0.000407
298.2	0.1	0.1672	0.010267	0.000381
298.2	0.1	0.2496	0.009662	0.000359
298.2	0.2	0.0029	0.012011	0.000447
298.2	0.2	0.0051	0.011921	0.000443
298.2	0.2	0.0071	0.01183	0.00044
298.2	0.2	0.0093	0.0117	0.000435
298.2	0.2	0.0104	0.011805	0.000439
298.2	0.2	0.0389	0.011037	0.00041
298.2	0.2	0.0661	0.010734	0.000399
298.2	0.2	0.1092	0.010221	0.00038
298.2	0.2	0.1672	0.00962	0.000357
298.2	0.2	0.2496	0.009156	0.00034
298.2	0.3	0.0029	0.01098	0.000408
298.2	0.3	0.0051	0.010819	0.000402
298.2	0.3	0.0071	0.010808	0.000402
298.2	0.3	0.0093	0.010752	0.0004
298.2	0.3	0.0104	0.010687	0.000397
298.2	0.3	0.0389	0.010182	0.000378
298.2	0.3	0.0661	0.009849	0.000366
298.2	0.3	0.1092	0.009417	0.00035
298.2	0.3	0.1672	0.008997	0.000334
298.2	0.3	0.2496	0.008537	0.000317
308.2	0.1	0.0029	0.014108	0.000526
308.2	0.1	0.0051	0.013513	0.000503
308.2	0.1	0.0071	0.013338	0.000496
308.2	0.1	0.0093	0.013172	0.000489
308.2	0.1	0.0104	0.01317	0.000489
308.2	0.1	0.0389	0.012071	0.000448
308.2	0.1	0.0661	0.011786	0.000438
308.2	0.1	0.1092	0.011316	0.00042
308.2	0.1	0.1672	0.010584	0.000393
308.2	0.1	0.2496	0.009832	0.000365
308.2	0.2	0.0029	0.012537	0.000468
308.2	0.2	0.0051	0.012125	0.000451
308.2	0.2	0.0071	0.012109	0.00045
308.2	0.2	0.0093	0.012108	0.00045
308.2	0.2	0.0104	0.012114	0.00045
308.2	0.2	0.0389	0.011095	0.000412
308.2	0.2	0.0661	0.010763	0.0004
308.2	0.2	0.1092	0.010273	0.000382
308.2	0.2	0.1672	0.009869	0.000367
308.2	0.2	0.2496	0.009366	0.000348
308.2	0.3	0.0029	0.011435	0.000426
308.2	0.3	0.0051	0.01111	0.000413
308.2	0.3	0.0071	0.011041	0.00041
308.2	0.3	0.0093	0.010962	0.000407
308.2	0.3	0.0104	0.010947	0.000407
308.2	0.3	0.0389	0.010387	0.000386
308.2	0.3	0.0661	0.010016	0.000372
308.2	0.3	0.1092	0.009595	0.000357
308.2	0.3	0.1672	0.009077	0.000337
308.2	0.3	0.2496	0.008642	0.000321
318.2	0.1	0.0029	0.014384	0.000537
318.2	0.1	0.0051	0.013744	0.000512
318.2	0.1	0.0071	0.013521	0.000502
318.2	0.1	0.0093	0.013419	0.000498
318.2	0.1	0.0104	0.013566	0.000505
318.2	0.1	0.0389	0.012608	0.000468
318.2	0.1	0.0661	0.012029	0.000447
318.2	0.1	0.1092	0.011542	0.000429
318.2	0.1	0.1672	0.010871	0.000404
318.2	0.1	0.2496	0.010218	0.00038
318.2	0.2	0.0029	0.013043	0.000486
318.2	0.2	0.0051	0.012637	0.00047
318.2	0.2	0.0071	0.012461	0.000463
318.2	0.2	0.0093	0.012407	0.000461
318.2	0.2	0.0104	0.012497	0.000465
318.2	0.2	0.0389	0.011452	0.000426
318.2	0.2	0.0661	0.011112	0.000413
318.2	0.2	0.1092	0.010648	0.000396
318.2	0.2	0.1672	0.010096	0.000375
318.2	0.2	0.2496	0.009619	0.000357
318.2	0.3	0.0029	0.01186	0.000441
318.2	0.3	0.0051	0.011805	0.000439
318.2	0.3	0.0071	0.011591	0.000431
318.2	0.3	0.0093	0.011538	0.000429
318.2	0.3	0.0104	0.011491	0.000427
318.2	0.3	0.0389	0.010777	0.000401
318.2	0.3	0.0661	0.010378	0.000386
318.2	0.3	0.1092	0.009846	0.000366
318.2	0.3	0.1672	0.009295	0.000345
318.2	0.3	0.2496	0.00895	0.000333

System: ethylene carbonate + water + 1-ethyl-3-methylimidazolium bromide; phases: Liquid
Fixed: Pressure, kPa = 100
Property: Refractive index (Na D-line) (Liquid); method: Standard Abbe refractometry
Temperature, K	Mole fraction of water	Mole fraction of 1-ethyl-3-methylimidazolium bromide	Refractive index (Na D-line)	uncertainty
298.2	0.4483	0.1018	1.444	0.0005
298.2	0.2986	0.1056	1.4455	0.0005
298.2	0.5938	0.1042	1.4415	0.0005
298.2	0.4216	0.1443	1.455	0.0005
298.2	0.64	0.1494	1.4535	0.0005
298.2	0.2156	0.1545	1.459	0.0005
298.2	0.3998	0.1999	1.4695	0.0005
298.2	0.523	0.198	1.468	0.0005
298.2	0.261	0.204	1.47	0.0005
298.2	0.3727	0.2543	1.4815	0.0005
298.2	0.5616	0.2473	1.4825	0.0005
298.2	0.1888	0.2534	1.479	0.0005
298.2	0.3482	0.2978	1.49	0.0005
298.2	0.4673	0.299	1.493	0.0005
298.2	0.225	0.3092	1.491	0.0005
308.2	0.4476	0.1019	1.441	0.0005
308.2	0.2986	0.1056	1.4415	0.0005
308.2	0.5932	0.1044	1.44	0.0005
308.2	0.4208	0.1445	1.4515	0.0005
308.2	0.6388	0.1499	1.4505	0.0005
308.2	0.2156	0.1545	1.455	0.0005
308.2	0.3985	0.2004	1.468	0.0005
308.2	0.5216	0.1986	1.4655	0.0005
308.2	0.261	0.204	1.466	0.0005
308.2	0.3706	0.2551	1.478	0.0005
308.2	0.5605	0.248	1.48	0.0005
308.2	0.1895	0.2532	1.4765	0.0005
308.2	0.3466	0.2985	1.4875	0.0005
308.2	0.4669	0.2992	1.4915	0.0005
308.2	0.225	0.3092	1.4875	0.0005
318.2	0.4466	0.1021	1.4375	0.0005
318.2	0.2973	0.1058	1.4395	0.0005
318.2	0.5923	0.1046	1.4355	0.0005
318.2	0.4199	0.1448	1.45	0.0005
318.2	0.638	0.1503	1.4495	0.0005
318.2	0.2141	0.1548	1.4525	0.0005
318.2	0.3975	0.2007	1.463	0.0005
318.2	0.5206	0.199	1.464	0.0005
318.2	0.2594	0.2045	1.4625	0.0005
318.2	0.3697	0.2555	1.4725	0.0005
318.2	0.5596	0.2485	1.479	0.0005
318.2	0.1888	0.2534	1.4735	0.0005
318.2	0.3457	0.2989	1.4855	0.0005
318.2	0.4673	0.299	1.488	0.0005
318.2	0.225	0.3092	1.485	0.0005

System: ethylene carbonate + water + 1-ethyl-3-methylimidazolium bromide; phases: Liquid
Fixed: Pressure, kPa = 100
Property: Mean ionic activity coefficient of 1-ethyl-3-methylimidazolium bromide (Liquid); method: Electrochemical cell potential
Solvent: Mass fraction of ethylene carbonate	Temperature, K	Molality, mol/kg of 1-ethyl-3-methylimidazolium bromide	Mean ionic activity coefficient of 1-ethyl-3-methylimidazolium bromide	uncertainty
0	298.2	0.021	0.8957	0.005
0	298.2	0.0419	0.748	0.0051
0	298.2	0.0585	0.7149	0.0052
0	298.2	0.0791	0.6998	0.005
0	298.2	0.0995	0.6908	0.0049
0	298.2	0.2548	0.5703	0.0048
0	298.2	0.4968	0.4953	0.0048
0	298.2	0.7334	0.4503	0.0048
0	298.2	1.0026	0.397	0.0048
0	298.2	1.2441	0.3781	0.0048
0	298.2	1.4893	0.3607	0.0048
0	308.2	0.0211	0.8798	0.0044
0	308.2	0.042	0.8527	0.0045
0	308.2	0.0586	0.8229	0.0045
0	308.2	0.0793	0.769	0.0045
0	308.2	0.0999	0.7385	0.0045
0	308.2	0.2555	0.6299	0.0045
0	308.2	0.4948	0.5249	0.0044
0	308.2	0.7324	0.4686	0.0044
0	308.2	1.0027	0.4203	0.0044
0	308.2	1.2453	0.3899	0.0044
0	308.2	1.489	0.3748	0.0044
0	308.2	1.7437	0.363	0.0044
0	308.2	1.9948	0.3456	0.0044
0	308.2	2.2514	0.322	0.0044
0	308.2	2.4993	0.3074	0.0044
0	318.2	0.0093	0.8999	0.0044
0	318.2	0.0187	0.8927	0.0044
0	318.2	0.0418	0.8287	0.0044
0	318.2	0.0603	0.7921	0.0044
0	318.2	0.0786	0.7691	0.0044
0	318.2	0.1014	0.7508	0.0044
0	318.2	0.2568	0.6434	0.0044
0	318.2	0.4956	0.5317	0.0044
0	318.2	0.7332	0.4709	0.0044
0	318.2	1.0028	0.423	0.0044
0	318.2	1.2439	0.3986	0.0044
0	318.2	1.4871	0.3846	0.0044
0	318.2	1.7428	0.3658	0.0044
0	318.2	1.9953	0.3435	0.0044
0	318.2	2.2511	0.3298	0.0044
0	318.2	2.4999	0.3199	0.0044
0.1	298.2	0.0389	0.8339	0.0048
0.1	298.2	0.0604	0.793	0.0048
0.1	298.2	0.0816	0.7715	0.0048
0.1	298.2	0.0985	0.7554	0.0048
0.1	298.2	0.2545	0.6314	0.0048
0.1	298.2	0.496	0.5383	0.0048
0.1	298.2	0.7319	0.4801	0.0048
0.1	298.2	1.0039	0.453	0.0048
0.1	298.2	1.2442	0.4223	0.0048
0.1	298.2	1.4878	0.3915	0.0048
0.1	298.2	1.7439	0.365	0.0048
0.1	298.2	1.9948	0.3416	0.0048
0.1	298.2	2.2515	0.3253	0.0048
0.1	298.2	2.4993	0.3157	0.0048
0.1	308.2	0.0082	0.8934	0.0044
0.1	308.2	0.0205	0.8487	0.0045
0.1	308.2	0.0409	0.7918	0.0044
0.1	308.2	0.0611	0.788	0.0044
0.1	308.2	0.0812	0.7692	0.0044
0.1	308.2	0.1012	0.745	0.0044
0.1	308.2	0.2563	0.6549	0.0044
0.1	308.2	0.4954	0.5636	0.0044
0.1	308.2	0.7316	0.5018	0.0044
0.1	308.2	1.0039	0.4545	0.0647
0.1	308.2	1.2447	0.4287	0.0044
0.1	308.2	1.4874	0.405	0.0044
0.1	308.2	1.743	0.3687	0.0044
0.1	308.2	1.9941	0.3464	0.0044
0.1	308.2	2.251	0.3248	0.0044
0.1	308.2	2.4992	0.3103	0.0044
0.1	318.2	0.0206	0.8536	0.0044
0.1	318.2	0.0411	0.8162	0.0045
0.1	318.2	0.0615	0.7925	0.0044
0.1	318.2	0.0817	0.7755	0.0044
0.1	318.2	0.1018	0.7529	0.0044
0.1	318.2	0.254	0.6649	0.0044
0.1	318.2	0.4948	0.5807	0.0044
0.1	318.2	0.7328	0.5262	0.0044
0.1	318.2	1.0013	0.4704	0.0044
0.1	318.2	1.2443	0.4385	0.0044
0.1	318.2	1.4893	0.4186	0.0044
0.1	318.2	1.7429	0.3945	0.0044
0.1	318.2	1.9949	0.3743	0.0044
0.1	318.2	2.2513	0.358	0.0045
0.1	318.2	2.4998	0.3426	0.0045
0.2	298.2	0.0077	0.9142	0.0048
0.2	298.2	0.0192	0.8289	0.0048
0.2	298.2	0.042	0.8283	0.0048
0.2	298.2	0.0608	0.8035	0.0048
0.2	298.2	0.0796	0.7767	0.0048
0.2	298.2	0.0982	0.7641	0.0048
0.2	298.2	0.2568	0.649	0.0048
0.2	298.2	0.4975	0.5591	0.0048
0.2	298.2	0.732	0.4985	0.0048
0.2	298.2	1.0037	0.4458	0.0048
0.2	298.2	1.2445	0.4081	0.0048
0.2	298.2	1.4885	0.3817	0.0048
0.2	298.2	1.7435	0.3602	0.0049
0.2	298.2	1.9946	0.3444	0.0049
0.2	298.2	2.2513	0.3324	0.0049
0.2	298.2	2.5001	0.3241	0.005
0.2	308.2	0.0192	0.888	0.0044
0.2	308.2	0.0383	0.809	0.0044
0.2	308.2	0.0611	0.7829	0.0044
0.2	308.2	0.0799	0.7686	0.0044
0.2	308.2	0.0986	0.751	0.0044
0.2	308.2	0.2543	0.667	0.0044
0.2	308.2	0.4963	0.5714	0.0044
0.2	308.2	0.7322	0.5266	0.0044
0.2	308.2	1.0027	0.4784	0.0044
0.2	308.2	1.245	0.4537	0.0044
0.2	308.2	1.4884	0.4213	0.0044
0.2	308.2	1.7435	0.4032	0.0045
0.2	308.2	1.9949	0.3965	0.0045
0.2	308.2	2.251	0.3908	0.0045
0.2	308.2	2.4951	0.386	0.0044
0.2	318.2	0.0081	0.8678	0.0045
0.2	318.2	0.0203	0.8522	0.0045
0.2	318.2	0.0405	0.8224	0.0044
0.2	318.2	0.0606	0.7961	0.0044
0.2	318.2	0.0805	0.7931	0.0044
0.2	318.2	0.1003	0.7681	0.0044
0.2	318.2	0.254	0.6615	0.0044
0.2	318.2	0.4977	0.5803	0.0044
0.2	318.2	0.7313	0.5159	0.0044
0.2	318.2	1.0033	0.4798	0.0044
0.2	318.2	1.2437	0.459	0.0044
0.2	318.2	1.4879	0.4419	0.0044
0.2	318.2	1.7437	0.4326	0.0044
0.2	318.2	1.9945	0.4182	0.0044
0.2	318.2	2.2516	0.4018	0.0044
0.2	318.2	2.3758	0.3959	0.0045
0.3	298.2	0.0113	0.9522	0.0052
0.3	298.2	0.0188	0.8792	0.0049
0.3	298.2	0.0413	0.8057	0.0049
0.3	298.2	0.0598	0.7792	0.0049
0.3	298.2	0.0819	0.7513	0.0048
0.3	298.2	0.1002	0.7351	0.0049
0.3	298.2	0.2559	0.66	0.0048
0.3	298.2	0.4951	0.5946	0.0048
0.3	298.2	0.7334	0.5369	0.0048
0.3	298.2	1.0035	0.4828	0.0048
0.3	298.2	1.2445	0.4379	0.0048
0.3	298.2	1.4892	0.391	0.0048
0.3	298.2	1.7443	0.3598	0.0048
0.3	298.2	1.995	0.3419	0.0048
0.3	298.2	2.2513	0.3286	0.0048
0.3	308.2	0.0189	0.8704	0.0044
0.3	308.2	0.0414	0.8423	0.0044
0.3	308.2	0.06	0.8194	0.0044
0.3	308.2	0.0785	0.7834	0.0044
0.3	308.2	0.1005	0.7683	0.0044
0.3	308.2	0.2567	0.6959	0.0044
0.3	308.2	0.4967	0.6084	0.0044
0.3	308.2	0.7329	0.5625	0.0044
0.3	308.2	1.0016	0.5115	0.0044
0.3	308.2	1.2439	0.4559	0.0044
0.3	308.2	1.4878	0.4253	0.0044
0.3	308.2	1.7445	0.3965	0.0044
0.3	308.2	1.9951	0.3743	0.0044
0.3	308.2	2.2518	0.3544	0.0044
0.3	318.2	0.0082	0.8315	0.0045
0.3	318.2	0.0204	0.8213	0.0045
0.3	318.2	0.0407	0.8078	0.0045
0.3	318.2	0.0608	0.7893	0.0044
0.3	318.2	0.0808	0.7761	0.0044
0.3	318.2	0.1007	0.7537	0.0044
0.3	318.2	0.2547	0.6693	0.0044
0.3	318.2	0.495	0.5957	0.0044
0.3	318.2	0.7313	0.5422	0.0044
0.3	318.2	1.0017	0.5015	0.0044
0.3	318.2	1.2449	0.467	0.0044
0.3	318.2	1.4879	0.4436	0.0044
0.3	318.2	1.7432	0.4185	0.0044
0.3	318.2	1.9935	0.399	0.0044
0.3	318.2	2.2512	0.3831	0.0044

System: ethylene carbonate + water; phases: Liquid
Fixed: Pressure, kPa = 100
Property: Refractive index (Na D-line) (Liquid); method: Standard Abbe refractometry
Temperature, K	Mole fraction of water	Refractive index (Na D-line)	uncertainty
298.2	0.9778	1.34	0.0005
298.2	0.9593	1.345	0.0005
298.2	0.9186	1.356	0.0005
298.2	0.881	1.364	0.0005
298.2	0.8239	1.375	0.0005
298.2	0.7789	1.3805	0.0005
298.2	0.7258	1.386	0.0005
298.2	0.6887	1.391	0.0005
298.2	0.6159	1.397	0.0005
298.2	0.5766	1.399	0.0005
298.2	0.5337	1.401	0.0005
298.2	0.4758	1.4055	0.0005
298.2	0.4172	1.4085	0.0005
298.2	0.3321	1.4125	0.0005
298.2	0.2943	1.414	0.0005
298.2	0.1962	1.4175	0.0005
298.2	0.0993	1.4205	0.0005
308.2	0.9777	1.3385	0.0005
308.2	0.9591	1.3435	0.0005
308.2	0.9183	1.354	0.0005
308.2	0.8807	1.361	0.0005
308.2	0.8234	1.3705	0.0005
308.2	0.7785	1.3765	0.0005
308.2	0.725	1.381	0.0005
308.2	0.688	1.3875	0.0005
308.2	0.6159	1.3925	0.0005
308.2	0.5753	1.3955	0.0005
308.2	0.5337	1.3985	0.0005
308.2	0.4739	1.4015	0.0005
308.2	0.4172	1.4055	0.0005
308.2	0.3321	1.409	0.0005
308.2	0.2943	1.411	0.0005
308.2	0.1962	1.4145	0.0005
308.2	0.0993	1.417	0.0005
318.2	0.9777	1.337	0.0005
318.2	0.959	1.3425	0.0005
318.2	0.9181	1.3505	0.0005
318.2	0.8803	1.3585	0.0005
318.2	0.8228	1.368	0.0005
318.2	0.7779	1.374	0.0005
318.2	0.7243	1.3785	0.0005
318.2	0.6871	1.384	0.0005
318.2	0.6147	1.3895	0.0005
318.2	0.5744	1.3925	0.0005
318.2	0.5315	1.395	0.0005
318.2	0.473	1.3985	0.0005
318.2	0.4172	1.4015	0.0005
318.2	0.3321	1.406	0.0005
318.2	0.2943	1.4075	0.0005
318.2	0.1962	1.4105	0.0005
318.2	0.0993	1.414	0.0005

System: water + 1-ethyl-3-methylimidazolium bromide; phases: Liquid
Fixed: Pressure, kPa = 100
Property: Refractive index (Na D-line) (Liquid); method: Standard Abbe refractometry
Temperature, K	Mole fraction of water	Refractive index (Na D-line)	uncertainty
298.2	0.8884	1.4305	0.0005
298.2	0.7863	1.4625	0.0005
298.2	0.6884	1.4985	0.0005
298.2	0.5966	1.5115	0.0005
298.2	0.471	1.525	0.0005
298.2	0.3857	1.5335	0.0006
298.2	0.2981	1.536	0.0006
298.2	0.188	1.545	0.0006
298.2	0.0971	1.549	0.0006
308.2	0.888	1.427	0.0005
308.2	0.7851	1.4595	0.0005
308.2	0.6871	1.4955	0.0005
308.2	0.5983	1.509	0.0005
308.2	0.4714	1.5235	0.0005
308.2	0.3829	1.53	0.0006
308.2	0.2947	1.534	0.0006
308.2	0.1801	1.5425	0.0006
308.2	0.0926	1.5455	0.0006
318.2	0.8876	1.425	0.0005
318.2	0.7844	1.458	0.0005
318.2	0.6862	1.4925	0.0005
318.2	0.5974	1.5065	0.0005
318.2	0.4704	1.521	0.0005
318.2	0.382	1.5265	0.0006
318.2	0.2939	1.531	0.0006
318.2	0.1796	1.54	0.0006
318.2	0.0923	1.5425	0.0006

System: water + 1-ethyl-3-methylimidazolium bromide; phases: Liquid
Fixed: Pressure, kPa = 100
Property: Mean ionic activity coefficient of 1-ethyl-3-methylimidazolium bromide (Liquid); method: Electrochemical cell potential
Temperature, K	Molality, mol/kg of 1-ethyl-3-methylimidazolium bromide	Mean ionic activity coefficient of 1-ethyl-3-methylimidazolium bromide	uncertainty
298.2	0.021	0.8957	0.005
298.2	0.0419	0.748	0.0051
298.2	0.0585	0.7149	0.0052
298.2	0.0791	0.6998	0.005
298.2	0.0995	0.6908	0.0049
298.2	0.2548	0.5703	0.0048
298.2	0.4968	0.4953	0.0048
298.2	0.7334	0.4503	0.0048
298.2	1.0026	0.397	0.0048
298.2	1.2441	0.3781	0.0048
298.2	1.4893	0.3607	0.0048
308.2	0.0211	0.8798	0.0044
308.2	0.042	0.8527	0.0045
308.2	0.0586	0.8229	0.0045
308.2	0.0793	0.769	0.0045
308.2	0.0999	0.7385	0.0045
308.2	0.2555	0.6299	0.0045
308.2	0.4948	0.5249	0.0044
308.2	0.7324	0.4686	0.0044
308.2	1.0027	0.4203	0.0044
308.2	1.2453	0.3899	0.0044
308.2	1.489	0.3748	0.0044
308.2	1.7437	0.363	0.0044
308.2	1.9948	0.3456	0.0044
308.2	2.2514	0.322	0.0044
308.2	2.4993	0.3074	0.0044
318.2	0.0093	0.8999	0.0044
318.2	0.0187	0.8927	0.0044
318.2	0.0418	0.8287	0.0044
318.2	0.0603	0.7921	0.0044
318.2	0.0786	0.7691	0.0044
318.2	0.1014	0.7508	0.0044
318.2	0.2568	0.6434	0.0044
318.2	0.4956	0.5317	0.0044
318.2	0.7332	0.4709	0.0044
318.2	1.0028	0.423	0.0044
318.2	1.2439	0.3986	0.0044
318.2	1.4871	0.3846	0.0044
318.2	1.7428	0.3658	0.0044
318.2	1.9953	0.3435	0.0044
318.2	2.2511	0.3298	0.0044
318.2	2.4999	0.3199	0.0044

System: ethylene carbonate + 1-ethyl-3-methylimidazolium bromide; phases: Liquid
Fixed: Pressure, kPa = 100
Property: Refractive index (Na D-line) (Liquid); method: Standard Abbe refractometry
Temperature, K	Mole fraction of ethylene carbonate	Refractive index (Na D-line)	uncertainty
298.2	0.8946	1.45	0.0006
298.2	0.7981	1.4695	0.0006
298.2	0.7142	1.4835	0.0006
298.2	0.6002	1.498	0.0006
298.2	0.4655	1.5105	0.0006
298.2	0.3671	1.5245	0.0006
298.2	0.2945	1.531	0.0006
298.2	0.222	1.5405	0.0006
298.2	0.106	1.5505	0.0006
308.2	0.8946	1.445	0.0005
308.2	0.7981	1.466	0.0006
308.2	0.7142	1.481	0.0006
308.2	0.6002	1.4955	0.0006
308.2	0.4655	1.5085	0.0006
308.2	0.3671	1.5235	0.0006
308.2	0.2945	1.529	0.0006
308.2	0.222	1.5385	0.0006
308.2	0.106	1.548	0.0006
318.2	0.8946	1.4425	0.0005
318.2	0.7981	1.4635	0.0006
318.2	0.7142	1.4775	0.0006
318.2	0.6002	1.493	0.0006
318.2	0.4655	1.5065	0.0006
318.2	0.3671	1.52	0.0006
318.2	0.2945	1.5275	0.0006
318.2	0.222	1.5345	0.0006
318.2	0.106	1.5455	0.0006
