Measured thermophysical data. Influence of sulfate-based anion ionic liquids on the separation factor of the binary azeotropic system acetone + methanol
Source: Fluid Phase Equilib., 2013, 10.1016/j.fluid.2012.12.006
Compound 1: 1-ethyl-3-methylimidazolium hydrogen sulfate, C6H12N2O4S, InChI=1S/C6H11N2.H2O4S/c1-3-8-5-4-7(2)6-8;1-5(2,3)4/h4-6H,3H2,1-2H3;(H2,1,2,3,4)/q+1;/p-1, purity 99%
Compound 2: 1-ethyl-3-methylimidazolium methylsulfate, C7H14N2O4S, InChI=1S/C6H11N2.CH4O4S/c1-3-8-5-4-7(2)6-8;1-5-6(2,3)4/h4-6H,3H2,1-2H3;1H3,(H,2,3,4)/q+1;/p-1, purity 99%
Compound 3: acetone, C3H6O, InChI=1S/C3H6O/c1-3(2)4/h1-2H3, purity 99.9%
Compound 4: methanol, CH4O, InChI=1S/CH4O/c1-2/h2H,1H3, purity 99.9%

System: methanol + acetone; phases: Liquid, Gas
Fixed: Temperature, K = 313.34
Property: Vapor or sublimation pressure, kPa (Liquid); method: Closed cell (Static) method
Mole fraction of acetone	Vapor or sublimation pressure, kPa	uncertainty
0.05	101	101
0.1	101	101
0.2	101	101
0.301	101	101
0.401	101	101
0.5	101	101
0.602	101	101
0.7	101	101
0.751	101	101
0.8	101	101
0.85	101	101
0.892	101	101
0.95	101	101

System: methanol + acetone; phases: Gas, Liquid
Fixed: Temperature, K = 313.34
Property: Mole fraction of acetone (Gas); method: Chromatography
Mole fraction of acetone	Mole fraction of acetone	uncertainty
0.05	0.108	0.011
0.1	0.197	0.011
0.2	0.336	0.011
0.301	0.434	0.011
0.401	0.542	0.011
0.5	0.61	0.011
0.602	0.677	0.01
0.7	0.734	0.01
0.751	0.776	0.01
0.8	0.816	0.01
0.85	0.852	0.01
0.892	0.89	0.01
0.95	0.949	0.01

System: methanol + acetone + 1-ethyl-3-methylimidazolium hydrogen sulfate; phases: Liquid, Gas
Fixed: Temperature, K = 313.24
Fixed: Pressure, kPa = 101
Property: Mole fraction of methanol (Liquid); method: Chromatography
Property: Mole fraction of methanol (Gas); method: Chromatography
Property: Mole fraction of acetone (Gas); method: Chromatography
Mole fraction of acetone	Mole fraction of methanol	uncertainty	Mole fraction of methanol	uncertainty	Mole fraction of acetone	uncertainty
0.012	0.189	0.002	0.592	0.016	0.408	
0.021	0.182	0.002	0.46	0.016	0.54	
0.045	0.17	0.002	0.274	0.016	0.726	
0.068	0.159	0.002	0.195	0.016	0.805	
0.081	0.12	0.002	0.111	0.016	0.889	
0.104	0.1	0.002	0.076	0.016	0.924	
0.12	0.081	0.002	0.059	0.016	0.941	
0.14	0.067	0.002	0.035	0.016	0.965	
0.161	0.041	0.002	0.011	0.011	0.989	
0.181	0.021	0.002	0.006	0.006	0.994	

System: methanol + acetone + 1-ethyl-3-methylimidazolium methylsulfate; phases: Liquid, Gas
Fixed: Temperature, K = 313.05
Fixed: Pressure, kPa = 101
Property: Mole fraction of methanol (Liquid); method: Chromatography
Property: Mole fraction of methanol (Gas); method: Chromatography
Property: Mole fraction of acetone (Gas); method: Chromatography
Mole fraction of acetone	Mole fraction of methanol	uncertainty	Mole fraction of methanol	uncertainty	Mole fraction of acetone	uncertainty
0.025	0.475	0.004	0.843	0.012	0.157	
0.05	0.45	0.004	0.693	0.012	0.307	
0.1	0.4	0.004	0.513	0.013	0.487	
0.15	0.35	0.003	0.368	0.012	0.632	
0.2	0.3	0.003	0.247	0.012	0.753	
0.25	0.25	0.003	0.185	0.012	0.815	
0.3	0.201	0.003	0.117	0.012	0.883	
0.35	0.151	0.002	0.082	0.012	0.918	
0.4	0.101	0.002	0.044	0.012	0.956	
0.45	0.051	0.002	0.023	0.012	0.977	
0.475	0.026	0.002	0.007	0.007	0.993	
0.01	0.191	0.002	0.676	0.012	0.324	
0.018	0.188	0.002	0.54	0.013	0.46	
0.039	0.161	0.002	0.335	0.012	0.665	
0.06	0.141	0.002	0.202	0.012	0.798	
0.08	0.121	0.002	0.131	0.012	0.869	
0.1	0.101	0.002	0.088	0.012	0.912	
0.122	0.081	0.002	0.061	0.012	0.939	
0.14	0.161	0.002	0.044	0.012	0.956	
0.165	0.04	0.002	0.023	0.012	0.977	
0.18	0.213	0.003	0.011	0.011	0.989	
0.19	0.009	0.002	0.005	0.005	0.995	
