Measured thermophysical data. Measurement and modelling of solubility for calcium sulfate dihydrate and calcium hydroxide in NaOH/KOH solutions
Source: Fluid Phase Equilib., 2010, 10.1016/j.fluid.2010.06.012
Compound 1: calcium sulfate dihydrate, CaH4O6S, InChI=1S/Ca.H2O4S.2H2O/c;1-5(2,3)4;;/h;(H2,1,2,3,4);2*1H2/q+2;;;/p-2
Compound 2: calcium hydroxide, CaH2O2, InChI=1S/Ca.2H2O/h;2*1H2/q+2;;/p-2
Compound 3: sodium hydroxide, HNaO, InChI=1S/Na.H2O/h;1H2/q+1;/p-1
Compound 4: potassium hydroxide, HKO, InChI=1S/K.H2O/h;1H2/q+1;/p-1
Compound 5: water, H2O, InChI=1S/H2O/h1H2

System: sodium hydroxide + water + calcium sulfate dihydrate; phases: Liquid, Crystal
Fixed: Pressure, kPa = 101
Property: Mass concentration, kg/m3 of calcium sulfate dihydrate (Liquid); method: Titration with EDTA
Temperature, K	Solvent: Amount concentration (molarity), mol/dm3 of sodium hydroxide	Mass concentration, kg/m3 of calcium sulfate dihydrate	uncertainty
308.15	0	2.1044	0.0092
308.15	0.01	2.3281	0.0086
308.15	0.03	2.7347	0.0081
308.15	0.05	3.1097	0.002
308.15	0.07	2.7735	0.006
308.15	0.09	2.5449	0.005
318.15	0	2.0955	0.009
318.15	0.01	2.305	0.0085
318.15	0.03	2.7111	0.0055
318.15	0.05	2.8216	0.0022
318.15	0.07	2.6394	0.0042
318.15	0.09	2.4481	0.0047
328.15	0	2.0535	0.0089
328.15	0.01	2.2612	0.0088
328.15	0.03	2.6905	0.0046
328.15	0.05	2.6724	0.0032
328.15	0.07	2.4432	0.0043
328.15	0.09	2.2964	0.0033
338.15	0	1.986	0.0094
338.15	0.01	2.2103	0.009
338.15	0.03	2.6409	0.0032
338.15	0.05	2.462	0.0041
338.15	0.07	2.2814	0.0034
338.15	0.09	2.189	0.0029
348.15	0	1.8995	0.0088
348.15	0.01	2.1133	0.01
348.15	0.03	2.6253	0.0027
348.15	0.05	2.2792	0.0053
348.15	0.07	2.14	0.003
348.15	0.09	2.0524	0.0027

System: sodium hydroxide + water + calcium sulfate dihydrate; phases: Liquid
Fixed: Pressure, kPa = 101
Property: Mass density, kg/m3 (Liquid); method: Pycnometric method
Temperature, K	Solvent: Amount concentration (molarity), mol/dm3 of sodium hydroxide	Ratio of mass of solute to volume of solution, kg/m3 of calcium sulfate dihydrate	Mass density, kg/m3	uncertainty
308.15	0	2.1044	996.1	0.9
308.15	0.01	2.3281	995.8	0.9
308.15	0.03	2.7347	998.5	0.9
308.15	0.05	3.1097	1000.5	0.9
308.15	0.07	2.7735	1000.4	0.9
308.15	0.09	2.5449	998.4	0.9
318.15	0	2.0955	992.3	0.9
318.15	0.01	2.305	991.2	0.9
318.15	0.03	2.7111	993.5	0.9
318.15	0.05	2.8216	994.2	0.9
318.15	0.07	2.6394	995.7	0.9
318.15	0.09	2.4481	996.4	0.9
328.15	0	2.0535	987.7	0.9
328.15	0.01	2.2612	989.7	0.9
328.15	0.03	2.6905	990.3	0.9
328.15	0.05	2.6724	989.9	0.9
328.15	0.07	2.4432	991.4	0.9
328.15	0.09	2.2964	993.8	0.9
338.15	0	1.986	982.5	0.9
338.15	0.01	2.2103	986	1
338.15	0.03	2.6409	986.3	0.9
338.15	0.05	2.462	988.3	0.9
338.15	0.07	2.2814	987.5	0.9
338.15	0.09	2.189	990.8	0.9
348.15	0	1.8995	976.7	0.9
348.15	0.01	2.1133	984.2	0.9
348.15	0.03	2.6253	984.7	0.9
348.15	0.05	2.2792	985.6	0.9
348.15	0.07	2.14	985.6	0.9
348.15	0.09	2.0524	986.5	0.9

System: potassium hydroxide + water + calcium sulfate dihydrate; phases: Liquid, Crystal
Fixed: Pressure, kPa = 101
Property: Mass concentration, kg/m3 of calcium sulfate dihydrate (Liquid); method: Titration with EDTA
Temperature, K	Solvent: Amount concentration (molarity), mol/dm3 of potassium hydroxide	Mass concentration, kg/m3 of calcium sulfate dihydrate	uncertainty
308.15	0.01	2.3545	0.01
308.15	0.03	2.8455	0.0089
308.15	0.05	3.219	0.0022
308.15	0.07	2.7444	0.0069
308.15	0.09	2.5557	0.0043
318.15	0.01	2.342	0.0099
318.15	0.03	2.8147	0.006
318.15	0.05	2.9109	0.0029
318.15	0.07	2.6164	0.005
318.15	0.09	2.4556	0.0039
328.15	0.01	2.2958	0.0105
328.15	0.03	2.7925	0.0042
328.15	0.05	2.6616	0.0041
328.15	0.07	2.4354	0.0038
328.15	0.09	2.3401	0.003
338.15	0.01	2.1929	0.0101
338.15	0.03	2.7148	0.0032
338.15	0.05	2.442	0.0049
338.15	0.07	2.2715	0.0033
338.15	0.09	2.1787	0.0023
348.15	0.01	2.1765	0.0095
348.15	0.03	2.6395	0.0027
348.15	0.05	2.3382	0.0049
348.15	0.07	2.1928	0.003
348.15	0.09	2.1177	0.0025

System: potassium hydroxide + water + calcium sulfate dihydrate; phases: Liquid
Fixed: Pressure, kPa = 101
Property: Mass density, kg/m3 (Liquid); method: Pycnometric method
Temperature, K	Solvent: Amount concentration (molarity), mol/dm3 of potassium hydroxide	Ratio of mass of solute to volume of solution, kg/m3 of calcium sulfate dihydrate	Mass density, kg/m3	uncertainty
308.15	0.01	2.3545	995.4	6.5
308.15	0.03	2.8455	1001.6	6.6
308.15	0.05	3.219	1002.1	6.6
308.15	0.07	2.7444	1002.6	6.6
308.15	0.09	2.5557	1002.7	6.6
318.15	0.01	2.342	991.5	6.5
318.15	0.03	2.8147	994.7	6.5
318.15	0.05	2.9109	995.6	6.5
318.15	0.07	2.6164	996.7	6.6
318.15	0.09	2.4556	998.8	6.6
328.15	0.01	2.2958	991	6.5
328.15	0.03	2.7925	989.8	6.5
328.15	0.05	2.6616	994.9	6.6
328.15	0.07	2.4354	996	6.6
328.15	0.09	2.3401	997.7	6.6
338.15	0.01	2.1929	987.3	6.5
338.15	0.03	2.7148	987.5	6.5
338.15	0.05	2.442	994.2	6.6
338.15	0.07	2.2715	995.3	6.6
338.15	0.09	2.1787	996.8	6.6
348.15	0.01	2.1765	987.1	6.5
348.15	0.03	2.6395	987.7	6.5
348.15	0.05	2.3382	989.6	6.5
348.15	0.07	2.1928	991.9	6.6
348.15	0.09	2.1177	994.2	6.6

System: calcium hydroxide + sodium hydroxide + water; phases: Liquid, Crystal 1
Fixed: Pressure, kPa = 101
Property: Mass ratio of solute to solvent of calcium hydroxide (Liquid); method: Titration with EDTA
Temperature, K	Solvent: Amount concentration (molarity), mol/dm3 of sodium hydroxide	Mass ratio of solute to solvent of calcium hydroxide	uncertainty
298.15	0	1.5566	0.0068
298.15	0.01	1.3955	0.008
298.15	0.03	0.9863	0.0072
298.15	0.05	0.7091	0.005
298.15	0.07	0.5343	0.0036
298.15	0.09	0.4172	0.0025
298.15	0.15	0.2332	0.0022
298.15	0.2	0.1789	0.002
298.15	0.3	0.129	0.002
298.15	0.4	0.0992	0.002
298.15	0.5	0.079	0.002
308.15	0	1.4177	0.009
308.15	0.01	1.1989	0.0087
308.15	0.03	0.7847	0.0069
308.15	0.05	0.5352	0.0045
308.15	0.07	0.3795	0.0033
308.15	0.09	0.279	0.0022
308.15	0.15	0.1943	0.0021
308.15	0.2	0.1463	0.002
308.15	0.3	0.0997	0.002
308.15	0.4	0.0783	0.002
308.15	0.5	0.0647	0.002
313.15	0	1.3502	0.0084
313.15	0.01	1.147	0.0083
313.15	0.03	0.7469	0.0068
313.15	0.05	0.4993	0.0045
313.15	0.07	0.3478	0.0032
313.15	0.09	0.2535	0.0021
313.15	0.15	0.1835	0.002
313.15	0.2	0.1375	0.002
313.15	0.3	0.0929	0.002
313.15	0.4	0.0739	0.002
313.15	0.5	0.0621	0.002
318.15	0	1.2827	0.0086
318.15	0.01	1.076	0.008
318.15	0.03	0.6965	0.0063
318.15	0.05	0.4775	0.0041
318.15	0.07	0.3444	0.0031
318.15	0.09	0.2464	0.0021
318.15	0.15	0.1622	0.0021
318.15	0.2	0.1221	0.002
318.15	0.3	0.0844	0.002
318.15	0.4	0.0667	0.002
318.15	0.5	0.0546	0.002
328.15	0	1.1546	0.0084
328.15	0.01	0.954	0.0077
328.15	0.03	0.5927	0.0059
328.15	0.05	0.3991	0.0036
328.15	0.07	0.2922	0.0027
328.15	0.09	0.224	0.0021
328.15	0.15	0.1392	0.002
328.15	0.2	0.1059	0.002
328.15	0.3	0.0749	0.002
328.15	0.4	0.0595	0.002
328.15	0.5	0.0505	0.002
338.15	0	1.0355	0.008
338.15	0.01	0.8446	0.0072
338.15	0.03	0.5091	0.0055
338.15	0.05	0.3303	0.0034
338.15	0.07	0.2335	0.0025
338.15	0.09	0.1837	0.0021
338.15	0.15	0.113	0.002
338.15	0.2	0.0846	0.002
338.15	0.3	0.0614	0.002
338.15	0.4	0.0492	0.002
338.15	0.5	0.0444	0.002
348.15	0	0.9261	0.0083
348.15	0.01	0.7254	0.0073
348.15	0.03	0.396	0.0051
348.15	0.05	0.2523	0.003
348.15	0.07	0.1779	0.0023
348.15	0.09	0.1358	0.002
348.15	0.15	0.0921	0.002
348.15	0.2	0.073	0.002
348.15	0.3	0.0544	0.002
348.15	0.4	0.0439	0.002
348.15	0.5	0.0375	0.002

System: calcium hydroxide + sodium hydroxide + water; phases: Liquid
Fixed: Pressure, kPa = 101
Property: Mass density, kg/m3 (Liquid); method: Pycnometric method
Temperature, K	Solvent: Amount concentration (molarity), mol/dm3 of sodium hydroxide	Ratio of mass of solute to volume of solution, kg/m3 of calcium hydroxide	Mass density, kg/m3	uncertainty
298.15	0	1.5566	999	2.2
298.15	0.01	1.3955	1000	2.2
298.15	0.03	0.9863	1001.3	2.2
298.15	0.05	0.7091	1002.3	2.2
298.15	0.07	0.5343	1003	2.2
298.15	0.09	0.4172	1003.7	2.2
298.15	0.15	0.2332	1006.6	2.2
298.15	0.2	0.1789	1009.5	2.2
298.15	0.3	0.129	1012.2	2.2
298.15	0.4	0.0992	1015.7	2.3
298.15	0.5	0.079	1020.4	4
308.15	0	1.4177	995.8	2.2
308.15	0.01	1.1989	995.6	2.2
308.15	0.03	0.7847	996.3	2.2
308.15	0.05	0.5352	997.1	2.2
308.15	0.07	0.3795	997.6	2.2
308.15	0.09	0.279	998.7	2.2
308.15	0.15	0.1943	1001.2	2.2
308.15	0.2	0.1463	1003.2	2.2
308.15	0.3	0.0997	1006.5	2.2
308.15	0.4	0.0783	1012.5	2.7
308.15	0.5	0.0647	1006.5	7
313.15	0	1.3502	993.9	2.5
313.15	0.01	1.147	993.7	2.2
313.15	0.03	0.7469	994.8	2.2
313.15	0.05	0.4993	995.5	2.2
313.15	0.07	0.3478	995.9	2.2
313.15	0.09	0.2535	997.1	2.2
313.15	0.15	0.1835	999.7	2.2
313.15	0.2	0.1375	1001.7	2.2
313.15	0.3	0.0929	1004.1	2.2
313.15	0.4	0.0739	1010.5	2.3
313.15	0.5	0.0621	1014.6	4.7
318.15	0	1.2827	991.8	3.4
318.15	0.01	1.076	991.8	2.2
318.15	0.03	0.6965	992.9	2.2
318.15	0.05	0.4775	993.4	2.2
318.15	0.07	0.3444	994.2	2.2
318.15	0.09	0.2464	995.4	2.2
318.15	0.15	0.1622	997.4	2.2
318.15	0.2	0.1221	999.3	2.2
318.15	0.3	0.0844	1001.8	2.3
318.15	0.4	0.0667	1007.9	3.1
318.15	0.5	0.0546	1012.7	2.3
328.15	0	1.1546	987.1	2.2
328.15	0.01	0.954	987.8	2.3
328.15	0.03	0.5927	988.8	2.2
328.15	0.05	0.3991	989.5	2.2
328.15	0.07	0.2922	990.2	2.2
328.15	0.09	0.224	991.9	2.2
328.15	0.15	0.1392	993.5	2.2
328.15	0.2	0.1059	995.2	2.2
328.15	0.3	0.0749	997.5	2.2
328.15	0.4	0.0595	1003	2.3
328.15	0.5	0.0505	1008.3	2.3
338.15	0	1.0355	981.8	2.2
338.15	0.01	0.8446	984.4	2.3
338.15	0.03	0.5091	985.8	2.2
338.15	0.05	0.3303	986.4	2.2
338.15	0.07	0.2335	987	2.2
338.15	0.09	0.1837	988.7	2.2
338.15	0.15	0.113	990.6	2.2
338.15	0.2	0.0846	992.3	2.2
338.15	0.3	0.0614	994.6	2.4
338.15	0.4	0.0492	998.6	2.3
338.15	0.5	0.0444	1004.4	2.7
348.15	0	0.9261	976	3.3
348.15	0.01	0.7254	981.7	2.2
348.15	0.03	0.396	982.6	2.2
348.15	0.05	0.2523	983.4	2.2
348.15	0.07	0.1779	984.6	2.2
348.15	0.09	0.1358	986	2.2
348.15	0.15	0.0921	988	2.2
348.15	0.2	0.073	990.1	2.3
348.15	0.3	0.0544	992	2.4
348.15	0.4	0.0439	995.8	2.3
348.15	0.5	0.0375	1000.6	2.3
