Measured thermophysical data. Solid-liquid equilibrium of binary and ternary mixtures containing ethyl oleate, ethyl myristate and ethyl stearate
Source: Fluid Phase Equilib., 2014, 10.1016/j.fluid.2014.03.001
Compound 1: ethyl (Z)-9-octadeceneoate, C20H38O2, InChI=1S/C20H38O2/c1-3-5-6-7-8-9-10-11-12-13-14-15-16-17-18-19-20(21)22-4-2/h11-12H,3-10,13-19H2,1-2H3/b12-11-, purity 98%
Compound 2: ethyl tetradecanoate, C16H32O2, InChI=1S/C16H32O2/c1-3-5-6-7-8-9-10-11-12-13-14-15-16(17)18-4-2/h3-15H2,1-2H3, purity 99%
Compound 3: ethyl octadecanoate, C20H40O2, InChI=1S/C20H40O2/c1-3-5-6-7-8-9-10-11-12-13-14-15-16-17-18-19-20(21)22-4-2/h3-19H2,1-2H3, purity 99%

System: ethyl (Z)-9-octadeceneoate; phases: Crystal 1, Liquid, Air at 1 atmosphere
Property: Normal melting temperature, K (Crystal 1); method: DTA
Normal melting temperature, K	uncertainty
254.3	0.7

System: ethyl tetradecanoate; phases: Crystal 1, Liquid, Air at 1 atmosphere
Property: Normal melting temperature, K (Crystal 1); method: DTA
Normal melting temperature, K	uncertainty
287.3	0.5

System: ethyl octadecanoate; phases: Crystal 1, Liquid, Air at 1 atmosphere
Property: Normal melting temperature, K (Crystal 1); method: DTA
Normal melting temperature, K	uncertainty
307.8	0.7

System: ethyl (Z)-9-octadeceneoate + ethyl tetradecanoate; phases: Crystal, Liquid, Crystal, Air at 1 atmosphere
Property: Eutectic temperature, K (Crystal); method: DTA
Eutectic temperature, K	uncertainty
252.1844	0.6

System: ethyl (Z)-9-octadeceneoate + ethyl tetradecanoate; phases: Liquid, Crystal
Fixed: Pressure, kPa = 100
Property: Solid-liquid equilibrium temperature, K (Liquid); method: DTA
Mole fraction of ethyl (Z)-9-octadeceneoate	Solid-liquid equilibrium temperature, K	uncertainty
0	287.32	0.7
0.1063	286.4	0.7
0.2007	284.91	0.7
0.2939	282.22	0.7
0.4092	280.01	0.7
0.5073	277.08	0.7
0.5941	273.65	0.7
0.7133	269.51	0.7
0.7778	264.79	0.7
0.8964	254.87	0.7

System: ethyl (Z)-9-octadeceneoate + ethyl tetradecanoate; phases: Liquid, Crystal
Property: Solid-liquid equilibrium temperature, K (Liquid); method: DTA
Mole fraction of ethyl (Z)-9-octadeceneoate	Pressure, kPa	Solid-liquid equilibrium temperature, K	uncertainty
1	100	254.29	0.7

System: ethyl octadecanoate + ethyl (Z)-9-octadeceneoate; phases: Crystal, Liquid, Crystal, Air at 1 atmosphere
Property: Eutectic temperature, K (Crystal); method: DTA
Eutectic temperature, K	uncertainty
252.7944	0.6

System: ethyl octadecanoate + ethyl (Z)-9-octadeceneoate; phases: Liquid, Crystal
Fixed: Pressure, kPa = 100
Property: Solid-liquid equilibrium temperature, K (Liquid); method: DTA
Mole fraction of ethyl (Z)-9-octadeceneoate	Solid-liquid equilibrium temperature, K	uncertainty
0	307.69	0.7
0.091	306.57	0.7
0.2042	305.01	0.7
0.2961	303.67	0.7
0.3944	301.13	0.7
0.5029	299.01	0.7
0.6122	296.71	0.7
0.6435	295.43	0.7
0.789	289.53	0.7
0.8833	281.65	0.7

System: ethyl octadecanoate + ethyl (Z)-9-octadeceneoate; phases: Liquid, Crystal
Property: Solid-liquid equilibrium temperature, K (Liquid); method: DTA
Mole fraction of ethyl (Z)-9-octadeceneoate	Pressure, kPa	Solid-liquid equilibrium temperature, K	uncertainty
1	100	254.29	0.7

System: ethyl octadecanoate + ethyl (Z)-9-octadeceneoate; phases: Crystal 1, Crystal
Fixed: Pressure, kPa = 100
Property: Solid-liquid equilibrium temperature, K (Crystal 1); method: DTA
Mole fraction of ethyl (Z)-9-octadeceneoate	Solid-liquid equilibrium temperature, K	uncertainty
0.3944	253.14	0.7
0.5029	253.33	0.7
0.6435	254.1	0.7
0.8833	254.12	0.7

System: ethyl octadecanoate + ethyl tetradecanoate; phases: Crystal, Liquid, Crystal, Air at 1 atmosphere
Property: Eutectic temperature, K (Crystal); method: DTA
Eutectic temperature, K	uncertainty
282.06	0.6

System: ethyl octadecanoate + ethyl tetradecanoate; phases: Crystal, Liquid, Crystal, Air at 1 atmosphere
Property: Eutectic temperature, K (Crystal); method: DTA
Eutectic temperature, K	uncertainty
287.9967	0.6

System: ethyl octadecanoate + ethyl tetradecanoate; phases: Liquid, Crystal
Fixed: Pressure, kPa = 100
Property: Solid-liquid equilibrium temperature, K (Liquid); method: DTA
Mole fraction of ethyl tetradecanoate	Solid-liquid equilibrium temperature, K	uncertainty
0	307.69	0.7
0.0504	306.23	0.7
0.1279	305.18	0.7
0.1962	304.18	0.7
0.254	302.93	0.7
0.2979	301.77	0.7
0.3937	300.61	0.7
0.4972	298.18	0.7
0.5963	295.67	0.7
0.6964	291.81	0.7
0.7355	291.32	0.7

System: ethyl octadecanoate + ethyl tetradecanoate; phases: Liquid, Crystal
Property: Solid-liquid equilibrium temperature, K (Liquid); method: DTA
Mole fraction of ethyl tetradecanoate	Pressure, kPa	Solid-liquid equilibrium temperature, K	uncertainty
1	100	287.32	0.7

System: ethyl octadecanoate + ethyl (Z)-9-octadeceneoate + ethyl tetradecanoate; phases: Crystal, Crystal, Crystal, Liquid, Air at 1 atmosphere
Property: Eutectic temperature, K (Crystal); method: DTA
Eutectic temperature, K	uncertainty
251.5461	0.6

System: ethyl octadecanoate + ethyl (Z)-9-octadeceneoate + ethyl tetradecanoate; phases: Liquid, Crystal
Fixed: Pressure, kPa = 100
Property: Solid-liquid equilibrium temperature, K (Liquid); method: DTA
Mole fraction of ethyl (Z)-9-octadeceneoate	Mole fraction of ethyl tetradecanoate	Solid-liquid equilibrium temperature, K	uncertainty
0.0983	0.0938	304.58	0.7
0.2024	0.1014	302.65	0.7
0.3006	0.1125	300.66	0.7
0.3898	0.1138	298.7	0.7
0.4996	0.1022	296.34	0.7
0.5779	0.1056	293.8	0.7
0.6868	0.1055	288.63	0.7
0.7931	0.1047	281.21	0.7
0.1109	0.2142	302.91	0.7
0.2054	0.1988	300.88	0.7
0.2802	0.2394	298.05	0.7
0.3928	0.1986	296.44	0.7
0.4597	0.2025	294.47	0.7
0.5598	0.2074	290.42	0.7
0.6725	0.2021	282.93	0.7
0.1025	0.2858	300.8	0.7
0.2006	0.2903	298.63	0.7
0.2973	0.3083	295.89	0.7
0.3881	0.3086	293	0.7
0.4892	0.3101	288.18	0.7
0.5808	0.3034	282.25	0.7
0.1142	0.3822	298.39	0.7
0.2209	0.3955	295.48	0.7
0.2804	0.3899	293.68	0.7
0.4008	0.3849	289.22	0.7
0.4752	0.395	282.74	0.7
0.1079	0.4934	295.73	0.7
0.2042	0.4982	292.65	0.7
0.3036	0.4757	289.26	0.7
0.3933	0.4994	280.61	0.7
0.1035	0.5842	293.1	0.7
0.1847	0.6166	287.32	0.7
0.2849	0.564	284.14	0.7
0.0918	0.6378	291.23	0.7
0.1962	0.687	279.04	0.7
0.1046	0.7753	280.62	0.7
