Measured thermophysical data. High pressure vapor liquid equilibrium measurements of carbon dioxide with naphthalene and benzoic acid
Source: Fluid Phase Equilib., 2007, 10.1016/j.fluid.2006.06.011
Compound 1: carbon dioxide, CO2, InChI=1S/CO2/c2-1-3
Compound 2: naphthalene, C10H8, InChI=1S/C10H8/c1-2-6-10-8-4-3-7-9(10)5-1/h1-8H
Compound 3: benzoic acid, C7H6O2, InChI=1S/C7H6O2/c8-7(9)6-4-2-1-3-5-6/h1-5H,(H,8,9)

System: naphthalene + carbon dioxide; phases: Liquid, Gas
Property: Vapor or sublimation pressure, kPa (Liquid); method: Closed cell (Static) method
Temperature, K	Mole fraction of carbon dioxide	Vapor or sublimation pressure, kPa	uncertainty
372.45	0.003	100	10
372.45	0.032	980	10
372.45	0.106	3290	20
372.45	0.133	4120	20
372.45	0.191	5900	30
372.45	0.261	8010	40
372.45	0.325	9980	50
372.45	0.393	12010	60
372.45	0.458	13990	60
372.45	0.521	15870	70
372.45	0.58	17610	80
372.45	0.644	19410	80
403.85	0	10	10
403.85	0.004	160	10
403.85	0.024	830	10
403.85	0.079	2770	20
403.85	0.136	4820	30
403.85	0.195	6910	40
403.85	0.246	8790	40
403.85	0.304	10910	50
403.85	0.358	12960	60
403.85	0.412	14990	70
403.85	0.466	17040	80
403.85	0.523	19170	90
403.85	0.569	20880	90
430.65	0	20	10
430.65	0.002	110	10
430.65	0.021	850	10
430.65	0.07	2780	20
430.65	0.123	4860	30
430.65	0.173	6860	40
430.65	0.231	9190	50
430.65	0.275	10940	50
430.65	0.322	12820	60
430.65	0.37	14730	70
430.65	0.416	16530	80
430.65	0.47	18660	80
430.65	0.518	20560	90

System: naphthalene + carbon dioxide; phases: Gas, Liquid
Property: Vapor or sublimation pressure, kPa (Gas); method: Closed cell (Static) method
Temperature, K	Mole fraction of carbon dioxide	Vapor or sublimation pressure, kPa	uncertainty
372.45	0.9796	18790	80
372.45	0.9801	18520	70
403.85	0.9796	19830	80
403.85	0.9801	19750	80
430.65	0.9696	23400	90
430.65	0.9796	20930	80
430.65	0.9801	20770	80

System: benzoic acid + carbon dioxide; phases: Liquid, Gas
Property: Vapor or sublimation pressure, kPa (Liquid); method: Closed cell (Static) method
Temperature, K	Mole fraction of carbon dioxide	Vapor or sublimation pressure, kPa	uncertainty
403.28	0	0	10
403.28	0.011	500	10
403.28	0.02	930	10
403.28	0.066	3100	10
403.28	0.107	5040	20
403.28	0.147	6940	30
403.28	0.194	9200	40
403.28	0.233	11130	50
403.28	0.274	13190	50
403.28	0.317	15380	60
403.28	0.35	17090	70
403.28	0.385	18960	80
403.28	0.403	19920	80
432.62	0	10	10
432.62	0.003	150	10
432.62	0.018	820	10
432.62	0.059	2760	10
432.62	0.101	4720	20
432.62	0.147	6870	30
432.62	0.189	8920	40
432.62	0.227	10800	40
432.62	0.268	12860	50
432.62	0.307	14820	60
432.62	0.346	16860	70
432.62	0.385	18920	80
432.62	0.418	20710	80
458.37	0	10	10
458.37	0.002	140	10
458.37	0.015	860	10
458.37	0.049	2700	10
458.37	0.089	4810	20
458.37	0.133	7090	30
458.37	0.17	9040	40
458.37	0.209	11010	50
458.37	0.245	12820	50
458.37	0.286	14880	60
458.37	0.321	16640	70
458.37	0.365	18840	80
458.37	0.399	20510	80
