Measured thermophysical data. Solubilities of xanthone and xanthene in supercritical CO2
Source: Fluid Phase Equilib., 2005, 10.1016/j.fluid.2005.09.008
Compound 1: 10H-9-oxaanthracene, C13H10O, InChI=1S/C13H10O/c1-3-7-12-10(5-1)9-11-6-2-4-8-13(11)14-12/h1-8H,9H2
Compound 2: 9H-xanthen-9-one, C13H8O2, InChI=1S/C13H8O2/c14-13-9-5-1-3-7-11(9)15-12-8-4-2-6-10(12)13/h1-8H
Compound 3: carbon dioxide, CO2, InChI=1S/CO2/c2-1-3

System: 10H-9-oxaanthracene + carbon dioxide; phases: Fluid (supercritical or subcritical phases), Crystal
Property: Mole fraction of 10H-9-oxaanthracene (Fluid (supercritical or subcritical phases)); method: Density calibration data
Temperature, K	Pressure, kPa	Mole fraction of 10H-9-oxaanthracene	uncertainty
308.15	8000	0.00019	0.00019
308.15	11000	0.00356	0.0004
308.15	14000	0.00572	0.00057
308.15	16000	0.00632	0.00063
308.15	18000	0.00731	0.00073
308.15	21000	0.0085	0.00085
308.15	24000	0.0108	0.0011
328.15	9000	7e-05	7e-05
328.15	11000	0.00046	0.0004
328.15	14000	0.00373	0.0004
328.15	16000	0.00547	0.00055
328.15	18000	0.00773	0.00078
328.15	21000	0.0103	0.001

System: 9H-xanthen-9-one + carbon dioxide; phases: Fluid (supercritical or subcritical phases), Crystal
Property: Mole fraction of 9H-xanthen-9-one (Fluid (supercritical or subcritical phases)); method: Density calibration data
Temperature, K	Pressure, kPa	Mole fraction of 9H-xanthen-9-one	uncertainty
308.15	12000	0.00098	0.0004
308.15	14000	0.00112	0.0004
308.15	16000	0.00147	0.0004
308.15	18000	0.00228	0.0004
308.15	21000	0.00269	0.0004
308.15	24000	0.00285	0.0004
308.15	27000	0.00301	0.0004
308.15	30000	0.00322	0.0004
328.15	12000	0.00037	0.00037
328.15	14000	0.00106	0.0004
328.15	16000	0.00185	0.0004
328.15	18000	0.00296	0.0004
328.15	21000	0.00362	0.0004
328.15	24000	0.00388	0.0004
328.15	27000	0.00433	0.00043
328.15	30000	0.00475	0.00048
