Measured thermophysical data. Measurement, correlation and COSMO-SAC prediction of liquid-liquid equilibrium for the ternary systems, mesityl oxide + o-, m-, p-cresol + water, at 333.2 K and 353.2 K
Source: Fluid Phase Equilib., 2017, 10.1016/j.fluid.2017.03.002
Compound 1: 4-methyl-3-penten-2-one, C6H10O, InChI=1S/C6H10O/c1-5(2)4-6(3)7/h4H,1-3H3, purity 99%
Compound 2: 2-methylphenol, C7H8O, InChI=1S/C7H8O/c1-6-4-2-3-5-7(6)8/h2-5,8H,1H3, purity 99.5%
Compound 3: 3-methylphenol, C7H8O, InChI=1S/C7H8O/c1-6-3-2-4-7(8)5-6/h2-5,8H,1H3, purity 99.5%
Compound 4: 4-methylphenol, C7H8O, InChI=1S/C7H8O/c1-6-2-4-7(8)5-3-6/h2-5,8H,1H3, purity 99%
Compound 5: water, H2O, InChI=1S/H2O/h1H2, purity 99.8%

System: 2-methylphenol + 4-methyl-3-penten-2-one + water; phases: Liquid mixture 2, Liquid mixture 1
Fixed: Pressure, kPa = 101
Property: Mole fraction of 2-methylphenol (Liquid mixture 2); method: Chromatography
Property: Mole fraction of 2-methylphenol (Liquid mixture 1); method: Chromatography
Property: Mole fraction of 4-methyl-3-penten-2-one (Liquid mixture 1); method: Chromatography
Temperature, K	Mole fraction of 4-methyl-3-penten-2-one	Mole fraction of 2-methylphenol	uncertainty	Mole fraction of 2-methylphenol	uncertainty	Mole fraction of 4-methyl-3-penten-2-one	uncertainty
333.2	0.80657	0.05929	0.00067	5e-05	5e-05	0.00263	
333.2	0.70806	0.09818	0.00087	0.00014	0.00014	0.00229	
333.2	0.55306	0.15846	0.00132	0.00026	0.00026	0.00209	
333.2	0.49089	0.18294	0.0015	0.00035	0.00035	0.00172	
333.2	0.43358	0.20632	0.00168	0.00047	0.00044	0.00135	
333.2	0.37116	0.24427	0.00195	0.00062	0.00048	0.00109	
333.2	0.2935	0.27957	0.00221	0.00085	0.0005	0.00083	
333.2	0.23723	0.30485	0.00243	0.00112	0.00054	0.00053	
353.2	0.77416	0.04285	0.00058	6e-05	6e-05	0.00254	
353.2	0.61568	0.09282	0.00089	0.00015	0.00015	0.00222	
353.2	0.51338	0.1287	0.00109	0.00028	0.00028	0.00228	
353.2	0.41772	0.1719	0.0014	0.00039	0.00039	0.00159	
353.2	0.35413	0.20639	0.00168	0.00052	0.00046	0.00137	
353.2	0.29569	0.23618	0.00189	0.00068	0.00051	0.0011	
353.2	0.20325	0.26768	0.00213	0.00095	0.0005	0.00079	
353.2	0.15113	0.28462	0.00226	0.00127	0.00054	0.00045	

System: 3-methylphenol + 4-methyl-3-penten-2-one + water; phases: Liquid mixture 2, Liquid mixture 1
Fixed: Pressure, kPa = 101
Property: Mole fraction of 3-methylphenol (Liquid mixture 2); method: Chromatography
Property: Mole fraction of 3-methylphenol (Liquid mixture 1); method: Chromatography
Property: Mole fraction of 4-methyl-3-penten-2-one (Liquid mixture 1); method: Chromatography
Temperature, K	Mole fraction of 4-methyl-3-penten-2-one	Mole fraction of 3-methylphenol	uncertainty	Mole fraction of 3-methylphenol	uncertainty	Mole fraction of 4-methyl-3-penten-2-one	uncertainty
333.2	0.80921	0.04915	0.00055	5e-05	5e-05	0.00305	
333.2	0.65248	0.10962	0.0009	0.00013	0.00013	0.00249	
333.2	0.5619	0.1509	0.0012	0.00025	0.00025	0.00247	
333.2	0.49408	0.1948	0.0016	0.00036	0.00036	0.0017	
333.2	0.42625	0.22952	0.00186	0.00049	0.00043	0.0016	
333.2	0.3675	0.2583	0.00209	0.00064	0.0005	0.00124	
333.2	0.29484	0.2851	0.00229	0.00087	0.00047	0.00096	
333.2	0.24768	0.31179	0.00252	0.00112	0.00053	0.00068	
353.2	0.83045	0.03959	0.00051	7e-05	7e-05	0.00265	
353.2	0.64202	0.10016	0.00083	0.0002	0.0002	0.00237	
353.2	0.46667	0.15957	0.00132	0.00034	0.00034	0.00211	
353.2	0.38047	0.19067	0.0016	0.0005	0.00044	0.00151	
353.2	0.29022	0.23239	0.0019	0.00081	0.00051	0.00111	
353.2	0.21872	0.25991	0.00212	0.00103	0.00051	0.00084	
353.2	0.1804	0.2737	0.0022	0.00123	0.00051	0.00057	
353.2	0.11583	0.29051	0.00233	0.00138	0.0005	0.00039	

System: 4-methylphenol + 4-methyl-3-penten-2-one + water; phases: Liquid mixture 2, Liquid mixture 1
Fixed: Pressure, kPa = 101
Property: Mole fraction of 4-methylphenol (Liquid mixture 2); method: Chromatography
Property: Mole fraction of 4-methylphenol (Liquid mixture 1); method: Chromatography
Property: Mole fraction of 4-methyl-3-penten-2-one (Liquid mixture 1); method: Chromatography
Temperature, K	Mole fraction of 4-methyl-3-penten-2-one	Mole fraction of 4-methylphenol	uncertainty	Mole fraction of 4-methylphenol	uncertainty	Mole fraction of 4-methyl-3-penten-2-one	uncertainty
333.2	0.80657	0.05929	0.00069	6e-05	6e-05	0.00248	
333.2	0.70806	0.09818	0.00088	0.00012	0.00012	0.00235	
333.2	0.55306	0.15846	0.00127	0.00021	0.00021	0.00224	
333.2	0.49089	0.18294	0.00146	0.00033	0.00033	0.00191	
333.2	0.43358	0.20632	0.00165	0.00045	0.00045	0.00161	
333.2	0.37116	0.24427	0.00194	0.00058	0.00046	0.00134	
333.2	0.2935	0.27957	0.00221	0.00081	0.00047	0.00103	
333.2	0.23723	0.30485	0.00242	0.001	0.00049	0.00074	
353.2	0.75925	0.0449	0.00064	6e-05	6e-05	0.00286	
353.2	0.63107	0.09876	0.00088	0.00017	0.00017	0.00253	
353.2	0.51649	0.14234	0.00115	0.00032	0.00032	0.00233	
353.2	0.42373	0.1782	0.00142	0.00042	0.00042	0.00179	
353.2	0.32751	0.22528	0.00181	0.00069	0.00045	0.00127	
353.2	0.25464	0.24938	0.002	0.00088	0.00047	0.00089	
353.2	0.19646	0.27051	0.00216	0.00103	0.00045	0.00064	
353.2	0.14418	0.28594	0.00227	0.00134	0.00045	0.00027	
