Measured thermophysical data. PVTx measurements for N2O+CH3F, N2O+CH2F2, and N2O+ CHF3 binary systems
Source: Fluid Phase Equilib., 2005, 10.1016/j.fluid.2004.11.021
Compound 1: nitrous oxide, N2O, InChI=1S/N2O/c1-2-3, purity 99.99%
Compound 2: trifluoromethane, CHF3, InChI=1S/CHF3/c2-1(3)4/h1H, purity 99.6%
Compound 3: difluoromethane, CH2F2, InChI=1S/CH2F2/c2-1-3/h1H2, purity 99.98%
Compound 4: fluoromethane, CH3F, InChI=1S/CH3F/c1-2/h1H3, purity 99.9%

System: trifluoromethane + nitrous oxide; phases: Fluid (supercritical or subcritical phases)
Property: Molar volume, m3/mol (Fluid (supercritical or subcritical phases)); method: ISOCHOR
Mole fraction of nitrous oxide	Temperature, K	Pressure, kPa	Molar volume, m3/mol	uncertainty
0.1116	253.03	1464.8	0.001035	1e-06
0.1116	258	1541.9	0.001035	1e-06
0.1116	263.06	1593.9	0.001035	1e-06
0.1116	268	1644.1	0.001035	1e-06
0.1116	272.9	1693.3	0.001035	1e-06
0.1116	282.84	1790.6	0.001036	1e-06
0.1116	293.06	1887.6	0.001036	1e-06
0.1116	298.05	1934.6	0.001037	1e-06
0.1116	308.02	2027.4	0.001037	1e-06
0.1116	318.11	2119.5	0.001037	1e-06
0.1116	328.1	2210.6	0.001038	1e-06
0.1116	338.08	2300.2	0.001038	1e-06
0.1116	348.06	2388.8	0.001039	1e-06
0.1116	358.03	2476.8	0.001039	1e-06
0.2888	258.09	1832.3	0.000828	1e-06
0.2888	263.08	1926.6	0.000829	1e-06
0.2888	268.04	1991.7	0.000829	1e-06
0.2888	272.93	2055.2	0.000829	1e-06
0.2888	282.83	2180.4	0.000829	1e-06
0.2888	298.1	2367.2	0.00083	1e-06
0.2888	308.08	2486.6	0.00083	1e-06
0.2888	318.02	2603.8	0.000831	1e-06
0.2888	328.13	2721.6	0.000831	1e-06
0.2888	338.08	2836.1	0.000831	1e-06
0.2888	348.06	2949.9	0.000832	1e-06
0.2888	358.03	3062.3	0.000832	1e-06
0.4162	253.09	1627.2	0.000978	1e-06
0.4162	258.08	1718.9	0.000978	1e-06
0.4162	263.06	1774.4	0.000979	1e-06
0.4162	268.04	1829.1	0.000979	1e-06
0.4162	273.03	1883	0.000979	1e-06
0.4162	283	1988.8	0.000979	1e-06
0.4162	293.08	2094.2	0.00098	1e-06
0.4162	298.08	2145.4	0.00098	1e-06
0.4162	308.06	2246.6	0.000981	1e-06
0.4162	318.02	2345.8	0.000981	1e-06
0.4162	328.11	2445.5	0.000981	1e-06
0.4162	338.08	2543.3	0.000982	1e-06
0.4162	348.07	2640.2	0.000982	1e-06
0.4162	358.04	2736.3	0.000983	1e-06
0.563	258.06	1905.9	0.000867	1e-06
0.563	262.96	1968.2	0.000867	1e-06
0.563	267.94	2030.3	0.000867	1e-06
0.563	272.95	2091.7	0.000867	1e-06
0.563	283.02	2213.7	0.000868	1e-06
0.563	293.07	2332	0.000868	1e-06
0.563	298.09	2390.3	0.000868	1e-06
0.563	308.42	2509	0.000869	1e-06
0.563	317.83	2615.8	0.000869	1e-06
0.563	328.1	2731.1	0.000869	1e-06
0.563	338.09	2842.1	0.00087	1e-06
0.563	348.06	2951.9	0.00087	1e-06
0.563	358.05	3061.1	0.00087	1e-06
0.6362	268.04	2663.9	0.000591	1e-06
0.6362	273.02	2765.9	0.000591	1e-06
0.6362	283	2957.6	0.000591	1e-06
0.6362	292.93	3143.3	0.000591	1e-06
0.6362	298.02	3235.8	0.000591	1e-06
0.6362	308.05	3416.1	0.000592	1e-06
0.6362	318.03	3592.6	0.000592	1e-06
0.6362	328.12	3768.5	0.000592	1e-06
0.6362	338.09	3939.9	0.000592	1e-06
0.6362	348.07	4110.3	0.000593	1e-06
0.6362	358.05	4278.2	0.000593	1e-06

System: difluoromethane + nitrous oxide; phases: Fluid (supercritical or subcritical phases)
Property: Molar volume, m3/mol (Fluid (supercritical or subcritical phases)); method: Other PVT measurement
Mole fraction of nitrous oxide	Temperature, K	Pressure, kPa	Molar volume, m3/mol	uncertainty
0.2255	308.77	2774.4	0.000631	1e-06
0.2255	313.86	2875.7	0.000631	1e-06
0.2255	318.95	2971.2	0.000631	1e-06
0.2255	324.04	3064.8	0.000631	1e-06
0.2255	329.13	3157.2	0.000632	1e-06
0.2255	334.22	3248.1	0.000632	1e-06
0.2255	339.33	3338.3	0.000632	1e-06
0.2255	344.44	3427.2	0.000632	1e-06
0.2255	354.61	3602.1	0.000632	1e-06
0.4207	303.68	2988.3	0.000594	1e-06
0.4207	308.77	3091.8	0.000594	1e-06
0.4207	313.85	3190.6	0.000595	1e-06
0.4207	318.94	3288.2	0.000595	1e-06
0.4207	324.03	3384.5	0.000595	1e-06
0.4207	329.14	3479.7	0.000595	1e-06
0.4207	334.22	3573.4	0.000595	1e-06
0.4207	339.34	3666.5	0.000595	1e-06
0.4207	344.43	3758.3	0.000595	1e-06
0.4207	353.6	3922.3	0.000596	1e-06
0.5068	298.54	2796	0.000644	1e-06
0.5068	303.68	2903.7	0.000644	1e-06
0.5068	308.77	2991.7	0.000645	1e-06
0.5068	313.87	3078.9	0.000645	1e-06
0.5068	318.95	3164.6	0.000645	1e-06
0.5068	324.04	3249.6	0.000645	1e-06
0.5068	329.14	3334.1	0.000645	1e-06
0.5068	334.23	3417.4	0.000645	1e-06
0.5068	339.33	3500	0.000645	1e-06
0.5068	344.43	3581.9	0.000646	1e-06
0.8042	283.32	2978.6	0.000562	1e-06
0.8042	288.38	3087.3	0.000562	1e-06
0.8042	293.46	3188.3	0.000563	1e-06
0.8042	298.6	3286	0.000563	1e-06
0.8042	303.68	3381.2	0.000563	1e-06
0.8042	308.76	3475.8	0.000563	1e-06
0.8042	313.85	3569.2	0.000563	1e-06
0.8042	318.94	3661.8	0.000563	1e-06
0.8042	324.03	3753.8	0.000563	1e-06
0.8042	329.13	3845.1	0.000563	1e-06
0.8042	334.23	3935.9	0.000564	1e-06
0.8042	339.35	4026.2	0.000564	1e-06
0.8042	344.43	4115.4	0.000564	1e-06
0.8042	354.62	4293	0.000564	1e-06

System: fluoromethane + nitrous oxide; phases: Fluid (supercritical or subcritical phases)
Property: Molar volume, m3/mol (Fluid (supercritical or subcritical phases)); method: Other PVT measurement
Mole fraction of nitrous oxide	Temperature, K	Pressure, kPa	Molar volume, m3/mol	uncertainty
0.1467	273.05	1878.4	0.000909	1e-06
0.1467	282.83	1994.7	0.000909	1e-06
0.1467	292.79	2109.4	0.00091	1e-06
0.1467	298.08	2168.4	0.00091	1e-06
0.1467	308.05	2279.3	0.00091	1e-06
0.1467	318.05	2388.7	0.000911	1e-06
0.1467	328.03	2496.3	0.000911	1e-06
0.1467	338.09	2603.1	0.000912	1e-06
0.1467	347.94	2707	0.000912	1e-06
0.1467	354.94	2779.9	0.000912	1e-06
0.3047	268	2048.2	0.00074	1e-06
0.3047	273.01	2223.5	0.000741	1e-06
0.3047	282.81	2371.8	0.000741	1e-06
0.3047	292.96	2512.2	0.000741	1e-06
0.3047	298.17	2591.9	0.000741	1e-06
0.3047	308.13	2731.2	0.000742	1e-06
0.3047	318.11	2867.7	0.000742	1e-06
0.3047	328.1	3002.9	0.000742	1e-06
0.3047	338.09	3135.8	0.000743	1e-06
0.3047	348.06	3267	0.000743	1e-06
0.3047	358.03	3396.5	0.000743	1e-06
0.508	263.03	1936.1	0.000863	1e-06
0.508	267.98	1999.2	0.000863	1e-06
0.508	272.89	2060.3	0.000863	1e-06
0.508	277.86	2121	0.000863	1e-06
0.508	288.08	2242.8	0.000864	1e-06
0.508	298.09	2358.5	0.000864	1e-06
0.508	308.06	2474.5	0.000865	1e-06
0.508	318.12	2588.2	0.000865	1e-06
0.508	328.11	2699.9	0.000865	1e-06
0.508	338.08	2810.2	0.000866	1e-06
0.508	348.06	2919.8	0.000866	1e-06
0.508	358.05	3028.8	0.000867	1e-06
0.6161	263.02	2088.5	0.000766	1e-06
0.6161	268	2223.9	0.000766	1e-06
0.6161	272.98	2295.8	0.000766	1e-06
0.6161	283.04	2438	0.000767	1e-06
0.6161	293.07	2574.6	0.000767	1e-06
0.6161	298.11	2642.6	0.000767	1e-06
0.6161	308.15	2774.9	0.000768	1e-06
0.6161	318.12	2904.6	0.000768	1e-06
0.6161	328.09	3033	0.000768	1e-06
0.6161	338.08	3160	0.000769	1e-06
0.6161	348.05	3285.8	0.000769	1e-06
0.6161	358.03	3410.5	0.000769	1e-06
0.8263	287.8	4359.8	0.000305	1e-06
0.8263	292.93	4761.6	0.000305	1e-06
0.8263	302.97	5179	0.000305	1e-06
0.8263	307.96	5380.9	0.000305	1e-06
0.8263	312.91	5577.9	0.000305	1e-06
