Measured thermophysical data. Liquid-liquid equilibria in the ternary and multicomponent systems involving hydrocarbons, thiophene or pyridine and ionic liquid (1-benzyl-3-metylimidazolium bis(trifluorometylsulfonyl)imide)
Source: Fluid Phase Equilib., 2016, 10.1016/j.fluid.2015.12.025
Compound 1: hexane, C6H14, InChI=1S/C6H14/c1-3-5-6-4-2/h3-6H2,1-2H3, purity 98.5%
Compound 2: heptane, C7H16, InChI=1S/C7H16/c1-3-5-7-6-4-2/h3-7H2,1-2H3, purity 99%
Compound 3: toluene, C7H8, InChI=1S/C7H8/c1-7-5-3-2-4-6-7/h2-6H,1H3, purity 99.5%
Compound 4: pyridine, C5H5N, InChI=1S/C5H5N/c1-2-4-6-5-3-1/h1-5H, purity 99%
Compound 5: thiophene, C4H4S, InChI=1S/C4H4S/c1-2-4-5-3-1/h1-4H, purity 99%
Compound 6: 1-benzyl-3-methyl-1H-imidazol-3-ium bis((trifluoromethyl)sulfonyl)amide, C13H13F6N3O4S2, InChI=1S/C11H13N2.C2F6NO4S2/c1-12-7-8-13(10-12)9-11-5-3-2-4-6-11;3-1(4,5)14(10,11)9-15(12,13)2(6,7)8/h2-8,10H,9H2,1H3;/q+1;-1, purity 99%
Compound 7: 2,2,4-trimethylpentane, C8H18, InChI=1S/C8H18/c1-7(2)6-8(3,4)5/h7H,6H2,1-5H3, purity 99.5%

System: hexane + pyridine + 1-benzyl-3-methyl-1H-imidazol-3-ium bis((trifluoromethyl)sulfonyl)amide; phases: Liquid mixture 1, Liquid mixture 2
Fixed: Temperature, K = 298.15
Fixed: Pressure, kPa = 101.325
Property: Mass fraction of 1-benzyl-3-methyl-1H-imidazol-3-ium bis((trifluoromethyl)sulfonyl)amide (Liquid mixture 1); method: Titration method
Mass fraction of hexane	Mass fraction of 1-benzyl-3-methyl-1H-imidazol-3-ium bis((trifluoromethyl)sulfonyl)amide	uncertainty
0.0116	0.9884	0.0116
0.0284	0.8604	0.0355
0.0439	0.802	0.0327
0.0508	0.7353	0.0507
0.0578	0.6867	0.0662
0.0634	0.6556	0.0588
0.063	0.6305	0.0595
0.064	0.5904	0.0655
0.075	0.5481	0.0407
0.0738	0.5114	0.0393
0.0791	0.4585	0.039
0.1013	0.3598	0.0253
0.1173	0.3177	0.0176
0.1269	0.3013	0.0151
0.1384	0.2795	0.0157
0.1468	0.2606	0.0165
0.2056	0.1821	0.0101
0.2771	0.1229	0.0084
0.3011	0.1067	0.0076
0.3511	0.0783	0.0072
0.4062	0.0504	0.0065
0.5395	0.0122	0.0063

System: hexane + pyridine + 1-benzyl-3-methyl-1H-imidazol-3-ium bis((trifluoromethyl)sulfonyl)amide; phases: Liquid mixture 2, Liquid mixture 1
Fixed: Temperature, K = 298.15
Fixed: Pressure, kPa = 101.325
Property: Mass fraction of hexane (Liquid mixture 2); method: Index of refraction calibration data
Property: Mass fraction of pyridine (Liquid mixture 1); method: Index of refraction calibration data
Property: Mass fraction of hexane (Liquid mixture 1); method: Index of refraction calibration data
Mass fraction of pyridine	Mass fraction of hexane	uncertainty	Mass fraction of pyridine	uncertainty	Mass fraction of hexane	uncertainty
0	0.012	0.01	0		1	
0.074	0.023	0.01	0.055	0.002	0.945	
0.149	0.045	0.01	0.1	0.003	0.9	
0.287	0.062	0.01	0.178	0.004	0.822	
0.429	0.077	0.01	0.288	0.007	0.712	
0.526	0.096	0.01	0.411	0.01	0.589	

System: pyridine + heptane + 1-benzyl-3-methyl-1H-imidazol-3-ium bis((trifluoromethyl)sulfonyl)amide; phases: Liquid mixture 1, Liquid mixture 2
Fixed: Temperature, K = 298.15
Fixed: Pressure, kPa = 101.325
Property: Mass fraction of 1-benzyl-3-methyl-1H-imidazol-3-ium bis((trifluoromethyl)sulfonyl)amide (Liquid mixture 1); method: Titration method
Mass fraction of heptane	Mass fraction of 1-benzyl-3-methyl-1H-imidazol-3-ium bis((trifluoromethyl)sulfonyl)amide	uncertainty
0.0123	0.9877	0.0123
0.0273	0.8771	0.0547
0.0339	0.7849	0.0639
0.0422	0.7182	0.0586
0.0426	0.6622	0.0566
0.0475	0.6132	0.0597
0.0571	0.5639	0.0377
0.0633	0.5198	0.0389
0.0741	0.461	0.0335
0.0862	0.404	0.0214
0.1208	0.3216	0.0181
0.1263	0.3011	0.0148
0.135	0.2859	0.0154
0.147	0.2612	0.0144
0.1665	0.2289	0.0117
0.2304	0.1525	0.01
0.2863	0.0957	0.0084
0.3407	0.0569	0.0071
0.4079	0.0274	0.0062
0.5398	0.0049	0.0049

System: pyridine + heptane + 1-benzyl-3-methyl-1H-imidazol-3-ium bis((trifluoromethyl)sulfonyl)amide; phases: Liquid mixture 2, Liquid mixture 1
Fixed: Temperature, K = 298.15
Fixed: Pressure, kPa = 101.325
Property: Mass fraction of heptane (Liquid mixture 2); method: Index of refraction calibration data
Property: Mass fraction of pyridine (Liquid mixture 1); method: Index of refraction calibration data
Property: Mass fraction of heptane (Liquid mixture 1); method: Index of refraction calibration data
Mass fraction of pyridine	Mass fraction of heptane	uncertainty	Mass fraction of pyridine	uncertainty	Mass fraction of heptane	uncertainty
0	0.012	0.01	0		1	
0.081	0.025	0.01	0.05	0.002	0.95	
0.164	0.033	0.01	0.083	0.003	0.917	
0.316	0.044	0.01	0.172	0.004	0.828	
0.45	0.072	0.01	0.29	0.007	0.71	
0.541	0.107	0.01	0.417	0.01	0.583	

System: toluene + pyridine + 1-benzyl-3-methyl-1H-imidazol-3-ium bis((trifluoromethyl)sulfonyl)amide; phases: Liquid mixture 1, Liquid mixture 2
Fixed: Temperature, K = 298.15
Fixed: Pressure, kPa = 101.325
Property: Mass fraction of 1-benzyl-3-methyl-1H-imidazol-3-ium bis((trifluoromethyl)sulfonyl)amide (Liquid mixture 1); method: Titration method
Mass fraction of toluene	Mass fraction of 1-benzyl-3-methyl-1H-imidazol-3-ium bis((trifluoromethyl)sulfonyl)amide	uncertainty
0.3473	0.6527	0.0205
0.3852	0.5452	0.0186
0.4478	0.4463	0.0169
0.4775	0.4001	0.0159
0.5113	0.3463	0.0146
0.5353	0.313	0.0131
0.5659	0.2772	0.0122
0.5982	0.2376	0.0113
0.6287	0.205	0.0102
0.7142	0.1248	0.0082
0.825	0.0617	0.0071
0.8447	0.0508	0.007
0.9654	0.007	0.0063
1	0	

System: toluene + pyridine + 1-benzyl-3-methyl-1H-imidazol-3-ium bis((trifluoromethyl)sulfonyl)amide; phases: Liquid mixture 2, Liquid mixture 1
Fixed: Temperature, K = 298.15
Fixed: Pressure, kPa = 101.325
Property: Mass fraction of toluene (Liquid mixture 2); method: Index of refraction calibration data
Property: Mass fraction of pyridine (Liquid mixture 1); method: Index of refraction calibration data
Property: Mass fraction of toluene (Liquid mixture 1); method: Index of refraction calibration data
Mass fraction of pyridine	Mass fraction of toluene	uncertainty	Mass fraction of pyridine	uncertainty	Mass fraction of toluene	uncertainty
0	0.347	0.012	0		1	
0.015	0.357	0.013	0.005	0.002	0.995	
0.024	0.358	0.013	0.008	0.002	0.992	
0.026	0.362	0.013	0.014	0.001	0.986	
0.034	0.363	0.013	0.015	0.001	0.985	

System: thiophene + hexane + 1-benzyl-3-methyl-1H-imidazol-3-ium bis((trifluoromethyl)sulfonyl)amide; phases: Liquid mixture 1, Liquid mixture 2
Fixed: Temperature, K = 298.15
Fixed: Pressure, kPa = 101.325
Property: Mass fraction of 1-benzyl-3-methyl-1H-imidazol-3-ium bis((trifluoromethyl)sulfonyl)amide (Liquid mixture 1); method: Titration method
Mass fraction of hexane	Mass fraction of 1-benzyl-3-methyl-1H-imidazol-3-ium bis((trifluoromethyl)sulfonyl)amide	uncertainty
0.0116	0.9884	0.006
0.0129	0.9207	0.0064
0.0204	0.8618	0.0072
0.021	0.8105	0.008
0.022	0.7586	0.0091
0.0226	0.727	0.0098
0.0207	0.6541	0.0115
0.0231	0.685	0.0107
0.0207	0.6176	0.0124
0.0187	0.579	0.0133
0.013	0.5446	0.0142
0	0.4759	0.0147

System: thiophene + hexane + 1-benzyl-3-methyl-1H-imidazol-3-ium bis((trifluoromethyl)sulfonyl)amide; phases: Liquid mixture 2, Liquid mixture 1
Fixed: Temperature, K = 298.15
Fixed: Pressure, kPa = 101.325
Property: Mass fraction of hexane (Liquid mixture 2); method: Index of refraction calibration data
Property: Mass fraction of thiophene (Liquid mixture 1); method: Index of refraction calibration data
Property: Mass fraction of hexane (Liquid mixture 1); method: Index of refraction calibration data
Mass fraction of thiophene	Mass fraction of hexane	uncertainty	Mass fraction of thiophene	uncertainty	Mass fraction of hexane	uncertainty
0	0.012	0.01	0		1	
0.019	0.012	0.01	0.074	0.002	0.926	
0.075	0.015	0.01	0.151	0.004	0.849	
0.157	0.021	0.01	0.31	0.007	0.69	
0.231	0.021	0.01	0.435	0.01	0.565	
0.293	0.024	0.01	0.638	0.009	0.362	
0.312	0.021	0.01	0.712	0.007	0.288	
0.398	0.018	0.01	0.867	0.003	0.133	
0.457	0.012	0.01	0.899	0.003	0.101	
0.524	0		1		0	

System: thiophene + heptane + 1-benzyl-3-methyl-1H-imidazol-3-ium bis((trifluoromethyl)sulfonyl)amide; phases: Liquid mixture 1, Liquid mixture 2
Fixed: Temperature, K = 298.15
Fixed: Pressure, kPa = 101.325
Property: Mass fraction of 1-benzyl-3-methyl-1H-imidazol-3-ium bis((trifluoromethyl)sulfonyl)amide (Liquid mixture 1); method: Titration method
Mass fraction of heptane	Mass fraction of 1-benzyl-3-methyl-1H-imidazol-3-ium bis((trifluoromethyl)sulfonyl)amide	uncertainty
0.0123	0.9877	0.006
0.011	0.9224	0.0064
0.0175	0.8643	0.0071
0.0181	0.8129	0.008
0.0189	0.761	0.009
0.0195	0.7293	0.0097
0.0179	0.656	0.011
0.02	0.6872	0.0107
0.0178	0.6194	0.0123
0.016	0.5806	0.0133
0.0112	0.5456	0.0142
0	0.4766	0.0148

System: thiophene + heptane + 1-benzyl-3-methyl-1H-imidazol-3-ium bis((trifluoromethyl)sulfonyl)amide; phases: Liquid mixture 2, Liquid mixture 1
Fixed: Temperature, K = 298.15
Fixed: Pressure, kPa = 101.325
Property: Mass fraction of heptane (Liquid mixture 2); method: Index of refraction calibration data
Property: Mass fraction of thiophene (Liquid mixture 1); method: Index of refraction calibration data
Property: Mass fraction of heptane (Liquid mixture 1); method: Index of refraction calibration data
Mass fraction of thiophene	Mass fraction of heptane	uncertainty	Mass fraction of thiophene	uncertainty	Mass fraction of heptane	uncertainty
0	0.012	0.01	0		1	
0.027	0.014	0.01	0.077	0.002	0.923	
0.084	0.016	0.01	0.155	0.004	0.845	
0.169	0.02	0.01	0.295	0.007	0.705	
0.232	0.02	0.01	0.429	0.01	0.571	
0.313	0.019	0.01	0.631	0.009	0.369	
0.34	0.018	0.01	0.708	0.007	0.292	
0.397	0.017	0.01	0.859	0.004	0.141	
0.479	0.005	0.005	0.918	0.002	0.082	
0.523	0		1		0	

System: toluene + thiophene + 1-benzyl-3-methyl-1H-imidazol-3-ium bis((trifluoromethyl)sulfonyl)amide; phases: Liquid mixture 1, Liquid mixture 2
Fixed: Temperature, K = 298.15
Fixed: Pressure, kPa = 101.325
Property: Mass fraction of 1-benzyl-3-methyl-1H-imidazol-3-ium bis((trifluoromethyl)sulfonyl)amide (Liquid mixture 1); method: Titration method
Mass fraction of toluene	Mass fraction of 1-benzyl-3-methyl-1H-imidazol-3-ium bis((trifluoromethyl)sulfonyl)amide	uncertainty
0	0.4766	0.0148
0.0521	0.4798	0.0149
0.1161	0.4931	0.0154
0.1662	0.5108	0.0155
0.2242	0.5516	0.0148
0.27	0.59	0.014
0.3473	0.6527	0.0125

System: toluene + thiophene + 1-benzyl-3-methyl-1H-imidazol-3-ium bis((trifluoromethyl)sulfonyl)amide; phases: Liquid mixture 2, Liquid mixture 1
Fixed: Temperature, K = 298.15
Fixed: Pressure, kPa = 101.325
Property: Mass fraction of toluene (Liquid mixture 2); method: Index of refraction calibration data
Property: Mass fraction of thiophene (Liquid mixture 1); method: Index of refraction calibration data
Property: Mass fraction of toluene (Liquid mixture 1); method: Index of refraction calibration data
Mass fraction of thiophene	Mass fraction of toluene	uncertainty	Mass fraction of thiophene	uncertainty	Mass fraction of toluene	uncertainty
0	0.347	0.012	0		1	
0.041	0.325	0.013	0.079	0.002	0.921	
0.082	0.302	0.013	0.193	0.005	0.807	
0.185	0.246	0.013	0.372	0.009	0.628	
0.237	0.218	0.013	0.469	0.011	0.531	
0.34	0.154	0.011	0.669	0.008	0.331	
0.354	0.145	0.01	0.687	0.007	0.313	
0.46	0.062	0.01	0.865	0.003	0.135	
0.473	0.05	0.014	0.937	0.002	0.063	
0.523	0		1		0	

System: pyridine + 2,2,4-trimethylpentane + 1-benzyl-3-methyl-1H-imidazol-3-ium bis((trifluoromethyl)sulfonyl)amide; phases: Liquid mixture 1, Liquid mixture 2
Fixed: Temperature, K = 298.15
Fixed: Pressure, kPa = 101.325
Property: Mass fraction of 1-benzyl-3-methyl-1H-imidazol-3-ium bis((trifluoromethyl)sulfonyl)amide (Liquid mixture 1); method: Titration method
Mass fraction of 2,2,4-trimethylpentane	Mass fraction of 1-benzyl-3-methyl-1H-imidazol-3-ium bis((trifluoromethyl)sulfonyl)amide	uncertainty
0.0118	0.9882	0.0118
0.0333	0.8756	0.0393
0.0445	0.7714	0.0575
0.0553	0.6672	0.0568
0.0605	0.5765	0.0582
0.0728	0.5083	0.051
0.0744	0.4619	0.0517
0.0766	0.4154	0.0498
0.0816	0.4017	0.0359
0.0859	0.3795	0.0262
0.0866	0.3722	0.0262
0.0944	0.3469	0.0204
0.1132	0.2967	0.0162
0.129	0.2754	0.0127
0.2197	0.1656	0.01
0.2731	0.1218	0.0082
0.319	0.0927	0.0075
0.3721	0.0623	0.0069
0.4129	0.0474	0.0064
0.5388	0.0141	0.0062

System: pyridine + 2,2,4-trimethylpentane + 1-benzyl-3-methyl-1H-imidazol-3-ium bis((trifluoromethyl)sulfonyl)amide; phases: Liquid mixture 2, Liquid mixture 1
Fixed: Temperature, K = 298.15
Fixed: Pressure, kPa = 101.325
Property: Mass fraction of 2,2,4-trimethylpentane (Liquid mixture 2); method: Index of refraction calibration data
Property: Mass fraction of pyridine (Liquid mixture 1); method: Index of refraction calibration data
Property: Mass fraction of 2,2,4-trimethylpentane (Liquid mixture 1); method: Index of refraction calibration data
Mass fraction of pyridine	Mass fraction of 2,2,4-trimethylpentane	uncertainty	Mass fraction of pyridine	uncertainty	Mass fraction of 2,2,4-trimethylpentane	uncertainty
0	0.012	0.01	0		1	
0.082	0.032	0.01	0.044	0.002	0.956	
0.172	0.045	0.01	0.078	0.002	0.922	
0.336	0.051	0.01	0.158	0.004	0.842	
0.462	0.075	0.01	0.265	0.006	0.735	
0.523	0.083	0.01	0.334	0.008	0.666	

System: thiophene + 2,2,4-trimethylpentane + 1-benzyl-3-methyl-1H-imidazol-3-ium bis((trifluoromethyl)sulfonyl)amide; phases: Liquid mixture 1, Liquid mixture 2
Fixed: Temperature, K = 298.15
Fixed: Pressure, kPa = 101.325
Property: Mass fraction of 1-benzyl-3-methyl-1H-imidazol-3-ium bis((trifluoromethyl)sulfonyl)amide (Liquid mixture 1); method: Titration method
Mass fraction of 2,2,4-trimethylpentane	Mass fraction of 1-benzyl-3-methyl-1H-imidazol-3-ium bis((trifluoromethyl)sulfonyl)amide	uncertainty
0.0118	0.9882	0.006
0.0127	0.9364	0.0063
0.0127	0.871	0.007
0.0201	0.8346	0.0076
0.0206	0.7829	0.0086
0.0215	0.7196	0.0099
0.0215	0.6887	0.0107
0.0189	0.6421	0.0118
0.015	0.59	0.0131
0.0147	0.5409	0.0143
0	0.479	0.0148

System: thiophene + 2,2,4-trimethylpentane + 1-benzyl-3-methyl-1H-imidazol-3-ium bis((trifluoromethyl)sulfonyl)amide; phases: Liquid mixture 2, Liquid mixture 1
Fixed: Temperature, K = 298.15
Fixed: Pressure, kPa = 101.325
Property: Mass fraction of 2,2,4-trimethylpentane (Liquid mixture 2); method: Index of refraction calibration data
Property: Mass fraction of thiophene (Liquid mixture 1); method: Index of refraction calibration data
Property: Mass fraction of 2,2,4-trimethylpentane (Liquid mixture 1); method: Index of refraction calibration data
Mass fraction of thiophene	Mass fraction of 2,2,4-trimethylpentane	uncertainty	Mass fraction of thiophene	uncertainty	Mass fraction of 2,2,4-trimethylpentane	uncertainty
0	0.012	0.01	0		1	
0.025	0.015	0.01	0.078	0.002	0.922	
0.094	0.014	0.01	0.158	0.004	0.842	
0.215	0.023	0.01	0.301	0.007	0.699	
0.242	0.022	0.01	0.434	0.01	0.566	
0.313	0.019	0.01	0.679	0.007	0.321	
0.338	0.018	0.01	0.706	0.007	0.294	
0.443	0.015	0.01	0.851	0.004	0.149	
0.512	0.002	0.002	0.922	0.002	0.078	
0.521	0		1		0	
