Measured thermophysical data. Study of solvation consequences of  alpha-amino acids in aqueous ionicliquid solution probed by physicochemical approach
Source: Fluid Phase Equilib., 2013, 10.1016/j.fluid.2013.03.030
Compound 1: tetrabutylphosphonium tetrafluoroborate, C16H36BF4P, InChI=1S/C16H36P.BF4/c1-5-9-13-17(14-10-6-2,15-11-7-3)16-12-8-4;2-1(3,4)5/h5-16H2,1-4H3;/q+1;-1, purity 98%
Compound 2: 2-aminoacetic acid, C2H5NO2, InChI=1S/C2H5NO2/c3-1-2(4)5/h1,3H2,(H,4,5), purity 99%
Compound 3: (S)-2-aminopropanoic acid, C3H7NO2, InChI=1S/C3H7NO2/c1-2(4)3(5)6/h2H,4H2,1H3,(H,5,6)/t2-/m0/s1, purity 98.5%
Compound 4: L-valine, C5H11NO2, InChI=1S/C5H11NO2/c1-3(2)4(6)5(7)8/h3-4H,6H2,1-2H3,(H,7,8)/t4-/m0/s1, purity 99%
Compound 5: water, H2O, InChI=1S/H2O/h1H2

System: tetrabutylphosphonium tetrafluoroborate + water; phases: Liquid
Fixed: Temperature, K = 298.15
Fixed: Pressure, kPa = 100
Property: Mass density, kg/m3 (Liquid); method: Vibrating tube method
Mass fraction of tetrabutylphosphonium tetrafluoroborate	Mass density, kg/m3	uncertainty
0.001	997.16	5.36
0.003	998.67	5.36
0.005	1000.05	5.36

System: tetrabutylphosphonium tetrafluoroborate + water; phases: Liquid
Fixed: Temperature, K = 298.15
Fixed: Pressure, kPa = 100
Property: Viscosity, Pa*s (Liquid); method: Capillary tube (Ostwald; Ubbelohde) method
Mass fraction of tetrabutylphosphonium tetrafluoroborate	Viscosity, Pa*s	uncertainty
0.001	0.000901	2.4e-05
0.003	0.000909	2.4e-05
0.005	0.000914	2.4e-05

System: tetrabutylphosphonium tetrafluoroborate + water; phases: Liquid
Fixed: Temperature, K = 298.15
Fixed: Pressure, kPa = 100
Fixed: Wavelength, nm = 589.3
Property: Refractive index (other wavelength) (Liquid); method: Digital Refractometer Mettler Toledo
Mass fraction of tetrabutylphosphonium tetrafluoroborate	Refractive index (other wavelength)	uncertainty
0.001	1.3326	0.0011
0.003	1.3333	0.0011
0.005	1.3341	0.0011

System: tetrabutylphosphonium tetrafluoroborate + water; phases: Liquid
Fixed: Pressure, kPa = 100
Fixed: Temperature, K = 298.15
Property: Speed of sound, m/s (Liquid); method: Sing-around technique in a fixed-path interferometer
Mole fraction of tetrabutylphosphonium tetrafluoroborate	Speed of sound, m/s	uncertainty
0.001	1498.9	5.1
0.003	1502.6	5.1
0.005	1507.5	5

System: 2-aminoacetic acid + tetrabutylphosphonium tetrafluoroborate + water; phases: Liquid
Fixed: Pressure, kPa = 100
Fixed: Temperature, K = 298.15
Property: Mass density, kg/m3 (Liquid); method: Vibrating tube method
Solvent: Mass fraction of tetrabutylphosphonium tetrafluoroborate	Molality, mol/kg of 2-aminoacetic acid	Mass density, kg/m3	uncertainty
0.001	0.1002	997.41	1.48
0.001	0.1584	997.82	1.49
0.001	0.2005	998.25	1.5
0.001	0.2352	998.7	1.5
0.001	0.2654	999.17	1.52
0.001	0.2925	999.65	1.53
0.003	0.1001	998.86	1.49
0.003	0.1583	999.18	1.49
0.003	0.2003	999.53	1.5
0.003	0.235	999.91	1.5
0.003	0.2652	1000.29	1.51
0.003	0.2924	1000.69	1.52
0.005	0.1	1000.2	1.5
0.005	0.1582	1000.46	1.49
0.005	0.2002	1000.75	1.5
0.005	0.2349	1001.07	1.5
0.005	0.2651	1001.4	1.5
0.005	0.2922	1001.75	1.51

System: 2-aminoacetic acid + tetrabutylphosphonium tetrafluoroborate + water; phases: Liquid
Fixed: Temperature, K = 298.15
Fixed: Pressure, kPa = 100
Property: Viscosity, Pa*s (Liquid); method: Capillary tube (Ostwald; Ubbelohde) method
Solvent: Mass fraction of tetrabutylphosphonium tetrafluoroborate	Molality, mol/kg of 2-aminoacetic acid	Viscosity, Pa*s	uncertainty
0.001	0.1002	0.000907	1.4e-05
0.001	0.1584	0.000913	1.5e-05
0.001	0.2005	0.000917	1.5e-05
0.001	0.2352	0.000921	1.5e-05
0.001	0.2654	0.000925	1.5e-05
0.001	0.2925	0.000929	1.5e-05
0.003	0.1001	0.000915	1.5e-05
0.003	0.1583	0.000919	1.5e-05
0.003	0.2003	0.000923	1.5e-05
0.003	0.235	0.000927	1.5e-05
0.003	0.2652	0.000931	1.5e-05
0.003	0.2924	0.000935	1.5e-05
0.005	0.1	0.00092	1.5e-05
0.005	0.1582	0.000925	1.5e-05
0.005	0.2002	0.00093	1.5e-05
0.005	0.2349	0.000935	1.5e-05
0.005	0.2651	0.00094	1.5e-05
0.005	0.2922	0.000945	1.5e-05

System: 2-aminoacetic acid + tetrabutylphosphonium tetrafluoroborate + water; phases: Liquid
Fixed: Temperature, K = 298.15
Fixed: Pressure, kPa = 100
Fixed: Wavelength, nm = 589.3
Property: Refractive index (other wavelength) (Liquid); method: Digital Refractometer Mettler Toledo
Solvent: Mass fraction of tetrabutylphosphonium tetrafluoroborate	Molality, mol/kg of 2-aminoacetic acid	Refractive index (other wavelength)	uncertainty
0.001	0.1002	1.3327	0.0007
0.001	0.1584	1.3331	0.0007
0.001	0.2005	1.3334	0.0007
0.001	0.2352	1.3337	0.0007
0.001	0.2654	1.3334	0.0007
0.001	0.2925	1.3343	0.0007
0.003	0.1001	1.3338	0.0007
0.003	0.1583	1.3342	0.0007
0.003	0.2003	1.3345	0.0007
0.003	0.235	1.3348	0.0007
0.003	0.2652	1.3351	0.0007
0.003	0.2924	1.3354	0.0007
0.005	0.1	1.3349	0.0007
0.005	0.1582	1.3353	0.0007
0.005	0.2002	1.3357	0.0007
0.005	0.2349	1.336	0.001
0.005	0.2651	1.3363	0.0007
0.005	0.2922	1.3366	0.0007

System: 2-aminoacetic acid + tetrabutylphosphonium tetrafluoroborate + water; phases: Liquid
Fixed: Pressure, kPa = 100
Fixed: Temperature, K = 298.15
Property: Speed of sound, m/s (Liquid); method: Sing-around technique in a fixed-path interferometer
Solvent: Mole fraction of tetrabutylphosphonium tetrafluoroborate	Molality, mol/kg of 2-aminoacetic acid	Speed of sound, m/s	uncertainty
0.001	0.1002	1503.9	2.8
0.001	0.1584	1518	2.8
0.001	0.2005	1538.1	2.8
0.001	0.2352	1564.8	2.8
0.001	0.2654	1595.6	2.8
0.001	0.2925	1633.8	2.8
0.003	0.1001	1508.1	2.8
0.003	0.1583	1523.8	2.8
0.003	0.2003	1546.1	2.8
0.003	0.235	1575.6	2.8
0.003	0.2652	1611.4	2.8
0.003	0.2924	1654	2.8
0.005	0.1	1513.5	2.8
0.005	0.1582	1530.8	2.8
0.005	0.2002	1556.4	2.8
0.005	0.2349	1589.6	2.8
0.005	0.2651	1628.4	2.8
0.005	0.2922	1677.4	2.8

System: (S)-2-aminopropanoic acid + tetrabutylphosphonium tetrafluoroborate + water; phases: Liquid
Fixed: Pressure, kPa = 100
Fixed: Temperature, K = 298.15
Property: Mass density, kg/m3 (Liquid); method: Vibrating tube method
Solvent: Mass fraction of tetrabutylphosphonium tetrafluoroborate	Molality, mol/kg of (S)-2-aminopropanoic acid	Mass density, kg/m3	uncertainty
0.001	0.1002	997.38	1.67
0.001	0.1585	997.75	1.68
0.001	0.2005	998.14	1.69
0.001	0.2353	998.56	1.69
0.001	0.2655	998.99	1.7
0.001	0.2927	999.44	1.71
0.003	0.1001	998.8	1.68
0.003	0.1584	999.05	1.68
0.003	0.2004	999.35	1.68
0.003	0.2351	999.69	1.69
0.003	0.2654	1000.05	1.7
0.003	0.2926	1000.43	1.71
0.005	0.1	1000.13	1.68
0.005	0.1583	1000.33	1.68
0.005	0.2003	1000.59	1.69
0.005	0.235	1000.9	1.7
0.005	0.2652	1001.24	1.7
0.005	0.2924	1001.6	1.7

System: (S)-2-aminopropanoic acid + tetrabutylphosphonium tetrafluoroborate + water; phases: Liquid
Fixed: Temperature, K = 298.15
Fixed: Pressure, kPa = 100
Property: Viscosity, Pa*s (Liquid); method: Capillary tube (Ostwald; Ubbelohde) method
Solvent: Mass fraction of tetrabutylphosphonium tetrafluoroborate	Molality, mol/kg of (S)-2-aminopropanoic acid	Viscosity, Pa*s	uncertainty
0.001	0.1002	0.00091	1.5e-05
0.001	0.1585	0.000919	1.5e-05
0.001	0.2005	0.000928	1.5e-05
0.001	0.2353	0.000937	1.6e-05
0.001	0.2655	0.000945	1.6e-05
0.001	0.2927	0.000954	1.6e-05
0.003	0.1001	0.000919	1.5e-05
0.003	0.1584	0.000928	1.5e-05
0.003	0.2004	0.000936	1.6e-05
0.003	0.2351	0.000945	1.6e-05
0.003	0.2654	0.000953	1.6e-05
0.003	0.2926	0.000963	1.6e-05
0.005	0.1	0.000924	1.5e-05
0.005	0.1583	0.000933	1.5e-05
0.005	0.2003	0.000943	1.6e-05
0.005	0.235	0.000952	1.6e-05
0.005	0.2652	0.000961	1.6e-05
0.005	0.2924	0.000971	1.6e-05

System: (S)-2-aminopropanoic acid + tetrabutylphosphonium tetrafluoroborate + water; phases: Liquid
Fixed: Temperature, K = 298.15
Fixed: Pressure, kPa = 100
Fixed: Wavelength, nm = 589.3
Property: Refractive index (other wavelength) (Liquid); method: Digital Refractometer Mettler Toledo
Solvent: Mass fraction of tetrabutylphosphonium tetrafluoroborate	Molality, mol/kg of (S)-2-aminopropanoic acid	Refractive index (other wavelength)	uncertainty
0.001	0.1002	1.3329	0.0007
0.001	0.1585	1.3333	0.0007
0.001	0.2005	1.3336	0.0007
0.001	0.2353	1.3339	0.0007
0.001	0.2655	1.3342	0.0007
0.001	0.2927	1.3345	0.0007
0.003	0.1001	1.3339	0.0007
0.003	0.1584	1.3343	0.0007
0.003	0.2004	1.3346	0.0007
0.003	0.2351	1.3349	0.0007
0.003	0.2654	1.3352	0.0007
0.003	0.2926	1.3355	0.0007
0.005	0.1	1.335	0.001
0.005	0.1583	1.3354	0.0007
0.005	0.2003	1.3358	0.0007
0.005	0.235	1.3361	0.0007
0.005	0.2652	1.3364	0.0007
0.005	0.2924	1.3367	0.0007

System: (S)-2-aminopropanoic acid + tetrabutylphosphonium tetrafluoroborate + water; phases: Liquid
Fixed: Pressure, kPa = 100
Fixed: Temperature, K = 298.15
Property: Speed of sound, m/s (Liquid); method: Sing-around technique in a fixed-path interferometer
Solvent: Mole fraction of tetrabutylphosphonium tetrafluoroborate	Molality, mol/kg of (S)-2-aminopropanoic acid	Speed of sound, m/s	uncertainty
0.001	0.1002	1503	2.9
0.001	0.1585	1516	2.9
0.001	0.2005	1535.3	2.9
0.001	0.2353	1560.1	3
0.001	0.2655	1590.8	3
0.001	0.2927	1627.5	3
0.003	0.1001	1507.2	2.9
0.003	0.1584	1522.1	2.9
0.003	0.2004	1544.2	2.9
0.003	0.2351	1572.4	3
0.003	0.2654	1606.5	3
0.003	0.2926	1648.3	3
0.005	0.1	1512.6	2.9
0.005	0.1583	1529.1	2.9
0.005	0.2003	1553.2	2.9
0.005	0.235	1584.9	3
0.005	0.2652	1625	3
0.005	0.2924	1673.2	3

System: L-valine + tetrabutylphosphonium tetrafluoroborate + water; phases: Liquid
Fixed: Pressure, kPa = 100
Fixed: Temperature, K = 298.15
Property: Mass density, kg/m3 (Liquid); method: Vibrating tube method
Solvent: Mass fraction of tetrabutylphosphonium tetrafluoroborate	Molality, mol/kg of L-valine	Mass density, kg/m3	uncertainty
0.001	0.1002	997.3	1.48
0.001	0.1585	997.57	1.48
0.001	0.2007	997.88	1.49
0.001	0.2355	998.23	1.5
0.001	0.2659	998.6	1.51
0.001	0.2932	999.01	1.51
0.003	0.1001	998.73	1.48
0.003	0.1584	998.91	1.48
0.003	0.2006	999.16	1.49
0.003	0.2353	999.46	1.5
0.003	0.2657	999.81	1.5
0.003	0.293	1000.18	1.51
0.005	0.1001	1000.07	1.49
0.005	0.1583	1000.2	1.49
0.005	0.2004	1000.42	1.49
0.005	0.2352	1000.7	1.5
0.005	0.2655	1001.03	1.51
0.005	0.2928	1001.42	1.52

System: L-valine + tetrabutylphosphonium tetrafluoroborate + water; phases: Liquid
Fixed: Temperature, K = 298.15
Fixed: Pressure, kPa = 100
Property: Viscosity, Pa*s (Liquid); method: Capillary tube (Ostwald; Ubbelohde) method
Solvent: Mass fraction of tetrabutylphosphonium tetrafluoroborate	Molality, mol/kg of L-valine	Viscosity, Pa*s	uncertainty
0.001	0.1002	0.000911	1.5e-05
0.001	0.1585	0.000925	1.5e-05
0.001	0.2007	0.000938	1.5e-05
0.001	0.2355	0.00095	1.5e-05
0.001	0.2659	0.000964	1.5e-05
0.001	0.2932	0.000977	1.5e-05
0.003	0.1001	0.000924	1.5e-05
0.003	0.1584	0.000938	1.5e-05
0.003	0.2006	0.000952	1.5e-05
0.003	0.2353	0.000966	1.5e-05
0.003	0.2657	0.000981	1.5e-05
0.003	0.293	0.000996	1.6e-05
0.005	0.1001	0.00093	1.5e-05
0.005	0.1583	0.000946	1.5e-05
0.005	0.2004	0.000961	1.5e-05
0.005	0.2352	0.000978	1.5e-05
0.005	0.2655	0.000994	1.6e-05
0.005	0.2928	0.001008	1.6e-05

System: L-valine + tetrabutylphosphonium tetrafluoroborate + water; phases: Liquid
Fixed: Temperature, K = 298.15
Fixed: Pressure, kPa = 100
Fixed: Wavelength, nm = 589.3
Property: Refractive index (other wavelength) (Liquid); method: Digital Refractometer Mettler Toledo
Solvent: Mass fraction of tetrabutylphosphonium tetrafluoroborate	Molality, mol/kg of L-valine	Refractive index (other wavelength)	uncertainty
0.001	0.1002	1.3331	0.0007
0.001	0.1585	1.3336	0.0007
0.001	0.2007	1.334	0.001
0.001	0.2355	1.3344	0.0007
0.001	0.2659	1.3348	0.0007
0.001	0.2932	1.3352	0.0007
0.003	0.1001	1.334	0.001
0.003	0.1584	1.3346	0.0007
0.003	0.2006	1.335	0.001
0.003	0.2353	1.3354	0.0007
0.003	0.2657	1.3358	0.0007
0.003	0.293	1.3362	0.0007
0.005	0.1001	1.3351	0.0007
0.005	0.1583	1.3357	0.0007
0.005	0.2004	1.3361	0.0007
0.005	0.2352	1.3365	0.0007
0.005	0.2655	1.3369	0.0007
0.005	0.2928	1.3373	0.0007

System: L-valine + tetrabutylphosphonium tetrafluoroborate + water; phases: Liquid
Fixed: Pressure, kPa = 100
Fixed: Temperature, K = 298.15
Property: Speed of sound, m/s (Liquid); method: Linear variable-path acoustic interferometer
Solvent: Mole fraction of tetrabutylphosphonium tetrafluoroborate	Molality, mol/kg of L-valine	Speed of sound, m/s	uncertainty
0.001	0.1002	1501.8	3.1
0.001	0.1585	1514.5	3.1
0.001	0.2007	1532.5	3.1
0.001	0.2355	1556.4	3.1
0.001	0.2659	1585.1	3.1
0.001	0.2932	1618.6	3.2
0.003	0.1001	1506	3.1
0.003	0.1584	1519.8	3.1
0.003	0.2006	1540.4	3.1
0.003	0.2353	1568.2	3.1
0.003	0.2657	1601.9	3.1
0.003	0.293	1640.4	3.2
0.005	0.1001	1511.3	3.1
0.005	0.1583	1526.1	3.1
0.005	0.2004	1549.4	3.1
0.005	0.2352	1578.6	3.1
0.005	0.2655	1617.3	3.2
0.005	0.2928	1663.7	3.2
