Measured thermophysical data. Gas phase PVTx properties for binary mixtures of HFC-161 and HFC-143a
Source: Fluid Phase Equilib., 2007, 10.1016/j.fluid.2007.06.022
Compound 1: fluoroethane, C2H5F, InChI=1S/C2H5F/c1-2-3/h2H2,1H3, purity 99.74%
Compound 2: 1,1,1-trifluoroethane, C2H3F3, InChI=1S/C2H3F3/c1-2(3,4)5/h1H3, purity 99.99%

System: fluoroethane + 1,1,1-trifluoroethane; phases: Fluid (supercritical or subcritical phases)
Property: Amount density, mol/m3 (Fluid (supercritical or subcritical phases)); method: ISOCHOR
Temperature, K	Pressure, kPa	Mole fraction of fluoroethane	Amount density, mol/m3	uncertainty
308.138	1077.3	0.5513	516.9	2.4
313.179	1105.6	0.5513	516.7	2.4
313.188	1289.2	0.4404	628.7	3.1
313.188	1327.7	0.7454	655.7	2.9
318.18	1533.1	0.5398	766.4	3
318.191	1324.3	0.4404	628.5	3
318.194	1133.1	0.5513	516.6	2.4
318.196	1367.2	0.7454	655.5	2.9
323.135	1824	0.6821	952	3.6
323.179	1578.3	0.5398	766.2	2.9
323.188	1161	0.5513	516.5	2.4
323.191	1359.8	0.4404	628.4	3
323.194	1405.1	0.7454	655.3	2.8
328.147	1886.9	0.6821	951.8	3.5
328.178	1393.9	0.4404	628.2	3
328.184	1187.6	0.5513	516.3	2.3
328.186	1622.8	0.5398	766	2.9
328.189	1441.8	0.7454	655.2	2.7
333.164	1945.3	0.6821	951.5	3.4
333.18	1665.6	0.5398	765.8	2.8
333.181	1214	0.5513	516.2	2.3
333.184	1477.4	0.7454	655	2.7
333.188	1427.2	0.4404	628	3.1
338.166	2722.9	0.3852	1609.1	5.4
338.169	2001.2	0.6821	951.3	3.4
338.176	1708.4	0.5398	765.6	2.8
338.177	1460.7	0.4404	627.9	3.1
338.189	1512.3	0.7454	654.8	2.6
338.19	1240.7	0.5513	516.1	2.2
343.161	2056	0.6821	951.1	3.4
343.171	2832.1	0.3852	1608.7	5.6
343.179	1750.5	0.5398	765.4	2.8
343.181	1266.6	0.5513	515.9	2.2
343.183	1547	0.7454	654.7	2.6
343.185	1493.6	0.4404	627.7	3
348.167	1791.6	0.5398	765.2	2.8
348.169	2109.8	0.6821	950.8	3.3
348.171	2936.9	0.3852	1608.3	5.6
348.176	3257.1	0.4746	2022.4	6.6
348.177	1526.3	0.4404	627.6	2.9
348.181	1292.8	0.5513	515.8	2.2
348.183	1581.7	0.7454	654.5	2.6
353.158	3291.2	0.8703	1938.1	6.3
353.16	2163.4	0.6821	950.6	3.3
353.174	3040.3	0.3852	1607.9	5.5
353.178	1832.6	0.5398	765	2.7
353.181	3397.3	0.4746	2021.8	6.5
353.186	1615.2	0.7454	654.3	2.6
353.19	1318.2	0.5513	515.7	2.1
353.194	1558.9	0.4404	627.4	2.8
358.178	1343.4	0.5513	515.6	2.1
358.182	1591	0.4404	627.2	2.7
358.194	1873.1	0.5398	764.9	2.7
358.202	3533.9	0.4746	2021.3	6.5
358.205	3141.7	0.3852	1607.5	5.5
358.216	2215.7	0.6821	950.3	3.3
358.222	1648.4	0.7454	654.2	2.5
358.224	3436.5	0.8703	1937.6	6.2
363.161	1913.5	0.5398	764.7	2.7
363.179	1682.4	0.7454	654	2.5
363.181	3667.5	0.4746	2020.8	6.4
363.182	3241.7	0.3852	1607.1	5.4
363.186	2268.4	0.6821	950.1	3.2
363.202	3565.9	0.8703	1937.1	6.2
363.216	1369.3	0.5513	515.4	2.1
363.229	1622.9	0.4404	627.1	2.7
368.148	1953.4	0.5398	764.5	2.7
368.157	3799.1	0.4746	2020.3	6.4
368.161	3340.7	0.3852	1606.7	5.3
368.166	2319.9	0.6821	949.9	3.2
368.167	1654.9	0.4404	626.9	2.7
368.174	1394.5	0.5513	515.3	2.1
368.18	3691.1	0.8703	1936.6	6.1
368.181	1715.4	0.7454	653.8	2.5
373.146	1419.9	0.5513	515.2	2
373.148	1748.1	0.7454	653.7	2.4
373.156	1685.9	0.4404	626.8	2.6
373.165	3815.5	0.8703	1936.1	6.1
373.171	3439.4	0.3852	1606.3	5.3
373.175	1993.6	0.5398	764.3	2.6
373.185	3930.3	0.4746	2019.8	6.4
373.193	2372.3	0.6821	949.6	3.2
378.132	2422.8	0.6821	949.4	3.2
378.144	3937.3	0.8703	1935.6	6.1
378.147	2032.8	0.5398	764.1	2.6
378.148	1444.9	0.5513	515	2
378.167	3535.8	0.3852	1605.9	5.3
378.17	4058.6	0.4746	2019.3	6.4
378.226	1718	0.4404	626.6	2.6
378.227	1782	0.7454	653.5	2.4
383.172	2472.8	0.6821	949.1	3.2
383.18	4057.7	0.8703	1935.1	6.1
383.2	1469.9	0.5513	514.9	2
383.207	1749.4	0.4404	626.4	2.5
383.212	1814.6	0.7454	653.3	2.4
383.214	2072.7	0.5398	763.9	2.6
383.226	3632.6	0.3852	1605.4	5.2
383.236	4187.7	0.4746	2018.8	6.3
388.152	4176.4	0.8703	1934.6	6.1
388.157	2522.7	0.6821	948.9	3.1
388.192	2112	0.5398	763.7	2.6
388.193	1780.2	0.4404	626.3	2.5
388.197	1846.9	0.7454	653.2	2.4
388.209	1495.6	0.5513	514.8	2
388.217	4313.6	0.4746	2018.2	6.3
388.222	3727.9	0.3852	1605	5.2
393.176	1878.7	0.7454	653	2.3
393.181	1519.9	0.5513	514.6	2
393.181	1810.7	0.4404	626.1	2.4
393.199	4437.7	0.4746	2017.7	6.3
393.2	3821.6	0.3852	1604.6	5.2
393.209	2151.2	0.5398	763.5	2.6
393.22	2573.5	0.6821	948.6	3.1
393.232	4296.6	0.8703	1934.1	6
398.161	1841.6	0.4404	626	2.4
398.163	1544	0.5513	514.5	1.9
398.163	1910.5	0.7454	652.8	2.3
398.174	2189	0.5398	763.3	2.6
398.185	4561.5	0.4746	2017.2	6.3
398.19	2622.5	0.6821	948.4	3.1
398.2	3915.5	0.3852	1604.2	5.2
398.218	4412.3	0.8703	1933.6	6
403.145	1568.2	0.5513	514.4	1.9
403.155	2227.5	0.5398	763.1	2.6
403.172	1872.4	0.4404	625.8	2.4
403.176	4684.3	0.4746	2016.7	6.3
403.178	4008.2	0.3852	1603.8	5.1
403.181	2671.9	0.6821	948.2	3.1
403.199	4528.1	0.8703	1933.1	6
403.205	1942.9	0.7454	652.7	2.3
