Measured thermophysical data. Novel phase diagrams of aqueous two-phase systems based on 1,4-bis-(2-hydroxypropyl)-piperazine + Na2CO3 + H2O: Equilibrium data and correlation
Source: Fluid Phase Equilib., 2019, 10.1016/j.fluid.2018.12.023
Compound 1: sodium carbonate, CNa2O3, InChI=1S/CH2O3.2Na/c2-1(3)4;;/h(H2,2,3,4);;/q;2*+1/p-2, purity 99.5%
Compound 2: 1,1'-(piperazine-1,4-diyl)bis(propan-2-ol), C10H22N2O2, InChI=1S/C10H22N2O2/c1-9(13)7-11-3-5-12(6-4-11)8-10(2)14/h9-10,13-14H,3-8H2,1-2H3
Compound 3: water, H2O, InChI=1S/H2O/h1H2, purity 99.8%

System: 1,1'-(piperazine-1,4-diyl)bis(propan-2-ol) + sodium carbonate + water; phases: Liquid mixture 2, Liquid mixture 1
Fixed: Pressure, kPa = 101
Property: Mass fraction of sodium carbonate (Liquid mixture 2); method: Phase equilibration
Property: Mass fraction of sodium carbonate (Liquid mixture 1); method: Phase equilibration
Property: Mass fraction of 1,1'-(piperazine-1,4-diyl)bis(propan-2-ol) (Liquid mixture 1); method: Phase equilibration
Temperature, K	Mass fraction of 1,1'-(piperazine-1,4-diyl)bis(propan-2-ol)	Mass fraction of sodium carbonate	uncertainty	Mass fraction of sodium carbonate	uncertainty	Mass fraction of 1,1'-(piperazine-1,4-diyl)bis(propan-2-ol)	uncertainty
303.15	0.0214	0.1838	0.0192	0.0052	0.0052	0.4968	
303.15	0.0279	0.1754	0.0195	0.0063	0.0063	0.4725	
303.15	0.034	0.1638	0.0154	0.008	0.008	0.455	
303.15	0.04	0.1556	0.0152	0.0099	0.0099	0.4243	
303.15	0.0549	0.1453	0.0127	0.0158	0.0101	0.39	
303.15	0.0632	0.1385	0.0127	0.0216	0.0101	0.352	
303.15	0.0716	0.1329	0.0128	0.0269	0.0103	0.3221	
303.15	0.0821	0.1247	0.0127	0.0333	0.0104	0.2987	
303.15	0.0991	0.1127	0.0125	0.0435	0.0105	0.2648	
308.15	0.0257	0.1813	0.0151	0.0051	0.0051	0.4893	
308.15	0.032	0.1682	0.0167	0.0063	0.0063	0.4713	
308.15	0.0443	0.1532	0.0138	0.0079	0.0079	0.4503	
308.15	0.0622	0.1381	0.0126	0.011	0.0101	0.4243	
308.15	0.071	0.1319	0.0128	0.0136	0.0101	0.4068	
308.15	0.0864	0.1227	0.0118	0.0155	0.0102	0.3941	
308.15	0.095	0.1173	0.012	0.0181	0.0101	0.3784	
308.15	0.1031	0.1136	0.0124	0.0205	0.0102	0.3648	
308.15	0.1103	0.1085	0.0118	0.0234	0.0104	0.3506	
313.15	0.0253	0.1623	0.0203	0.0052	0.0052	0.5457	
313.15	0.04	0.1499	0.0129	0.0067	0.0067	0.4966	
313.15	0.0502	0.1428	0.0127	0.0083	0.0083	0.4825	
313.15	0.0579	0.1379	0.0127	0.0104	0.0101	0.4525	
313.15	0.0654	0.1315	0.0128	0.018	0.0101	0.4111	
313.15	0.0777	0.1227	0.0122	0.0224	0.0102	0.3824	
313.15	0.089	0.1164	0.0118	0.0288	0.0101	0.3501	
313.15	0.1038	0.1081	0.0117	0.032	0.0101	0.3246	
313.15	0.1101	0.1032	0.0115	0.0344	0.0103	0.3065	
318.15	0.0247	0.1823	0.0203	0.0045	0.0045	0.5174	
318.15	0.0302	0.17	0.0175	0.0055	0.0055	0.4977	
318.15	0.0354	0.1606	0.0192	0.0064	0.0064	0.4763	
318.15	0.0411	0.1514	0.0148	0.0081	0.0081	0.4549	
318.15	0.0496	0.1423	0.0146	0.0114	0.0101	0.4281	
318.15	0.0633	0.1327	0.0124	0.014	0.0101	0.4113	
318.15	0.074	0.1258	0.0123	0.0165	0.0101	0.3907	
318.15	0.0893	0.1157	0.0118	0.0193	0.0101	0.3775	
318.15	0.1099	0.1044	0.0116	0.0273	0.0102	0.3318	
323.15	0.0238	0.1932	0.0354	0.0046	0.0046	0.5245	
323.15	0.0256	0.1836	0.0235	0.0059	0.0059	0.5021	
323.15	0.0281	0.1737	0.0208	0.0066	0.0066	0.4873	
323.15	0.0342	0.1581	0.022	0.0088	0.0088	0.4702	
323.15	0.0432	0.1468	0.0192	0.0119	0.0101	0.4485	
323.15	0.052	0.1363	0.0138	0.0139	0.01	0.4227	
323.15	0.0544	0.1315	0.013	0.0157	0.0101	0.4019	
323.15	0.0743	0.1212	0.0122	0.0193	0.0102	0.3747	
323.15	0.0897	0.1083	0.0132	0.0246	0.0102	0.3496	

System: 1,1'-(piperazine-1,4-diyl)bis(propan-2-ol) + sodium carbonate + water; phases: Liquid mixture 2, Liquid mixture 1
Fixed: Pressure, kPa = 101
Property: Mass fraction of sodium carbonate (Liquid mixture 2); method: Titration method
Property: Mass fraction of sodium carbonate (Liquid mixture 1); method: Titration method
Property: Mass fraction of 1,1'-(piperazine-1,4-diyl)bis(propan-2-ol) (Liquid mixture 1); method: Titration method
Temperature, K	Mass fraction of 1,1'-(piperazine-1,4-diyl)bis(propan-2-ol)	Mass fraction of sodium carbonate	uncertainty	Mass fraction of sodium carbonate	uncertainty	Mass fraction of 1,1'-(piperazine-1,4-diyl)bis(propan-2-ol)	uncertainty
303.15	0.476	0.0069	0.0069	0.0069	0.0069	0.476	
303.15	0.4127	0.014	0.0101	0.014	0.0101	0.4127	
303.15	0.376	0.0203	0.0102	0.0203	0.0102	0.376	
303.15	0.3439	0.026	0.0102	0.026	0.0102	0.3439	
303.15	0.3074	0.0343	0.0103	0.0343	0.0103	0.3074	
303.15	0.292	0.0383	0.0104	0.0383	0.0104	0.292	
303.15	0.2679	0.0453	0.0105	0.0453	0.0105	0.2679	
303.15	0.2392	0.0543	0.0107	0.0543	0.0107	0.2392	
303.15	0.2314	0.0579	0.0108	0.0579	0.0108	0.2314	
303.15	0.2121	0.0656	0.011	0.0656	0.011	0.2121	
303.15	0.1984	0.0714	0.0109	0.0714	0.0109	0.1984	
303.15	0.1838	0.0768	0.0109	0.0768	0.0109	0.1838	
303.15	0.1737	0.0806	0.0111	0.0806	0.0111	0.1737	
303.15	0.1633	0.0854	0.0114	0.0854	0.0114	0.1633	
303.15	0.1487	0.0926	0.0115	0.0926	0.0115	0.1487	
303.15	0.1216	0.1064	0.0116	0.1064	0.0116	0.1216	
303.15	0.1049	0.115	0.0118	0.115	0.0118	0.1049	
303.15	0.0934	0.1215	0.012	0.1215	0.012	0.0934	
303.15	0.0801	0.129	0.012	0.129	0.012	0.0801	
303.15	0.0722	0.133	0.0121	0.133	0.0121	0.0722	
303.15	0.0652	0.137	0.0125	0.137	0.0125	0.0652	
303.15	0.0589	0.1409	0.013	0.1409	0.013	0.0589	
303.15	0.0534	0.146	0.0137	0.146	0.0137	0.0534	
303.15	0.0475	0.1513	0.0151	0.1513	0.0151	0.0475	
303.15	0.0428	0.1558	0.0152	0.1558	0.0152	0.0428	
303.15	0.0384	0.1602	0.017	0.1602	0.017	0.0384	
303.15	0.0288	0.172	0.018	0.172	0.018	0.0288	
303.15	0.0179	0.1914	0.0211	0.1914	0.0211	0.0179	
303.15	0.0097	0.2062	0.0209	0.2062	0.0209	0.0097	
308.15	0.4939	0.0058	0.0058	0.0058	0.0058	0.4939	
308.15	0.428	0.0119	0.0101	0.0119	0.0101	0.428	
308.15	0.38	0.0185	0.0102	0.0185	0.0102	0.38	
308.15	0.3317	0.0285	0.0103	0.0285	0.0103	0.3317	
308.15	0.2979	0.0362	0.0103	0.0362	0.0103	0.2979	
308.15	0.2767	0.0419	0.0105	0.0419	0.0105	0.2767	
308.15	0.2554	0.0481	0.0106	0.0481	0.0106	0.2554	
308.15	0.237	0.0547	0.0107	0.0547	0.0107	0.237	
308.15	0.2198	0.0608	0.0108	0.0608	0.0108	0.2198	
308.15	0.2011	0.0684	0.011	0.0684	0.011	0.2011	
308.15	0.1826	0.0762	0.011	0.0762	0.011	0.1826	
308.15	0.1689	0.0817	0.0112	0.0817	0.0112	0.1689	
308.15	0.1553	0.0881	0.0113	0.0881	0.0113	0.1553	
308.15	0.1414	0.0946	0.0113	0.0946	0.0113	0.1414	
308.15	0.1256	0.1013	0.0114	0.1013	0.0114	0.1256	
308.15	0.1149	0.1067	0.0117	0.1067	0.0117	0.1149	
308.15	0.1062	0.1117	0.0118	0.1117	0.0118	0.1062	
308.15	0.095	0.1177	0.0119	0.1177	0.0119	0.095	
308.15	0.0864	0.1233	0.012	0.1233	0.012	0.0864	
308.15	0.0785	0.1274	0.0125	0.1274	0.0125	0.0785	
308.15	0.0707	0.1319	0.0123	0.1319	0.0123	0.0707	
308.15	0.0607	0.1401	0.0136	0.1401	0.0136	0.0607	
308.15	0.0525	0.1463	0.0138	0.1463	0.0138	0.0525	
308.15	0.0444	0.1532	0.0146	0.1532	0.0146	0.0444	
308.15	0.0385	0.1605	0.0169	0.1605	0.0169	0.0385	
308.15	0.0288	0.1711	0.0193	0.1711	0.0193	0.0288	
308.15	0.0233	0.1819	0.0222	0.1819	0.0222	0.0233	
308.15	0.0159	0.1983	0.0222	0.1983	0.0222	0.0159	
308.15	0.0081	0.2202	0.0212	0.2202	0.0212	0.0081	
313.15	0.5581	0.0031	0.0031	0.0031	0.0031	0.5581	
313.15	0.4858	0.0058	0.0058	0.0058	0.0058	0.4858	
313.15	0.4322	0.0116	0.0101	0.0116	0.0101	0.4322	
313.15	0.4101	0.0157	0.0102	0.0157	0.0102	0.4101	
313.15	0.3771	0.021	0.0102	0.021	0.0102	0.3771	
313.15	0.3445	0.0262	0.0102	0.0262	0.0102	0.3445	
313.15	0.3158	0.0324	0.0103	0.0324	0.0103	0.3158	
313.15	0.2856	0.0398	0.0103	0.0398	0.0103	0.2856	
313.15	0.2679	0.0448	0.0105	0.0448	0.0105	0.2679	
313.15	0.2444	0.0518	0.0106	0.0518	0.0106	0.2444	
313.15	0.2229	0.0595	0.0107	0.0595	0.0107	0.2229	
313.15	0.2074	0.0645	0.0107	0.0645	0.0107	0.2074	
313.15	0.1924	0.0702	0.0109	0.0702	0.0109	0.1924	
313.15	0.1752	0.0761	0.011	0.0761	0.011	0.1752	
313.15	0.157	0.0844	0.0112	0.0844	0.0112	0.157	
313.15	0.1363	0.0933	0.0113	0.0933	0.0113	0.1363	
313.15	0.117	0.1028	0.0115	0.1028	0.0115	0.117	
313.15	0.105	0.1085	0.0113	0.1085	0.0113	0.105	
313.15	0.0884	0.1158	0.012	0.1158	0.012	0.0884	
313.15	0.0813	0.122	0.012	0.122	0.012	0.0813	
313.15	0.0673	0.1294	0.0125	0.1294	0.0125	0.0673	
313.15	0.0583	0.1366	0.0129	0.1366	0.0129	0.0583	
313.15	0.0494	0.143	0.0142	0.143	0.0142	0.0494	
313.15	0.0434	0.1492	0.0151	0.1492	0.0151	0.0434	
313.15	0.0372	0.1572	0.0165	0.1572	0.0165	0.0372	
313.15	0.0323	0.1638	0.019	0.1638	0.019	0.0323	
313.15	0.0243	0.1745	0.0214	0.1745	0.0214	0.0243	
313.15	0.017	0.1897	0.0206	0.1897	0.0206	0.017	
313.15	0.0109	0.2049	0.0253	0.2049	0.0253	0.0109	
313.15	0.0096	0.2241	0.0284	0.2241	0.0284	0.0096	
318.15	0.5495	0.0037	0.0037	0.0037	0.0037	0.5495	
318.15	0.5019	0.0057	0.0057	0.0057	0.0057	0.5019	
318.15	0.4787	0.0071	0.0071	0.0071	0.0071	0.4787	
318.15	0.4425	0.0098	0.0098	0.0098	0.0098	0.4425	
318.15	0.4091	0.0129	0.0101	0.0129	0.0101	0.4091	
318.15	0.3925	0.0156	0.0101	0.0156	0.0101	0.3925	
318.15	0.3607	0.0197	0.0101	0.0197	0.0101	0.3607	
318.15	0.334	0.0233	0.0103	0.0233	0.0103	0.334	
318.15	0.3081	0.0313	0.0104	0.0313	0.0104	0.3081	
318.15	0.2851	0.0368	0.0104	0.0368	0.0104	0.2851	
318.15	0.2663	0.0417	0.0104	0.0417	0.0104	0.2663	
318.15	0.2496	0.0456	0.0104	0.0456	0.0104	0.2496	
318.15	0.2289	0.0508	0.0106	0.0508	0.0106	0.2289	
318.15	0.2113	0.0579	0.0109	0.0579	0.0109	0.2113	
318.15	0.1948	0.0644	0.0109	0.0644	0.0109	0.1948	
318.15	0.1767	0.072	0.011	0.072	0.011	0.1767	
318.15	0.1566	0.0799	0.0112	0.0799	0.0112	0.1566	
318.15	0.14	0.0893	0.0116	0.0893	0.0116	0.14	
318.15	0.1227	0.0976	0.0113	0.0976	0.0113	0.1227	
318.15	0.1122	0.1031	0.012	0.1031	0.012	0.1122	
318.15	0.0962	0.1121	0.0118	0.1121	0.0118	0.0962	
318.15	0.0816	0.1207	0.0124	0.1207	0.0124	0.0816	
318.15	0.0672	0.1308	0.0125	0.1308	0.0125	0.0672	
318.15	0.0572	0.1385	0.0144	0.1385	0.0144	0.0572	
318.15	0.0485	0.1463	0.0141	0.1463	0.0141	0.0485	
318.15	0.0409	0.1541	0.0159	0.1541	0.0159	0.0409	
318.15	0.0326	0.1616	0.0169	0.1616	0.0169	0.0326	
318.15	0.0233	0.1763	0.0171	0.1763	0.0171	0.0233	
318.15	0.0125	0.1917	0.0206	0.1917	0.0206	0.0125	
318.15	0.0079	0.2109	0.0207	0.2109	0.0207	0.0079	
323.15	0.545	0.0043	0.0043	0.0043	0.0043	0.545	
323.15	0.4894	0.006	0.006	0.006	0.006	0.4894	
323.15	0.4534	0.0093	0.0093	0.0093	0.0093	0.4534	
323.15	0.3899	0.0155	0.0101	0.0155	0.0101	0.3899	
323.15	0.3537	0.0227	0.0102	0.0227	0.0102	0.3537	
323.15	0.3145	0.0285	0.0102	0.0285	0.0102	0.3145	
323.15	0.2856	0.0347	0.0102	0.0347	0.0102	0.2856	
323.15	0.2591	0.0396	0.0103	0.0396	0.0103	0.2591	
323.15	0.236	0.0463	0.0105	0.0463	0.0105	0.236	
323.15	0.2173	0.0519	0.0106	0.0519	0.0106	0.2173	
323.15	0.2033	0.0571	0.0107	0.0571	0.0107	0.2033	
323.15	0.1858	0.0624	0.0108	0.0624	0.0108	0.1858	
323.15	0.1671	0.0703	0.011	0.0703	0.011	0.1671	
323.15	0.1537	0.076	0.0111	0.076	0.0111	0.1537	
323.15	0.1439	0.0804	0.0113	0.0804	0.0113	0.1439	
323.15	0.1352	0.0843	0.0113	0.0843	0.0113	0.1352	
323.15	0.1201	0.0922	0.0116	0.0922	0.0116	0.1201	
323.15	0.1143	0.0948	0.0116	0.0948	0.0116	0.1143	
323.15	0.0968	0.1044	0.0119	0.1044	0.0119	0.0968	
323.15	0.089	0.109	0.0121	0.109	0.0121	0.089	
323.15	0.0817	0.1137	0.0125	0.1137	0.0125	0.0817	
323.15	0.0738	0.1195	0.0126	0.1195	0.0126	0.0738	
323.15	0.0619	0.1277	0.0135	0.1277	0.0135	0.0619	
323.15	0.0534	0.1347	0.0138	0.1347	0.0138	0.0534	
323.15	0.0452	0.1433	0.0153	0.1433	0.0153	0.0452	
323.15	0.0384	0.1506	0.0173	0.1506	0.0173	0.0384	
323.15	0.0306	0.1616	0.0179	0.1616	0.0179	0.0306	
323.15	0.018	0.1818	0.0196	0.1818	0.0196	0.018	
323.15	0.0097	0.2014	0.0218	0.2014	0.0218	0.0097	
