Measured thermophysical data. Miscibility behavior of trihexyl(tetradecyl)phosphonium tetrafluoroborate with cyclic hydrocarbons
Source: Fluid Phase Equilib., 2014, 10.1016/j.fluid.2014.03.020
Compound 1: trihexyl(tetradecyl)-phosphonium tetrafluoroborate, C32H68BF4P, InChI=1S/C32H68P.BF4/c1-5-9-13-17-18-19-20-21-22-23-24-28-32-33(29-25-14-10-6-2,30-26-15-11-7-3)31-27-16-12-8-4;2-1(3,4)5/h5-32H2,1-4H3;/q+1;-1, purity 98%
Compound 2: cyclohexane, C6H12, InChI=1S/C6H12/c1-2-4-6-5-3-1/h1-6H2, purity 99.5%
Compound 3: cyclohexane-d12, C6D12, InChI=1S/C6H12/c1-2-4-6-5-3-1/h1-6H2/i1D2,2D2,3D2,4D2,5D2,6D2, purity 99.6%
Compound 4: methylcyclohexane, C7H14, InChI=1S/C7H14/c1-7-5-3-2-4-6-7/h7H,2-6H2,1H3, purity 99%
Compound 5: methylcyclohexane-d14, C7D14, InChI=1S/C7H14/c1-7-5-3-2-4-6-7/h7H,2-6H2,1H3/i1D3,2D2,3D2,4D2,5D2,6D2,7D, purity 99.5%
Compound 6: cycloheptane, C7H14, InChI=1S/C7H14/c1-2-4-6-7-5-3-1/h1-7H2, purity 98%
Compound 7: 1,2-dimethylcyclohexane, C8H16, InChI=1S/C8H16/c1-7-5-3-4-6-8(7)2/h7-8H,3-6H2,1-2H3, purity 98%
Compound 8: 1,3-dimethylcyclohexane, C8H16, InChI=1S/C8H16/c1-7-4-3-5-8(2)6-7/h7-8H,3-6H2,1-2H3, purity 99%

System: cyclohexane + trihexyl(tetradecyl)-phosphonium tetrafluoroborate; phases: Liquid mixture 1, Liquid mixture 2
Fixed: Pressure, kPa = 101
Property: Liquid-liquid equilibrium temperature, K (Liquid mixture 1); method: VISOBS
Mole fraction of trihexyl(tetradecyl)-phosphonium tetrafluoroborate	Liquid-liquid equilibrium temperature, K	uncertainty
0.0078	307.04	0.19
0.0097	307.79	0.19
0.0109	308.17	0.18
0.0125	308.38	0.17
0.0141	308.53	0.17
0.0152	308.62	0.17
0.0165	308.63	0.17
0.0171	308.66	0.17
0.0178	308.62	0.17
0.0188	308.62	0.17
0.0206	308.61	0.17
0.0218	308.54	0.17
0.0235	308.31	0.18
0.0248	308.03	0.18
0.0267	307.7	0.18
0.0296	307.04	0.18
0.0357	305.22	0.18
0.0403	303.77	0.19
0.0482	301.17	0.19

System: cyclohexane + trihexyl(tetradecyl)-phosphonium tetrafluoroborate; phases: Liquid mixture 1, Liquid mixture 2
Property: Upper consolute temperature, K (Liquid mixture 1); method: derived with scaling equation
Mole fraction of trihexyl(tetradecyl)-phosphonium tetrafluoroborate	Upper consolute temperature, K	uncertainty
0.018	308.62	0.02

System: cycloheptane + trihexyl(tetradecyl)-phosphonium tetrafluoroborate; phases: Liquid mixture 1, Liquid mixture 2
Fixed: Pressure, kPa = 101
Property: Liquid-liquid equilibrium temperature, K (Liquid mixture 1); method: VISOBS
Mole fraction of trihexyl(tetradecyl)-phosphonium tetrafluoroborate	Liquid-liquid equilibrium temperature, K	uncertainty
0.01	309.48	0.18
0.0115	309.86	0.18
0.0125	310.07	0.18
0.0149	310.46	0.18
0.0164	310.8	0.18
0.0182	311	0.17
0.0204	311.22	0.17
0.0229	311.33	0.17
0.0246	311.34	0.17
0.0272	311.34	0.17
0.0297	311.17	0.18
0.0315	310.77	0.18
0.0349	310.17	0.18
0.0366	309.69	0.18
0.0386	309	0.18
0.0415	308.44	0.18
0.0452	307.39	0.18
0.052	306.04	0.18

System: cycloheptane + trihexyl(tetradecyl)-phosphonium tetrafluoroborate; phases: Liquid mixture 1, Liquid mixture 2
Property: Upper consolute temperature, K (Liquid mixture 1); method: derived with scaling equation
Mole fraction of trihexyl(tetradecyl)-phosphonium tetrafluoroborate	Upper consolute temperature, K	uncertainty
0.024	311.33	0.02

System: methylcyclohexane + trihexyl(tetradecyl)-phosphonium tetrafluoroborate; phases: Liquid mixture 1, Liquid mixture 2
Fixed: Pressure, kPa = 101
Property: Liquid-liquid equilibrium temperature, K (Liquid mixture 1); method: VISOBS
Mole fraction of trihexyl(tetradecyl)-phosphonium tetrafluoroborate	Liquid-liquid equilibrium temperature, K	uncertainty
0.0103	311.24	0.19
0.0135	312.47	0.18
0.0152	312.74	0.18
0.0173	313.08	0.18
0.0189	313.19	0.17
0.0214	313.23	0.17
0.0231	313.21	0.17
0.0242	313.18	0.17
0.0267	313.06	0.17
0.0301	312.67	0.18
0.0321	312.34	0.18
0.0338	311.78	0.18
0.0367	311.05	0.18
0.039	310.46	0.18
0.0417	309.96	0.18
0.0461	308.86	0.18
0.0505	307.95	0.18

System: methylcyclohexane + trihexyl(tetradecyl)-phosphonium tetrafluoroborate; phases: Liquid mixture 1, Liquid mixture 2
Property: Upper consolute temperature, K (Liquid mixture 1); method: derived with scaling equation
Mole fraction of trihexyl(tetradecyl)-phosphonium tetrafluoroborate	Upper consolute temperature, K	uncertainty
0.021	313.21	0.02

System: 1,2-dimethylcyclohexane + trihexyl(tetradecyl)-phosphonium tetrafluoroborate; phases: Liquid mixture 1, Liquid mixture 2
Fixed: Pressure, kPa = 101
Property: Liquid-liquid equilibrium temperature, K (Liquid mixture 1); method: VISOBS
Mole fraction of trihexyl(tetradecyl)-phosphonium tetrafluoroborate	Liquid-liquid equilibrium temperature, K	uncertainty
0.0126	309.33	0.18
0.0142	309.81	0.19
0.0149	310.13	0.18
0.0172	310.48	0.18
0.0188	310.6	0.17
0.0195	310.7	0.18
0.0226	310.94	0.17
0.0242	311.07	0.17
0.0264	310.98	0.17
0.0283	310.97	0.17
0.0315	310.8	0.17
0.0336	310.51	0.18
0.036	310.1	0.18
0.0417	309.34	0.18
0.0452	308.37	0.18
0.0488	307.36	0.18
0.0497	307.21	0.18
0.0541	306.12	0.19
0.0586	304.08	0.2

System: 1,2-dimethylcyclohexane + trihexyl(tetradecyl)-phosphonium tetrafluoroborate; phases: Liquid mixture 1, Liquid mixture 2
Property: Upper consolute temperature, K (Liquid mixture 1); method: derived with scaling equation
Mole fraction of trihexyl(tetradecyl)-phosphonium tetrafluoroborate	Upper consolute temperature, K	uncertainty
0.026	310.98	0.02

System: 1,3-dimethylcyclohexane + trihexyl(tetradecyl)-phosphonium tetrafluoroborate; phases: Liquid mixture 1, Liquid mixture 2
Fixed: Pressure, kPa = 101
Property: Liquid-liquid equilibrium temperature, K (Liquid mixture 1); method: VISOBS
Mole fraction of trihexyl(tetradecyl)-phosphonium tetrafluoroborate	Liquid-liquid equilibrium temperature, K	uncertainty
0.0109	328.4	0.21
0.0136	330.01	0.2
0.0145	330.25	0.18
0.0155	330.54	0.18
0.0177	330.72	0.17
0.0194	330.9	0.17
0.0202	330.87	0.17
0.0239	330.93	0.17
0.0269	330.89	0.17
0.0292	330.89	0.17
0.0307	330.82	0.17
0.0321	330.66	0.17
0.0336	330.49	0.17
0.0359	330.21	0.18
0.0413	329.51	0.18
0.0447	328.98	0.18
0.0484	328.24	0.18
0.0534	326.71	0.18
0.0584	325.25	0.18

System: 1,3-dimethylcyclohexane + trihexyl(tetradecyl)-phosphonium tetrafluoroborate; phases: Liquid mixture 1, Liquid mixture 2
Property: Upper consolute temperature, K (Liquid mixture 1); method: derived with scaling equation
Mole fraction of trihexyl(tetradecyl)-phosphonium tetrafluoroborate	Upper consolute temperature, K	uncertainty
0.025	330.89	0.02

System: cyclohexane-d12 + trihexyl(tetradecyl)-phosphonium tetrafluoroborate; phases: Liquid mixture 1, Liquid mixture 2
Fixed: Pressure, kPa = 101
Property: Liquid-liquid equilibrium temperature, K (Liquid mixture 1); method: VISOBS
Mole fraction of trihexyl(tetradecyl)-phosphonium tetrafluoroborate	Liquid-liquid equilibrium temperature, K	uncertainty
0.0102	308.09	0.17
0.0134	308.45	0.18
0.0154	308.76	0.18
0.0164	308.88	0.17
0.0185	308.89	0.17
0.0204	308.89	0.17
0.0215	308.88	0.17
0.0227	308.82	0.17
0.0263	308.53	0.18
0.0321	307.66	0.18

System: cyclohexane-d12 + trihexyl(tetradecyl)-phosphonium tetrafluoroborate; phases: Liquid mixture 1, Liquid mixture 2
Property: Upper consolute temperature, K (Liquid mixture 1); method: derived with scaling equation
Mole fraction of trihexyl(tetradecyl)-phosphonium tetrafluoroborate	Upper consolute temperature, K	uncertainty
0.019	308.89	0.02

System: methylcyclohexane-d14 + trihexyl(tetradecyl)-phosphonium tetrafluoroborate; phases: Liquid mixture 1, Liquid mixture 2
Fixed: Pressure, kPa = 101
Property: Liquid-liquid equilibrium temperature, K (Liquid mixture 1); method: VISOBS
Mole fraction of trihexyl(tetradecyl)-phosphonium tetrafluoroborate	Liquid-liquid equilibrium temperature, K	uncertainty
0.0136	313.7	0.18
0.0152	314.09	0.18
0.017	314.47	0.17
0.0206	314.61	0.17
0.0211	314.63	0.17
0.0239	314.62	0.17
0.0257	314.62	0.17
0.0274	314.48	0.17
0.0308	314.12	0.18
0.0331	313.55	0.18
0.0343	313.25	0.18
0.0365	312.62	0.18

System: methylcyclohexane-d14 + trihexyl(tetradecyl)-phosphonium tetrafluoroborate; phases: Liquid mixture 1, Liquid mixture 2
Property: Upper consolute temperature, K (Liquid mixture 1); method: derived with scaling equation
Mole fraction of trihexyl(tetradecyl)-phosphonium tetrafluoroborate	Upper consolute temperature, K	uncertainty
0.023	314.62	0.02
