Measured thermophysical data. Experimental investigation and modeling of the solubility of oxcarbazepine (an anticonvulsant agent) in supercritical carbon dioxide
Source: Fluid Phase Equilib., 2019, 10.1016/j.fluid.2019.04.013
Compound 1: carbon dioxide, CO2, InChI=1S/CO2/c2-1-3, purity 99.99%
Compound 2: Oxacarbazepine, C15H12N2O2, InChI=1S/C15H12N2O2/c16-15(19)17-12-7-3-1-5-10(12)9-14(18)11-6-2-4-8-13(11)17/h1-8H,9H2,(H2,16,19), purity 98%

System: carbon dioxide + Oxacarbazepine; phases: Fluid (supercritical or subcritical phases), Crystal
Property: Mole fraction of Oxacarbazepine (Fluid (supercritical or subcritical phases)); method: uv-vis spect.
Temperature, K	Pressure, kPa	Mole fraction of Oxacarbazepine	uncertainty
308	12000	3.23e-06	3.5e-07
308	15000	5.31e-06	4.4e-07
308	18000	8.76e-06	8.9e-07
308	21000	1.176e-05	7.2e-07
308	24000	1.432e-05	5.9e-07
308	27000	1.752e-05	1.42e-06
318	12000	2.31e-06	1.9e-07
318	15000	4.32e-06	3.8e-07
318	18000	7.61e-06	5.2e-07
318	21000	1.246e-05	5.6e-07
318	24000	1.634e-05	1.33e-06
318	27000	2.045e-05	1.64e-06
328	12000	7e-07	1e-07
328	15000	2.31e-06	1.13e-06
328	18000	7.89e-06	5e-07
328	21000	1.431e-05	1.21e-06
328	24000	1.975e-05	1.53e-06
328	27000	2.342e-05	1.42e-06
338	12000	1.1e-07	1.1e-07
338	15000	1.76e-06	2.7e-07
338	18000	7.68e-06	6.7e-07
338	21000	1.643e-05	8.2e-07
338	24000	2.318e-05	5.8e-07
338	27000	2.675e-05	1.09e-06
