Measured thermophysical data. Liquid-liquid equilibrium data for the system limonene + carvone + ethanol + water at 298.2 K
Source: Fluid Phase Equilib., 2013, 10.1016/j.fluid.2013.09.057
Compound 1: 1-methyl-4-(1-methylethenyl)cyclohexene, C10H16, InChI=1S/C10H16/c1-8(2)10-6-4-9(3)5-7-10/h4,10H,1,5-7H2,2-3H3, purity 96.98%
Compound 2: ethanol, C2H6O, InChI=1S/C2H6O/c1-2-3/h3H,2H2,1H3, purity 99.81%
Compound 3: water, H2O, InChI=1S/H2O/h1H2, purity 99.8%

System: ethanol + 1-methyl-4-(1-methylethenyl)cyclohexene + water; phases: Liquid mixture 1, Liquid mixture 2
Fixed: Temperature, K = 298.2
Fixed: Pressure, kPa = 100
Property: Mass fraction of ethanol (Liquid mixture 1); method: Chromatography
Property: Mass fraction of ethanol (Liquid mixture 2); method: Chromatography
Property: Mass fraction of 1-methyl-4-(1-methylethenyl)cyclohexene (Liquid mixture 2); method: Chromatography
Mass fraction of 1-methyl-4-(1-methylethenyl)cyclohexene	Mass fraction of ethanol	uncertainty	Mass fraction of ethanol	uncertainty	Mass fraction of 1-methyl-4-(1-methylethenyl)cyclohexene	uncertainty
0.9087	0.0863	0.016	0.66	0.0185	0.2531	
0.937	0.0599	0.016	0.7143	0.0168	0.1569	
0.9672	0.0305	0.016	0.72	0.0372	0.053	
0.974	0.0234	0.016	0.6815	0.0372	0.0346	
0.9774	0.0204	0.016	0.6622	0.0395	0.0273	
