Measured thermophysical data. Isothermal vapour + liquid equilibrium measurements and correlation for the pentafluoroethane + cyclopropane and the cyclopropane + 1,1,1,2-tetrafluoroethane binary systems
Source: Fluid Phase Equilib., 2007, 10.1016/j.fluid.2006.10.023
Compound 1: pentafluoroethane, C2HF5, InChI=1S/C2HF5/c3-1(4)2(5,6)7/h1H
Compound 2: 1,1,1,2-tetrafluoroethane, C2H2F4, InChI=1S/C2H2F4/c3-1-2(4,5)6/h1H2
Compound 3: cyclopropane, C3H6, InChI=1S/C3H6/c1-2-3-1/h1-3H2

System: pentafluoroethane; phases: Liquid, Gas
Property: Vapor or sublimation pressure, kPa (Liquid); method: Closed cell (Static) method
Temperature, K	Vapor or sublimation pressure, kPa	uncertainty
253.15	337.3	2.3
273.15	672.1	2.9
293.15	1204.7	4.1

System: 1,1,1,2-tetrafluoroethane; phases: Liquid, Gas
Property: Vapor or sublimation pressure, kPa (Liquid); method: Closed cell (Static) method
Temperature, K	Vapor or sublimation pressure, kPa	uncertainty
253.15	133.5	2.1
273.15	291.8	2.2
293.15	572.1	2.6

System: cyclopropane; phases: Liquid, Gas
Property: Vapor or sublimation pressure, kPa (Liquid); method: Closed cell (Static) method
Temperature, K	Vapor or sublimation pressure, kPa	uncertainty
253.15	171.3	2.1
253.15	171.2	2.1
273.15	344.1	2.3
273.15	344.7	2.3
293.15	631.7	2.8
293.15	632.2	2.8

System: cyclopropane + 1,1,1,2-tetrafluoroethane; phases: Liquid, Gas
Property: Azeotropic pressure, kPa (Liquid); method: By X=Y
Temperature, K	Azeotropic pressure, kPa	uncertainty
253.15	221	2
273.15	450	3
293.15	821	4

System: cyclopropane + 1,1,1,2-tetrafluoroethane; phases: Liquid, Gas
Property: Azeotropic composition: mole fraction of cyclopropane (Liquid); method: By X=Y
Temperature, K	Azeotropic composition: mole fraction of cyclopropane	uncertainty
253.15	0.62	0.006
273.15	0.599	0.006
293.15	0.573	0.006

System: cyclopropane + 1,1,1,2-tetrafluoroethane; phases: Liquid, Gas
Property: Vapor or sublimation pressure, kPa (Liquid); method: Closed cell (Static) method
Mole fraction of cyclopropane	Temperature, K	Vapor or sublimation pressure, kPa	uncertainty
0	253.15	133.5	2.1
0	273.15	291.8	2.2
0	293.15	572.1	2.6
0.058	273.15	335.9	4.2
0.0671	293.15	645.8	6.1
0.1153	253.15	178.5	2.9
0.1721	293.15	730.5	5.3
0.183	273.15	394.7	3.2
0.1892	253.15	196.9	2.3
0.2077	293.15	744.4	3.8
0.299	253.15	209.2	2.2
0.3062	293.15	784	3.5
0.3077	273.15	426.1	2.6
0.3884	253.15	216.2	2.2
0.4574	273.15	445.8	3
0.4631	293.15	815.6	3.3
0.5044	253.15	220.7	2.2
0.5183	273.15	447.9	2.5
0.5657	293.15	821.1	3.2
0.5964	293.15	820.8	3.2
0.6012	273.15	450.5	2.8
0.6132	273.15	450.2	2.8
0.6176	253.15	221.4	2.2
0.6749	253.15	221.4	2.2
0.6859	273.15	446.6	2.9
0.691	293.15	814.4	3.2
0.7305	253.15	219.4	2.2
0.7637	293.15	800.7	3.5
0.8287	293.15	779	4.4
0.8703	253.15	210.3	2.3
0.9101	273.15	406	2.6
0.9293	293.15	716.6	5.1
0.9662	293.15	680.6	7.7
0.9719	253.15	185.6	2.7
0.9785	273.15	366	4
1	253.15	171.2	2.1
1	273.15	344.7	2.3
1	293.15	632.2	2.8

System: cyclopropane + 1,1,1,2-tetrafluoroethane; phases: Gas, Liquid
Property: Mole fraction of cyclopropane (Gas); method: Chromatography
Mole fraction of cyclopropane	Temperature, K	Mole fraction of cyclopropane	uncertainty
0	253.15	0	0.0001
0	273.15	0	0.0001
0	293.15	0	0.0001
0.058	273.15	0.1543	0.0131
0.0671	293.15	0.1521	0.0122
0.1153	253.15	0.3087	0.0147
0.1721	293.15	0.3076	0.0105
0.183	273.15	0.3588	0.01
0.1892	253.15	0.4063	0.009
0.2077	293.15	0.3408	0.0084
0.299	253.15	0.4885	0.0082
0.3062	293.15	0.4218	0.0081
0.3077	273.15	0.4609	0.0081
0.3884	253.15	0.533	0.0077
0.4574	273.15	0.5359	0.0078
0.4631	293.15	0.5164	0.008
0.5044	253.15	0.5797	0.0073
0.5183	273.15	0.5708	0.0075
0.5657	293.15	0.5689	0.0077
0.5964	293.15	0.5844	0.0076
0.6012	273.15	0.5977	0.0076
0.6132	273.15	0.6042	0.0076
0.6176	253.15	0.6167	0.0071
0.6749	253.15	0.6389	0.0071
0.6859	273.15	0.6354	0.008
0.691	293.15	0.6334	0.0075
0.7305	253.15	0.6605	0.0075
0.7637	293.15	0.6762	0.0077
0.8287	293.15	0.7265	0.0089
0.8703	253.15	0.7456	0.0087
0.9101	273.15	0.8055	0.0083
0.9293	293.15	0.8446	0.0099
0.9662	293.15	0.9102	0.0145
0.9719	253.15	0.904	0.0127
0.9785	273.15	0.9342	0.0138
1	253.15	1	0.0001
1	273.15	1	0.0001
1	293.15	1	0.0001

System: cyclopropane + pentafluoroethane; phases: Liquid, Gas
Property: Azeotropic pressure, kPa (Liquid); method: By X=Y
Temperature, K	Azeotropic pressure, kPa	uncertainty
253.15	363	3
273.15	708	4
293.15	1260	6

System: cyclopropane + pentafluoroethane; phases: Liquid, Gas
Property: Azeotropic composition: mole fraction of pentafluoroethane (Liquid); method: By X=Y
Temperature, K	Azeotropic composition: mole fraction of pentafluoroethane	uncertainty
253.15	0.755	0.004
273.15	0.779	0.004
293.15	0.792	0.004

System: cyclopropane + pentafluoroethane; phases: Liquid, Gas
Property: Vapor or sublimation pressure, kPa (Liquid); method: Closed cell (Static) method
Mole fraction of pentafluoroethane	Temperature, K	Vapor or sublimation pressure, kPa	uncertainty
0	253.15	171.3	2.1
0	273.15	344.1	2.3
0	293.15	631.7	2.8
0.0307	293.15	731.6	13.9
0.0336	253.15	212.1	5.6
0.0399	273.15	426.7	6.7
0.1044	253.15	264.2	4.2
0.1182	293.15	907.9	10.2
0.1599	273.15	553.1	5.2
0.1736	253.15	295.1	3.3
0.2088	253.15	306.2	2.8
0.2097	293.15	1018.9	6.6
0.2505	253.15	315.8	2.5
0.2746	273.15	613.4	3.3
0.3506	253.15	333.3	2.5
0.3509	293.15	1126.2	5.5
0.3849	273.15	651.7	3.2
0.397	253.15	339.7	2.4
0.4636	293.15	1183.7	4.8
0.4992	273.15	680	3
0.5587	253.15	355.4	2.4
0.614	293.15	1236.4	4.6
0.6804	273.15	704.2	3.6
0.6956	293.15	1252.4	4.3
0.7581	273.15	707.8	3
0.7612	253.15	362.8	2.4
0.7618	293.15	1260.2	4.3
0.7664	293.15	1259	4.3
0.836	293.15	1256.8	4.3
0.8395	253.15	361.2	2.4
0.8683	273.15	701.7	3
0.8971	273.15	697.8	6.5
0.9114	293.15	1242.4	4.5
0.9322	273.15	690.6	3.6
0.9395	253.15	350.9	2.5
0.9516	273.15	685.1	5.2
0.9643	293.15	1224.4	4.9
1	253.15	337.3	2.3
1	273.15	672.1	2.9
1	293.15	1204.7	4.1

System: cyclopropane + pentafluoroethane; phases: Gas, Liquid
Property: Mole fraction of pentafluoroethane (Gas); method: Chromatography
Mole fraction of pentafluoroethane	Temperature, K	Mole fraction of pentafluoroethane	uncertainty
0	253.15	0	0.0001
0	273.15	0	0.0001
0	293.15	0	0.0001
0.0307	293.15	0.1467	0.0176
0.0336	253.15	0.2102	0.0225
0.0399	273.15	0.2083	0.0155
0.1044	253.15	0.3958	0.0136
0.1182	293.15	0.343	0.0119
0.1599	273.15	0.4316	0.0105
0.1736	253.15	0.4843	0.0098
0.2088	253.15	0.5077	0.0082
0.2097	293.15	0.442	0.0086
0.2505	253.15	0.532	0.0078
0.2746	273.15	0.5156	0.0082
0.3506	253.15	0.5784	0.0075
0.3509	293.15	0.5343	0.008
0.3849	273.15	0.5723	0.0076
0.397	253.15	0.597	0.0073
0.4636	293.15	0.5941	0.0076
0.4992	273.15	0.6261	0.0074
0.5587	253.15	0.6595	0.0072
0.614	293.15	0.6732	0.0074
0.6804	273.15	0.7129	0.0072
0.6956	293.15	0.7226	0.0075
0.7581	273.15	0.7626	0.0077
0.7612	253.15	0.7579	0.0071
0.7618	293.15	0.7688	0.0077
0.7664	293.15	0.7713	0.0077
0.836	293.15	0.8265	0.0081
0.8395	253.15	0.816	0.0081
0.8683	273.15	0.8485	0.0078
0.8971	273.15	0.8736	0.0086
0.9114	293.15	0.8964	0.0085
0.9322	273.15	0.9131	0.0093
0.9395	253.15	0.9137	0.0091
0.9516	273.15	0.9382	0.0099
0.9643	293.15	0.9546	0.0092
1	253.15	1	0.0001
1	273.15	1	0.0001
1	293.15	1	0.0001
