Measured thermophysical data. Experimental and modeling studies of binary organic eutectic systems to be used as stabilizers for nitrate esters-based energetic materials
Source: Fluid Phase Equilib., 2019, 10.1016/j.fluid.2019.06.021
Compound 1: N-(2-methoxyethyl)-4-nitroaniline, C9H12N2O3, InChI=1S/C9H12N2O3/c1-14-7-6-10-8-2-4-9(5-3-8)11(12)13/h2-5,10H,6-7H2,1H3
Compound 2: diphenylamine, C12H11N, InChI=1S/C12H11N/c1-3-7-11(8-4-1)13-12-9-5-2-6-10-12/h1-10,13H, purity 99%
Compound 3: 2-[(4-nitrophenyl)amino]ethanol 1-acetate, C10H12N2O4, InChI=1S/C10H12N2O4/c1-8(13)16-7-6-11-9-2-4-10(5-3-9)12(14)15/h2-5,11H,6-7H2,1H3
Compound 4: 2-nitrodiphenylamine, C12H10N2O2, InChI=1S/C12H10N2O2/c15-14(16)12-9-5-4-8-11(12)13-10-6-2-1-3-7-10/h1-9,13H, purity 99%
Compound 5: 1,3-diethyl-1,3-diphenylurea, C17H20N2O, InChI=1S/C17H20N2O/c1-3-18(15-11-7-5-8-12-15)17(20)19(4-2)16-13-9-6-10-14-16/h5-14H,3-4H2,1-2H3, purity 99%

System: N-(2-methoxyethyl)-4-nitroaniline; phases: Crystal, Liquid, Air at 1 atmosphere
Property: Normal melting temperature, K (Crystal); method: DTA
Normal melting temperature, K	uncertainty
358.9	0.9

System: diphenylamine; phases: Crystal, Liquid, Air at 1 atmosphere
Property: Normal melting temperature, K (Crystal); method: DTA
Normal melting temperature, K	uncertainty
325.6	0.9

System: 2-[(4-nitrophenyl)amino]ethanol 1-acetate; phases: Crystal, Liquid, Air at 1 atmosphere
Property: Normal melting temperature, K (Crystal); method: DTA
Normal melting temperature, K	uncertainty
386.3	0.9

System: 2-nitrodiphenylamine; phases: Crystal, Liquid, Air at 1 atmosphere
Property: Normal melting temperature, K (Crystal); method: DTA
Normal melting temperature, K	uncertainty
347.9	0.9

System: 1,3-diethyl-1,3-diphenylurea; phases: Crystal, Liquid, Air at 1 atmosphere
Property: Normal melting temperature, K (Crystal); method: DTA
Normal melting temperature, K	uncertainty
345.7	0.9

System: N-(2-methoxyethyl)-4-nitroaniline + diphenylamine; phases: Liquid, Air at 1 atmosphere, Crystal, Crystal
Property: Eutectic temperature, K (Liquid); method: DTA
Eutectic temperature, K	uncertainty
313.7	0.9

System: N-(2-methoxyethyl)-4-nitroaniline + diphenylamine; phases: Liquid, Air at 1 atmosphere, Crystal, Crystal
Property: Eutectic composition: mole fraction of N-(2-methoxyethyl)-4-nitroaniline (Liquid); method: Derived from phase diagram analysis
Eutectic composition: mole fraction of N-(2-methoxyethyl)-4-nitroaniline	uncertainty
0.3129	0.0024

System: N-(2-methoxyethyl)-4-nitroaniline + diphenylamine; phases: Liquid, Crystal
Fixed: Pressure, kPa = 100
Property: Solid-liquid equilibrium temperature, K (Liquid); method: DTA
Mole fraction of N-(2-methoxyethyl)-4-nitroaniline	Solid-liquid equilibrium temperature, K	uncertainty
0	325.6	0.9
0.0487	324.4	0.9
0.0904	322.9	0.9
0.1489	321.2	0.9
0.1933	319.4	0.9
0.2441	317.6	0.9

System: N-(2-methoxyethyl)-4-nitroaniline + diphenylamine; phases: Liquid, Crystal
Fixed: Pressure, kPa = 100
Property: Solid-liquid equilibrium temperature, K (Liquid); method: DTA
Mole fraction of N-(2-methoxyethyl)-4-nitroaniline	Solid-liquid equilibrium temperature, K	uncertainty
0.3464	319.9	0.9
0.3967	322.9	0.9
0.5012	332.3	0.9
0.5996	341.6	0.9
0.6468	344.7	0.9
0.762	350.9	0.9
0.8044	353	0.9
0.8534	354.9	0.9
0.8998	356.3	0.9
0.9448	357.4	0.9
1	358.9	0.9

System: N-(2-methoxyethyl)-4-nitroaniline + 2-[(4-nitrophenyl)amino]ethanol 1-acetate; phases: Liquid, Air at 1 atmosphere, Crystal, Crystal
Property: Eutectic temperature, K (Liquid); method: DTA
Eutectic temperature, K	uncertainty
345.1	0.9

System: N-(2-methoxyethyl)-4-nitroaniline + 2-[(4-nitrophenyl)amino]ethanol 1-acetate; phases: Liquid, Air at 1 atmosphere, Crystal, Crystal
Property: Eutectic composition: mole fraction of N-(2-methoxyethyl)-4-nitroaniline (Liquid); method: Derived from phase diagram analysis
Eutectic composition: mole fraction of N-(2-methoxyethyl)-4-nitroaniline	uncertainty
0.6688	0.0026

System: N-(2-methoxyethyl)-4-nitroaniline + 2-[(4-nitrophenyl)amino]ethanol 1-acetate; phases: Liquid, Crystal
Fixed: Pressure, kPa = 100
Property: Solid-liquid equilibrium temperature, K (Liquid); method: DTA
Mole fraction of N-(2-methoxyethyl)-4-nitroaniline	Solid-liquid equilibrium temperature, K	uncertainty
0	386.3	0.9
0.0453	385	0.9
0.1067	382.9	0.9
0.1463	380.5	0.9
0.1889	377.2	0.9
0.2517	373	0.9
0.3008	370.5	0.9
0.384	366.6	0.9
0.4973	359.5	0.9
0.5491	356.4	0.9
0.6043	351.4	0.9

System: N-(2-methoxyethyl)-4-nitroaniline + 2-[(4-nitrophenyl)amino]ethanol 1-acetate; phases: Liquid, Crystal
Fixed: Pressure, kPa = 100
Property: Solid-liquid equilibrium temperature, K (Liquid); method: DTA
Mole fraction of N-(2-methoxyethyl)-4-nitroaniline	Solid-liquid equilibrium temperature, K	uncertainty
0.7085	348.8	0.9
0.8025	353.2	0.9
0.8395	355.2	0.9
0.8994	356.7	0.9
0.9504	357.8	0.9
1	358.9	0.9

System: N-(2-methoxyethyl)-4-nitroaniline + 2-nitrodiphenylamine; phases: Liquid, Air at 1 atmosphere, Crystal, Crystal
Property: Eutectic temperature, K (Liquid); method: DTA
Eutectic temperature, K	uncertainty
332	0.9

System: N-(2-methoxyethyl)-4-nitroaniline + 2-nitrodiphenylamine; phases: Liquid, Air at 1 atmosphere, Crystal, Crystal
Property: Eutectic composition: mole fraction of N-(2-methoxyethyl)-4-nitroaniline (Liquid); method: Derived from phase diagram analysis
Eutectic composition: mole fraction of N-(2-methoxyethyl)-4-nitroaniline	uncertainty
0.3905	0.003

System: N-(2-methoxyethyl)-4-nitroaniline + 2-nitrodiphenylamine; phases: Liquid, Crystal
Fixed: Pressure, kPa = 100
Property: Solid-liquid equilibrium temperature, K (Liquid); method: DTA
Mole fraction of N-(2-methoxyethyl)-4-nitroaniline	Solid-liquid equilibrium temperature, K	uncertainty
0	347.9	0.9
0.048	347.1	0.9
0.0996	345.6	0.9
0.1509	344.3	0.9
0.1991	342.3	0.9
0.248	340.7	0.9
0.298	338.1	0.9
0.3504	335.5	0.9

System: N-(2-methoxyethyl)-4-nitroaniline + 2-nitrodiphenylamine; phases: Liquid, Crystal
Fixed: Pressure, kPa = 100
Property: Solid-liquid equilibrium temperature, K (Liquid); method: DTA
Mole fraction of N-(2-methoxyethyl)-4-nitroaniline	Solid-liquid equilibrium temperature, K	uncertainty
0.4496	336.7	0.9
0.5019	339.7	0.9
0.5508	343.1	0.9
0.6012	345.8	0.9
0.6507	348	0.9
0.7026	350.1	0.9
0.7527	351.8	0.9
0.8023	353.8	0.9
0.8483	355.4	0.9
0.9001	357.1	0.9
0.9521	358.1	0.9
1	358.9	0.9

System: N-(2-methoxyethyl)-4-nitroaniline + 1,3-diethyl-1,3-diphenylurea; phases: Liquid, Air at 1 atmosphere, Crystal, Crystal
Property: Eutectic temperature, K (Liquid); method: DTA
Eutectic temperature, K	uncertainty
328.2	0.9

System: N-(2-methoxyethyl)-4-nitroaniline + 1,3-diethyl-1,3-diphenylurea; phases: Liquid, Air at 1 atmosphere, Crystal, Crystal
Property: Eutectic composition: mole fraction of N-(2-methoxyethyl)-4-nitroaniline (Liquid); method: Derived from phase diagram analysis
Eutectic composition: mole fraction of N-(2-methoxyethyl)-4-nitroaniline	uncertainty
0.4305	0.0033

System: N-(2-methoxyethyl)-4-nitroaniline + 1,3-diethyl-1,3-diphenylurea; phases: Liquid, Crystal
Fixed: Pressure, kPa = 100
Property: Solid-liquid equilibrium temperature, K (Liquid); method: DTA
Mole fraction of N-(2-methoxyethyl)-4-nitroaniline	Solid-liquid equilibrium temperature, K	uncertainty
0	345.7	0.9
0.0452	345.3	0.9
0.1067	344.4	0.9
0.1463	343.7	0.9
0.1889	342.7	0.9
0.2517	340	0.9
0.3008	337.9	0.9
0.3405	335.6	0.9
0.3839	333.1	0.9

System: N-(2-methoxyethyl)-4-nitroaniline + 1,3-diethyl-1,3-diphenylurea; phases: Liquid, Crystal
Fixed: Pressure, kPa = 100
Property: Solid-liquid equilibrium temperature, K (Liquid); method: DTA
Mole fraction of N-(2-methoxyethyl)-4-nitroaniline	Solid-liquid equilibrium temperature, K	uncertainty
0.4973	334.1	0.9
0.5491	339.4	0.9
0.6043	343.6	0.9
0.6471	346.3	0.9
0.7084	349.4	0.9
0.758	351.6	0.9
0.8025	353.7	0.9
0.8472	355.2	0.9
0.8994	356.9	0.9
0.9504	357.9	0.9
1	358.9	0.9
