Measured thermophysical data. Solid-liquid equilibria of the binary system (Mn(NO3)2+ H2O) and the ternary system (Mn(NO3)2+ Fe(NO3)3+ H2O) at 0  degC and 20  degC
Source: Fluid Phase Equilib., 2018, 10.1016/j.fluid.2018.03.008
Compound 1: water, H2O, InChI=1S/H2O/h1H2, purity 97%
Compound 2: manganese nitrate, MnN2O6, InChI=1S/Mn.2NO3/c;2*2-1(3)4/q+2;2*-1, purity 99.9%
Compound 3: ferric nitrate, FeN3O9, InChI=1S/Fe.3NO3/c;3*2-1(3)4/q+3;3*-1, purity 99.9%

System: manganese nitrate + water; phases: Liquid, Crystal
Fixed: Pressure, kPa = 101.3
Property: Mass fraction of manganese nitrate (Liquid); method: Titration method
Temperature, K	Mass fraction of manganese nitrate	uncertainty
273.15	0	
265.65	0.1583	0.0036
258.15	0.2568	0.0025
250.65	0.3213	0.0021
248.15	0.339	0.0019
245.65	0.356	0.0018
244.15	0.3642	0.0017

System: manganese nitrate + water; phases: Liquid, Crystal of intercomponent compound 1
Fixed: Pressure, kPa = 101.3
Property: Mass fraction of manganese nitrate (Liquid); method: Titration method
Temperature, K	Mass fraction of manganese nitrate	uncertainty
244.15	0.4222	0.0014
248.15	0.4279	0.0015
258.15	0.4594	0.0015
266.15	0.4738	0.0015
280.65	0.5165	0.0016
283.15	0.5312	0.0018
293.15	0.5761	0.0018
297.15	0.5974	0.0022
298.65	0.6212	0.0036
273.15	0.503	0.0016

System: manganese nitrate + water; phases: Liquid, Crystal of intercomponent compound 1, Crystal of intercomponent compound 2
Property: Peritectic temperature, K (Liquid); method: Titration and conductivity measurements
Pressure, kPa	Peritectic temperature, K	uncertainty
101.3	298.65	0.41

System: manganese nitrate + water; phases: Liquid, Crystal of intercomponent compound 1, Crystal of intercomponent compound 2
Property: Mass fraction of manganese nitrate (Liquid); method: Titration method
Temperature, K	Mass fraction of manganese nitrate	uncertainty
298.65	0.6212	0.0017

System: manganese nitrate + water; phases: Liquid, Crystal of intercomponent compound 2
Fixed: Pressure, kPa = 101.3
Property: Mass fraction of manganese nitrate (Liquid); method: Titration method
Temperature, K	Mass fraction of manganese nitrate	uncertainty
273.15	0.503	0.0017
278.15	0.5261	0.0017
288.15	0.5601	0.0018
298.15	0.6183	0.002

System: manganese nitrate + water; phases: Liquid, Crystal of intercomponent compound 2
Fixed: Pressure, kPa = 101.3
Property: Mass fraction of manganese nitrate (Liquid); method: Titration method
Temperature, K	Mass fraction of manganese nitrate	uncertainty
298.65	0.6212	0.002
300.15	0.629	0.0021
303.15	0.6507	0.0022
306.15	0.6694	0.0022
308.15	0.6852	0.0024

System: manganese nitrate + water; phases: Liquid, Crystal of intercomponent compound 1
Property: Mass fraction of manganese nitrate (Liquid); method: Atomic absorption spectroscopy
Temperature, K	Pressure, kPa	Mass fraction of manganese nitrate	uncertainty
288.15	101.3	0.551	0.002

System: manganese nitrate + water; phases: Liquid, Crystal of intercomponent compound 2
Property: Mass fraction of manganese nitrate (Liquid); method: Atomic absorption spectroscopy
Temperature, K	Pressure, kPa	Mass fraction of manganese nitrate	uncertainty
303.15	101.3	0.6516	0.0017

System: ferric nitrate + manganese nitrate + water; phases: Liquid, Crystal of intercomponent compound 3
Fixed: Pressure, kPa = 101.3
Property: Mass fraction of ferric nitrate (Liquid); method: Titration method
Temperature, K	Mass fraction of manganese nitrate	Mass fraction of ferric nitrate	uncertainty
273.15	0	0.4	0.0014
273.15	0.035	0.374	0.0016
273.15	0.0753	0.3425	0.0015
273.15	0.12	0.3066	0.0015
273.15	0.1559	0.2761	0.0015
273.15	0.1873	0.2493	0.0014
273.15	0.2234	0.2239	0.0014
273.15	0.2556	0.1943	0.0014
273.15	0.2944	0.1647	0.0014
273.15	0.334	0.1344	0.0014
273.15	0.368	0.1067	0.0013
273.15	0.4112	0.0768	0.0013
293.15	0	0.441	0.0014
293.15	0.055	0.4015	0.0016
293.15	0.1	0.364	0.0016
293.15	0.1538	0.3215	0.0015
293.15	0.1926	0.2914	0.0015
293.15	0.225	0.2648	0.0015
293.15	0.2652	0.2334	0.0014
293.15	0.3008	0.2081	0.0014
293.15	0.3377	0.1767	0.0014
293.15	0.3778	0.146	0.0014
293.15	0.4216	0.116	0.0013
293.15	0.458	0.089	0.0013
293.15	0.4953	0.0676	0.0013

System: ferric nitrate + manganese nitrate + water; phases: Liquid, Crystal of intercomponent compound 1
Fixed: Pressure, kPa = 101.3
Property: Mass fraction of ferric nitrate (Liquid); method: Titration method
Temperature, K	Mass fraction of manganese nitrate	Mass fraction of ferric nitrate	uncertainty
273.15	0.4112	0.0768	0.0016
273.15	0.436	0.0448	0.0015
273.15	0.4575	0.0274	0.0013
273.15	0.503	0	
293.15	0.5205	0.0457	0.0016
293.15	0.5394	0.0266	0.0014
293.15	0.5761	0	

System: ferric nitrate + water; phases: Liquid, Crystal of intercomponent compound 3
Fixed: Pressure, kPa = 101.3
Property: Mass fraction of ferric nitrate (Liquid); method: Titration method
Temperature, K	Mass fraction of ferric nitrate	uncertainty
273.15	0.4	0.0014
293.15	0.441	0.0014
