Measured thermophysical data. Investigation of solutions of ethyl alcohol and the deep eutectic solvent of Reline for their volumetric properties
Source: Fluid Phase Equilib., 2018, 10.1016/j.fluid.2018.05.008
Compound 1: choline chloride, C5H14ClNO, InChI=1S/C5H14NO.ClH/c1-6(2,3)4-5-7;/h7H,4-5H2,1-3H3;1H/q+1;/p-1, purity 99%
Compound 2: urea, CH4N2O, InChI=1S/CH4N2O/c2-1(3)4/h(H4,2,3,4), purity 99%
Compound 3: ethanol, C2H6O, InChI=1S/C2H6O/c1-2-3/h3H,2H2,1H3, purity 99.9%

System: ethanol; phases: Liquid
Fixed: Pressure, kPa = 100
Property: Mass density, kg/m3 (Liquid); method: Vibrating tube method
Temperature, K	Mass density, kg/m3	uncertainty
293.15	790.6	1
303.15	781.9	1
313.15	773.3	1
323.15	764.4	1
333.15	755.1	1

System: choline chloride + urea + ethanol; phases: Liquid
Fixed: Pressure, kPa = 100
Property: Mass density, kg/m3 (Liquid); method: Vibrating tube method
Temperature, K	Mole fraction of ethanol	Mole fraction of choline chloride	Mass density, kg/m3	uncertainty
293.15	0	0.333	1199.7	1.1
293.15	0.108	0.297	1176.9	1.2
293.15	0.203	0.266	1147.8	2.4
293.15	0.301	0.233	1116.7	12.7
293.15	0.401	0.2	1081	20.6
293.15	0.5	0.167	1042.4	8.1
293.15	0.6	0.133	1000.8	12.5
293.15	0.699	0.1	955.8	1.4
293.15	0.805	0.065	903.7	1.5
293.15	0.904	0.032	850.1	1.6
293.15	1	0	790.6	1
303.15	0	0.333	1194.2	1.1
303.15	0.108	0.297	1171.1	1.2
303.15	0.203	0.266	1142	2.7
303.15	0.301	0.233	1111	13.6
303.15	0.401	0.2	1075.1	20.8
303.15	0.5	0.167	1036.4	6.7
303.15	0.6	0.133	995	12.9
303.15	0.699	0.1	949.9	1.4
303.15	0.805	0.065	897.1	1.5
303.15	0.904	0.032	842.1	1.6
303.15	1	0	781.9	1
313.15	0	0.333	1188.6	1.1
313.15	0.108	0.297	1165.7	1.2
313.15	0.203	0.266	1136.6	2.5
313.15	0.301	0.233	1105.3	12.7
313.15	0.401	0.2	1069.4	22.7
313.15	0.5	0.167	1030.2	6.5
313.15	0.6	0.133	988.9	14.2
313.15	0.699	0.1	943.6	1.4
313.15	0.805	0.065	889.9	1.5
313.15	0.904	0.032	834.1	1.6
313.15	1	0	773.3	1
323.15	0	0.333	1183.2	1.1
323.15	0.108	0.297	1160.4	1.2
323.15	0.203	0.266	1131	2.3
323.15	0.301	0.233	1099.6	12.7
323.15	0.401	0.2	1063.6	21.3
323.15	0.5	0.167	1024.6	6.7
323.15	0.6	0.133	982.7	12.8
323.15	0.699	0.1	936.8	1.4
323.15	0.805	0.065	882.1	1.5
323.15	0.904	0.032	825.8	1.6
323.15	1	0	764.4	1
333.15	0	0.333	1178	1.1
333.15	0.108	0.297	1155	1.2
333.15	0.203	0.266	1125.4	2.2
333.15	0.301	0.233	1093.9	12.7
333.15	0.401	0.2	1057.8	22.5
333.15	0.5	0.167	1018.5	9.6
333.15	0.6	0.133	975.7	12.6
333.15	0.699	0.1	929.5	1.4
333.15	0.805	0.065	874.2	1.5
333.15	0.904	0.032	817.4	1.7
333.15	1	0	755.1	1

System: choline chloride + urea; phases: Liquid
Fixed: Mole fraction of choline chloride = 0.333
Fixed: Pressure, kPa = 100
Property: Mass density, kg/m3 (Liquid); method: Vibrating tube method
Temperature, K	Mass density, kg/m3	uncertainty
293.15	1199.7	1.1
303.15	1194.2	1.1
313.15	1188.6	1.1
323.15	1183.2	1.1
333.15	1178	1.1
