Measured thermophysical data. Vapour liquid equilibrium for the systems butane + methanol, +2-propanol, +1-butanol, +2-butanol, +2-methyl-2-propanol at 364.5K
Source: Fluid Phase Equilib., 2007, 10.1016/j.fluid.2007.02.028
Compound 1: butane, C4H10, InChI=1S/C4H10/c1-3-4-2/h3-4H2,1-2H3, purity 99.95%
Compound 2: methanol, CH4O, InChI=1S/CH4O/c1-2/h2H,1H3, purity 99.8%
Compound 3: propan-2-ol, C3H8O, InChI=1S/C3H8O/c1-3(2)4/h3-4H,1-2H3, purity 99.8%
Compound 4: butan-1-ol, C4H10O, InChI=1S/C4H10O/c1-2-3-4-5/h5H,2-4H2,1H3, purity 99.5%
Compound 5: butan-2-ol, C4H10O, InChI=1S/C4H10O/c1-3-4(2)5/h4-5H,3H2,1-2H3, purity 99.8%
Compound 6: 2-methylpropan-2-ol, C4H10O, InChI=1S/C4H10O/c1-4(2,3)5/h5H,1-3H3, purity 99.7%

System: butane; phases: Liquid, Gas
Fixed: Temperature, K = 364.5
Property: Vapor or sublimation pressure, kPa (Liquid); method: Closed cell (Static) method
Vapor or sublimation pressure, kPa	uncertainty
1285.3	4.2
1284.2	4.2
1284.8	4.2
1284.1	4.2

System: methanol; phases: Liquid, Gas
Property: Vapor or sublimation pressure, kPa (Liquid); method: Closed cell (Static) method
Temperature, K	Vapor or sublimation pressure, kPa	uncertainty
364.5	268.1	1.6

System: propan-2-ol; phases: Liquid, Gas
Property: Vapor or sublimation pressure, kPa (Liquid); method: Closed cell (Static) method
Temperature, K	Vapor or sublimation pressure, kPa	uncertainty
364.5	144.1	1.5

System: butan-1-ol; phases: Liquid, Gas
Property: Vapor or sublimation pressure, kPa (Liquid); method: Closed cell (Static) method
Temperature, K	Vapor or sublimation pressure, kPa	uncertainty
364.5	36.9	1.4

System: butan-2-ol; phases: Liquid, Gas
Property: Vapor or sublimation pressure, kPa (Liquid); method: Closed cell (Static) method
Temperature, K	Vapor or sublimation pressure, kPa	uncertainty
364.5	74.2	1.4

System: 2-methylpropan-2-ol; phases: Liquid, Gas
Property: Vapor or sublimation pressure, kPa (Liquid); method: Closed cell (Static) method
Temperature, K	Vapor or sublimation pressure, kPa	uncertainty
364.5	142.6	1.5

System: methanol + butane; phases: Liquid, Gas
Fixed: Temperature, K = 364.5
Property: Vapor or sublimation pressure, kPa (Liquid); method: Closed cell (Static) method
Mole fraction of butane	Vapor or sublimation pressure, kPa	uncertainty
0	268.1	1.6
0.0089	369.4	6.6
0.0216	496.8	7.7
0.0357	618.9	7.4
0.0745	872.9	7
0.1203	1064.8	5.3
0.1707	1192.9	4.6
0.2239	1273.8	4.4
0.2783	1323.3	4.4
0.3332	1355.2	4.5
0.3884	1376.2	4.5
0.4425	1390.6	4.6
0.4957	1401.3	4.6
0.4969	1401.1	4.6
0.5458	1409.1	4.6
0.5951	1416.3	4.6
0.6446	1422.2	4.7
0.6946	1428.1	4.7
0.745	1433.6	4.7
0.7956	1438.1	4.7
0.8474	1440.8	4.7
0.8986	1437.8	4.7
0.9499	1412.1	4.8
0.9704	1379.7	5.3
0.9778	1361.6	6.4
0.9897	1324.7	7
1	1285.3	4.2

System: methanol + butane; phases: Liquid, Gas
Property: Azeotropic pressure, kPa (Liquid); method: By P(X) extreme
Temperature, K	Azeotropic pressure, kPa	uncertainty
364.52	1445.13	8.87

System: methanol + butane; phases: Gas, Liquid
Fixed: Temperature, K = 364.5
Property: Mole fraction of butane (Gas); method: calculated from Barker method
Mole fraction of butane	Mole fraction of butane	uncertainty
0	0	0.0001
0.0089	0.2678	0.0139
0.0216	0.4516	0.0088
0.0357	0.5562	0.0043
0.0745	0.6806	0.0029
0.1203	0.7359	0.0015
0.1707	0.7638	0.001
0.2239	0.7792	0.0007
0.2783	0.7883	0.0008
0.3332	0.7941	0.0008
0.3884	0.7983	0.0006
0.4425	0.8015	0.0006
0.4957	0.8042	0.0006
0.4969	0.8042	0.0006
0.5458	0.8063	0.0008
0.5951	0.8082	0.0012
0.6446	0.8104	0.0016
0.6946	0.8138	0.0014
0.745	0.8196	0.0006
0.7956	0.8295	0.001
0.8474	0.845	0.0024
0.8986	0.8675	0.0029
0.9499	0.904	0.0024
0.9704	0.9292	0.0028
0.9778	0.9416	0.0039
0.9897	0.9677	0.0053
1	1	0.0001

System: methanol + butane; phases: Liquid, Gas
Property: Azeotropic composition: mole fraction of butane (Liquid); method: By X=Y
Temperature, K	Azeotropic composition: mole fraction of butane	uncertainty
364.52	0.847	0.003

System: propan-2-ol + butane; phases: Liquid, Gas
Fixed: Temperature, K = 364.5
Property: Vapor or sublimation pressure, kPa (Liquid); method: Closed cell (Static) method
Mole fraction of butane	Vapor or sublimation pressure, kPa	uncertainty
0	144.1	1.5
0.0134	197.4	3.4
0.0301	259.5	3.3
0.0476	321.2	3.6
0.0932	461	3.4
0.1396	580.3	3.2
0.1894	686.1	3.2
0.2387	772.8	3.2
0.2899	847.5	3.1
0.3413	910.1	3.2
0.3933	963.8	3.3
0.4449	1009	3.4
0.497	1049	3.5
0.4979	1048.9	3.5
0.5464	1081.6	3.6
0.5949	1111.2	3.6
0.6437	1138.3	3.7
0.6934	1164	3.8
0.7433	1188.2	3.9
0.7938	1211.3	4
0.8451	1233.5	4
0.8952	1254.7	4.1
0.9484	1274.3	4.2
0.9687	1280.2	4.2
0.9783	1282.2	4.2
0.9891	1283.5	4.2
1	1284.2	4.2

System: propan-2-ol + butane; phases: Liquid, Gas
Property: Azeotropic pressure, kPa (Liquid); method: By P(X) extreme
Temperature, K	Azeotropic pressure, kPa	uncertainty
364.51	1289.71	8.87

System: propan-2-ol + butane; phases: Gas, Liquid
Fixed: Temperature, K = 364.5
Property: Mole fraction of butane (Gas); method: calculated by Barker method
Mole fraction of butane	Mole fraction of butane	uncertainty
0	0	0.0001
0.0134	0.2691	0.02
0.0301	0.4441	0.0084
0.0476	0.5496	0.0105
0.0932	0.6874	0.0053
0.1396	0.7528	0.0063
0.1894	0.7927	0.0045
0.2387	0.8179	0.0048
0.2899	0.8361	0.0042
0.3413	0.8497	0.0034
0.3933	0.8604	0.0026
0.4449	0.8693	0.0022
0.497	0.877	0.0012
0.4979	0.8771	0.0014
0.5464	0.8836	0.0004
0.5949	0.8898	0.001
0.6437	0.8958	0.0016
0.6934	0.902	0.002
0.7433	0.9087	0.0018
0.7938	0.9163	0.0006
0.8451	0.9259	0.001
0.8952	0.939	0.003
0.9484	0.961	0.004
0.9687	0.9733	0.0044
0.9783	0.9804	0.0031
0.9891	0.9894	0.0026
1	1	0.0001

System: propan-2-ol + butane; phases: Liquid, Gas
Property: Azeotropic composition: mole fraction of butane (Liquid); method: By X=Y
Temperature, K	Azeotropic composition: mole fraction of butane	uncertainty
364.51	0.995	0.001

System: butan-1-ol + butane; phases: Liquid, Gas
Fixed: Temperature, K = 364.5
Property: Vapor or sublimation pressure, kPa (Liquid); method: Closed cell (Static) method
Mole fraction of butane	Vapor or sublimation pressure, kPa	uncertainty
0	36.9	1.4
0.014	86.6	3.1
0.0302	141	3.6
0.0483	200.3	3.4
0.0924	331.6	3.3
0.1403	456.5	3.2
0.1883	565.3	3.1
0.2369	660	3.1
0.2866	742.8	3.1
0.3384	816.2	3.1
0.391	878.8	3.2
0.4433	931.8	3.2
0.496	977.3	3.3
0.4974	976.2	3.3
0.5452	1012	3.4
0.5935	1043.9	3.5
0.6419	1072.5	3.6
0.691	1099.3	3.6
0.7411	1124.7	3.7
0.7906	1148.8	3.8
0.8424	1174.1	3.8
0.8949	1201.3	3.9
0.9467	1233.8	4.1
0.9679	1251.2	4.2
0.9794	1262.3	4.2
0.9883	1271.6	4.3
1	1284.8	4.2

System: butan-1-ol + butane; phases: Gas, Liquid
Fixed: Temperature, K = 364.5
Property: Mole fraction of butane (Gas); method: calculated by Barker method
Mole fraction of butane	Mole fraction of butane	uncertainty
0	0	0.0001
0.014	0.5723	0.022
0.0302	0.7373	0.0077
0.0483	0.8141	0.0027
0.0924	0.8871	0.0013
0.1403	0.9178	0.0006
0.1883	0.9337	0.0005
0.2369	0.9434	0.0003
0.2866	0.95	0.0002
0.3384	0.9549	0.0002
0.391	0.9586	0.0002
0.4433	0.9615	0.0002
0.496	0.9639	0.0002
0.4974	0.9639	0.0002
0.5452	0.9658	0.0002
0.5935	0.9675	0.0002
0.6419	0.9692	0.0002
0.691	0.9708	0.0001
0.7411	0.9725	0.0001
0.7906	0.9743	0.0002
0.8424	0.9766	0.0002
0.8949	0.98	0.0001
0.9467	0.9859	0.0002
0.9679	0.99	0.0004
0.9794	0.9929	0.0005
0.9883	0.9956	0.0005
1	1	0.0001

System: butan-2-ol + butane; phases: Liquid, Gas
Fixed: Temperature, K = 364.5
Property: Vapor or sublimation pressure, kPa (Liquid); method: Closed cell (Static) method
Mole fraction of butane	Vapor or sublimation pressure, kPa	uncertainty
0	74.2	1.4
0.0159	123.7	2.8
0.0314	169.9	2.8
0.0491	220.3	3.1
0.095	339.1	3
0.1432	448.2	2.9
0.1914	543.4	2.9
0.2413	629.8	2.9
0.2917	705.8	2.8
0.3431	773.4	2.9
0.3951	833.7	3
0.4464	886.1	3.1
0.4979	933	3.2
0.499	933.5	3.2
0.5474	973.1	3.3
0.596	1009.5	3.4
0.6448	1043.3	3.5
0.6939	1075.5	3.5
0.7441	1106.5	3.6
0.7941	1136.8	3.7
0.8441	1167.3	3.8
0.8959	1200.1	3.9
0.9473	1237.5	4.1
0.9688	1255.3	4.2
0.9796	1265	4.2
0.9889	1273.6	4.3
1	1284.1	4.2

System: butan-2-ol + butane; phases: Gas, Liquid
Fixed: Temperature, K = 364.5
Property: Mole fraction of butane (Gas); method: calculated by Barker method
Mole fraction of butane	Mole fraction of butane	uncertainty
0	0	0.0001
0.0159	0.3994	0.0169
0.0314	0.5629	0.0073
0.0491	0.6626	0.0037
0.095	0.7815	0.0021
0.1432	0.8359	0.0012
0.1914	0.8659	0.0008
0.2413	0.8856	0.0005
0.2917	0.8993	0.0005
0.3431	0.9096	0.0004
0.3951	0.9178	0.0002
0.4464	0.9243	0.0002
0.4979	0.9299	0.0002
0.499	0.93	0.0002
0.5474	0.9346	0.0002
0.596	0.9389	0.0002
0.6448	0.943	0.0002
0.6939	0.9471	0.0002
0.7441	0.9513	0.0002
0.7941	0.9559	0.0001
0.8441	0.9614	0.0001
0.8959	0.9689	0.0002
0.9473	0.9801	0.0004
0.9688	0.9868	0.0005
0.9796	0.9908	0.0005
0.9889	0.9947	0.0006
1	1	0.0001

System: 2-methylpropan-2-ol + butane; phases: Liquid, Gas
Fixed: Temperature, K = 364.5
Property: Vapor or sublimation pressure, kPa (Liquid); method: Closed cell (Static) method
Mole fraction of butane	Vapor or sublimation pressure, kPa	uncertainty
0	142.6	1.5
0.0149	182.6	2.6
0.0323	226.3	2.5
0.0506	270.6	2.8
0.0961	372.4	2.8
0.1437	467.6	2.8
0.1924	554.7	2.8
0.2417	634.2	2.7
0.2923	706.9	2.8
0.3422	771.4	2.9
0.3934	831.4	3
0.4449	885.7	3.1
0.4965	935.2	3.2
0.4984	936.4	3.2
0.5467	978.9	3.3
0.595	1018.2	3.4
0.644	1054.9	3.5
0.6931	1089.4	3.6
0.7432	1122.6	3.7
0.7925	1153.6	3.8
0.8442	1184.9	3.9
0.8951	1214.8	4
0.9459	1244.2	4.1
0.968	1257	4.1
0.9795	1263.8	4.2
0.9893	1271.3	4.3
1	1284.2	4.2

System: 2-methylpropan-2-ol + butane; phases: Gas, Liquid
Fixed: Temperature, K = 364.5
Property: Mole fraction of butane (Gas); method: calculated by Barker method
Mole fraction of butane	Mole fraction of butane	uncertainty
0	0	0.0001
0.0149	0.2207	0.0116
0.0323	0.3744	0.0071
0.0506	0.4778	0.005
0.0961	0.6247	0.0033
0.1437	0.7055	0.0019
0.1924	0.7561	0.0012
0.2417	0.7905	0.001
0.2923	0.816	0.0007
0.3422	0.8354	0.0007
0.3934	0.8513	0.0005
0.4449	0.8646	0.0005
0.4965	0.876	0.0004
0.4984	0.8764	0.0004
0.5467	0.8858	0.0004
0.595	0.8945	0.0004
0.644	0.9029	0.0002
0.6931	0.9112	0.0002
0.7432	0.9197	0.0002
0.7925	0.9284	0.0001
0.8442	0.9386	0.0002
0.8951	0.9517	0.0004
0.9459	0.9705	0.0005
0.968	0.9814	0.0009
0.9795	0.9877	0.0009
0.9893	0.9934	0.001
1	1	0.0001
