Measured thermophysical data. Phase equilibria of phenolic compounds in water or ethanol
Source: Fluid Phase Equilib., 2017, 10.1016/j.fluid.2017.09.008
Compound 1: 2-methoxyphenol, C7H8O2, InChI=1S/C7H8O2/c1-9-7-5-3-2-4-6(7)8/h2-5,8H,1H3, purity 99%
Compound 2: water, H2O, InChI=1S/H2O/h1H2, purity 99.8%
Compound 3: 1,3-dimethoxy-2-hydroxybenzene, C8H10O3, InChI=1S/C8H10O3/c1-10-6-4-3-5-7(11-2)8(6)9/h3-5,9H,1-2H3, purity 99%
Compound 4: 2-methylphenol, C7H8O, InChI=1S/C7H8O/c1-6-4-2-3-5-7(6)8/h2-5,8H,1H3, purity 99%
Compound 5: 3-methylphenol, C7H8O, InChI=1S/C7H8O/c1-6-3-2-4-7(8)5-6/h2-5,8H,1H3, purity 99%
Compound 6: 4-methylphenol, C7H8O, InChI=1S/C7H8O/c1-6-2-4-7(8)5-3-6/h2-5,8H,1H3, purity 99%
Compound 7: 1,2-benzenediol, C6H6O2, InChI=1S/C6H6O2/c7-5-3-1-2-4-6(5)8/h1-4,7-8H, purity 99%
Compound 8: vanillin, C8H8O3, InChI=1S/C8H8O3/c1-11-8-4-6(5-9)2-3-7(8)10/h2-5,10H,1H3, purity 99%
Compound 9: phenol, C6H6O, InChI=1S/C6H6O/c7-6-4-2-1-3-5-6/h1-5,7H, purity 99.5%
Compound 10: ethanol, C2H6O, InChI=1S/C2H6O/c1-2-3/h3H,2H2,1H3, purity 99.8%

System: 2-methoxyphenol + water; phases: Liquid mixture 1, Liquid mixture 2
Fixed: Pressure, kPa = 101
Property: Mole fraction of 2-methoxyphenol (Liquid mixture 1); method: UV-vis spectrophotometry
Temperature, K	Mole fraction of 2-methoxyphenol	uncertainty
298.15	0.0036	0.0036
303.15	0.0037	0.0037
308.15	0.0038	0.0038
313.15	0.0039	0.0039
318.15	0.0039	0.0039
323.15	0.0041	0.0041

System: 2-methoxyphenol + water; phases: Liquid mixture 2, Liquid mixture 1
Fixed: Pressure, kPa = 101
Property: Mole fraction of 2-methoxyphenol (Liquid mixture 2); method: Titration method
Temperature, K	Mole fraction of 2-methoxyphenol	uncertainty
298.15	0.7522	0.0106
303.15	0.7346	0.0107
308.15	0.7226	0.0108
313.15	0.6952	0.0109
318.15	0.6739	0.0111
323.15	0.6443	0.0113

System: 1,3-dimethoxy-2-hydroxybenzene + water; phases: Liquid mixture 1, Liquid mixture 2
Fixed: Pressure, kPa = 101
Property: Mole fraction of 1,3-dimethoxy-2-hydroxybenzene (Liquid mixture 1); method: UV-vis spectrophotometry
Temperature, K	Mole fraction of 1,3-dimethoxy-2-hydroxybenzene	uncertainty
313.15	0.0041	0.0041
318.15	0.0044	0.0044
323.15	0.0048	0.0048

System: 1,3-dimethoxy-2-hydroxybenzene + water; phases: Liquid mixture 2, Liquid mixture 1
Fixed: Pressure, kPa = 101
Property: Mole fraction of 1,3-dimethoxy-2-hydroxybenzene (Liquid mixture 2); method: Titration method
Temperature, K	Mole fraction of 1,3-dimethoxy-2-hydroxybenzene	uncertainty
313.15	0.3516	0.0112
318.15	0.3278	0.011
323.15	0.3136	0.011

System: 1,3-dimethoxy-2-hydroxybenzene + water; phases: Liquid, Crystal
Fixed: Pressure, kPa = 101
Property: Mole fraction of water (Liquid); method: UV-vis spectrophotometer
Temperature, K	Mole fraction of water	uncertainty
293.15	0.9977	0.0023
298.15	0.9972	0.0028
303.15	0.9966	0.0034
308.15	0.9963	0.0037

System: 2-methylphenol + water; phases: Liquid mixture 1, Liquid mixture 2
Fixed: Pressure, kPa = 101
Property: Mole fraction of 2-methylphenol (Liquid mixture 1); method: UV-vis spectrophotometry
Temperature, K	Mole fraction of 2-methylphenol	uncertainty
298.15	0.0042	0.0042
303.15	0.0044	0.0044
308.15	0.0046	0.0046
313.15	0.0047	0.0047
318.15	0.0048	0.0048
323.15	0.0051	0.0051

System: 2-methylphenol + water; phases: Liquid mixture 2, Liquid mixture 1
Fixed: Pressure, kPa = 101
Property: Mole fraction of 2-methylphenol (Liquid mixture 2); method: Titration method
Temperature, K	Mole fraction of 2-methylphenol	uncertainty
298.15	0.5152	0.0121
303.15	0.5102	0.0122
308.15	0.5046	0.0122
313.15	0.499	0.0122
318.15	0.4944	0.0122
323.15	0.4846	0.0121

System: 3-methylphenol + water; phases: Liquid mixture 1, Liquid mixture 2
Fixed: Pressure, kPa = 101
Property: Mole fraction of 3-methylphenol (Liquid mixture 1); method: UV-vis spectrophotometry
Temperature, K	Mole fraction of 3-methylphenol	uncertainty
298.15	0.0041	0.0041
303.15	0.0042	0.0042
308.15	0.0044	0.0044
313.15	0.0044	0.0044
318.15	0.0046	0.0046
323.15	0.0049	0.0049

System: 3-methylphenol + water; phases: Liquid mixture 2, Liquid mixture 1
Fixed: Pressure, kPa = 101
Property: Mole fraction of 3-methylphenol (Liquid mixture 2); method: Titration method
Temperature, K	Mole fraction of 3-methylphenol	uncertainty
298.15	0.5209	0.0121
303.15	0.5087	0.0122
308.15	0.4998	0.0123
313.15	0.4859	0.0121
318.15	0.4692	0.012
323.15	0.4573	0.0119

System: 4-methylphenol + water; phases: Liquid mixture 1, Liquid mixture 2
Fixed: Pressure, kPa = 101
Property: Mole fraction of 4-methylphenol (Liquid mixture 1); method: UV-vis spectrophotometry
Temperature, K	Mole fraction of 4-methylphenol	uncertainty
298.15	0.0036	0.0036
303.15	0.0037	0.0037
308.15	0.0038	0.0038
313.15	0.0039	0.0039
318.15	0.004	0.004

System: 4-methylphenol + water; phases: Liquid mixture 2, Liquid mixture 1
Fixed: Pressure, kPa = 101
Property: Mole fraction of 4-methylphenol (Liquid mixture 2); method: Titration method
Temperature, K	Mole fraction of 4-methylphenol	uncertainty
298.15	0.4843	0.0121
303.15	0.472	0.012
308.15	0.4617	0.0119
313.15	0.4518	0.0119
318.15	0.4455	0.0118

System: 1,2-benzenediol + water; phases: Liquid, Crystal
Fixed: Pressure, kPa = 101
Property: Mole fraction of water (Liquid); method: UV-vis spectrophotometer
Temperature, K	Mole fraction of water	uncertainty
293.15	0.9058	0.0102
298.15	0.8771	0.0102
303.15	0.8432	0.0103
308.15	0.8077	0.0103
313.15	0.7523	0.0103
318.15	0.7108	0.0103
323.15	0.655	0.0103

System: vanillin + water; phases: Liquid, Crystal
Fixed: Pressure, kPa = 101
Property: Mole fraction of water (Liquid); method: UV-vis spectrophotometer
Temperature, K	Mole fraction of water	uncertainty
293.15	0.999	0.001
298.15	0.9988	0.0012
303.15	0.9985	0.0015
308.15	0.9981	0.0019
313.15	0.9974	0.0026
318.15	0.9964	0.0036
323.15	0.9949	0.0051

System: phenol + ethanol; phases: Liquid, Gas
Property: Boiling temperature at pressure P, K (Liquid); method: isobaric method
Pressure, kPa	Mole fraction of phenol	Boiling temperature at pressure P, K	uncertainty
9	0.1	303.09	1.13
9	0.198	305.1	1.12
9	0.3	310.04	1.25
9	0.4	313.16	1.19
9	0.495	319.73	1.42
9	0.588	325.77	1.49
9	0.692	333.65	1.53
9	0.794	342.26	1.69
9	0.883	353.85	1.98
15	0.1	312.58	1.28
15	0.198	315.16	1.22
15	0.3	319.57	1.26
15	0.4	323.66	1.3
15	0.495	330.26	1.46
15	0.588	337.31	1.54
15	0.692	345.08	1.62
15	0.794	355.05	1.87
15	0.883	366.57	1.91
33	0.1	328.7	1.82
33	0.198	331.35	1.78
33	0.3	336.15	1.84
33	0.4	339.9	1.89
33	0.495	347.78	2.1
33	0.588	355.56	2.18
33	0.692	364.32	2.33
33	0.794	376.11	2.51
33	0.883	388.5	3.41
55	0.1	340.09	1.96
55	0.198	342.95	2.01
55	0.3	348.05	2.05
55	0.4	352.38	2.18
55	0.495	360.94	2.37
55	0.588	369.17	2.46
55	0.692	378.58	2.59
55	0.794	389.9	2.89
75	0.1	347.53	2.07
75	0.198	350.61	2.2
75	0.3	355.78	2.19
75	0.4	360.18	2.41
75	0.495	369.28	2.54
75	0.588	378.05	2.64
75	0.692	387.67	2.8
85.1	0.1	350.58	1.97
85.1	0.198	353.7	1.98
85.1	0.3	359.06	2.07
85.1	0.4	363.56	2.14
85.1	0.495	373.06	2.31
85.1	0.588	381.78	2.48
98.6	0.1	354.51	2.25
98.6	0.198	357.65	2.65
98.6	0.3	362.97	2.19
98.6	0.4	367.75	3.33
98.6	0.495	376.85	2.45
98.6	0.588	386.3	2.75

System: 2-methoxyphenol + ethanol; phases: Liquid, Gas
Property: Boiling temperature at pressure P, K (Liquid); method: isobaric method
Pressure, kPa	Mole fraction of 2-methoxyphenol	Boiling temperature at pressure P, K	uncertainty
9	0.109	300.25	1.26
9	0.219	303.33	1.18
9	0.322	304.88	1.16
9	0.4	307.11	1.21
9	0.491	309.4	1.2
9	0.592	312.76	1.21
9	0.701	316.55	1.28
9	0.773	320.29	1.42
9	0.889	332.8	1.78
16.4	0.109	313.11	1.48
16.4	0.219	315.03	1.33
16.4	0.322	317.28	1.36
16.4	0.4	319.36	1.36
16.4	0.491	321.93	1.41
16.4	0.592	325.08	1.43
16.4	0.701	329.79	1.52
16.4	0.773	333.56	1.8
16.4	0.889	347.75	2.07
33.3	0.109	328.13	1.9
33.3	0.219	329.87	1.87
33.3	0.322	332.29	1.88
33.3	0.4	334.17	1.89
33.3	0.491	337.32	1.95
33.3	0.592	340.83	2
33.3	0.701	346.2	2.14
33.3	0.773	350.9	2.54
33.3	0.889	368.35	2.91
50	0.109	337.36	1.84
50	0.219	339.06	1.82
50	0.322	341.49	1.84
50	0.4	343.46	1.86
50	0.491	346.85	1.97
50	0.592	350.46	2.01
50	0.701	356.72	2.22
50	0.773	362.19	2.61
50	0.889	381.56	3.13
70	0.109	345.35	2.04
70	0.219	347.1	2.08
70	0.322	349.65	2.09
70	0.4	351.6	2.1
70	0.491	355.68	2.25
70	0.592	359.53	2.36
70	0.701	366.51	2.62
70	0.773	372.24	3.09
70	0.889	394.05	3.61
83.2	0.109	349.63	1.93
83.2	0.219	351.45	1.96
83.2	0.322	354	2.02
83.2	0.4	355.8	1.96
83.2	0.491	360.2	2.22
83.2	0.592	364.1	2.27
83.2	0.701	371.89	2.57
83.2	0.773	377.68	2.96
83.2	0.889	400.47	4.27
99.6	0.109	354.12	2.13
96.1	0.219	354.92	2.03
99.2	0.322	358.7	2.28
97.7	0.4	359.87	2.72
99	0.491	365.43	2.36
97.1	0.592	368.8	3.57
99.7	0.701	377.89	2.94
99	0.773	383.82	3.11
96.5	0.889	409.48	5.59

System: 2-methoxyphenol + ethanol; phases: Liquid
Fixed: Pressure, kPa = 101
Fixed: Temperature, K = 298.15
Property: Excess molar enthalpy (molar enthalpy of mixing), kJ/mol (Liquid); method: DSC [Setaram C80]
Mole fraction of 2-methoxyphenol	Excess molar enthalpy (molar enthalpy of mixing), kJ/mol	uncertainty
0.0168	-0.02995	0.02167
0.1988	-0.37949	0.01713
0.3994	-0.5491	0.01142
0.608	-0.50533	0.0135
0.7783	-0.23777	0.01878

System: 2-methylphenol + ethanol; phases: Liquid, Gas
Property: Boiling temperature at pressure P, K (Liquid); method: isobaric method
Pressure, kPa	Mole fraction of 2-methylphenol	Boiling temperature at pressure P, K	uncertainty
9	0.097	302.23	1.17
9	0.206	305.46	1.19
9	0.304	308.67	1.27
9	0.39	312.21	1.22
9	0.507	319.01	1.35
9	0.597	326.79	1.43
9	0.699	333.07	1.4
9	0.791	342.8	1.77
9	0.898	359.99	2.22
15	0.097	311.87	1.27
15	0.206	315.32	1.21
15	0.304	319.29	1.24
15	0.39	322.19	1.27
15	0.507	329.86	1.4
15	0.597	336.5	1.44
15	0.699	344.12	1.54
15	0.791	354.31	1.99
15	0.898	373.1	3.09
35.1	0.097	329.36	1.98
35.1	0.206	333.25	1.96
35.1	0.304	337.22	1.98
35.1	0.39	340.16	2.02
35.1	0.507	348.9	2.2
35.1	0.597	356.03	2.27
35.1	0.699	363.84	2.41
35.1	0.791	375.9	2.59
55.1	0.097	339.54	1.94
55.1	0.206	343.48	1.96
55.1	0.304	347.87	2
55.1	0.39	350.35	1.97
55.1	0.507	360.29	2.25
55.1	0.597	367.82	2.31
55.1	0.699	376.33	2.6
55.1	0.791	389.39	3.21
75	0.097	346.85	2.09
75	0.206	351.09	2.18
75	0.304	355.53	2.14
75	0.39	357.5	2.3
75	0.507	368.4	2.44
75	0.597	376.1	2.5
75	0.699	385.84	2.76
85.1	0.097	349.95	1.94
85.1	0.206	354.17	2.04
85.1	0.304	358.8	2.08
85.1	0.39	360.75	1.85
85.1	0.507	371.88	2
85.1	0.597	379.52	2.54
85.1	0.699	389.62	2.43
99.1	0.097	353.75	2.14
97.7	0.206	357.95	2.4
99.7	0.304	363.05	2.27
99.9	0.39	364.6	3.31
99.1	0.507	374.97	2.25
98.5	0.597	384.56	2.71
99.4	0.699	394.11	2.59

System: 2-methylphenol + ethanol; phases: Liquid
Fixed: Pressure, kPa = 101
Fixed: Temperature, K = 298.15
Property: Excess molar enthalpy (molar enthalpy of mixing), kJ/mol (Liquid); method: DSC [Setaram C80]
Mole fraction of 2-methylphenol	Excess molar enthalpy (molar enthalpy of mixing), kJ/mol	uncertainty
0.1954	-1.11203	0.03901
0.4127	-1.62073	0.03511
0.6007	-1.65217	0.03693
0.8013	-0.94358	0.04693

System: 3-methylphenol + ethanol; phases: Liquid
Fixed: Pressure, kPa = 101
Fixed: Temperature, K = 298.15
Property: Excess molar enthalpy (molar enthalpy of mixing), kJ/mol (Liquid); method: DSC [Setaram C80]
Mole fraction of 3-methylphenol	Excess molar enthalpy (molar enthalpy of mixing), kJ/mol	uncertainty
0.2003	-0.79199	0.02393
0.4097	-1.2277	0.01671
0.5861	-1.14624	0.0197
0.7875	-0.68742	0.0255

System: phenol + water; phases: Liquid mixture 1, Liquid mixture 2
Fixed: Pressure, kPa = 101
Property: Mole fraction of phenol (Liquid mixture 1); method: UV-vis spectrophotometry
Temperature, K	Mole fraction of phenol	uncertainty
298.15	0.0172	0.01
303.15	0.0184	0.01
308.15	0.0195	0.01
313.15	0.0207	0.01
318.15	0.0217	0.01
323.15	0.0242	0.01
