Measured thermophysical data. Aqueous biphasic systems composed of ionic liquid and fructose
Source: Fluid Phase Equilib., 2007, 10.1016/j.fluid.2007.01.027
Compound 1: D-fructose, C6H12O6, InChI=1S/C6H12O6/c7-1-3(9)5(11)6(12)4(10)2-8/h3,5-9,11-12H,1-2H2/t3-,5-,6-/m1/s1
Compound 2: 1-butyl-3-methylimidazolium tetrafluoroborate, C8H15BF4N2, InChI=1S/C8H15N2.BF4/c1-3-4-5-10-7-6-9(2)8-10;2-1(3,4)5/h6-8H,3-5H2,1-2H3;/q+1;-1
Compound 3: water, H2O, InChI=1S/H2O/h1H2

System: D-fructose + water + 1-butyl-3-methylimidazolium tetrafluoroborate; phases: Liquid mixture 1, Liquid mixture 2
Fixed: Pressure, kPa = 101
Property: Mass fraction of D-fructose (Liquid mixture 1); method: Titration method
Temperature, K	Mass fraction of 1-butyl-3-methylimidazolium tetrafluoroborate	Mass fraction of D-fructose	uncertainty
298.15	0.02522	0.6432	0.0167
298.15	0.03214	0.6003	0.017
298.15	0.03972	0.5564	0.0176
298.15	0.04465	0.516	0.0178
298.15	0.05505	0.472	0.0172
298.15	0.06195	0.4315	0.0157
298.15	0.07071	0.4087	0.0147
298.15	0.08483	0.3667	0.0137
298.15	0.09863	0.3245	0.0124
298.15	0.1157	0.2838	0.011
298.15	0.1386	0.2403	0.0096
298.15	0.1639	0.2012	0.008
298.15	0.2084	0.1589	0.0064
298.15	0.2661	0.1211	0.0052
298.15	0.3183	0.0983	0.00421
298.15	0.3682	0.08419	0.0038
298.15	0.4238	0.06573	0.00329
298.15	0.4712	0.05693	0.00258
298.15	0.526	0.04944	0.00245
298.15	0.5715	0.04107	0.00207
298.15	0.6184	0.03763	0.00183
298.15	0.6546	0.03248	0.00186
298.15	0.7062	0.02764	0.00157
298.15	0.7305	0.02588	0.00134
298.15	0.7551	0.02429	0.00128
298.15	0.779	0.0228	0.00146
298.15	0.8086	0.02012	0.00168
298.15	0.8387	0.01715	0.00152
298.15	0.8808	0.01404	0.00139
308.15	0.03024	0.697	0.0171
308.15	0.03229	0.6666	0.0176
308.15	0.03931	0.5972	0.0181
308.15	0.04545	0.5361	0.0181
308.15	0.05284	0.5068	0.0179
308.15	0.05924	0.4767	0.0173
308.15	0.06997	0.4343	0.0156
308.15	0.09032	0.382	0.0141
308.15	0.1071	0.3375	0.0128
308.15	0.13	0.2866	0.0107
308.15	0.1675	0.2456	0.0092
308.15	0.2021	0.2114	0.0082
308.15	0.2333	0.1885	0.0072
308.15	0.2738	0.1657	0.0065
308.15	0.2999	0.1532	0.0059
308.15	0.3582	0.13	0.0054
308.15	0.3947	0.1172	0.0049
308.15	0.4527	0.097	0.00459
308.15	0.5086	0.07906	0.00417
308.15	0.5622	0.0636	0.00381
308.15	0.5955	0.05529	0.00321
308.15	0.63	0.04778	0.00304
308.15	0.6787	0.03855	0.00287
308.15	0.7321	0.02872	0.00233
308.15	0.7909	0.02325	0.00181
308.15	0.8526	0.01747	0.00168
318.15	0.04087	0.6862	0.0201
318.15	0.04535	0.6231	0.0225
318.15	0.04751	0.5707	0.0285
318.15	0.06112	0.509	0.0183
318.15	0.07051	0.4567	0.0165
318.15	0.0915	0.4039	0.0145
318.15	0.115	0.3607	0.013
318.15	0.1452	0.3229	0.0118
318.15	0.174	0.2848	0.0106
318.15	0.2192	0.2439	0.0092
318.15	0.2584	0.2184	0.0082
318.15	0.3103	0.1911	0.0073
318.15	0.3639	0.1663	0.0067
318.15	0.4007	0.1496	0.0064
318.15	0.4469	0.1285	0.0059
318.15	0.5002	0.1077	0.0053
318.15	0.5635	0.08463	0.00492
318.15	0.5979	0.07391	0.00457
318.15	0.6437	0.05938	0.00461
318.15	0.6696	0.05095	0.00347
318.15	0.7102	0.0442	0.003
318.15	0.7659	0.03326	0.00317
318.15	0.8201	0.02305	0.00319

System: D-fructose + water + 1-butyl-3-methylimidazolium tetrafluoroborate; phases: Liquid mixture 1, Liquid mixture 2
Fixed: Pressure, kPa = 101
Property: Mass fraction of D-fructose (Liquid mixture 1); method: Titration method
Property: Mass fraction of 1-butyl-3-methylimidazolium tetrafluoroborate (Liquid mixture 2); method: Titration method
Property: Mass fraction of D-fructose (Liquid mixture 2); method: Titration method
Temperature, K	Mass fraction of 1-butyl-3-methylimidazolium tetrafluoroborate	Mass fraction of D-fructose	uncertainty	Mass fraction of 1-butyl-3-methylimidazolium tetrafluoroborate	uncertainty	Mass fraction of D-fructose	uncertainty
298.15	0.6978	0.03044	0.00164	0.1502	0.0055	0.2196	
298.15	0.7768	0.02335	0.00169	0.09345	0.00419	0.3491	
298.15	0.8328	0.0175	0.00145	0.05479	0.00311	0.4711	
298.15	0.8692	0.01629	0.00081	0.0357	0.0025	0.5726	
308.15	0.7074	0.03306	0.00246	0.1289	0.0049	0.2804	
308.15	0.7698	0.02574	0.00199	0.08624	0.00386	0.4048	
308.15	0.827	0.0192	0.00169	0.0565	0.0029	0.5219	
308.15	0.855	0.01804	0.00094	0.04356	0.00228	0.6149	
318.15	0.7186	0.04229	0.00286	0.1241	0.0049	0.3361	
318.15	0.76	0.03523	0.00313	0.07475	0.00406	0.4726	
318.15	0.7927	0.02817	0.00319	0.04456	0.0029	0.5775	
318.15	0.8121	0.02542	0.00247	0.03871	0.00173	0.6473	
