Measured thermophysical data. High-pressure phase behavior of CO2 + 1-butyl-3-methylimidazolium chloride system
Source: Fluid Phase Equilib., 2010, 10.1016/j.fluid.2010.09.039
Compound 1: 1-butyl-3-methylimidazolium chloride, C8H15ClN2, InChI=1S/C8H15N2.ClH/c1-3-4-5-10-7-6-9(2)8-10;/h6-8H,3-5H2,1-2H3;1H/q+1;/p-1, purity 99%
Compound 2: carbon dioxide, CO2, InChI=1S/CO2/c2-1-3, purity 99.999%

System: carbon dioxide + 1-butyl-3-methylimidazolium chloride; phases: Liquid mixture 1, Liquid mixture 2, Gas
Property: Vapor or sublimation pressure, kPa (Liquid mixture 1); method: Closed cell (Static) method
Temperature, K	Vapor or sublimation pressure, kPa	uncertainty
298.88	6462	27
300.18	6640	28
301.15	6800	29
302.15	6944	29
303.13	7088	31
303.33	7123	30
303.53	7153	30
303.72	7184	30
303.93	7216	30
304.13	7246	30

System: carbon dioxide + 1-butyl-3-methylimidazolium chloride; phases: Liquid, Gas
Property: Vapor or sublimation pressure, kPa (Liquid); method: Bubble Point
Mole fraction of carbon dioxide	Temperature, K	Vapor or sublimation pressure, kPa	uncertainty
0.1306	353.15	2454	60
0.1306	358.15	2525	51
0.1306	363.15	2667	57
0.1306	368.15	2809	51
0.1306	373.15	2969	54
0.1522	353.15	3142	40
0.1522	358.15	3380	102
0.1522	363.15	3582	81
0.1522	368.15	3848	65
0.1522	373.15	4051	57
0.1786	353.15	4338	44
0.1786	358.15	4629	70
0.1786	363.15	4915	50
0.1786	368.15	5298	83
0.1786	373.15	5601	58
0.2375	353.15	6664	85
0.2375	358.15	7152	109
0.2375	363.15	7562	76
0.2375	368.15	8095	67
0.2375	373.15	8389	84
0.2652	353.15	9014	85
0.2652	358.15	9477	89
0.2652	363.15	10004	98
0.2652	368.15	10915	117
0.2652	373.15	11668	110
0.3021	353.15	11167	193
0.3021	358.15	12176	109
0.3021	363.15	13364	95
0.3021	368.15	14239	140
0.3021	373.15	14995	140
0.343	353.15	13625	212
0.343	358.15	14527	170
0.343	363.15	15773	184
0.343	368.15	17186	236
0.343	373.15	18473	229
0.3777	353.15	21299	280
0.3777	358.15	23350	380
0.3777	363.15	25573	397
0.3777	368.15	26997	358
0.3777	373.15	28226	321
0.406	353.15	29364	296
0.406	358.15	31190	289
0.406	363.15	33017	278
0.406	368.15	34947	295
0.406	373.15	36946	321
