Measured thermophysical data. Ultrasonic and viscometric study of molecular interactions in binary mixtures of aniline with 1-propanol, 2-propanol, 2-methyl-1-propanol, and 2-methyl-2-propanol at different temperatures
Source: Fluid Phase Equilib., 2007, 10.1016/j.fluid.2007.07.016
Compound 1: tetrahydrofuran, C4H8O, InChI=1S/C4H8O/c1-2-4-5-3-1/h1-4H2, purity 99.6%
Compound 2: benzene, C6H6, InChI=1S/C6H6/c1-2-4-6-5-3-1/h1-6H, purity 99.8%
Compound 3: toluene, C7H8, InChI=1S/C7H8/c1-7-5-3-2-4-6-7/h2-6H,1H3, purity 99.8%
Compound 4: 1,2-dimethylbenzene, C8H10, InChI=1S/C8H10/c1-7-5-3-4-6-8(7)2/h3-6H,1-2H3, purity 99.7%
Compound 5: 1,3-dimethylbenzene, C8H10, InChI=1S/C8H10/c1-7-4-3-5-8(2)6-7/h3-6H,1-2H3, purity 99.7%
Compound 6: 1,4-dimethylbenzene, C8H10, InChI=1S/C8H10/c1-7-3-5-8(2)6-4-7/h3-6H,1-2H3, purity 99.7%
Compound 7: 1,3,5-trimethylbenzene, C9H12, InChI=1S/C9H12/c1-7-4-8(2)6-9(3)5-7/h4-6H,1-3H3, purity 99.5%

System: tetrahydrofuran; phases: Liquid
Fixed: Pressure, kPa = 101.325
Property: Viscosity, Pa*s (Liquid); method: Capillary tube (Ostwald; Ubbelohde) method
Temperature, K	Viscosity, Pa*s	uncertainty
298.15	0.000458	3.5e-06
308.15	0.0004125	3.2e-06
318.15	0.0003762	3e-06

System: tetrahydrofuran; phases: Liquid
Fixed: Pressure, kPa = 101.325
Property: Speed of sound, m/s (Liquid); method: Linear variable-path acoustic interferometer
Temperature, K	Speed of sound, m/s	uncertainty
298.15	1276.6	1.6
308.15	1231.7	1.6
318.15	1186.4	1.5

System: tetrahydrofuran; phases: Liquid
Property: Viscosity, Pa*s (Liquid); method: Capillary tube (Ostwald; Ubbelohde) method
Temperature, K	Pressure, kPa	Viscosity, Pa*s	uncertainty
288.15	101	0.0005129	3.9e-06

System: tetrahydrofuran; phases: Liquid
Fixed: Pressure, kPa = 101
Property: Speed of sound, m/s (Liquid); method: Linear variable-path acoustic interferometer
Temperature, K	Speed of sound, m/s	uncertainty
288.15	1323.1	1.6
298.15	1277.6	1.6
308.15	1231.5	1.6
318.15	1187.2	1.5

System: benzene; phases: Liquid
Fixed: Pressure, kPa = 101.325
Property: Viscosity, Pa*s (Liquid); method: Capillary tube (Ostwald; Ubbelohde) method
Temperature, K	Viscosity, Pa*s	uncertainty
298.15	0.0006025	4.3e-06
308.15	0.0005395	4e-06
318.15	0.000467	3.6e-06

System: benzene; phases: Liquid
Fixed: Pressure, kPa = 101.325
Property: Speed of sound, m/s (Liquid); method: Linear variable-path acoustic interferometer
Temperature, K	Speed of sound, m/s	uncertainty
298.15	1303.5	1.6
308.15	1257.4	1.5
318.15	1207.2	1.5

System: benzene; phases: Liquid
Property: Viscosity, Pa*s (Liquid); method: Capillary tube (Ostwald; Ubbelohde) method
Temperature, K	Pressure, kPa	Viscosity, Pa*s	uncertainty
288.15	101	0.000693	4.9e-06

System: benzene; phases: Liquid
Property: Speed of sound, m/s (Liquid); method: Linear variable-path acoustic interferometer
Temperature, K	Pressure, kPa	Speed of sound, m/s	uncertainty
288.15	101	1352.4	1.6

System: toluene; phases: Liquid
Fixed: Pressure, kPa = 101.325
Property: Viscosity, Pa*s (Liquid); method: Capillary tube (Ostwald; Ubbelohde) method
Temperature, K	Viscosity, Pa*s	uncertainty
298.15	0.0005531	3.9e-06
308.15	0.000502	3.7e-06
318.15	0.0004379	3.4e-06

System: toluene; phases: Liquid
Fixed: Pressure, kPa = 101.325
Property: Speed of sound, m/s (Liquid); method: Linear variable-path acoustic interferometer
Temperature, K	Speed of sound, m/s	uncertainty
298.15	1310.5	1.6
308.15	1266.2	1.5
318.15	1221	1.5

System: toluene; phases: Liquid
Property: Viscosity, Pa*s (Liquid); method: Capillary tube (Ostwald; Ubbelohde) method
Temperature, K	Pressure, kPa	Viscosity, Pa*s	uncertainty
288.15	101	0.0006456	4.6e-06

System: toluene; phases: Liquid
Property: Speed of sound, m/s (Liquid); method: Linear variable-path acoustic interferometer
Temperature, K	Pressure, kPa	Speed of sound, m/s	uncertainty
288.15	101	1358.5	1.6

System: 1,2-dimethylbenzene; phases: Liquid
Fixed: Pressure, kPa = 101.325
Property: Viscosity, Pa*s (Liquid); method: Capillary tube (Ostwald; Ubbelohde) method
Temperature, K	Viscosity, Pa*s	uncertainty
298.15	0.0007576	5.3e-06
308.15	0.000669	4.8e-06
318.15	0.0005972	4.3e-06

System: 1,2-dimethylbenzene; phases: Liquid
Fixed: Pressure, kPa = 101.325
Property: Speed of sound, m/s (Liquid); method: Linear variable-path acoustic interferometer
Temperature, K	Speed of sound, m/s	uncertainty
298.15	1350.3	1.6
308.15	1321.4	1.6
318.15	1285.8	1.6

System: 1,2-dimethylbenzene; phases: Liquid
Property: Viscosity, Pa*s (Liquid); method: Capillary tube (Ostwald; Ubbelohde) method
Temperature, K	Pressure, kPa	Viscosity, Pa*s	uncertainty
288.15	101	0.0008623	6.1e-06

System: 1,2-dimethylbenzene; phases: Liquid
Property: Speed of sound, m/s (Liquid); method: Linear variable-path acoustic interferometer
Temperature, K	Pressure, kPa	Speed of sound, m/s	uncertainty
288.15	101	1388.5	1.7

System: 1,3-dimethylbenzene; phases: Liquid
Fixed: Pressure, kPa = 101.325
Property: Viscosity, Pa*s (Liquid); method: Capillary tube (Ostwald; Ubbelohde) method
Temperature, K	Viscosity, Pa*s	uncertainty
298.15	0.000588	4.3e-06
308.15	0.0005229	3.9e-06
318.15	0.0004684	3.6e-06

System: 1,3-dimethylbenzene; phases: Liquid
Fixed: Pressure, kPa = 101.325
Property: Speed of sound, m/s (Liquid); method: Linear variable-path acoustic interferometer
Temperature, K	Speed of sound, m/s	uncertainty
298.15	1326.6	1.6
308.15	1281	1.6
318.15	1243	1.5

System: 1,3-dimethylbenzene; phases: Liquid
Property: Viscosity, Pa*s (Liquid); method: Capillary tube (Ostwald; Ubbelohde) method
Temperature, K	Pressure, kPa	Viscosity, Pa*s	uncertainty
288.15	101	0.0006696	4.8e-06

System: 1,3-dimethylbenzene; phases: Liquid
Property: Speed of sound, m/s (Liquid); method: Linear variable-path acoustic interferometer
Temperature, K	Pressure, kPa	Speed of sound, m/s	uncertainty
288.15	101	1373.2	1.7

System: 1,4-dimethylbenzene; phases: Liquid
Fixed: Pressure, kPa = 101.325
Property: Viscosity, Pa*s (Liquid); method: Capillary tube (Ostwald; Ubbelohde) method
Temperature, K	Viscosity, Pa*s	uncertainty
298.15	0.000611	4.4e-06
308.15	0.0005501	4e-06
318.15	0.0004912	3.7e-06

System: 1,4-dimethylbenzene; phases: Liquid
Fixed: Pressure, kPa = 101.325
Property: Speed of sound, m/s (Liquid); method: Linear variable-path acoustic interferometer
Temperature, K	Speed of sound, m/s	uncertainty
298.15	1316.4	1.6
308.15	1268	1.6
318.15	1230.3	1.5

System: 1,4-dimethylbenzene; phases: Liquid
Property: Viscosity, Pa*s (Liquid); method: Capillary tube (Ostwald; Ubbelohde) method
Temperature, K	Pressure, kPa	Viscosity, Pa*s	uncertainty
288.15	101	0.0007084	5.1e-06

System: 1,4-dimethylbenzene; phases: Liquid
Property: Speed of sound, m/s (Liquid); method: Linear variable-path acoustic interferometer
Temperature, K	Pressure, kPa	Speed of sound, m/s	uncertainty
288.15	101	1357.5	1.7

System: 1,3,5-trimethylbenzene; phases: Liquid
Fixed: Pressure, kPa = 101.325
Property: Viscosity, Pa*s (Liquid); method: Capillary tube (Ostwald; Ubbelohde) method
Temperature, K	Viscosity, Pa*s	uncertainty
298.15	0.0006572	4.9e-06
308.15	0.0005792	4.4e-06
318.15	0.0005066	4e-06

System: 1,3,5-trimethylbenzene; phases: Liquid
Fixed: Pressure, kPa = 101.325
Property: Speed of sound, m/s (Liquid); method: Linear variable-path acoustic interferometer
Temperature, K	Speed of sound, m/s	uncertainty
298.15	1369.8	1.7
308.15	1325.2	1.7
318.15	1279	1.6

System: 1,3,5-trimethylbenzene; phases: Liquid
Property: Viscosity, Pa*s (Liquid); method: Capillary tube (Ostwald; Ubbelohde) method
Temperature, K	Pressure, kPa	Viscosity, Pa*s	uncertainty
288.15	101	0.0007592	5.6e-06

System: 1,3,5-trimethylbenzene; phases: Liquid
Property: Speed of sound, m/s (Liquid); method: Linear variable-path acoustic interferometer
Temperature, K	Pressure, kPa	Speed of sound, m/s	uncertainty
288.15	101	1412.3	1.7

System: benzene + tetrahydrofuran; phases: Liquid
Fixed: Pressure, kPa = 101
Property: Viscosity, Pa*s (Liquid); method: Capillary tube (Ostwald; Ubbelohde) method
Temperature, K	Mole fraction of tetrahydrofuran	Viscosity, Pa*s	uncertainty
288.15	0	0.000693	4.9e-06
288.15	0.0754	0.0006847	4.9e-06
288.15	0.1518	0.0006762	4.8e-06
288.15	0.223	0.0006673	4.7e-06
288.15	0.2962	0.0006573	4.7e-06
288.15	0.3556	0.0006484	4.6e-06
288.15	0.4128	0.0006394	4.6e-06
288.15	0.4812	0.0006277	4.5e-06
288.15	0.5506	0.0006151	4.4e-06
288.15	0.6219	0.0006013	4.3e-06
288.15	0.6884	0.0005875	4.3e-06
288.15	0.7512	0.0005739	4.2e-06
288.15	0.8119	0.00056	4.1e-06
288.15	0.8792	0.0005439	4e-06
288.15	0.9388	0.0005289	3.9e-06
288.15	1	0.0005129	3.9e-06
298.15	0	0.0006025	4.4e-06
298.15	0.0754	0.0005973	4.3e-06
298.15	0.1518	0.0005921	4.3e-06
298.15	0.223	0.0005863	4.2e-06
298.15	0.2962	0.0005793	4.2e-06
298.15	0.3556	0.0005728	4.2e-06
298.15	0.4128	0.0005659	4.1e-06
298.15	0.4812	0.0005568	4.1e-06
298.15	0.5506	0.0005467	4e-06
298.15	0.6219	0.0005353	3.9e-06
298.15	0.6884	0.0005237	3.9e-06
298.15	0.7512	0.000512	3.8e-06
298.15	0.8119	0.0004999	3.8e-06
298.15	0.8792	0.0004857	3.7e-06
298.15	0.9388	0.0004724	3.6e-06
298.15	1	0.000458	3.6e-06
308.15	0	0.0005395	4e-06
308.15	0.0754	0.000536	3.9e-06
308.15	0.1518	0.000533	3.9e-06
308.15	0.223	0.000529	3.9e-06
308.15	0.2962	0.0005237	3.8e-06
308.15	0.3556	0.0005186	3.8e-06
308.15	0.4128	0.0005128	3.8e-06
308.15	0.4812	0.000505	3.7e-06
308.15	0.5506	0.0004961	3.7e-06
308.15	0.6219	0.0004858	3.6e-06
308.15	0.6884	0.0004752	3.6e-06
308.15	0.7512	0.0004643	3.5e-06
308.15	0.8119	0.0004529	3.5e-06
308.15	0.8792	0.0004394	3.4e-06
308.15	0.9388	0.0004265	3.4e-06
308.15	1	0.0004125	3.3e-06
318.15	0	0.000467	3.7e-06
318.15	0.0754	0.0004667	3.6e-06
318.15	0.1518	0.0004665	3.6e-06
318.15	0.223	0.0004659	3.6e-06
318.15	0.2962	0.0004637	3.6e-06
318.15	0.3556	0.0004609	3.5e-06
318.15	0.4128	0.0004574	3.5e-06
318.15	0.4812	0.0004522	3.5e-06
318.15	0.5506	0.0004457	3.5e-06
318.15	0.6219	0.0004379	3.4e-06
318.15	0.6884	0.0004295	3.4e-06
318.15	0.7512	0.0004207	3.3e-06
318.15	0.8119	0.0004112	3.3e-06
318.15	0.8792	0.0003996	3.2e-06
318.15	0.9388	0.0003885	3.2e-06
318.15	1	0.0003762	3.1e-06

System: benzene + tetrahydrofuran; phases: Liquid
Fixed: Pressure, kPa = 101
Property: Speed of sound, m/s (Liquid); method: Linear variable-path acoustic interferometer
Temperature, K	Mole fraction of tetrahydrofuran	Speed of sound, m/s	uncertainty
288.15	0	1352.4	1.6
288.15	0.0754	1351.7	1.6
288.15	0.1518	1350.7	1.6
288.15	0.223	1349.8	1.6
288.15	0.2962	1348.5	1.6
288.15	0.3556	1347.4	1.6
288.15	0.4128	1346.3	1.6
288.15	0.4812	1344.6	1.6
288.15	0.5506	1342.7	1.6
288.15	0.6219	1340.5	1.6
288.15	0.6884	1338	1.6
288.15	0.7512	1335.3	1.6
288.15	0.8119	1332.7	1.6
288.15	0.8792	1329.3	1.6
288.15	0.9388	1326.3	1.6
288.15	1	1323.1	1.6
298.15	0	1303.5	1.6
298.15	0.0754	1302.5	1.6
298.15	0.1518	1301.4	1.6
298.15	0.223	1300.6	1.6
298.15	0.2962	1299.3	1.6
298.15	0.3556	1298.4	1.6
298.15	0.4128	1297.5	1.6
298.15	0.4812	1296	1.6
298.15	0.5506	1294.3	1.6
298.15	0.6219	1292.4	1.6
298.15	0.6884	1290.2	1.6
298.15	0.7512	1287.9	1.6
298.15	0.8119	1285.5	1.6
298.15	0.8792	1282.7	1.6
298.15	0.9388	1280.1	1.6
298.15	1	1277.6	1.6
308.15	0	1257.4	1.5
308.15	0.0754	1256	1.5
308.15	0.1518	1254.7	1.5
308.15	0.223	1253.6	1.5
308.15	0.2962	1252.2	1.5
308.15	0.3556	1251.3	1.6
308.15	0.4128	1250.3	1.6
308.15	0.4812	1248.8	1.6
308.15	0.5506	1247.1	1.6
308.15	0.6219	1245.1	1.6
308.15	0.6884	1243	1.6
308.15	0.7512	1240.8	1.6
308.15	0.8119	1238.6	1.6
308.15	0.8792	1236.1	1.6
308.15	0.9388	1233.8	1.6
308.15	1	1231.5	1.6
318.15	0	1207.2	1.5
318.15	0.0754	1206.1	1.5
318.15	0.1518	1205.1	1.5
318.15	0.223	1204.3	1.5
318.15	0.2962	1203.2	1.5
318.15	0.3556	1202.5	1.5
318.15	0.4128	1201.8	1.5
318.15	0.4812	1200.7	1.5
318.15	0.5506	1199.4	1.5
318.15	0.6219	1197.8	1.5
318.15	0.6884	1196.1	1.5
318.15	0.7512	1194.4	1.5
318.15	0.8119	1192.7	1.5
318.15	0.8792	1190.7	1.5
318.15	0.9388	1188.9	1.5
318.15	1	1187.2	1.5

System: toluene + tetrahydrofuran; phases: Liquid
Fixed: Pressure, kPa = 101
Property: Viscosity, Pa*s (Liquid); method: Capillary tube (Ostwald; Ubbelohde) method
Temperature, K	Mole fraction of tetrahydrofuran	Viscosity, Pa*s	uncertainty
288.15	0	0.0006456	4.7e-06
288.15	0.0718	0.0006406	4.6e-06
288.15	0.1498	0.000635	4.6e-06
288.15	0.2283	0.0006285	4.6e-06
288.15	0.2902	0.0006231	4.5e-06
288.15	0.3452	0.0006176	4.5e-06
288.15	0.4005	0.0006113	4.4e-06
288.15	0.4694	0.0006027	4.4e-06
288.15	0.5368	0.0005934	4.3e-06
288.15	0.6067	0.0005834	4.3e-06
288.15	0.6704	0.0005736	4.2e-06
288.15	0.7378	0.0005626	4.1e-06
288.15	0.8018	0.0005515	4.1e-06
288.15	0.8714	0.0005387	4e-06
288.15	0.9368	0.0005259	3.9e-06
288.15	1	0.0005129	3.9e-06
298.15	0	0.0005531	4.1e-06
298.15	0.0718	0.0005513	4e-06
298.15	0.1498	0.0005491	4e-06
298.15	0.2283	0.0005459	4e-06
298.15	0.2902	0.0005431	4e-06
298.15	0.3452	0.0005398	4e-06
298.15	0.4005	0.0005357	3.9e-06
298.15	0.4694	0.0005298	3.9e-06
298.15	0.5368	0.000523	3.9e-06
298.15	0.6067	0.0005155	3.8e-06
298.15	0.6704	0.000508	3.8e-06
298.15	0.7378	0.0004993	3.7e-06
298.15	0.8018	0.0004903	3.7e-06
298.15	0.8714	0.0004797	3.6e-06
298.15	0.9368	0.000469	3.6e-06
298.15	1	0.000458	3.6e-06
308.15	0	0.000502	3.7e-06
308.15	0.0718	0.0005013	3.7e-06
308.15	0.1498	0.0005003	3.7e-06
308.15	0.2283	0.000498	3.7e-06
308.15	0.2902	0.0004956	3.7e-06
308.15	0.3452	0.0004929	3.6e-06
308.15	0.4005	0.0004894	3.6e-06
308.15	0.4694	0.000484	3.6e-06
308.15	0.5368	0.0004775	3.6e-06
308.15	0.6067	0.0004704	3.5e-06
308.15	0.6704	0.000463	3.5e-06
308.15	0.7378	0.0004544	3.5e-06
308.15	0.8018	0.0004453	3.4e-06
308.15	0.8714	0.0004346	3.4e-06
308.15	0.9368	0.0004237	3.3e-06
308.15	1	0.0004125	3.3e-06
318.15	0	0.0004379	3.5e-06
318.15	0.0718	0.0004399	3.5e-06
318.15	0.1498	0.0004415	3.5e-06
318.15	0.2283	0.0004421	3.4e-06
318.15	0.2902	0.0004418	3.4e-06
318.15	0.3452	0.0004408	3.4e-06
318.15	0.4005	0.0004388	3.4e-06
318.15	0.4694	0.0004352	3.4e-06
318.15	0.5368	0.0004307	3.4e-06
318.15	0.6067	0.0004253	3.3e-06
318.15	0.6704	0.0004196	3.3e-06
318.15	0.7378	0.0004125	3.3e-06
318.15	0.8018	0.000405	3.2e-06
318.15	0.8714	0.0003957	3.2e-06
318.15	0.9368	0.0003861	3.2e-06
318.15	1	0.0003762	3.1e-06

System: toluene + tetrahydrofuran; phases: Liquid
Fixed: Pressure, kPa = 101
Property: Speed of sound, m/s (Liquid); method: Linear variable-path acoustic interferometer
Temperature, K	Mole fraction of tetrahydrofuran	Speed of sound, m/s	uncertainty
288.15	0	1358.5	1.6
288.15	0.0718	1357.7	1.6
288.15	0.1498	1356.3	1.6
288.15	0.2283	1354.6	1.6
288.15	0.2902	1353.1	1.6
288.15	0.3452	1351.7	1.6
288.15	0.4005	1350.1	1.6
288.15	0.4694	1347.8	1.6
288.15	0.5368	1345.4	1.6
288.15	0.6067	1342.8	1.6
288.15	0.6704	1340.1	1.6
288.15	0.7378	1337	1.6
288.15	0.8018	1333.8	1.6
288.15	0.8714	1330.2	1.6
288.15	0.9368	1326.6	1.6
288.15	1	1323.1	1.6
298.15	0	1310.5	1.6
298.15	0.0718	1309.4	1.6
298.15	0.1498	1307.9	1.6
298.15	0.2283	1306.2	1.6
298.15	0.2902	1304.8	1.6
298.15	0.3452	1303.4	1.6
298.15	0.4005	1302	1.6
298.15	0.4694	1299.9	1.6
298.15	0.5368	1297.7	1.6
298.15	0.6067	1295.2	1.6
298.15	0.6704	1292.8	1.6
298.15	0.7378	1289.9	1.6
298.15	0.8018	1287	1.6
298.15	0.8714	1284	1.6
298.15	0.9368	1280.7	1.6
298.15	1	1277.6	1.6
308.15	0	1266.2	1.5
308.15	0.0718	1264.6	1.5
308.15	0.1498	1262.7	1.5
308.15	0.2283	1260.7	1.5
308.15	0.2902	1259.1	1.5
308.15	0.3452	1257.6	1.5
308.15	0.4005	1255.9	1.5
308.15	0.4694	1253.7	1.6
308.15	0.5368	1251.4	1.6
308.15	0.6067	1248.8	1.6
308.15	0.6704	1246.3	1.6
308.15	0.7378	1243.5	1.6
308.15	0.8018	1240.7	1.6
308.15	0.8714	1237.6	1.6
308.15	0.9368	1234.5	1.6
308.15	1	1231.5	1.6
318.15	0	1221	1.5
318.15	0.0718	1219.3	1.5
318.15	0.1498	1217.3	1.5
318.15	0.2283	1215.2	1.5
318.15	0.2902	1213.5	1.5
318.15	0.3452	1212	1.5
318.15	0.4005	1210.4	1.5
318.15	0.4694	1208.2	1.5
318.15	0.5368	1205.9	1.5
318.15	0.6067	1203.4	1.5
318.15	0.6704	1200.9	1.5
318.15	0.7378	1198.3	1.5
318.15	0.8018	1195.7	1.5
318.15	0.8714	1192.8	1.5
318.15	0.9368	1190	1.5
318.15	1	1187.2	1.5

System: 1,2-dimethylbenzene + tetrahydrofuran; phases: Liquid
Fixed: Pressure, kPa = 101
Property: Viscosity, Pa*s (Liquid); method: Capillary tube (Ostwald; Ubbelohde) method
Temperature, K	Mole fraction of tetrahydrofuran	Viscosity, Pa*s	uncertainty
288.15	0	0.0008623	6e-06
288.15	0.0764	0.0008385	5.8e-06
288.15	0.1504	0.0008155	5.7e-06
288.15	0.2243	0.0007919	5.5e-06
288.15	0.2942	0.000769	5.4e-06
288.15	0.366	0.0007451	5.2e-06
288.15	0.4226	0.000726	5.1e-06
288.15	0.4801	0.0007063	5e-06
288.15	0.531	0.0006888	4.9e-06
288.15	0.585	0.0006694	4.8e-06
288.15	0.6578	0.0006432	4.6e-06
288.15	0.7322	0.0006159	4.5e-06
288.15	0.8049	0.0005887	4.3e-06
288.15	0.8708	0.0005635	4.2e-06
288.15	0.9392	0.000537	4e-06
288.15	1	0.0005129	3.9e-06
298.15	0	0.0007576	5.4e-06
298.15	0.0764	0.000738	5.2e-06
298.15	0.1504	0.0007192	5.1e-06
298.15	0.2243	0.0006998	5e-06
298.15	0.2942	0.0006807	4.9e-06
298.15	0.366	0.0006606	4.7e-06
298.15	0.4226	0.0006445	4.6e-06
298.15	0.4801	0.0006277	4.5e-06
298.15	0.531	0.0006127	4.5e-06
298.15	0.585	0.0005959	4.3e-06
298.15	0.6578	0.0005731	4.2e-06
298.15	0.7322	0.0005493	4.1e-06
298.15	0.8049	0.0005253	3.9e-06
298.15	0.8708	0.000503	3.8e-06
298.15	0.9392	0.0004794	3.7e-06
298.15	1	0.000458	3.6e-06
308.15	0	0.000669	4.8e-06
308.15	0.0764	0.0006535	4.7e-06
308.15	0.1504	0.0006384	4.6e-06
308.15	0.2243	0.0006226	4.5e-06
308.15	0.2942	0.0006067	4.4e-06
308.15	0.366	0.00059	4.3e-06
308.15	0.4226	0.0005764	4.2e-06
308.15	0.4801	0.0005621	4.1e-06
308.15	0.531	0.0005493	4e-06
308.15	0.585	0.0005348	3.9e-06
308.15	0.6578	0.000515	3.8e-06
308.15	0.7322	0.0004941	3.7e-06
308.15	0.8049	0.0004729	3.6e-06
308.15	0.8708	0.000453	3.5e-06
308.15	0.9392	0.0004319	3.4e-06
308.15	1	0.0004125	3.3e-06
318.15	0	0.0005972	4.3e-06
318.15	0.0764	0.000585	4.3e-06
318.15	0.1504	0.000573	4.2e-06
318.15	0.2243	0.0005602	4.1e-06
318.15	0.2942	0.0005471	4e-06
318.15	0.366	0.0005331	3.9e-06
318.15	0.4226	0.0005216	3.9e-06
318.15	0.4801	0.0005094	3.8e-06
318.15	0.531	0.0004981	3.7e-06
318.15	0.585	0.0004856	3.7e-06
318.15	0.6578	0.0004684	3.6e-06
318.15	0.7322	0.0004498	3.5e-06
318.15	0.8049	0.000431	3.4e-06
318.15	0.8708	0.000413	3.3e-06
318.15	0.9392	0.000394	3.2e-06
318.15	1	0.0003762	3.1e-06

System: 1,2-dimethylbenzene + tetrahydrofuran; phases: Liquid
Fixed: Pressure, kPa = 101
Property: Speed of sound, m/s (Liquid); method: Linear variable-path acoustic interferometer
Temperature, K	Mole fraction of tetrahydrofuran	Speed of sound, m/s	uncertainty
288.15	0	1388.5	1.6
288.15	0.0764	1384.3	1.6
288.15	0.1504	1380	1.6
288.15	0.2243	1375.7	1.6
288.15	0.2942	1371.4	1.6
288.15	0.366	1366.9	1.6
288.15	0.4226	1363.4	1.6
288.15	0.4801	1359.7	1.6
288.15	0.531	1356.3	1.6
288.15	0.585	1352.6	1.6
288.15	0.6578	1347.6	1.6
288.15	0.7322	1342.5	1.6
288.15	0.8049	1337.4	1.6
288.15	0.8708	1332.6	1.6
288.15	0.9392	1327.7	1.6
288.15	1	1323.1	1.6
298.15	0	1350.3	1.6
298.15	0.0764	1345.1	1.6
298.15	0.1504	1340	1.6
298.15	0.2243	1335	1.6
298.15	0.2942	1330	1.6
298.15	0.366	1324.9	1.6
298.15	0.4226	1320.9	1.6
298.15	0.4801	1316.7	1.6
298.15	0.531	1313	1.6
298.15	0.585	1309	1.6
298.15	0.6578	1303.6	1.6
298.15	0.7322	1298	1.6
298.15	0.8049	1292.5	1.6
298.15	0.8708	1287.5	1.6
298.15	0.9392	1282.3	1.6
298.15	1	1277.6	1.6
308.15	0	1321.4	1.6
308.15	0.0764	1314.5	1.6
308.15	0.1504	1307.8	1.6
308.15	0.2243	1301.1	1.6
308.15	0.2942	1294.8	1.6
308.15	0.366	1288.3	1.6
308.15	0.4226	1283.2	1.6
308.15	0.4801	1278	1.6
308.15	0.531	1273.4	1.6
308.15	0.585	1268.5	1.6
308.15	0.6578	1262	1.6
308.15	0.7322	1255.4	1.6
308.15	0.8049	1248.9	1.6
308.15	0.8708	1243	1.6
308.15	0.9392	1236.9	1.6
308.15	1	1231.5	1.6
318.15	0	1285.8	1.6
318.15	0.0764	1277.9	1.5
318.15	0.1504	1270.2	1.5
318.15	0.2243	1262.7	1.5
318.15	0.2942	1255.6	1.5
318.15	0.366	1248.4	1.5
318.15	0.4226	1242.8	1.5
318.15	0.4801	1237.1	1.5
318.15	0.531	1232.1	1.5
318.15	0.585	1226.8	1.5
318.15	0.6578	1219.7	1.5
318.15	0.7322	1212.5	1.5
318.15	0.8049	1205.6	1.5
318.15	0.8708	1199.3	1.5
318.15	0.9392	1192.9	1.5
318.15	1	1187.2	1.5

System: 1,3-dimethylbenzene + tetrahydrofuran; phases: Liquid
Fixed: Pressure, kPa = 101
Property: Viscosity, Pa*s (Liquid); method: Capillary tube (Ostwald; Ubbelohde) method
Temperature, K	Mole fraction of tetrahydrofuran	Viscosity, Pa*s	uncertainty
288.15	0	0.0006696	4.8e-06
288.15	0.0722	0.0006615	4.7e-06
288.15	0.1486	0.0006528	4.7e-06
288.15	0.2134	0.0006449	4.6e-06
288.15	0.2804	0.0006363	4.6e-06
288.15	0.3536	0.0006263	4.5e-06
288.15	0.4255	0.000616	4.5e-06
288.15	0.4864	0.0006068	4.4e-06
288.15	0.5476	0.0005971	4.3e-06
288.15	0.6041	0.0005879	4.3e-06
288.15	0.6751	0.0005757	4.2e-06
288.15	0.7396	0.0005642	4.1e-06
288.15	0.8005	0.0005529	4.1e-06
288.15	0.8722	0.0005392	4e-06
288.15	0.9378	0.0005261	3.9e-06
288.15	1	0.0005129	3.9e-06
298.15	0	0.000588	4.3e-06
298.15	0.0722	0.0005823	4.3e-06
298.15	0.1486	0.0005762	4.2e-06
298.15	0.2134	0.0005703	4.2e-06
298.15	0.2804	0.0005638	4.1e-06
298.15	0.3536	0.000556	4.1e-06
298.15	0.4255	0.0005477	4e-06
298.15	0.4864	0.0005401	4e-06
298.15	0.5476	0.0005321	3.9e-06
298.15	0.6041	0.0005243	3.9e-06
298.15	0.6751	0.0005139	3.8e-06
298.15	0.7396	0.0005038	3.8e-06
298.15	0.8005	0.0004939	3.7e-06
298.15	0.8722	0.0004817	3.7e-06
298.15	0.9378	0.0004699	3.6e-06
298.15	1	0.000458	3.6e-06
308.15	0	0.0005229	3.9e-06
308.15	0.0722	0.0005193	3.8e-06
308.15	0.1486	0.0005151	3.8e-06
308.15	0.2134	0.000511	3.8e-06
308.15	0.2804	0.0005061	3.8e-06
308.15	0.3536	0.0004999	3.7e-06
308.15	0.4255	0.0004932	3.7e-06
308.15	0.4864	0.0004869	3.6e-06
308.15	0.5476	0.00048	3.6e-06
308.15	0.6041	0.0004732	3.6e-06
308.15	0.6751	0.000464	3.5e-06
308.15	0.7396	0.000455	3.5e-06
308.15	0.8005	0.000446	3.4e-06
308.15	0.8722	0.0004347	3.4e-06
308.15	0.9378	0.0004237	3.3e-06
308.15	1	0.0004125	3.3e-06
318.15	0	0.0004684	3.6e-06
318.15	0.0722	0.0004668	3.6e-06
318.15	0.1486	0.0004647	3.5e-06
318.15	0.2134	0.0004621	3.5e-06
318.15	0.2804	0.0004587	3.5e-06
318.15	0.3536	0.0004542	3.5e-06
318.15	0.4255	0.0004489	3.4e-06
318.15	0.4864	0.0004438	3.4e-06
318.15	0.5476	0.0004382	3.4e-06
318.15	0.6041	0.0004323	3.4e-06
318.15	0.6751	0.0004241	3.3e-06
318.15	0.7396	0.0004162	3.3e-06
318.15	0.8005	0.000408	3.2e-06
318.15	0.8722	0.0003974	3.2e-06
318.15	0.9378	0.000387	3.2e-06
318.15	1	0.0003762	3.1e-06

System: 1,3-dimethylbenzene + tetrahydrofuran; phases: Liquid
Fixed: Pressure, kPa = 101
Property: Speed of sound, m/s (Liquid); method: Linear variable-path acoustic interferometer
Temperature, K	Mole fraction of tetrahydrofuran	Speed of sound, m/s	uncertainty
288.15	0	1373.2	1.7
288.15	0.0722	1370.9	1.7
288.15	0.1486	1368.1	1.7
288.15	0.2134	1365.6	1.7
288.15	0.2804	1362.9	1.7
288.15	0.3536	1359.7	1.7
288.15	0.4255	1356.4	1.7
288.15	0.4864	1353.5	1.7
288.15	0.5476	1350.5	1.6
288.15	0.6041	1347.5	1.6
288.15	0.6751	1343.6	1.6
288.15	0.7396	1339.8	1.6
288.15	0.8005	1336.1	1.6
288.15	0.8722	1331.6	1.6
288.15	0.9378	1327.3	1.6
288.15	1	1323.1	1.6
298.15	0	1326.6	1.6
298.15	0.0722	1324	1.6
298.15	0.1486	1321	1.6
298.15	0.2134	1318.4	1.6
298.15	0.2804	1315.6	1.6
298.15	0.3536	1312.5	1.6
298.15	0.4255	1309.3	1.6
298.15	0.4864	1306.4	1.6
298.15	0.5476	1303.4	1.6
298.15	0.6041	1300.5	1.6
298.15	0.6751	1296.7	1.6
298.15	0.7396	1293.1	1.6
298.15	0.8005	1289.6	1.6
298.15	0.8722	1285.4	1.6
298.15	0.9378	1281.4	1.6
298.15	1	1277.6	1.6
308.15	0	1281	1.6
308.15	0.0722	1278.1	1.6
308.15	0.1486	1274.8	1.6
308.15	0.2134	1272.1	1.6
308.15	0.2804	1269.2	1.6
308.15	0.3536	1265.9	1.6
308.15	0.4255	1262.6	1.6
308.15	0.4864	1259.7	1.6
308.15	0.5476	1256.6	1.6
308.15	0.6041	1253.7	1.6
308.15	0.6751	1249.9	1.6
308.15	0.7396	1246.4	1.6
308.15	0.8005	1243	1.6
308.15	0.8722	1238.9	1.6
308.15	0.9378	1235.2	1.6
308.15	1	1231.5	1.6
318.15	0	1243	1.5
318.15	0.0722	1239.4	1.5
318.15	0.1486	1235.5	1.5
318.15	0.2134	1232.2	1.5
318.15	0.2804	1228.7	1.5
318.15	0.3536	1224.9	1.5
318.15	0.4255	1221.1	1.5
318.15	0.4864	1217.8	1.5
318.15	0.5476	1214.4	1.5
318.15	0.6041	1211.1	1.5
318.15	0.6751	1206.9	1.5
318.15	0.7396	1203.1	1.5
318.15	0.8005	1199.5	1.5
318.15	0.8722	1195.1	1.5
318.15	0.9378	1191.1	1.5
318.15	1	1187.2	1.5

System: 1,4-dimethylbenzene + tetrahydrofuran; phases: Liquid
Fixed: Pressure, kPa = 101
Property: Viscosity, Pa*s (Liquid); method: Capillary tube (Ostwald; Ubbelohde) method
Temperature, K	Mole fraction of tetrahydrofuran	Viscosity, Pa*s	uncertainty
288.15	0	0.0007084	5.1e-06
288.15	0.084	0.0006971	5e-06
288.15	0.1716	0.0006842	4.9e-06
288.15	0.2322	0.0006755	4.9e-06
288.15	0.2934	0.0006656	4.8e-06
288.15	0.3548	0.0006552	4.7e-06
288.15	0.4284	0.000642	4.6e-06
288.15	0.4896	0.0006304	4.6e-06
288.15	0.5518	0.0006181	4.5e-06
288.15	0.6201	0.0006039	4.4e-06
288.15	0.6825	0.0005904	4.3e-06
288.15	0.7414	0.0005767	4.2e-06
288.15	0.8102	0.0005609	4.1e-06
288.15	0.8756	0.000545	4e-06
288.15	0.9409	0.0005284	3.9e-06
288.15	1	0.0005129	3.9e-06
298.15	0	0.000611	4.5e-06
298.15	0.084	0.0006047	4.4e-06
298.15	0.1716	0.0005954	4.4e-06
298.15	0.2322	0.0005895	4.3e-06
298.15	0.2934	0.0005825	4.3e-06
298.15	0.3548	0.0005748	4.2e-06
298.15	0.4284	0.0005648	4.2e-06
298.15	0.4896	0.0005558	4.1e-06
298.15	0.5518	0.0005461	4e-06
298.15	0.6201	0.0005347	4e-06
298.15	0.6825	0.0005237	3.9e-06
298.15	0.7414	0.0005127	3.8e-06
298.15	0.8102	0.0004991	3.8e-06
298.15	0.8756	0.0004855	3.7e-06
298.15	0.9409	0.0004713	3.6e-06
298.15	1	0.000458	3.6e-06
308.15	0	0.0005501	4e-06
308.15	0.084	0.0005453	4e-06
308.15	0.1716	0.0005385	3.9e-06
308.15	0.2322	0.0005339	3.9e-06
308.15	0.2934	0.000528	3.9e-06
308.15	0.3548	0.0005214	3.8e-06
308.15	0.4284	0.0005127	3.8e-06
308.15	0.4896	0.0005047	3.7e-06
308.15	0.5518	0.0004959	3.7e-06
308.15	0.6201	0.0004854	3.6e-06
308.15	0.6825	0.0004751	3.6e-06
308.15	0.7414	0.0004647	3.5e-06
308.15	0.8102	0.0004518	3.5e-06
308.15	0.8756	0.0004388	3.4e-06
308.15	0.9409	0.000425	3.4e-06
308.15	1	0.0004125	3.3e-06
318.15	0	0.0004912	3.7e-06
318.15	0.084	0.0004891	3.7e-06
318.15	0.1716	0.0004849	3.6e-06
318.15	0.2322	0.0004819	3.6e-06
318.15	0.2934	0.0004777	3.6e-06
318.15	0.3548	0.0004727	3.6e-06
318.15	0.4284	0.0004658	3.5e-06
318.15	0.4896	0.0004592	3.5e-06
318.15	0.5518	0.0004518	3.5e-06
318.15	0.6201	0.0004428	3.4e-06
318.15	0.6825	0.0004337	3.4e-06
318.15	0.7414	0.0004245	3.3e-06
318.15	0.8102	0.0004128	3.3e-06
318.15	0.8756	0.0004009	3.2e-06
318.15	0.9409	0.0003881	3.2e-06
318.15	1	0.0003762	3.1e-06

System: 1,4-dimethylbenzene + tetrahydrofuran; phases: Liquid
Fixed: Pressure, kPa = 101
Property: Speed of sound, m/s (Liquid); method: Linear variable-path acoustic interferometer
Temperature, K	Mole fraction of tetrahydrofuran	Speed of sound, m/s	uncertainty
288.15	0	1357.5	1.6
288.15	0.084	1356	1.6
288.15	0.1716	1354.2	1.6
288.15	0.2322	1353.1	1.6
288.15	0.2934	1351.7	1.6
288.15	0.3548	1350.2	1.6
288.15	0.4284	1348.1	1.6
288.15	0.4896	1346.2	1.6
288.15	0.5518	1344.1	1.6
288.15	0.6201	1341.5	1.6
288.15	0.6825	1338.9	1.6
288.15	0.7414	1336.3	1.6
288.15	0.8102	1333.1	1.6
288.15	0.8756	1329.8	1.6
288.15	0.9409	1326.4	1.6
288.15	1	1323.1	1.6
298.15	0	1316.4	1.6
298.15	0.084	1314.1	1.6
298.15	0.1716	1311.7	1.6
298.15	0.2322	1310.1	1.6
298.15	0.2934	1308.3	1.6
298.15	0.3548	1306.5	1.6
298.15	0.4284	1304	1.6
298.15	0.4896	1301.8	1.6
298.15	0.5518	1299.4	1.6
298.15	0.6201	1296.6	1.6
298.15	0.6825	1293.7	1.6
298.15	0.7414	1290.9	1.6
298.15	0.8102	1287.6	1.6
298.15	0.8756	1284.3	1.6
298.15	0.9409	1280.8	1.6
298.15	1	1277.6	1.6
308.15	0	1268	1.6
308.15	0.084	1265.7	1.6
308.15	0.1716	1263.2	1.6
308.15	0.2322	1261.6	1.6
308.15	0.2934	1259.9	1.6
308.15	0.3548	1258.1	1.6
308.15	0.4284	1255.7	1.6
308.15	0.4896	1253.7	1.6
308.15	0.5518	1251.5	1.6
308.15	0.6201	1248.8	1.6
308.15	0.6825	1246.2	1.6
308.15	0.7414	1243.6	1.6
308.15	0.8102	1240.6	1.6
308.15	0.8756	1237.5	1.6
308.15	0.9409	1234.4	1.6
308.15	1	1231.5	1.6
318.15	0	1230.3	1.5
318.15	0.084	1227.2	1.5
318.15	0.1716	1224	1.5
318.15	0.2322	1221.9	1.5
318.15	0.2934	1219.6	1.5
318.15	0.3548	1217.3	1.5
318.15	0.4284	1214.5	1.5
318.15	0.4896	1212	1.5
318.15	0.5518	1209.3	1.5
318.15	0.6201	1206.2	1.5
318.15	0.6825	1203.3	1.5
318.15	0.7414	1200.4	1.5
318.15	0.8102	1197	1.5
318.15	0.8756	1193.7	1.5
318.15	0.9409	1190.4	1.5
318.15	1	1187.2	1.5

System: 1,3,5-trimethylbenzene + tetrahydrofuran; phases: Liquid
Fixed: Pressure, kPa = 101
Property: Viscosity, Pa*s (Liquid); method: Capillary tube (Ostwald; Ubbelohde) method
Temperature, K	Mole fraction of tetrahydrofuran	Viscosity, Pa*s	uncertainty
288.15	0	0.0007592	5.6e-06
288.15	0.0735	0.0007428	5.5e-06
288.15	0.1513	0.0007259	5.4e-06
288.15	0.2274	0.0007089	5.2e-06
288.15	0.2986	0.0006927	5.1e-06
288.15	0.3672	0.0006767	5e-06
288.15	0.4305	0.0006616	4.9e-06
288.15	0.4912	0.000647	4.8e-06
288.15	0.5496	0.0006326	4.7e-06
288.15	0.6055	0.0006186	4.6e-06
288.15	0.6784	0.0006	4.4e-06
288.15	0.7516	0.0005809	4.3e-06
288.15	0.828	0.0005609	4.2e-06
288.15	0.879	0.0005469	4.1e-06
288.15	0.9412	0.0005299	4e-06
288.15	1	0.0005129	3.9e-06
298.15	0	0.0006572	5e-06
298.15	0.0735	0.0006449	4.9e-06
298.15	0.1513	0.0006321	4.8e-06
298.15	0.2274	0.0006192	4.7e-06
298.15	0.2986	0.0006066	4.6e-06
298.15	0.3672	0.000594	4.5e-06
298.15	0.4305	0.0005821	4.4e-06
298.15	0.4912	0.0005703	4.3e-06
298.15	0.5496	0.0005586	4.2e-06
298.15	0.6055	0.0005472	4.1e-06
298.15	0.6784	0.0005318	4e-06
298.15	0.7516	0.0005159	3.9e-06
298.15	0.828	0.000499	3.8e-06
298.15	0.879	0.0004872	3.7e-06
298.15	0.9412	0.0004726	3.6e-06
298.15	1	0.000458	3.6e-06
308.15	0	0.0005792	4.4e-06
308.15	0.0735	0.0005698	4.3e-06
308.15	0.1513	0.0005602	4.3e-06
308.15	0.2274	0.0005502	4.2e-06
308.15	0.2986	0.0005402	4.1e-06
308.15	0.3672	0.0005301	4e-06
308.15	0.4305	0.0005203	4e-06
308.15	0.4912	0.0005106	3.9e-06
308.15	0.5496	0.0005008	3.8e-06
308.15	0.6055	0.0004911	3.7e-06
308.15	0.6784	0.0004779	3.7e-06
308.15	0.7516	0.0004642	3.6e-06
308.15	0.828	0.0004494	3.5e-06
308.15	0.879	0.0004388	3.4e-06
308.15	0.9412	0.0004258	3.4e-06
308.15	1	0.0004125	3.3e-06
318.15	0	0.0005066	4e-06
318.15	0.0735	0.0005004	3.9e-06
318.15	0.1513	0.0004943	3.9e-06
318.15	0.2274	0.0004875	3.8e-06
318.15	0.2986	0.0004805	3.8e-06
318.15	0.3672	0.0004732	3.7e-06
318.15	0.4305	0.0004658	3.7e-06
318.15	0.4912	0.0004583	3.6e-06
318.15	0.5496	0.0004507	3.5e-06
318.15	0.6055	0.0004429	3.5e-06
318.15	0.6784	0.0004322	3.4e-06
318.15	0.7516	0.0004208	3.4e-06
318.15	0.828	0.0004084	3.3e-06
318.15	0.879	0.0003992	3.2e-06
318.15	0.9412	0.0003879	3.2e-06
318.15	1	0.0003762	3.1e-06

System: 1,3,5-trimethylbenzene + tetrahydrofuran; phases: Liquid
Fixed: Pressure, kPa = 101
Property: Speed of sound, m/s (Liquid); method: Linear variable-path acoustic interferometer
Temperature, K	Mole fraction of tetrahydrofuran	Speed of sound, m/s	uncertainty
288.15	0	1412.3	1.7
288.15	0.0735	1406.8	1.7
288.15	0.1513	1400.3	1.7
288.15	0.2274	1393.5	1.7
288.15	0.2986	1386.7	1.7
288.15	0.3672	1379.7	1.7
288.15	0.4305	1373.5	1.7
288.15	0.4912	1367.5	1.7
288.15	0.5496	1361.9	1.7
288.15	0.6055	1356.8	1.7
288.15	0.6784	1350.4	1.7
288.15	0.7516	1344	1.7
288.15	0.828	1337.4	1.6
288.15	0.879	1333.2	1.6
288.15	0.9412	1328.2	1.6
288.15	1	1323.1	1.6
298.15	0	1369.8	1.7
298.15	0.0735	1363.6	1.7
298.15	0.1513	1356.6	1.7
298.15	0.2274	1349.5	1.7
298.15	0.2986	1342.4	1.7
298.15	0.3672	1335.3	1.7
298.15	0.4305	1328.9	1.7
298.15	0.4912	1322.9	1.6
298.15	0.5496	1317.3	1.6
298.15	0.6055	1312	1.6
298.15	0.6784	1305.4	1.6
298.15	0.7516	1298.8	1.6
298.15	0.828	1292.1	1.6
298.15	0.879	1287.7	1.6
298.15	0.9412	1282.6	1.6
298.15	1	1277.6	1.6
308.15	0	1325.2	1.7
308.15	0.0735	1318.5	1.7
308.15	0.1513	1311.2	1.6
308.15	0.2274	1303.9	1.6
308.15	0.2986	1296.7	1.6
308.15	0.3672	1289.6	1.6
308.15	0.4305	1283.1	1.6
308.15	0.4912	1277	1.6
308.15	0.5496	1271.4	1.6
308.15	0.6055	1266.1	1.6
308.15	0.6784	1259.4	1.6
308.15	0.7516	1252.8	1.6
308.15	0.828	1246	1.6
308.15	0.879	1241.6	1.6
308.15	0.9412	1236.4	1.6
308.15	1	1231.5	1.6
318.15	0	1279	1.6
318.15	0.0735	1272.2	1.6
318.15	0.1513	1264.9	1.6
318.15	0.2274	1257.7	1.6
318.15	0.2986	1250.6	1.6
318.15	0.3672	1243.6	1.6
318.15	0.4305	1237.3	1.6
318.15	0.4912	1231.5	1.6
318.15	0.5496	1226	1.6
318.15	0.6055	1220.8	1.6
318.15	0.6784	1214.4	1.5
318.15	0.7516	1207.9	1.5
318.15	0.828	1201.2	1.5
318.15	0.879	1196.9	1.5
318.15	0.9412	1191.8	1.5
318.15	1	1187.2	1.5
