Measured thermophysical data. Vapor pressure and thermophysical properties of eugenol and (+)-carvone
Source: Fluid Phase Equilib., 2019, 10.1016/j.fluid.2019.112248
Compound 1: d-carvone, C10H14O, InChI=1S/C10H14O/c1-7(2)9-5-4-8(3)10(11)6-9/h4,9H,1,5-6H2,2-3H3/t9-/m0/s1, purity 99.2%
Compound 2: 2-hydroxy-5-allylanisole, C10H12O2, InChI=1S/C10H12O2/c1-3-4-8-5-6-9(11)10(7-8)12-2/h3,5-7,11H,1,4H2,2H3, purity 99.9%

System: d-carvone; phases: Crystal, Liquid, Air at 1 atmosphere
Property: Normal melting temperature, K (Crystal); method: DTA
Normal melting temperature, K	uncertainty
246.7	0.5

System: d-carvone; phases: Crystal, Liquid, Air at 1 atmosphere
Property: Molar enthalpy of transition or fusion, kJ/mol (Crystal); method: DSC
Molar enthalpy of transition or fusion, kJ/mol	uncertainty
11.2	0.4

System: d-carvone; phases: Liquid
Fixed: Pressure, kPa = 101.325
Property: Molar heat capacity at constant pressure, J/K/mol (Liquid); method: DSC
Temperature, K	Molar heat capacity at constant pressure, J/K/mol	uncertainty
265	264.9	10.3
270	266.7	10.3
275	268.7	10.4
280	270.6	10.5
285	272.9	10.6
290	275.2	10.7
295	277.7	10.8
300	280.3	10.9
305	282.7	10.9
310	284.9	11
315	287.1	11.1
320	289.5	11.2
325	292.1	11.3
330	294.3	11.4
335	296.5	11.5
340	298.2	11.5
345	299.7	11.6
350	301.1	11.7
355	302	11.7

System: d-carvone; phases: Liquid, Gas
Property: Vapor or sublimation pressure, kPa (Liquid); method: Closed cell (Static) method
Temperature, K	Vapor or sublimation pressure, kPa	uncertainty
258.18	0.000197	0.000134
258.18	0.000202	0.000134
258.18	0.000201	0.000134
263.19	0.000371	0.000137
263.19	0.000371	0.000137
263.19	0.000373	0.000137
268.18	0.000653	0.000142
268.18	0.000656	0.000142
268.19	0.000653	0.000142
273.19	0.001096	0.00015
273.19	0.001096	0.00015
273.19	0.001097	0.00015
273.69	0.001133	0.00015
273.69	0.001138	0.000151
273.7	0.001141	0.000151
278.19	0.001788	0.000164
278.19	0.001789	0.000164
278.19	0.00179	0.000164
283.19	0.002902	0.000192
283.19	0.002899	0.000192
283.19	0.002893	0.000192
288.19	0.004581	0.000241
288.2	0.004579	0.000241
288.2	0.004587	0.000241
293.2	0.007151	0.000325
293.2	0.007137	0.000324
293.2	0.007137	0.000324
298.2	0.0109	0.00045
298.2	0.0109	0.00045
298.21	0.0109	0.00045
303.2	0.01637	0.00058
303.2	0.01638	0.00058
303.2	0.01638	0.00058
308.21	0.02413	0.00072
308.21	0.02415	0.00072
308.21	0.02415	0.00072

System: 2-hydroxy-5-allylanisole; phases: Crystal 1, Liquid, Air at 1 atmosphere
Property: Normal melting temperature, K (Crystal 1); method: DTA
Normal melting temperature, K	uncertainty
261.8	0.5

System: 2-hydroxy-5-allylanisole; phases: Crystal 2, Liquid, Air at 1 atmosphere
Property: Normal melting temperature, K (Crystal 2); method: DTA
Normal melting temperature, K	uncertainty
244.6	0.5

System: 2-hydroxy-5-allylanisole; phases: Crystal 1, Liquid, Air at 1 atmosphere
Property: Molar enthalpy of transition or fusion, kJ/mol (Crystal 1); method: DSC
Molar enthalpy of transition or fusion, kJ/mol	uncertainty
17	1.1

System: 2-hydroxy-5-allylanisole; phases: Crystal 2, Liquid, Air at 1 atmosphere
Property: Molar enthalpy of transition or fusion, kJ/mol (Crystal 2); method: DSC
Molar enthalpy of transition or fusion, kJ/mol	uncertainty
8.4	0.6

System: 2-hydroxy-5-allylanisole; phases: Liquid
Fixed: Pressure, kPa = 101.325
Property: Molar heat capacity at constant pressure, J/K/mol (Liquid); method: DSC
Temperature, K	Molar heat capacity at constant pressure, J/K/mol	uncertainty
265	311.2	12.1
270	312.8	12.1
275	314.5	12.2
280	315.8	12.2
285	317.4	12.3
290	319.2	12.4
295	321	12.4
300	322.9	12.5
305	324.8	12.6
310	326.4	12.6
315	328.2	12.7
320	329.9	12.8
325	331.7	12.8
330	333.3	12.9
335	334.8	13
340	336.1	13
345	337.1	13.1
350	338.2	13.1
355	339.1	13.1

System: 2-hydroxy-5-allylanisole; phases: Liquid, Gas
Property: Vapor or sublimation pressure, kPa (Liquid); method: Closed cell (Static) method
Temperature, K	Vapor or sublimation pressure, kPa	uncertainty
273.7	0.000153	0.000137
273.7	0.000153	0.000137
273.7	0.000152	0.000137
278.19	0.000252	0.000139
278.19	0.000251	0.000139
278.19	0.000252	0.000139
283.19	0.000451	0.000142
283.19	0.000443	0.000142
283.19	0.000444	0.000142
288.19	0.000723	0.000147
288.19	0.000724	0.000147
288.19	0.000725	0.000147
293.2	0.001256	0.000157
293.2	0.001233	0.000156
293.2	0.001223	0.000156
298.2	0.00193	0.000171
298.2	0.001938	0.000171
298.2	0.001934	0.000171
303.2	0.00307	0.0002
303.2	0.003081	0.0002
303.2	0.003077	0.0002
308.2	0.004871	0.000253
308.21	0.004864	0.000252
308.21	0.004868	0.000252

System: 2-hydroxy-5-allylanisole; phases: Glass, Liquid
Property: Boiling temperature at pressure P, K (Glass); method: DTA
Pressure, kPa	Boiling temperature at pressure P, K	uncertainty
100	191.4	0.3
