Measured thermophysical data. Solid-liquid equilibrium of ternary system sodium 1-naphthalenesulfonate + sodium 2-naphthalenesulfonate + water at (283.15, 303.15 and 323.15) K
Source: Fluid Phase Equilib., 2014, 10.1016/j.fluid.2014.09.026
Compound 1: water, H2O, InChI=1S/H2O/h1H2
Compound 2: sodium 1-naphthalene sulfonate, C10H7NaO3S, InChI=1S/C10H8O3S.Na/c11-14(12,13)10-7-3-5-8-4-1-2-6-9(8)10;/h1-7H,(H,11,12,13);/q;+1/p-1, purity 99.5%
Compound 3: sodium 2-naphthalenesulfonate, C10H7NaO3S, InChI=1S/C10H8O3S.Na/c11-14(12,13)10-6-5-8-3-1-2-4-9(8)7-10;/h1-7H,(H,11,12,13);/q;+1/p-1, purity 99.5%

System: sodium 1-naphthalene sulfonate; phases: Crystal, Liquid, Air at 1 atmosphere
Property: Normal melting temperature, K (Crystal); method: DTA
Normal melting temperature, K	uncertainty
383.41	0.39

System: sodium 1-naphthalene sulfonate; phases: Crystal, Liquid, Air at 1 atmosphere
Property: Molar enthalpy of transition or fusion, kJ/mol (Crystal); method: DSC
Molar enthalpy of transition or fusion, kJ/mol	uncertainty
22.15	0.51

System: sodium 2-naphthalenesulfonate; phases: Crystal, Liquid, Air at 1 atmosphere
Property: Normal melting temperature, K (Crystal); method: DTA
Normal melting temperature, K	uncertainty
445.85	0.39

System: sodium 2-naphthalenesulfonate; phases: Crystal, Liquid, Air at 1 atmosphere
Property: Molar enthalpy of transition or fusion, kJ/mol (Crystal); method: DSC
Molar enthalpy of transition or fusion, kJ/mol	uncertainty
15.43	0.38

System: sodium 1-naphthalene sulfonate + sodium 2-naphthalenesulfonate + water; phases: Liquid, Crystal
Fixed: Pressure, kPa = 101.3
Property: Mass fraction of sodium 2-naphthalenesulfonate (Liquid); method: Schreinemakers wet residue method
Mass fraction of sodium 1-naphthalene sulfonate	Temperature, K	Mass fraction of sodium 2-naphthalenesulfonate	uncertainty
0	283.15	0.0292	0.0012
0.0205	283.15	0.0249	0.001
0.0442	283.15	0.0214	0.0009
0.0651	283.15	0.0198	0.0008
0.0882	283.15	0.0185	0.0008
0	303.15	0.0486	0.0019
0.0178	303.15	0.046	0.0018
0.0354	303.15	0.0425	0.0017
0.0564	303.15	0.039	0.0016
0.0762	303.15	0.0343	0.0015
0.0976	303.15	0.0349	0.0014
0.1145	303.15	0.0331	0.0014
0	323.15	0.1005	0.004
0.021	323.15	0.09	0.0036
0.0537	323.15	0.0808	0.0033
0.0756	323.15	0.0696	0.0029
0.1018	323.15	0.071	0.0029
0.1315	323.15	0.0613	0.0028
0.1556	323.15	0.057	0.0025

System: sodium 1-naphthalene sulfonate + sodium 2-naphthalenesulfonate + water; phases: Liquid, Crystal
Fixed: Pressure, kPa = 101.3
Property: Mass fraction of sodium 2-naphthalenesulfonate (Liquid); method: Schreinemakers wet residue method
Mass fraction of sodium 1-naphthalene sulfonate	Temperature, K	Mass fraction of sodium 2-naphthalenesulfonate	uncertainty
0.1136	283.15	0.0108	0.0047
0.1199	283.15	0.0043	0.0043
0.1232	283.15	0	
0.1414	303.15	0.0211	0.0183
0.1449	303.15	0.0098	0.0098
0.1475	303.15	0	
0.1898	323.15	0.0442	0.0442
0.1912	323.15	0.0299	0.0299
0.1955	323.15	0.014	0.014
0.2003	323.15	0	

System: sodium 1-naphthalene sulfonate + sodium 2-naphthalenesulfonate + water; phases: Liquid, Crystal
Fixed: Pressure, kPa = 101
Property: Mass fraction of sodium 2-naphthalenesulfonate (Liquid); method: Schreinemakers wet residue method
Temperature, K	Mass fraction of sodium 1-naphthalene sulfonate	Mass fraction of sodium 2-naphthalenesulfonate	uncertainty
283.15	0.1092	0.0177	0.0007
303.15	0.1367	0.0321	0.0013
323.15	0.1883	0.0546	0.0022

System: sodium 1-naphthalene sulfonate + sodium 2-naphthalenesulfonate + water; phases: Liquid, Crystal
Fixed: Pressure, kPa = 101
Property: Mass fraction of sodium 1-naphthalene sulfonate (Liquid); method: Schreinemakers wet residue method
Temperature, K	Mass fraction of sodium 2-naphthalenesulfonate	Mass fraction of sodium 1-naphthalene sulfonate	uncertainty
283.15	0.0177	0.1092	0.0044
303.15	0.0321	0.1367	0.0055
323.15	0.0546	0.1883	0.0075

System: sodium 1-naphthalene sulfonate + sodium 2-naphthalenesulfonate + water; phases: Liquid
Fixed: Pressure, kPa = 101
Property: Mass density, kg/m3 (Liquid); method: Pycnometric method
Temperature, K	Mass fraction of sodium 1-naphthalene sulfonate	Mass fraction of sodium 2-naphthalenesulfonate	Mass density, kg/m3	uncertainty
298.15	0	0.0292	1006.2	0.9
298.15	0.0205	0.0249	1008.1	0.9
298.15	0.0442	0.0214	1012.4	0.9
298.15	0.0651	0.0198	1017.1	0.9
298.15	0.0882	0.0185	1029.3	0.9
298.15	0.1092	0.0177	1058.9	1
298.15	0.1136	0.0108	1042.7	0.9
298.15	0.1199	0.0043	1033.6	0.9
298.15	0.1232	0	1028.2	0.9
303.15	0	0.0486	1007.7	0.9
303.15	0.0178	0.046	1011.4	0.9
303.15	0.0354	0.0425	1014.5	0.9
303.15	0.0564	0.039	1020.2	0.9
303.15	0.0762	0.0343	1029.3	0.9
303.15	0.0976	0.0349	1043.6	1
303.15	0.1145	0.0331	1057.2	1
303.15	0.1367	0.0321	1078.9	1
303.15	0.1414	0.0211	1061	1
303.15	0.1449	0.0098	1053.5	1
303.15	0.1475	0	1048.1	1
323.15	0	0.1005	1008.4	0.9
323.15	0.021	0.09	1015.7	1
323.15	0.0537	0.0808	1028.1	1
323.15	0.0756	0.0696	1035.8	1
323.15	0.1018	0.071	1057	1
323.15	0.1315	0.0613	1083.4	1
323.15	0.1556	0.057	1115.5	1
323.15	0.1883	0.0546	1173.5	1.1
323.15	0.1898	0.0442	1143.6	1.1
323.15	0.1912	0.0299	1127.5	1.1
323.15	0.1955	0.014	1110.7	1
323.15	0.2003	0	1100.2	1

System: sodium 2-naphthalenesulfonate + water; phases: Liquid, Crystal
Fixed: Pressure, kPa = 101.3
Property: Mass fraction of sodium 2-naphthalenesulfonate (Liquid); method: Schreinemakers wet residue method
Temperature, K	Mass fraction of sodium 2-naphthalenesulfonate	uncertainty
283.15	0.0292	0.0012
303.15	0.0486	0.0019
323.15	0.1005	0.004

System: sodium 2-naphthalenesulfonate + water; phases: Liquid
Fixed: Pressure, kPa = 101
Property: Mass density, kg/m3 (Liquid); method: Pycnometric method
Temperature, K	Mass fraction of sodium 2-naphthalenesulfonate	Mass density, kg/m3	uncertainty
298.15	0.0292	1006.2	0.9
303.15	0.0486	1007.7	0.9
323.15	0.1005	1008.4	0.9

System: sodium 1-naphthalene sulfonate + water; phases: Liquid, Crystal
Fixed: Pressure, kPa = 101.3
Property: Mass fraction of sodium 1-naphthalene sulfonate (Liquid); method: Schreinemakers wet residue method
Temperature, K	Mass fraction of sodium 1-naphthalene sulfonate	uncertainty
283.15	0.1232	0.0049
303.15	0.1475	0.0059
323.15	0.2003	0.008

System: sodium 1-naphthalene sulfonate + water; phases: Liquid
Fixed: Pressure, kPa = 101
Property: Mass density, kg/m3 (Liquid); method: Pycnometric method
Temperature, K	Mass fraction of sodium 1-naphthalene sulfonate	Mass density, kg/m3	uncertainty
298.15	0.1232	1028.2	0.9
303.15	0.1475	1048.1	1
323.15	0.2003	1100.2	1
