Measured thermophysical data. Vapor liquid critical properties of squalane measured by the pulse-heating technique
Source: Fluid Phase Equilib., 2005, 10.1016/j.fluid.2005.06.026
Compound 1: 2,6,10,15,19,23-hexamethyltetracosane, C30H62, InChI=1S/C30H62/c1-25(2)15-11-19-29(7)23-13-21-27(5)17-9-10-18-28(6)22-14-24-30(8)20-12-16-26(3)4/h25-30H,9-24H2,1-8H3

System: 2,6,10,15,19,23-hexamethyltetracosane; phases: Liquid, Gas
Property: Critical pressure, kPa (Liquid); method: pulse heating method
Critical pressure, kPa	uncertainty
700	60

System: 2,6,10,15,19,23-hexamethyltetracosane; phases: Liquid, Gas
Property: Critical temperature, K (Liquid); method: pulse heating method
Critical temperature, K	uncertainty
822	12
