Measured thermophysical data. Liquid liquid equilibria of water + 2,3-butanediol + 1-butanol at T = 298.15 K, T = 308.15K and T = 318.15K
Source: Fluid Phase Equilib., 2008, 10.1016/j.fluid.2007.12.003
Compound 1: water, H2O, InChI=1S/H2O/h1H2
Compound 2: 2,3-butanediol, C4H10O2, InChI=1S/C4H10O2/c1-3(5)4(2)6/h3-6H,1-2H3, purity 99.2%
Compound 3: butan-1-ol, C4H10O, InChI=1S/C4H10O/c1-2-3-4-5/h5H,2-4H2,1H3, purity 99.5%

System: 2,3-butanediol; phases: Liquid, Gas
Property: Normal boiling temperature, K (Liquid); method: Ebulliometric method (Recirculating still)
Normal boiling temperature, K	uncertainty
454.21	0.2

System: 2,3-butanediol; phases: Liquid
Property: Refractive index (Na D-line) (Liquid); method: Standard Abbe refractometry
Temperature, K	Pressure, kPa	Refractive index (Na D-line)	uncertainty
293.15	101.325	1.4375	0.0007

System: 2,3-butanediol; phases: Liquid
Property: Mass density, kg/m3 (Liquid); method: VIBTUB:UFactor:6
Temperature, K	Pressure, kPa	Mass density, kg/m3	uncertainty
298.15	101.325	1002.3	1

System: butan-1-ol; phases: Liquid, Gas
Property: Normal boiling temperature, K (Liquid); method: Ebulliometric method (Recirculating still)
Normal boiling temperature, K	uncertainty
390.12	0.2

System: butan-1-ol; phases: Liquid
Property: Refractive index (Na D-line) (Liquid); method: Standard Abbe refractometry
Temperature, K	Pressure, kPa	Refractive index (Na D-line)	uncertainty
293.15	101.325	1.3993	0.0007

System: butan-1-ol; phases: Liquid
Property: Mass density, kg/m3 (Liquid); method: VIBTUB:UFactor:4
Temperature, K	Pressure, kPa	Mass density, kg/m3	uncertainty
293.15	101.325	806.2	0.5

System: butan-1-ol + 2,3-butanediol + water; phases: Liquid mixture 1, Liquid mixture 2
Fixed: Pressure, kPa = 101
Property: Mass fraction of 2,3-butanediol (Liquid mixture 1); method: Titration method
Temperature, K	Mass fraction of water	Mass fraction of 2,3-butanediol	uncertainty
298.15	0.203	0	0.0001
298.15	0.2218	0.0297	0.0012
298.15	0.2388	0.046	0.0018
298.15	0.2562	0.0624	0.0025
298.15	0.2704	0.0766	0.0031
298.15	0.2853	0.0841	0.0034
298.15	0.3032	0.0947	0.0038
298.15	0.324	0.1066	0.0043
298.15	0.3397	0.1144	0.0046
298.15	0.3591	0.1203	0.0048
298.15	0.3711	0.1245	0.005
298.15	0.3744	0.1278	0.0051
298.15	0.4017	0.1337	0.0053
298.15	0.4085	0.1335	0.0053
298.15	0.4236	0.1376	0.0055
298.15	0.4305	0.138	0.0055
298.15	0.4399	0.1396	0.0056
298.15	0.4531	0.1414	0.0057
298.15	0.4595	0.1423	0.0057
298.15	0.4694	0.1427	0.0057
298.15	0.4815	0.1444	0.0058
298.15	0.5159	0.146	0.0058
298.15	0.5355	0.1466	0.0059
298.15	0.5614	0.1483	0.0059
298.15	0.5833	0.1471	0.0059
298.15	0.6045	0.1471	0.0059
298.15	0.6272	0.1465	0.0059
298.15	0.6566	0.1453	0.0058
298.15	0.6877	0.1439	0.0058
298.15	0.7189	0.1398	0.0056
298.15	0.7547	0.1309	0.0052
298.15	0.7901	0.1156	0.0046
298.15	0.92	0	0.0001
308.15	0.211	0	0.0001
308.15	0.2215	0.02	0.0008
308.15	0.2535	0.0521	0.0021
308.15	0.2876	0.0664	0.0027
308.15	0.3057	0.0893	0.0036
308.15	0.3348	0.1058	0.0042
308.15	0.3888	0.1254	0.005
308.15	0.4377	0.1321	0.0053
308.15	0.4646	0.1346	0.0054
308.15	0.4918	0.136	0.0054
308.15	0.4975	0.1354	0.0054
308.15	0.5211	0.1368	0.0055
308.15	0.5494	0.1376	0.0055
308.15	0.5789	0.137	0.0055
308.15	0.6343	0.1357	0.0054
308.15	0.6647	0.1345	0.0054
308.15	0.7032	0.131	0.0052
308.15	0.7376	0.1257	0.005
308.15	0.7688	0.1175	0.0047
308.15	0.8432	0.0788	0.0032
308.15	0.9305	0	0.0001
318.15	0.2242	0	0.0001
318.15	0.2338	0.0227	0.0009
318.15	0.2601	0.0475	0.0019
318.15	0.2905	0.0729	0.0029
318.15	0.3123	0.0844	0.0034
318.15	0.3418	0.0978	0.0039
318.15	0.3692	0.1087	0.0043
318.15	0.3932	0.114	0.0046
318.15	0.4164	0.1194	0.0048
318.15	0.4181	0.1219	0.0049
318.15	0.4379	0.1219	0.0049
318.15	0.4544	0.1249	0.005
318.15	0.458	0.1246	0.005
318.15	0.4711	0.1253	0.005
318.15	0.4751	0.1263	0.0051
318.15	0.4909	0.1268	0.0051
318.15	0.4954	0.1268	0.0051
318.15	0.5092	0.1272	0.0051
318.15	0.5228	0.1278	0.0051
318.15	0.5504	0.1286	0.0051
318.15	0.5789	0.1282	0.0051
318.15	0.6165	0.1268	0.0051
318.15	0.6593	0.1246	0.005
318.15	0.689	0.1219	0.0049
318.15	0.7216	0.1183	0.0047
318.15	0.7453	0.1144	0.0046
318.15	0.7708	0.1082	0.0043
318.15	0.7906	0.1019	0.0041
318.15	0.8377	0.0789	0.0032
318.15	0.932	0	0.0001

System: butan-1-ol + 2,3-butanediol + water; phases: Liquid mixture 1, Liquid mixture 2
Fixed: Pressure, kPa = 101
Property: Mass fraction of 2,3-butanediol (Liquid mixture 1); method: Chromatography
Property: Mass fraction of 2,3-butanediol (Liquid mixture 2); method: Chromatography
Property: Mass fraction of water (Liquid mixture 2); method: Chromatography
Temperature, K	Mass fraction of water	Mass fraction of 2,3-butanediol	uncertainty	Mass fraction of 2,3-butanediol	uncertainty	Mass fraction of water	uncertainty
298.15	0.2521	0.0489	0.0026	0.0683	0.0031	0.838	
298.15	0.2173	0.021	0.0027	0.0289	0.0025	0.8813	
298.15	0.3418	0.107	0.0023	0.1284	0.0023	0.745	
298.15	0.3957	0.1196	0.0022	0.1353	0.0022	0.6766	
298.15	0.2697	0.0658	0.0028	0.0877	0.0031	0.8212	
298.15	0.2324	0.0349	0.0026	0.0467	0.0027	0.8573	
308.15	0.3288	0.0859	0.0024	0.094	0.0023	0.81	
308.15	0.2591	0.0518	0.0025	0.0593	0.0026	0.8587	
308.15	0.2888	0.0688	0.0023	0.076	0.0025	0.8392	
308.15	0.2234	0.0221	0.0027	0.0279	0.0027	0.897	
308.15	0.3651	0.1112	0.0023	0.117	0.0023	0.7488	
308.15	0.4318	0.1244	0.0022	0.1321	0.0022	0.6901	
318.15	0.3317	0.0907	0.0023	0.0912	0.0022	0.799	
318.15	0.2536	0.039	0.0026	0.0426	0.0025	0.8751	
318.15	0.2725	0.0533	0.0023	0.0543	0.0026	0.8596	
318.15	0.3103	0.0724	0.0024	0.0747	0.0024	0.8347	
318.15	0.2357	0.0239	0.0026	0.0254	0.0025	0.8979	
318.15	0.3964	0.1117	0.0022	0.1162	0.0022	0.7022	
318.15	0.474	0.1241	0.0022	0.1309	0.0022	0.6137	

System: butan-1-ol + water; phases: Liquid mixture 1, Liquid mixture 2
Fixed: Pressure, kPa = 101
Property: Mass fraction of water (Liquid mixture 1); method: Titration method
Temperature, K	Mass fraction of water	uncertainty
298.15	0.203	
298.15	0.92	
308.15	0.211	
308.15	0.9305	
318.15	0.2242	
318.15	0.932	
