Measured thermophysical data. High-temperature surface tension and density measurements of 1-alkyl-3-methylimidazolium bistriflamide ionic liquids
Source: Fluid Phase Equilib., 2010, 10.1016/j.fluid.2010.02.020
Compound 1: 1-ethyl-3-methylimidazolium bis((trifluoromethyl)sulfonyl)imide, C8H11F6N3O4S2, InChI=1S/C6H11N2.C2F6NO4S2/c1-3-8-5-4-7(2)6-8;3-1(4,5)14(10,11)9-15(12,13)2(6,7)8/h4-6H,3H2,1-2H3;/q+1;-1
Compound 2: 1-butyl-3-methylimidazolium bis(trifluoromethylsulfonyl)imide, C10H15F6N3O4S2, InChI=1S/C8H15N2.C2F6NO4S2/c1-3-4-5-10-7-6-9(2)8-10;3-1(4,5)14(10,11)9-15(12,13)2(6,7)8/h6-8H,3-5H2,1-2H3;/q+1;-1
Compound 3: 1-octyl-3-methylimidazolium bis[(trifluoromethyl)sulfonyl]imide, C14H23F6N3O4S2, InChI=1S/C12H23N2.C2F6NO4S2/c1-3-4-5-6-7-8-9-14-11-10-13(2)12-14;3-1(4,5)14(10,11)9-15(12,13)2(6,7)8/h10-12H,3-9H2,1-2H3;/q+1;-1
Compound 4: 1-methyl-3-propylimidazolium bis[(trifluoromethyl)sulfonyl]imide, C9H13F6N3O4S2, InChI=1S/C7H13N2.C2F6NO4S2/c1-3-4-9-6-5-8(2)7-9;3-1(4,5)14(10,11)9-15(12,13)2(6,7)8/h5-7H,3-4H2,1-2H3;/q+1;-1
Compound 5: 1-methyl-3-pentylimidazolium bis(trifluoromethylsulfonyl)imide, C11H17F6N3O4S2, InChI=1S/C9H17N2.C2F6NO4S2/c1-3-4-5-6-11-8-7-10(2)9-11;3-1(4,5)14(10,11)9-15(12,13)2(6,7)8/h7-9H,3-6H2,1-2H3;/q+1;-1
Compound 6: 1-hexyl-3-methylimidazolium bis[(trifluoromethyl)sulfonyl]imide, C12H19F6N3O4S2, InChI=1S/C10H19N2.C2F6NO4S2/c1-3-4-5-6-7-12-9-8-11(2)10-12;3-1(4,5)14(10,11)9-15(12,13)2(6,7)8/h8-10H,3-7H2,1-2H3;/q+1;-1
Compound 7: 1-dodecyl-3-methyl-1H-imidazolium bis(trifluoromethylsulfonyl)amide, C18H31F6N3O4S2, InChI=1S/C16H31N2.C2F6NO4S2/c1-3-4-5-6-7-8-9-10-11-12-13-18-15-14-17(2)16-18;3-1(4,5)14(10,11)9-15(12,13)2(6,7)8/h14-16H,3-13H2,1-2H3;/q+1;-1
Compound 8: 1-tetradecyl-3-methylimidazolium bis(trifluoromethylsulfonyl)imide, C20H35F6N3O4S2, InChI=1S/C18H35N2.C2F6NO4S2/c1-3-4-5-6-7-8-9-10-11-12-13-14-15-20-17-16-19(2)18-20;3-1(4,5)14(10,11)9-15(12,13)2(6,7)8/h16-18H,3-15H2,1-2H3;/q+1;-1
Compound 9: 1-heptyl-3-methylimidazolium bis(trifluoromethylsulfonyl)amide, C13H21F6N3O4S2, InChI=1S/C11H21N2.C2F6NO4S2/c1-3-4-5-6-7-8-13-10-9-12(2)11-13;3-1(4,5)14(10,11)9-15(12,13)2(6,7)8/h9-11H,3-8H2,1-2H3;/q+1;-1
Compound 10: 1-decyl-3-methylimidazolium bis(trifluoromethylsulfonyl)amide, C16H27F6N3O4S2, InChI=1S/C14H27N2.C2F6NO4S2/c1-3-4-5-6-7-8-9-10-11-16-13-12-15(2)14-16;3-1(4,5)14(10,11)9-15(12,13)2(6,7)8/h12-14H,3-11H2,1-2H3;/q+1;-1
Compound 11: 1-methyl-3-nonylimidazolium bis(trifluoromethanesulfonyl)imide, C15H25F6N3O4S2, InChI=1S/C13H25N2.C2F6NO4S2/c1-3-4-5-6-7-8-9-10-15-12-11-14(2)13-15;3-1(4,5)14(10,11)9-15(12,13)2(6,7)8/h11-13H,3-10H2,1-2H3;/q+1;-1

System: 1-ethyl-3-methylimidazolium bis((trifluoromethyl)sulfonyl)imide; phases: Liquid
Fixed: Pressure, kPa = 101.325
Property: Mass density, kg/m3 (Liquid); method: Vibrating tube method
Temperature, K	Mass density, kg/m3	uncertainty
293.15	1525	6.1
303.15	1515.1	6.1
313.15	1505.3	6.1
323.15	1495.5	6
333.15	1485.8	6
343.15	1476.1	5.9
353.15	1466.4	5.9
363.15	1456.7	5.9
373.15	1447	5.8
383.15	1437.2	5.8
393.15	1427.4	5.7
403.15	1417.5	5.7
413.15	1407.5	5.7
423.15	1397.5	5.6
433.15	1387.3	5.6
443.15	1377	5.5
453.15	1366.6	5.5
463.15	1356	5.4
473.15	1345.2	5.4

System: 1-ethyl-3-methylimidazolium bis((trifluoromethyl)sulfonyl)imide; phases: Liquid, Air at 1 atmosphere
Property: Surface tension liquid-gas, N/m (Liquid); method: Pendant drop shape
Temperature, K	Surface tension liquid-gas, N/m	uncertainty
313	0.0352	0.0011
332.7	0.0342	0.0011
353.4	0.0334	0.0011
372.7	0.0325	0.0011
392.9	0.0314	0.0011
412.8	0.0305	0.0011
432.5	0.0296	0.0011
453	0.0287	0.0014
472.5	0.0257	0.001
512.6	0.0246	0.001
532.2	0.0237	0.001
472.7	0.0264	0.001
452.7	0.0273	0.0014
313.2	0.0338	0.0011
313.2	0.0347	0.0011
333.3	0.0336	0.0011
352.4	0.0334	0.0011
373.2	0.0315	0.0011
393.2	0.0311	0.0011
413.1	0.0301	0.0011

System: 1-butyl-3-methylimidazolium bis(trifluoromethylsulfonyl)imide; phases: Liquid
Fixed: Pressure, kPa = 101.325
Property: Mass density, kg/m3 (Liquid); method: Vibrating tube method
Temperature, K	Mass density, kg/m3	uncertainty
293.15	1442.3	5.8
303.15	1432.8	5.8
313.15	1423.4	5.7
323.15	1414.1	5.7
333.15	1404.8	5.6
343.15	1395.6	5.6
353.15	1386.3	5.6
363.15	1377.1	5.5
373.15	1367.9	5.5
383.15	1358.7	5.5
393.15	1349.4	5.4
403.15	1340.1	5.4
413.15	1330.7	5.3
423.15	1321.2	5.3
433.15	1311.6	5.3
443.15	1301.9	5.2
453.15	1292.1	5.2
463.15	1282.2	5.1
473.15	1272	5.1

System: 1-butyl-3-methylimidazolium bis(trifluoromethylsulfonyl)imide; phases: Liquid, Air at 1 atmosphere
Property: Surface tension liquid-gas, N/m (Liquid); method: Pendant drop shape
Temperature, K	Surface tension liquid-gas, N/m	uncertainty
313.3	0.0319	0.0011
332.6	0.0308	0.0011
352.6	0.0302	0.0011
372.7	0.0279	0.001
392.7	0.0262	0.001
412.5	0.026	0.001
432.5	0.0256	0.001
452.2	0.0242	0.001
473	0.0237	0.001
313.3	0.0304	0.0011
333.5	0.0297	0.0013
353.6	0.0288	0.0011
373.6	0.0281	0.0011
393.6	0.0259	0.0011
413.6	0.0256	0.001
432.6	0.0249	0.0011
452.2	0.0244	0.001
472	0.0233	0.001
312.6	0.0319	0.0011
333.1	0.0312	0.0011
353.7	0.0301	0.0011
374.1	0.0292	0.0011
394.2	0.0281	0.0013
414.4	0.0272	0.0011
434.5	0.0266	0.0011
455	0.0258	0.001
475.2	0.0246	0.001

System: 1-octyl-3-methylimidazolium bis[(trifluoromethyl)sulfonyl]imide; phases: Liquid
Fixed: Pressure, kPa = 101.325
Property: Mass density, kg/m3 (Liquid); method: Vibrating tube method
Temperature, K	Mass density, kg/m3	uncertainty
293.15	1326.5	5.3
303.15	1317.5	5.3
313.15	1308.6	5.3
323.15	1299.8	5.2
333.15	1291.2	5.2
343.15	1282.5	5.1
353.15	1273.9	5.1
363.15	1265.3	5.1
373.15	1256.7	5
383.15	1248.1	5
393.15	1239.5	5
403.15	1230.9	4.9
413.15	1222.2	4.9
423.15	1213.5	4.9
433.15	1204.8	4.8
443.15	1195.9	4.8
453.15	1187	4.8
463.15	1178	4.7
473.15	1168.8	4.7

System: 1-octyl-3-methylimidazolium bis[(trifluoromethyl)sulfonyl]imide; phases: Liquid, Air at 1 atmosphere
Property: Surface tension liquid-gas, N/m (Liquid); method: Pendant drop shape
Temperature, K	Surface tension liquid-gas, N/m	uncertainty
313	0.0292	0.0013
333.3	0.0282	0.0011
353.8	0.0273	0.0011
373.6	0.0263	0.0011
393.6	0.0253	0.0011
413.4	0.0243	0.0011
433.3	0.0232	0.0011
453.4	0.0221	0.001
473.6	0.0207	0.001
493	0.0201	0.001
512.6	0.0192	0.001
313.2	0.0285	0.0013
332.6	0.0274	0.0011
352.8	0.0261	0.0011
372.8	0.0252	0.0011
392.9	0.024	0.0011
412.9	0.0231	0.0011
432.8	0.0221	0.0011
452.5	0.0215	0.001
472.4	0.0197	0.001

System: 1-methyl-3-propylimidazolium bis[(trifluoromethyl)sulfonyl]imide; phases: Liquid
Fixed: Pressure, kPa = 101.325
Property: Mass density, kg/m3 (Liquid); method: Vibrating tube method
Temperature, K	Mass density, kg/m3	uncertainty
293.15	1480.5	6
303.15	1470.8	5.9
313.15	1461.1	5.9
323.15	1451.5	5.8
333.15	1441.9	5.8
343.15	1432.4	5.8
353.15	1422.9	5.7
363.15	1413.5	5.7
373.15	1404	5.6
383.15	1394.5	5.6
393.15	1384.9	5.6
403.15	1375.3	5.5
413.15	1365.6	5.5
423.15	1355.8	5.4
433.15	1345.9	5.4
443.15	1335.9	5.4
453.15	1325.8	5.3
463.15	1315.6	5.3
473.15	1305.1	5.2

System: 1-methyl-3-propylimidazolium bis[(trifluoromethyl)sulfonyl]imide; phases: Liquid, Air at 1 atmosphere
Property: Surface tension liquid-gas, N/m (Liquid); method: Pendant drop shape
Temperature, K	Surface tension liquid-gas, N/m	uncertainty
373.5	0.0288	0.0011
393.5	0.0294	0.0011
413.6	0.0282	0.0011
433.3	0.0276	0.0011
453.2	0.0268	0.001
473	0.0244	0.001
312.9	0.0325	0.0011
333.6	0.0315	0.0011
353.9	0.0302	0.0011
374.2	0.0291	0.0011
394.5	0.028	0.0011
414.9	0.0271	0.0011
435.2	0.0263	0.0011
455.5	0.0261	0.001
475.7	0.0246	0.001

System: 1-methyl-3-pentylimidazolium bis(trifluoromethylsulfonyl)imide; phases: Liquid
Fixed: Pressure, kPa = 101.325
Property: Mass density, kg/m3 (Liquid); method: Vibrating tube method
Temperature, K	Mass density, kg/m3	uncertainty
293.15	1408.1	5.7
303.15	1398.7	5.6
313.15	1389.4	5.6
323.15	1380.3	5.5
333.15	1371.2	5.5
343.15	1362.1	5.5
353.15	1353.1	5.4
363.15	1344	5.4
373.15	1335	5.4
383.15	1325.9	5.3
393.15	1316.8	5.3
403.15	1307.6	5.3
413.15	1298.4	5.2
423.15	1288.6	5.2
433.15	1279.7	5.1
443.15	1270.3	5.1
453.15	1260.8	5.1
463.15	1251.1	5
473.15	1241.3	5

System: 1-methyl-3-pentylimidazolium bis(trifluoromethylsulfonyl)imide; phases: Liquid, Air at 1 atmosphere
Property: Surface tension liquid-gas, N/m (Liquid); method: Pendant drop shape
Temperature, K	Surface tension liquid-gas, N/m	uncertainty
312.7	0.0295	0.0011
333.2	0.0283	0.001
353.4	0.0273	0.001
373.5	0.0263	0.001
393.7	0.0256	0.001
413.6	0.0246	0.001
433.7	0.0237	0.001
453.6	0.0228	0.001
473.6	0.0217	0.0011
493.2	0.0208	0.001
512.9	0.0201	0.001
313.2	0.0305	0.0011
353.7	0.0272	0.001
373.7	0.0266	0.001
393.7	0.0247	0.001
413.8	0.0235	0.001
433.5	0.0226	0.001
453.5	0.0217	0.001
473.3	0.0211	0.0011
493	0.0216	0.001

System: 1-hexyl-3-methylimidazolium bis[(trifluoromethyl)sulfonyl]imide; phases: Liquid
Fixed: Pressure, kPa = 101.325
Property: Mass density, kg/m3 (Liquid); method: Vibrating tube method
Temperature, K	Mass density, kg/m3	uncertainty
293.15	1378.1	5.5
303.15	1368.9	5.5
313.15	1359.8	5.5
323.15	1350.8	5.4
333.15	1341.8	5.4
343.15	1332.9	5.4
353.15	1324	5.3
363.15	1315.2	5.3
373.15	1306.3	5.2
383.15	1297.4	5.2
393.15	1288.5	5.2
403.15	1279.6	5.1
413.15	1270.6	5.1
423.15	1261.6	5.1
433.15	1252.4	5
443.15	1243.2	5
453.15	1233.9	5
463.15	1224.5	4.9
473.15	1214.9	4.9

System: 1-hexyl-3-methylimidazolium bis[(trifluoromethyl)sulfonyl]imide; phases: Liquid, Air at 1 atmosphere
Property: Surface tension liquid-gas, N/m (Liquid); method: Pendant drop shape
Temperature, K	Surface tension liquid-gas, N/m	uncertainty
313	0.0294	0.001
333.2	0.0281	0.001
353.4	0.0272	0.001
373.4	0.0265	0.001
393.5	0.0256	0.001
413.3	0.0248	0.001
433.6	0.0242	0.001
453.4	0.0236	0.001
473.4	0.0218	0.001
493.2	0.0207	0.001
512.7	0.0193	0.001
532.4	0.0185	0.001

System: 1-dodecyl-3-methyl-1H-imidazolium bis(trifluoromethylsulfonyl)amide; phases: Liquid
Fixed: Pressure, kPa = 101.325
Property: Mass density, kg/m3 (Liquid); method: Vibrating tube method
Temperature, K	Mass density, kg/m3	uncertainty
293.15	1249.6	5
303.15	1240.9	5
313.15	1232.4	4.9
323.15	1224	4.9
333.15	1215.6	4.9
343.15	1207.4	4.8
353.15	1199.2	4.8
363.15	1190.9	4.8
373.15	1182.8	4.7
383.15	1174.7	4.7
393.15	1166.2	4.7
403.15	1158.4	4.6
413.15	1150.2	4.6
423.15	1142	4.6
433.15	1133.7	4.5

System: 1-dodecyl-3-methyl-1H-imidazolium bis(trifluoromethylsulfonyl)amide; phases: Liquid, Air at 1 atmosphere
Property: Surface tension liquid-gas, N/m (Liquid); method: Pendant drop shape
Temperature, K	Surface tension liquid-gas, N/m	uncertainty
333.3	0.0264	0.001
353.6	0.0254	0.001
373.7	0.0245	0.001
393.6	0.0236	0.001
413.7	0.0225	0.001
433.6	0.0214	0.001
453.8	0.0204	0.001
473.7	0.0195	0.001
493.3	0.0188	0.001
512.9	0.0178	0.001
532.6	0.0169	0.001

System: 1-tetradecyl-3-methylimidazolium bis(trifluoromethylsulfonyl)imide; phases: Liquid
Fixed: Pressure, kPa = 101.325
Property: Mass density, kg/m3 (Liquid); method: Vibrating tube method
Temperature, K	Mass density, kg/m3	uncertainty
323.15	1193.1	4.8
333.15	1184.8	4.8
343.15	1176.6	4.7
353.15	1168.5	4.7
363.15	1160.5	4.7
373.15	1152.4	4.6
383.15	1144.4	4.6
393.15	1136.4	4.6
403.15	1128.4	4.5
413.15	1120.4	4.5
423.15	1112.4	4.5
433.15	1104.3	4.4
443.15	1096.2	4.4
453.15	1088	4.4
463.15	1079.7	4.3
473.15	1071.4	4.3

System: 1-tetradecyl-3-methylimidazolium bis(trifluoromethylsulfonyl)imide; phases: Liquid, Air at 1 atmosphere
Property: Surface tension liquid-gas, N/m (Liquid); method: Pendant drop shape
Temperature, K	Surface tension liquid-gas, N/m	uncertainty
312.8	0.0263	0.001
333.2	0.0235	0.001
353.3	0.0235	0.001
373.5	0.0221	0.0011
393.6	0.0215	0.001
413.5	0.0209	0.001
433.6	0.0187	0.001
453.6	0.0175	0.001
473.5	0.0166	0.001
493.4	0.0159	0.001
512.9	0.0155	0.001
323.3	0.0249	0.001
333.9	0.0241	0.0011
354	0.0237	0.001
374	0.0226	0.0011
394.7	0.0213	0.001
414.9	0.0197	0.001
434.8	0.0196	0.001
454.5	0.0179	0.001
474.5	0.017	0.001

System: 1-heptyl-3-methylimidazolium bis(trifluoromethylsulfonyl)amide; phases: Liquid
Fixed: Pressure, kPa = 101.325
Property: Mass density, kg/m3 (Liquid); method: Vibrating tube method
Temperature, K	Mass density, kg/m3	uncertainty
293.15	1349.5	5.4
303.15	1340.4	5.4
313.15	1331.5	5.3
323.15	1322.6	5.3
333.15	1313.8	5.3
343.15	1305	5.2
353.15	1296.3	5.2
363.15	1287.6	5.2
373.15	1278.9	5.1
383.15	1270.1	5.1
393.15	1261.4	5.1
403.15	1252.6	5
413.15	1243.8	5
423.15	1235	5
433.15	1226.1	4.9
443.15	1217	4.9
453.15	1208	4.8
463.15	1198.7	4.8
473.15	1189.4	4.8

System: 1-decyl-3-methylimidazolium bis(trifluoromethylsulfonyl)amide; phases: Liquid
Fixed: Pressure, kPa = 101.325
Property: Mass density, kg/m3 (Liquid); method: Vibrating tube method
Temperature, K	Mass density, kg/m3	uncertainty
293.15	1284.9	5.2
303.15	1276	5.1
313.15	1267.4	5.1
323.15	1258.8	5.1
333.15	1250.3	5
343.15	1241.8	5
353.15	1233.5	4.9
363.15	1225.1	4.9
373.15	1216.7	4.9
383.15	1208.4	4.8
393.15	1200	4.8
403.15	1191.7	4.8
413.15	1183.3	4.7
423.15	1174.8	4.7
433.15	1166.4	4.7
443.15	1157.8	4.6
453.15	1148.9	4.6
463.15	1140.2	4.6
473.15	1131.4	4.5

System: 1-decyl-3-methylimidazolium bis(trifluoromethylsulfonyl)amide; phases: Liquid, Air at 1 atmosphere
Property: Surface tension liquid-gas, N/m (Liquid); method: Pendant drop shape
Temperature, K	Surface tension liquid-gas, N/m	uncertainty
314.1	0.0277	0.0011
333	0.0267	0.0011
353.2	0.0254	0.0012
373.4	0.0245	0.0011
393.3	0.0235	0.0011
413.5	0.0224	0.0011
433.3	0.0215	0.0011
453.2	0.0204	0.0014
473.3	0.0193	0.0012
493.1	0.0185	0.0012
513.8	0.0175	0.001
533.2	0.0169	0.001
313.3	0.0291	0.0011
333.6	0.0281	0.0011
352.7	0.027	0.0012
372.6	0.0263	0.0012
392.4	0.0249	0.0011
412.5	0.0236	0.0011
432.2	0.0229	0.001
452.8	0.0222	0.0014
472.7	0.0211	0.0012
492.5	0.0201	0.0012
313.2	0.0287	0.0011
333.3	0.027	0.0011
353.3	0.0253	0.0012
373.3	0.0243	0.0012
392.4	0.0246	0.0011
412.3	0.0235	0.0011
433	0.0222	0.0011
452.9	0.0212	0.0012
472.8	0.0191	0.001

System: 1-methyl-3-nonylimidazolium bis(trifluoromethanesulfonyl)imide; phases: Liquid
Fixed: Pressure, kPa = 101.325
Property: Mass density, kg/m3 (Liquid); method: Vibrating tube method
Temperature, K	Mass density, kg/m3	uncertainty
293.15	1303.1	5.4
303.15	1294.2	5.4
313.15	1285.5	5.3
323.15	1276.8	5.3
333.15	1268.3	5.2
343.15	1259.7	5.2
353.15	1251.3	5.2
363.15	1242.8	5.1
373.15	1234.3	5.1
383.15	1225.8	5.1
393.15	1217.4	5
403.15	1208.8	5
413.15	1200.3	4.9
423.15	1191.8	4.9
433.15	1183.2	4.9
443.15	1174.5	4.8
453.15	1165.7	4.8
463.15	1156.8	4.8
473.15	1147.8	4.7
