Measured thermophysical data. Compressed liquid densities of 1,1,1,3,3-pentafluoropropane (HFC-245fa) and  1,1,1,3,3,3-hexafluoropropane (HFC-236fa)
Source: Fluid Phase Equilib., 2011, 10.1016/j.fluid.2011.04.022
Compound 1: 1,1,1,3,3-pentafluoropropane, C3H3F5, InChI=1S/C3H3F5/c4-2(5)1-3(6,7)8/h2H,1H2, purity 99.9%
Compound 2: 1,1,1,3,3,3-hexafluoropropane, C3H2F6, InChI=1S/C3H2F6/c4-2(5,6)1-3(7,8)9/h1H2, purity 99.7%

System: 1,1,1,3,3-pentafluoropropane; phases: Liquid
Property: Mass density, kg/m3 (Liquid); method: Vibrating tube method
Temperature, K	Pressure, kPa	Mass density, kg/m3	uncertainty
293.84	1000	1352.16	1.4
293.84	3000	1357.97	1.4
293.84	5000	1363.53	1.38
293.84	10000	1376.42	1.37
293.84	15000	1388.34	1.37
293.84	20000	1399.29	1.38
293.84	25000	1409.54	1.4
293.84	30000	1419.03	1.43
293.84	35000	1428.09	1.46
293.84	40000	1436.79	1.5
293.84	50000	1452.73	1.6
293.84	60000	1467.39	1.72
293.84	70000	1480.99	1.87
303.46	1000	1326.31	1.46
303.46	3000	1332.8	1.43
303.46	5000	1338.98	1.41
303.46	10000	1353.32	1.4
303.46	15000	1366.31	1.39
303.46	20000	1378.22	1.39
303.46	25000	1389.33	1.4
303.46	30000	1399.65	1.42
303.46	35000	1409.33	1.45
303.46	40000	1418.45	1.49
303.46	50000	1435.43	1.58
303.46	60000	1450.88	1.7
303.46	70000	1465.1	1.84
313.18	1000	1299.2	1.53
313.18	3000	1306.56	1.49
313.18	5000	1313.51	1.45
313.18	10000	1329.44	1.43
313.18	15000	1343.73	1.41
313.18	20000	1356.77	1.4
313.18	25000	1368.61	1.41
313.18	30000	1379.73	1.43
313.18	35000	1390.16	1.45
313.18	40000	1399.89	1.48
313.18	50000	1417.82	1.57
313.18	60000	1434.07	1.68
313.18	70000	1449.07	1.81
323	1000	1270.55	1.62
323	3000	1278.98	1.56
323	5000	1286.86	1.5
323	10000	1304.71	1.47
323	15000	1320.47	1.44
323	20000	1334.65	1.42
323	25000	1347.58	1.42
323	30000	1359.46	1.43
323	35000	1370.64	1.45
323	40000	1381.03	1.47
323	50000	1400.08	1.55
323	60000	1417.12	1.65
323	70000	1432.87	1.78
332.83	1000	1240.26	1.74
332.83	3000	1250.02	1.66
332.83	5000	1259.06	1.57
332.83	10000	1279.16	1.52
332.83	15000	1296.63	1.47
332.83	20000	1312.15	1.44
332.83	25000	1326.17	1.43
332.83	30000	1339.02	1.43
332.83	35000	1350.93	1.45
332.83	40000	1362.03	1.46
332.83	50000	1382.12	1.54
332.83	60000	1400.21	1.63
332.83	70000	1416.64	1.75
343.01	1000	1206.92	1.86
343.01	3000	1218.46	1.79
343.01	5000	1228.97	1.66
343.01	10000	1251.88	1.59
343.01	15000	1271.37	1.51
343.01	20000	1288.45	1.47
343.01	25000	1303.77	1.45
343.01	30000	1317.65	1.44
343.01	35000	1330.42	1.45
343.01	40000	1342.2	1.46
343.01	50000	1363.61	1.52
343.01	60000	1382.71	1.61
343.01	70000	1399.92	1.72
353	3000	1185.75	1.99
353	5000	1198.11	1.79
353	10000	1224.38	1.68
353	15000	1246.17	1.57
353	20000	1265.01	1.51
353	25000	1281.67	1.47
353	30000	1296.64	1.46
353	35000	1310.33	1.46
353	40000	1322.95	1.46
353	50000	1345.62	1.51
353	60000	1365.63	1.59
353	70000	1383.75	1.7
362.91	3000	1150.79	2.25
362.91	5000	1165.55	1.95
362.91	10000	1195.94	1.79
362.91	15000	1220.45	1.64
362.91	20000	1241.23	1.55
362.91	25000	1259.38	1.5
362.91	30000	1275.54	1.47
362.91	35000	1290.2	1.46
362.91	40000	1303.67	1.46
362.91	50000	1327.67	1.5
362.91	60000	1348.77	1.57
362.91	70000	1367.68	1.67
372.94	3000	1112.26	2.49
372.94	5000	1130.36	2.18
372.94	10000	1165.97	1.94
372.94	15000	1193.67	1.72
372.94	20000	1216.58	1.6
372.94	25000	1236.4	1.53
372.94	30000	1253.82	1.49
372.94	35000	1269.55	1.48
372.94	40000	1283.89	1.46
372.94	50000	1309.28	1.5
372.94	60000	1331.43	1.56
372.94	70000	1351.23	1.65

System: 1,1,1,3,3,3-hexafluoropropane; phases: Liquid
Property: Mass density, kg/m3 (Liquid); method: Vibrating tube method
Temperature, K	Pressure, kPa	Mass density, kg/m3	uncertainty
293.38	1000	1380.41	1.65
293.38	3000	1389.7	1.62
293.38	5000	1398.14	1.55
293.38	10000	1417.22	1.52
293.38	15000	1434.22	1.5
293.38	20000	1449.45	1.49
293.38	25000	1463.39	1.5
293.38	30000	1476.18	1.53
293.38	35000	1488.18	1.57
293.38	40000	1499.36	1.61
293.38	50000	1519.84	1.74
293.38	60000	1538.35	1.89
293.38	70000	1555.2	2.07
303.23	1000	1346.41	1.81
303.23	3000	1356.85	1.72
303.23	5000	1366.62	1.63
303.23	10000	1388.23	1.58
303.23	15000	1407.04	1.53
303.23	20000	1423.79	1.51
303.23	25000	1438.88	1.51
303.23	30000	1452.75	1.53
303.23	35000	1465.54	1.56
303.23	40000	1477.52	1.6
303.23	50000	1499.35	1.72
303.23	60000	1518.78	1.86
303.23	70000	1536.58	2.03
313.1	1000	1310.15	1.96
313.1	3000	1322.54	1.87
313.1	5000	1333.75	1.72
313.1	10000	1358.32	1.66
313.1	15000	1379.33	1.58
313.1	20000	1397.77	1.54
313.1	25000	1414.16	1.53
313.1	30000	1429.13	1.54
313.1	35000	1442.8	1.56
313.1	40000	1455.53	1.59
313.1	50000	1478.52	1.7
313.1	60000	1499.21	1.83
313.1	70000	1517.63	2
322.94	1000	1272.73	2.27
322.94	3000	1287.52	2.08
322.94	5000	1300.71	1.86
322.94	10000	1328.74	1.75
322.94	15000	1352.16	1.64
322.94	20000	1372.4	1.58
322.94	25000	1390.33	1.55
322.94	30000	1406.5	1.55
322.94	35000	1421.01	1.56
322.94	40000	1434.57	1.58
322.94	50000	1459.05	1.68
322.94	60000	1480.75	1.8
322.94	70000	1500.21	1.96
333.06	1000	1230.59	2.53
333.06	3000	1248.74	2.38
333.06	5000	1264.58	2.04
333.06	10000	1297.09	1.88
333.06	15000	1323.56	1.71
333.06	20000	1345.92	1.62
333.06	25000	1365.48	1.58
333.06	30000	1382.82	1.56
333.06	35000	1398.61	1.57
333.06	40000	1413.18	1.57
333.06	50000	1439.06	1.66
333.06	60000	1461.86	1.78
333.06	70000	1482.19	1.93
343.19	3000	1207.31	2.77
343.19	5000	1226.45	2.29
343.19	10000	1264.58	2.04
343.19	15000	1294.29	1.8
343.19	20000	1319.04	1.68
343.19	25000	1340.43	1.61
343.19	30000	1359.27	1.58
343.19	35000	1376.24	1.58
343.19	40000	1391.75	1.57
343.19	50000	1419.24	1.65
343.19	60000	1443.29	1.76
343.19	70000	1464.6	1.9
353.23	3000	1161.43	3.18
353.23	5000	1185.57	2.63
353.23	10000	1230.77	2.26
353.23	15000	1264.63	1.92
353.23	20000	1292.08	1.75
353.23	25000	1315.3	1.66
353.23	30000	1335.89	1.61
353.23	35000	1354.11	1.59
353.23	40000	1370.58	1.57
353.23	50000	1399.7	1.64
353.23	60000	1424.96	1.73
353.23	70000	1447.34	1.87
363.22	5000	1140.64	2.96
363.22	10000	1195.26	2.55
363.22	15000	1233.73	2.06
363.22	20000	1264.17	1.83
363.22	25000	1289.66	1.71
363.22	30000	1311.7	1.64
363.22	35000	1331.22	1.61
363.22	40000	1348.77	1.58
363.22	50000	1379.54	1.63
363.22	60000	1406.01	1.71
363.22	70000	1429.34	1.84
373.17	5000	1091.26	3.43
373.17	10000	1158.13	2.93
373.17	15000	1202.21	2.24
373.17	20000	1236.05	1.93
373.17	25000	1263.9	1.77
373.17	30000	1287.72	1.68
373.17	35000	1308.62	1.63
373.17	40000	1327.34	1.59
373.17	50000	1359.88	1.63
373.17	60000	1387.66	1.7
373.17	70000	1412.03	1.81
