Measured thermophysical data. The hydrogen bonding analysis of water-1-methylimidazole mixtures studied by dielectric relaxation spectroscopy
Source: Fluid Phase Equilib., 2014, 10.1016/j.fluid.2014.05.006
Compound 1: 1-methylimidazole, C4H6N2, InChI=1S/C4H6N2/c1-6-3-2-5-4-6/h2-4H,1H3, purity 99.5%
Compound 2: water, H2O, InChI=1S/H2O/h1H2

System: 1-methylimidazole; phases: Liquid
Property: Relative permittivity at zero frequency (Liquid); method: Parallel plate capacitor
Temperature, K	Pressure, kPa	Relative permittivity at zero frequency	uncertainty
298	94.77	39.78	4.22

System: water; phases: Liquid
Property: Relative permittivity at zero frequency (Liquid); method: Parallel plate capacitor
Temperature, K	Pressure, kPa	Relative permittivity at zero frequency	uncertainty
298	94.77	80	8.48

System: 1-methylimidazole + water; phases: Liquid
Fixed: Temperature, K = 298
Fixed: Pressure, kPa = 94.77
Property: Relative permittivity at zero frequency (Liquid); method: Parallel plate capacitor
Mole fraction of water	Relative permittivity at zero frequency	uncertainty
0	39.78	4.22
0.1	40.98	4.34
0.2	42.55	4.51
0.3	45.87	4.87
0.4	46.02	4.88
0.5	48.53	5.16
0.6	50.04	5.31
0.7	50.99	5.41
0.8	52	5.52
0.9	53.01	7.55
1	80	8.48
