Measured thermophysical data. The liquid-liquid coexistence curves of {x nitrobenzene + (1 - x) 2-methylpentane} and {x nitrobenzene + (1 - x) isooctane} in the critical region
Source: Fluid Phase Equilib., 2013, 10.1016/j.fluid.2013.08.025
Compound 1: nitrobenzene, C6H5NO2, InChI=1S/C6H5NO2/c8-7(9)6-4-2-1-3-5-6/h1-5H, purity 99%
Compound 2: 2-methylpentane, C6H14, InChI=1S/C6H14/c1-4-5-6(2)3/h6H,4-5H2,1-3H3, purity 99%
Compound 3: 2,2,4-trimethylpentane, C8H18, InChI=1S/C8H18/c1-7(2)6-8(3,4)5/h7H,6H2,1-5H3, purity 99%

System: nitrobenzene + 2-methylpentane; phases: Liquid, Gas
Property: Critical temperature, K (Liquid); method: Visual observation in an unstirred cell
Mole fraction of nitrobenzene	Critical temperature, K	uncertainty
0.433	298.3	0.3

System: nitrobenzene + 2-methylpentane; phases: Liquid mixture 1, Liquid mixture 2
Fixed: Pressure, kPa = 85
Property: Mole fraction of nitrobenzene (Liquid mixture 1); method: Phase equilibration
Temperature, K	Mole fraction of nitrobenzene	uncertainty
298.26	0.416	0.019
298.249	0.403	0.014
298.179	0.379	0.012
298.145	0.372	0.011
298.133	0.37	0.007
298.105	0.366	0.007
298.077	0.363	0.006
297.943	0.351	0.005
297.854	0.343	0.005
297.667	0.331	0.005
297.343	0.316	0.004
296.741	0.295	0.004
296.47	0.29	0.004
295.234	0.261	0.004
294.263	0.244	0.004
293.172	0.229	0.004
292.413	0.219	0.004
291.641	0.21	0.004
290.64	0.197	0.004
289.725	0.191	0.004
288.287	0.179	0.004
287.541	0.173	0.004

System: nitrobenzene + 2-methylpentane; phases: Liquid mixture 2, Liquid mixture 1
Fixed: Pressure, kPa = 85
Property: Mole fraction of nitrobenzene (Liquid mixture 2); method: Phase equilibration
Temperature, K	Mole fraction of nitrobenzene	uncertainty
298.26	0.451	0.016
298.249	0.462	0.012
298.179	0.482	0.011
298.145	0.491	0.011
298.133	0.493	0.008
298.105	0.497	0.007
298.077	0.5	0.006
297.943	0.513	0.005
297.854	0.519	0.005
297.667	0.532	0.005
297.343	0.552	0.004
296.741	0.577	0.004
296.47	0.589	0.004
295.234	0.604	0.004
294.263	0.621	0.004
293.172	0.637	0.004
292.413	0.657	0.004
291.641	0.665	0.004
290.64	0.674	0.004
289.725	0.678	0.004
288.287	0.688	0.004
287.541	0.694	0.004

System: nitrobenzene + 2-methylpentane; phases: Liquid mixture 1, Liquid mixture 2
Fixed: Pressure, kPa = 85
Fixed: Wavelength, nm = 632.8
Property: Refractive index (other wavelength) (Liquid mixture 1); method: minimum deviation angle
Temperature, K	Refractive index (other wavelength)	uncertainty
298.26	1.4348	0.0031
298.249	1.4326	0.0024
298.179	1.4285	0.002
298.145	1.4274	0.0018
298.133	1.4271	0.0011
298.105	1.4264	0.001
298.077	1.4258	0.0007
297.943	1.4239	0.0006
297.854	1.4227	0.0005
297.667	1.4207	0.0004
297.343	1.4184	0.0004
296.741	1.4153	0.0003
296.47	1.4145	0.0003
295.234	1.4105	0.0003
294.263	1.4084	0.0003
293.172	1.4065	0.0003
292.413	1.4054	0.0003
291.641	1.4044	0.0003
290.64	1.4029	0.0003
289.725	1.4025	0.0003
288.287	1.4014	0.0003
287.541	1.4009	0.0003

System: nitrobenzene + 2-methylpentane; phases: Liquid mixture 2, Liquid mixture 1
Fixed: Pressure, kPa = 85
Fixed: Wavelength, nm = 632.8
Property: Refractive index (other wavelength) (Liquid mixture 2); method: minimum deviation angle
Temperature, K	Refractive index (other wavelength)	uncertainty
298.26	1.441	0.0027
298.249	1.443	0.002
298.179	1.4465	0.0019
298.145	1.4482	0.0018
298.133	1.4485	0.0013
298.105	1.4492	0.001
298.077	1.4498	0.0008
297.943	1.4522	0.0007
297.854	1.4534	0.0006
297.667	1.4559	0.0006
297.343	1.4597	0.0005
296.741	1.4646	0.0004
296.47	1.467	0.0005
295.234	1.4704	0.0003
294.263	1.4742	0.0003
293.172	1.4777	0.0003
292.413	1.4819	0.0003
291.641	1.4838	0.0003
290.64	1.4861	0.0003
289.725	1.4873	0.0003
288.287	1.49	0.0003
287.541	1.4915	0.0003

System: nitrobenzene + 2-methylpentane; phases: Liquid
Fixed: Pressure, kPa = 85
Fixed: Wavelength, nm = 632.8
Property: Refractive index (other wavelength) (Liquid); method: minimum deviation angle
Mole fraction of nitrobenzene	Temperature, K	Refractive index (other wavelength)	uncertainty
0	291.268	1.372	0.0003
0	292.596	1.3713	0.0003
0	293.243	1.3708	0.0003
0	293.178	1.3709	0.0003
0	294.356	1.3702	0.0003
0	295.156	1.3697	0.0003
0	295.984	1.3693	0.0003
0	296.505	1.369	0.0003
0	297.08	1.3686	0.0003
0	297.993	1.3681	0.0003
0.102	294.465	1.3859	0.0003
0.102	295.137	1.3855	0.0003
0.102	296.687	1.3846	0.0003
0.102	297.365	1.3842	0.0003
0.102	298.532	1.3835	0.0003
0.102	299.414	1.383	0.0003
0.184	295.315	1.3982	0.0003
0.184	296.478	1.3975	0.0003
0.184	297.123	1.3971	0.0003
0.184	298.654	1.3963	0.0003
0.184	299.175	1.396	0.001
0.267	296.794	1.4105	0.0003
0.267	297.862	1.4098	0.0003
0.267	299.563	1.409	0.0003
0.267	301.445	1.4081	0.0003
0.267	302.174	1.4076	0.0003
0.369	298.204	1.4269	0.0003
0.369	298.783	1.4265	0.0003
0.369	299.356	1.4262	0.0003
0.369	300.111	1.4259	0.0003
0.369	301.209	1.4253	0.0003
0.466	298.786	1.4432	0.0003
0.466	299.743	1.4426	0.0003
0.466	300.498	1.4422	0.0003
0.466	301.083	1.4419	0.0003
0.567	298.229	1.4619	0.0003
0.567	298.916	1.4616	0.0003
0.567	299.798	1.4611	0.0003
0.567	301.134	1.4604	0.0003
0.567	302.216	1.4599	0.0003
0.658	294.015	1.4812	0.0003
0.658	296.432	1.4799	0.0003
0.658	297.156	1.4795	0.0003
0.658	298.238	1.479	0.0003
0.658	299.301	1.4784	0.0003
0.658	299.856	1.4781	0.0003
0.658	300.735	1.4776	0.0003
0.758	296.174	1.4994	0.0003
0.758	296.99	1.4991	0.0003
0.758	297.668	1.4986	0.0003
0.758	298.289	1.4984	0.0003
0.758	298.934	1.498	0.001
0.871	296.853	1.5209	0.0003
0.871	297.398	1.5205	0.0003
0.871	297.982	1.5201	0.0003
0.871	298.912	1.5196	0.0003
0.871	300.046	1.519	0.001
1	293.553	1.5476	0.0003
1	293.925	1.5474	0.0003
1	293.553	1.5477	0.0003
1	294.72	1.547	0.0003
1	295.47	1.5467	0.0003
1	296.504	1.5462	0.0003
1	297.999	1.5454	0.0003
1	299.009	1.5447	0.0003
1	300.933	1.5438	0.0003
1	302.424	1.5431	0.0003
1	303.968	1.5424	0.0003
1	305.263	1.5418	0.0003

System: nitrobenzene + 2,2,4-trimethylpentane; phases: Liquid, Gas
Property: Critical temperature, K (Liquid); method: Visual observation in an unstirred cell
Mole fraction of nitrobenzene	Critical temperature, K	uncertainty
0.506	302.2	0.3

System: nitrobenzene + 2,2,4-trimethylpentane; phases: Liquid mixture 1, Liquid mixture 2
Fixed: Pressure, kPa = 85
Property: Mole fraction of nitrobenzene (Liquid mixture 1); method: Phase equilibration
Temperature, K	Mole fraction of nitrobenzene	uncertainty
302.174	0.486	0.014
302.167	0.478	0.013
302.164	0.474	0.013
302.141	0.464	0.012
301.857	0.425	0.012
301.81	0.418	0.01
301.745	0.414	0.01
301.72	0.41	0.01
301.565	0.395	0.01
301.391	0.388	0.009
301.085	0.372	0.009
300.773	0.362	0.009
300.567	0.355	0.009
299.519	0.337	0.008
298.403	0.319	0.008
297.256	0.294	0.007
296.32	0.28	0.007
295.865	0.27	0.007
295.235	0.264	0.007
294.865	0.261	0.007
293.995	0.251	0.007
292.841	0.237	0.006
292.115	0.23	0.006
291.259	0.225	0.006

System: nitrobenzene + 2,2,4-trimethylpentane; phases: Liquid mixture 2, Liquid mixture 1
Fixed: Pressure, kPa = 85
Property: Mole fraction of nitrobenzene (Liquid mixture 2); method: Phase equilibration
Temperature, K	Mole fraction of nitrobenzene	uncertainty
302.174	0.526	0.013
302.167	0.532	0.012
302.164	0.534	0.012
302.141	0.541	0.012
301.857	0.579	0.01
301.81	0.583	0.01
301.745	0.588	0.01
301.72	0.588	0.01
301.565	0.596	0.01
301.391	0.603	0.01
301.085	0.625	0.009
300.773	0.635	0.009
300.567	0.643	0.009
299.519	0.652	0.008
298.403	0.668	0.008
297.256	0.695	0.008
296.32	0.702	0.008
295.865	0.712	0.007
295.235	0.717	0.007
294.865	0.718	0.007
293.995	0.729	0.007
292.841	0.743	0.007
292.115	0.745	0.007
291.259	0.747	0.007

System: nitrobenzene + 2,2,4-trimethylpentane; phases: Liquid mixture 1, Liquid mixture 2
Fixed: Pressure, kPa = 85
Fixed: Wavelength, nm = 632.8
Property: Refractive index (other wavelength) (Liquid mixture 1); method: minimum deviation angle
Temperature, K	Refractive index (other wavelength)	uncertainty
302.174	1.4466	0.0012
302.167	1.4454	0.001
302.164	1.4448	0.001
302.141	1.4432	0.0008
301.857	1.4376	0.0008
301.81	1.4367	0.0006
301.745	1.4361	0.0006
301.72	1.4355	0.0006
301.565	1.4334	0.0005
301.391	1.4326	0.0004
301.085	1.4304	0.0004
300.773	1.4292	0.0003
300.567	1.4284	0.0003
299.519	1.4264	0.0003
298.403	1.4245	0.0003
297.256	1.4218	0.0003
296.32	1.4205	0.0003
295.865	1.4194	0.0003
295.235	1.419	0.0003
294.865	1.4188	0.0003
293.995	1.4179	0.0003
292.841	1.4167	0.0003
292.115	1.4163	0.0003
291.259	1.416	0.0003

System: nitrobenzene + 2,2,4-trimethylpentane; phases: Liquid mixture 2, Liquid mixture 1
Fixed: Pressure, kPa = 85
Fixed: Wavelength, nm = 632.8
Property: Refractive index (other wavelength) (Liquid mixture 2); method: minimum deviation angle
Temperature, K	Refractive index (other wavelength)	uncertainty
302.174	1.4529	0.0011
302.167	1.4538	0.001
302.164	1.4541	0.001
302.141	1.4553	0.0009
301.857	1.4615	0.0007
301.81	1.4622	0.0006
301.745	1.4631	0.0005
301.72	1.4632	0.0005
301.565	1.4645	0.0004
301.391	1.4658	0.0005
301.085	1.4697	0.0005
300.773	1.4716	0.0004
300.567	1.4731	0.0004
299.519	1.4752	0.0003
298.403	1.4786	0.0003
297.256	1.484	0.0003
296.32	1.4856	0.0003
295.865	1.4878	0.0003
295.235	1.4889	0.0003
294.865	1.4894	0.0003
293.995	1.4918	0.0003
292.841	1.495	0.0003
292.115	1.4958	0.0003
291.259	1.4966	0.0003

System: nitrobenzene + 2,2,4-trimethylpentane; phases: Liquid
Fixed: Pressure, kPa = 85
Fixed: Wavelength, nm = 632.8
Property: Refractive index (other wavelength) (Liquid); method: minimum deviation angle
Mole fraction of nitrobenzene	Temperature, K	Refractive index (other wavelength)	uncertainty
0	287.811	1.3932	0.0003
0	288.692	1.3927	0.0003
0	289.621	1.3922	0.0003
0	290.005	1.392	0.0003
0	290.687	1.3918	0.0003
0	292.082	1.3912	0.0003
0	293.374	1.3904	0.0003
0	293.742	1.3903	0.0003
0	294.716	1.39	0.0003
0	295.506	1.3895	0.0003
0	296.833	1.389	0.0003
0	297.187	1.3886	0.0003
0	298.144	1.3881	0.0003
0	298.595	1.388	0.0003
0.089	294.779	1.3989	0.0003
0.089	295.609	1.3985	0.0003
0.089	296.483	1.398	0.0003
0.089	297.098	1.3977	0.0003
0.089	298.168	1.3973	0.0003
0.198	294.081	1.4115	0.0003
0.198	294.701	1.4112	0.0003
0.198	295.508	1.4108	0.0003
0.198	296.51	1.4105	0.0003
0.198	297.472	1.4099	0.0003
0.295	298.145	1.4215	0.0003
0.295	298.92	1.421	0.0003
0.295	299.167	1.4209	0.0005
0.295	300.185	1.4205	0.0003
0.295	300.846	1.4202	0.0003
0.295	301.869	1.4197	0.0003
0.389	303.755	1.4315	0.0003
0.389	304.38	1.4312	0.0003
0.389	305.027	1.4308	0.0003
0.389	305.7	1.4305	0.0003
0.389	306.374	1.4303	0.0003
0.389	308.155	1.4294	0.0003
0.486	306.328	1.4445	0.0003
0.486	306.986	1.4442	0.0003
0.486	307.664	1.4438	0.0003
0.486	308.346	1.4436	0.0003
0.486	309.06	1.4432	0.0003
0.486	309.784	1.4428	0.0003
0.61	301.635	1.4669	0.0003
0.61	303.003	1.4664	0.0003
0.61	303.581	1.4659	0.0003
0.61	304.435	1.4656	0.0003
0.61	305.421	1.4652	0.0003
0.693	298.266	1.4831	0.0003
0.693	298.266	1.483	0.0003
0.693	298.821	1.4828	0.0003
0.693	299.381	1.4825	0.0003
0.693	300.011	1.4822	0.0003
0.693	300.563	1.4819	0.0003
0.693	301.43	1.4815	0.0003
0.796	298.136	1.5025	0.0003
0.796	299.114	1.502	0.0003
0.796	299.876	1.5016	0.0003
0.796	300.124	1.5014	0.0003
0.796	300.768	1.5013	0.0003
0.796	301.325	1.501	0.0003
0.87	296.472	1.518	0.0003
0.87	298	1.5173	0.0003
0.87	298.305	1.5171	0.0003
0.87	298.881	1.5168	0.0003
0.87	299.605	1.5165	0.0003
0.87	300.291	1.5162	0.0003
0.87	300.886	1.516	0.0003
1	293.553	1.5476	0.0003
1	293.925	1.5474	0.0003
1	293.553	1.5475	0.0003
1	295.47	1.5466	0.0003
1	296.504	1.5461	0.0003
1	297.999	1.5453	0.0003
1	300.933	1.5438	0.0003
1	302.424	1.5431	0.0003
1	303.968	1.5423	0.0003
1	294.72	1.547	0.0003
1	299.009	1.5448	0.0003
1	305.263	1.5416	0.0003
