Measured thermophysical data. Strategy for extractant residual reduction: Experimental and computational investigation of fluorinated phosphate
Source: Fluid Phase Equilib., 2017, 10.1016/j.fluid.2017.06.026
Compound 1: tripentyl phosphate, C15H33O4P, InChI=1S/C15H33O4P/c1-4-7-10-13-17-20(16,18-14-11-8-5-2)19-15-12-9-6-3/h4-15H2,1-3H3, purity 98%
Compound 2: tris (1H,1H,5H-octafluoropentyl) phosphate, C15H9F24O4P, InChI=1S/C15H9F24O4P/c16-4(17)10(28,29)13(34,35)7(22,23)1-41-44(40,42-2-8(24,25)14(36,37)11(30,31)5(18)19)43-3-9(26,27)15(38,39)12(32,33)6(20)21/h4-6H,1-3H2, purity 97%
Compound 3: 2-hydroxybenzoic acid, C7H6O3, InChI=1S/C7H6O3/c8-6-4-2-1-3-5(6)7(9)10/h1-4,8H,(H,9,10)
Compound 4: water, H2O, InChI=1S/H2O/h1H2

System: tripentyl phosphate; phases: Liquid, Air at 1 atmosphere
Property: Surface tension liquid-gas, N/m (Liquid); method: Ring tensiometer
Temperature, K	Surface tension liquid-gas, N/m	uncertainty
298.15	0.0262	0.003

System: tris (1H,1H,5H-octafluoropentyl) phosphate; phases: Liquid, Air at 1 atmosphere
Property: Surface tension liquid-gas, N/m (Liquid); method: Ring tensiometer
Temperature, K	Surface tension liquid-gas, N/m	uncertainty
298.15	0.0229	0.003

System: tripentyl phosphate + water; phases: Liquid mixture 1, Liquid mixture 2
Fixed: Pressure, kPa = 101.325
Property: Mass fraction of tripentyl phosphate (Liquid mixture 1); method: Spectrophotometry
Temperature, K	Mass fraction of tripentyl phosphate	uncertainty
293	0.000123	3e-06
303	9.3e-05	3e-06
313	6.8e-05	3e-06
323	5.6e-05	2e-06

System: tris (1H,1H,5H-octafluoropentyl) phosphate + water; phases: Liquid mixture 1, Liquid mixture 2
Fixed: Pressure, kPa = 101.325
Property: Mass fraction of tris (1H,1H,5H-octafluoropentyl) phosphate (Liquid mixture 1); method: spectrophotometry
Temperature, K	Mass fraction of tris (1H,1H,5H-octafluoropentyl) phosphate	uncertainty
293	5.9e-05	2e-06
303	3.8e-05	2e-06
313	2.3e-05	2e-06
323	1.3e-05	2e-06

System: tripentyl phosphate + 2-hydroxybenzoic acid + water; phases: Liquid mixture 1, Liquid mixture 2
Fixed: Pressure, kPa = 101.325
Fixed: Temperature, K = 293
Property: Mass fraction of tripentyl phosphate (Liquid mixture 1); method: spectrophotometry
Solvent: Ratio of component mass to volume of solvent, kg/m3 of 2-hydroxybenzoic acid	Mass fraction of tripentyl phosphate	uncertainty
0	0.000123	0.000123
0.5	9.1e-05	9.1e-05
1	0.000107	0.000107
1.5	0.000485	0.000485
2	0.000804	0.000804

System: tris (1H,1H,5H-octafluoropentyl) phosphate + 2-hydroxybenzoic acid + water; phases: Liquid mixture 1, Liquid mixture 2
Fixed: Pressure, kPa = 101.325
Fixed: Temperature, K = 293
Property: Mass fraction of tris (1H,1H,5H-octafluoropentyl) phosphate (Liquid mixture 1); method: spectrophotometry
Solvent: Ratio of component mass to volume of solvent, kg/m3 of 2-hydroxybenzoic acid	Mass fraction of tris (1H,1H,5H-octafluoropentyl) phosphate	uncertainty
0	5.9e-05	5.9e-05
0.5	7e-06	7e-06
1	1e-06	1e-06
1.5	7.8e-05	7.8e-05
2	0.000107	0.000107
