Measured thermophysical data. Vapor-liquid equilibrium for propylene glycols binary systems: Experimental data and regression
Source: Fluid Phase Equilib., 2014, 10.1016/j.fluid.2014.09.015
Compound 1: 1,2-propanediol, C3H8O2, InChI=1S/C3H8O2/c1-3(5)2-4/h3-5H,2H2,1H3, purity 99.93%

System: 1,2-propanediol; phases: Liquid, Gas
Property: Vapor or sublimation pressure, kPa (Liquid); method: Closed cell (Static) method
Temperature, K	Vapor or sublimation pressure, kPa	uncertainty
350.15	0.84	0.023
355.15	1.131	0.031
360.15	1.506	0.037
365.15	1.987	0.045
370.15	2.596	0.049
375.15	3.361	0.031
380.15	4.316	0.039
385.15	5.496	0.047
390.15	6.946	0.051
395.15	8.715	0.052
400.15	10.858	0.067
405.15	13.44	0.074
410.15	16.533	0.062
415.15	20.218	0.068
420.15	24.585	0.082
