Measured thermophysical data. Experimental determination and calculation of the critical curves for the binary systems of CO2 containing ketone, alkane, ester and alcohol, respectively
Source: Fluid Phase Equilib., 2011, 10.1016/j.fluid.2011.05.005
Compound 1: acetone, C3H6O, InChI=1S/C3H6O/c1-3(2)4/h1-2H3, purity 99.5%
Compound 2: carbon dioxide, CO2, InChI=1S/CO2/c2-1-3, purity 99.99%
Compound 3: hexane, C6H14, InChI=1S/C6H14/c1-3-5-6-4-2/h3-6H2,1-2H3, purity 99.5%
Compound 4: heptane, C7H16, InChI=1S/C7H16/c1-3-5-7-6-4-2/h3-7H2,1-2H3, purity 99.5%
Compound 5: octane, C8H18, InChI=1S/C8H18/c1-3-5-7-8-6-4-2/h3-8H2,1-2H3, purity 99.5%
Compound 6: dimethyl carbonate, C3H6O3, InChI=1S/C3H6O3/c1-5-3(4)6-2/h1-2H3, purity 99.5%
Compound 7: diethyl carbonate, C5H10O3, InChI=1S/C5H10O3/c1-3-7-5(6)8-4-2/h3-4H2,1-2H3, purity 99.5%
Compound 8: ethyl acetate, C4H8O2, InChI=1S/C4H8O2/c1-3-6-4(2)5/h3H2,1-2H3, purity 99.5%
Compound 9: methyl propanoate, C4H8O2, InChI=1S/C4H8O2/c1-3-4(5)6-2/h3H2,1-2H3, purity 99.5%
Compound 10: ethyl propanoate, C5H10O2, InChI=1S/C5H10O2/c1-3-5(6)7-4-2/h3-4H2,1-2H3, purity 99.5%
Compound 11: propyl propanoate, C6H12O2, InChI=1S/C6H12O2/c1-3-5-8-6(7)4-2/h3-5H2,1-2H3, purity 99.5%
Compound 12: ethanol, C2H6O, InChI=1S/C2H6O/c1-2-3/h3H,2H2,1H3, purity 99.5%

System: acetone + carbon dioxide; phases: Liquid, Gas
Property: Critical pressure, kPa (Liquid); method: Derived from PVT data
Mole fraction of carbon dioxide	Critical pressure, kPa	uncertainty
0.7833	12370	248
0.8377	10950	219
0.8854	9740	195
0.9266	8850	177
0.9532	8150	163

System: acetone + carbon dioxide; phases: Liquid, Gas
Property: Critical temperature, K (Liquid); method: Derived from PVT data
Mole fraction of carbon dioxide	Critical temperature, K	uncertainty
0.7833	393.2	2
0.8377	373.2	2
0.8854	353.2	2
0.9266	333.2	2
0.9532	313.2	2

System: acetone + carbon dioxide; phases: Liquid, Gas
Property: Critical density, kg/m3 (Liquid); method: Derived from PVT data
Mole fraction of carbon dioxide	Critical density, kg/m3	uncertainty
0.7833	540	16.2
0.8377	615	18.5
0.8854	680	20.4
0.9266	720	21.6
0.9532	756	22.7

System: hexane + carbon dioxide; phases: Liquid, Gas
Property: Critical pressure, kPa (Liquid); method: Derived from PVT data
Mole fraction of carbon dioxide	Critical pressure, kPa	uncertainty
0.8909	13130	263
0.9037	11000	221
0.9187	8870	178
0.9644	7500	150

System: hexane + carbon dioxide; phases: Liquid, Gas
Property: Critical temperature, K (Liquid); method: Derived from PVT data
Mole fraction of carbon dioxide	Critical temperature, K	uncertainty
0.8909	373.2	2
0.9037	353.2	2
0.9187	333.2	2
0.9644	313.2	2

System: hexane + carbon dioxide; phases: Liquid, Gas
Property: Critical density, kg/m3 (Liquid); method: Derived from PVT data
Mole fraction of carbon dioxide	Critical density, kg/m3	uncertainty
0.8909	368.2	11
0.9037	374.1	11.2
0.9187	374.9	11.2
0.9644	384	11.5

System: carbon dioxide + heptane; phases: Liquid, Gas
Property: Critical pressure, kPa (Liquid); method: Derived from PVT data
Mole fraction of carbon dioxide	Critical pressure, kPa	uncertainty
0.8824	14630	293
0.8964	12120	243
0.9227	9970	228
0.9243	7680	188

System: carbon dioxide + heptane; phases: Liquid, Gas
Property: Critical temperature, K (Liquid); method: Derived from PVT data
Mole fraction of carbon dioxide	Critical temperature, K	uncertainty
0.8824	373.2	2
0.8964	353.2	2
0.9227	333.2	2.2
0.9243	313.2	2.2

System: carbon dioxide + heptane; phases: Liquid, Gas
Property: Critical density, kg/m3 (Liquid); method: Derived from PVT data
Mole fraction of carbon dioxide	Critical density, kg/m3	uncertainty
0.8824	450.1	16
0.8964	1471.5	44.2
0.9227	1486.4	65.2
0.9243	501.1	49

System: octane + carbon dioxide; phases: Liquid, Gas
Property: Critical pressure, kPa (Liquid); method: Derived from PVT data
Mole fraction of carbon dioxide	Critical pressure, kPa	uncertainty
0.8782	14440	289
0.902	13850	277
0.9154	12330	247
0.9383	10480	210
0.9447	7850	159

System: octane + carbon dioxide; phases: Liquid, Gas
Property: Critical temperature, K (Liquid); method: Derived from PVT data
Mole fraction of carbon dioxide	Critical temperature, K	uncertainty
0.8782	393.2	2
0.902	373.2	2
0.9154	353.2	2
0.9383	333.2	2
0.9447	313.2	2

System: octane + carbon dioxide; phases: Liquid, Gas
Property: Critical density, kg/m3 (Liquid); method: Derived from PVT data
Mole fraction of carbon dioxide	Critical density, kg/m3	uncertainty
0.8782	400.2	12
0.902	425.1	12.8
0.9154	458.2	13.7
0.9383	436.1	13.1
0.9447	462.3	13.9

System: carbon dioxide + dimethyl carbonate; phases: Liquid, Gas
Property: Critical pressure, kPa (Liquid); method: Derived from PVT data
Mole fraction of carbon dioxide	Critical pressure, kPa	uncertainty
0.727	14390	288
0.7772	12510	250
0.859	11450	229
0.8852	10600	212

System: carbon dioxide + dimethyl carbonate; phases: Liquid, Gas
Property: Critical temperature, K (Liquid); method: Derived from PVT data
Mole fraction of carbon dioxide	Critical temperature, K	uncertainty
0.727	393.2	2
0.7772	373.2	2
0.859	353.2	2
0.8852	333.2	2

System: carbon dioxide + dimethyl carbonate; phases: Liquid, Gas
Property: Critical density, kg/m3 (Liquid); method: Derived from PVT data
Mole fraction of carbon dioxide	Critical density, kg/m3	uncertainty
0.727	642.9	19.3
0.7772	523.3	15.7
0.859	511.7	15.4
0.8852	858.3	25.8

System: diethyl carbonate + carbon dioxide; phases: Liquid, Gas
Property: Critical pressure, kPa (Liquid); method: Derived from PVT data
Mole fraction of carbon dioxide	Critical pressure, kPa	uncertainty
0.8207	15300	306
0.8726	14380	288
0.9281	12970	259
0.9455	11030	221
0.9557	8030	161

System: diethyl carbonate + carbon dioxide; phases: Liquid, Gas
Property: Critical temperature, K (Liquid); method: Derived from PVT data
Mole fraction of carbon dioxide	Critical temperature, K	uncertainty
0.8207	393.2	2
0.8726	373.2	2
0.9281	353.2	2
0.9455	333.2	2
0.9557	313.2	2

System: diethyl carbonate + carbon dioxide; phases: Liquid, Gas
Property: Critical density, kg/m3 (Liquid); method: Derived from PVT data
Mole fraction of carbon dioxide	Critical density, kg/m3	uncertainty
0.8207	613.6	18.4
0.8726	543	16.3
0.9281	527.9	15.8
0.9455	504.3	15.1
0.9557	532.2	16

System: carbon dioxide + ethyl acetate; phases: Liquid, Gas
Property: Critical pressure, kPa (Liquid); method: Derived from PVT data
Mole fraction of carbon dioxide	Critical pressure, kPa	uncertainty
0.7434	13020	260
0.8524	12110	242
0.8946	10450	209
0.9395	10200	204

System: carbon dioxide + ethyl acetate; phases: Liquid, Gas
Property: Critical temperature, K (Liquid); method: Derived from PVT data
Mole fraction of carbon dioxide	Critical temperature, K	uncertainty
0.7434	393.2	2
0.8524	373.2	2
0.8946	353.2	2
0.9395	333.2	2

System: carbon dioxide + ethyl acetate; phases: Liquid, Gas
Property: Critical density, kg/m3 (Liquid); method: Derived from PVT data
Mole fraction of carbon dioxide	Critical density, kg/m3	uncertainty
0.7434	597.6	17.9
0.8524	710.5	21.3
0.8946	497.1	14.9
0.9395	594.9	17.8

System: carbon dioxide + methyl propanoate; phases: Liquid, Gas
Property: Critical pressure, kPa (Liquid); method: Derived from PVT data
Mole fraction of carbon dioxide	Critical pressure, kPa	uncertainty
0.8275	12280	248
0.8377	10340	209
0.8921	9170	184
0.9103	7440	149

System: carbon dioxide + methyl propanoate; phases: Liquid, Gas
Property: Critical temperature, K (Liquid); method: Derived from PVT data
Mole fraction of carbon dioxide	Critical temperature, K	uncertainty
0.8275	373.2	2
0.8377	353.2	2
0.8921	332.2	2
0.9103	313.2	2

System: carbon dioxide + methyl propanoate; phases: Liquid, Gas
Property: Critical density, kg/m3 (Liquid); method: Derived from PVT data
Mole fraction of carbon dioxide	Critical density, kg/m3	uncertainty
0.8275	574.2	17.2
0.8377	627.7	18.9
0.8921	670.7	20.1
0.9103	686.6	20.6

System: ethyl propanoate + carbon dioxide; phases: Liquid, Gas
Property: Critical pressure, kPa (Liquid); method: Derived from PVT data
Mole fraction of carbon dioxide	Critical pressure, kPa	uncertainty
0.8593	12490	250
0.9128	10890	218
0.9623	9330	187
0.9917	8230	165

System: ethyl propanoate + carbon dioxide; phases: Liquid, Gas
Property: Critical temperature, K (Liquid); method: Derived from PVT data
Mole fraction of carbon dioxide	Critical temperature, K	uncertainty
0.8593	373.2	2
0.9128	353.2	2
0.9623	333.2	2
0.9917	313.2	2

System: ethyl propanoate + carbon dioxide; phases: Liquid, Gas
Property: Critical density, kg/m3 (Liquid); method: Derived from PVT data
Mole fraction of carbon dioxide	Critical density, kg/m3	uncertainty
0.8593	627.1	18.8
0.9128	635.1	19.1
0.9623	648.4	19.5
0.9917	670.9	20.1

System: propyl propanoate + carbon dioxide; phases: Liquid, Gas
Property: Critical pressure, kPa (Liquid); method: Derived from PVT data
Mole fraction of carbon dioxide	Critical pressure, kPa	uncertainty
0.7833	12620	253
0.8476	11310	226
0.9137	10150	203
0.9564	7490	150

System: propyl propanoate + carbon dioxide; phases: Liquid, Gas
Property: Critical temperature, K (Liquid); method: Derived from PVT data
Mole fraction of carbon dioxide	Critical temperature, K	uncertainty
0.7833	373.2	2
0.8476	353.2	2
0.9137	333.2	2
0.9564	313.2	2

System: propyl propanoate + carbon dioxide; phases: Liquid, Gas
Property: Critical density, kg/m3 (Liquid); method: Derived from PVT data
Mole fraction of carbon dioxide	Critical density, kg/m3	uncertainty
0.7833	551.6	16.5
0.8476	575	17.3
0.9137	598	17.9
0.9564	724.2	21.7

System: ethanol + carbon dioxide; phases: Liquid, Gas
Property: Critical pressure, kPa (Liquid); method: Derived from PVT data
Mole fraction of carbon dioxide	Critical pressure, kPa	uncertainty
0.53	13300	266
0.72	15300	306
0.88	13100	264
0.89	10800	218

System: ethanol + carbon dioxide; phases: Liquid, Gas
Property: Critical temperature, K (Liquid); method: Derived from PVT data
Mole fraction of carbon dioxide	Critical temperature, K	uncertainty
0.53	453	2
0.72	413	2
0.88	353	2
0.89	333	2

System: ethanol + carbon dioxide; phases: Liquid, Gas
Property: Critical density, kg/m3 (Liquid); method: Derived from PVT data
Mole fraction of carbon dioxide	Critical density, kg/m3	uncertainty
0.53	410	12.3
0.72	460	13.8
0.88	510	15.3
0.89	550	16.5
