Measured thermophysical data. Effect of cation on the solubility of ethane in three bis(fluorosulfonyl)imide ([FSI]) based low viscosity ionic liquids
Source: Fluid Phase Equilib., 2017, 10.1016/j.fluid.2017.08.011
Compound 1: ethane, C2H6, InChI=1S/C2H6/c1-2/h1-2H3
Compound 2: 1-methyl-1-propylpiperidinium bis(fluorosulfonyl)imide, C9H20F2N2O4S2, InChI=1S/C9H20N.F2NO4S2/c1-3-7-10(2)8-5-4-6-9-10;1-8(4,5)3-9(2,6)7/h3-9H2,1-2H3;/q+1;-1, purity 99.9%
Compound 3: 1-methyl-1-propylpyrrolidinium bis(fluorosulfonyl)amide, C8H18F2N2O4S2, InChI=1S/C8H18N.F2NO4S2/c1-3-6-9(2)7-4-5-8-9;1-8(4,5)3-9(2,6)7/h3-8H2,1-2H3;/q+1;-1, purity 99.9%
Compound 4: N,N-diethyl-N-methyl-N-propylammonium bis(fluorosulfonyl)imide, C8H20F2N2O4S2, InChI=1S/C8H20N.F2NO4S2/c1-5-8-9(4,6-2)7-3;1-8(4,5)3-9(2,6)7/h5-8H2,1-4H3;/q+1;-1, purity 99.9%
Compound 5: 1-butyl-3-methylimidazolium hexafluorophosphate, C8H15F6N2P, InChI=1S/C8H15N2.F6P/c1-3-4-5-10-7-6-9(2)8-10;1-7(2,3,4,5)6/h6-8H,3-5H2,1-2H3;/q+1;-1, purity 98.6%

System: ethane + 1-methyl-1-propylpiperidinium bis(fluorosulfonyl)imide; phases: Liquid, Gas
Property: Mole fraction of ethane (Liquid); method: gravimetric method
Temperature, K	Pressure, kPa	Mole fraction of ethane	uncertainty
303.15	0.2	0	
303.15	10.1	0.001	0.001
303.15	50	0.003	0.003
303.15	98	0.005	0.005
303.15	201.3	0.01	0.01
303.15	402.8	0.021	0.012
303.15	605.1	0.03	0.012
303.15	800	0.039	0.012
303.15	987.3	0.046	0.012
323.15	0.3	0	
323.15	9.8	0.001	0.001
323.15	49.8	0.002	0.002
323.15	98.8	0.004	0.004
323.15	198.3	0.008	0.008
323.15	404.4	0.016	0.012
323.15	606.2	0.023	0.012
323.15	805.1	0.031	0.012
323.15	1012.4	0.037	0.012
343.15	0.3	0	
343.15	9.7	0.001	0.001
343.15	49.9	0.001	0.001
343.15	100.4	0.003	0.003
343.15	201.5	0.007	0.007
343.15	402.2	0.012	0.012
343.15	603.1	0.018	0.012
343.15	797.9	0.024	0.012
343.15	1004.2	0.029	0.012

System: ethane + 1-methyl-1-propylpyrrolidinium bis(fluorosulfonyl)amide; phases: Liquid, Gas
Property: Mole fraction of ethane (Liquid); method: gravimetric method
Temperature, K	Pressure, kPa	Mole fraction of ethane	uncertainty
303.15	0.1	0	
303.15	10.1	0.001	0.001
303.15	49.9	0.003	0.003
303.15	102	0.005	0.005
303.15	201.5	0.01	0.01
303.15	400	0.02	0.012
303.15	599.7	0.029	0.012
303.15	794.3	0.036	0.012
303.15	1017.6	0.045	0.012
323.15	0.2	0	
323.15	9.8	0.001	0.001
323.15	49.6	0.002	0.002
323.15	99.1	0.004	0.004
323.15	201.3	0.009	0.009
323.15	400.5	0.016	0.012
323.15	602.5	0.023	0.012
323.15	797.8	0.03	0.012
323.15	1004.3	0.036	0.012
343.15	0.2	0	
343.15	10	0.001	0.001
343.15	50.1	0.001	0.001
343.15	98.1	0.003	0.003
343.15	200.9	0.006	0.006
343.15	402.3	0.012	0.012
343.15	603.5	0.017	0.012
343.15	799.8	0.022	0.012
343.15	996.6	0.026	0.012

System: ethane + N,N-diethyl-N-methyl-N-propylammonium bis(fluorosulfonyl)imide; phases: Liquid, Gas
Property: Mole fraction of ethane (Liquid); method: gravimetric method
Temperature, K	Pressure, kPa	Mole fraction of ethane	uncertainty
303.15	0.3	0	
303.15	10	0.001	0.001
303.15	50.2	0.003	0.003
303.15	101.4	0.005	0.005
303.15	200.9	0.011	0.011
303.15	400.6	0.021	0.012
303.15	603.9	0.031	0.012
303.15	800.7	0.039	0.012
303.15	1000.1	0.047	0.012
323.15	0.2	0	
323.15	10.1	0.001	0.001
323.15	50.1	0.002	0.002
323.15	102	0.005	0.005
323.15	201.2	0.009	0.009
323.15	402	0.017	0.012
323.15	601.9	0.025	0.012
323.15	796.8	0.032	0.012
323.15	1017.7	0.041	0.012
343.15	0.3	0	
343.15	9.8	0.001	0.001
343.15	49.3	0.001	0.001
343.15	102.4	0.002	0.002
343.15	201	0.007	0.007
343.15	400.6	0.013	0.012
343.15	600.6	0.019	0.012
343.15	794.6	0.025	0.012
343.15	1000.5	0.029	0.012

System: ethane + 1-butyl-3-methylimidazolium hexafluorophosphate; phases: Liquid, Gas
Fixed: Temperature, K = 323.15
Property: Mole fraction of ethane (Liquid); method: gravimetric microbalance
Pressure, kPa	Mole fraction of ethane	uncertainty
0.5	0	
10.2	0.001	0.001
49.7	0.001	0.001
98.6	0.002	0.002
203.9	0.006	0.006
399.3	0.011	0.011
575	0.015	0.012
813	0.021	0.012
984.9	0.024	0.012
1206.8	0.029	0.012
1381.5	0.033	0.012
1580	0.037	0.012
0.5	0	
10.3	0.001	0.001
49.4	0.001	0.001
97.8	0.002	0.002
194	0.006	0.006
413.8	0.011	0.011
608.8	0.016	0.012
784	0.019	0.012
1021.5	0.025	0.012
1182.2	0.028	0.012
1387.8	0.032	0.012
1605.9	0.037	0.012
