Measured thermophysical data. Phase equilibrium in binary systems of ionic liquids, or deep eutectic solvents with 2-phenylethanol (PEA), or water
Source: Fluid Phase Equilib., 2016, 10.1016/j.fluid.2015.10.016
Compound 1: 2-phenylethanol, C8H10O, InChI=1S/C8H10O/c9-7-6-8-4-2-1-3-5-8/h1-5,9H,6-7H2, purity 99%
Compound 2: 1-butyl-1-methylpyrrolidinium tricyanomethanide, C13H20N4, InChI=1S/C9H20N.C4N3/c1-3-4-7-10(2)8-5-6-9-10;5-1-4(2-6)3-7/h3-9H2,1-2H3;/q+1;-1, purity 98%
Compound 3: 1-butyl-1-methylpyrrolidinium tetracyanoborate, C13H20BN5, InChI=1S/C9H20N.C4BN4/c1-3-4-7-10(2)8-5-6-9-10;6-1-5(2-7,3-8)4-9/h3-9H2,1-2H3;/q+1;-1, purity 98%
Compound 4: 1-butyl-1-methylpyrrolidinium trifluoromethanesulfonate, C10H20F3NO3S, InChI=1S/C9H20N.CHF3O3S/c1-3-4-7-10(2)8-5-6-9-10;2-1(3,4)8(5,6)7/h3-9H2,1-2H3;(H,5,6,7)/q+1;/p-1, purity 97%

System: 2-phenylethanol; phases: Crystal, Liquid, Air at 1 atmosphere
Property: Normal melting temperature, K (Crystal); method: DTA
Normal melting temperature, K	uncertainty
246	1

System: 2-phenylethanol; phases: Crystal, Liquid, Air at 1 atmosphere
Property: Molar enthalpy of transition or fusion, kJ/mol (Crystal); method: DSC
Molar enthalpy of transition or fusion, kJ/mol	uncertainty
9.65	0.401

System: 1-butyl-1-methylpyrrolidinium tricyanomethanide; phases: Crystal, Liquid, Air at 1 atmosphere
Property: Normal melting temperature, K (Crystal); method: DTA
Normal melting temperature, K	uncertainty
264.4	0.4

System: 1-butyl-1-methylpyrrolidinium tricyanomethanide; phases: Crystal, Liquid, Air at 1 atmosphere
Property: Molar enthalpy of transition or fusion, kJ/mol (Crystal); method: DSC
Molar enthalpy of transition or fusion, kJ/mol	uncertainty
9.43	0.33

System: 1-butyl-1-methylpyrrolidinium tetracyanoborate; phases: Crystal, Liquid, Air at 1 atmosphere
Property: Normal melting temperature, K (Crystal); method: DTA
Normal melting temperature, K	uncertainty
292.8	0.4

System: 1-butyl-1-methylpyrrolidinium tetracyanoborate; phases: Crystal, Liquid, Air at 1 atmosphere
Property: Molar enthalpy of transition or fusion, kJ/mol (Crystal); method: DSC
Molar enthalpy of transition or fusion, kJ/mol	uncertainty
20.8	0.49

System: 1-butyl-1-methylpyrrolidinium trifluoromethanesulfonate; phases: Crystal, Liquid, Air at 1 atmosphere
Property: Normal melting temperature, K (Crystal); method: DTA
Normal melting temperature, K	uncertainty
272.9	0.4

System: 1-butyl-1-methylpyrrolidinium trifluoromethanesulfonate; phases: Crystal, Liquid, Air at 1 atmosphere
Property: Molar enthalpy of transition or fusion, kJ/mol (Crystal); method: DSC
Molar enthalpy of transition or fusion, kJ/mol	uncertainty
12.07	0.38

System: 2-phenylethanol + 1-butyl-1-methylpyrrolidinium tricyanomethanide; phases: Liquid, Crystal
Property: Solid-liquid equilibrium temperature, K (Liquid); method: DTA
Mole fraction of 1-butyl-1-methylpyrrolidinium tricyanomethanide	Pressure, kPa	Solid-liquid equilibrium temperature, K	uncertainty
0	101	246.1	0.4

System: 2-phenylethanol + 1-butyl-1-methylpyrrolidinium tricyanomethanide; phases: Liquid, Crystal
Fixed: Pressure, kPa = 101
Property: Solid-liquid equilibrium temperature, K (Liquid); method: DTA
Mole fraction of 1-butyl-1-methylpyrrolidinium tricyanomethanide	Solid-liquid equilibrium temperature, K	uncertainty
1	266.5	0.4
0.9375	264.5	0.4
0.9011	263.1	0.4
0.8524	260.9	0.4
0.8016	259	0.4
0.7636	257.3	0.4
0.7091	254.4	0.4
0.6657	252.3	0.4
0.6088	248.9	0.4

System: 2-phenylethanol + 1-butyl-1-methylpyrrolidinium tetracyanoborate; phases: Liquid, Crystal
Fixed: Pressure, kPa = 101
Property: Solid-liquid equilibrium temperature, K (Liquid); method: DTA
Mole fraction of 1-butyl-1-methylpyrrolidinium tetracyanoborate	Solid-liquid equilibrium temperature, K	uncertainty
1	294.7	0.4
0.9178	294.1	0.4
0.8526	292.2	0.4
0.806	290.6	0.4
0.7276	286.8	0.4
0.6733	284.4	0.4
0.6095	281	0.4
0.5349	276.4	0.4
0.4772	272.5	0.4

System: 2-phenylethanol + 1-butyl-1-methylpyrrolidinium tetracyanoborate; phases: Liquid, Crystal
Property: Solid-liquid equilibrium temperature, K (Liquid); method: DTA
Mole fraction of 1-butyl-1-methylpyrrolidinium tetracyanoborate	Pressure, kPa	Solid-liquid equilibrium temperature, K	uncertainty
0	101	246.1	0.4

System: 2-phenylethanol + 1-butyl-1-methylpyrrolidinium trifluoromethanesulfonate; phases: Liquid, Crystal
Property: Solid-liquid equilibrium temperature, K (Liquid); method: DTA
Mole fraction of 1-butyl-1-methylpyrrolidinium trifluoromethanesulfonate	Pressure, kPa	Solid-liquid equilibrium temperature, K	uncertainty
0	101	246.1	0.4

System: 2-phenylethanol + 1-butyl-1-methylpyrrolidinium trifluoromethanesulfonate; phases: Liquid, Crystal
Fixed: Pressure, kPa = 101
Property: Solid-liquid equilibrium temperature, K (Liquid); method: DTA
Mole fraction of 1-butyl-1-methylpyrrolidinium trifluoromethanesulfonate	Solid-liquid equilibrium temperature, K	uncertainty
1	275	0.4
0.9668	274.8	0.4
0.9062	273.7	0.4
0.8398	271.6	0.4
0.7601	268	0.4
0.6786	263.6	0.4
0.6211	260.3	0.4
0.5347	254	0.4
