Measured thermophysical data. Phase equilibria of methanol triolein system at elevated temperature and pressure
Source: Fluid Phase Equilib., 2006, 10.1016/j.fluid.2005.10.010
Compound 1: methanol, CH4O, InChI=1S/CH4O/c1-2/h2H,1H3
Compound 2: 1,2,3-tri(cis-9-octadecenoyl)glycerol, C57H104O6, InChI=1S/C57H104O6/c1-4-7-10-13-16-19-22-25-28-31-34-37-40-43-46-49-55(58)61-52-54(63-57(60)51-48-45-42-39-36-33-30-27-24-21-18-15-12-9-6-3)53-62-56(59)50-47-44-41-38-35-32-29-26-23-20-17-14-11-8-5-2/h25-30,54H,4-24,31-53H2,1-3H3/b28-25-,29-26-,30-27-, purity 99%

System: methanol + 1,2,3-tri(cis-9-octadecenoyl)glycerol; phases: Liquid, Gas
Property: Boiling temperature at pressure P, K (Liquid); method: Closed cell (Static) method
Mole fraction of methanol	Pressure, kPa	Boiling temperature at pressure P, K	uncertainty
0.07	10000	353.2	14
0.107	8000	353.2	14
0.186	6000	353.2	14
0.343	10000	393.2	14
0.433	8000	393.2	14
0.566	6000	393.2	14
0.592	8000	413.2	14
0.596	10000	413.2	14
0.676	6000	413.2	14
0.687	10000	433.2	14
0.69	8000	433.2	14
0.73	6000	433.2	14
0.732	8000	443.2	14
0.733	8000	453.2	14
0.746	6000	453.2	14.1
0.749	6000	443.2	14.1
0.773	10000	443.2	14
0.777	6000	463.2	14
0.777	10000	453.2	14
0.791	8000	463.2	14
0.81	10000	463.2	14

System: methanol + 1,2,3-tri(cis-9-octadecenoyl)glycerol; phases: Gas, Liquid
Property: Mole fraction of methanol (Gas); method: Phase equilibration
Mole fraction of methanol	Pressure, kPa	Mole fraction of methanol	uncertainty
0.07	10000	1	0.001
0.107	8000	1	0.001
0.186	6000	0.998	0.002
0.343	10000	0.999	0.001
0.433	8000	0.999	0.001
0.566	6000	0.996	0.004
0.592	8000	0.995	0.004
0.596	10000	0.998	0.002
0.676	6000	0.996	0.004
0.687	10000	0.991	0.004
0.69	8000	0.992	0.004
0.73	6000	0.993	0.004
0.732	8000	0.984	0.004
0.733	8000	0.98	0.004
0.746	6000	0.986	0.004
0.749	6000	0.99	0.004
0.773	10000	0.988	0.004
0.777	6000	0.988	0.004
0.777	10000	0.982	0.004
0.791	8000	0.961	0.004
0.81	10000	0.958	0.004
