Measured thermophysical data. Ternary liquid liquid equilibria of trifluorotris(perfluoroethyl)phosphate based  ionic liquids + methanol + heptane
Source: Fluid Phase Equilib., 2013, 10.1016/j.fluid.2012.11.014
Compound 1: 4-(2-methoxyethyl)-4-methylmorpholinium trifluorotris(perfluoroethyl)phosphate, C14H18F18NO2P, InChI=1S/C8H18NO2.C6F18P/c1-9(3-6-10-2)4-7-11-8-5-9;7-1(8,9)4(16,17)25(22,23,24,5(18,19)2(10,11)12)6(20,21)3(13,14)15/h3-8H2,1-2H3;/q+1;-1, purity 99.5%
Compound 2: 1-(2-methoxyethyl)-1-methylpiperidinium trifluorotris(perfluoroethyl)phosphate, C15H20F18NOP, InChI=1S/C9H20NO.C6F18P/c1-10(8-9-11-2)6-4-3-5-7-10;7-1(8,9)4(16,17)25(22,23,24,5(18,19)2(10,11)12)6(20,21)3(13,14)15/h3-9H2,1-2H3;/q+1;-1, purity 99.5%
Compound 3: 1-(2-methoxyethyl)-1-methylpyrrolidinium tris(pentafluoroethyl)trifluorophosphate, C14H18F18NOP, InChI=1S/C8H18NO.C6F18P/c1-9(7-8-10-2)5-3-4-6-9;7-1(8,9)4(16,17)25(22,23,24,5(18,19)2(10,11)12)6(20,21)3(13,14)15/h3-8H2,1-2H3;/q+1;-1, purity 99.5%
Compound 4: methanol, CH4O, InChI=1S/CH4O/c1-2/h2H,1H3, purity 99.9%
Compound 5: heptane, C7H16, InChI=1S/C7H16/c1-3-5-7-6-4-2/h3-7H2,1-2H3, purity 99%

System: methanol + heptane + 4-(2-methoxyethyl)-4-methylmorpholinium trifluorotris(perfluoroethyl)phosphate; phases: Liquid mixture 2, Liquid mixture 1
Fixed: Temperature, K = 298.15
Fixed: Pressure, kPa = 101
Property: Mole fraction of methanol (Liquid mixture 2); method: Chromatography
Property: Mole fraction of 4-(2-methoxyethyl)-4-methylmorpholinium trifluorotris(perfluoroethyl)phosphate (Liquid mixture 1); method: Chromatography
Property: Mole fraction of methanol (Liquid mixture 1); method: Chromatography
Mole fraction of 4-(2-methoxyethyl)-4-methylmorpholinium trifluorotris(perfluoroethyl)phosphate	Mole fraction of methanol	uncertainty	Mole fraction of 4-(2-methoxyethyl)-4-methylmorpholinium trifluorotris(perfluoroethyl)phosphate	uncertainty	Mole fraction of methanol	uncertainty
0.978	0		0		0	
0.86	0.115	0.006	0		0.006	
0.694	0.28	0.006	0		0.008	
0.598	0.377	0.006	0		0.009	
0.594	0.38	0.006	0		0.009	
0.529	0.449	0.007	0		0.01	
0.423	0.553	0.006	0		0.014	
0.359	0.617	0.005	0		0.019	
0.349	0.627	0.005	0		0.02	
0.265	0.709	0.006	0		0.026	
0.213	0.76	0.006	0		0.028	
0.197	0.776	0.006	0		0.032	
0.187	0.785	0.006	0		0.039	
0.161	0.811	0.006	0		0.041	
0.154	0.817	0.004	0		0.041	
0.121	0.849	0.006	0		0.043	
0.075	0.889	0.005	0		0.053	
0.061	0.901	0.004	0		0.055	
0.012	0.919	0.004	0		0.125	
0	0.899	0.004	0		0.152	

System: methanol + heptane + 1-(2-methoxyethyl)-1-methylpiperidinium trifluorotris(perfluoroethyl)phosphate; phases: Liquid mixture 2, Liquid mixture 1
Fixed: Temperature, K = 298.15
Fixed: Pressure, kPa = 101
Property: Mole fraction of methanol (Liquid mixture 2); method: Chromatography
Property: Mole fraction of 1-(2-methoxyethyl)-1-methylpiperidinium trifluorotris(perfluoroethyl)phosphate (Liquid mixture 1); method: Chromatography
Property: Mole fraction of methanol (Liquid mixture 1); method: Chromatography
Mole fraction of 1-(2-methoxyethyl)-1-methylpiperidinium trifluorotris(perfluoroethyl)phosphate	Mole fraction of methanol	uncertainty	Mole fraction of 1-(2-methoxyethyl)-1-methylpiperidinium trifluorotris(perfluoroethyl)phosphate	uncertainty	Mole fraction of methanol	uncertainty
0.931	0		0		0	
0.821	0.11	0.006	0		0.005	
0.695	0.241	0.006	0		0.007	
0.624	0.318	0.006	0		0.009	
0.598	0.345	0.005	0		0.009	
0.478	0.47	0.007	0		0.013	
0.427	0.524	0.007	0		0.016	
0.414	0.538	0.005	0		0.018	
0.36	0.593	0.006	0		0.02	
0.251	0.705	0.006	0		0.027	
0.217	0.739	0.006	0		0.03	
0.188	0.768	0.006	0		0.032	
0.165	0.791	0.006	0		0.035	
0.156	0.801	0.006	0		0.042	
0.135	0.822	0.006	0		0.045	
0.071	0.885	0.006	0		0.07	
0.036	0.912	0.004	0		0.1	
0	0.899	0.004	0		0.152	

System: methanol + heptane + 1-(2-methoxyethyl)-1-methylpyrrolidinium tris(pentafluoroethyl)trifluorophosphate; phases: Liquid mixture 2, Liquid mixture 1
Fixed: Temperature, K = 298.15
Fixed: Pressure, kPa = 101
Property: Mole fraction of methanol (Liquid mixture 2); method: Chromatography
Property: Mole fraction of 1-(2-methoxyethyl)-1-methylpyrrolidinium tris(pentafluoroethyl)trifluorophosphate (Liquid mixture 1); method: Chromatography
Property: Mole fraction of methanol (Liquid mixture 1); method: Chromatography
Mole fraction of 1-(2-methoxyethyl)-1-methylpyrrolidinium tris(pentafluoroethyl)trifluorophosphate	Mole fraction of methanol	uncertainty	Mole fraction of 1-(2-methoxyethyl)-1-methylpyrrolidinium tris(pentafluoroethyl)trifluorophosphate	uncertainty	Mole fraction of methanol	uncertainty
0.946	0		0		0	
0.855	0.089	0.006	0		0.004	
0.708	0.239	0.006	0		0.007	
0.665	0.284	0.006	0		0.008	
0.662	0.287	0.006	0		0.008	
0.559	0.393	0.005	0		0.011	
0.535	0.418	0.007	0		0.011	
0.496	0.459	0.007	0		0.013	
0.483	0.472	0.007	0		0.014	
0.475	0.48	0.005	0		0.014	
0.478	0.477	0.005	0		0.014	
0.435	0.521	0.007	0		0.017	
0.388	0.57	0.007	0		0.021	
0.299	0.661	0.005	0		0.027	
0.281	0.68	0.006	0		0.032	
0.251	0.711	0.005	0		0.034	
0.246	0.716	0.005	0		0.036	
0.19	0.772	0.006	0		0.043	
0.134	0.827	0.006	0		0.047	
0.056	0.901	0.005	0		0.056	
0.028	0.918	0.004	0		0.105	
0	0.899	0.004	0		0.152	
