Measured thermophysical data. Liquid liquid equilibrium of ternary systems 1-butyl-3-methylimidazolium hexafluorophosphate + aromatic + aliphatic
Source: Fluid Phase Equilib., 2008, 10.1016/j.fluid.2008.01.007
Compound 1: 1-butyl-3-methylimidazolium hexafluorophosphate, C8H15F6N2P, InChI=1S/C8H15N2.F6P/c1-3-4-5-10-7-6-9(2)8-10;1-7(2,3,4,5)6/h6-8H,3-5H2,1-2H3;/q+1;-1
Compound 2: benzene, C6H6, InChI=1S/C6H6/c1-2-4-6-5-3-1/h1-6H
Compound 3: toluene, C7H8, InChI=1S/C7H8/c1-7-5-3-2-4-6-7/h2-6H,1H3
Compound 4: 1,3-dimethylbenzene, C8H10, InChI=1S/C8H10/c1-7-4-3-5-8(2)6-7/h3-6H,1-2H3
Compound 5: nonane, C9H20, InChI=1S/C9H20/c1-3-5-7-9-8-6-4-2/h3-9H2,1-2H3
Compound 6: undecane, C11H24, InChI=1S/C11H24/c1-3-5-7-9-11-10-8-6-4-2/h3-11H2,1-2H3

System: 1-butyl-3-methylimidazolium hexafluorophosphate; phases: Liquid
Property: Mass density, kg/m3 (Liquid); method: Vibrating tube method
Temperature, K	Pressure, kPa	Mass density, kg/m3	uncertainty
293.15	101.325	1380.333	13.431

System: benzene; phases: Liquid
Property: Mass density, kg/m3 (Liquid); method: VIBTUB:UFactor:6
Temperature, K	Pressure, kPa	Mass density, kg/m3	uncertainty
298.15	101.325	873.945	0.64

System: toluene; phases: Liquid
Property: Mass density, kg/m3 (Liquid); method: VIBTUB:UFactor:2
Temperature, K	Pressure, kPa	Mass density, kg/m3	uncertainty
298.15	101.325	864.989	0.181

System: 1,3-dimethylbenzene; phases: Liquid
Property: Mass density, kg/m3 (Liquid); method: VIBTUB:UFactor:6
Temperature, K	Pressure, kPa	Mass density, kg/m3	uncertainty
293.15	101.325	868.124	0.652

System: nonane; phases: Liquid
Property: Mass density, kg/m3 (Liquid); method: VIBTUB:UFactor:6
Temperature, K	Pressure, kPa	Mass density, kg/m3	uncertainty
293.15	101.325	718.418	0.962

System: undecane; phases: Liquid
Property: Mass density, kg/m3 (Liquid); method: VIBTUB:UFactor:6
Temperature, K	Pressure, kPa	Mass density, kg/m3	uncertainty
298.15	101.325	740.289	0.917

System: benzene + nonane + 1-butyl-3-methylimidazolium hexafluorophosphate; phases: Liquid mixture 1, Liquid mixture 2
Fixed: Temperature, K = 298.15
Fixed: Pressure, kPa = 101
Property: Mass density, kg/m3 (Liquid mixture 1); method: VIBTUB:UFactor:16
Mole fraction of nonane	Mass density, kg/m3	uncertainty
0.0016	873.498	2.137
0.0129	870.692	2.149
0.0663	854.444	3.48
0.0825	1292.707	13.973
0.0881	1308.682	4.648
0.2084	814.02	2.938
0.278	799.199	2.462
0.3042	796.759	2.472
0.3993	779.886	2.548
0.5919	751.421	2.677
0.7633	730.424	2.774
0.8594	724.496	2.801

System: benzene + nonane + 1-butyl-3-methylimidazolium hexafluorophosphate; phases: Liquid mixture 1, Liquid mixture 2
Fixed: Temperature, K = 298.15
Fixed: Pressure, kPa = 101
Property: Mole fraction of benzene (Liquid mixture 1); method: Titration method
Mole fraction of nonane	Mole fraction of benzene	uncertainty
0.0016	0.9979	0.0021
0.0129	0.9859	0.0141
0.0663	0.9308	0.0206
0.0825	0.3288	0.0325
0.0881	0.0466	0.0363
0.2084	0.7896	0.021
0.278	0.7182	0.0215
0.3042	0.691	0.0218
0.3993	0.5843	0.0232
0.5919	0.3892	0.0228
0.7633	0.2033	0.0208
0.8594	0.1054	0.0202

System: benzene + nonane + 1-butyl-3-methylimidazolium hexafluorophosphate; phases: Liquid mixture 1, Liquid mixture 2
Fixed: Temperature, K = 298.15
Fixed: Pressure, kPa = 101
Property: Mole fraction of benzene (Liquid mixture 1); method: OTHER
Property: Mole fraction of nonane (Liquid mixture 2); method: OTHER
Property: Mole fraction of benzene (Liquid mixture 2); method: OTHER
Mole fraction of nonane	Mole fraction of benzene	uncertainty	Mole fraction of nonane	uncertainty	Mole fraction of benzene	uncertainty
0.1431	0.854	0.02	0.087	0.02	0.282	
0.1212	0.869	0.02	0.0785	0.02	0.362	
0.1979	0.788	0.02	0.0799	0.02	0.183	
0.1289	0.86	0.02	0.0874	0.02	0.295	
0.2286	0.756	0.02	0.0988	0.02	0.135	

System: toluene + nonane + 1-butyl-3-methylimidazolium hexafluorophosphate; phases: Liquid mixture 1, Liquid mixture 2
Fixed: Temperature, K = 298.15
Fixed: Pressure, kPa = 101
Property: Mass density, kg/m3 (Liquid mixture 1); method: VIBTUB:UFactor:32
Mole fraction of nonane	Mass density, kg/m3	uncertainty
0	867.894	3.295
0.0292	1226.855	5.209
0.044	856.987	3.783
0.0517	1243.357	30.582
0.2498	805.89	3.985
0.2741	812.43	3.922
0.325	844.852	3.552
0.3511	824.875	3.799

System: toluene + nonane + 1-butyl-3-methylimidazolium hexafluorophosphate; phases: Liquid mixture 1, Liquid mixture 2
Fixed: Temperature, K = 298.15
Fixed: Pressure, kPa = 101
Property: Mole fraction of toluene (Liquid mixture 1); method: Titration method
Mole fraction of nonane	Mole fraction of toluene	uncertainty
0	0.9924	0.0076
0.0292	0.2189	0.0211
0.044	0.9597	0.0219
0.0517	0.4307	0.0474
0.2498	0.7218	0.0215
0.2741	0.6875	0.0219
0.325	0.61	0.0229
0.3511	0.5789	0.0233

System: toluene + nonane + 1-butyl-3-methylimidazolium hexafluorophosphate; phases: Liquid mixture 1, Liquid mixture 2
Fixed: Temperature, K = 298.15
Fixed: Pressure, kPa = 101
Property: Mole fraction of nonane (Liquid mixture 1); method: OTHER
Property: Mole fraction of nonane (Liquid mixture 2); method: OTHER
Property: Mole fraction of toluene (Liquid mixture 2); method: OTHER
Mole fraction of toluene	Mole fraction of nonane	uncertainty	Mole fraction of nonane	uncertainty	Mole fraction of toluene	uncertainty
0.485	0.4122	0.02	0.053	0.02	0.365	
0.388	0.4642	0.02	0.0517	0.02	0.323	
0.416	0.4557	0.02	0.0502	0.02	0.339	

System: 1,3-dimethylbenzene + nonane + 1-butyl-3-methylimidazolium hexafluorophosphate; phases: Liquid mixture 1, Liquid mixture 2
Fixed: Temperature, K = 298.15
Fixed: Pressure, kPa = 101
Property: Mass density, kg/m3 (Liquid mixture 1); method: VIBTUB:UFactor:32
Mole fraction of nonane	Mass density, kg/m3	uncertainty
0.0307	826.895	50.523
0.0355	1229.864	50.675
0.0617	1329.884	7.224
0.0726	1307.879	6.81
0.0834	1293.859	6.567
0.2256	824.591	4.227
0.2881	802.684	4.176
0.3538	797.261	4.232
0.4886	808.269	4.114
0.7494	832.854	3.852
0.7956	839.853	3.777

System: 1,3-dimethylbenzene + nonane + 1-butyl-3-methylimidazolium hexafluorophosphate; phases: Liquid mixture 1, Liquid mixture 2
Fixed: Temperature, K = 298.15
Fixed: Pressure, kPa = 101
Property: Mole fraction of 1,3-dimethylbenzene (Liquid mixture 1); method: Titration method
Mole fraction of nonane	Mole fraction of 1,3-dimethylbenzene	uncertainty
0.0307	0.6311	0.0255
0.0355	0.7256	0.0245
0.0617	0.3552	0.0243
0.0726	0.1195	0.0205
0.0834	0.2569	0.0226
0.2256	0.7294	0.0215
0.2881	0.6601	0.0222
0.3538	0.5954	0.0231
0.4886	0.4583	0.0238
0.7494	0.1709	0.0206
0.7956	0.1256	0.0203

System: 1,3-dimethylbenzene + nonane + 1-butyl-3-methylimidazolium hexafluorophosphate; phases: Liquid mixture 1, Liquid mixture 2
Fixed: Temperature, K = 298.15
Fixed: Pressure, kPa = 101
Property: Mole fraction of 1,3-dimethylbenzene (Liquid mixture 1); method: OTHER
Property: Mole fraction of nonane (Liquid mixture 2); method: OTHER
Property: Mole fraction of 1,3-dimethylbenzene (Liquid mixture 2); method: OTHER
Mole fraction of nonane	Mole fraction of 1,3-dimethylbenzene	uncertainty	Mole fraction of nonane	uncertainty	Mole fraction of 1,3-dimethylbenzene	uncertainty
0.2556	0.684	0.02	0.0798	0.02	0.269	
0.6922	0.239	0.02	0.0782	0.02	0.133	
0.7435	0.183	0.02	0.0732	0.02	0.101	
0.4642	0.477	0.02	0.0896	0.02	0.238	
0.1381	0.821	0.02	0.0808	0.02	0.329	

System: benzene + undecane + 1-butyl-3-methylimidazolium hexafluorophosphate; phases: Liquid mixture 1, Liquid mixture 2
Fixed: Temperature, K = 298.15
Fixed: Pressure, kPa = 101
Property: Mass density, kg/m3 (Liquid mixture 1); method: VIBTUB:UFactor:32
Mole fraction of undecane	Mass density, kg/m3	uncertainty
0.0167	1195.051	23.347
0.0172	1177.015	23.368
0.0244	902.423	23.094
0.0577	1293.33	9.593
0.2385	809.404	4.104
0.2553	805.64	4.144
0.5427	766.137	4.569
0.9488	731.19	4.948

System: benzene + undecane + 1-butyl-3-methylimidazolium hexafluorophosphate; phases: Liquid mixture 1, Liquid mixture 2
Fixed: Temperature, K = 298.15
Fixed: Pressure, kPa = 101
Property: Mole fraction of benzene (Liquid mixture 1); method: Titration method
Mole fraction of undecane	Mole fraction of benzene	uncertainty
0.0167	0.5546	0.0309
0.0172	0.5947	0.0292
0.0244	0.8104	0.0274
0.0577	0.3342	0.0237
0.2385	0.7547	0.0212
0.2553	0.7413	0.0213
0.5427	0.4234	0.0233
0.9488	0	0.0001

System: benzene + undecane + 1-butyl-3-methylimidazolium hexafluorophosphate; phases: Liquid mixture 1, Liquid mixture 2
Fixed: Temperature, K = 298.15
Fixed: Pressure, kPa = 101
Property: Mole fraction of benzene (Liquid mixture 1); method: OTHER
Property: Mole fraction of undecane (Liquid mixture 2); method: OTHER
Property: Mole fraction of benzene (Liquid mixture 2); method: OTHER
Mole fraction of undecane	Mole fraction of benzene	uncertainty	Mole fraction of undecane	uncertainty	Mole fraction of benzene	uncertainty
0.0692	0.884	0.02	0.0274	0.02	0.778	
0.2764	0.699	0.02	0.0752	0.02	0.226	
0.1652	0.805	0.02	0.0539	0.02	0.433	
0.3104	0.665	0.02	0.0994	0.02	0.116	
0.291	0.692	0.02	0.0814	0.02	0.208	

System: toluene + undecane + 1-butyl-3-methylimidazolium hexafluorophosphate; phases: Liquid mixture 1, Liquid mixture 2
Fixed: Temperature, K = 298.15
Fixed: Pressure, kPa = 101
Property: Mass density, kg/m3 (Liquid mixture 1); method: VIBTUB:UFactor:32
Mole fraction of undecane	Mass density, kg/m3	uncertainty
0	862.668	3.353
0.0504	1275.602	7.076
0.0686	1289.604	6.09
0.0751	1234.654	7.296
0.2355	751.565	6.584
0.2494	860.959	3.434
0.2647	786.144	4.211
0.3175	808.395	3.962
0.6105	762.699	4.465

System: toluene + undecane + 1-butyl-3-methylimidazolium hexafluorophosphate; phases: Liquid mixture 1, Liquid mixture 2
Fixed: Temperature, K = 298.15
Fixed: Pressure, kPa = 101
Property: Mole fraction of toluene (Liquid mixture 1); method: Titration method
Mole fraction of undecane	Mole fraction of toluene	uncertainty
0	0.7761	0.021
0.0504	0.3723	0.0231
0.0686	0.2379	0.0213
0.0751	0.2564	0.0213
0.2355	0.7451	0.0217
0.2494	0.6396	0.0225
0.2647	0.7274	0.0214
0.3175	0.6718	0.0221
0.6105	0.3308	0.0221

System: toluene + undecane + 1-butyl-3-methylimidazolium hexafluorophosphate; phases: Liquid mixture 1, Liquid mixture 2
Fixed: Temperature, K = 298.15
Fixed: Pressure, kPa = 101
Property: Mole fraction of toluene (Liquid mixture 1); method: OTHER
Property: Mole fraction of undecane (Liquid mixture 2); method: OTHER
Property: Mole fraction of toluene (Liquid mixture 2); method: OTHER
Mole fraction of undecane	Mole fraction of toluene	uncertainty	Mole fraction of undecane	uncertainty	Mole fraction of toluene	uncertainty
0.2945	0.697	0.02	0.0594	0.02	0.325	
0.3614	0.624	0.02	0.0834	0.02	0.192	
0.2257	0.763	0.02	0.0324	0.02	0.556	
0.4355	0.551	0.02	0.0879	0.02	0.118	

System: 1,3-dimethylbenzene + undecane + 1-butyl-3-methylimidazolium hexafluorophosphate; phases: Liquid mixture 1, Liquid mixture 2
Fixed: Temperature, K = 298.15
Fixed: Pressure, kPa = 101
Property: Mass density, kg/m3 (Liquid mixture 1); method: VIBTUB:UFactor:32
Mole fraction of undecane	Mass density, kg/m3	uncertainty
0.0129	821.646	12.493
0.0334	1226.365	8.041
0.0587	1284.058	6.511
0.0623	1275.984	6.457
0.0737	1319.685	7.291
0.2316	809.989	4.097
0.2493	813.281	4.067
0.2615	822.477	3.988
0.6106	767.655	4.552
0.6528	769.048	4.537

System: 1,3-dimethylbenzene + undecane + 1-butyl-3-methylimidazolium hexafluorophosphate; phases: Liquid mixture 1, Liquid mixture 2
Fixed: Temperature, K = 298.15
Fixed: Pressure, kPa = 101
Property: Mole fraction of 1,3-dimethylbenzene (Liquid mixture 1); method: Titration method
Mole fraction of undecane	Mole fraction of 1,3-dimethylbenzene	uncertainty
0.0129	0.9627	0.0261
0.0334	0.3892	0.0246
0.0587	0.2486	0.0218
0.0623	0.2779	0.0222
0.0737	0.128	0.0218
0.2316	0.7361	0.0214
0.2493	0.7144	0.0216
0.2615	0.6931	0.0218
0.6106	0.3135	0.0219
0.6528	0.2609	0.0213

System: 1,3-dimethylbenzene + undecane + 1-butyl-3-methylimidazolium hexafluorophosphate; phases: Liquid mixture 1, Liquid mixture 2
Fixed: Temperature, K = 298.15
Fixed: Pressure, kPa = 101
Property: Mole fraction of 1,3-dimethylbenzene (Liquid mixture 1); method: OTHER
Property: Mole fraction of undecane (Liquid mixture 2); method: OTHER
Property: Mole fraction of 1,3-dimethylbenzene (Liquid mixture 2); method: OTHER
Mole fraction of undecane	Mole fraction of 1,3-dimethylbenzene	uncertainty	Mole fraction of undecane	uncertainty	Mole fraction of 1,3-dimethylbenzene	uncertainty
0.1456	0.826	0.02	0.0402	0.02	0.815	
0.1942	0.776	0.02	0.0421	0.02	0.386	
0.2326	0.744	0.02	0.0631	0.02	0.205	
0.1044	0.877	0.02	0.0339	0.02	0.831	
