Measured thermophysical data. Vapor liquid equilibrium data for the hexafluoroethane + carbon dioxide system at temperatures from 253 to 297K and pressures up to 6.5MPa
Source: Fluid Phase Equilib., 2007, 10.1016/j.fluid.2007.06.012
Compound 1: carbon dioxide, CO2, InChI=1S/CO2/c2-1-3
Compound 2: hexafluoroethane, C2F6, InChI=1S/C2F6/c3-1(4,5)2(6,7)8

System: hexafluoroethane; phases: Liquid, Gas
Property: Vapor or sublimation pressure, kPa (Liquid); method: Closed cell (Static) method
Temperature, K	Vapor or sublimation pressure, kPa	uncertainty
243.33	769	3
245.32	816	3
249.31	928	3
253.29	1048	3
257.31	1183	4
261.29	1328	4
265.28	1489	4
269.27	1659	4
273.27	1847	4
277.24	2050	4
281.23	2270	5
283.23	2387	5
285.23	2509	5
287.22	2636	5
289.22	2769	5
290.23	2839	5
290.72	2873	5
291.22	2909	5
291.72	2946	5
292.22	2982	5

System: hexafluoroethane + carbon dioxide; phases: Liquid, Gas
Property: Azeotropic pressure, kPa (Liquid); method: By P(X) extreme
Temperature, K	Azeotropic pressure, kPa	uncertainty
253.29	2164	13
263.15	2857	17
273.27	3728	23
283.24	4774	29
291.22	5767	35

System: hexafluoroethane + carbon dioxide; phases: Liquid, Gas
Property: Azeotropic composition: mole fraction of hexafluoroethane (Liquid); method: By T or P extreme
Temperature, K	Azeotropic composition: mole fraction of hexafluoroethane	uncertainty
253.29	0.2051	0.0035
263.15	0.1934	0.0033
273.27	0.1822	0.0032
283.24	0.179	0.0031
291.22	0.171	0.0031

System: hexafluoroethane + carbon dioxide; phases: Liquid, Gas
Property: Vapor or sublimation pressure, kPa (Liquid); method: Closed cell (Static) method
Mole fraction of hexafluoroethane	Temperature, K	Vapor or sublimation pressure, kPa	uncertainty
0.009	296.72	6261	20
0.0132	294.22	5923	19
0.0177	296.72	6295	20
0.0212	291.22	5550	18
0.0242	294.22	5965	19
0.0281	273.27	3576	12
0.0284	253.29	2043	7
0.0284	296.72	6334	20
0.0438	294.22	6023	19
0.0453	291.22	5621	18
0.0461	296.72	6387	20
0.0504	253.29	2081	7
0.0531	273.27	3632	12
0.0592	283.24	4677	15
0.0614	294.22	6070	20
0.0705	296.72	6448	21
0.0705	296.72	6448	21
0.0769	253.29	2113	7
0.0811	291.22	5696	18
0.0852	294.22	6114	20
0.0909	273.27	3683	12
0.0948	283.24	4730	15
0.1005	294.22	6138	20
0.1144	253.29	2143	7
0.1154	294.22	6155	20
0.1223	291.22	5746	19
0.1225	273.27	3711	13
0.1298	283.24	4761	15
0.1431	291.22	5759	18
0.1466	273.27	3721	12
0.1509	283.24	4770	15
0.154	253.29	2159	7
0.1593	283.24	4772	17
0.1863	283.24	4773	15
0.1872	253.29	2163	7
0.1993	273.27	3725	133
0.2003	283.24	4770	15
0.2047	273.27	3724	136
0.2171	283.24	4764	15
0.2294	283.24	4757	16
0.2452	283.24	4745	16
0.2526	253.29	2159	7
0.2548	273.27	3705	12
0.2569	283.24	4736	17
0.2742	253.29	2155	7
0.2833	273.27	3685	31
0.29	283.24	4699	20
0.2978	253.29	2147	8
0.3631	283.24	4581	25
0.3872	253.29	2100	11
0.4044	283.24	4494	35
0.4364	273.27	3487	26
0.486	283.24	4282	48
0.505	253.29	2000	19
0.5367	273.27	3287	47
0.61	283.24	3895	66
0.6585	253.29	1795	32
0.6905	273.27	2889	62
0.7283	283.24	3476	87
0.7684	253.29	1598	48
0.8177	273.27	2494	82
0.8469	283.24	3020	109
0.8636	253.29	1394	64
0.9308	291.22	3209	130
0.9327	273.27	2093	99
0.943	291.22	3156	129
0.9477	253.29	1186	76
0.9498	291.22	3128	135
0.9654	291.22	3057	140
0.9732	283.24	2498	111
0.9782	291.22	3000	95
1	253.29	1051	4
1	273.27	1843	6
1	283.24	2382	8
1	291.22	2906	9

System: hexafluoroethane + carbon dioxide; phases: Gas, Liquid
Property: Mole fraction of hexafluoroethane (Gas); method: Chromatography
Mole fraction of hexafluoroethane	Temperature, K	Mole fraction of hexafluoroethane	uncertainty
0.009	296.72	0.0096	0.0004
0.0132	294.22	0.0145	0.0007
0.0177	296.72	0.0186	0.0009
0.0212	291.22	0.0244	0.0011
0.0242	294.22	0.0282	0.0013
0.0281	273.27	0.0385	0.0017
0.0284	253.29	0.0505	0.0021
0.0284	296.72	0.0301	0.0014
0.0438	294.22	0.048	0.0021
0.0453	291.22	0.051	0.0023
0.0461	296.72	0.0488	0.0022
0.0504	253.29	0.0809	0.0033
0.0531	273.27	0.0685	0.0029
0.0592	283.24	0.0685	0.0029
0.0614	294.22	0.065	0.0029
0.0705	296.72	0.0717	0.0032
0.0705	296.72	0.0717	0.0032
0.0769	253.29	0.1104	0.0044
0.0811	291.22	0.0877	0.0038
0.0852	294.22	0.0881	0.0039
0.0909	273.27	0.1046	0.0044
0.0948	283.24	0.1034	0.0045
0.1005	294.22	0.102	0.0044
0.1144	253.29	0.1434	0.0056
0.1154	294.22	0.1152	0.005
0.1223	291.22	0.1254	0.0055
0.1225	273.27	0.1345	0.0056
0.1298	283.24	0.1351	0.0058
0.1431	291.22	0.1442	0.0065
0.1466	273.27	0.1521	0.0061
0.1509	283.24	0.1535	0.0066
0.154	253.29	0.172	0.0066
0.1593	283.24	0.1609	0.0069
0.1863	283.24	0.183	0.0079
0.1872	253.29	0.1928	0.0073
0.1993	273.27	0.1922	0.0065
0.2003	283.24	0.1954	0.0084
0.2047	273.27	0.1962	0.0066
0.2171	283.24	0.2089	0.0089
0.2294	283.24	0.2189	0.0094
0.2452	283.24	0.2317	0.0101
0.2526	253.29	0.2306	0.0089
0.2548	273.27	0.2335	0.0098
0.2569	283.24	0.2421	0.0107
0.2742	253.29	0.2424	0.0093
0.2833	273.27	0.2534	0.0114
0.29	283.24	0.2706	0.0121
0.2978	253.29	0.2551	0.0099
0.3631	283.24	0.3348	0.0151
0.3872	253.29	0.3028	0.0122
0.4044	283.24	0.3723	0.017
0.4364	273.27	0.364	0.0158
0.486	283.24	0.446	0.0203
0.505	253.29	0.3719	0.0163
0.5367	273.27	0.4425	0.0203
0.61	283.24	0.5569	0.0254
0.6585	253.29	0.4821	0.0235
0.6905	273.27	0.5772	0.0285
0.7283	283.24	0.6657	0.0314
0.7684	253.29	0.5891	0.0337
0.8177	273.27	0.715	0.0395
0.8469	283.24	0.7899	0.0411
0.8636	253.29	0.7137	0.0486
0.9308	291.22	0.9252	0.0405
0.9327	273.27	0.8771	0.0533
0.943	291.22	0.9365	0.0413
0.9477	253.29	0.8681	0.0688
0.9498	291.22	0.9431	0.0439
0.9654	291.22	0.9599	0.0401
0.9732	283.24	0.9575	0.0425
0.9782	291.22	0.9747	0.0253
1	253.29	1	1
1	273.27	1	1
1	283.24	1	1
1	291.22	1	1
