Measured thermophysical data. Equilibrium data and GC-PC SAFT predictions for furanic extraction
Source: Fluid Phase Equilib., 2016, 10.1016/j.fluid.2016.09.019
Compound 1: hexane, C6H14, InChI=1S/C6H14/c1-3-5-6-4-2/h3-6H2,1-2H3, purity 99%
Compound 2: furan, C4H4O, InChI=1S/C4H4O/c1-2-4-5-3-1/h1-4H, purity 99%
Compound 3: 2-furaldehyde, C5H4O2, InChI=1S/C5H4O2/c6-4-5-2-1-3-7-5/h1-4H, purity 99%
Compound 4: ethanol, C2H6O, InChI=1S/C2H6O/c1-2-3/h3H,2H2,1H3, purity 99.8%
Compound 5: octan-1-ol, C8H18O, InChI=1S/C8H18O/c1-2-3-4-5-6-7-8-9/h9H,2-8H2,1H3, purity 99%

System: 2-furaldehyde + furan; phases: Liquid, Gas
Fixed: Pressure, kPa = 101
Property: Boiling temperature at pressure P, K (Liquid); method: Ebulliometric method (Recirculating still)
Mole fraction of furan	Boiling temperature at pressure P, K	uncertainty
0.961	304.75	0.57
0.932	305.92	0.37
0.874	307.06	0.34
0.83	308.29	0.4
0.782	309.63	0.41
0.685	312.43	1.36
0.667	314.18	1.36
0.573	316.96	0.4
0.542	317.56	0.57
0.536	319.24	0.57
0.504	319.69	0.69
0.405	325.31	1.39
0.388	326.99	1.39
0.276	334.83	1.45
0.263	336.82	1.44
0.177	348.97	2.96
0.085	374.36	9.23
0.063	388.87	6.43
0.037	396.64	9.82
0.03	402.88	11.27
0.024	413.2	8.7
0.017	422.07	17.8
0.011	433.19	17.55
0.011	434.13	18.09

System: furan + octan-1-ol; phases: Liquid, Gas
Fixed: Pressure, kPa = 101
Property: Boiling temperature at pressure P, K (Liquid); method: Ebulliometric method (Recirculating still)
Mole fraction of furan	Boiling temperature at pressure P, K	uncertainty
0.908	304.85	0.82
0.921	305.66	0.23
0.885	306.19	0.82
0.765	308.86	0.31
0.727	308.98	0.29
0.761	309.03	0.15
0.734	309.25	0.45
0.705	310.24	0.81
0.713	310.59	0.9
0.611	313.56	0.6
0.575	316.03	0.41
0.492	317.27	0.37
0.461	319.29	1.23
0.391	323.46	0.85
0.41	324.34	0.95
0.346	327.72	1.01
0.277	331.75	1.62
0.216	342.9	2.69
0.19	348.61	3.49
0.155	358.04	4.34
0.102	375.69	6.23
0.048	405.6	8.89
0.045	407.7	8.85
0.034	414.8	10.26
0.029	423.72	17.78
0.02	431.41	17.29
0.002	461.62	3.36
0.016	443.87	22.61

System: furan + octan-1-ol; phases: Gas, Liquid
Fixed: Pressure, kPa = 101
Property: Mole fraction of furan (Gas); method: Chromatography
Mole fraction of furan	Mole fraction of furan	uncertainty
0.908	0.999	0.001
0.921	0.997	0.003
0.885	0.996	0.004
0.765	0.999	0.001
0.727	0.996	0.004
0.761	0.996	0.004
0.734	0.995	0.005
0.705	0.996	0.004
0.713	0.997	0.003
0.611	0.997	0.003
0.575	0.997	0.003
0.492	0.997	0.003
0.461	0.997	0.003
0.391	0.999	0.001
0.41	0.997	0.003
0.346	0.999	0.001
0.277	0.997	0.003
0.216	0.997	0.003
0.19	0.996	0.004
0.155	0.995	0.005
0.102	0.991	0.009
0.048	0.943	0.03
0.045	0.932	0.029
0.034	0.891	0.051
0.029	0.835	0.165
0.02	0.778	0.222
0.002	0.121	0.074
0.016	0.624	0.208

System: ethanol + furan; phases: Liquid, Gas
Fixed: Pressure, kPa = 101
Property: Boiling temperature at pressure P, K (Liquid); method: Ebulliometric method (Recirculating still)
Mole fraction of furan	Boiling temperature at pressure P, K	uncertainty
0.82	305.02	0.13
0.662	306.05	0.16
0.525	307.8	0.21
0.424	309.3	0.29
0.352	311.33	0.79
0.344	311.57	0.43
0.336	312.23	0.54
0.321	312.5	0.67
0.266	315.43	1.31
0.067	334.24	4.53
0.071	335.07	3.43
0.044	341.68	3.6
0.022	345.77	3.26
0.006	350.64	1.83

System: ethanol + furan; phases: Gas, Liquid
Fixed: Pressure, kPa = 101
Property: Mole fraction of furan (Gas); method: Chromatography
Mole fraction of furan	Mole fraction of furan	uncertainty
0.82	0.945	0.014
0.662	0.935	0.014
0.525	0.916	0.014
0.424	0.896	0.014
0.352	0.881	0.015
0.344	0.887	0.014
0.336	0.877	0.015
0.321	0.867	0.015
0.266	0.848	0.024
0.067	0.547	0.091
0.071	0.539	0.074
0.044	0.4	0.089
0.022	0.266	0.128
0.006	0.048	0.048

System: 2-furaldehyde + hexane; phases: Liquid mixture 1, Liquid mixture 2
Fixed: Pressure, kPa = 101
Property: Mole fraction of 2-furaldehyde (Liquid mixture 1); method: Chromatography
Temperature, K	Mole fraction of 2-furaldehyde	uncertainty
295.1	0.043	0.016
298.5	0.054	0.016
303.16	0.064	0.016
313.44	0.085	0.016
318.2	0.093	0.016
328.2	0.117	0.016
338.2	0.15	0.016

System: 2-furaldehyde + hexane; phases: Liquid mixture 2, Liquid mixture 1
Fixed: Pressure, kPa = 101
Property: Mole fraction of 2-furaldehyde (Liquid mixture 2); method: Chromatography
Temperature, K	Mole fraction of 2-furaldehyde	uncertainty
295.1	0.931	0.016
298.5	0.93	0.016
303.16	0.92	0.016
313.44	0.905	0.016
318.2	0.9	0.016
328.2	0.872	0.016
338.2	0.841	0.016

System: 2-furaldehyde + furan + hexane; phases: Liquid mixture 2, Liquid mixture 1
Fixed: Pressure, kPa = 101
Property: Mole fraction of furan (Liquid mixture 2); method: Chromatography
Property: Mole fraction of furan (Liquid mixture 1); method: Chromatography
Property: Mole fraction of hexane (Liquid mixture 1); method: Chromatography
Temperature, K	Mole fraction of hexane	Mole fraction of furan	uncertainty	Mole fraction of furan	uncertainty	Mole fraction of hexane	uncertainty
322.99	0.097	0					
322.97	0.097	0					
298.2	0.0696	0					
298.2	0.1027	0.151	0.002	0.118	0.001	0.804	
298.21	0.1266	0.216	0.002	0.1789	0.0018	0.7199	
298.2	0.162	0.276	0.003	0.238	0.002	0.63	
298.19	0.151	0.263	0.003	0.223	0.002	0.6544	
298.21	0.141	0.245	0.003	0.205	0.002	0.681	
298.21	0.156	0.269	0.003	0.2251	0.0023	0.6551	
298.21	0.192	0.309	0.003	0.274	0.003	0.564	
298.2	0.0809	0.065	0.001	0.0489	0.0005	0.892	
298.13	0.1379	0.241	0.002	0.2001	0.002	0.69	
298.12	0.131	0.234	0.012	0.192	0.003	0.704	
298.13	0.1324	0.2298	0.0023	0.1878	0.0024	0.708	
298.16	0.153	0.264	0.003	0.223	0.002	0.661	
298.16	0.183	0.298	0.003	0.2614	0.0032	0.601	
298.17	0.207	0.317	0.003	0.2879	0.0029	0.5341	
298.16	0.234	0.329	0.021	0.2995	0.0113	0.4927	
298.16	0.28	0.338	0.038	0.329	0.003	0.419	
322.96	0.114	0.0601	0.0006	0.0513	0.0005	0.854	
322.91	0.15	0.13	0.01	0.115	0.001	0.745	
323	0.153	0.127	0.001	0.1203	0.0012	0.741	
322.93	0.193	0.176	0.002	0.16	0.01	0.651	
322.99	0.254	0.206	0.002	0.1976	0.002	0.56	
322.95	0.303	0.224	0.002	0.2161	0.0022	0.418	
