Measured thermophysical data. Ammonium ionic liquids in extraction of bio-butan-1-ol from water phase using activity coefficients at infinite dilution
Source: Fluid Phase Equilib., 2019, 10.1016/j.fluid.2018.09.024
Compound 1: dimethyldodecylphenoxyethylammonium bis(trifluoromethylsulfonyl)imide, C24H40F6N2O5S2, InChI=1S/C22H40NO.C2F6NO4S2/c1-4-5-6-7-8-9-10-11-12-16-19-23(2,3)20-21-24-22-17-14-13-15-18-22;3-1(4,5)14(10,11)9-15(12,13)2(6,7)8/h13-15,17-18H,4-12,16,19-21H2,1-3H3;/q+1;-1
Compound 2: dimethyldodecylphenoxyethylammonium dicyanamide, C24H40N4O, InChI=1S/C22H40NO.C2N3/c1-4-5-6-7-8-9-10-11-12-16-19-23(2,3)20-21-24-22-17-14-13-15-18-22;3-1-5-2-4/h13-15,17-18H,4-12,16,19-21H2,1-3H3;/q+1;-1
Compound 3: 2-methyl-1-propanol, C4H10O, InChI=1S/C4H10O/c1-4(2)3-5/h4-5H,3H2,1-2H3, purity 99.8%
Compound 4: 2-methylpropan-2-ol, C4H10O, InChI=1S/C4H10O/c1-4(2,3)5/h5H,1-3H3, purity 99.7%
Compound 5: 1,4-dioxane, C4H8O2, InChI=1S/C4H8O2/c1-2-6-4-3-5-1/h1-4H2, purity 99.8%
Compound 6: dipropyl ether, C6H14O, InChI=1S/C6H14O/c1-3-5-7-6-4-2/h3-6H2,1-2H3, purity 99%
Compound 7: diisopropyl ether, C6H14O, InChI=1S/C6H14O/c1-5(2)7-6(3)4/h5-6H,1-4H3, purity 99%
Compound 8: hexane, C6H14, InChI=1S/C6H14/c1-3-5-6-4-2/h3-6H2,1-2H3, purity 99%
Compound 9: 3-methylpentane, C6H14, InChI=1S/C6H14/c1-4-6(3)5-2/h6H,4-5H2,1-3H3, purity 99%
Compound 10: heptane, C7H16, InChI=1S/C7H16/c1-3-5-7-6-4-2/h3-7H2,1-2H3, purity 99.5%
Compound 11: octane, C8H18, InChI=1S/C8H18/c1-3-5-7-8-6-4-2/h3-8H2,1-2H3, purity 99%
Compound 12: 2,2,4-trimethylpentane, C8H18, InChI=1S/C8H18/c1-7(2)6-8(3,4)5/h7H,6H2,1-5H3, purity 99%
Compound 13: nonane, C9H20, InChI=1S/C9H20/c1-3-5-7-9-8-6-4-2/h3-9H2,1-2H3, purity 99%
Compound 14: decane, C10H22, InChI=1S/C10H22/c1-3-5-7-9-10-8-6-4-2/h3-10H2,1-2H3, purity 99%
Compound 15: cyclohexane, C6H12, InChI=1S/C6H12/c1-2-4-6-5-3-1/h1-6H2, purity 99%
Compound 16: methylcyclohexane, C7H14, InChI=1S/C7H14/c1-7-5-3-2-4-6-7/h7H,2-6H2,1H3, purity 99%
Compound 17: cycloheptane, C7H14, InChI=1S/C7H14/c1-2-4-6-7-5-3-1/h1-7H2, purity 98%
Compound 18: cyclooctane, C8H16, InChI=1S/C8H16/c1-2-4-6-8-7-5-3-1/h1-8H2, purity 99%
Compound 19: 1-pentene, C5H10, InChI=1S/C5H10/c1-3-5-4-2/h3H,1,4-5H2,2H3, purity 98.5%
Compound 20: hex-1-ene, C6H12, InChI=1S/C6H12/c1-3-5-6-4-2/h3H,1,4-6H2,2H3, purity 99%
Compound 21: cyclohexene, C6H10, InChI=1S/C6H10/c1-2-4-6-5-3-1/h1-2H,3-6H2, purity 99%
Compound 22: 1-heptene, C7H14, InChI=1S/C7H14/c1-3-5-7-6-4-2/h3H,1,4-7H2,2H3, purity 99%
Compound 23: oct-1-ene, C8H16, InChI=1S/C8H16/c1-3-5-7-8-6-4-2/h3H,1,4-8H2,2H3, purity 98%
Compound 24: 1-decene, C10H20, InChI=1S/C10H20/c1-3-5-7-9-10-8-6-4-2/h3H,1,4-10H2,2H3, purity 97%
Compound 25: 1-pentyne, C5H8, InChI=1S/C5H8/c1-3-5-4-2/h1H,4-5H2,2H3, purity 99%
Compound 26: 1-hexyne, C6H10, InChI=1S/C6H10/c1-3-5-6-4-2/h1H,4-6H2,2H3, purity 97%
Compound 27: 1-heptyne, C7H12, InChI=1S/C7H12/c1-3-5-7-6-4-2/h1H,4-7H2,2H3, purity 98%
Compound 28: 1-octyne, C8H14, InChI=1S/C8H14/c1-3-5-7-8-6-4-2/h1H,4-8H2,2H3, purity 97%
Compound 29: benzene, C6H6, InChI=1S/C6H6/c1-2-4-6-5-3-1/h1-6H, purity 99.8%
Compound 30: toluene, C7H8, InChI=1S/C7H8/c1-7-5-3-2-4-6-7/h2-6H,1H3, purity 99.8%
Compound 31: ethylbenzene, C8H10, InChI=1S/C8H10/c1-2-8-6-4-3-5-7-8/h3-7H,2H2,1H3, purity 99.8%
Compound 32: 1,2-dimethylbenzene, C8H10, InChI=1S/C8H10/c1-7-5-3-4-6-8(7)2/h3-6H,1-2H3, purity 99%
Compound 33: 1,3-dimethylbenzene, C8H10, InChI=1S/C8H10/c1-7-4-3-5-8(2)6-7/h3-6H,1-2H3, purity 99%
Compound 34: 1,4-dimethylbenzene, C8H10, InChI=1S/C8H10/c1-7-3-5-8(2)6-4-7/h3-6H,1-2H3, purity 99%
Compound 35: propylbenzene, C9H12, InChI=1S/C9H12/c1-2-6-9-7-4-3-5-8-9/h3-5,7-8H,2,6H2,1H3, purity 98%
Compound 36: isopropylbenzene, C9H12, InChI=1S/C9H12/c1-8(2)9-6-4-3-5-7-9/h3-8H,1-2H3, purity 99%
Compound 37: styrene, C8H8, InChI=1S/C8H8/c1-2-8-6-4-3-5-7-8/h2-7H,1H2, purity 99.9%
Compound 38: (1-methylethenyl)benzene, C9H10, InChI=1S/C9H10/c1-8(2)9-6-4-3-5-7-9/h3-7H,1H2,2H3, purity 99%
Compound 39: thiophene, C4H4S, InChI=1S/C4H4S/c1-2-4-5-3-1/h1-4H, purity 99%
Compound 40: pyridine, C5H5N, InChI=1S/C5H5N/c1-2-4-6-5-3-1/h1-5H, purity 99.8%
Compound 41: methanol, CH4O, InChI=1S/CH4O/c1-2/h2H,1H3, purity 99.9%
Compound 42: ethanol, C2H6O, InChI=1S/C2H6O/c1-2-3/h3H,2H2,1H3, purity 99.8%
Compound 43: propan-1-ol, C3H8O, InChI=1S/C3H8O/c1-2-3-4/h4H,2-3H2,1H3, purity 99.9%
Compound 44: propan-2-ol, C3H8O, InChI=1S/C3H8O/c1-3(2)4/h3-4H,1-2H3, purity 99.9%
Compound 45: butan-1-ol, C4H10O, InChI=1S/C4H10O/c1-2-3-4-5/h5H,2-4H2,1H3, purity 99.8%
Compound 46: butan-2-ol, C4H10O, InChI=1S/C4H10O/c1-3-4(2)5/h4-5H,3H2,1-2H3, purity 99.5%
Compound 47: pentan-1-ol, C5H12O, InChI=1S/C5H12O/c1-2-3-4-5-6/h6H,2-5H2,1H3, purity 99.8%
Compound 48: water, H2O, InChI=1S/H2O/h1H2
Compound 49: methyl ethanoate, C3H6O2, InChI=1S/C3H6O2/c1-3(4)5-2/h1-2H3, purity 99.8%
Compound 50: methyl propanoate, C4H8O2, InChI=1S/C4H8O2/c1-3-4(5)6-2/h3H2,1-2H3, purity 99%
Compound 51: methyl butanoate, C5H10O2, InChI=1S/C5H10O2/c1-3-4-5(6)7-2/h3-4H2,1-2H3, purity 99%
Compound 52: ethyl acetate, C4H8O2, InChI=1S/C4H8O2/c1-3-6-4(2)5/h3H2,1-2H3, purity 99.8%
Compound 53: vinyl acetate, C4H6O2, InChI=1S/C4H6O2/c1-3-6-4(2)5/h3H,1H2,2H3, purity 99%
Compound 54: tetrahydrofuran, C4H8O, InChI=1S/C4H8O/c1-2-4-5-3-1/h1-4H2, purity 99.9%
Compound 55: 2-methoxy-2-methylpropane, C5H12O, InChI=1S/C5H12O/c1-5(2,3)6-4/h1-4H3, purity 99.8%
Compound 56: 2-ethoxy-2-methylpropane, C6H14O, InChI=1S/C6H14O/c1-5-7-6(2,3)4/h5H2,1-4H3, purity 99%
Compound 57: 2-methoxy-2-methylbutane, C6H14O, InChI=1S/C6H14O/c1-5-6(2,3)7-4/h5H2,1-4H3, purity 97%
Compound 58: diethyl ether, C4H10O, InChI=1S/C4H10O/c1-3-5-4-2/h3-4H2,1-2H3, purity 99.9%
Compound 59: dibutyl ether, C8H18O, InChI=1S/C8H18O/c1-3-5-7-9-8-6-4-2/h3-8H2,1-2H3, purity 99.3%
Compound 60: acetone, C3H6O, InChI=1S/C3H6O/c1-3(2)4/h1-2H3, purity 99.9%
Compound 61: pentan-2-one, C5H10O, InChI=1S/C5H10O/c1-3-4-5(2)6/h3-4H2,1-2H3, purity 99%
Compound 62: pentan-3-one, C5H10O, InChI=1S/C5H10O/c1-3-5(6)4-2/h3-4H2,1-2H3, purity 99%
Compound 63: butanal, C4H8O, InChI=1S/C4H8O/c1-2-3-4-5/h4H,2-3H2,1H3, purity 99%
Compound 64: acetonitrile, C2H3N, InChI=1S/C2H3N/c1-2-3/h1H3, purity 99.9%
Compound 65: 1-nitropropane, C3H7NO2, InChI=1S/C3H7NO2/c1-2-3-4(5)6/h2-3H2,1H3, purity 98.5%
Compound 66: 2,2-dimethylbutane, C6H14, InChI=1S/C6H14/c1-5-6(2,3)4/h5H2,1-4H3

System: dimethyldodecylphenoxyethylammonium bis(trifluoromethylsulfonyl)imide + hexane; phases: Liquid
Fixed: Mole fraction of hexane = 0
Fixed: Pressure, kPa = 101.325
Property: Activity coefficient of hexane (Liquid); method: Chromatography
Temperature, K	Activity coefficient of hexane	uncertainty
318.15	2.91	0.2
328.15	2.99	0.2
338.15	3.06	0.21
348.15	3.15	0.21
358.15	3.21	0.22
368.15	3.28	0.22

System: dimethyldodecylphenoxyethylammonium bis(trifluoromethylsulfonyl)imide + 3-methylpentane; phases: Liquid
Fixed: Mole fraction of 3-methylpentane = 0
Fixed: Pressure, kPa = 101.325
Property: Activity coefficient of 3-methylpentane (Liquid); method: Chromatography
Temperature, K	Activity coefficient of 3-methylpentane	uncertainty
318.15	2.74	0.19
328.15	2.81	0.19
338.15	2.88	0.2
348.15	2.95	0.2
358.15	3.01	0.2
368.15	3.07	0.21

System: dimethyldodecylphenoxyethylammonium bis(trifluoromethylsulfonyl)imide + 2,2-dimethylbutane; phases: Liquid
Fixed: Mole fraction of 2,2-dimethylbutane = 0
Fixed: Pressure, kPa = 101.325
Property: Activity coefficient of 2,2-dimethylbutane (Liquid); method: Chromatography
Temperature, K	Activity coefficient of 2,2-dimethylbutane	uncertainty
318.15	2.82	0.19
328.15	2.91	0.2
338.15	2.99	0.2
348.15	3.07	0.21
358.15	3.15	0.21
368.15	3.24	0.22

System: dimethyldodecylphenoxyethylammonium bis(trifluoromethylsulfonyl)imide + heptane; phases: Liquid
Fixed: Mole fraction of heptane = 0
Fixed: Pressure, kPa = 101.325
Property: Activity coefficient of heptane (Liquid); method: Chromatography
Temperature, K	Activity coefficient of heptane	uncertainty
318.15	3.44	0.23
328.15	3.52	0.24
338.15	3.6	0.25
348.15	3.68	0.25
358.15	3.75	0.26
368.15	3.83	0.26

System: dimethyldodecylphenoxyethylammonium bis(trifluoromethylsulfonyl)imide + octane; phases: Liquid
Fixed: Mole fraction of octane = 0
Fixed: Pressure, kPa = 101.325
Property: Activity coefficient of octane (Liquid); method: Chromatography
Temperature, K	Activity coefficient of octane	uncertainty
318.15	4.05	0.28
328.15	4.14	0.28
338.15	4.23	0.29
348.15	4.32	0.29
358.15	4.41	0.3
368.15	4.5	0.31

System: dimethyldodecylphenoxyethylammonium bis(trifluoromethylsulfonyl)imide + 2,2,4-trimethylpentane; phases: Liquid
Fixed: Mole fraction of 2,2,4-trimethylpentane = 0
Fixed: Pressure, kPa = 101.325
Property: Activity coefficient of 2,2,4-trimethylpentane (Liquid); method: Chromatography
Temperature, K	Activity coefficient of 2,2,4-trimethylpentane	uncertainty
318.15	3.66	0.25
328.15	3.72	0.25
338.15	3.77	0.26
348.15	3.82	0.26
358.15	3.86	0.26
368.15	3.9	0.27

System: dimethyldodecylphenoxyethylammonium bis(trifluoromethylsulfonyl)imide + nonane; phases: Liquid
Fixed: Mole fraction of nonane = 0
Fixed: Pressure, kPa = 101.325
Property: Activity coefficient of nonane (Liquid); method: Chromatography
Temperature, K	Activity coefficient of nonane	uncertainty
318.15	4.77	0.33
328.15	4.87	0.33
338.15	4.96	0.34
348.15	5.03	0.34
358.15	5.12	0.35
368.15	5.18	0.35

System: dimethyldodecylphenoxyethylammonium bis(trifluoromethylsulfonyl)imide + decane; phases: Liquid
Fixed: Mole fraction of decane = 0
Fixed: Pressure, kPa = 101.325
Property: Activity coefficient of decane (Liquid); method: Chromatography
Temperature, K	Activity coefficient of decane	uncertainty
318.15	5.72	0.39
328.15	5.8	0.4
338.15	5.87	0.4
348.15	5.92	0.4
358.15	5.98	0.41
368.15	6.03	0.41

System: dimethyldodecylphenoxyethylammonium bis(trifluoromethylsulfonyl)imide + cyclohexane; phases: Liquid
Fixed: Mole fraction of cyclohexane = 0
Fixed: Pressure, kPa = 101.325
Property: Activity coefficient of cyclohexane (Liquid); method: Chromatography
Temperature, K	Activity coefficient of cyclohexane	uncertainty
318.15	2.02	0.14
328.15	2.05	0.14
338.15	2.08	0.14
348.15	2.11	0.14
358.15	2.13	0.14
368.15	2.16	0.15

System: dimethyldodecylphenoxyethylammonium bis(trifluoromethylsulfonyl)imide + methylcyclohexane; phases: Liquid
Fixed: Mole fraction of methylcyclohexane = 0
Fixed: Pressure, kPa = 101.325
Property: Activity coefficient of methylcyclohexane (Liquid); method: Chromatography
Temperature, K	Activity coefficient of methylcyclohexane	uncertainty
318.15	2.35	0.16
328.15	2.39	0.16
338.15	2.43	0.17
348.15	2.47	0.17
358.15	2.51	0.17
368.15	2.55	0.17

System: dimethyldodecylphenoxyethylammonium bis(trifluoromethylsulfonyl)imide + cycloheptane; phases: Liquid
Fixed: Mole fraction of cycloheptane = 0
Fixed: Pressure, kPa = 101.325
Property: Activity coefficient of cycloheptane (Liquid); method: Chromatography
Temperature, K	Activity coefficient of cycloheptane	uncertainty
318.15	2.26	0.15
328.15	2.3	0.16
338.15	2.34	0.16
348.15	2.37	0.16
358.15	2.4	0.16
368.15	2.43	0.17

System: dimethyldodecylphenoxyethylammonium bis(trifluoromethylsulfonyl)imide + cyclooctane; phases: Liquid
Fixed: Mole fraction of cyclooctane = 0
Fixed: Pressure, kPa = 101.325
Property: Activity coefficient of cyclooctane (Liquid); method: Chromatography
Temperature, K	Activity coefficient of cyclooctane	uncertainty
318.15	2.57	0.17
328.15	2.61	0.18
338.15	2.65	0.18
348.15	2.68	0.18
358.15	2.71	0.18
368.15	2.75	0.19

System: dimethyldodecylphenoxyethylammonium bis(trifluoromethylsulfonyl)imide + 1-pentene; phases: Liquid
Fixed: Mole fraction of 1-pentene = 0
Fixed: Pressure, kPa = 101.325
Property: Activity coefficient of 1-pentene (Liquid); method: Chromatography
Temperature, K	Activity coefficient of 1-pentene	uncertainty
318.15	1.83	0.12
328.15	1.88	0.13
338.15	1.93	0.13
348.15	1.98	0.13
358.15	2.03	0.14
368.15	2.08	0.14

System: dimethyldodecylphenoxyethylammonium bis(trifluoromethylsulfonyl)imide + hex-1-ene; phases: Liquid
Fixed: Mole fraction of hex-1-ene = 0
Fixed: Pressure, kPa = 101.325
Property: Activity coefficient of hex-1-ene (Liquid); method: Chromatography
Temperature, K	Activity coefficient of hex-1-ene	uncertainty
318.15	2.19	0.15
328.15	2.24	0.15
338.15	2.28	0.16
348.15	2.32	0.16
358.15	2.36	0.16
368.15	2.41	0.16

System: dimethyldodecylphenoxyethylammonium bis(trifluoromethylsulfonyl)imide + cyclohexene; phases: Liquid
Fixed: Mole fraction of cyclohexene = 0
Fixed: Pressure, kPa = 101.325
Property: Activity coefficient of cyclohexene (Liquid); method: Chromatography
Temperature, K	Activity coefficient of cyclohexene	uncertainty
318.15	1.47	0.1
328.15	1.52	0.1
338.15	1.56	0.1
348.15	1.61	0.11
358.15	1.65	0.11
368.15	1.69	0.11

System: dimethyldodecylphenoxyethylammonium bis(trifluoromethylsulfonyl)imide + 1-heptene; phases: Liquid
Fixed: Mole fraction of 1-heptene = 0
Fixed: Pressure, kPa = 101.325
Property: Activity coefficient of 1-heptene (Liquid); method: Chromatography
Temperature, K	Activity coefficient of 1-heptene	uncertainty
318.15	2.5	0.17
328.15	2.59	0.18
338.15	2.67	0.18
348.15	2.76	0.19
358.15	2.84	0.19
368.15	2.92	0.2

System: dimethyldodecylphenoxyethylammonium bis(trifluoromethylsulfonyl)imide + oct-1-ene; phases: Liquid
Fixed: Mole fraction of oct-1-ene = 0
Fixed: Pressure, kPa = 101.325
Property: Activity coefficient of oct-1-ene (Liquid); method: Chromatography
Temperature, K	Activity coefficient of oct-1-ene	uncertainty
318.15	2.97	0.2
328.15	3.06	0.21
338.15	3.14	0.21
348.15	3.23	0.22
358.15	3.32	0.23
368.15	3.39	0.23

System: dimethyldodecylphenoxyethylammonium bis(trifluoromethylsulfonyl)imide + 1-decene; phases: Liquid
Fixed: Mole fraction of 1-decene = 0
Fixed: Pressure, kPa = 101.325
Property: Activity coefficient of 1-decene (Liquid); method: Chromatography
Temperature, K	Activity coefficient of 1-decene	uncertainty
318.15	4.02	0.27
328.15	4.15	0.28
338.15	4.27	0.29
348.15	4.4	0.3
358.15	4.52	0.31
368.15	4.63	0.32

System: dimethyldodecylphenoxyethylammonium bis(trifluoromethylsulfonyl)imide + 1-pentyne; phases: Liquid
Fixed: Mole fraction of 1-pentyne = 0
Fixed: Pressure, kPa = 101.325
Property: Activity coefficient of 1-pentyne (Liquid); method: Chromatography
Temperature, K	Activity coefficient of 1-pentyne	uncertainty
318.15	1.07	0.07
328.15	1.13	0.07
338.15	1.19	0.08
348.15	1.25	0.08
358.15	1.32	0.09
368.15	1.39	0.09

System: dimethyldodecylphenoxyethylammonium bis(trifluoromethylsulfonyl)imide + 1-hexyne; phases: Liquid
Fixed: Mole fraction of 1-hexyne = 0
Fixed: Pressure, kPa = 101.325
Property: Activity coefficient of 1-hexyne (Liquid); method: Chromatography
Temperature, K	Activity coefficient of 1-hexyne	uncertainty
318.15	1.26	0.08
328.15	1.33	0.09
338.15	1.39	0.09
348.15	1.45	0.1
358.15	1.51	0.1
368.15	1.57	0.1

System: dimethyldodecylphenoxyethylammonium bis(trifluoromethylsulfonyl)imide + 1-heptyne; phases: Liquid
Fixed: Mole fraction of 1-heptyne = 0
Fixed: Pressure, kPa = 101.325
Property: Activity coefficient of 1-heptyne (Liquid); method: Chromatography
Temperature, K	Activity coefficient of 1-heptyne	uncertainty
318.15	1.45	0.1
328.15	1.53	0.1
338.15	1.61	0.11
348.15	1.68	0.11
358.15	1.75	0.12
368.15	1.83	0.12

System: dimethyldodecylphenoxyethylammonium bis(trifluoromethylsulfonyl)imide + 1-octyne; phases: Liquid
Fixed: Mole fraction of 1-octyne = 0
Fixed: Pressure, kPa = 101.325
Property: Activity coefficient of 1-octyne (Liquid); method: Chromatography
Temperature, K	Activity coefficient of 1-octyne	uncertainty
318.15	1.69	0.11
328.15	1.78	0.12
338.15	1.86	0.13
348.15	1.95	0.13
358.15	2.03	0.14
368.15	2.12	0.14

System: dimethyldodecylphenoxyethylammonium bis(trifluoromethylsulfonyl)imide + benzene; phases: Liquid
Fixed: Mole fraction of benzene = 0
Fixed: Pressure, kPa = 101.325
Property: Activity coefficient of benzene (Liquid); method: Chromatography
Temperature, K	Activity coefficient of benzene	uncertainty
318.15	0.569	0.041
328.15	0.6	0.042
338.15	0.629	0.043
348.15	0.658	0.045
358.15	0.687	0.046
368.15	0.716	0.048

System: dimethyldodecylphenoxyethylammonium bis(trifluoromethylsulfonyl)imide + toluene; phases: Liquid
Fixed: Mole fraction of toluene = 0
Fixed: Pressure, kPa = 101.325
Property: Activity coefficient of toluene (Liquid); method: Chromatography
Temperature, K	Activity coefficient of toluene	uncertainty
318.15	0.681	0.046
328.15	0.725	0.048
338.15	0.766	0.05
348.15	0.81	0.0524
358.15	0.851	0.055
368.15	0.893	0.057

System: dimethyldodecylphenoxyethylammonium bis(trifluoromethylsulfonyl)imide + ethylbenzene; phases: Liquid
Fixed: Mole fraction of ethylbenzene = 0
Fixed: Pressure, kPa = 101.325
Property: Activity coefficient of ethylbenzene (Liquid); method: Chromatography
Temperature, K	Activity coefficient of ethylbenzene	uncertainty
318.15	0.9	0.057
328.15	0.948	0.06
338.15	0.995	0.062
348.15	1.04	0.07
358.15	1.09	0.07
368.15	1.13	0.07

System: dimethyldodecylphenoxyethylammonium bis(trifluoromethylsulfonyl)imide + 1,2-dimethylbenzene; phases: Liquid
Fixed: Mole fraction of 1,2-dimethylbenzene = 0
Fixed: Pressure, kPa = 101.325
Property: Activity coefficient of 1,2-dimethylbenzene (Liquid); method: Chromatography
Temperature, K	Activity coefficient of 1,2-dimethylbenzene	uncertainty
318.15	0.783	0.051
328.15	0.83	0.053
338.15	0.874	0.056
348.15	0.922	0.058
358.15	0.968	0.061
368.15	1.01	0.06

System: dimethyldodecylphenoxyethylammonium bis(trifluoromethylsulfonyl)imide + 1,3-dimethylbenzene; phases: Liquid
Fixed: Mole fraction of 1,3-dimethylbenzene = 0
Fixed: Pressure, kPa = 101.325
Property: Activity coefficient of 1,3-dimethylbenzene (Liquid); method: Chromatography
Temperature, K	Activity coefficient of 1,3-dimethylbenzene	uncertainty
318.15	0.847	0.054
328.15	0.902	0.057
338.15	0.957	0.06
348.15	1.01	0.06
358.15	1.07	0.07
368.15	1.12	0.07

System: dimethyldodecylphenoxyethylammonium bis(trifluoromethylsulfonyl)imide + 1,4-dimethylbenzene; phases: Liquid
Fixed: Mole fraction of 1,4-dimethylbenzene = 0
Fixed: Pressure, kPa = 101.325
Property: Activity coefficient of 1,4-dimethylbenzene (Liquid); method: Chromatography
Temperature, K	Activity coefficient of 1,4-dimethylbenzene	uncertainty
318.15	0.861	0.055
328.15	0.916	0.058
338.15	0.967	0.061
348.15	1.02	0.06
358.15	1.08	0.07
368.15	1.14	0.07

System: dimethyldodecylphenoxyethylammonium bis(trifluoromethylsulfonyl)imide + propylbenzene; phases: Liquid
Fixed: Mole fraction of propylbenzene = 0
Fixed: Pressure, kPa = 101.325
Property: Activity coefficient of propylbenzene (Liquid); method: Chromatography
Temperature, K	Activity coefficient of propylbenzene	uncertainty
318.15	1.09	0.07
328.15	1.15	0.07
338.15	1.2	0.08
348.15	1.26	0.08
358.15	1.32	0.09
368.15	1.37	0.09

System: dimethyldodecylphenoxyethylammonium bis(trifluoromethylsulfonyl)imide + isopropylbenzene; phases: Liquid
Fixed: Mole fraction of isopropylbenzene = 0
Fixed: Pressure, kPa = 101.325
Property: Activity coefficient of isopropylbenzene (Liquid); method: Chromatography
Temperature, K	Activity coefficient of isopropylbenzene	uncertainty
318.15	1.14	0.07
328.15	1.19	0.08
338.15	1.24	0.08
348.15	1.29	0.08
358.15	1.34	0.09
368.15	1.39	0.09

System: dimethyldodecylphenoxyethylammonium bis(trifluoromethylsulfonyl)imide + styrene; phases: Liquid
Fixed: Mole fraction of styrene = 0
Fixed: Pressure, kPa = 101.325
Property: Activity coefficient of styrene (Liquid); method: Chromatography
Temperature, K	Activity coefficient of styrene	uncertainty
318.15	0.632	0.044
328.15	0.672	0.046
338.15	0.711	0.047
348.15	0.75	0.049
358.15	0.788	0.051
368.15	0.83	0.05

System: dimethyldodecylphenoxyethylammonium bis(trifluoromethylsulfonyl)imide + (1-methylethenyl)benzene; phases: Liquid
Fixed: Mole fraction of (1-methylethenyl)benzene = 0
Fixed: Pressure, kPa = 101.325
Property: Activity coefficient of (1-methylethenyl)benzene (Liquid); method: Chromatography
Temperature, K	Activity coefficient of (1-methylethenyl)benzene	uncertainty
318.15	0.784	0.051
328.15	0.831	0.054
338.15	0.881	0.056
348.15	0.931	0.059
358.15	0.985	0.062
368.15	1.03	0.06

System: dimethyldodecylphenoxyethylammonium bis(trifluoromethylsulfonyl)imide + thiophene; phases: Liquid
Fixed: Mole fraction of thiophene = 0
Fixed: Pressure, kPa = 101.325
Property: Activity coefficient of thiophene (Liquid); method: Chromatography
Temperature, K	Activity coefficient of thiophene	uncertainty
318.15	0.534	0.039
328.15	0.562	0.04
338.15	0.591	0.042
348.15	0.62	0.043
358.15	0.649	0.044
368.15	0.68	0.046

System: dimethyldodecylphenoxyethylammonium bis(trifluoromethylsulfonyl)imide + pyridine; phases: Liquid
Fixed: Mole fraction of pyridine = 0
Fixed: Pressure, kPa = 101.325
Property: Activity coefficient of pyridine (Liquid); method: Chromatography
Temperature, K	Activity coefficient of pyridine	uncertainty
318.15	0.278	0.03
328.15	0.296	0.031
338.15	0.313	0.031
348.15	0.33	0.032
358.15	0.346	0.032
368.15	0.363	0.033

System: dimethyldodecylphenoxyethylammonium bis(trifluoromethylsulfonyl)imide + methanol; phases: Liquid
Fixed: Mole fraction of methanol = 0
Fixed: Pressure, kPa = 101.325
Property: Activity coefficient of methanol (Liquid); method: Chromatography
Temperature, K	Activity coefficient of methanol	uncertainty
318.15	1.1	0.07
328.15	1.06	0.07
338.15	1.04	0.07
348.15	1.01	0.06
358.15	0.982	0.062
368.15	0.964	0.061

System: dimethyldodecylphenoxyethylammonium bis(trifluoromethylsulfonyl)imide + ethanol; phases: Liquid
Fixed: Mole fraction of ethanol = 0
Fixed: Pressure, kPa = 101.325
Property: Activity coefficient of ethanol (Liquid); method: Chromatography
Temperature, K	Activity coefficient of ethanol	uncertainty
318.15	1.24	0.08
328.15	1.2	0.08
338.15	1.16	0.07
348.15	1.12	0.07
358.15	1.09	0.07
368.15	1.06	0.07

System: dimethyldodecylphenoxyethylammonium bis(trifluoromethylsulfonyl)imide + propan-1-ol; phases: Liquid
Fixed: Mole fraction of propan-1-ol = 0
Fixed: Pressure, kPa = 101.325
Property: Activity coefficient of propan-1-ol (Liquid); method: Chromatography
Temperature, K	Activity coefficient of propan-1-ol	uncertainty
318.15	1.28	0.08
328.15	1.24	0.08
338.15	1.2	0.08
348.15	1.17	0.07
358.15	1.14	0.07
368.15	1.11	0.07

System: dimethyldodecylphenoxyethylammonium bis(trifluoromethylsulfonyl)imide + propan-2-ol; phases: Liquid
Fixed: Mole fraction of propan-2-ol = 0
Fixed: Pressure, kPa = 101.325
Property: Activity coefficient of propan-2-ol (Liquid); method: Chromatography
Temperature, K	Activity coefficient of propan-2-ol	uncertainty
318.15	1.27	0.08
328.15	1.22	0.08
338.15	1.18	0.08
348.15	1.14	0.07
358.15	1.11	0.07
368.15	1.08	0.07

System: dimethyldodecylphenoxyethylammonium bis(trifluoromethylsulfonyl)imide + butan-1-ol; phases: Liquid
Fixed: Mole fraction of butan-1-ol = 0
Fixed: Pressure, kPa = 101.325
Property: Activity coefficient of butan-1-ol (Liquid); method: Chromatography
Temperature, K	Activity coefficient of butan-1-ol	uncertainty
318.15	1.38	0.09
328.15	1.32	0.09
338.15	1.28	0.08
348.15	1.23	0.08
358.15	1.19	0.08
368.15	1.15	0.07

System: dimethyldodecylphenoxyethylammonium bis(trifluoromethylsulfonyl)imide + butan-2-ol; phases: Liquid
Fixed: Mole fraction of butan-2-ol = 0
Fixed: Pressure, kPa = 101.325
Property: Activity coefficient of butan-2-ol (Liquid); method: Chromatography
Temperature, K	Activity coefficient of butan-2-ol	uncertainty
318.15	1.23	0.08
328.15	1.2	0.08
338.15	1.17	0.07
348.15	1.15	0.07
358.15	1.12	0.07
368.15	1.1	0.07

System: dimethyldodecylphenoxyethylammonium bis(trifluoromethylsulfonyl)imide + 2-methyl-1-propanol; phases: Liquid
Fixed: Mole fraction of 2-methyl-1-propanol = 0
Fixed: Pressure, kPa = 101.325
Property: Activity coefficient of 2-methyl-1-propanol (Liquid); method: Chromatography
Temperature, K	Activity coefficient of 2-methyl-1-propanol	uncertainty
318.15	1.4	0.09
328.15	1.33	0.09
338.15	1.26	0.08
348.15	1.21	0.08
358.15	1.16	0.07
368.15	1.12	0.07

System: dimethyldodecylphenoxyethylammonium bis(trifluoromethylsulfonyl)imide + 2-methylpropan-2-ol; phases: Liquid
Fixed: Mole fraction of 2-methylpropan-2-ol = 0
Fixed: Pressure, kPa = 101.325
Property: Activity coefficient of 2-methylpropan-2-ol (Liquid); method: Chromatography
Temperature, K	Activity coefficient of 2-methylpropan-2-ol	uncertainty
318.15	1.14	0.07
328.15	1.1	0.07
338.15	1.06	0.07
348.15	1.02	0.06
358.15	0.986	0.062
368.15	0.952	0.06

System: dimethyldodecylphenoxyethylammonium bis(trifluoromethylsulfonyl)imide + pentan-1-ol; phases: Liquid
Fixed: Mole fraction of pentan-1-ol = 0
Fixed: Pressure, kPa = 101.325
Property: Activity coefficient of pentan-1-ol (Liquid); method: Chromatography
Temperature, K	Activity coefficient of pentan-1-ol	uncertainty
318.15	1.34	0.09
328.15	1.31	0.09
338.15	1.27	0.08
348.15	1.24	0.08
358.15	1.22	0.08
368.15	1.19	0.08

System: dimethyldodecylphenoxyethylammonium bis(trifluoromethylsulfonyl)imide + water; phases: Liquid
Fixed: Mole fraction of water = 0
Fixed: Pressure, kPa = 101.325
Property: Activity coefficient of water (Liquid); method: Chromatography
Temperature, K	Activity coefficient of water	uncertainty
318.15	3.65	0.25
328.15	3.32	0.23
338.15	3.04	0.21
348.15	2.8	0.19
358.15	2.59	0.18
368.15	2.4	0.16

System: dimethyldodecylphenoxyethylammonium bis(trifluoromethylsulfonyl)imide + methyl ethanoate; phases: Liquid
Fixed: Mole fraction of methyl ethanoate = 0
Fixed: Pressure, kPa = 101.325
Property: Activity coefficient of methyl ethanoate (Liquid); method: Chromatography
Temperature, K	Activity coefficient of methyl ethanoate	uncertainty
318.15	0.474	0.037
328.15	0.503	0.038
338.15	0.534	0.039
348.15	0.563	0.04
358.15	0.595	0.042
368.15	0.628	0.043

System: dimethyldodecylphenoxyethylammonium bis(trifluoromethylsulfonyl)imide + methyl propanoate; phases: Liquid
Fixed: Mole fraction of methyl propanoate = 0
Fixed: Pressure, kPa = 101.325
Property: Activity coefficient of methyl propanoate (Liquid); method: Chromatography
Temperature, K	Activity coefficient of methyl propanoate	uncertainty
318.15	0.498	0.038
328.15	0.53	0.039
338.15	0.566	0.041
348.15	0.599	0.042
358.15	0.633	0.044
368.15	0.669	0.045

System: dimethyldodecylphenoxyethylammonium bis(trifluoromethylsulfonyl)imide + methyl butanoate; phases: Liquid
Fixed: Mole fraction of methyl butanoate = 0
Fixed: Pressure, kPa = 101.325
Property: Activity coefficient of methyl butanoate (Liquid); method: Chromatography
Temperature, K	Activity coefficient of methyl butanoate	uncertainty
318.15	0.565	0.041
328.15	0.601	0.042
338.15	0.636	0.044
348.15	0.672	0.046
358.15	0.706	0.047
368.15	0.741	0.049

System: dimethyldodecylphenoxyethylammonium bis(trifluoromethylsulfonyl)imide + ethyl acetate; phases: Liquid
Fixed: Mole fraction of ethyl acetate = 0
Fixed: Pressure, kPa = 101.325
Property: Activity coefficient of ethyl acetate (Liquid); method: Chromatography
Temperature, K	Activity coefficient of ethyl acetate	uncertainty
318.15	0.505	0.038
328.15	0.533	0.039
338.15	0.563	0.04
348.15	0.592	0.042
358.15	0.62	0.043
368.15	0.648	0.044

System: dimethyldodecylphenoxyethylammonium bis(trifluoromethylsulfonyl)imide + vinyl acetate; phases: Liquid
Fixed: Mole fraction of vinyl acetate = 0
Fixed: Pressure, kPa = 101.325
Property: Activity coefficient of vinyl acetate (Liquid); method: Chromatography
Temperature, K	Activity coefficient of vinyl acetate	uncertainty
318.15	0.393	0.034
328.15	0.414	0.034
338.15	0.434	0.035
348.15	0.453	0.036
358.15	0.473	0.037
368.15	0.493	0.038

System: dimethyldodecylphenoxyethylammonium bis(trifluoromethylsulfonyl)imide + tetrahydrofuran; phases: Liquid
Fixed: Mole fraction of tetrahydrofuran = 0
Fixed: Pressure, kPa = 101.325
Property: Activity coefficient of tetrahydrofuran (Liquid); method: Chromatography
Temperature, K	Activity coefficient of tetrahydrofuran	uncertainty
318.15	0.364	0.033
328.15	0.39	0.034
338.15	0.418	0.035
348.15	0.446	0.036
358.15	0.473	0.037
368.15	0.502	0.038

System: dimethyldodecylphenoxyethylammonium bis(trifluoromethylsulfonyl)imide + 1,4-dioxane; phases: Liquid
Fixed: Mole fraction of 1,4-dioxane = 0
Fixed: Pressure, kPa = 101.325
Property: Activity coefficient of 1,4-dioxane (Liquid); method: Chromatography
Temperature, K	Activity coefficient of 1,4-dioxane	uncertainty
318.15	0.45	0.036
328.15	0.483	0.037
338.15	0.517	0.039
348.15	0.551	0.04
358.15	0.584	0.041
368.15	0.619	0.043

System: dimethyldodecylphenoxyethylammonium bis(trifluoromethylsulfonyl)imide + 2-methoxy-2-methylpropane; phases: Liquid
Fixed: Mole fraction of 2-methoxy-2-methylpropane = 0
Fixed: Pressure, kPa = 101.325
Property: Activity coefficient of 2-methoxy-2-methylpropane (Liquid); method: Chromatography
Temperature, K	Activity coefficient of 2-methoxy-2-methylpropane	uncertainty
318.15	1.03	0.06
328.15	1.09	0.07
338.15	1.15	0.07
348.15	1.21	0.08
358.15	1.27	0.08
368.15	1.33	0.09

System: dimethyldodecylphenoxyethylammonium bis(trifluoromethylsulfonyl)imide + 2-ethoxy-2-methylpropane; phases: Liquid
Fixed: Mole fraction of 2-ethoxy-2-methylpropane = 0
Fixed: Pressure, kPa = 101.325
Property: Activity coefficient of 2-ethoxy-2-methylpropane (Liquid); method: Chromatography
Temperature, K	Activity coefficient of 2-ethoxy-2-methylpropane	uncertainty
318.15	1.8	0.12
328.15	1.87	0.13
338.15	1.94	0.13
348.15	2.01	0.14
358.15	2.09	0.14
368.15	2.16	0.15

System: dimethyldodecylphenoxyethylammonium bis(trifluoromethylsulfonyl)imide + 2-methoxy-2-methylbutane; phases: Liquid
Fixed: Mole fraction of 2-methoxy-2-methylbutane = 0
Fixed: Pressure, kPa = 101.325
Property: Activity coefficient of 2-methoxy-2-methylbutane (Liquid); method: Chromatography
Temperature, K	Activity coefficient of 2-methoxy-2-methylbutane	uncertainty
318.15	1.22	0.08
328.15	1.29	0.08
338.15	1.36	0.09
348.15	1.43	0.09
358.15	1.5	0.1
368.15	1.56	0.1

System: dimethyldodecylphenoxyethylammonium bis(trifluoromethylsulfonyl)imide + diethyl ether; phases: Liquid
Fixed: Mole fraction of diethyl ether = 0
Fixed: Pressure, kPa = 101.325
Property: Activity coefficient of diethyl ether (Liquid); method: Chromatography
Temperature, K	Activity coefficient of diethyl ether	uncertainty
318.15	1.06	0.07
328.15	1.12	0.07
338.15	1.18	0.08
348.15	1.24	0.08
358.15	1.3	0.08
368.15	1.36	0.09

System: dimethyldodecylphenoxyethylammonium bis(trifluoromethylsulfonyl)imide + dipropyl ether; phases: Liquid
Fixed: Mole fraction of dipropyl ether = 0
Fixed: Pressure, kPa = 101.325
Property: Activity coefficient of dipropyl ether (Liquid); method: Chromatography
Temperature, K	Activity coefficient of dipropyl ether	uncertainty
318.15	1.78	0.12
328.15	1.85	0.12
338.15	1.92	0.13
348.15	1.99	0.14
358.15	2.06	0.14
368.15	2.13	0.14

System: dimethyldodecylphenoxyethylammonium bis(trifluoromethylsulfonyl)imide + diisopropyl ether; phases: Liquid
Fixed: Mole fraction of diisopropyl ether = 0
Fixed: Pressure, kPa = 101.325
Property: Activity coefficient of diisopropyl ether (Liquid); method: Chromatography
Temperature, K	Activity coefficient of diisopropyl ether	uncertainty
318.15	1.9	0.13
328.15	1.97	0.13
338.15	2.03	0.14
348.15	2.1	0.14
358.15	2.16	0.15
368.15	2.22	0.15

System: dimethyldodecylphenoxyethylammonium bis(trifluoromethylsulfonyl)imide + dibutyl ether; phases: Liquid
Fixed: Mole fraction of dibutyl ether = 0
Fixed: Pressure, kPa = 101.325
Property: Activity coefficient of dibutyl ether (Liquid); method: Chromatography
Temperature, K	Activity coefficient of dibutyl ether	uncertainty
318.15	2.61	0.18
328.15	2.68	0.18
338.15	2.74	0.19
348.15	2.81	0.19
358.15	2.88	0.2
368.15	2.94	0.2

System: dimethyldodecylphenoxyethylammonium bis(trifluoromethylsulfonyl)imide + acetone; phases: Liquid
Fixed: Mole fraction of acetone = 0
Fixed: Pressure, kPa = 101.325
Property: Activity coefficient of acetone (Liquid); method: Chromatography
Temperature, K	Activity coefficient of acetone	uncertainty
318.15	0.331	0.032
328.15	0.353	0.032
338.15	0.375	0.033
348.15	0.398	0.034
358.15	0.421	0.035
368.15	0.445	0.036

System: dimethyldodecylphenoxyethylammonium bis(trifluoromethylsulfonyl)imide + pentan-2-one; phases: Liquid
Fixed: Mole fraction of pentan-2-one = 0
Fixed: Pressure, kPa = 101.325
Property: Activity coefficient of pentan-2-one (Liquid); method: Chromatography
Temperature, K	Activity coefficient of pentan-2-one	uncertainty
318.15	0.386	0.033
328.15	0.41	0.034
338.15	0.434	0.035
348.15	0.458	0.036
358.15	0.481	0.037
368.15	0.503	0.038

System: dimethyldodecylphenoxyethylammonium bis(trifluoromethylsulfonyl)imide + pentan-3-one; phases: Liquid
Fixed: Mole fraction of pentan-3-one = 0
Fixed: Pressure, kPa = 101.325
Property: Activity coefficient of pentan-3-one (Liquid); method: Chromatography
Temperature, K	Activity coefficient of pentan-3-one	uncertainty
318.15	0.387	0.034
328.15	0.412	0.034
338.15	0.437	0.035
348.15	0.462	0.036
358.15	0.486	0.037
368.15	0.511	0.038

System: dimethyldodecylphenoxyethylammonium bis(trifluoromethylsulfonyl)imide + butanal; phases: Liquid
Fixed: Mole fraction of butanal = 0
Fixed: Pressure, kPa = 101.325
Property: Activity coefficient of butanal (Liquid); method: Chromatography
Temperature, K	Activity coefficient of butanal	uncertainty
318.15	0.711	0.047
328.15	0.742	0.049
338.15	0.777	0.051
348.15	0.81	0.052
358.15	0.844	0.054
368.15	0.876	0.056

System: dimethyldodecylphenoxyethylammonium bis(trifluoromethylsulfonyl)imide + acetonitrile; phases: Liquid
Fixed: Mole fraction of acetonitrile = 0
Fixed: Pressure, kPa = 101.325
Property: Activity coefficient of acetonitrile (Liquid); method: Chromatography
Temperature, K	Activity coefficient of acetonitrile	uncertainty
318.15	0.473	0.037
328.15	0.489	0.037
338.15	0.506	0.038
348.15	0.523	0.039
358.15	0.539	0.039
368.15	0.555	0.04

System: dimethyldodecylphenoxyethylammonium bis(trifluoromethylsulfonyl)imide + 1-nitropropane; phases: Liquid
Fixed: Mole fraction of 1-nitropropane = 0
Fixed: Pressure, kPa = 101.325
Property: Activity coefficient of 1-nitropropane (Liquid); method: Chromatography
Temperature, K	Activity coefficient of 1-nitropropane	uncertainty
318.15	0.722	0.048
328.15	0.747	0.049
338.15	0.77	0.05
348.15	0.793	0.052
358.15	0.815	0.053
368.15	0.837	0.054

System: dimethyldodecylphenoxyethylammonium dicyanamide + hexane; phases: Liquid
Fixed: Mole fraction of hexane = 0
Fixed: Pressure, kPa = 101.325
Property: Activity coefficient of hexane (Liquid); method: Chromatography
Temperature, K	Activity coefficient of hexane	uncertainty
328.15	5.12	0.35
338.15	5.22	0.36
348.15	5.3	0.36
358.15	5.41	0.37
368.15	5.53	0.38
378.15	5.6	0.38

System: dimethyldodecylphenoxyethylammonium dicyanamide + 3-methylpentane; phases: Liquid
Fixed: Mole fraction of 3-methylpentane = 0
Fixed: Pressure, kPa = 101.325
Property: Activity coefficient of 3-methylpentane (Liquid); method: Chromatography
Temperature, K	Activity coefficient of 3-methylpentane	uncertainty
328.15	5.3	0.36
338.15	5.37	0.37
348.15	5.41	0.37
358.15	5.46	0.37
368.15	5.5	0.37
378.15	5.5	0.37

System: dimethyldodecylphenoxyethylammonium dicyanamide + 2,2-dimethylbutane; phases: Liquid
Fixed: Mole fraction of 2,2-dimethylbutane = 0
Fixed: Pressure, kPa = 101.325
Property: Activity coefficient of 2,2-dimethylbutane (Liquid); method: Chromatography
Temperature, K	Activity coefficient of 2,2-dimethylbutane	uncertainty
328.15	5.84	0.4
338.15	5.95	0.41
348.15	6.05	0.41
358.15	6.14	0.42
368.15	6.25	0.43
378.15	6.35	0.43

System: dimethyldodecylphenoxyethylammonium dicyanamide + heptane; phases: Liquid
Fixed: Mole fraction of heptane = 0
Fixed: Pressure, kPa = 101.325
Property: Activity coefficient of heptane (Liquid); method: Chromatography
Temperature, K	Activity coefficient of heptane	uncertainty
328.15	5.99	0.41
338.15	6.08	0.41
348.15	6.16	0.42
358.15	6.24	0.43
368.15	6.33	0.43
378.15	6.41	0.44

System: dimethyldodecylphenoxyethylammonium dicyanamide + octane; phases: Liquid
Fixed: Mole fraction of octane = 0
Fixed: Pressure, kPa = 101.325
Property: Activity coefficient of octane (Liquid); method: Chromatography
Temperature, K	Activity coefficient of octane	uncertainty
328.15	6.7	0.46
338.15	6.8	0.46
348.15	6.87	0.47
358.15	6.96	0.47
368.15	7.07	0.48
378.15	7.15	0.49

System: dimethyldodecylphenoxyethylammonium dicyanamide + 2,2,4-trimethylpentane; phases: Liquid
Fixed: Mole fraction of 2,2,4-trimethylpentane = 0
Fixed: Pressure, kPa = 101.325
Property: Activity coefficient of 2,2,4-trimethylpentane (Liquid); method: Chromatography
Temperature, K	Activity coefficient of 2,2,4-trimethylpentane	uncertainty
328.15	7.07	0.48
338.15	7.15	0.49
348.15	7.23	0.49
358.15	7.32	0.5
368.15	7.39	0.5
378.15	7.47	0.51

System: dimethyldodecylphenoxyethylammonium dicyanamide + nonane; phases: Liquid
Fixed: Mole fraction of nonane = 0
Fixed: Pressure, kPa = 101.325
Property: Activity coefficient of nonane (Liquid); method: Chromatography
Temperature, K	Activity coefficient of nonane	uncertainty
328.15	7.69	0.52
338.15	7.83	0.53
348.15	7.95	0.54
358.15	8.08	0.55
368.15	8.21	0.56
378.15	8.34	0.57

System: dimethyldodecylphenoxyethylammonium dicyanamide + decane; phases: Liquid
Fixed: Mole fraction of decane = 0
Fixed: Pressure, kPa = 101.325
Property: Activity coefficient of decane (Liquid); method: Chromatography
Temperature, K	Activity coefficient of decane	uncertainty
328.15	9.02	0.62
338.15	9.17	0.63
348.15	9.31	0.64
358.15	9.45	0.64
368.15	9.6	0.65
378.15	9.75	0.67

System: dimethyldodecylphenoxyethylammonium dicyanamide + cyclohexane; phases: Liquid
Fixed: Mole fraction of cyclohexane = 0
Fixed: Pressure, kPa = 101.325
Property: Activity coefficient of cyclohexane (Liquid); method: Chromatography
Temperature, K	Activity coefficient of cyclohexane	uncertainty
328.15	3.15	0.21
338.15	3.16	0.22
348.15	3.18	0.22
358.15	3.2	0.22
368.15	3.22	0.22
378.15	3.24	0.22

System: dimethyldodecylphenoxyethylammonium dicyanamide + methylcyclohexane; phases: Liquid
Fixed: Mole fraction of methylcyclohexane = 0
Fixed: Pressure, kPa = 101.325
Property: Activity coefficient of methylcyclohexane (Liquid); method: Chromatography
Temperature, K	Activity coefficient of methylcyclohexane	uncertainty
328.15	3.67	0.25
338.15	3.73	0.25
348.15	3.78	0.26
358.15	3.85	0.26
368.15	3.9	0.27
378.15	3.95	0.27

System: dimethyldodecylphenoxyethylammonium dicyanamide + cycloheptane; phases: Liquid
Fixed: Mole fraction of cycloheptane = 0
Fixed: Pressure, kPa = 101.325
Property: Activity coefficient of cycloheptane (Liquid); method: Chromatography
Temperature, K	Activity coefficient of cycloheptane	uncertainty
328.15	3.26	0.22
338.15	3.29	0.22
348.15	3.31	0.23
358.15	3.34	0.23
368.15	3.37	0.23
378.15	3.39	0.23

System: dimethyldodecylphenoxyethylammonium dicyanamide + cyclooctane; phases: Liquid
Fixed: Mole fraction of cyclooctane = 0
Fixed: Pressure, kPa = 101.325
Property: Activity coefficient of cyclooctane (Liquid); method: Chromatography
Temperature, K	Activity coefficient of cyclooctane	uncertainty
328.15	3.56	0.24
338.15	3.63	0.25
348.15	3.69	0.25
358.15	3.72	0.25
368.15	3.76	0.26
378.15	3.79	0.26

System: dimethyldodecylphenoxyethylammonium dicyanamide + 1-pentene; phases: Liquid
Fixed: Mole fraction of 1-pentene = 0
Fixed: Pressure, kPa = 101.325
Property: Activity coefficient of 1-pentene (Liquid); method: Chromatography
Temperature, K	Activity coefficient of 1-pentene	uncertainty
328.15	3.3	0.22
338.15	3.36	0.23
348.15	3.42	0.23
358.15	3.48	0.24
368.15	3.54	0.24
378.15	3.61	0.25

System: dimethyldodecylphenoxyethylammonium dicyanamide + hex-1-ene; phases: Liquid
Fixed: Mole fraction of hex-1-ene = 0
Fixed: Pressure, kPa = 101.325
Property: Activity coefficient of hex-1-ene (Liquid); method: Chromatography
Temperature, K	Activity coefficient of hex-1-ene	uncertainty
328.15	3.59	0.24
338.15	3.68	0.25
348.15	3.76	0.26
358.15	3.84	0.26
368.15	3.9	0.27
378.15	3.99	0.27

System: dimethyldodecylphenoxyethylammonium dicyanamide + cyclohexene; phases: Liquid
Fixed: Mole fraction of cyclohexene = 0
Fixed: Pressure, kPa = 101.325
Property: Activity coefficient of cyclohexene (Liquid); method: Chromatography
Temperature, K	Activity coefficient of cyclohexene	uncertainty
328.15	2.16	0.15
338.15	2.19	0.15
348.15	2.22	0.15
358.15	2.26	0.15
368.15	2.29	0.16
378.15	2.31	0.16

System: dimethyldodecylphenoxyethylammonium dicyanamide + 1-heptene; phases: Liquid
Fixed: Mole fraction of 1-heptene = 0
Fixed: Pressure, kPa = 101.325
Property: Activity coefficient of 1-heptene (Liquid); method: Chromatography
Temperature, K	Activity coefficient of 1-heptene	uncertainty
328.15	4.19	0.29
338.15	4.28	0.29
348.15	4.36	0.3
358.15	4.43	0.3
368.15	4.51	0.31
378.15	4.59	0.31

System: dimethyldodecylphenoxyethylammonium dicyanamide + oct-1-ene; phases: Liquid
Fixed: Mole fraction of oct-1-ene = 0
Fixed: Pressure, kPa = 101.325
Property: Activity coefficient of oct-1-ene (Liquid); method: Chromatography
Temperature, K	Activity coefficient of oct-1-ene	uncertainty
328.15	4.87	0.33
338.15	4.98	0.34
348.15	5.09	0.35
358.15	5.2	0.35
368.15	5.29	0.36
378.15	5.38	0.37

System: dimethyldodecylphenoxyethylammonium dicyanamide + 1-decene; phases: Liquid
Fixed: Mole fraction of 1-decene = 0
Fixed: Pressure, kPa = 101.325
Property: Activity coefficient of 1-decene (Liquid); method: Chromatography
Temperature, K	Activity coefficient of 1-decene	uncertainty
328.15	6.45	0.44
338.15	6.67	0.45
348.15	6.83	0.47
358.15	6.99	0.48
368.15	7.14	0.49
378.15	7.22	0.49

System: dimethyldodecylphenoxyethylammonium dicyanamide + 1-pentyne; phases: Liquid
Fixed: Mole fraction of 1-pentyne = 0
Fixed: Pressure, kPa = 101.325
Property: Activity coefficient of 1-pentyne (Liquid); method: Chromatography
Temperature, K	Activity coefficient of 1-pentyne	uncertainty
328.15	1.47	0.1
338.15	1.53	0.1
348.15	1.6	0.11
358.15	1.66	0.11
368.15	1.73	0.12
378.15	1.79	0.12

System: dimethyldodecylphenoxyethylammonium dicyanamide + 1-hexyne; phases: Liquid
Fixed: Mole fraction of 1-hexyne = 0
Fixed: Pressure, kPa = 101.325
Property: Activity coefficient of 1-hexyne (Liquid); method: Chromatography
Temperature, K	Activity coefficient of 1-hexyne	uncertainty
328.15	1.66	0.11
338.15	1.74	0.12
348.15	1.82	0.12
358.15	1.88	0.13
368.15	1.95	0.13
378.15	2.02	0.14

System: dimethyldodecylphenoxyethylammonium dicyanamide + 1-heptyne; phases: Liquid
Fixed: Mole fraction of 1-heptyne = 0
Fixed: Pressure, kPa = 101.325
Property: Activity coefficient of 1-heptyne (Liquid); method: Chromatography
Temperature, K	Activity coefficient of 1-heptyne	uncertainty
328.15	1.93	0.13
338.15	2.03	0.14
348.15	2.12	0.14
358.15	2.21	0.15
368.15	2.3	0.16
378.15	2.4	0.16

System: dimethyldodecylphenoxyethylammonium dicyanamide + 1-octyne; phases: Liquid
Fixed: Mole fraction of 1-octyne = 0
Fixed: Pressure, kPa = 101.325
Property: Activity coefficient of 1-octyne (Liquid); method: Chromatography
Temperature, K	Activity coefficient of 1-octyne	uncertainty
328.15	2.22	0.15
338.15	2.34	0.16
348.15	2.46	0.17
358.15	2.57	0.17
368.15	2.68	0.18
378.15	2.8	0.19

System: dimethyldodecylphenoxyethylammonium dicyanamide + benzene; phases: Liquid
Fixed: Mole fraction of benzene = 0
Fixed: Pressure, kPa = 101.325
Property: Activity coefficient of benzene (Liquid); method: Chromatography
Temperature, K	Activity coefficient of benzene	uncertainty
328.15	0.835	0.054
338.15	0.87	0.056
348.15	0.905	0.057
358.15	0.938	0.059
368.15	0.972	0.061
378.15	1.01	0.06

System: dimethyldodecylphenoxyethylammonium dicyanamide + toluene; phases: Liquid
Fixed: Mole fraction of toluene = 0
Fixed: Pressure, kPa = 101.325
Property: Activity coefficient of toluene (Liquid); method: Chromatography
Temperature, K	Activity coefficient of toluene	uncertainty
328.15	1.05	0.07
338.15	1.1	0.07
348.15	1.15	0.07
358.15	1.19	0.08
368.15	1.24	0.08
378.15	1.28	0.08

System: dimethyldodecylphenoxyethylammonium dicyanamide + ethylbenzene; phases: Liquid
Fixed: Mole fraction of ethylbenzene = 0
Fixed: Pressure, kPa = 101.325
Property: Activity coefficient of ethylbenzene (Liquid); method: Chromatography
Temperature, K	Activity coefficient of ethylbenzene	uncertainty
328.15	1.4	0.09
338.15	1.45	0.1
348.15	1.5	0.1
358.15	1.55	0.1
368.15	1.6	0.11
378.15	1.64	0.11

System: dimethyldodecylphenoxyethylammonium dicyanamide + 1,2-dimethylbenzene; phases: Liquid
Fixed: Mole fraction of 1,2-dimethylbenzene = 0
Fixed: Pressure, kPa = 101.325
Property: Activity coefficient of 1,2-dimethylbenzene (Liquid); method: Chromatography
Temperature, K	Activity coefficient of 1,2-dimethylbenzene	uncertainty
328.15	1.23	0.08
338.15	1.28	0.08
348.15	1.32	0.09
358.15	1.36	0.09
368.15	1.4	0.09
378.15	1.43	0.09

System: dimethyldodecylphenoxyethylammonium dicyanamide + 1,3-dimethylbenzene; phases: Liquid
Fixed: Mole fraction of 1,3-dimethylbenzene = 0
Fixed: Pressure, kPa = 101.325
Property: Activity coefficient of 1,3-dimethylbenzene (Liquid); method: Chromatography
Temperature, K	Activity coefficient of 1,3-dimethylbenzene	uncertainty
328.15	1.38	0.09
338.15	1.44	0.09
348.15	1.5	0.1
358.15	1.56	0.1
368.15	1.61	0.11
378.15	1.66	0.11

System: dimethyldodecylphenoxyethylammonium dicyanamide + 1,4-dimethylbenzene; phases: Liquid
Fixed: Mole fraction of 1,4-dimethylbenzene = 0
Fixed: Pressure, kPa = 101.325
Property: Activity coefficient of 1,4-dimethylbenzene (Liquid); method: Chromatography
Temperature, K	Activity coefficient of 1,4-dimethylbenzene	uncertainty
328.15	1.38	0.09
338.15	1.44	0.09
348.15	1.5	0.1
358.15	1.57	0.1
368.15	1.63	0.11
378.15	1.69	0.11

System: dimethyldodecylphenoxyethylammonium dicyanamide + propylbenzene; phases: Liquid
Fixed: Mole fraction of propylbenzene = 0
Fixed: Pressure, kPa = 101.325
Property: Activity coefficient of propylbenzene (Liquid); method: Chromatography
Temperature, K	Activity coefficient of propylbenzene	uncertainty
328.15	1.71	0.11
338.15	1.77	0.12
348.15	1.83	0.12
358.15	1.89	0.13
368.15	1.96	0.13
378.15	2.01	0.14

System: dimethyldodecylphenoxyethylammonium dicyanamide + isopropylbenzene; phases: Liquid
Fixed: Mole fraction of isopropylbenzene = 0
Fixed: Pressure, kPa = 101.325
Property: Activity coefficient of isopropylbenzene (Liquid); method: Chromatography
Temperature, K	Activity coefficient of isopropylbenzene	uncertainty
328.15	1.82	0.12
338.15	1.87	0.13
348.15	1.94	0.13
358.15	2	0.14
368.15	2.05	0.14
378.15	2.11	0.14

System: dimethyldodecylphenoxyethylammonium dicyanamide + styrene; phases: Liquid
Fixed: Mole fraction of styrene = 0
Fixed: Pressure, kPa = 101.325
Property: Activity coefficient of styrene (Liquid); method: Chromatography
Temperature, K	Activity coefficient of styrene	uncertainty
328.15	0.905	0.057
338.15	0.94	0.06
348.15	0.981	0.062
358.15	1.02	0.06
368.15	1.06	0.07
378.15	1.1	0.07

System: dimethyldodecylphenoxyethylammonium dicyanamide + (1-methylethenyl)benzene; phases: Liquid
Fixed: Mole fraction of (1-methylethenyl)benzene = 0
Fixed: Pressure, kPa = 101.325
Property: Activity coefficient of (1-methylethenyl)benzene (Liquid); method: Chromatography
Temperature, K	Activity coefficient of (1-methylethenyl)benzene	uncertainty
328.15	1.11	0.07
338.15	1.18	0.08
348.15	1.25	0.08
358.15	1.32	0.09
368.15	1.39	0.09
378.15	1.46	0.1

System: dimethyldodecylphenoxyethylammonium dicyanamide + thiophene; phases: Liquid
Fixed: Mole fraction of thiophene = 0
Fixed: Pressure, kPa = 101.325
Property: Activity coefficient of thiophene (Liquid); method: Chromatography
Temperature, K	Activity coefficient of thiophene	uncertainty
328.15	0.648	0.044
338.15	0.674	0.046
348.15	0.699	0.047
358.15	0.724	0.048
368.15	0.749	0.049
378.15	0.773	0.051

System: dimethyldodecylphenoxyethylammonium dicyanamide + pyridine; phases: Liquid
Fixed: Mole fraction of pyridine = 0
Fixed: Pressure, kPa = 101.325
Property: Activity coefficient of pyridine (Liquid); method: Chromatography
Temperature, K	Activity coefficient of pyridine	uncertainty
328.15	0.586	0.042
338.15	0.604	0.042
348.15	0.622	0.043
358.15	0.639	0.044
368.15	0.656	0.045
378.15	0.673	0.046

System: dimethyldodecylphenoxyethylammonium dicyanamide + methanol; phases: Liquid
Fixed: Mole fraction of methanol = 0
Fixed: Pressure, kPa = 101.325
Property: Activity coefficient of methanol (Liquid); method: Chromatography
Temperature, K	Activity coefficient of methanol	uncertainty
328.15	0.316	0.031
338.15	0.324	0.032
348.15	0.332	0.032
358.15	0.339	0.032
368.15	0.346	0.032
378.15	0.353	0.032

System: dimethyldodecylphenoxyethylammonium dicyanamide + ethanol; phases: Liquid
Fixed: Mole fraction of ethanol = 0
Fixed: Pressure, kPa = 101.325
Property: Activity coefficient of ethanol (Liquid); method: Chromatography
Temperature, K	Activity coefficient of ethanol	uncertainty
328.15	0.411	0.034
338.15	0.421	0.035
348.15	0.429	0.035
358.15	0.438	0.035
368.15	0.446	0.036
378.15	0.453	0.036

System: dimethyldodecylphenoxyethylammonium dicyanamide + propan-1-ol; phases: Liquid
Fixed: Mole fraction of propan-1-ol = 0
Fixed: Pressure, kPa = 101.325
Property: Activity coefficient of propan-1-ol (Liquid); method: Chromatography
Temperature, K	Activity coefficient of propan-1-ol	uncertainty
328.15	0.425	0.035
338.15	0.435	0.035
348.15	0.445	0.036
358.15	0.454	0.036
368.15	0.463	0.036
378.15	0.471	0.037

System: dimethyldodecylphenoxyethylammonium dicyanamide + propan-2-ol; phases: Liquid
Fixed: Mole fraction of propan-2-ol = 0
Fixed: Pressure, kPa = 101.325
Property: Activity coefficient of propan-2-ol (Liquid); method: Chromatography
Temperature, K	Activity coefficient of propan-2-ol	uncertainty
328.15	0.494	0.038
338.15	0.504	0.038
348.15	0.512	0.038
358.15	0.52	0.039
368.15	0.528	0.039
378.15	0.535	0.039

System: dimethyldodecylphenoxyethylammonium dicyanamide + butan-1-ol; phases: Liquid
Fixed: Mole fraction of butan-1-ol = 0
Fixed: Pressure, kPa = 101.325
Property: Activity coefficient of butan-1-ol (Liquid); method: Chromatography
Temperature, K	Activity coefficient of butan-1-ol	uncertainty
328.15	0.463	0.036
338.15	0.473	0.037
348.15	0.483	0.037
358.15	0.494	0.038
368.15	0.504	0.038
378.15	0.514	0.038

System: dimethyldodecylphenoxyethylammonium dicyanamide + butan-2-ol; phases: Liquid
Fixed: Mole fraction of butan-2-ol = 0
Fixed: Pressure, kPa = 101.325
Property: Activity coefficient of butan-2-ol (Liquid); method: Chromatography
Temperature, K	Activity coefficient of butan-2-ol	uncertainty
328.15	0.495	0.038
338.15	0.508	0.038
348.15	0.522	0.039
358.15	0.536	0.039
368.15	0.55	0.04
378.15	0.564	0.041

System: dimethyldodecylphenoxyethylammonium dicyanamide + 2-methyl-1-propanol; phases: Liquid
Fixed: Mole fraction of 2-methyl-1-propanol = 0
Fixed: Pressure, kPa = 101.325
Property: Activity coefficient of 2-methyl-1-propanol (Liquid); method: Chromatography
Temperature, K	Activity coefficient of 2-methyl-1-propanol	uncertainty
328.15	0.451	0.036
338.15	0.46	0.036
348.15	0.469	0.037
358.15	0.477	0.037
368.15	0.486	0.037
378.15	0.494	0.038

System: dimethyldodecylphenoxyethylammonium dicyanamide + 2-methylpropan-2-ol; phases: Liquid
Fixed: Mole fraction of 2-methylpropan-2-ol = 0
Fixed: Pressure, kPa = 101.325
Property: Activity coefficient of 2-methylpropan-2-ol (Liquid); method: Chromatography
Temperature, K	Activity coefficient of 2-methylpropan-2-ol	uncertainty
328.15	0.539	0.039
338.15	0.554	0.04
348.15	0.569	0.041
358.15	0.584	0.041
368.15	0.598	0.042
378.15	0.613	0.043

System: dimethyldodecylphenoxyethylammonium dicyanamide + pentan-1-ol; phases: Liquid
Fixed: Mole fraction of pentan-1-ol = 0
Fixed: Pressure, kPa = 101.325
Property: Activity coefficient of pentan-1-ol (Liquid); method: Chromatography
Temperature, K	Activity coefficient of pentan-1-ol	uncertainty
328.15	0.477	0.037
338.15	0.491	0.037
348.15	0.505	0.038
358.15	0.517	0.039
368.15	0.53	0.039
378.15	0.542	0.04

System: dimethyldodecylphenoxyethylammonium dicyanamide + water; phases: Liquid
Fixed: Mole fraction of water = 0
Fixed: Pressure, kPa = 101.325
Property: Activity coefficient of water (Liquid); method: Chromatography
Temperature, K	Activity coefficient of water	uncertainty
328.15	0.467	0.036
338.15	0.479	0.037
348.15	0.489	0.037
358.15	0.5	0.04
368.15	0.51	0.038
378.15	0.52	0.039

System: dimethyldodecylphenoxyethylammonium dicyanamide + methyl ethanoate; phases: Liquid
Fixed: Mole fraction of methyl ethanoate = 0
Fixed: Pressure, kPa = 101.325
Property: Activity coefficient of methyl ethanoate (Liquid); method: Chromatography
Temperature, K	Activity coefficient of methyl ethanoate	uncertainty
328.15	1.03	0.06
338.15	1.06	0.07
348.15	1.09	0.07
358.15	1.12	0.07
368.15	1.14	0.07
378.15	1.17	0.07

System: dimethyldodecylphenoxyethylammonium dicyanamide + methyl propanoate; phases: Liquid
Fixed: Mole fraction of methyl propanoate = 0
Fixed: Pressure, kPa = 101.325
Property: Activity coefficient of methyl propanoate (Liquid); method: Chromatography
Temperature, K	Activity coefficient of methyl propanoate	uncertainty
328.15	1.13	0.07
338.15	1.16	0.07
348.15	1.19	0.08
358.15	1.22	0.08
368.15	1.25	0.08
378.15	1.28	0.08

System: dimethyldodecylphenoxyethylammonium dicyanamide + methyl butanoate; phases: Liquid
Fixed: Mole fraction of methyl butanoate = 0
Fixed: Pressure, kPa = 101.325
Property: Activity coefficient of methyl butanoate (Liquid); method: Chromatography
Temperature, K	Activity coefficient of methyl butanoate	uncertainty
328.15	1.29	0.08
338.15	1.34	0.09
348.15	1.38	0.09
358.15	1.42	0.09
368.15	1.46	0.1
378.15	1.5	0.1

System: dimethyldodecylphenoxyethylammonium dicyanamide + ethyl acetate; phases: Liquid
Fixed: Mole fraction of ethyl acetate = 0
Fixed: Pressure, kPa = 101.325
Property: Activity coefficient of ethyl acetate (Liquid); method: Chromatography
Temperature, K	Activity coefficient of ethyl acetate	uncertainty
328.15	1.2	0.08
338.15	1.24	0.08
348.15	1.27	0.08
358.15	1.31	0.09
368.15	1.34	0.09
378.15	1.37	0.09

System: dimethyldodecylphenoxyethylammonium dicyanamide + vinyl acetate; phases: Liquid
Fixed: Mole fraction of vinyl acetate = 0
Fixed: Pressure, kPa = 101.325
Property: Activity coefficient of vinyl acetate (Liquid); method: Chromatography
Temperature, K	Activity coefficient of vinyl acetate	uncertainty
328.15	1.24	0.08
338.15	1.28	0.08
348.15	1.31	0.09
358.15	1.35	0.09
368.15	1.38	0.09
378.15	1.41	0.09

System: dimethyldodecylphenoxyethylammonium dicyanamide + tetrahydrofuran; phases: Liquid
Fixed: Mole fraction of tetrahydrofuran = 0
Fixed: Pressure, kPa = 101.325
Property: Activity coefficient of tetrahydrofuran (Liquid); method: Chromatography
Temperature, K	Activity coefficient of tetrahydrofuran	uncertainty
328.15	0.704	0.047
338.15	0.726	0.048
348.15	0.749	0.049
358.15	0.77	0.05
368.15	0.791	0.051
378.15	0.81	0.052

System: dimethyldodecylphenoxyethylammonium dicyanamide + 1,4-dioxane; phases: Liquid
Fixed: Mole fraction of 1,4-dioxane = 0
Fixed: Pressure, kPa = 101.325
Property: Activity coefficient of 1,4-dioxane (Liquid); method: Chromatography
Temperature, K	Activity coefficient of 1,4-dioxane	uncertainty
328.15	0.76	0.05
338.15	0.79	0.051
348.15	0.818	0.053
358.15	0.846	0.054
368.15	0.871	0.056
378.15	0.898	0.057

System: dimethyldodecylphenoxyethylammonium dicyanamide + 2-methoxy-2-methylpropane; phases: Liquid
Fixed: Mole fraction of 2-methoxy-2-methylpropane = 0
Fixed: Pressure, kPa = 101.325
Property: Activity coefficient of 2-methoxy-2-methylpropane (Liquid); method: Chromatography
Temperature, K	Activity coefficient of 2-methoxy-2-methylpropane	uncertainty
328.15	2.28	0.16
338.15	2.33	0.16
348.15	2.38	0.16
358.15	2.43	0.17
368.15	2.48	0.17
378.15	2.53	0.17

System: dimethyldodecylphenoxyethylammonium dicyanamide + 2-ethoxy-2-methylpropane; phases: Liquid
Fixed: Mole fraction of 2-ethoxy-2-methylpropane = 0
Fixed: Pressure, kPa = 101.325
Property: Activity coefficient of 2-ethoxy-2-methylpropane (Liquid); method: Chromatography
Temperature, K	Activity coefficient of 2-ethoxy-2-methylpropane	uncertainty
328.15	3.66	0.25
338.15	3.74	0.25
348.15	3.82	0.26
358.15	3.9	0.27
368.15	3.97	0.27
378.15	4.03	0.27

System: dimethyldodecylphenoxyethylammonium dicyanamide + 2-methoxy-2-methylbutane; phases: Liquid
Fixed: Mole fraction of 2-methoxy-2-methylbutane = 0
Fixed: Pressure, kPa = 101.325
Property: Activity coefficient of 2-methoxy-2-methylbutane (Liquid); method: Chromatography
Temperature, K	Activity coefficient of 2-methoxy-2-methylbutane	uncertainty
328.15	2.49	0.17
338.15	2.56	0.17
348.15	2.63	0.18
358.15	2.69	0.18
368.15	2.75	0.19
378.15	2.81	0.19

System: dimethyldodecylphenoxyethylammonium dicyanamide + diethyl ether; phases: Liquid
Fixed: Mole fraction of diethyl ether = 0
Fixed: Pressure, kPa = 101.325
Property: Activity coefficient of diethyl ether (Liquid); method: Chromatography
Temperature, K	Activity coefficient of diethyl ether	uncertainty
328.15	2.17	0.15
338.15	2.22	0.15
348.15	2.28	0.16
358.15	2.34	0.16
368.15	2.39	0.16
378.15	2.44	0.17

System: dimethyldodecylphenoxyethylammonium dicyanamide + dipropyl ether; phases: Liquid
Fixed: Mole fraction of dipropyl ether = 0
Fixed: Pressure, kPa = 101.325
Property: Activity coefficient of dipropyl ether (Liquid); method: Chromatography
Temperature, K	Activity coefficient of dipropyl ether	uncertainty
328.15	3.36	0.23
338.15	3.46	0.24
348.15	3.54	0.24
358.15	3.61	0.25
368.15	3.68	0.25
378.15	3.76	0.26

System: dimethyldodecylphenoxyethylammonium dicyanamide + diisopropyl ether; phases: Liquid
Fixed: Mole fraction of diisopropyl ether = 0
Fixed: Pressure, kPa = 101.325
Property: Activity coefficient of diisopropyl ether (Liquid); method: Chromatography
Temperature, K	Activity coefficient of diisopropyl ether	uncertainty
328.15	4.03	0.27
338.15	4.12	0.28
348.15	4.22	0.29
358.15	4.29	0.29
368.15	4.36	0.3
378.15	4.43	0.3

System: dimethyldodecylphenoxyethylammonium dicyanamide + dibutyl ether; phases: Liquid
Fixed: Mole fraction of dibutyl ether = 0
Fixed: Pressure, kPa = 101.325
Property: Activity coefficient of dibutyl ether (Liquid); method: Chromatography
Temperature, K	Activity coefficient of dibutyl ether	uncertainty
328.15	4.66	0.32
338.15	4.76	0.32
348.15	4.85	0.33
358.15	4.92	0.34
368.15	4.99	0.34
378.15	5.08	0.35

System: dimethyldodecylphenoxyethylammonium dicyanamide + acetone; phases: Liquid
Fixed: Mole fraction of acetone = 0
Fixed: Pressure, kPa = 101.325
Property: Activity coefficient of acetone (Liquid); method: Chromatography
Temperature, K	Activity coefficient of acetone	uncertainty
328.15	0.721	0.048
338.15	0.745	0.049
348.15	0.767	0.05
358.15	0.791	0.051
368.15	0.813	0.053
378.15	0.834	0.054

System: dimethyldodecylphenoxyethylammonium dicyanamide + pentan-2-one; phases: Liquid
Fixed: Mole fraction of pentan-2-one = 0
Fixed: Pressure, kPa = 101.325
Property: Activity coefficient of pentan-2-one (Liquid); method: Chromatography
Temperature, K	Activity coefficient of pentan-2-one	uncertainty
328.15	0.899	0.057
338.15	0.936	0.059
348.15	0.97	0.061
358.15	1	0.06
368.15	1.04	0.07
378.15	1.07	0.07

System: dimethyldodecylphenoxyethylammonium dicyanamide + pentan-3-one; phases: Liquid
Fixed: Mole fraction of pentan-3-one = 0
Fixed: Pressure, kPa = 101.325
Property: Activity coefficient of pentan-3-one (Liquid); method: Chromatography
Temperature, K	Activity coefficient of pentan-3-one	uncertainty
328.15	0.909	0.058
338.15	0.947	0.06
348.15	0.981	0.062
358.15	1.02	0.06
368.15	1.05	0.07
378.15	1.08	0.07

System: dimethyldodecylphenoxyethylammonium dicyanamide + butanal; phases: Liquid
Fixed: Mole fraction of butanal = 0
Fixed: Pressure, kPa = 101.325
Property: Activity coefficient of butanal (Liquid); method: Chromatography
Temperature, K	Activity coefficient of butanal	uncertainty
328.15	0.766	0.05
338.15	0.779	0.051
348.15	0.79	0.051
358.15	0.803	0.052
368.15	0.816	0.053
378.15	0.828	0.053

System: dimethyldodecylphenoxyethylammonium dicyanamide + acetonitrile; phases: Liquid
Fixed: Mole fraction of acetonitrile = 0
Fixed: Pressure, kPa = 101.325
Property: Activity coefficient of acetonitrile (Liquid); method: Chromatography
Temperature, K	Activity coefficient of acetonitrile	uncertainty
328.15	0.756	0.05
338.15	0.766	0.05
348.15	0.775	0.051
358.15	0.785	0.051
368.15	0.793	0.052
378.15	0.801	0.052

System: dimethyldodecylphenoxyethylammonium dicyanamide + 1-nitropropane; phases: Liquid
Fixed: Mole fraction of 1-nitropropane = 0
Fixed: Pressure, kPa = 101.325
Property: Activity coefficient of 1-nitropropane (Liquid); method: Chromatography
Temperature, K	Activity coefficient of 1-nitropropane	uncertainty
328.15	0.83	0.053
338.15	0.85	0.055
348.15	0.868	0.055
358.15	0.886	0.056
368.15	0.903	0.057
378.15	0.92	0.058
