Measured thermophysical data. Osmotic properties of carbohydrate aqueous solutions
Source: Fluid Phase Equilib., 2016, 10.1016/j.fluid.2016.02.030
Compound 1: D-xylose, C5H10O5, InChI=1S/C5H10O5/c6-1-3(8)5(10)4(9)2-7/h1,3-5,7-10H,2H2/t3-,4+,5+/m0/s1, purity 99%
Compound 2: water, H2O, InChI=1S/H2O/h1H2, purity 99.9%
Compound 3: L-arabinose, C5H10O5, InChI=1S/C5H10O5/c6-1-3(8)5(10)4(9)2-7/h1,3-5,7-10H,2H2/t3-,4-,5+/m0/s1, purity 99%
Compound 4: xylitol, C5H12O5, InChI=1S/C5H12O5/c6-1-3(8)5(10)4(9)2-7/h3-10H,1-2H2/t3-,4+,5+, purity 99%
Compound 5: D-ribose, C5H10O5, InChI=1S/C5H10O5/c6-1-3(8)5(10)4(9)2-7/h1,3-5,7-10H,2H2/t3-,4+,5-/m0/s1, purity 99%
Compound 6: (+)-galactose, C6H12O6, InChI=1S/C6H12O6/c7-1-3(9)5(11)6(12)4(10)2-8/h1,3-6,8-12H,2H2/t3-,4+,5+,6-/m0/s1, purity 98%
Compound 7: D-fructose, C6H12O6, InChI=1S/C6H12O6/c7-1-3(9)5(11)6(12)4(10)2-8/h3,5-9,11-12H,1-2H2/t3-,5-,6-/m1/s1, purity 99%
Compound 8: D-glucose, C6H12O6, InChI=1S/C6H12O6/c7-1-3(9)5(11)6(12)4(10)2-8/h1,3-6,8-12H,2H2/t3-,4+,5+,6+/m0/s1, purity 99.5%
Compound 9: D-mannose, C6H12O6, InChI=1S/C6H12O6/c7-1-3(9)5(11)6(12)4(10)2-8/h1,3-6,8-12H,2H2/t3-,4-,5-,6-/m1/s1, purity 98%
Compound 10: D-sucrose, C12H22O11, InChI=1S/C12H22O11/c13-1-4-6(16)8(18)9(19)11(21-4)23-12(3-15)10(20)7(17)5(2-14)22-12/h4-11,13-20H,1-3H2/t4-,5-,6-,7-,8+,9-,10+,11-,12+/m1/s1, purity 98%
Compound 11: D-sorbitol, C6H14O6, InChI=1S/C6H14O6/c7-1-3(9)5(11)6(12)4(10)2-8/h3-12H,1-2H2/t3-,4+,5-,6-/m1/s1, purity 99%
Compound 12: 4-O-.beta.-D-galactopyranosyl-D-glucose, C12H22O11, InChI=1S/C12H22O11/c13-1-4(16)7(18)11(5(17)2-14)23-12-10(21)9(20)8(19)6(3-15)22-12/h1,4-12,14-21H,2-3H2/t4-,5+,6+,7+,8-,9-,10+,11+,12-/m0/s1, purity 98%
Compound 13: D-maltose, C12H22O11, InChI=1S/C12H22O11/c13-1-3-5(15)6(16)9(19)12(22-3)23-10-4(2-14)21-11(20)8(18)7(10)17/h3-20H,1-2H2/t3-,4-,5-,6+,7-,8-,9-,10-,11?,12-/m1/s1, purity 99%
Compound 14: D-raffinose, C18H32O16, InChI=1S/C18H32O16/c19-1-5-8(22)11(25)13(27)16(31-5)30-3-7-9(23)12(26)14(28)17(32-7)34-18(4-21)15(29)10(24)6(2-20)33-18/h5-17,19-29H,1-4H2/t5-,6-,7-,8+,9-,10-,11+,12+,13-,14-,15+,16+,17-,18+/m1/s1, purity 97%
Compound 15: 4-O-.alpha.-D-glucopyranosyl-D-glucitol, C12H24O11, InChI=1S/C12H24O11/c13-1-4(16)7(18)11(5(17)2-14)23-12-10(21)9(20)8(19)6(3-15)22-12/h4-21H,1-3H2/t4-,5+,6+,7+,8+,9-,10+,11+,12+/m0/s1, purity 97%

System: D-xylose + water; phases: Liquid, Gas
Fixed: Temperature, K = 308.15
Property: Osmotic coefficient (Liquid); method: omometer
Molality, mol/kg of D-xylose	Osmotic coefficient	uncertainty
5.6252	0.997	0.0021
5.6185	0.9894	0.0021
5.6111	0.9874	0.0021
5.6043	0.9869	0.0021
5.5981	0.9866	0.0021
5.5897	0.9852	0.0021
5.5818	0.9853	0.0021
5.5744	0.985	0.0021
5.5665	0.9853	0.0021
5.5586	0.9852	0.0021
5.5507	0.9857	0.0021
5.5417	0.9858	0.0021
5.5304	0.9859	0.0021
5.5163	0.9868	0.0021
5.5022	0.987	0.0021
5.4677	0.9881	0.002
5.435	0.9919	0.002
5.4	0.9966	0.002
5.3616	1.0019	0.002
5.3329	1.0074	0.002

System: L-arabinose + water; phases: Liquid, Gas
Fixed: Temperature, K = 308.15
Property: Osmotic coefficient (Liquid); method: omometer
Molality, mol/kg of L-arabinose	Osmotic coefficient	uncertainty
0.0332	0.9993	0.002
0.0672	0.9973	0.002
0.1346	0.9965	0.002
0.2071	0.995	0.002
0.2766	0.9956	0.002
0.3435	0.9951	0.002
0.4151	0.9944	0.002
0.4952	0.9947	0.002
0.5785	0.9949	0.002
0.6498	0.9944	0.002
0.8204	0.9948	0.002
0.9055	0.9945	0.002
1.0411	0.9945	0.002
1.177	0.9944	0.002
1.3128	0.9942	0.002
1.6594	0.995	0.002
2.402	1.0015	0.002
3.2716	1.0159	0.0021

System: xylitol + water; phases: Liquid, Gas
Fixed: Temperature, K = 308.15
Property: Osmotic coefficient (Liquid); method: omometer
Molality, mol/kg of xylitol	Osmotic coefficient	uncertainty
0.0663	1.0022	0.002
0.1332	1.0021	0.002
0.2029	1.0016	0.002
0.2718	1.0023	0.002
0.3466	1.0028	0.002
0.4199	1.0037	0.002
0.495	1.0046	0.002
0.5643	1.005	0.002
0.6343	1.0053	0.002
0.7296	1.0059	0.002
0.792	1.0072	0.002
0.8908	1.0085	0.002
0.9999	1.0106	0.002
1.1429	1.0125	0.002
1.2974	1.0147	0.0021
1.4741	1.0166	0.0021
2.0274	1.0262	0.0022
2.6463	1.0359	0.0024
3.2895	1.0423	0.0025
4.4126	1.0478	0.0026

System: D-ribose + water; phases: Liquid, Gas
Fixed: Temperature, K = 308.15
Property: Osmotic coefficient (Liquid); method: omometer
Molality, mol/kg of D-ribose	Osmotic coefficient	uncertainty
0.0338	0.9992	0.002
0.0672	0.988	0.002
0.1353	0.9826	0.0021
0.2041	0.9786	0.0021
0.2789	0.9769	0.0022
0.3505	0.9753	0.0022
0.4242	0.9745	0.0022
0.499	0.9743	0.0022
0.5801	0.9736	0.0022
0.6538	0.9734	0.0022
0.7165	0.973	0.0022
0.7426	0.9732	0.0022
0.8289	0.973	0.0022
0.9054	0.9732	0.0022
1.038	0.9735	0.0022
1.183	0.9735	0.0022
1.4531	0.9745	0.0022
1.9881	0.9774	0.0022
2.594	0.9857	0.0021
3.2659	0.9944	0.002

System: (+)-galactose + water; phases: Liquid, Gas
Fixed: Temperature, K = 308.15
Property: Osmotic coefficient (Liquid); method: omometer
Molality, mol/kg of (+)-galactose	Osmotic coefficient	uncertainty
0.0558	0.9999	0.002
0.1149	1.0009	0.002
0.1727	1.0036	0.002
0.2306	1.0028	0.002
0.2878	1.0045	0.002
0.3548	1.0057	0.002
0.4098	1.0058	0.002
0.4829	1.0066	0.002
0.5526	1.008	0.002
0.6174	1.0081	0.002
0.6818	1.0089	0.002
0.7847	1.0097	0.002
0.8958	1.0113	0.002
1.0093	1.0119	0.002
1.1379	1.013	0.0021
1.3084	1.0158	0.0021
1.8502	1.0248	0.0022
2.6098	1.045	0.0026

System: D-fructose + water; phases: Liquid, Gas
Fixed: Temperature, K = 308.15
Property: Osmotic coefficient (Liquid); method: omometer
Molality, mol/kg of D-fructose	Osmotic coefficient	uncertainty
0.0559	0.9986	0.002
0.1125	0.9958	0.002
0.1714	0.9944	0.002
0.2296	0.9949	0.002
0.2923	0.9947	0.002
0.3466	0.9945	0.002
0.4185	0.9946	0.002
0.4792	0.9949	0.002
0.5468	0.9947	0.002
0.614	0.9951	0.002
0.6925	0.9951	0.002
0.7872	0.9955	0.002
0.9018	0.995	0.002
1.0224	0.9947	0.002
1.1389	0.9949	0.002
1.2655	0.9949	0.002
1.7407	0.9972	0.002
2.4014	1.0057	0.002
2.9503	1.0142	0.0021
3.6246	1.0266	0.0022
5.4239	1.0685	0.0031

System: D-glucose + water; phases: Liquid, Gas
Fixed: Temperature, K = 308.15
Property: Osmotic coefficient (Liquid); method: omometer
Molality, mol/kg of D-glucose	Osmotic coefficient	uncertainty
0.0557	1.0023	0.002
0.1126	1.005	0.002
0.1685	1.0044	0.002
0.2236	1.0035	0.002
0.2913	1.0041	0.002
0.3539	1.0049	0.002
0.4081	1.0057	0.002
0.4775	1.0059	0.002
0.5382	1.0062	0.002
0.5708	1.0077	0.002
0.6209	1.0075	0.002
0.6815	1.0085	0.002
0.7347	1.0086	0.002
0.7963	1.0087	0.002
0.9085	1.0102	0.002
1.0193	1.0115	0.002
1.1093	1.0139	0.0021
1.215	1.0151	0.0021
1.3226	1.0169	0.0021
1.5688	1.0225	0.0022
1.8406	1.0301	0.0023
2.3864	1.0437	0.0025
2.9452	1.0609	0.0029
3.6262	1.0783	0.0034
4.847	1.1102	0.0044

System: D-mannose + water; phases: Liquid, Gas
Fixed: Temperature, K = 308.15
Property: Osmotic coefficient (Liquid); method: omometer
Molality, mol/kg of D-mannose	Osmotic coefficient	uncertainty
0.1128	0.9933	0.002
0.2298	0.989	0.002
0.3533	0.984	0.0021
0.4798	0.9828	0.0021
0.6097	0.9824	0.0021
0.7659	0.9832	0.0021
0.9375	0.9836	0.0021
1.117	0.9842	0.0021
1.3041	0.9852	0.0021
1.829	0.9903	0.002
2.5437	0.9978	0.002
3.6589	1.017	0.0021

System: D-sucrose + water; phases: Liquid, Gas
Fixed: Temperature, K = 308.15
Property: Osmotic coefficient (Liquid); method: omometer
Molality, mol/kg of D-sucrose	Osmotic coefficient	uncertainty
0.0296	0.9997	0.002
0.0581	1.0007	0.002
0.0904	1.0078	0.002
0.1209	1.013	0.0021
0.1534	1.0169	0.0021
0.1988	1.0193	0.0021
0.2535	1.0253	0.0022
0.3157	1.0283	0.0022
0.3938	1.0319	0.0023
0.477	1.0352	0.0024
0.5567	1.0393	0.0024
0.5822	1.0405	0.0025
0.648	1.0417	0.0025
0.7265	1.0471	0.0026
0.8492	1.0528	0.0027
0.971	1.0585	0.0029
1.0875	1.0651	0.003
1.1856	1.0675	0.0031
1.2747	1.0741	0.0033
1.9957	1.1486	0.0058
2.6794	1.2015	0.0078
3.4118	1.2484	0.0096
3.9268	1.2757	0.0107

System: D-sorbitol + water; phases: Liquid, Gas
Fixed: Temperature, K = 308.15
Property: Osmotic coefficient (Liquid); method: omometer
Molality, mol/kg of D-sorbitol	Osmotic coefficient	uncertainty
0.0278	0.9979	0.002
0.0558	1.0008	0.002
0.111	0.9992	0.002
0.1676	1.0032	0.002
0.2296	1.0022	0.002
0.2892	1.0035	0.002
0.3523	1.0028	0.002
0.4124	1.0037	0.002
0.4781	1.0033	0.002
0.5436	1.0028	0.002
0.6109	1.0031	0.002
0.6764	1.0033	0.002
0.7778	1.0033	0.002
0.8812	1.0035	0.002
0.9996	1.0044	0.002
1.1116	1.0056	0.002
1.2843	1.0075	0.002
1.723	1.0129	0.0021
2.3421	1.0272	0.0022
2.9559	1.0411	0.0025
3.6449	1.0572	0.0028

System: 4-O-.beta.-D-galactopyranosyl-D-glucose + water; phases: Liquid, Gas
Fixed: Temperature, K = 308.15
Property: Osmotic coefficient (Liquid); method: omometer
Molality, mol/kg of 4-O-.beta.-D-galactopyranosyl-D-glucose	Osmotic coefficient	uncertainty
0.014	0.9946	0.002
0.0578	1.0106	0.002
0.1025	1.0223	0.0022
0.1286	1.0299	0.0023
0.1795	1.0465	0.0026
0.2313	1.0575	0.0029
0.2909	1.0645	0.003
0.3217	1.0665	0.0031

System: D-maltose + water; phases: Liquid, Gas
Fixed: Temperature, K = 308.15
Property: Osmotic coefficient (Liquid); method: omometer
Molality, mol/kg of D-maltose	Osmotic coefficient	uncertainty
0.014	0.9905	0.0021
0.0284	1.0036	0.002
0.0503	0.9985	0.002
0.0732	1.0034	0.002
0.1035	1.007	0.002
0.1369	1.0123	0.002
0.1528	1.0138	0.0021
0.187	1.0173	0.0021
0.2237	1.02	0.0029
0.2526	1.0218	0.0022
0.287	1.0236	0.0047
0.3401	1.027	0.0022
0.4077	1.0304	0.0023
0.4756	1.0363	0.0024
0.5543	1.0429	0.0025
0.2313	1.0575	0.0029
0.2909	1.0645	0.0052
0.3217	1.0665	0.0031

System: D-raffinose + water; phases: Liquid, Gas
Fixed: Temperature, K = 308.15
Property: Osmotic coefficient (Liquid); method: omometer
Molality, mol/kg of D-raffinose	Osmotic coefficient	uncertainty
0.0343	1.0015	0.002
0.1059	1.0253	0.0022
0.1837	1.0401	0.0025
0.2667	1.0623	0.003
0.3581	1.0832	0.0036
0.4515	1.1172	0.0046
0.4902	1.134	0.0052
0.6205	1.1677	0.0065

System: 4-O-.alpha.-D-glucopyranosyl-D-glucitol + water; phases: Liquid, Gas
Fixed: Temperature, K = 308.15
Property: Osmotic coefficient (Liquid); method: omometer
Molality, mol/kg of 4-O-.alpha.-D-glucopyranosyl-D-glucitol	Osmotic coefficient	uncertainty
0.0292	0.9903	0.002
0.1187	0.9976	0.002
0.219	1.0116	0.002
0.3226	1.0186	0.0021
0.4282	1.0276	0.0022
0.5127	1.0308	0.0023
0.5925	1.0322	0.0023
0.774	1.0489	0.0026
0.9158	1.0599	0.0029
1.0543	1.0665	0.0031
1.2607	1.0814	0.0035
1.9178	1.151	0.0058
2.6448	1.2172	0.0084
3.5914	1.2724	0.0106
