Measured thermophysical data. Thermal conductivity of heavy, even-carbon number n-alkanes (C22 to C32)
Source: Fluid Phase Equilib., 2018, 10.1016/j.fluid.2018.08.016
Compound 1: dodecane, C12H26, InChI=1S/C12H26/c1-3-5-7-9-11-12-10-8-6-4-2/h3-12H2,1-2H3, purity 99.99%
Compound 2: docosane, C22H46, InChI=1S/C22H46/c1-3-5-7-9-11-13-15-17-19-21-22-20-18-16-14-12-10-8-6-4-2/h3-22H2,1-2H3, purity 99%
Compound 3: tetracosane, C24H50, InChI=1S/C24H50/c1-3-5-7-9-11-13-15-17-19-21-23-24-22-20-18-16-14-12-10-8-6-4-2/h3-24H2,1-2H3, purity 99%
Compound 4: hexacosane, C26H54, InChI=1S/C26H54/c1-3-5-7-9-11-13-15-17-19-21-23-25-26-24-22-20-18-16-14-12-10-8-6-4-2/h3-26H2,1-2H3, purity 99%
Compound 5: octacosane, C28H58, InChI=1S/C28H58/c1-3-5-7-9-11-13-15-17-19-21-23-25-27-28-26-24-22-20-18-16-14-12-10-8-6-4-2/h3-28H2,1-2H3, purity 99%
Compound 6: triacontane, C30H62, InChI=1S/C30H62/c1-3-5-7-9-11-13-15-17-19-21-23-25-27-29-30-28-26-24-22-20-18-16-14-12-10-8-6-4-2/h3-30H2,1-2H3, purity 98%
Compound 7: dotriacontane, C32H66, InChI=1S/C32H66/c1-3-5-7-9-11-13-15-17-19-21-23-25-27-29-31-32-30-28-26-24-22-20-18-16-14-12-10-8-6-4-2/h3-32H2,1-2H3, purity 97%

System: dodecane; phases: Liquid
Fixed: Pressure, kPa = 101.325
Property: Thermal conductivity, W/m/K (Liquid); method: Modified transient plane source method
Temperature, K	Thermal conductivity, W/m/K	uncertainty
318.2	0.135	0.004
323.2	0.134	0.005
328.1	0.133	0.005
333.1	0.131	0.005
337.7	0.13	0.005
343.2	0.128	0.005
347.9	0.127	0.005
352.8	0.127	0.005

System: docosane; phases: Crystal 2, Crystal 1, Air at 1 atmosphere
Property: Triple point temperature, K (Crystal 2); method: DSC
Triple point temperature, K	uncertainty
315.6	0.8

System: docosane; phases: Crystal 1, Liquid, Air at 1 atmosphere
Property: Normal melting temperature, K (Crystal 1); method: DTA
Normal melting temperature, K	uncertainty
316.6	0.5

System: docosane; phases: Crystal 2, Crystal 1, Air at 1 atmosphere
Property: Molar enthalpy of transition or fusion, kJ/mol (Crystal 2); method: DSC
Molar enthalpy of transition or fusion, kJ/mol	uncertainty
28.947979648	1.08710224

System: docosane; phases: Crystal 1, Liquid, Air at 1 atmosphere
Property: Molar enthalpy of transition or fusion, kJ/mol (Crystal 1); method: DSC
Molar enthalpy of transition or fusion, kJ/mol	uncertainty
41.496245504	1.521943136

System: docosane; phases: Liquid
Fixed: Pressure, kPa = 101.325
Property: Thermal conductivity, W/m/K (Liquid); method: Modified transient plane source method
Temperature, K	Thermal conductivity, W/m/K	uncertainty
318.1	0.151	0.005
323	0.15	0.005
328.1	0.148	0.005
333	0.146	0.005
337.7	0.145	0.005
343	0.144	0.005
347.9	0.143	0.005
353	0.142	0.005

System: docosane; phases: Crystal 2
Fixed: Pressure, kPa = 101.325
Property: Thermal conductivity, W/m/K (Crystal 2); method: Modified transient plane source method
Temperature, K	Thermal conductivity, W/m/K	uncertainty
297.6	0.624	0.039
302.4	0.668	0.041
307.9	0.637	0.04

System: tetracosane; phases: Crystal 2, Crystal 1, Air at 1 atmosphere
Property: Triple point temperature, K (Crystal 2); method: DSC
Triple point temperature, K	uncertainty
320.8	0.8

System: tetracosane; phases: Crystal 1, Liquid, Air at 1 atmosphere
Property: Normal melting temperature, K (Crystal 1); method: DTA
Normal melting temperature, K	uncertainty
323.1	0.5

System: tetracosane; phases: Crystal 2, Crystal 1, Air at 1 atmosphere
Property: Molar enthalpy of transition or fusion, kJ/mol (Crystal 2); method: DSC
Molar enthalpy of transition or fusion, kJ/mol	uncertainty
30.9868227	1.76099976

System: tetracosane; phases: Crystal 1, Liquid, Air at 1 atmosphere
Property: Molar enthalpy of transition or fusion, kJ/mol (Crystal 1); method: DSC
Molar enthalpy of transition or fusion, kJ/mol	uncertainty
51.00126228	5.31686466

System: tetracosane; phases: Liquid
Fixed: Pressure, kPa = 101.325
Property: Thermal conductivity, W/m/K (Liquid); method: Modified transient plane source method
Temperature, K	Thermal conductivity, W/m/K	uncertainty
323.1	0.152	0.005
328	0.151	0.005
333	0.149	0.005
337.6	0.148	0.005
343.1	0.146	0.005
348	0.146	0.005
353	0.145	0.006

System: tetracosane; phases: Crystal 2
Fixed: Pressure, kPa = 101.325
Property: Thermal conductivity, W/m/K (Crystal 2); method: Modified transient plane source method
Temperature, K	Thermal conductivity, W/m/K	uncertainty
297.6	0.594	0.036
302.3	0.545	0.033
307.7	0.545	0.033
312.9	0.603	0.036

System: hexacosane; phases: Crystal 2, Crystal 1, Air at 1 atmosphere
Property: Triple point temperature, K (Crystal 2); method: DSC
Triple point temperature, K	uncertainty
325.7	0.8

System: hexacosane; phases: Crystal 1, Liquid, Air at 1 atmosphere
Property: Normal melting temperature, K (Crystal 1); method: DTA
Normal melting temperature, K	uncertainty
328.8	0.5

System: hexacosane; phases: Crystal 2, Crystal 1, Air at 1 atmosphere
Property: Molar enthalpy of transition or fusion, kJ/mol (Crystal 2); method: DSC
Molar enthalpy of transition or fusion, kJ/mol	uncertainty
30.840055336	1.246803664

System: hexacosane; phases: Crystal 1, Liquid, Air at 1 atmosphere
Property: Molar enthalpy of transition or fusion, kJ/mol (Crystal 1); method: DSC
Molar enthalpy of transition or fusion, kJ/mol	uncertainty
55.336080264	3.520386816

System: hexacosane; phases: Liquid
Fixed: Pressure, kPa = 101.325
Property: Thermal conductivity, W/m/K (Liquid); method: Modified transient plane source method
Temperature, K	Thermal conductivity, W/m/K	uncertainty
333	0.151	0.005
337.8	0.15	0.005
343.1	0.149	0.006
348	0.148	0.005
353.1	0.147	0.005

System: hexacosane; phases: Crystal 2
Fixed: Pressure, kPa = 101.325
Property: Thermal conductivity, W/m/K (Crystal 2); method: Modified transient plane source method
Temperature, K	Thermal conductivity, W/m/K	uncertainty
297.6	0.499	0.031
302.4	0.524	0.031
307.8	0.484	0.032
312.7	0.513	0.032
318.5	0.574	0.036

System: octacosane; phases: Crystal 2, Crystal 1, Air at 1 atmosphere
Property: Triple point temperature, K (Crystal 2); method: DSC
Triple point temperature, K	uncertainty
330.4	0.8

System: octacosane; phases: Crystal 1, Liquid, Air at 1 atmosphere
Property: Normal melting temperature, K (Crystal 1); method: DTA
Normal melting temperature, K	uncertainty
333.4	1

System: octacosane; phases: Crystal 2, Crystal 1, Air at 1 atmosphere
Property: Molar enthalpy of transition or fusion, kJ/mol (Crystal 2); method: DSC
Molar enthalpy of transition or fusion, kJ/mol	uncertainty
35.094174668	1.302708396

System: octacosane; phases: Crystal 1, Liquid, Air at 1 atmosphere
Property: Molar enthalpy of transition or fusion, kJ/mol (Crystal 1); method: DSC
Molar enthalpy of transition or fusion, kJ/mol	uncertainty
63.35899926	2.289608696

System: octacosane; phases: Liquid
Fixed: Pressure, kPa = 101.325
Property: Thermal conductivity, W/m/K (Liquid); method: Modified transient plane source method
Temperature, K	Thermal conductivity, W/m/K	uncertainty
337.7	0.152	0.005
343.1	0.151	0.005
348	0.149	0.005
353	0.149	0.005

System: octacosane; phases: Crystal 2
Fixed: Pressure, kPa = 101.325
Property: Thermal conductivity, W/m/K (Crystal 2); method: Modified transient plane source method
Temperature, K	Thermal conductivity, W/m/K	uncertainty
297.7	0.514	0.031
302.4	0.489	0.03
308	0.471	0.029
312.7	0.469	0.028
318.6	0.473	0.031
323.4	0.505	0.032

System: triacontane; phases: Crystal 2, Crystal 1, Air at 1 atmosphere
Property: Triple point temperature, K (Crystal 2); method: DSC
Triple point temperature, K	uncertainty
334.2	0.8

System: triacontane; phases: Crystal 1, Liquid, Air at 1 atmosphere
Property: Normal melting temperature, K (Crystal 1); method: DTA
Normal melting temperature, K	uncertainty
337.1	1.5

System: triacontane; phases: Crystal 2, Crystal 1, Air at 1 atmosphere
Property: Molar enthalpy of transition or fusion, kJ/mol (Crystal 2); method: DSC
Molar enthalpy of transition or fusion, kJ/mol	uncertainty
37.799507232	1.395283824

System: triacontane; phases: Crystal 1, Liquid, Air at 1 atmosphere
Property: Molar enthalpy of transition or fusion, kJ/mol (Crystal 1); method: DSC
Molar enthalpy of transition or fusion, kJ/mol	uncertainty
69.891035184	2.53687968

System: triacontane; phases: Liquid
Fixed: Pressure, kPa = 101.325
Property: Thermal conductivity, W/m/K (Liquid); method: Modified transient plane source method
Temperature, K	Thermal conductivity, W/m/K	uncertainty
343.1	0.153	0.005
348	0.152	0.005
353.5	0.151	0.005

System: triacontane; phases: Crystal 2
Fixed: Pressure, kPa = 101.325
Property: Thermal conductivity, W/m/K (Crystal 2); method: Modified transient plane source method
Temperature, K	Thermal conductivity, W/m/K	uncertainty
297.7	0.616	0.038
302.3	0.603	0.036
307.8	0.556	0.034
312.6	0.612	0.037
318.5	0.559	0.035
323.3	0.514	0.033
328	0.536	0.034

System: dotriacontane; phases: Crystal 2, Crystal 1, Air at 1 atmosphere
Property: Triple point temperature, K (Crystal 2); method: DSC
Triple point temperature, K	uncertainty
338.1	0.8

System: dotriacontane; phases: Crystal 1, Liquid, Air at 1 atmosphere
Property: Normal melting temperature, K (Crystal 1); method: DTA
Normal melting temperature, K	uncertainty
342	0.5

System: dotriacontane; phases: Crystal 2, Crystal 1, Air at 1 atmosphere
Property: Molar enthalpy of transition or fusion, kJ/mol (Crystal 2); method: DSC
Molar enthalpy of transition or fusion, kJ/mol	uncertainty
38.909773772	1.532945896

System: dotriacontane; phases: Crystal 1, Liquid, Air at 1 atmosphere
Property: Molar enthalpy of transition or fusion, kJ/mol (Crystal 1); method: DSC
Molar enthalpy of transition or fusion, kJ/mol	uncertainty
75.475042056	2.885545216

System: dotriacontane; phases: Liquid
Fixed: Pressure, kPa = 101.325
Property: Thermal conductivity, W/m/K (Liquid); method: Modified transient plane source method
Temperature, K	Thermal conductivity, W/m/K	uncertainty
343	0.153	0.006
348	0.152	0.006
353.1	0.149	0.005

System: dotriacontane; phases: Crystal 2
Fixed: Pressure, kPa = 101.325
Property: Thermal conductivity, W/m/K (Crystal 2); method: Modified transient plane source method
Temperature, K	Thermal conductivity, W/m/K	uncertainty
297.7	0.574	0.034
302.3	0.574	0.036
307.5	0.585	0.036
312.8	0.607	0.038
318	0.585	0.037
323.1	0.561	0.035
328	0.588	0.036
332.6	0.621	0.038
