Measured thermophysical data. Water diffusivity in a mixed phase binary system: Effective water diffusion coefficients in tetradecanol - eicosanol mixtures
Source: Fluid Phase Equilib., 2014, 10.1016/j.fluid.2014.07.021
Compound 1: water, H2O, InChI=1S/H2O/h1H2, purity 99%
Compound 2: 1-tetradecanol, C14H30O, InChI=1S/C14H30O/c1-2-3-4-5-6-7-8-9-10-11-12-13-14-15/h15H,2-14H2,1H3, purity 99%
Compound 3: 1-eicosanol, C20H42O, InChI=1S/C20H42O/c1-2-3-4-5-6-7-8-9-10-11-12-13-14-15-16-17-18-19-20-21/h21H,2-20H2,1H3, purity 98%

System: 1-tetradecanol; phases: Crystal, Liquid, Air at 1 atmosphere
Property: Normal melting temperature, K (Crystal); method: DTA
Normal melting temperature, K	uncertainty
311	2

System: 1-eicosanol; phases: Crystal, Liquid, Air at 1 atmosphere
Property: Normal melting temperature, K (Crystal); method: DTA
Normal melting temperature, K	uncertainty
337	2

System: 1-tetradecanol + 1-eicosanol + water; phases: Liquid, Crystal, Gas
Fixed: Solvent: Mole fraction of 1-tetradecanol = 0.87
Fixed: Temperature, K = 313
Property: Binary diffusion coefficient, m2/s (Liquid); method: FTIR
Binary diffusion coefficient, m2/s	uncertainty
1.7e-10	0.08
1.3e-10	0.02
5e-11	0.02

System: 1-tetradecanol + 1-eicosanol + water; phases: Liquid, Gas
Fixed: Pressure, kPa = 101
Fixed: Temperature, K = 313
Property: Binary diffusion coefficient, m2/s (Liquid); method: FTIR
Solvent: Mole fraction of 1-tetradecanol	Binary diffusion coefficient, m2/s	uncertainty
1	3.1e-10	0.04
0.95	3.2e-10	0.08
0.88	3.5e-10	0.08

System: 1-tetradecanol + 1-eicosanol; phases: Crystal, Crystal, Liquid, Air at 1 atmosphere
Property: Eutectic temperature, K (Crystal); method: DTA
Eutectic temperature, K	uncertainty
306.7	0.8

System: 1-tetradecanol + 1-eicosanol; phases: Crystal, Crystal, Liquid, Air at 1 atmosphere
Property: Eutectic composition: mole fraction of 1-tetradecanol (Crystal); method: DSC
Eutectic composition: mole fraction of 1-tetradecanol	uncertainty
0.88	0.01

System: 1-tetradecanol + 1-eicosanol; phases: Liquid, Crystal
Fixed: Pressure, kPa = 101
Property: Solid-liquid equilibrium temperature, K (Liquid); method: DTA
Mole fraction of 1-tetradecanol	Solid-liquid equilibrium temperature, K	uncertainty
0	337.4	2
0.2	334.9	2
0.25	332	6
0.32	333.1	2
0.43	330.8	2
0.58	327.2	2
0.59	326.4	2
0.61	326.5	4
0.67	323.5	2
0.69	323.9	2
0.7	324.4	2
0.73	322	4
0.76	315.9	4
0.8	314.2	2
0.8	313.6	2
0.84	309.8	2

System: 1-tetradecanol + 1-eicosanol; phases: Liquid, Crystal
Fixed: Pressure, kPa = 101
Property: Solid-liquid equilibrium temperature, K (Liquid); method: DTA
Mole fraction of 1-tetradecanol	Solid-liquid equilibrium temperature, K	uncertainty
0.93	307.7	1.3
0.96	308.6	1.3
1	311.4	2

System: 1-tetradecanol + 1-eicosanol; phases: Liquid, Crystal
Fixed: Pressure, kPa = 101
Property: Solid-liquid equilibrium temperature, K (Liquid); method: IR
Mole fraction of 1-tetradecanol	Solid-liquid equilibrium temperature, K	uncertainty
0	335	4
0.2	332	4
0.25	332	4
0.25	327	4
0.43	327	4
0.43	328	4
0.58	326	4
0.73	318	2

System: 1-tetradecanol + 1-eicosanol; phases: Liquid, Crystal
Property: Solid-liquid equilibrium temperature, K (Liquid); method: IR
Mole fraction of 1-tetradecanol	Pressure, kPa	Solid-liquid equilibrium temperature, K	uncertainty
1	101	311	2
