Measured thermophysical data. Thermal behavior and heat capacities of pyrrolidinium-based ionic liquids by DSC
Source: Fluid Phase Equilib., 2018, 10.1016/j.fluid.2018.04.003
Compound 1: 1-ethyl-1-methylpyrrolidinium bis[(trifluoromethyl)sulfonyl]imide, C9H16F6N2O4S2, InChI=1S/C7H16N.C2F6NO4S2/c1-3-8(2)6-4-5-7-8;3-1(4,5)14(10,11)9-15(12,13)2(6,7)8/h3-7H2,1-2H3;/q+1;-1, purity 99%
Compound 2: 1-methyl-1-propylpyrrolidinium bis[(trifluoromethyl)sulfonyl]imide, C10H18F6N2O4S2, InChI=1S/C8H18N.C2F6NO4S2/c1-3-6-9(2)7-4-5-8-9;3-1(4,5)14(10,11)9-15(12,13)2(6,7)8/h3-8H2,1-2H3;/q+1;-1, purity 99%
Compound 3: 1-butyl-1-methylpyrrolidinium bis[(trifluoromethyl)sulfonyl]imide, C11H20F6N2O4S2, InChI=1S/C9H20N.C2F6NO4S2/c1-3-4-7-10(2)8-5-6-9-10;3-1(4,5)14(10,11)9-15(12,13)2(6,7)8/h3-9H2,1-2H3;/q+1;-1, purity 99%
Compound 4: 1-butyl-1-methylpyrrolidinium dicyanamide, C11H20N4, InChI=1S/C9H20N.C2N3/c1-3-4-7-10(2)8-5-6-9-10;3-1-5-2-4/h3-9H2,1-2H3;/q+1;-1, purity 98%
Compound 5: 1-methyl-1-propylpyrrolidinium triflate, C9H18F3NO3S, InChI=1S/C8H18N.CHF3O3S/c1-3-6-9(2)7-4-5-8-9;2-1(3,4)8(5,6)7/h3-8H2,1-2H3;(H,5,6,7)/q+1;/p-1, purity 99%

System: 1-ethyl-1-methylpyrrolidinium bis[(trifluoromethyl)sulfonyl]imide; phases: Crystal 1, Liquid, Air at 1 atmosphere
Property: Normal melting temperature, K (Crystal 1); method: DTA
Normal melting temperature, K	uncertainty
362	2

System: 1-ethyl-1-methylpyrrolidinium bis[(trifluoromethyl)sulfonyl]imide; phases: Crystal 2, Crystal 1, Air at 1 atmosphere
Property: Triple point temperature, K (Crystal 2); method: DSC
Triple point temperature, K	uncertainty
312	2

System: 1-ethyl-1-methylpyrrolidinium bis[(trifluoromethyl)sulfonyl]imide; phases: Crystal 3, Crystal 2, Air at 1 atmosphere
Property: Triple point temperature, K (Crystal 3); method: DSC
Triple point temperature, K	uncertainty
288	2

System: 1-ethyl-1-methylpyrrolidinium bis[(trifluoromethyl)sulfonyl]imide; phases: Crystal 4, Crystal 3, Air at 1 atmosphere
Property: Triple point temperature, K (Crystal 4); method: DSC
Triple point temperature, K	uncertainty
180	2

System: 1-methyl-1-propylpyrrolidinium bis[(trifluoromethyl)sulfonyl]imide; phases: Crystal 1, Liquid, Air at 1 atmosphere
Property: Normal melting temperature, K (Crystal 1); method: DTA
Normal melting temperature, K	uncertainty
283	2

System: 1-methyl-1-propylpyrrolidinium bis[(trifluoromethyl)sulfonyl]imide; phases: Liquid
Fixed: Pressure, kPa = 101.325
Property: Molar heat capacity at constant pressure, J/K/mol (Liquid); method: DSC
Temperature, K	Molar heat capacity at constant pressure, J/K/mol	uncertainty
323.15	567	60
324.15	569	60
325.15	571	61
326.15	573	61
327.15	575	61
328.15	576	61
329.15	578	61
330.15	579	61
331.15	581	62
332.15	582	62
333.15	584	62
334.15	585	62
335.15	586	62
336.15	588	62
337.15	589	62
338.15	590	63
339.15	591	63
340.15	593	63
341.15	594	63
342.15	595	63
343.15	597	63
344.15	598	63
345.15	599	64
346.15	600	64
347.15	601	64
348.15	601	64
349.15	602	64
350.15	604	64
351.15	604	64
352.15	605	64
353.15	606	64

System: 1-butyl-1-methylpyrrolidinium bis[(trifluoromethyl)sulfonyl]imide; phases: Crystal, Liquid, Air at 1 atmosphere
Property: Normal melting temperature, K (Crystal); method: DTA
Normal melting temperature, K	uncertainty
262	2

System: 1-butyl-1-methylpyrrolidinium bis[(trifluoromethyl)sulfonyl]imide; phases: Metastable crystal, Liquid, Air at 1 atmosphere
Property: Normal melting temperature, K (Metastable crystal); method: DTA
Normal melting temperature, K	uncertainty
253	2

System: 1-butyl-1-methylpyrrolidinium bis[(trifluoromethyl)sulfonyl]imide; phases: Glass, Liquid, Air at 1 atmosphere
Property: Triple point temperature, K (Glass); method: DSC
Triple point temperature, K	uncertainty
183	2

System: 1-butyl-1-methylpyrrolidinium bis[(trifluoromethyl)sulfonyl]imide; phases: Liquid
Fixed: Pressure, kPa = 101.325
Property: Molar heat capacity at constant pressure, J/K/mol (Liquid); method: DSC
Temperature, K	Molar heat capacity at constant pressure, J/K/mol	uncertainty
293.15	566	60
294.15	568	60
295.15	569	60
296.15	570	60
297.15	571	61
298.15	572	61
299.15	573	61
300.15	574	61
301.15	574	61
302.15	575	61
303.15	576	61
304.15	577	61
305.15	578	61
306.15	578	61
307.15	579	61
308.15	580	62
309.15	581	62
310.15	581	62
311.15	582	62
312.15	583	62
313.15	583	62
314.15	584	62
315.15	585	62
316.15	585	62
317.15	586	62
318.15	587	62
319.15	588	62
320.15	588	62
321.15	589	62
322.15	590	63
323.15	590	63
324.15	591	63
325.15	592	63
326.15	593	63
327.15	593	63
328.15	594	63
329.15	595	63
330.15	596	63
331.15	596	63
332.15	597	63
333.15	598	63

System: 1-butyl-1-methylpyrrolidinium dicyanamide; phases: Glass, Liquid, Air at 1 atmosphere
Property: Triple point temperature, K (Glass); method: DSC
Triple point temperature, K	uncertainty
173	2

System: 1-butyl-1-methylpyrrolidinium dicyanamide; phases: Liquid
Fixed: Pressure, kPa = 101.325
Property: Molar heat capacity at constant pressure, J/K/mol (Liquid); method: DSC
Temperature, K	Molar heat capacity at constant pressure, J/K/mol	uncertainty
293.15	407	43
294.15	408	43
295.15	410	43
296.15	411	44
297.15	412	44
298.15	413	44
299.15	414	44
300.15	416	44
301.15	417	44
302.15	418	44
303.15	419	44
304.15	420	45
305.15	421	45
306.15	422	45
307.15	422	45
308.15	423	45
309.15	424	45
310.15	425	45
311.15	426	45
312.15	427	45
313.15	428	45
314.15	429	46
315.15	429	46
316.15	430	46
317.15	431	46
318.15	432	46
319.15	433	46
320.15	434	46
321.15	434	46
322.15	435	46
323.15	436	46
324.15	437	46
325.15	438	46
326.15	439	47
327.15	440	47
328.15	441	47
329.15	442	47
330.15	442	47
331.15	443	47
332.15	444	47
333.15	445	47

System: 1-methyl-1-propylpyrrolidinium triflate; phases: Crystal 1, Liquid, Air at 1 atmosphere
Property: Normal melting temperature, K (Crystal 1); method: DTA
Normal melting temperature, K	uncertainty
267	2

System: 1-methyl-1-propylpyrrolidinium triflate; phases: Crystal 2, Crystal 1, Air at 1 atmosphere
Property: Triple point temperature, K (Crystal 2); method: DSC
Triple point temperature, K	uncertainty
238	2

System: 1-methyl-1-propylpyrrolidinium triflate; phases: Liquid
Fixed: Pressure, kPa = 101.325
Property: Molar heat capacity at constant pressure, J/K/mol (Liquid); method: DSC
Temperature, K	Molar heat capacity at constant pressure, J/K/mol	uncertainty
293.15	432	46
294.15	434	46
295.15	435	46
296.15	437	46
297.15	438	46
298.15	439	47
299.15	441	47
300.15	442	47
301.15	443	47
302.15	444	47
303.15	445	47
304.15	446	47
305.15	448	48
306.15	449	48
307.15	450	48
308.15	451	48
309.15	452	48
310.15	453	48
311.15	454	48
312.15	455	48
313.15	456	48
314.15	457	48
315.15	458	49
316.15	459	49
317.15	460	49
318.15	460	49
319.15	461	49
320.15	462	49
321.15	463	49
322.15	464	49
323.15	465	49
324.15	466	49
325.15	467	50
326.15	468	50
327.15	469	50
328.15	470	50
329.15	471	50
330.15	472	50
331.15	473	50
332.15	474	50
333.15	475	50
