Measured thermophysical data. Establishing benchmarks for the Second Industrial Fluids Simulation Challenge
Source: Fluid Phase Equilib., 2005, 10.1016/j.fluid.2005.04.020
Compound 1: butanamide, C4H9NO, InChI=1S/C4H9NO/c1-2-3-4(5)6/h2-3H2,1H3,(H2,5,6)
Compound 2: ethanol, C2H6O, InChI=1S/C2H6O/c1-2-3/h3H,2H2,1H3
Compound 3: nitrogen, N2, InChI=1S/N2/c1-2
Compound 4: oxygen, O2, InChI=1S/O2/c1-2
Compound 5: methane, CH4, InChI=1S/CH4/h1H4
Compound 6: carbon dioxide, CO2, InChI=1S/CO2/c2-1-3
Compound 7: heptane, C7H16, InChI=1S/C7H16/c1-3-5-7-6-4-2/h3-7H2,1-2H3
Compound 8: water, H2O, InChI=1S/H2O/h1H2
Compound 9: 1-butanamine, C4H11N, InChI=1S/C4H11N/c1-2-3-4-5/h2-5H2,1H3

System: butanamide; phases: Crystal, Liquid, Air at 1 atmosphere
Property: Normal melting temperature, K (Crystal); method: DTA
Normal melting temperature, K	uncertainty
388.4	0.5

System: butanamide; phases: Liquid, Gas
Property: Vapor or sublimation pressure, kPa (Liquid); method: Ebulliometric method (Recirculating still)
Temperature, K	Vapor or sublimation pressure, kPa	uncertainty
422.25	6.33	0.19
423.41	6.67	0.2
423.46	6.67	0.2
423.48	6.67	0.2
424.66	7	0.21
425.7	7.33	0.22
425.77	7.33	0.22
425.78	7.33	0.22
426.89	7.67	0.23
427.8	8	0.24
427.89	8	0.24
427.93	8	0.24
430.86	9	0.27
433.38	10	0.3
433.47	10	0.3
433.5	10	0.3
437.48	11.67	0.35
440.96	13.33	0.4
440.96	13.33	0.4
440.99	13.33	0.4
452.12	20	0.6
460.47	26.66	0.8
460.49	26.66	0.8
467.23	33.33	1
472.9	40	1.2
472.92	40	1.2
475.48	43.33	1.3
477.78	46.66	1.4
477.87	46.66	1.4
480.09	50	1.5
482.21	53.33	1.6

System: ethanol + oxygen; phases: Liquid, Gas
Property: Vapor or sublimation pressure, kPa (Liquid); method: Closed cell (Static) method
Mole fraction of oxygen	Temperature, K	Vapor or sublimation pressure, kPa	uncertainty
0.000148	323	3496	1400
0.000171	373	3489	1400
0.000223	323	5219	1400
0.000241	373	5116	1400
0.000298	323	6909	1400
0.000329	373	6929	1400

System: ethanol + oxygen; phases: Gas, Liquid
Property: Mole fraction of oxygen (Gas); method: mass balance/known volume
Mole fraction of oxygen	Temperature, K	Mole fraction of oxygen	uncertainty
0.000148	323	0.00816	0.00033
0.000171	373	0.00836	0.00033
0.000223	323	0.0083	0.00033
0.000241	373	0.00832	0.00033
0.000298	323	0.0085	0.00034
0.000329	373	0.00857	0.00034

System: ethanol + nitrogen; phases: Liquid, Gas
Property: Vapor or sublimation pressure, kPa (Liquid); method: Closed cell (Static) method
Mole fraction of nitrogen	Temperature, K	Vapor or sublimation pressure, kPa	uncertainty
0.01253	323	3496	2661
0.01388	373	3509	1410
0.01819	323	5171	3629
0.02082	373	5219	1419
0.02422	323	6998	4741
0.02744	373	6909	1433

System: ethanol + nitrogen; phases: Gas, Liquid
Property: Mole fraction of nitrogen (Gas); method: gas burette
Mole fraction of nitrogen	Temperature, K	Mole fraction of nitrogen	uncertainty
0.01253	323	0.99159	0.00841
0.01388	373	0.93639	0.01873
0.01819	323	0.99432	0.00568
0.02082	373	0.95722	0.01914
0.02422	323	0.9958	0.0042
0.02744	373	0.96766	0.01935

System: ethanol + methane; phases: Liquid, Gas
Property: Mole fraction of methane (Liquid); method: mass balance/known volume
Temperature, K	Pressure, kPa	Mole fraction of methane	uncertainty
323	2119	0.02363	0.00165
323	2320	0.02565	0.0018
323	2337	0.02688	0.00188
373	2658	0.02702	0.00189

System: ethanol + carbon dioxide; phases: Liquid, Gas
Property: Mole fraction of carbon dioxide (Liquid); method: mass balance/known volume
Temperature, K	Pressure, kPa	Mole fraction of carbon dioxide	uncertainty
323	406.8	0.01739	0.00122
323	410.3	0.01703	0.00119
323	437.8	0.01931	0.00135
373	761.9	0.01701	0.0012
373	772.2	0.01789	0.00126
373	772.2	0.01753	0.00123

System: 1-butanamine + heptane; phases: Liquid, Gas
Fixed: Temperature, K = 298
Property: Excess molar enthalpy (molar enthalpy of mixing), kJ/mol (Liquid); method: Calvet calorimetry
Mole fraction of 1-butanamine	Excess molar enthalpy (molar enthalpy of mixing), kJ/mol	uncertainty
0.102	0.409	0.041
0.206	0.725	0.073
0.401	1.106	0.111
0.403	1.106	0.111
0.58	1.11	0.111
0.612	1.071	0.107
0.756	0.768	0.077

System: 1-butanamine + water; phases: Liquid, Gas
Fixed: Temperature, K = 298
Property: Excess molar enthalpy (molar enthalpy of mixing), kJ/mol (Liquid); method: Calvet calorimetry
Mole fraction of 1-butanamine	Excess molar enthalpy (molar enthalpy of mixing), kJ/mol	uncertainty
0.219	-2.136	0.214
0.24	-2.323	0.233
0.246	-2.283	0.229
0.41	-3.271	0.328
0.438	-3.204	0.321
0.613	-3.335	0.334
0.808	-2.023	0.203
