Measured thermophysical data. Measurement and prediction of phase equilibria of ethylene + methyl acrylate + poly(ethylene-co-methyl acrylate) systems
Source: Fluid Phase Equilib., 2018, 10.1016/j.fluid.2018.03.005
Compound 1: ethene, C2H4, InChI=1S/C2H4/c1-2/h1-2H2
Compound 2: methyl propenoate, C4H6O2, InChI=1S/C4H6O2/c1-3-4(5)6-2/h3H,1H2,2H3, purity 99%

System: ethene + methyl propenoate; phases: Liquid, Gas
Property: Vapor or sublimation pressure, kPa (Liquid); method: Closed cell (Static) method
Temperature, K	Mole fraction of ethene	Vapor or sublimation pressure, kPa	uncertainty
313.2	0.0947	1150	110
313.2	0.186	1940	110
313.2	0.1873	2140	110
313.2	0.262	2830	110
313.2	0.2886	3020	110
313.2	0.3236	3420	110
313.2	0.3687	3730	110
313.2	0.4386	4330	110
343.16	0.1827	2630	120
343.16	0.2563	3700	120
343.16	0.3282	4570	120
373.25	0.0694	1520	120
373.25	0.12	2320	120
373.25	0.1973	3610	120
373.25	0.3145	5720	120
373.25	0.3837	6910	120
393.19	0.1808	3760	120
393.19	0.1973	4070	120
393.19	0.2757	5670	120
393.19	0.3145	6400	120
393.19	0.3567	7200	120
393.19	0.4311	8540	120
393.19	0.4824	9430	120
