Measured thermophysical data. Isopiestic studies of thermodynamic properties of solutions of ampicillin sodium  and penicillin sodium in water at T = 298.15 K
Source: Fluid Phase Equilib., 2013, 10.1016/j.fluid.2012.11.011
Compound 1: Ampicillin Sodium, C16H18N3NaO4S, InChI=1S/C16H19N3O4S.Na/c1-16(2)11(15(22)23)19-13(21)10(14(19)24-16)18-12(20)9(17)8-6-4-3-5-7-8;/h3-7,9-11,14H,17H2,1-2H3,(H,18,20)(H,22,23);/q;+1/p-1/t9-,10-,11+,14-;/m1./s1, purity 97%
Compound 2: sodium (2S,5R,6R)-3,3-dimethyl-7-oxo-6-(2-phenylacetamido)-4-thia-1-azabicyclo[3.2.0]heptane-2-carboxylate, C16H17N2NaO4S, InChI=1S/C16H18N2O4S.Na/c1-16(2)12(15(21)22)18-13(20)11(14(18)23-16)17-10(19)8-9-6-4-3-5-7-9;/h3-7,11-12,14H,8H2,1-2H3,(H,17,19)(H,21,22);/q;+1/p-1/t11-,12+,14-;/m1./s1, purity 97%
Compound 3: water, H2O, InChI=1S/H2O/h1H2, purity 99.8%

System: Ampicillin Sodium + water; phases: Liquid
Fixed: Temperature, K = 298.15
Property: Osmotic coefficient (Liquid); method: ISOPIE
Molality, mol/kg of Ampicillin Sodium	Pressure, kPa	Osmotic coefficient	uncertainty
0	3.17	1	0.07
0.0754	3.162	0.885	0.123
0.1575	3.155	0.856	0.05
0.3044	3.145	0.714	0.071
0.3032	3.144	0.75	0.055
0.3871	3.139	0.705	0.077
0.4627	3.133	0.704	0.06
0.47	3.132	0.72	0.066
0.525	3.131	0.654	0.056
0.5325	3.131	0.648	0.058
0.5215	3.13	0.672	0.058
0.7507	3.119	0.597	0.056
0.6922	3.119	0.651	0.06
0.7007	3.119	0.644	0.06
0.6767	3.119	0.67	0.059
0.7369	3.118	0.617	0.059
0.8511	3.113	0.591	0.058
0.8284	3.113	0.612	0.059
0.8951	3.111	0.586	0.056
1.015	3.104	0.576	0.055
1.0293	3.103	0.578	0.091
0.9725	3.103	0.612	0.055
0.9835	3.102	0.612	0.075
1.0932	3.099	0.576	0.054
1.1342	3.098	0.564	0.054
1.369	3.081	0.575	0.054
1.3919	3.079	0.578	0.054
1.4758	3.076	0.563	0.057
1.6992	3.066	0.546	0.053
1.9122	3.052	0.548	0.053
2.398	3.032	0.514	0.053
2.3965	3.031	0.519	0.053
2.8554	3.011	0.498	0.053
2.8671	3.008	0.506	0.053
2.9582	3.006	0.499	0.053
2.9319	3.005	0.504	0.053
3.3011	2.982	0.513	0.053
3.8392	2.942	0.538	0.053
4.103	2.926	0.54	0.053
4.261	2.908	0.562	0.053
4.4394	2.901	0.553	0.053
5.6988	2.747	0.696	0.051
5.9914	2.654	0.822	0.051
6.7731	2.565	0.867	0.05
7.4678	2.467	0.93	0.05

System: sodium (2S,5R,6R)-3,3-dimethyl-7-oxo-6-(2-phenylacetamido)-4-thia-1-azabicyclo[3.2.0]heptane-2-carboxylate + water; phases: Liquid
Fixed: Temperature, K = 298.15
Property: Osmotic coefficient (Liquid); method: ISOPIE
Molality, mol/kg of sodium (2S,5R,6R)-3,3-dimethyl-7-oxo-6-(2-phenylacetamido)-4-thia-1-azabicyclo[3.2.0]heptane-2-carboxylate	Pressure, kPa	Osmotic coefficient	uncertainty
0	3.17	1	0.052
0.4044	3.126	0.966	0.066
0.457	3.123	0.903	0.066
1.085	3.091	0.647	0.054
1.073	3.089	0.672	0.054
1.28	3.068	0.705	0.053
1.757	3.05	0.61	0.053
1.757	3.049	0.616	0.053
2.001	3.033	0.612	0.052
2.334	3.009	0.618	0.053
2.326	3.007	0.629	0.053
2.366	3.007	0.62	0.053
2.489	3.006	0.592	0.053
2.483	3.002	0.608	0.052
2.704	2.989	0.603	0.052
2.675	2.989	0.61	0.052
2.627	2.986	0.63	0.052
3.303	2.958	0.582	0.052
3.558	2.93	0.612	0.052
3.429	2.93	0.636	0.052
3.9	2.919	0.585	0.052
3.775	2.901	0.652	0.052
5.709	2.757	0.678	0.051
7.416	2.623	0.708	0.051
7.249	2.606	0.749	0.051
9.136	2.452	0.779	0.051
9.082	2.442	0.796	0.051
