Measured thermophysical data. Experimental solubility data of various n-alkane waxes: effects of alkane chain length, alkane odd versus even carbon number structures, and solvent chemistry on solubility
Source: Fluid Phase Equilib., 2005, 10.1016/j.fluid.2004.10.021
Compound 1: tetracosane, C24H50, InChI=1S/C24H50/c1-3-5-7-9-11-13-15-17-19-21-23-24-22-20-18-16-14-12-10-8-6-4-2/h3-24H2,1-2H3, purity 99%
Compound 2: octacosane, C28H58, InChI=1S/C28H58/c1-3-5-7-9-11-13-15-17-19-21-23-25-27-28-26-24-22-20-18-16-14-12-10-8-6-4-2/h3-28H2,1-2H3, purity 99%
Compound 3: dotriacontane, C32H66, InChI=1S/C32H66/c1-3-5-7-9-11-13-15-17-19-21-23-25-27-29-31-32-30-28-26-24-22-20-18-16-14-12-10-8-6-4-2/h3-32H2,1-2H3, purity 97%
Compound 4: tritriacontane, C33H68, InChI=1S/C33H68/c1-3-5-7-9-11-13-15-17-19-21-23-25-27-29-31-33-32-30-28-26-24-22-20-18-16-14-12-10-8-6-4-2/h3-33H2,1-2H3, purity 98%
Compound 5: tetratriacontane, C34H70, InChI=1S/C34H70/c1-3-5-7-9-11-13-15-17-19-21-23-25-27-29-31-33-34-32-30-28-26-24-22-20-18-16-14-12-10-8-6-4-2/h3-34H2,1-2H3, purity 98%
Compound 6: tetracontane, C40H82, InChI=1S/C40H82/c1-3-5-7-9-11-13-15-17-19-21-23-25-27-29-31-33-35-37-39-40-38-36-34-32-30-28-26-24-22-20-18-16-14-12-10-8-6-4-2/h3-40H2,1-2H3, purity 98%
Compound 7: tetratetracontane, C44H90, InChI=1S/C44H90/c1-3-5-7-9-11-13-15-17-19-21-23-25-27-29-31-33-35-37-39-41-43-44-42-40-38-36-34-32-30-28-26-24-22-20-18-16-14-12-10-8-6-4-2/h3-44H2,1-2H3, purity 99%
Compound 8: heptane, C7H16, InChI=1S/C7H16/c1-3-5-7-6-4-2/h3-7H2,1-2H3, purity 99%
Compound 9: toluene, C7H8, InChI=1S/C7H8/c1-7-5-3-2-4-6-7/h2-6H,1H3, purity 99.5%
Compound 10: 1-methylnaphthalene, C11H10, InChI=1S/C11H10/c1-9-5-4-7-10-6-2-3-8-11(9)10/h2-8H,1H3, purity 95%
Compound 11: decahydronaphthalene, C10H18, InChI=1S/C10H18/c1-2-6-10-8-4-3-7-9(10)5-1/h9-10H,1-8H2, purity 98%
Compound 12: cyclohexane, C6H12, InChI=1S/C6H12/c1-2-4-6-5-3-1/h1-6H2, purity 99.9%
Compound 13: carbon disulfide, CS2, InChI=1S/CS2/c2-1-3, purity 99.9%
Compound 14: hexatriacontane, C36H74, InChI=1S/C36H74/c1-3-5-7-9-11-13-15-17-19-21-23-25-27-29-31-33-35-36-34-32-30-28-26-24-22-20-18-16-14-12-10-8-6-4-2/h3-36H2,1-2H3
Compound 15: 3,4-dithiahexane, C4H10S2, InChI=1S/C4H10S2/c1-3-5-6-4-2/h3-4H2,1-2H3

System: toluene + tetracosane; phases: Liquid, Crystal
Fixed: Pressure, kPa = 101.3
Property: Solid-liquid equilibrium temperature, K (Liquid); method: VISOBS
Mass fraction of tetracosane	Solid-liquid equilibrium temperature, K	uncertainty
0.0145	276.85	0.4
0.0202	279.15	0.4
0.0302	282.05	0.4
0.0401	283.95	0.4
0.0778	288.95	0.4

System: toluene + octacosane; phases: Liquid, Crystal
Fixed: Pressure, kPa = 101.3
Property: Solid-liquid equilibrium temperature, K (Liquid); method: VISOBS
Mass fraction of octacosane	Solid-liquid equilibrium temperature, K	uncertainty
0.004	279.95	0.4
0.0067	283.15	0.4
0.0103	285.85	0.4
0.0202	290.15	0.4
0.0301	292.55	0.4
0.058	297.05	0.4
0.0966	301.45	0.4

System: toluene + dotriacontane; phases: Liquid, Crystal
Fixed: Pressure, kPa = 101.3
Property: Solid-liquid equilibrium temperature, K (Liquid); method: VISOBS
Mass fraction of dotriacontane	Solid-liquid equilibrium temperature, K	uncertainty
0.0034	288.95	0.4
0.0065	292.85	0.4
0.0067	292.65	0.4
0.0102	295.55	0.4
0.0198	299.15	0.4
0.0302	301.65	0.4
0.0404	303.35	0.4
0.0791	308.05	0.4

System: toluene + tritriacontane; phases: Liquid, Crystal
Fixed: Pressure, kPa = 101.3
Property: Solid-liquid equilibrium temperature, K (Liquid); method: VISOBS
Mass fraction of tritriacontane	Solid-liquid equilibrium temperature, K	uncertainty
0.0035	290.25	0.4
0.0072	294.35	0.4
0.01	296.15	0.4
0.02	300.05	0.4
0.0302	302.55	0.4
0.0399	304.25	0.4

System: toluene + tetratriacontane; phases: Liquid, Crystal
Fixed: Pressure, kPa = 101.3
Property: Solid-liquid equilibrium temperature, K (Liquid); method: VISOBS
Mass fraction of tetratriacontane	Solid-liquid equilibrium temperature, K	uncertainty
0.0035	293.55	0.4
0.0069	297.05	0.4
0.01	299.05	0.4
0.02	303.15	0.4
0.03	305.45	0.4
0.0407	307.05	0.4

System: toluene + hexatriacontane; phases: Liquid, Crystal
Fixed: Pressure, kPa = 101.3
Property: Solid-liquid equilibrium temperature, K (Liquid); method: VISOBS
Mass fraction of hexatriacontane	Solid-liquid equilibrium temperature, K	uncertainty
0.0031	297.95	0.4
0.0066	301.55	0.4
0.01	303.35	0.4
0.02	306.85	0.4
0.0302	309.15	0.4
0.0401	310.55	0.4
0.0797	314.45	0.4
0.1203	317.15	0.4

System: toluene + tetracontane; phases: Liquid, Crystal
Fixed: Pressure, kPa = 101.3
Property: Solid-liquid equilibrium temperature, K (Liquid); method: VISOBS
Mass fraction of tetracontane	Solid-liquid equilibrium temperature, K	uncertainty
0.0032	304.45	0.4
0.006	307.35	0.4
0.01	309.35	0.4
0.02	312.85	0.4
0.0302	315.25	0.4
0.04	316.85	0.4

System: toluene + tetratetracontane; phases: Liquid, Crystal
Fixed: Pressure, kPa = 101.3
Property: Solid-liquid equilibrium temperature, K (Liquid); method: VISOBS
Mass fraction of tetratetracontane	Solid-liquid equilibrium temperature, K	uncertainty
0.0034	311.45	0.4
0.0067	313.65	0.4
0.0101	315.65	0.4
0.0202	318.65	0.4
0.0301	320.65	0.4
0.0396	322.95	0.4

System: carbon disulfide + hexatriacontane; phases: Liquid, Crystal
Fixed: Pressure, kPa = 101.3
Property: Solid-liquid equilibrium temperature, K (Liquid); method: VISOBS
Mass fraction of hexatriacontane	Solid-liquid equilibrium temperature, K	uncertainty
0.0068	292.35	0.4
0.0121	295.25	0.4
0.02	297.65	0.4
0.0301	299.95	0.4
0.0404	301.35	0.4
0.08	305.75	0.4
0.116	308.25	0.4

System: cyclohexane + hexatriacontane; phases: Liquid, Crystal
Fixed: Pressure, kPa = 101.3
Property: Solid-liquid equilibrium temperature, K (Liquid); method: VISOBS
Mass fraction of hexatriacontane	Solid-liquid equilibrium temperature, K	uncertainty
0.006	294.55	0.4
0.0099	297.15	0.4
0.0204	300.95	0.4
0.0325	303.35	0.4
0.0406	304.85	0.4
0.0802	309.15	0.4
0.1198	311.95	0.4

System: decahydronaphthalene + hexatriacontane; phases: Liquid, Crystal
Fixed: Pressure, kPa = 101.3
Property: Solid-liquid equilibrium temperature, K (Liquid); method: VISOBS
Mass fraction of hexatriacontane	Solid-liquid equilibrium temperature, K	uncertainty
0.0033	295.75	0.4
0.0067	298.95	0.4
0.01	300.95	0.4
0.0201	305.05	0.4
0.0304	307.05	0.4
0.0401	308.45	0.4
0.0797	313.25	0.4
0.121	316.35	0.4

System: heptane + hexatriacontane; phases: Liquid, Crystal
Fixed: Pressure, kPa = 101.3
Property: Solid-liquid equilibrium temperature, K (Liquid); method: VISOBS
Mass fraction of hexatriacontane	Solid-liquid equilibrium temperature, K	uncertainty
0.003	298.25	0.4
0.0065	302.05	0.4
0.01	303.75	0.4
0.0201	307.35	0.4
0.0298	309.95	0.4
0.04	311.35	0.4
0.0797	315.85	0.4
0.1204	318.75	0.4

System: 1-methylnaphthalene + hexatriacontane; phases: Liquid, Crystal
Fixed: Pressure, kPa = 101.3
Property: Solid-liquid equilibrium temperature, K (Liquid); method: VISOBS
Mass fraction of hexatriacontane	Solid-liquid equilibrium temperature, K	uncertainty
0.0028	308.35	0.4
0.0066	312.25	0.4
0.0099	314.25	0.4
0.0205	317.85	0.4
0.0307	319.95	0.4
0.0406	321.35	0.4
0.08	325.15	0.4
0.12	327.05	0.4

System: 3,4-dithiahexane + hexatriacontane; phases: Liquid, Crystal
Property: Solid-liquid equilibrium temperature, K (Liquid); method: VISOBS
Mass fraction of hexatriacontane	Pressure, kPa	Solid-liquid equilibrium temperature, K	uncertainty
0.01	101.3	312.35	0.4

System: carbon disulfide + 1-methylnaphthalene + hexatriacontane; phases: Liquid, Crystal
Fixed: Pressure, kPa = 101.3
Fixed: Solvent: Mass fraction of carbon disulfide = 0.6421
Property: Solid-liquid equilibrium temperature, K (Liquid); method: VISOBS
Mass fraction of hexatriacontane	Solid-liquid equilibrium temperature, K	uncertainty
0.0033	294.15	0.42
0.0066	297.25	0.42
0.01	298.95	0.42
0.0197	302.45	0.42
0.0296	304.95	0.42
0.0393	306.55	0.42

System: 1-methylnaphthalene + decahydronaphthalene + hexatriacontane; phases: Liquid, Crystal
Fixed: Pressure, kPa = 101.3
Fixed: Solvent: Mass fraction of decahydronaphthalene = 0.6999
Property: Solid-liquid equilibrium temperature, K (Liquid); method: VISOBS
Mass fraction of hexatriacontane	Solid-liquid equilibrium temperature, K	uncertainty
0.0033	295.35	0.42
0.0066	298.65	0.42
0.01	300.95	0.42
0.0204	305.05	0.42
0.0306	307.55	0.42
0.0406	309.05	0.42

System: decahydronaphthalene + 3,4-dithiahexane + hexatriacontane; phases: Liquid, Crystal
Fixed: Pressure, kPa = 101.3
Fixed: Solvent: Mass fraction of decahydronaphthalene = 0.6976
Property: Solid-liquid equilibrium temperature, K (Liquid); method: VISOBS
Mass fraction of hexatriacontane	Solid-liquid equilibrium temperature, K	uncertainty
0.0099	302.25	0.42
0.02	305.95	0.42
