Measured thermophysical data. Experimental and predicted excess molar enthalpies for 1,4-dioxane + octane + cyclohexane at 303.15 K
Source: Fluid Phase Equilib., 2006, 10.1016/j.fluid.2006.03.020
Compound 1: 1,4-dioxane, C4H8O2, InChI=1S/C4H8O2/c1-2-6-4-3-5-1/h1-4H2, purity 99%
Compound 2: octane, C8H18, InChI=1S/C8H18/c1-3-5-7-8-6-4-2/h3-8H2,1-2H3, purity 99%
Compound 3: cyclohexane, C6H12, InChI=1S/C6H12/c1-2-4-6-5-3-1/h1-6H2, purity 99%

System: octane + 1,4-dioxane; phases: Liquid
Fixed: Temperature, K = 303.15
Fixed: Pressure, kPa = 101
Property: Excess molar enthalpy (molar enthalpy of mixing), kJ/mol (Liquid); method: Flow calorimetry
Mole fraction of 1,4-dioxane	Excess molar enthalpy (molar enthalpy of mixing), kJ/mol	uncertainty
0.0577	0.412	0.012
0.1002	0.675	0.013
0.151	0.956	0.013
0.2075	1.216	0.014
0.2491	1.396	0.015
0.3048	1.572	0.016
0.3676	1.739	0.017
0.4092	1.806	0.017
0.4536	1.874	0.017
0.507	1.892	0.017
0.5583	1.895	0.017
0.6089	1.833	0.017
0.6599	1.755	0.017
0.6959	1.674	0.016
0.7553	1.506	0.015
0.8045	1.314	0.015
0.8586	1.037	0.014
0.8997	0.802	0.013
0.9352	0.548	0.013

System: cyclohexane + octane; phases: Liquid
Fixed: Temperature, K = 303.15
Fixed: Pressure, kPa = 101
Property: Excess molar enthalpy (molar enthalpy of mixing), kJ/mol (Liquid); method: Flow calorimetry
Mole fraction of octane	Excess molar enthalpy (molar enthalpy of mixing), kJ/mol	uncertainty
0.0275	0.052	0.01
0.0507	0.08	0.01
0.0896	0.126	0.01
0.1482	0.173	0.01
0.1912	0.206	0.01
0.2487	0.23	0.01
0.2922	0.246	0.01
0.3709	0.259	0.01
0.4676	0.258	0.01
0.5738	0.24	0.01
0.642	0.216	0.01
0.7256	0.18	0.01
0.79	0.149	0.01
0.8267	0.124	0.01
0.869	0.099	0.01
0.8976	0.075	0.01

System: cyclohexane + 1,4-dioxane; phases: Liquid
Fixed: Temperature, K = 303.15
Fixed: Pressure, kPa = 101
Property: Excess molar enthalpy (molar enthalpy of mixing), kJ/mol (Liquid); method: Flow calorimetry
Mole fraction of 1,4-dioxane	Excess molar enthalpy (molar enthalpy of mixing), kJ/mol	uncertainty
0.0547	0.37	0.012
0.153	0.883	0.013
0.2558	1.262	0.014
0.3916	1.537	0.015
0.5072	1.588	0.016
0.6511	1.446	0.015
0.7029	1.32	0.014
0.7606	1.124	0.014
0.8499	0.79	0.013
0.9288	0.406	0.012

System: cyclohexane + octane + 1,4-dioxane; phases: Liquid
Fixed: Temperature, K = 303.15
Fixed: Pressure, kPa = 101
Property: Excess molar enthalpy (molar enthalpy of mixing), kJ/mol (Liquid); method: Flow calorimetry
Mole fraction of 1,4-dioxane	Mole fraction of octane	Excess molar enthalpy (molar enthalpy of mixing), kJ/mol	uncertainty
0.0119	0.0296	0.081	0.012
0.0168	0.0838	0.152	0.011
0.0241	0.1204	0.179	0.011
0.0288	0.0717	0.169	0.011
0.0324	0.1618	0.24	0.011
0.0375	0.0608	0.203	0.011
0.0403	0.0502	0.214	0.012
0.0418	0.2087	0.266	0.011
0.0446	0.1109	0.226	0.011
0.0497	0.2486	0.301	0.011
0.0545	0.1356	0.269	0.011
0.0579	0.0202	0.352	0.012
0.0622	0.0776	0.302	0.011
0.0664	0.3319	0.324	0.011
0.0678	0.1101	0.311	0.011
0.0726	0.1808	0.304	0.011
0.0756	0.3776	0.337	0.01
0.0788	0.3937	0.336	0.011
0.0798	0.3989	0.329	0.011
0.0811	0.1011	0.359	0.011
0.0839	0.4195	0.326	0.01
0.0905	0.1469	0.378	0.011
0.0916	0.0321	0.501	0.012
0.0936	0.233	0.348	0.011
0.0937	0.0104	0.59	0.013
0.094	0.4697	0.314	0.01
0.1009	0.5044	0.294	0.01
0.1048	0.1307	0.415	0.011
0.1074	0.5367	0.271	0.01
0.1105	0.2751	0.356	0.011
0.1167	0.5835	0.236	0.01
0.117	0.1899	0.425	0.011
0.1205	0.1503	0.446	0.011
0.1248	0.3107	0.383	0.011
0.1271	0.635	0.193	0.01
0.1334	0.6668	0.164	0.01
0.1347	0.0149	0.766	0.013
0.1355	0.0474	0.63	0.012
0.1395	0.2264	0.441	0.011
0.1431	0.3561	0.393	0.011
0.1438	0.7188	0.114	0.01
0.147	0.1833	0.472	0.011
0.1577	0.198	0.488	0.011
0.1586	0.7925	0.037	0.01
0.1596	0.3973	0.375	0.011
0.1653	0.2683	0.471	0.011
0.1699	0.2118	0.5	0.011
0.1708	0.4252	0.361	0.011
0.1736	0.0193	0.91	0.013
0.1891	0.2358	0.535	0.011
0.1898	0.0664	0.779	0.012
0.2	0.4979	0.288	0.01
0.2013	0.3267	0.464	0.011
0.2136	0.0237	1.014	0.014
0.2138	0.5323	0.243	0.01
0.2175	0.2713	0.536	0.011
0.2275	0.3691	0.429	0.011
0.228	0.2843	0.517	0.011
0.2296	0.5715	0.199	0.01
0.2305	0.3741	0.425	0.011
0.2436	0.0852	0.864	0.013
0.2577	0.6413	0.109	0.01
0.2602	0.0289	1.135	0.014
0.2626	0.4261	0.36	0.011
0.2697	0.3363	0.463	0.011
0.2729	0.6793	0.052	0.01
0.2866	0.1003	0.919	0.013
0.3039	0.4932	0.262	0.01
0.3062	0.034	1.245	0.015
0.3072	0.3831	0.415	0.011
0.3373	0.118	0.955	0.013
0.3384	0.5492	0.145	0.01
0.341	0.4252	0.337	0.011
0.3557	0.0395	1.289	0.015
0.3635	0.0404	1.29	0.015
0.3705	0.1297	0.956	0.013
0.3738	0.4661	0.235	0.011
0.4039	0.0449	1.312	0.015
0.4061	0.1421	0.934	0.015
0.4105	0.5119	0.114	0.01
0.4158	0.1455	0.926	0.015
0.4401	0.0489	1.317	0.015
0.4576	0.1601	0.853	0.012
0.4823	0.0536	1.287	0.015
0.5071	0.1775	0.771	0.012
0.5343	0.0593	1.224	0.014
0.5611	0.1964	0.625	0.012
0.5628	0.0625	1.175	0.014
0.6139	0.2148	0.48	0.012
0.6482	0.072	0.988	0.013
0.6628	0.2319	0.312	0.011
0.6921	0.0769	0.847	0.013
0.6972	0.244	0.175	0.011
0.7198	0.0799	0.772	0.013
0.761	0.0845	0.615	0.013
0.7988	0.0887	0.447	0.012
0.8397	0.0932	0.278	0.012
