Measured thermophysical data. Temperature dependence of ternary phase diagrams for water + sodium chloride + ethylene glycol monopropyl ether at atmospheric pressure
Source: Fluid Phase Equilib., 2015, 10.1016/j.fluid.2015.04.004
Compound 1: 2-propoxyethanol, C5H12O2, InChI=1S/C5H12O2/c1-2-4-7-5-3-6/h6H,2-5H2,1H3, purity 99%
Compound 2: sodium chloride, ClNa, InChI=1S/ClH.Na/h1H;/q;+1/p-1, purity 99.5%
Compound 3: water, H2O, InChI=1S/H2O/h1H2, purity 99.8%

System: 2-propoxyethanol + sodium chloride + water; phases: Liquid mixture 1, Liquid mixture 2
Fixed: Pressure, kPa = 101
Property: Mass fraction of 2-propoxyethanol (Liquid mixture 1); method: visual
Temperature, K	Mass fraction of sodium chloride	Mass fraction of 2-propoxyethanol	uncertainty
293.15	0.0833	0.5513	0.013
293.15	0.0933	0.5034	0.0124
293.15	0.1091	0.4493	0.0131
293.15	0.1268	0.3817	0.0138
293.15	0.1477	0.3056	0.0094
293.15	0.1621	0.2488	0.0082
293.15	0.1796	0.192	0.0068
293.15	0.1932	0.1536	0.0091
303.15	0.0658	0.5747	0.0129
303.15	0.0815	0.5021	0.0132
303.15	0.0969	0.4514	0.0121
303.15	0.1084	0.404	0.0124
303.15	0.1133	0.3758	0.0111
303.15	0.1197	0.3471	0.011
303.15	0.1297	0.3057	0.0097
303.15	0.1422	0.2558	0.0088
303.15	0.1551	0.2076	0.0075
303.15	0.173	0.1484	0.006
303.15	0.1789	0.1341	0.0049
303.15	0.1978	0.0969	0.0037
313.15	0.0517	0.602	0.013
313.15	0.0584	0.5555	0.0141
313.15	0.0677	0.5024	0.0142
313.15	0.0775	0.4526	0.0132
313.15	0.0866	0.4084	0.0127
313.15	0.0995	0.3491	0.0109
313.15	0.1123	0.3018	0.0094
313.15	0.1225	0.2523	0.0093
313.15	0.1341	0.2046	0.0078
313.15	0.1502	0.1494	0.0055
313.15	0.174	0.099	0.0032
323.15	0.0341	0.6977	0.0139
323.15	0.039	0.654	0.0158
323.15	0.045	0.6064	0.0156
323.15	0.0528	0.5471	0.0155
323.15	0.0595	0.5043	0.0134
323.15	0.0736	0.454	0.0128
323.15	0.0855	0.3997	0.0121
323.15	0.0962	0.349	0.0121
323.15	0.1051	0.301	0.0101
323.15	0.1161	0.2484	0.0096
323.15	0.1266	0.2017	0.0076
323.15	0.1387	0.1569	0.0061
323.15	0.1576	0.1076	0.0048
323.15	0.171	0.0788	0.0039
333.15	0.036	0.6417	0.0214
333.15	0.0402	0.5899	0.0193
333.15	0.0444	0.5535	0.0151
333.15	0.0534	0.4979	0.0156
333.15	0.0599	0.4525	0.0151
333.15	0.068	0.399	0.013
333.15	0.078	0.351	0.0119
333.15	0.0858	0.3043	0.0113
333.15	0.0966	0.2507	0.0093
333.15	0.1066	0.2131	0.008
333.15	0.1221	0.1538	0.0059
333.15	0.1446	0.1048	0.004
333.15	0.1617	0.0835	0.0031

System: 2-propoxyethanol + sodium chloride + water; phases: Liquid, Crystal
Fixed: Pressure, kPa = 101
Property: Mass fraction of 2-propoxyethanol (Liquid); method: visual
Temperature, K	Mass fraction of sodium chloride	Mass fraction of 2-propoxyethanol	uncertainty
293.15	0.083	0.551	0.008
293.15	0.093	0.503	0.007
293.15	0.109	0.449	0.006
293.15	0.127	0.382	0.006
293.15	0.148	0.306	0.006
293.15	0.162	0.249	0.006
293.15	0.18	0.192	0.005
293.15	0.193	0.154	0.005
303.15	0.066	0.575	0.008
303.15	0.082	0.502	0.007
303.15	0.097	0.451	0.007
303.15	0.108	0.404	0.008
303.15	0.113	0.376	0.007
303.15	0.12	0.347	0.007
303.15	0.13	0.306	0.007
303.15	0.142	0.256	0.006
303.15	0.155	0.208	0.006
303.15	0.173	0.148	0.005
303.15	0.179	0.134	0.004
303.15	0.198	0.097	0.004
313.15	0.052	0.602	0.012
313.15	0.058	0.556	0.01
313.15	0.068	0.502	0.008
313.15	0.078	0.453	0.008
313.15	0.087	0.408	0.009
313.15	0.1	0.349	0.008
313.15	0.112	0.302	0.007
313.15	0.123	0.252	0.007
313.15	0.134	0.205	0.007
313.15	0.15	0.149	0.005
313.15	0.174	0.099	0.003
323.15	0.034	0.698	0.014
323.15	0.039	0.654	0.014
323.15	0.045	0.606	0.012
323.15	0.053	0.547	0.011
323.15	0.06	0.504	0.007
323.15	0.074	0.454	0.007
323.15	0.086	0.4	0.008
323.15	0.096	0.349	0.01
323.15	0.105	0.301	0.008
323.15	0.116	0.248	0.008
323.15	0.127	0.202	0.006
323.15	0.139	0.157	0.005
323.15	0.158	0.108	0.004
323.15	0.171	0.079	0.004
333.15	0.036	0.642	0.021
333.15	0.04	0.59	0.018
333.15	0.044	0.554	0.011
333.15	0.053	0.498	0.01
333.15	0.06	0.453	0.011
333.15	0.068	0.399	0.009
333.15	0.078	0.351	0.009
333.15	0.086	0.304	0.009
333.15	0.097	0.251	0.007
333.15	0.107	0.213	0.007
333.15	0.122	0.154	0.005
333.15	0.145	0.105	0.003
333.15	0.162	0.084	0.003

System: 2-propoxyethanol + sodium chloride + water; phases: Liquid mixture 1, Liquid mixture 2
Fixed: Pressure, kPa = 101
Property: Mass fraction of sodium chloride (Liquid mixture 1); method: Index of refraction calibration data
Property: Mass fraction of sodium chloride (Liquid mixture 2); method: Index of refraction calibration data
Property: Mass fraction of 2-propoxyethanol (Liquid mixture 2); method: Index of refraction calibration data
Temperature, K	Mass fraction of 2-propoxyethanol	Mass fraction of sodium chloride	uncertainty	Mass fraction of sodium chloride	uncertainty	Mass fraction of 2-propoxyethanol	uncertainty
293.15	0.6702	0.0567	0.002	0.2356	0.0056	0.0696	
313.15	0.7661	0.0355	0.0018	0.2323	0.0057	0.0597	
313.15	0.7898	0.0282	0.0018	0.2493	0.0068	0.0594	
323.15	0.6219	0.0435	0.0019	0.14	0.0035	0.1445	
323.15	0.6938	0.0361	0.0018	0.1693	0.0042	0.099	
323.15	0.7504	0.0295	0.0017	0.1976	0.0052	0.0755	
323.15	0.787	0.0272	0.0017	0.2252	0.0093	0.0604	
323.15	0.8187	0.0245	0.0017	0.242	0.0089	0.0571	
333.15	0.7432	0.0286	0.0017	0.1754	0.0046	0.1041	
333.15	0.7671	0.0267	0.0017	0.1907	0.0048	0.0922	
333.15	0.7973	0.0251	0.0017	0.2095	0.0053	0.0731	
303.15	0.5627	0.0723	0.0022	0.1767	0.0042	0.1452	
333.15	0.8239	0.0241	0.0017	0.2336	0.0067	0.059	
333.15	0.8605	0.0226	0.0017	0.26	0.0112	0.0545	
303.15	0.6508	0.0551	0.002	0.2014	0.0048	0.0971	
303.15	0.6928	0.0513	0.002	0.2165	0.0053	0.0782	
303.15	0.7135	0.0459	0.0019	0.2192	0.0054	0.0807	
303.15	0.7545	0.0427	0.0018	0.2344	0.0059	0.0672	
313.15	0.6595	0.043	0.0019	0.1713	0.0042	0.1173	
313.15	0.7008	0.0409	0.0018	0.1883	0.0047	0.0987	
313.15	0.7313	0.0433	0.0019	0.212	0.0052	0.0767	

System: 2-propoxyethanol + sodium chloride + water; phases: Liquid mixture 2, Liquid mixture 1
Fixed: Pressure, kPa = 101
Property: Mass fraction of sodium chloride (Liquid mixture 2); method: Index of refraction calibration data
Property: Mass fraction of sodium chloride (Liquid mixture 1); method: Index of refraction calibration data
Property: Mass fraction of water (Liquid mixture 1); method: Index of refraction calibration data
Temperature, K	Mass fraction of water	Mass fraction of sodium chloride	uncertainty	Mass fraction of sodium chloride	uncertainty	Mass fraction of water	uncertainty
333.15	0.6854	0.26	0.0078	0.0226	0.0007	0.117	
323.15	0.7009	0.242	0.0073	0.0245	0.0007	0.1568	
313.15	0.6913	0.2493	0.0075	0.0282	0.0008	0.1819	
303.15	0.6984	0.2344	0.007	0.0427	0.0013	0.2028	
293.15	0.6948	0.2356	0.0071	0.0567	0.0017	0.273	
291.15	0.6854	0.2141	0.0064	0.0969	0.0029	0.3208	
289.15	0.668	0.2026	0.0061	0.1081	0.0032	0.4105	
287.15	0.6431	0.18	0.0054	0.124	0.0037	0.513	

System: 2-propoxyethanol + sodium chloride + water; phases: Liquid, Crystal
Fixed: Pressure, kPa = 101
Property: Mass fraction of sodium chloride (Liquid); method: visual
Temperature, K	Mass fraction of water	Mass fraction of sodium chloride	uncertainty
333.15	0.117	0.0226	0.0018
323.15	0.1568	0.0245	0.0017
313.15	0.1819	0.0282	0.0017
303.15	0.2028	0.0427	0.0017
293.15	0.273	0.0567	0.0027
291.15	0.3208	0.0969	0.0017
289.15	0.4105	0.1081	0.0017
287.15	0.513	0.124	0.0018
333.15	0.6854	0.26	0.0019
323.15	0.7009	0.242	0.0018
313.15	0.6913	0.2493	0.0018
303.15	0.6984	0.2344	0.0018
293.15	0.6948	0.2356	0.0019
291.15	0.6854	0.2141	0.0025
289.15	0.668	0.2026	0.0021
287.15	0.6431	0.18	0.0018
