Measured thermophysical data. Isobaric vapor liquid equilibrium for binary system of methyl myristate + methyl palmitate at 0.5, 1.0 and 1.4 kPa
Source: Fluid Phase Equilib., 2014, 10.1016/j.fluid.2014.09.006
Compound 1: methyl tetradecanoate, C15H30O2, InChI=1S/C15H30O2/c1-3-4-5-6-7-8-9-10-11-12-13-14-15(16)17-2/h3-14H2,1-2H3, purity 99.9%
Compound 2: methyl hexadecanoate, C17H34O2, InChI=1S/C17H34O2/c1-3-4-5-6-7-8-9-10-11-12-13-14-15-16-17(18)19-2/h3-16H2,1-2H3, purity 99.9%

System: methyl hexadecanoate + methyl tetradecanoate; phases: Liquid, Gas
Property: Boiling temperature at pressure P, K (Liquid); method: Ebulliometric method (Recirculating still)
Mole fraction of methyl tetradecanoate	Pressure, kPa	Boiling temperature at pressure P, K	uncertainty
0	0.5	435.51	1.29
0.0682	0.5	433.98	1.11
0.1003	0.5	433.46	1.12
0.1499	0.5	432.25	1.14
0.217	0.5	430.32	1.07
0.3007	0.5	428.09	1.21
0.3996	0.5	424.46	1.2
0.5484	0.5	419.56	1.3
0.6975	0.5	416.88	1.36
0.7684	0.5	415.27	1.34
0.8621	0.5	414.48	1.29
0.9128	0.5	413.81	1.32
1	0.5	412.03	1.37
0	1	450.97	1.28
0.0813	1	447.08	1.24
0.1418	1	446.01	1.21
0.1678	1	445.23	1.19
0.2432	1	442.4	1.14
0.3488	1	440.62	1.18
0.4759	1	437.74	1.34
0.5882	1	434.77	1.29
0.7428	1	432.04	1.31
0.808	1	430.46	1.3
0.8778	1	429.64	1.32
0.927	1	429.12	1.29
1	1	428.42	1.31
0	1.4	459.02	1.15
0.084	1.4	455.97	1.33
0.1313	1.4	454.96	1.19
0.2006	1.4	452.34	1.19
0.2427	1.4	450.48	1.23
0.344	1.4	448.95	1.15
0.4704	1.4	446.18	1.12
0.5955	1.4	442.06	1.18
0.7302	1.4	440.01	1.09
0.8229	1.4	438.21	1.19
0.9306	1.4	437.22	1.14
1	1.4	436.11	1.1

System: methyl hexadecanoate + methyl tetradecanoate; phases: Gas, Liquid
Property: Mole fraction of methyl tetradecanoate (Gas); method: Chromatography
Mole fraction of methyl tetradecanoate	Pressure, kPa	Mole fraction of methyl tetradecanoate	uncertainty
0	0.5	0	
0.0682	0.5	0.1898	0.0058
0.1003	0.5	0.26	0.005
0.1499	0.5	0.3562	0.005
0.217	0.5	0.465	0.0053
0.3007	0.5	0.5755	0.0048
0.3996	0.5	0.68	0.0039
0.5484	0.5	0.7955	0.003
0.6975	0.5	0.8815	0.0025
0.7684	0.5	0.9142	0.0023
0.8621	0.5	0.9515	0.0022
0.9128	0.5	0.9701	0.0021
1	0.5	1	
0	1	0	
0.0813	1	0.21	0.0054
0.1418	1	0.3253	0.005
0.1678	1	0.3615	0.0046
0.2432	1	0.4685	0.0052
0.3488	1	0.5911	0.0046
0.4759	1	0.7101	0.0037
0.5882	1	0.7896	0.0031
0.7428	1	0.8833	0.0026
0.808	1	0.9159	0.0024
0.8778	1	0.9464	0.0023
0.927	1	0.9673	0.0022
1	1	1	
0	1.4	0	
0.084	1.4	0.2106	0.0055
0.1313	1.4	0.3004	0.0048
0.2006	1.4	0.408	0.005
0.2427	1.4	0.4649	0.0051
0.344	1.4	0.5869	0.0046
0.4704	1.4	0.7052	0.0037
0.5955	1.4	0.7919	0.003
0.7302	1.4	0.8739	0.0026
0.8229	1.4	0.9188	0.0023
0.9306	1.4	0.9688	0.0022
1	1.4	1	
