Measured thermophysical data. Densities and electrical conductances of amino acids + ionic liquid ([HMIm]Br) + H2O mixtures at 298.15 K
Source: Fluid Phase Equilib., 2010, 10.1016/j.fluid.2010.04.002
Compound 1: 2-aminoacetic acid, C2H5NO2, InChI=1S/C2H5NO2/c3-1-2(4)5/h1,3H2,(H,4,5), purity 99.7%
Compound 2: water, H2O, InChI=1S/H2O/h1H2
Compound 3: 3-hexyl-1-methyl-1H-imidazolium bromide, C10H19BrN2, InChI=1S/C10H19N2.BrH/c1-3-4-5-6-7-12-9-8-11(2)10-12;/h8-10H,3-7H2,1-2H3;1H/q+1;/p-1, purity 98%
Compound 4: (S)-2-aminopropanoic acid, C3H7NO2, InChI=1S/C3H7NO2/c1-2(4)3(5)6/h2H,4H2,1H3,(H,5,6)/t2-/m0/s1, purity 99%
Compound 5: L-valine, C5H11NO2, InChI=1S/C5H11NO2/c1-3(2)4(6)5(7)8/h3-4H,6H2,1-2H3,(H,7,8)/t4-/m0/s1, purity 99%

System: 2-aminoacetic acid + water + 3-hexyl-1-methyl-1H-imidazolium bromide; phases: Liquid
Fixed: Temperature, K = 298.15
Fixed: Pressure, kPa = 101
Property: Molar conductivity, S*m2/mol (Liquid); method: Alternating current cell with electrodes
Solvent: Molality, mol/kg of 2-aminoacetic acid	Amount concentration (molarity), mol/dm3 of 3-hexyl-1-methyl-1H-imidazolium bromide	Molar conductivity, S*m2/mol	uncertainty
0	0.0009205	128.73	0.15
0	0.0027486	127.34	0.22
0	0.0045962	124.75	0.24
0	0.0074616	121.64	0.21
0	0.0103721	118.71	0.18
0	0.0143786	115.26	0.17
0	0.0183849	112.12	0.16
0	0.0234673	107.95	0.14
0	0.0286145	104.81	0.12
0	0.0345851	101.49	0.11
0	0.0407307	98.41	0.1
0	0.0479006	95.14	0.09
0.4399	0.0009315	127.8	0.21
0.4399	0.001929	125.26	0.34
0.4399	0.0038067	123.26	0.21
0.4399	0.0067407	119.5	0.29
0.4399	0.0106208	115.06	0.23
0.4399	0.0145889	111.04	0.21
0.4399	0.018491	107.51	0.18
0.4399	0.0234713	103.27	0.15
0.4399	0.0283416	100.03	0.14
0.4399	0.033454	96.31	0.14
0.4399	0.0379722	93.41	0.12
0.4399	0.0437813	90.03	0.12
0.9167	0.0018065	106.15	1.2
0.9167	0.0032851	104.91	0.03
0.9167	0.0052081	102.98	0.5
0.9167	0.0081363	100.39	0.33
0.9167	0.0116691	97.94	0.23
0.9167	0.0154641	95.5	0.18
0.9167	0.0211239	92.4	0.07
0.9167	0.0259022	89.95	0.16
0.9167	0.0312706	86.79	0.06
0.9167	0.0361292	84.91	0.05
0.9167	0.0413227	83.03	0.05
0.9167	0.0472666	81.01	0.02
1.7605	0.0010325	109.06	0.45
1.7605	0.0019121	107.08	0.23
1.7605	0.0039695	105.53	0.15
1.7605	0.0072277	103.13	0.21
1.7605	0.0104706	98.79	0.21
1.7605	0.0148608	95.04	0.15
1.7605	0.0203752	91.41	0.12
1.7605	0.0260121	88.21	0.1
1.7605	0.0315342	85.69	0.09
1.7605	0.0363986	83.64	0.08
1.7605	0.0420048	81.48	0.08
1.7605	0.0490259	79.07	0.07

System: 2-aminoacetic acid + water + 3-hexyl-1-methyl-1H-imidazolium bromide; phases: Liquid
Fixed: Temperature, K = 298.15
Fixed: Pressure, kPa = 101
Property: Refractive index (Na D-line) (Liquid); method: Standard Abbe refractometry
Solvent: Molality, mol/kg of 3-hexyl-1-methyl-1H-imidazolium bromide	Molality, mol/kg of 2-aminoacetic acid	Refractive index (Na D-line)	uncertainty
0	0	1.3325	0.0005
0	0.0941	1.3331	0.0005
0	0.1492	1.3339	0.0005
0	0.1972	1.3345	0.0005
0	0.2611	1.3354	0.0005
0	0.2975	1.3359	0.0005
0	0.303	1.336	0.0005
0	0.3935	1.3372	0.0005
0	0.4408	1.3378	0.0005
0.0999	0	1.3365	0.0005
0.0999	0.0499	1.3369	0.0005
0.0999	0.1049	1.3377	0.0005
0.0999	0.1396	1.3383	0.0005
0.0999	0.2064	1.3393	0.0005
0.0999	0.2555	1.3402	0.0005
0.0999	0.2944	1.3408	0.0005
0.0999	0.4026	1.3426	0.0005
0.0999	0.442	1.3432	0.0005
0.2207	0	1.3402	0.0005
0.2207	0.0543	1.3416	0.0005
0.2207	0.1468	1.3429	0.0005
0.2207	0.1996	1.3436	0.0005
0.2207	0.2495	1.3443	0.0005
0.2207	0.2976	1.3449	0.0005
0.2207	0.3546	1.3458	0.0005
0.2207	0.4048	1.3466	0.0005
0.2207	0.4401	1.3471	0.0005
0.2865	0	1.342	0.0005
0.2865	0.0482	1.3439	0.0005
0.2865	0.1008	1.3445	0.0005
0.2865	0.134	1.3449	0.0005
0.2865	0.2023	1.3458	0.0005
0.2865	0.2509	1.3465	0.0005
0.2865	0.2965	1.3471	0.0005
0.2865	0.3551	1.3479	0.0005
0.2865	0.4	1.3485	0.0005
0.2865	0.4434	1.3491	0.0005
0.3917	0	1.3452	0.0005
0.3917	0.0557	1.3477	0.0005
0.3917	0.0991	1.3482	0.0005
0.3917	0.145	1.3488	0.0005
0.3917	0.1947	1.3495	0.0005
0.3917	0.2459	1.3502	0.0005
0.3917	0.2962	1.3508	0.0005
0.3917	0.3461	1.3515	0.0005
0.3917	0.412	1.3524	0.0005
0.3917	0.4428	1.3528	0.0005

System: 2-aminoacetic acid + water + 3-hexyl-1-methyl-1H-imidazolium bromide; phases: Liquid
Fixed: Temperature, K = 298.15
Fixed: Pressure, kPa = 101
Property: Mass density, kg/m3 (Liquid); method: Vibrating tube method
Solvent: Molality, mol/kg of 3-hexyl-1-methyl-1H-imidazolium bromide	Molality, mol/kg of 2-aminoacetic acid	Mass density, kg/m3	uncertainty
0	0	997.04	0.71
0	0.0521	998.7	0.71
0	0.0997	1000.21	0.71
0	0.1577	1002.02	0.71
0	0.1992	1003.32	0.71
0	0.2235	1004.07	0.72
0	0.2902	1006.11	0.72
0	0.3266	1007.22	0.72
0	0.4495	1010.93	0.73
0	0.5179	1012.94	0.73
0.0999	0	1002	0.71
0.0999	0.0499	1003.5	0.71
0.0999	0.1049	1005.16	0.72
0.0999	0.1396	1006.21	0.72
0.0999	0.2064	1008.24	0.72
0.0999	0.2555	1009.74	0.73
0.0999	0.2944	1010.93	0.73
0.0999	0.4026	1014.25	0.73
0.0999	0.442	1015.47	0.74
0.2207	0	1008.45	0.72
0.2207	0.1468	1011.96	0.73
0.2207	0.1996	1013.59	0.73
0.2207	0.2495	1015.11	0.73
0.2207	0.2976	1016.6	0.74
0.2207	0.3546	1018.35	0.74
0.2207	0.4048	1019.9	0.74
0.2207	0.4401	1020.96	0.74
0.2865	0	1011.96	0.73
0.2865	0.1008	1013.47	0.73
0.2865	0.134	1014.55	0.73
0.2865	0.2023	1016.69	0.74
0.2865	0.2509	1018.07	0.74
0.2865	0.2965	1019.44	0.74
0.2865	0.3551	1021.23	0.75
0.2865	0.4	1022.59	0.75
0.2865	0.4434	1023.89	0.75
0.3917	0	1016.83	0.74
0.3917	0.0557	1016.71	0.74
0.3917	0.0991	1018.03	0.74
0.3917	0.145	1019.52	0.74
0.3917	0.1947	1020.94	0.74
0.3917	0.2459	1022.5	0.75
0.3917	0.2962	1024	0.75
0.3917	0.3461	1025.49	0.75
0.3917	0.412	1027.45	0.76
0.3917	0.4428	1028.36	0.76

System: (S)-2-aminopropanoic acid + water + 3-hexyl-1-methyl-1H-imidazolium bromide; phases: Liquid
Fixed: Temperature, K = 298.15
Fixed: Pressure, kPa = 101
Property: Molar conductivity, S*m2/mol (Liquid); method: Alternating current cell with electrodes
Solvent: Molality, mol/kg of (S)-2-aminopropanoic acid	Amount concentration (molarity), mol/dm3 of 3-hexyl-1-methyl-1H-imidazolium bromide	Molar conductivity, S*m2/mol	uncertainty
0	0.000464	110.72	0.27
0	0.0011572	109.79	0.31
0	0.0017622	108.7	0.35
0	0.0025258	107.39	0.28
0	0.003219	106.66	0.19
0	0.0047874	105.2	0.19
0	0.0078008	102.4	0.18
0	0.0107849	99.9	0.15
0	0.0146149	97.26	0.13
0	0.0180101	95.14	0.13
0.4399	0.0003856	106.79	0.58
0.4399	0.0008849	105.75	0.44
0.4399	0.0013589	104.62	0.38
0.4399	0.001991	103.81	0.22
0.4399	0.0035395	102.46	0.16
0.4399	0.0056568	100.97	0.14
0.4399	0.0082104	99.25	0.13
0.4399	0.009702	98.35	0.14
0.4399	0.0125462	96.39	0.13
0.4399	0.0146068	95.12	0.2
0.4399	0.0180704	91.11	0.23
0.9167	0.0005764	104	0.92
0.9167	0.0012169	101.04	0.59
0.9167	0.0018645	100.21	0.2
0.9167	0.0030814	99.19	0.14
0.9167	0.0049743	98.09	0.13
0.9167	0.0074579	96.41	0.13
0.9167	0.0105181	94.48	0.11
0.9167	0.0133289	93.39	0.08

System: (S)-2-aminopropanoic acid + water + 3-hexyl-1-methyl-1H-imidazolium bromide; phases: Liquid
Fixed: Temperature, K = 298.15
Fixed: Pressure, kPa = 101
Property: Refractive index (Na D-line) (Liquid); method: Standard Abbe refractometry
Solvent: Molality, mol/kg of 3-hexyl-1-methyl-1H-imidazolium bromide	Molality, mol/kg of (S)-2-aminopropanoic acid	Refractive index (Na D-line)	uncertainty
0	0	1.3325	0.0005
0	0.0533	1.3326	0.0005
0	0.091	1.333	0.0005
0	0.1496	1.3337	0.0005
0	0.1913	1.3342	0.0005
0	0.2516	1.335	0.0005
0	0.2926	1.3355	0.0005
0	0.3514	1.3362	0.0005
0	0.3799	1.3366	0.0005
0	0.4471	1.3376	0.0005
0	0.4827	1.3381	0.0005
0.1016	0	1.3366	0.0005
0.1016	0.0508	1.337	0.0005
0.1016	0.099	1.3377	0.0005
0.1016	0.1521	1.3385	0.0005
0.1016	0.1972	1.3392	0.0005
0.1016	0.2528	1.3401	0.0005
0.1016	0.2908	1.3407	0.0005
0.1016	0.3435	1.3415	0.0005
0.1016	0.3934	1.3423	0.0005
0.1016	0.4468	1.3431	0.0005
0.1982	0	1.34	0.0005
0.1982	0.0561	1.3409	0.0005
0.1982	0.1009	1.3415	0.0005
0.1982	0.1518	1.3423	0.0005
0.1982	0.1972	1.343	0.0005
0.1982	0.2483	1.3437	0.0005
0.1982	0.2875	1.3443	0.0005
0.1982	0.351	1.3453	0.0005
0.1982	0.3997	1.346	0.0005
0.1982	0.446	1.3467	0.0005
0.3026	0	1.3433	0.0005
0.3026	0.0627	1.3446	0.0005
0.3026	0.1013	1.3452	0.0005
0.3026	0.1498	1.3459	0.0005
0.3026	0.1993	1.3466	0.0005
0.3026	0.2509	1.3474	0.0005
0.3026	0.2899	1.3479	0.0005
0.3026	0.3471	1.3488	0.0005
0.3026	0.3878	1.3494	0.0005
0.3841	0	1.346	0.0005
0.3841	0.0537	1.3476	0.0005
0.3841	0.1498	1.3489	0.0005
0.3841	0.1957	1.3496	0.0005
0.3841	0.2478	1.3504	0.0005
0.3841	0.2971	1.3511	0.0005
0.3841	0.3455	1.3519	0.0005
0.3841	0.3883	1.3526	0.0005

System: (S)-2-aminopropanoic acid + water + 3-hexyl-1-methyl-1H-imidazolium bromide; phases: Liquid
Fixed: Temperature, K = 298.15
Fixed: Pressure, kPa = 101
Property: Mass density, kg/m3 (Liquid); method: Vibrating tube method
Solvent: Molality, mol/kg of 3-hexyl-1-methyl-1H-imidazolium bromide	Molality, mol/kg of (S)-2-aminopropanoic acid	Mass density, kg/m3	uncertainty
0	0	1001.89	0.9
0	0.0508	1003.34	0.9
0	0.099	1004.7	0.9
0	0.1521	1006.19	0.91
0	0.1972	1007.44	0.91
0	0.2528	1008.96	0.91
0	0.2908	1009.99	0.92
0	0.3435	1011.42	0.92
0	0.3934	1012.75	0.92
0	0.4468	1014.17	0.92
0.1016	0	1001.89	0.9
0.1016	0.0508	1003.34	0.9
0.1016	0.099	1004.7	0.9
0.1016	0.1521	1006.19	0.91
0.1016	0.1972	1007.44	0.91
0.1016	0.2528	1008.96	0.91
0.1016	0.2908	1009.99	0.92
0.1016	0.3435	1011.42	0.92
0.1016	0.3934	1012.75	0.92
0.1016	0.4468	1014.17	0.92
0.1982	0	1006.2	0.91
0.1982	0.0561	1007.9	0.91
0.1982	0.1009	1009.2	0.91
0.1982	0.1518	1010.67	0.92
0.1982	0.1972	1011.94	0.92
0.1982	0.2483	1013.32	0.92
0.1982	0.2875	1014.36	0.93
0.1982	0.351	1016.05	0.93
0.1982	0.3997	1017.35	0.93
0.1982	0.446	1018.53	0.93
0.3026	0	1010.83	0.92
0.3026	0.0627	1012.76	0.92
0.3026	0.1013	1013.88	0.92
0.3026	0.1498	1015.27	0.93
0.3026	0.1993	1016.64	0.93
0.3026	0.2509	1018.05	0.93
0.3026	0.2899	1019.1	0.94
0.3026	0.3471	1020.59	0.94
0.3026	0.3878	1021.68	0.94
0.3026	0.4549	1023.4	0.94
0.3841	0	1014.07	0.92
0.3841	0.0537	1015.94	0.93
0.3841	0.0973	1017.2	0.93
0.3841	0.1498	1018.68	0.93
0.3841	0.1957	1019.91	0.94
0.3841	0.2478	1021.3	0.94
0.3841	0.2971	1022.6	0.94
0.3841	0.3455	1023.94	0.95
0.3841	0.3883	1025.08	0.95
0.3841	0.4606	1027	0.95

System: L-valine + water + 3-hexyl-1-methyl-1H-imidazolium bromide; phases: Liquid
Fixed: Temperature, K = 298.15
Fixed: Pressure, kPa = 101
Property: Molar conductivity, S*m2/mol (Liquid); method: Alternating current cell with electrodes
Solvent: Molality, mol/kg of L-valine	Amount concentration (molarity), mol/dm3 of 3-hexyl-1-methyl-1H-imidazolium bromide	Molar conductivity, S*m2/mol	uncertainty
0	0.00040885	118.23	0.86
0	0.0008177	116.47	0.66
0	0.00124926	115.46	0.42
0	0.00220892	113.51	0.35
0	0.00362285	111.3	0.26
0	0.0060589	108.52	0.21
0	0.00858581	106.17	0.18
0	0.0113966	103.68	0.16
0	0.0150991	100.98	0.15
0	0.0177963	98.82	0.16
0.4399	0.0003882	111.96	1.11
0.4399	0.0008309	108.83	0.34
0.4399	0.0018136	107.28	0.13
0.4399	0.0038638	104.68	0.17
0.4399	0.0062475	102.25	0.12
0.4399	0.0091105	99.52	0.09
0.4399	0.01184	97.3	0.06
0.4399	0.0147	95.23	0.19
0.4399	0.01703	93.76	0.19
0.4399	0.02127	91.2	0.12
0.4399	0.02504	89	0.11
0.4399	0.0302	86.29	0.11
0.9167	0.0005417	81.45	0.55
0.9167	0.000992	80.21	0.4
0.9167	0.0015196	79.5	0.22
0.9167	0.0027296	78.29	0.17
0.9167	0.0038552	77.53	0.13
0.9167	0.0057969	76.37	0.11
0.9167	0.0081044	75.26	0.1
0.9167	0.0107777	73.97	0.09
0.9167	0.014647	72.27	0.09
0.9167	0.0192409	70.45	0.08
0.9167	0.0239826	68.78	0.08
0.9167	0.0290127	66.82	0.08

System: L-valine + water + 3-hexyl-1-methyl-1H-imidazolium bromide; phases: Liquid
Fixed: Temperature, K = 298.15
Fixed: Pressure, kPa = 101
Property: Refractive index (Na D-line) (Liquid); method: Standard Abbe refractometry
Solvent: Molality, mol/kg of 3-hexyl-1-methyl-1H-imidazolium bromide	Molality, mol/kg of L-valine	Refractive index (Na D-line)	uncertainty
0	0	1.3326	0.0005
0	0.1173	1.3346	0.0005
0	0.1402	1.3351	0.0005
0	0.1894	1.3361	0.0005
0	0.2512	1.3373	0.0005
0	0.2973	1.3382	0.0005
0	0.3211	1.3387	0.0005
0	0.3841	1.34	0.0005
0	0.4378	1.341	0.0005
0.0981	0	1.3364	0.0005
0.0981	0.0588	1.3374	0.0005
0.0981	0.1067	1.3384	0.0005
0.0981	0.148	1.3392	0.0005
0.0981	0.2054	1.3404	0.0005
0.0981	0.2454	1.3412	0.0005
0.0981	0.2804	1.3419	0.0005
0.0981	0.3441	1.3432	0.0005
0.0981	0.3735	1.3438	0.0005
0.1952	0	1.3393	0.0005
0.1952	0.0329	1.3406	0.0005
0.1952	0.0777	1.3415	0.0005
0.1952	0.1169	1.3423	0.0005
0.1952	0.1614	1.3431	0.0005
0.1952	0.2227	1.3442	0.0005
0.1952	0.2733	1.3452	0.0005
0.1952	0.3189	1.346	0.0005
0.1952	0.3648	1.3468	0.0005
0.1952	0.4314	1.3479	0.0005
0.2963	0	1.3429	0.0005
0.2963	0.0277	1.3446	0.0005
0.2963	0.0726	1.3455	0.0005
0.2963	0.1125	1.3463	0.0005
0.2963	0.16	1.3472	0.0005
0.2963	0.2214	1.3483	0.0005
0.2963	0.2512	1.3489	0.0005
0.2963	0.3231	1.3502	0.0005
0.2963	0.3631	1.3509	0.0005
0.2963	0.4136	1.3518	0.0005
0.398	0	1.3457	0.0005
0.398	0.0254	1.3479	0.0005
0.398	0.0797	1.3489	0.0005
0.398	0.1117	1.3495	0.0005
0.398	0.1619	1.3505	0.0005
0.398	0.2201	1.3516	0.0005
0.398	0.2703	1.3525	0.0005
0.398	0.3148	1.3533	0.0005
0.398	0.366	1.3543	0.0005
0.398	0.4137	1.3552	0.0005

System: L-valine + water + 3-hexyl-1-methyl-1H-imidazolium bromide; phases: Liquid
Fixed: Temperature, K = 298.15
Fixed: Pressure, kPa = 101
Property: Mass density, kg/m3 (Liquid); method: Vibrating tube method
Solvent: Molality, mol/kg of 3-hexyl-1-methyl-1H-imidazolium bromide	Molality, mol/kg of L-valine	Mass density, kg/m3	uncertainty
0	0	997.04	0.89
0	0.1173	1000.17	0.9
0	0.1402	1000.77	0.9
0	0.1894	1002.03	0.9
0	0.2512	1003.59	0.9
0	0.2973	1004.74	0.9
0	0.3211	1005.32	0.91
0	0.3841	1006.84	0.91
0	0.4378	1008.11	0.91
0.0981	0	1001.62	0.9
0.0981	0.0588	1003.24	0.9
0.0981	0.1067	1004.52	0.9
0.0981	0.148	1005.6	0.91
0.0981	0.2054	1007.08	0.91
0.0981	0.2454	1008.09	0.91
0.0981	0.2804	1008.97	0.91
0.0981	0.3441	1010.51	0.92
0.0981	0.3735	1011.2	0.92
0.1952	0	1005.97	0.91
0.1952	0.0329	1007	0.91
0.1952	0.0777	1008.27	0.91
0.1952	0.1169	1009.31	0.91
0.1952	0.1614	1010.45	0.92
0.1952	0.2227	1011.99	0.92
0.1952	0.2733	1013.26	0.92
0.1952	0.3189	1014.36	0.93
0.1952	0.3648	1015.47	0.93
0.1952	0.4314	1017.06	0.93
0.2963	0	1010.5	0.9
0.2963	0.0277	1011.4	0.92
0.2963	0.0726	1012.68	0.92
0.2963	0.1125	1013.71	0.92
0.2963	0.16	1014.92	0.93
0.2963	0.2214	1016.5	0.93
0.2963	0.2512	1017.31	0.93
0.2963	0.3231	1019.03	0.94
0.2963	0.3631	1019.94	0.94
0.2963	0.4136	1021.14	0.94
0.398	0	1014.7	0.93
0.398	0.0254	1015.8	0.93
0.398	0.0797	1017.27	0.93
0.398	0.1117	1018.06	0.93
0.398	0.1619	1019.3	0.94
0.398	0.2201	1020.77	0.94
0.398	0.2703	1021.92	0.94
0.398	0.3148	1023.02	0.94
0.398	0.366	1024.29	0.95
0.398	0.4137	1025.4	0.95
