Measured thermophysical data. Liquid liquid equilibria for pseudoternary systems: isooctane benzene (methanol +water)
Source: Fluid Phase Equilib., 2005, 10.1016/j.fluid.2004.12.003
Compound 1: methanol, CH4O, InChI=1S/CH4O/c1-2/h2H,1H3, purity 99%
Compound 2: benzene, C6H6, InChI=1S/C6H6/c1-2-4-6-5-3-1/h1-6H, purity 99%
Compound 3: 2,2,4-trimethylpentane, C8H18, InChI=1S/C8H18/c1-7(2)6-8(3,4)5/h7H,6H2,1-5H3, purity 99%

System: methanol + benzene + 2,2,4-trimethylpentane; phases: Liquid mixture 1, Liquid mixture 2
Fixed: Temperature, K = 298.15
Fixed: Pressure, kPa = 101.325
Property: Mole fraction of benzene (Liquid mixture 1); method: Chromatography
Property: Mole fraction of benzene (Liquid mixture 2); method: Chromatography
Property: Mole fraction of 2,2,4-trimethylpentane (Liquid mixture 2); method: Chromatography
Mole fraction of 2,2,4-trimethylpentane	Mole fraction of benzene	uncertainty	Mole fraction of benzene	uncertainty	Mole fraction of 2,2,4-trimethylpentane	uncertainty
0.772	0	0.0001	0	0.0001	0.1184	
0.7391	0.0207	0.0002	0.0087	0.0001	0.1238	
0.6873	0.0418	0.0004	0.0201	0.0002	0.1447	
0.603	0.0678	0.0007	0.0386	0.0004	0.1803	
0.5184	0.0754	0.0008	0.0481	0.0005	0.2022	
