Measured thermophysical data. High pressure CO2 absorption studies on imidazolium-based ionic liquids: Experimental and simulation approaches
Source: Fluid Phase Equilib., 2013, 10.1016/j.fluid.2012.10.022
Compound 1: 1-butyl-3-methylimidazolium hexafluorophosphate, C8H15F6N2P, InChI=1S/C8H15N2.F6P/c1-3-4-5-10-7-6-9(2)8-10;1-7(2,3,4,5)6/h6-8H,3-5H2,1-2H3;/q+1;-1, purity 98%
Compound 2: 1-ethyl-3-methylimidazolium bis((trifluoromethyl)sulfonyl)imide, C8H11F6N3O4S2, InChI=1S/C6H11N2.C2F6NO4S2/c1-3-8-5-4-7(2)6-8;3-1(4,5)14(10,11)9-15(12,13)2(6,7)8/h4-6H,3H2,1-2H3;/q+1;-1, purity 98%
Compound 3: 1-butyl-3-methylimidazolium bis(trifluoromethylsulfonyl)imide, C10H15F6N3O4S2, InChI=1S/C8H15N2.C2F6NO4S2/c1-3-4-5-10-7-6-9(2)8-10;3-1(4,5)14(10,11)9-15(12,13)2(6,7)8/h6-8H,3-5H2,1-2H3;/q+1;-1, purity 98%
Compound 4: carbon dioxide, CO2, InChI=1S/CO2/c2-1-3, purity 99.995%

System: carbon dioxide + 1-butyl-3-methylimidazolium hexafluorophosphate; phases: Liquid, Gas
Property: Mole fraction of carbon dioxide (Liquid); method: gravimetric method
Temperature, K	Pressure, kPa	Mole fraction of carbon dioxide	uncertainty
318	12	0	
318	97	0	
318	495	0.0282	0.0002
318	995.1	0.0835	0.0002
318	1495.2	0.1358	0.0004
318	1995.2	0.1842	0.0005
318	2495.1	0.2267	0.0007
318	2995.2	0.2647	0.0009
318	3495.4	0.299	0.0011
318	3995.8	0.3308	0.0013
318	4495.4	0.3586	0.0014
318	4995	0.3853	0.0016
318	7495.6	0.4741	0.0019
318	9995.5	0.5225	0.0019
318	12495.5	0.526	0.0019
318	14995.5	0.5317	0.0019
318	17495.2	0.5375	0.0018
318	19994.8	0.5428	0.0018
338	12	0	
338	98	0.0006	0.0002
338	495.1	0.0346	0.0002
338	995.3	0.0761	0.0002
338	1495.1	0.1153	0.0003
338	1995.1	0.1509	0.0005
338	2494.9	0.1839	0.0006
338	2995	0.2137	0.0008
338	3494.7	0.2416	0.0009
338	3995.2	0.2677	0.001
338	4495.1	0.2916	0.0012
338	4995	0.3137	0.0013
338	7494.9	0.3976	0.0017
338	9994.9	0.4518	0.0019
338	12494.7	0.4812	0.0019
338	14994.2	0.4924	0.002
338	17491.6	0.4966	0.002
338	19990.9	0.4997	0.002

System: carbon dioxide + 1-ethyl-3-methylimidazolium bis((trifluoromethyl)sulfonyl)imide; phases: Liquid, Gas
Property: Mole fraction of carbon dioxide (Liquid); method: gravimetric method
Temperature, K	Pressure, kPa	Mole fraction of carbon dioxide	uncertainty
318	13	0	
318	106	0	
318	500	0.0589	0.0002
318	998	0.1461	0.0004
318	1495	0.2211	0.0007
318	1995.1	0.2845	0.001
318	2495.1	0.3409	0.0013
318	2997	0.3902	0.0016
318	3496	0.4324	0.0018
318	3995.2	0.4715	0.002
318	4496	0.5042	0.0021
318	4995.5	0.5344	0.002
318	7495.8	0.6428	0.0015
318	9995.2	0.7095	0.0011
318	12496	0.7282	0.001
318	14996.4	0.7399	0.0009
318	17495.9	0.7479	0.0008
318	19997.4	0.7562	0.0008
338	12	0	
338	99	0	
338	499	0.055	0.0002
338	996	0.1211	0.0004
338	1495.3	0.18	0.0006
338	1997	0.2322	0.0008
338	2496	0.281	0.0011
338	2996	0.3213	0.0013
338	3496.1	0.3583	0.0015
338	3995.8	0.3941	0.0017
338	4495.8	0.4243	0.0018
338	4996.3	0.4522	0.0019
338	7495.5	0.5583	0.0019
338	9996.6	0.6288	0.0016
338	12496	0.6768	0.0013
338	14996	0.7008	0.0011
338	17501.6	0.7119	0.001
338	19997.3	0.7149	0.001

System: carbon dioxide + 1-butyl-3-methylimidazolium bis(trifluoromethylsulfonyl)imide; phases: Liquid, Gas
Property: Mole fraction of carbon dioxide (Liquid); method: gravimetric method
Temperature, K	Pressure, kPa	Mole fraction of carbon dioxide	uncertainty
318	12	0	
318	96.3	0.0001	0.0001
318	495.7	0.0759	0.0005
318	998.9	0.1603	0.0007
318	1495	0.2297	0.0009
318	1996	0.2911	0.0012
318	2495.6	0.3424	0.0015
318	2997.4	0.3888	0.0017
318	3495.1	0.4285	0.0019
318	3995.9	0.4658	0.002
318	4495.9	0.4974	0.0021
318	4996	0.5262	0.0021
318	7495.7	0.6304	0.0016
318	9995.5	0.7003	0.0012
318	12496.1	0.7348	0.001
318	14996.2	0.7455	0.0009
318	17495.8	0.7553	0.0008
318	19996.5	0.7638	0.0008
338	12	0	
338	99	0	
338	496	0.0326	0.0004
338	1001.5	0.099	0.0007
338	1497.8	0.1597	0.0008
338	1995	0.2128	0.001
338	2496	0.2588	0.0011
338	2996	0.3015	0.0013
338	3495.1	0.34	0.0015
338	3996.1	0.3741	0.0016
338	4495.3	0.4044	0.0018
338	4995.5	0.4333	0.0019
338	7495.7	0.5403	0.002
338	9995.8	0.6132	0.0017
338	12495.3	0.667	0.0014
338	14996.1	0.6977	0.0011
338	17495.9	0.7139	0.001
338	19997.7	0.7226	0.001
