Measured thermophysical data. Apparent molar properties of benzyldimethylammonium based protic ionic liquids in water and ethanol at different temperatures
Source: Fluid Phase Equilib., 2015, 10.1016/j.fluid.2014.11.005
Compound 1: water, H2O, InChI=1S/H2O/h1H2, purity 99.8%
Compound 2: ethanol, C2H6O, InChI=1S/C2H6O/c1-2-3/h3H,2H2,1H3, purity 99%
Compound 3: N,N-dimethylbenzylammonium acetate, C11H17NO2, InChI=1S/C9H13N.C2H4O2/c1-10(2)8-9-6-4-3-5-7-9;1-2(3)4/h3-7H,8H2,1-2H3;1H3,(H,3,4), purity 99%
Compound 4: benzyldimethylammonium propionate, C12H19NO2, InChI=1S/C9H13N.C3H6O2/c1-10(2)8-9-6-4-3-5-7-9;1-2-3(4)5/h3-7H,8H2,1-2H3;2H2,1H3,(H,4,5), purity 99%
Compound 5: benzyldimethylammonium hexanoate, C15H25NO2, InChI=1S/C9H13N.C6H12O2/c1-10(2)8-9-6-4-3-5-7-9;1-2-3-4-5-6(7)8/h3-7H,8H2,1-2H3;2-5H2,1H3,(H,7,8), purity 99%

System: water; phases: Liquid
Fixed: Pressure, kPa = 101.325
Property: Mass density, kg/m3 (Liquid); method: Vibrating tube method
Temperature, K	Mass density, kg/m3	uncertainty
293.15	998.206	0.04
298.15	997.052	0.04
303.15	995.66	0.041
308.15	994.043	0.042
313.15	992.227	0.042
318.15	990.226	0.043

System: water; phases: Liquid
Fixed: Pressure, kPa = 101.325
Property: Speed of sound, m/s (Liquid); method: Sing-around technique in a fixed-path interferometer
Temperature, K	Speed of sound, m/s	uncertainty
293.15	1482.78	1.22
298.15	1496.8	1.22
303.15	1509.14	1.22
308.15	1519.79	1.23
313.15	1528.85	1.23
318.15	1536.41	1.23

System: ethanol; phases: Liquid
Fixed: Pressure, kPa = 101.325
Property: Mass density, kg/m3 (Liquid); method: Vibrating tube method
Temperature, K	Mass density, kg/m3	uncertainty
293.15	789.922	0.239
298.15	785.645	0.239
303.15	781.333	0.239
308.15	776.986	0.24
313.15	772.6	0.24
318.15	768.166	0.241

System: ethanol; phases: Liquid
Fixed: Pressure, kPa = 101.325
Property: Speed of sound, m/s (Liquid); method: Sing-around technique in a fixed-path interferometer
Temperature, K	Speed of sound, m/s	uncertainty
293.15	1161.97	1.52
298.15	1145.44	1.52
303.15	1128.77	1.52
308.15	1112.14	1.51
313.15	1095.49	1.51
318.15	1078.79	1.51

System: water + N,N-dimethylbenzylammonium acetate; phases: Liquid
Fixed: Pressure, kPa = 101.3
Property: Mass density, kg/m3 (Liquid); method: Vibrating tube method
Temperature, K	Molality, mol/kg of N,N-dimethylbenzylammonium acetate	Mass density, kg/m3	uncertainty
293.15	0	998.206	0.04
293.15	0.02089	998.641	0.04
293.15	0.05935	999.355	0.04
293.15	0.0822	999.78	0.04
293.15	0.14273	1000.924	0.041
293.15	0.22083	1002.388	0.043
293.15	0.24237	1002.77	0.043
293.15	0.30119	1003.853	0.044
293.15	0.33032	1004.374	0.045
293.15	0.41568	1005.888	0.047
298.15	0	997.052	0.04
298.15	0.02089	997.475	0.04
298.15	0.05935	998.17	0.04
298.15	0.0822	998.587	0.041
298.15	0.14273	999.698	0.041
298.15	0.22083	1001.121	0.042
298.15	0.24237	1001.492	0.043
298.15	0.30119	1002.54	0.044
298.15	0.33032	1003.044	0.044
298.15	0.41568	1004.511	0.046
303.15	0	995.66	0.041
303.15	0.02089	996.071	0.041
303.15	0.05935	996.748	0.041
303.15	0.0822	997.156	0.041
303.15	0.14273	998.239	0.042
303.15	0.22083	999.624	0.042
303.15	0.24237	999.984	0.042
303.15	0.30119	1001.003	0.043
303.15	0.33032	1001.494	0.044
303.15	0.41568	1002.934	0.045
308.15	0	994.043	0.042
308.15	0.02089	994.447	0.042
308.15	0.05935	995.112	0.042
308.15	0.0822	995.511	0.042
308.15	0.14273	996.569	0.042
308.15	0.22083	997.923	0.043
308.15	0.24237	998.274	0.043
308.15	0.30119	999.265	0.043
308.15	0.33032	999.744	0.043
308.15	0.41568	1001.127	0.045
313.15	0	992.227	0.042
313.15	0.02089	992.622	0.042
313.15	0.05935	993.273	0.043
313.15	0.0822	993.666	0.043
313.15	0.14273	994.705	0.043
313.15	0.22083	996.028	0.044
313.15	0.24237	996.37	0.044
313.15	0.30119	997.339	0.044
313.15	0.33032	997.806	0.044
313.15	0.41568	999.172	0.045
318.15	0	990.226	0.043
318.15	0.02089	990.615	0.043
318.15	0.05935	991.255	0.043
318.15	0.0822	991.64	0.044
318.15	0.14273	992.657	0.044
318.15	0.22083	993.956	0.044
318.15	0.24237	994.288	0.045
318.15	0.30119	995.24	0.045
318.15	0.33032	995.695	0.045
318.15	0.41568	997.013	0.046

System: water + N,N-dimethylbenzylammonium acetate; phases: Liquid
Fixed: Pressure, kPa = 101.3
Property: Speed of sound, m/s (Liquid); method: Sing-around technique in a fixed-path interferometer
Temperature, K	Molality, mol/kg of N,N-dimethylbenzylammonium acetate	Speed of sound, m/s	uncertainty
293.15	0	1482.78	1.22
293.15	0.02089	1486.4	1.22
293.15	0.05935	1492.33	1.22
293.15	0.0822	1495.96	1.22
293.15	0.14273	1505.5	1.23
293.15	0.22083	1517.6	1.23
293.15	0.24237	1520.68	1.23
293.15	0.30119	1529.29	1.24
293.15	0.33032	1533.44	1.24
293.15	0.41568	1545.25	1.24
298.15	0	1496.8	1.22
298.15	0.02089	1500.17	1.22
298.15	0.05935	1505.76	1.22
298.15	0.0822	1509.15	1.23
298.15	0.14273	1518.08	1.23
298.15	0.22083	1529.37	1.23
298.15	0.24237	1532.25	1.23
298.15	0.30119	1540.32	1.24
298.15	0.33032	1544.19	1.24
298.15	0.41568	1555.21	1.24
303.15	0	1509.14	1.22
303.15	0.02089	1512.32	1.22
303.15	0.05935	1517.56	1.23
303.15	0.0822	1520.76	1.23
303.15	0.14273	1529.12	1.23
303.15	0.22083	1539.7	1.23
303.15	0.24237	1542.41	1.24
303.15	0.30119	1549.87	1.24
303.15	0.33032	1553.49	1.24
303.15	0.41568	1563.78	1.24
308.15	0	1519.79	1.23
308.15	0.02089	1522.78	1.23
308.15	0.05935	1527.68	1.23
308.15	0.0822	1530.73	1.23
308.15	0.14273	1538.58	1.23
308.15	0.22083	1548.52	1.24
308.15	0.24237	1551.04	1.24
308.15	0.30119	1557.95	1.24
308.15	0.33032	1561.34	1.24
308.15	0.41568	1570.93	1.25
313.15	0	1528.85	1.23
313.15	0.02089	1531.65	1.23
313.15	0.05935	1536.24	1.23
313.15	0.0822	1539.14	1.23
313.15	0.14273	1546.53	1.23
313.15	0.22083	1555.85	1.24
313.15	0.24237	1558.22	1.24
313.15	0.30119	1564.61	1.24
313.15	0.33032	1567.79	1.24
313.15	0.41568	1576.74	1.25
318.15	0	1536.41	1.23
318.15	0.02089	1539.1	1.23
318.15	0.05935	1543.61	1.23
318.15	0.0822	1546.09	1.23
318.15	0.14273	1553.04	1.24
318.15	0.22083	1561.8	1.24
318.15	0.24237	1564.02	1.24
318.15	0.30119	1569.94	1.24
318.15	0.33032	1572.91	1.24
318.15	0.41568	1581.27	1.25

System: ethanol + N,N-dimethylbenzylammonium acetate; phases: Liquid
Fixed: Pressure, kPa = 101.3
Property: Mass density, kg/m3 (Liquid); method: Vibrating tube method
Temperature, K	Molality, mol/kg of N,N-dimethylbenzylammonium acetate	Mass density, kg/m3	uncertainty
293.15	0	789.922	0.237
293.15	0.02435	790.894	0.237
293.15	0.06257	792.405	0.237
293.15	0.07241	792.791	0.237
293.15	0.10394	794.011	0.237
293.15	0.16161	796.193	0.237
293.15	0.21274	798.211	0.236
293.15	0.24488	799.41	0.236
293.15	0.29445	800.935	0.236
293.15	0.38265	804.08	0.236
293.15	0.43563	805.862	0.236
298.15	0	785.645	0.237
298.15	0.02435	786.607	0.237
298.15	0.06257	788.101	0.237
298.15	0.07241	788.482	0.237
298.15	0.10394	789.692	0.237
298.15	0.16161	791.855	0.237
298.15	0.21274	793.864	0.237
298.15	0.24488	795.053	0.237
298.15	0.29445	796.561	0.237
298.15	0.38265	799.694	0.236
298.15	0.43563	801.466	0.236
303.15	0	781.333	0.238
303.15	0.02435	782.283	0.238
303.15	0.06257	783.758	0.238
303.15	0.07241	784.135	0.238
303.15	0.10394	785.332	0.237
303.15	0.16161	787.473	0.237
303.15	0.21274	789.473	0.237
303.15	0.24488	790.655	0.237
303.15	0.29445	792.151	0.237
303.15	0.38265	795.266	0.237
303.15	0.43563	797.03	0.237
308.15	0	776.986	0.238
308.15	0.02435	777.924	0.238
308.15	0.06257	779.382	0.238
308.15	0.07241	779.754	0.238
308.15	0.10394	780.936	0.238
308.15	0.16161	783.06	0.238
308.15	0.21274	785.044	0.238
308.15	0.24488	786.217	0.237
308.15	0.29445	787.7	0.237
308.15	0.38265	790.796	0.237
308.15	0.43563	792.549	0.237
313.15	0	772.6	0.239
313.15	0.02435	773.524	0.238
313.15	0.06257	774.96	0.238
313.15	0.07241	775.326	0.238
313.15	0.10394	776.497	0.238
313.15	0.16161	778.598	0.238
313.15	0.21274	780.569	0.238
313.15	0.24488	781.733	0.238
313.15	0.29445	783.204	0.238
313.15	0.38265	786.279	0.237
313.15	0.43563	788.024	0.237
318.15	0	768.166	0.239
318.15	0.02435	769.079	0.239
318.15	0.06257	770.497	0.239
318.15	0.07241	770.859	0.239
318.15	0.10394	772.012	0.239
318.15	0.16161	774.091	0.238
318.15	0.21274	776.048	0.238
318.15	0.24488	777.202	0.238
318.15	0.29445	778.659	0.238
318.15	0.38265	781.712	0.238
318.15	0.43563	783.446	0.238

System: ethanol + N,N-dimethylbenzylammonium acetate; phases: Liquid
Fixed: Pressure, kPa = 101.3
Property: Speed of sound, m/s (Liquid); method: Sing-around technique in a fixed-path interferometer
Temperature, K	Molality, mol/kg of N,N-dimethylbenzylammonium acetate	Speed of sound, m/s	uncertainty
293.15	0	1161.97	1.52
293.15	0.02435	1163.2	1.52
293.15	0.06257	1165.15	1.52
293.15	0.07241	1165.66	1.52
293.15	0.10394	1167.41	1.52
293.15	0.16161	1170.19	1.52
293.15	0.21274	1172.67	1.52
293.15	0.24488	1174.25	1.52
293.15	0.29445	1176.37	1.52
293.15	0.38265	1180.71	1.52
293.15	0.43563	1182.93	1.52
298.15	0	1145.44	1.52
298.15	0.02435	1146.65	1.52
298.15	0.06257	1148.57	1.52
298.15	0.07241	1149.1	1.52
298.15	0.10394	1150.67	1.52
298.15	0.16161	1153.5	1.52
298.15	0.21274	1155.94	1.52
298.15	0.24488	1157.46	1.52
298.15	0.29445	1158.94	1.52
298.15	0.38265	1163.24	1.52
298.15	0.43563	1165.42	1.52
303.15	0	1128.77	1.52
303.15	0.02435	1129.93	1.52
303.15	0.06257	1131.84	1.52
303.15	0.07241	1132.36	1.52
303.15	0.10394	1133.67	1.52
303.15	0.16161	1136.1	1.52
303.15	0.21274	1139.4	1.52
303.15	0.24488	1140.81	1.52
303.15	0.29445	1141.86	1.52
303.15	0.38265	1146.16	1.52
303.15	0.43563	1148.25	1.52
308.15	0	1112.14	1.51
308.15	0.02435	1113.28	1.51
308.15	0.06257	1115.15	1.51
308.15	0.07241	1115.64	1.51
308.15	0.10394	1117.07	1.51
308.15	0.16161	1119.1	1.51
308.15	0.21274	1122.65	1.51
308.15	0.24488	1124.02	1.51
308.15	0.29445	1124.79	1.52
308.15	0.38265	1128.99	1.52
308.15	0.43563	1131	1.52
313.15	0	1095.49	1.51
313.15	0.02435	1096.54	1.51
313.15	0.06257	1098.27	1.51
313.15	0.07241	1098.77	1.51
313.15	0.10394	1100.55	1.51
313.15	0.16161	1102.05	1.51
313.15	0.21274	1105.68	1.51
313.15	0.24488	1107.01	1.51
313.15	0.29445	1107.78	1.51
313.15	0.38265	1111.87	1.51
313.15	0.43563	1113.81	1.51
318.15	0	1078.79	1.51
318.15	0.02435	1079.84	1.51
318.15	0.06257	1081.57	1.51
318.15	0.07241	1082.15	1.51
318.15	0.10394	1083.66	1.51
318.15	0.16161	1085.79	1.51
318.15	0.21274	1088.88	1.51
318.15	0.24488	1090.47	1.51
318.15	0.29445	1091.43	1.51
318.15	0.38265	1095.42	1.51
318.15	0.43563	1097.32	1.51

System: water + benzyldimethylammonium propionate; phases: Liquid
Fixed: Pressure, kPa = 101.3
Property: Mass density, kg/m3 (Liquid); method: Vibrating tube method
Temperature, K	Molality, mol/kg of benzyldimethylammonium propionate	Mass density, kg/m3	uncertainty
293.15	0.01758	998.575	0.04
293.15	0.04981	999.232	0.04
293.15	0.11865	1000.537	0.041
293.15	0.19865	1002.002	0.042
293.15	0.29998	1003.856	0.045
293.15	0.35221	1004.785	0.046
293.15	0.58281	1008.738	0.051
293.15	0.60256	1009.092	0.051
298.15	0.01758	997.41	0.04
298.15	0.04981	998.052	0.04
298.15	0.11865	999.317	0.041
298.15	0.19865	1000.732	0.042
298.15	0.29998	1002.516	0.044
298.15	0.35221	1003.408	0.045
298.15	0.58281	1007.202	0.05
298.15	0.60256	1007.538	0.05
303.15	0.01758	996.008	0.041
303.15	0.04981	996.632	0.041
303.15	0.11865	997.859	0.042
303.15	0.19865	999.23	0.042
303.15	0.29998	1000.954	0.044
303.15	0.35221	1001.814	0.045
303.15	0.58281	1005.462	0.049
303.15	0.60256	1005.788	0.05
308.15	0.01758	994.383	0.042
308.15	0.04981	994.986	0.042
308.15	0.11865	996.19	0.042
308.15	0.19865	997.521	0.043
308.15	0.29998	999.188	0.044
308.15	0.35221	1000.02	0.044
308.15	0.58281	1003.541	0.049
308.15	0.60256	1003.847	0.049
313.15	0.01758	992.557	0.042
313.15	0.04981	993.152	0.043
313.15	0.11865	994.323	0.043
313.15	0.19865	995.616	0.044
313.15	0.29998	997.236	0.044
313.15	0.35221	998.04	0.045
313.15	0.58281	1001.443	0.048
313.15	0.60256	1001.739	0.048
318.15	0.01758	990.551	0.043
318.15	0.04981	991.101	0.043
318.15	0.11865	992.275	0.044
318.15	0.19865	993.535	0.044
318.15	0.29998	995.107	0.045
318.15	0.35221	995.887	0.046
318.15	0.58281	999.184	0.048
318.15	0.60256	999.473	0.048

System: water + benzyldimethylammonium propionate; phases: Liquid
Fixed: Pressure, kPa = 101.3
Property: Speed of sound, m/s (Liquid); method: Sing-around technique in a fixed-path interferometer
Temperature, K	Molality, mol/kg of benzyldimethylammonium propionate	Speed of sound, m/s	uncertainty
293.15	0.01758	1486.29	1.22
293.15	0.04981	1491.63	1.22
293.15	0.11865	1503.98	1.23
293.15	0.19865	1517.55	1.23
293.15	0.29998	1533.96	1.24
293.15	0.35221	1542.05	1.24
293.15	0.58281	1578.71	1.25
293.15	0.60256	1581.81	1.25
298.15	0.01758	1499.76	1.22
298.15	0.04981	1505.06	1.22
298.15	0.11865	1516.59	1.23
298.15	0.19865	1529.27	1.23
298.15	0.29998	1544.6	1.24
298.15	0.35221	1552.12	1.24
298.15	0.58281	1588.83	1.26
298.15	0.60256	1592.32	1.26
303.15	0.01758	1511.9	1.22
303.15	0.04981	1516.89	1.23
303.15	0.11865	1527.64	1.23
303.15	0.19865	1539.5	1.23
303.15	0.29998	1555.27	1.24
303.15	0.35221	1563.35	1.24
303.15	0.58281	1600.87	1.26
303.15	0.60256	1604.9	1.26
308.15	0.01758	1522.51	1.23
308.15	0.04981	1527.47	1.23
308.15	0.11865	1538.01	1.23
308.15	0.19865	1550.41	1.24
308.15	0.29998	1564.9	1.24
308.15	0.35221	1572.48	1.25
308.15	0.58281	1606.34	1.26
308.15	0.60256	1608.09	1.26
313.15	0.01758	1531.44	1.23
313.15	0.04981	1536.09	1.23
313.15	0.11865	1546.08	1.23
313.15	0.19865	1557.65	1.24
313.15	0.29998	1571.71	1.24
313.15	0.35221	1579.04	1.25
313.15	0.58281	1611.19	1.26
313.15	0.60256	1613.78	1.26
318.15	0.01758	1538.92	1.23
318.15	0.04981	1543.52	1.23
318.15	0.11865	1553.21	1.24
318.15	0.19865	1564.46	1.24
318.15	0.29998	1578.61	1.24
318.15	0.35221	1585.8	1.25
318.15	0.58281	1617.47	1.26
318.15	0.60256	1620.02	1.26

System: ethanol + benzyldimethylammonium propionate; phases: Liquid
Fixed: Pressure, kPa = 101.3
Property: Mass density, kg/m3 (Liquid); method: Vibrating tube method
Temperature, K	Molality, mol/kg of benzyldimethylammonium propionate	Mass density, kg/m3	uncertainty
293.15	0.02356	790.863	0.237
293.15	0.05911	792.267	0.237
293.15	0.11657	794.503	0.237
293.15	0.20649	797.788	0.236
293.15	0.28881	800.732	0.236
293.15	0.38244	804.063	0.236
293.15	0.60084	811.361	0.236
293.15	0.67631	813.779	0.235
298.15	0.02356	786.575	0.237
298.15	0.05911	787.965	0.237
298.15	0.11657	790.177	0.237
298.15	0.20649	793.433	0.237
298.15	0.28881	796.361	0.237
298.15	0.38244	799.664	0.236
298.15	0.60084	806.927	0.236
298.15	0.67631	809.339	0.236
303.15	0.02356	782.241	0.238
303.15	0.05911	783.59	0.238
303.15	0.11657	785.742	0.237
303.15	0.20649	789.031	0.237
303.15	0.28881	791.946	0.237
303.15	0.38244	795.208	0.237
303.15	0.60084	802.458	0.236
303.15	0.67631	804.856	0.236
308.15	0.02356	777.883	0.238
308.15	0.05911	779.222	0.238
308.15	0.11657	781.352	0.238
308.15	0.20649	784.61	0.238
308.15	0.28881	787.492	0.237
308.15	0.38244	790.752	0.237
308.15	0.60084	797.944	0.237
308.15	0.67631	800.327	0.236
313.15	0.02356	773.486	0.238
313.15	0.05911	774.809	0.238
313.15	0.11657	776.913	0.238
313.15	0.20649	780.131	0.238
313.15	0.28881	782.975	0.238
313.15	0.38244	786.194	0.237
313.15	0.60084	793.292	0.237
313.15	0.67631	795.644	0.237
318.15	0.02356	769.042	0.239
318.15	0.05911	770.351	0.239
318.15	0.11657	772.432	0.239
318.15	0.20649	775.614	0.238
318.15	0.28881	778.427	0.238
318.15	0.38244	781.613	0.238
318.15	0.60084	788.632	0.237
318.15	0.67631	790.958	0.237

System: ethanol + benzyldimethylammonium propionate; phases: Liquid
Fixed: Pressure, kPa = 101.3
Property: Speed of sound, m/s (Liquid); method: Sing-around technique in a fixed-path interferometer
Temperature, K	Molality, mol/kg of benzyldimethylammonium propionate	Speed of sound, m/s	uncertainty
293.15	0.02355	1163.65	1.52
293.15	0.05911	1165.32	1.52
293.15	0.11657	1168.02	1.52
293.15	0.20649	1172.25	1.52
293.15	0.28881	1176	1.52
293.15	0.38244	1180.3	1.52
293.15	0.60084	1189.83	1.52
293.15	0.67631	1193.05	1.52
298.15	0.02355	1146.9	1.52
298.15	0.05911	1148.52	1.52
298.15	0.11657	1151.18	1.52
298.15	0.20649	1155.35	1.52
298.15	0.28881	1159.05	1.52
298.15	0.38244	1163.28	1.52
298.15	0.60084	1172.44	1.52
298.15	0.67631	1175.87	1.52
303.15	0.02355	1129.97	1.52
303.15	0.05911	1131.54	1.52
303.15	0.11657	1134.16	1.52
303.15	0.20649	1138.25	1.52
303.15	0.28881	1141.89	1.52
303.15	0.38244	1146.16	1.52
303.15	0.60084	1155.46	1.52
303.15	0.67631	1158.49	1.52
308.15	0.02355	1113.1	1.51
308.15	0.05911	1114.63	1.51
308.15	0.11657	1117.18	1.51
308.15	0.20649	1121.22	1.51
308.15	0.28881	1124.82	1.52
308.15	0.38244	1129.07	1.52
308.15	0.60084	1138.36	1.52
308.15	0.67631	1141.17	1.52
313.15	0.02355	1096.3	1.51
313.15	0.05911	1097.79	1.51
313.15	0.11657	1100.28	1.51
313.15	0.20649	1104.28	1.51
313.15	0.28881	1107.8	1.51
313.15	0.38244	1111.73	1.51
313.15	0.60084	1121.23	1.51
313.15	0.67631	1123.57	1.51
318.15	0.02355	1079.57	1.51
318.15	0.05911	1081.01	1.51
318.15	0.11657	1083.44	1.51
318.15	0.20649	1087.34	1.51
318.15	0.28881	1090.8	1.51
318.15	0.38244	1094.65	1.51
318.15	0.60084	1104.01	1.51
318.15	0.67631	1106.31	1.51

System: water + benzyldimethylammonium hexanoate; phases: Liquid
Fixed: Pressure, kPa = 101.3
Property: Mass density, kg/m3 (Liquid); method: Vibrating tube method
Temperature, K	Molality, mol/kg of benzyldimethylammonium hexanoate	Mass density, kg/m3	uncertainty
293.15	0.04096	998.771	0.04
293.15	0.08786	999.403	0.041
293.15	0.12514	999.903	0.041
293.15	0.14792	1000.219	0.041
293.15	0.1975	1000.895	0.043
293.15	0.23486	1001.408	0.043
298.15	0.04096	997.582	0.041
298.15	0.08786	998.173	0.041
298.15	0.12514	998.64	0.042
298.15	0.14792	998.935	0.042
298.15	0.1975	999.56	0.042
298.15	0.23486	1000.037	0.043
303.15	0.04096	996.155	0.041
303.15	0.08786	996.708	0.042
303.15	0.12514	997.143	0.042
303.15	0.14792	997.413	0.042
303.15	0.1975	997.996	0.043
303.15	0.23486	998.439	0.044
308.15	0.04096	994.509	0.042
308.15	0.08786	995.029	0.043
308.15	0.12514	995.441	0.043
308.15	0.14792	995.689	0.043
308.15	0.1975	996.254	0.044
308.15	0.23486	996.664	0.044
313.15	0.04096	992.667	0.043
313.15	0.08786	993.154	0.043
313.15	0.12514	993.54	0.044
313.15	0.14792	993.782	0.044
313.15	0.1975	994.296	0.045
313.15	0.23486	994.677	0.045
318.15	0.04096	990.641	0.044
318.15	0.08786	991.1	0.044
318.15	0.12514	991.464	0.045
318.15	0.14792	991.694	0.045
318.15	0.1975	992.174	0.046
318.15	0.23486	992.534	0.046

System: water + benzyldimethylammonium hexanoate; phases: Liquid
Fixed: Pressure, kPa = 101.3
Property: Speed of sound, m/s (Liquid); method: Sing-around technique in a fixed-path interferometer
Temperature, K	Molality, mol/kg of benzyldimethylammonium hexanoate	Speed of sound, m/s	uncertainty
293.15	0.04096	1492.4	1.22
293.15	0.08786	1503.23	1.23
293.15	0.12514	1511.34	1.23
293.15	0.14792	1517.54	1.23
293.15	0.1975	1526.8	1.23
293.15	0.23486	1534.54	1.24
298.15	0.04096	1505.76	1.22
298.15	0.08786	1515.83	1.23
298.15	0.12514	1523.37	1.23
298.15	0.14792	1529.08	1.23
298.15	0.1975	1537.68	1.24
298.15	0.23486	1544.82	1.24
303.15	0.04096	1517.53	1.23
303.15	0.08786	1526.86	1.23
303.15	0.12514	1533.85	1.23
303.15	0.14792	1539.12	1.23
303.15	0.1975	1547.05	1.24
303.15	0.23486	1553.61	1.24
308.15	0.04096	1527.67	1.23
308.15	0.08786	1536.32	1.23
308.15	0.12514	1542.81	1.23
308.15	0.14792	1547.6	1.24
308.15	0.1975	1554.92	1.24
308.15	0.23486	1560.95	1.24
313.15	0.04096	1536.23	1.23
313.15	0.08786	1544.28	1.23
313.15	0.12514	1550.27	1.24
313.15	0.14792	1554.66	1.24
313.15	0.1975	1561.38	1.24
313.15	0.23486	1566.91	1.24
318.15	0.04096	1543.32	1.23
318.15	0.08786	1550.8	1.23
318.15	0.12514	1556.32	1.24
318.15	0.14792	1560.35	1.24
318.15	0.1975	1566.49	1.24
318.15	0.23486	1571.55	1.24

System: ethanol + benzyldimethylammonium hexanoate; phases: Liquid
Fixed: Pressure, kPa = 101.3
Property: Mass density, kg/m3 (Liquid); method: Vibrating tube method
Temperature, K	Molality, mol/kg of benzyldimethylammonium hexanoate	Mass density, kg/m3	uncertainty
293.15	0.05683	792.387	0.237
293.15	0.1053	794.335	0.237
293.15	0.14298	795.8	0.237
293.15	0.15884	796.232	0.237
293.15	0.19075	797.464	0.236
293.15	0.25882	799.833	0.236
298.15	0.05683	788.087	0.237
298.15	0.1053	790.02	0.237
298.15	0.14298	791.471	0.237
298.15	0.15884	791.902	0.237
298.15	0.19075	793.126	0.237
298.15	0.25882	795.48	0.237
303.15	0.05683	783.753	0.238
303.15	0.1053	785.667	0.237
303.15	0.14298	787.108	0.237
303.15	0.15884	787.534	0.237
303.15	0.19075	788.748	0.237
303.15	0.25882	791.088	0.237
308.15	0.05683	779.383	0.238
308.15	0.1053	781.278	0.238
308.15	0.14298	782.707	0.238
308.15	0.15884	783.13	0.238
308.15	0.19075	784.335	0.238
308.15	0.25882	786.659	0.237
313.15	0.05683	774.972	0.238
313.15	0.1053	776.849	0.238
313.15	0.14298	778.264	0.238
313.15	0.15884	778.684	0.238
313.15	0.19075	779.881	0.238
313.15	0.25882	782.187	0.238
318.15	0.05683	770.519	0.239
318.15	0.1053	772.376	0.239
318.15	0.14298	773.777	0.238
318.15	0.15884	774.193	0.238
318.15	0.19075	775.379	0.238
318.15	0.25882	777.668	0.238

System: ethanol + benzyldimethylammonium hexanoate; phases: Liquid
Fixed: Pressure, kPa = 101.3
Property: Speed of sound, m/s (Liquid); method: Sing-around technique in a fixed-path interferometer
Temperature, K	Molality, mol/kg of benzyldimethylammonium hexanoate	Speed of sound, m/s	uncertainty
293.15	0.05683	1165.76	1.52
293.15	0.1053	1168.85	1.52
293.15	0.14298	1170.89	1.52
293.15	0.15884	1171.61	1.52
293.15	0.19075	1173.5	1.52
293.15	0.25882	1176.83	1.52
298.15	0.05683	1149.11	1.52
298.15	0.1053	1152.3	1.52
298.15	0.14298	1154.18	1.52
298.15	0.15884	1154.97	1.52
298.15	0.19075	1156.63	1.52
298.15	0.25882	1159.97	1.52
303.15	0.05683	1132.41	1.52
303.15	0.1053	1135.51	1.52
303.15	0.14298	1137.53	1.52
303.15	0.15884	1138.33	1.52
303.15	0.19075	1139.66	1.52
303.15	0.25882	1142.97	1.52
308.15	0.05683	1115.72	1.51
308.15	0.1053	1118.81	1.51
308.15	0.14298	1120.8	1.51
308.15	0.15884	1121.63	1.51
308.15	0.19075	1122.85	1.51
308.15	0.25882	1126.14	1.52
313.15	0.05683	1099.01	1.51
313.15	0.1053	1102.05	1.51
313.15	0.14298	1103.96	1.51
313.15	0.15884	1104.78	1.51
313.15	0.19075	1106.01	1.51
313.15	0.25882	1109.16	1.51
318.15	0.05683	1082.19	1.51
318.15	0.1053	1085.31	1.51
318.15	0.14298	1087.14	1.51
318.15	0.15884	1087.93	1.51
318.15	0.19075	1089.17	1.51
318.15	0.25882	1092.37	1.51
