Measured thermophysical data. Physical properties of 3-methyl-N-butylpyridinium tricyanomethanide and  ternary LLE data with an aromatic and an aliphatic hydrocarbon at T = (303.2 and  328.2) K and p = 0.1 MPa
Source: Fluid Phase Equilib., 2011, 10.1016/j.fluid.2011.05.002
Compound 1: benzene, C6H6, InChI=1S/C6H6/c1-2-4-6-5-3-1/h1-6H, purity 99.9%
Compound 2: hexane, C6H14, InChI=1S/C6H14/c1-3-5-6-4-2/h3-6H2,1-2H3, purity 99%
Compound 3: heptane, C7H16, InChI=1S/C7H16/c1-3-5-7-6-4-2/h3-7H2,1-2H3, purity 99.3%
Compound 4: octane, C8H18, InChI=1S/C8H18/c1-3-5-7-8-6-4-2/h3-8H2,1-2H3, purity 99%
Compound 5: 1,4-dimethylbenzene, C8H10, InChI=1S/C8H10/c1-7-3-5-8(2)6-4-7/h3-6H,1-2H3, purity 99%
Compound 6: toluene, C7H8, InChI=1S/C7H8/c1-7-5-3-2-4-6-7/h2-6H,1H3, purity 99.9%
Compound 7: 1-butyl-3-methylpyridinium tricyanomethanide, C14H16N4, InChI=1S/C10H16N.C4N3/c1-3-4-7-11-8-5-6-10(2)9-11;5-1-4(2-6)3-7/h5-6,8-9H,3-4,7H2,1-2H3;/q+1;-1, purity 98%

System: 1-butyl-3-methylpyridinium tricyanomethanide; phases: Liquid, Air at 1 atmosphere
Property: Mass density, kg/m3 (Liquid); method: Vibrating tube method
Temperature, K	Mass density, kg/m3	uncertainty
283.15	1052.57	1.32
293.15	1045.79	1.31
303.15	1039.12	1.3
313.15	1032.55	1.3
323.15	1026.1	1.29
333.15	1019.76	1.28
343.15	1013.52	1.27
353.15	1007.34	1.27
363.15	1001.13	1.26

System: 1-butyl-3-methylpyridinium tricyanomethanide; phases: Liquid
Fixed: Pressure, kPa = 101.325
Property: Molar heat capacity at constant pressure, J/K/mol (Liquid); method: Small sample (50 mg) DSC
Temperature, K	Molar heat capacity at constant pressure, J/K/mol	uncertainty
298	468	47
323	479	48

System: 1-butyl-3-methylpyridinium tricyanomethanide; phases: Liquid
Fixed: Pressure, kPa = 101.325
Property: Viscosity, Pa*s (Liquid); method: Capillary tube (Ostwald; Ubbelohde) method
Temperature, K	Viscosity, Pa*s	uncertainty
295.15	0.05142	0.00218
298.15	0.04392	0.00186
303.15	0.03487	0.00148
308.15	0.02822	0.00119
313.15	0.02327	0.00098
323.15	0.01625	0.00068
333.15	0.01219	0.00051
343.15	0.00956	0.0004
353.15	0.00754	0.00031
363.15	0.00607	0.00025

System: 1-butyl-3-methylpyridinium tricyanomethanide; phases: Liquid, Air at 1 atmosphere
Property: Surface tension liquid-gas, N/m (Liquid); method: Ring tensiometer
Temperature, K	Surface tension liquid-gas, N/m	uncertainty
296.05	0.0277	0.0006
305.75	0.0273	0.0006
313.75	0.0269	0.0006
320.65	0.0266	0.0006
329.85	0.0263	0.0006
338.15	0.026	0.0006
346.15	0.0255	0.0005
356.15	0.0251	0.0005

System: benzene + hexane + 1-butyl-3-methylpyridinium tricyanomethanide; phases: Liquid mixture 1, Liquid mixture 2
Fixed: Pressure, kPa = 100
Property: Mass fraction of hexane (Liquid mixture 1); method: Chromatography
Property: Mass fraction of hexane (Liquid mixture 2); method: Chromatography
Property: Mass fraction of benzene (Liquid mixture 2); method: Chromatography
Temperature, K	Mass fraction of benzene	Mass fraction of hexane	uncertainty	Mass fraction of hexane	uncertainty	Mass fraction of benzene	uncertainty
303.2	0	0.997	0.003	0.025	0.001	0	
303.2	0.998	0		0		0.615	
328.2	0	0.997	0.003	0.025	0.001	0	
328.2	0.03	0.967	0.033	0.026	0.001	0.017	
328.2	0.068	0.93	0.047	0.027	0.001	0.039	
328.2	0.106	0.892	0.045	0.031	0.002	0.067	
328.2	0.138	0.859	0.044	0.03	0.002	0.084	
328.2	0.289	0.708	0.038	0.03	0.002	0.172	
328.2	0.443	0.554	0.036	0.037	0.002	0.254	
328.2	0.691	0.307	0.038	0.031	0.002	0.403	
328.2	0.839	0.159	0.043	0.025	0.005	0.475	
303.2	0.027	0.97	0.03	0.025	0.001	0.019	
328.2	0.998	0		0		0.566	
303.2	0.063	0.934	0.047	0.025	0.001	0.042	
303.2	0.096	0.901	0.045	0.029	0.002	0.074	
303.2	0.128	0.869	0.044	0.026	0.002	0.09	
303.2	0.264	0.731	0.039	0.028	0.002	0.182	
303.2	0.395	0.602	0.036	0.029	0.002	0.259	
303.2	0.657	0.341	0.037	0.032	0.002	0.434	
303.2	0.809	0.189	0.042	0.026	0.005	0.506	

System: toluene + heptane + 1-butyl-3-methylpyridinium tricyanomethanide; phases: Liquid mixture 1, Liquid mixture 2
Fixed: Pressure, kPa = 100
Property: Mass fraction of heptane (Liquid mixture 1); method: Chromatography
Property: Mass fraction of heptane (Liquid mixture 2); method: Chromatography
Property: Mass fraction of toluene (Liquid mixture 2); method: Chromatography
Temperature, K	Mass fraction of toluene	Mass fraction of heptane	uncertainty	Mass fraction of heptane	uncertainty	Mass fraction of toluene	uncertainty
303.2	0	0.995	0.005	0.018	0.001	0	
303.2	0.862	0.135	0.044	0.01	0.003	0.399	
303.2	0.997	0		0		0.421	
328.2	0	0.998	0.002	0.018	0.001	0	
328.2	0.038	0.959	0.041	0.019	0.001	0.018	
328.2	0.077	0.92	0.046	0.018	0.001	0.036	
328.2	0.119	0.878	0.044	0.018	0.001	0.054	
328.2	0.163	0.834	0.043	0.018	0.001	0.071	
328.2	0.323	0.674	0.037	0.021	0.001	0.148	
328.2	0.499	0.499	0.035	0.017	0.001	0.221	
328.2	0.709	0.288	0.038	0.015	0.001	0.306	
303.2	0.037	0.961	0.039	0.019	0.001	0.02	
328.2	0.816	0.181	0.042	0.011	0.002	0.355	
328.2	0.928	0.07	0.046	0.008	0.003	0.402	
328.2	0.998	0		0		0.414	
303.2	0.074	0.923	0.046	0.017	0.001	0.039	
303.2	0.112	0.885	0.045	0.019	0.001	0.061	
303.2	0.148	0.85	0.043	0.019	0.001	0.08	
303.2	0.308	0.685	0.038	0.016	0.001	0.149	
303.2	0.478	0.519	0.035	0.016	0.001	0.229	
303.2	0.671	0.326	0.037	0.015	0.001	0.317	
303.2	0.788	0.21	0.041	0.012	0.001	0.353	

System: 1,4-dimethylbenzene + octane + 1-butyl-3-methylpyridinium tricyanomethanide; phases: Liquid mixture 1, Liquid mixture 2
Fixed: Pressure, kPa = 100
Property: Mass fraction of octane (Liquid mixture 1); method: Chromatography
Property: Mass fraction of octane (Liquid mixture 2); method: Chromatography
Property: Mass fraction of 1,4-dimethylbenzene (Liquid mixture 2); method: Chromatography
Temperature, K	Mass fraction of 1,4-dimethylbenzene	Mass fraction of octane	uncertainty	Mass fraction of octane	uncertainty	Mass fraction of 1,4-dimethylbenzene	uncertainty
302.2	0	1		0.016	0.001	0	
328.2	0	1		0.016	0.001	0	
328.2	0.039	0.961	0.039	0.016	0.001	0.018	
328.2	0.084	0.916	0.046	0.016	0.001	0.034	
328.2	0.096	0.904	0.045	0.017	0.001	0.038	
328.2	0.136	0.864	0.044	0.017	0.001	0.053	
328.2	0.296	0.704	0.038	0.016	0.001	0.11	
328.2	0.469	0.531	0.036	0.016	0.001	0.167	
328.2	0.697	0.303	0.038	0.013	0.001	0.236	
328.2	1	0		0		0.346	
302.2	0.037	0.963	0.037	0.015	0.001	0.014	
302.2	0.08	0.919	0.046	0.014	0.001	0.031	
302.2	0.092	0.907	0.046	0.018	0.001	0.04	
302.2	0.129	0.871	0.044	0.017	0.001	0.056	
302.2	0.287	0.713	0.039	0.016	0.001	0.116	
302.2	0.45	0.549	0.036	0.017	0.001	0.177	
302.2	0.676	0.324	0.038	0.013	0.001	0.249	
302.2	1	0		0		0.357	

System: hexane + 1-butyl-3-methylpyridinium tricyanomethanide; phases: Liquid mixture 1, Liquid mixture 2
Fixed: Pressure, kPa = 100
Property: Mass fraction of hexane (Liquid mixture 1); method: Chromatography
Temperature, K	Mass fraction of hexane	uncertainty
303.2	0.997	0.003
328.2	0.997	0.003

System: hexane + 1-butyl-3-methylpyridinium tricyanomethanide; phases: Liquid mixture 2, Liquid mixture 1
Fixed: Pressure, kPa = 100
Property: Mass fraction of hexane (Liquid mixture 2); method: Chromatography
Temperature, K	Mass fraction of hexane	uncertainty
303.2	0.025	0.001
328.2	0.025	0.001

System: benzene + 1-butyl-3-methylpyridinium tricyanomethanide; phases: Liquid mixture 1, Liquid mixture 2
Fixed: Pressure, kPa = 100
Property: Mass fraction of benzene (Liquid mixture 1); method: Chromatography
Temperature, K	Mass fraction of benzene	uncertainty
328.2	0.998	0.002
303.2	0.998	0.002

System: benzene + 1-butyl-3-methylpyridinium tricyanomethanide; phases: Liquid mixture 2, Liquid mixture 1
Fixed: Pressure, kPa = 100
Property: Mass fraction of benzene (Liquid mixture 2); method: Chromatography
Temperature, K	Mass fraction of benzene	uncertainty
328.2	0.566	0.028
303.2	0.615	0.031

System: heptane + 1-butyl-3-methylpyridinium tricyanomethanide; phases: Liquid mixture 1, Liquid mixture 2
Fixed: Pressure, kPa = 100
Property: Mass fraction of heptane (Liquid mixture 1); method: Chromatography
Temperature, K	Mass fraction of heptane	uncertainty
303.2	0.995	0.005
328.2	0.998	0.002

System: heptane + 1-butyl-3-methylpyridinium tricyanomethanide; phases: Liquid mixture 2, Liquid mixture 1
Fixed: Pressure, kPa = 100
Property: Mass fraction of heptane (Liquid mixture 2); method: Chromatography
Temperature, K	Mass fraction of heptane	uncertainty
303.2	0.018	0.001
328.2	0.018	0.001

System: toluene + 1-butyl-3-methylpyridinium tricyanomethanide; phases: Liquid mixture 1, Liquid mixture 2
Fixed: Pressure, kPa = 100
Property: Mass fraction of toluene (Liquid mixture 1); method: Chromatography
Temperature, K	Mass fraction of toluene	uncertainty
328.2	0.998	0.002
303.2	0.997	0.003

System: toluene + 1-butyl-3-methylpyridinium tricyanomethanide; phases: Liquid mixture 2, Liquid mixture 1
Fixed: Pressure, kPa = 100
Property: Mass fraction of toluene (Liquid mixture 2); method: Chromatography
Temperature, K	Mass fraction of toluene	uncertainty
328.2	0.414	0.021
303.2	0.421	0.021

System: octane + 1-butyl-3-methylpyridinium tricyanomethanide; phases: Liquid mixture 2, Liquid mixture 1
Fixed: Pressure, kPa = 100
Property: Mass fraction of octane (Liquid mixture 2); method: Chromatography
Temperature, K	Mass fraction of octane	uncertainty
302.2	0.016	0.001
328.2	0.016	0.001

System: 1,4-dimethylbenzene + 1-butyl-3-methylpyridinium tricyanomethanide; phases: Liquid mixture 2, Liquid mixture 1
Fixed: Pressure, kPa = 100
Property: Mass fraction of 1,4-dimethylbenzene (Liquid mixture 2); method: Chromatography
Temperature, K	Mass fraction of 1,4-dimethylbenzene	uncertainty
328.2	0.346	0.017
302.2	0.357	0.018
