Measured thermophysical data. Densities, apparent and partial molar volumes of aqueous KBr solutions at high temperatures and high pressures
Source: Fluid Phase Equilib., 2006, 10.1016/j.fluid.2006.05.015
Compound 1: water, H2O, InChI=1S/H2O/h1H2
Compound 2: potassium bromide, BrK, InChI=1S/BrH.K/h1H;/q;+1/p-1, purity 99%

System: water; phases: Fluid (supercritical or subcritical phases)
Property: Mass density, kg/m3 (Fluid (supercritical or subcritical phases)); method: Constant-volume piezometry
Temperature, K	Pressure, kPa	Mass density, kg/m3	uncertainty
299.25	5182	999.2	1.2
299.25	31060	1010.4	1.2
349.12	8540	977.86	1.19
349.12	24440	984.93	1.22
399.57	3183	939.45	1.14
399.57	30090	952.6	1.2
438.94	6455	905.35	1.11
438.94	27860	917.35	1.16
494.18	8890	844.81	1.05
494.18	29240	859.91	1.11
555.43	9803	751.67	0.95
555.43	27940	777.34	1.02
617.27	16300	603.42	0.79
617.27	28080	653.82	0.88

System: water + potassium bromide; phases: Liquid
Fixed: Pressure, kPa = 101
Property: Mass density, kg/m3 (Liquid); method: Constant-volume piezometry
Temperature, K	Molality, mol/kg of potassium bromide	Mass density, kg/m3	uncertainty
298.15	0.2378	1017	1.2
298.15	0.4645	1035.5	1.2
298.15	0.944	1073.1	1.3
298.15	2.231	1167.1	1.4
303.15	0.2378	1015.5	1.2
303.15	0.4645	1033.8	1.2
303.15	0.944	1071.4	1.3
303.15	2.231	1164.9	1.4
308.15	0.2378	1013.7	1.2
308.15	0.4645	1032	1.2
308.15	0.944	1069.3	1.3
308.15	2.231	1162.4	1.4
313.15	0.2378	1011.8	1.2
313.15	0.4645	1030.1	1.2
313.15	0.944	1067.2	1.3
313.15	2.231	1159.9	1.4
318.15	0.2378	1009.8	1.2
318.15	0.4645	1027.9	1.2
318.15	0.944	1065	1.3
318.15	2.231	1157.4	1.4
323.15	0.2378	1007.5	1.2
323.15	0.4645	1025.6	1.2
323.15	0.944	1062.5	1.3
323.15	2.231	1154.8	1.4
328.15	0.2378	1005.1	1.2
328.15	0.4645	1023.2	1.2
328.15	0.944	1060	1.3
328.15	2.231	1152.1	1.4
333.15	0.2378	1002.6	1.2
333.15	0.4645	1020.5	1.2
333.15	0.944	1057.4	1.3
333.15	2.231	1149.3	1.4
338.15	0.2378	999.9	1.2
338.15	0.4645	1017.8	1.2
338.15	0.944	1054.6	1.3
338.15	2.231	1146.4	1.4
343.15	0.2378	997.1	1.2
343.15	0.4645	1014.9	1.2
343.15	0.944	1051.7	1.3
348.15	0.2378	994.2	1.2
348.15	0.4645	1012	1.2
348.15	0.944	1048.7	1.3

System: water + potassium bromide; phases: Liquid
Property: Mass density, kg/m3 (Liquid); method: Constant-volume piezometry
Pressure, kPa	Temperature, K	Molality, mol/kg of potassium bromide	Mass density, kg/m3	uncertainty
2118	310.59	2.231	1162.1	1.4
3020	305.49	0.2378	1016	1.2
3099	400.81	0.944	1010.2	1.2
3256	308.32	0.4645	1033.3	1.2
3256	393.11	0.2378	963.5	1.2
3334	349.79	0.2378	994.6	1.2
3668	358.08	0.944	1043.1	1.3
3746	380.97	0.4645	990.6	1.2
3824	359.48	2.231	1132.6	1.4
3825	453.99	0.4645	925.6	1.1
3923	343.33	0.4645	1016.4	1.2
4079	298.94	0.944	1074.6	1.3
4158	456.48	0.944	959.4	1.2
4236	432.97	2.231	1073.5	1.3
4413	482.36	0.4645	893.9	1.1
4413	493.15	0.944	918.4	1.1
4805	434.09	0.2378	928.1	1.1
4903	475.7	0.2378	884.5	1.1
5217	483.32	2.231	1024.2	1.3
5786	505.79	2.231	999.3	1.2
6119	511.39	0.4645	858.4	1.1
7355	520.89	0.944	884.8	1.1
8081	534.22	0.2378	809.6	1
8571	482.36	0.4645	897	1.1
8571	540.44	0.4645	819.8	1
9061	400.81	0.944	1013	1.2
9140	453.99	0.4645	928.9	1.2
9140	551.72	0.944	842.2	1.1
9218	434.09	0.2378	930.6	1.2
9316	380.97	0.4645	993.2	1.2
9552	343.33	0.4645	1018.7	1.2
9708	555.7	2.231	941.3	1.2
10120	358.08	0.944	1046.1	1.3
10120	456.48	0.944	963.3	1.2
10297	511.39	0.4645	862.3	1.1
10375	305.49	0.2378	1019.1	1.2
10375	308.32	0.4645	1036.5	1.3
10611	475.7	0.2378	888.7	1.1
10866	359.48	2.231	1135.7	1.4
10866	393.11	0.2378	967.2	1.2
11023	580.61	0.4645	754.1	1
11234	592.65	0.2378	698.5	0.9
11278	349.79	0.2378	997.9	1.2
11356	432.97	2.231	1077.7	1.3
11356	534.22	0.2378	813.5	1
11591	493.15	0.944	923.9	1.2
11591	540.44	0.4645	823.1	1
11670	579.16	0.944	797.3	1
11846	505.79	2.231	1004	1.3
12082	483.32	2.231	1029.2	1.3
12082	520.89	0.944	889.3	1.1
12494	580.61	0.4645	757.8	1
13731	592.65	0.2378	706.6	0.9
13886	298.94	0.944	1079.1	1.3
13965	555.7	2.231	946	1.2
14220	579.16	0.944	803	1
14533	551.72	0.944	848.7	1.1
14710	310.59	2.231	1167.8	1.4
14847	616.41	0.944	714.7	0.9
15175	482.36	0.4645	902	1.1
15769	616.41	0.944	727.1	1
16047	511.39	0.4645	867.8	1.1
16241	453.99	0.4645	933.5	1.2
16550	343.33	0.4645	1021.6	1.3
16570	432.97	2.231	1080.7	1.4
16573	608.09	0.4645	703.4	0.9
16941	434.09	0.2378	935	1.2
16954	505.79	2.231	1007.9	1.3
17148	456.48	0.944	967.9	1.2
17475	628.63	2.231	841.1	1.1
17652	608.09	0.4645	707.1	0.9
18221	628.63	2.231	844.9	1.1
18381	400.81	0.944	1017.7	1.3
18995	359.48	2.231	1139.3	1.4
19782	580.61	0.4645	773.2	1
19825	310.59	2.231	1170.1	1.4
19875	616.41	0.944	753.5	1
19995	555.7	2.231	952.8	1.2
20122	520.89	0.944	896.9	1.2
20588	482.36	0.4645	905.8	1.2
20610	592.65	0.2378	725.2	1
20665	579.16	0.944	816.1	1.1
21042	380.97	0.4645	998.6	1.2
21065	393.11	0.2378	972	1.2
21454	493.15	0.944	931.3	1.2
21645	551.72	0.944	857.5	1.1
22060	475.7	0.2378	896.6	1.1
22088	483.32	2.231	1036.8	1.3
22189	540.44	0.4645	836.2	1.1
22357	432.97	2.231	1084	1.4
22957	453.99	0.4645	937.5	1.2
23146	608.09	0.4645	725.8	1
23461	349.79	0.2378	1003.1	1.2
23496	534.22	0.2378	827	1.1
23665	579.16	0.944	822.3	1.1
23854	505.79	2.231	1013.5	1.3
23967	555.7	2.231	957	1.3
24027	456.48	0.944	972.2	1.2
24184	511.39	0.4645	875.1	1.1
25284	493.15	0.944	934.3	1.2
25438	400.81	0.944	1020.8	1.3
25870	359.48	2.231	1142.3	1.4
26194	483.32	2.231	1039.4	1.3
26860	393.11	0.2378	974.7	1.2
27594	305.49	0.2378	1026.4	1.3
28064	434.09	0.2378	941.1	1.2
28570	343.33	0.4645	1026.7	1.3
28950	298.94	0.944	1085.8	1.3
29078	308.32	0.4645	1044.3	1.3
29145	358.08	0.944	1054.5	1.3
29380	349.79	0.2378	1005.5	1.3
29750	380.97	0.4645	1002.5	1.3
29828	310.59	2.231	1174.5	1.5
29860	475.7	0.2378	902	1.2
