Measured thermophysical data. Solubility of thiopene in carbon dioxide and carbon dioxide + 1-propanol mixtures at temperatures from 313 to 363K
Source: Fluid Phase Equilib., 2005, 10.1016/j.fluid.2004.11.018
Compound 1: thiophene, C4H4S, InChI=1S/C4H4S/c1-2-4-5-3-1/h1-4H, purity 99.7%
Compound 2: carbon dioxide, CO2, InChI=1S/CO2/c2-1-3, purity 99.995%
Compound 3: propan-1-ol, C3H8O, InChI=1S/C3H8O/c1-2-3-4/h4H,2-3H2,1H3, purity 99.7%
Compound 4: ethanol, C2H6O, InChI=1S/C2H6O/c1-2-3/h3H,2H2,1H3

System: ethanol + carbon dioxide; phases: Liquid, Gas
Fixed: Temperature, K = 333.15
Property: Vapor or sublimation pressure, kPa (Liquid); method: Closed cell (Static) method
Mole fraction of carbon dioxide	Vapor or sublimation pressure, kPa	uncertainty
0.1342	3050	59
0.2118	4543	91
0.2515	5318	102
0.3542	7138	130
0.4442	8515	132
0.5376	9561	82
0.7808	10406	74

System: ethanol + carbon dioxide; phases: Gas, Liquid
Fixed: Temperature, K = 333.15
Property: Mole fraction of carbon dioxide (Gas); method: CHROM:UFactor:4
Mole fraction of carbon dioxide	Mole fraction of carbon dioxide	uncertainty
0.1342	0.9768	0.0196
0.2118	0.9787	0.0196
0.2515	0.9799	0.0196
0.3542	0.978	0.0196
0.4442	0.9745	0.0195
0.5376	0.9641	0.0194
0.7808	0.9203	0.0188

System: thiophene + carbon dioxide; phases: Liquid, Gas
Property: Vapor or sublimation pressure, kPa (Liquid); method: Closed cell (Static) method
Mole fraction of thiophene	Temperature, K	Vapor or sublimation pressure, kPa	uncertainty
0.1715	314.47	7047	30
0.1722	334.28	9601	38
0.22	314.47	6772	32
0.2423	363.53	12724	60
0.2585	334.28	9034	46
0.2693	383.03	14421	68
0.2956	363.53	12194	65
0.3213	383.03	13933	75
0.3396	314.47	6143	41
0.3603	363.53	11651	79
0.4014	383.03	13175	109
0.4029	334.28	8021	68
0.4148	363.53	11027	113
0.4649	383.03	12116	161
0.4845	363.53	10046	148
0.5221	334.28	6957	105
0.529	383.03	11023	195
0.5545	314.47	5022	72
0.5548	363.53	8934	199
0.5741	383.03	10132	252
0.5999	363.53	7978	220
0.601	334.28	6032	148
0.6164	383.03	9118	290
0.6567	363.53	7066	242
0.6627	383.03	8061	303
0.667	334.28	5142	189
0.6674	314.47	4018	119
0.7087	363.53	5963	290
0.7099	383.03	6989	340
0.7477	334.28	3977	226
0.7499	383.03	5975	377
0.756	363.53	4980	311
0.7849	383.03	5107	377
0.8032	334.28	3079	252
0.8035	363.53	4025	317
0.8261	383.03	4145	386
0.8679	334.28	2088	266

System: thiophene + carbon dioxide; phases: Gas, Liquid
Property: Mole fraction of thiophene (Gas); method: CHROM:UFactor:4
Mole fraction of thiophene	Temperature, K	Mole fraction of thiophene	uncertainty
0.1715	314.47	0.0131	0.0005
0.1722	334.28	0.0409	0.0017
0.22	314.47	0.0119	0.0005
0.2423	363.53	0.1001	0.0046
0.2585	334.28	0.0298	0.0013
0.2693	383.03	0.1461	0.0065
0.2956	363.53	0.0763	0.0035
0.3213	383.03	0.1166	0.0051
0.3396	314.47	0.0118	0.0005
0.3603	363.53	0.0639	0.0029
0.4014	383.03	0.0998	0.0044
0.4029	334.28	0.0225	0.0009
0.4148	363.53	0.0517	0.0025
0.4649	383.03	0.0817	0.0038
0.4845	363.53	0.046	0.0019
0.5221	334.28	0.0219	0.0009
0.529	383.03	0.0711	0.0031
0.5545	314.47	0.0111	0.0004
0.5548	363.53	0.0436	0.0017
0.5741	383.03	0.0682	0.0027
0.5999	363.53	0.042	0.0017
0.601	334.28	0.0205	0.0008
0.6164	383.03	0.0668	0.0027
0.6567	363.53	0.0427	0.0017
0.6627	383.03	0.065	0.0026
0.667	334.28	0.0208	0.0008
0.6674	314.47	0.0119	0.0005
0.7087	363.53	0.0438	0.0018
0.7099	383.03	0.0645	0.0026
0.7477	334.28	0.0222	0.001
0.7499	383.03	0.0673	0.0029
0.756	363.53	0.0461	0.002
0.7849	383.03	0.0707	0.0038
0.8032	334.28	0.0246	0.0015
0.8035	363.53	0.0497	0.0026
0.8261	383.03	0.0795	0.0047
0.8679	334.28	0.0305	0.002

System: propan-1-ol + thiophene + carbon dioxide; phases: Liquid, Gas
Property: Mole fraction of carbon dioxide (Liquid); method: Chromatography
Property: Mole fraction of carbon dioxide (Gas); method: Chromatography
Property: Mole fraction of thiophene (Gas); method: Chromatography
Temperature, K	Pressure, kPa	Mole fraction of thiophene	Mole fraction of carbon dioxide	uncertainty	Mole fraction of carbon dioxide	uncertainty	Mole fraction of thiophene	uncertainty
314.17	2025	0.7588	0.1854	0.0039	0.9869	0.0131	0.0117	
314.17	2982	0.6834	0.2668	0.0057	0.9906	0.0094	0.0084	
314.17	5076	0.4737	0.4911	0.0104	0.9901	0.0099	0.0089	
314.17	5541	0.4173	0.551	0.0115	0.9898	0.0102	0.0092	
314.32	2361	0.7874	0.1876	0.004	0.9841	0.0159	0.0149	
314.32	3355	0.671	0.2951	0.0063	0.987	0.013	0.011	
314.32	4385	0.5456	0.4113	0.0087	0.9883	0.0117	0.0099	
314.32	5921	0.3123	0.6394	0.013	0.987	0.013	0.0108	
314.32	6423	0.214	0.7376	0.0149	0.9864	0.0136	0.0114	
314.32	6674	0.1674	0.7862	0.0158	0.986	0.014	0.0115	
333.89	1827	0.7942	0.1455	0.0031	0.9727	0.0195	0.024	
333.89	2625	0.7577	0.1868	0.004	0.9784	0.0196	0.019	
333.89	4866	0.5852	0.3782	0.008	0.9813	0.0187	0.0169	
333.89	6015	0.512	0.4572	0.0097	0.982	0.018	0.0163	
333.89	6962	0.4426	0.5349	0.0112	0.9805	0.0195	0.0178	
333.89	7989	0.3355	0.6505	0.0132	0.9795	0.0196	0.0191	
333.89	8397	0.2679	0.7174	0.0145	0.9773	0.0195	0.0209	
334.14	3805	0.5633	0.248	0.0053	0.9765	0.0195	0.0189	
334.14	4778	0.4862	0.3519	0.0075	0.9776	0.0196	0.018	
334.14	5784	0.425	0.4336	0.0092	0.9779	0.0196	0.0177	
334.14	6815	0.354	0.5285	0.0111	0.977	0.0195	0.0183	
334.14	7814	0.2727	0.6379	0.013	0.9739	0.0195	0.0206	
334.14	8798	0.1997	0.733	0.0148	0.9689	0.0194	0.0243	
334.14	9289	0.147	0.8052	0.0162	0.9647	0.0193	0.0274	
363.35	2173	0.884	0.1121	0.0024	0.9374	0.0188	0.0619	
363.35	4241	0.7519	0.2402	0.0051	0.9578	0.0192	0.0413	
363.35	7341	0.5982	0.3891	0.0083	0.9634	0.0193	0.0351	
363.35	9322	0.4751	0.5118	0.0108	0.9566	0.0191	0.0413	
363.35	10782	0.3756	0.6106	0.0125	0.9467	0.0189	0.0503	
363.67	7423	0.5537	0.3886	0.0082	0.9528	0.0191	0.0413	
363.67	8587	0.4853	0.4515	0.0096	0.9512	0.019	0.0419	
363.67	9834	0.4033	0.5294	0.0111	0.9474	0.019	0.0443	
363.67	10736	0.3277	0.607	0.0125	0.9395	0.0188	0.05	
363.67	11667	0.2589	0.6822	0.0138	0.9257	0.0185	0.0599	
363.67	12533	0.1697	0.7844	0.0158	0.8913	0.0179	0.0851	

System: propan-1-ol + thiophene + carbon dioxide; phases: Liquid, Gas
Property: Mole fraction of carbon dioxide (Liquid); method: Chromatography
Temperature, K	Pressure, kPa	Mole fraction of thiophene	Mole fraction of carbon dioxide	uncertainty
314.17	2027	0.7592	0.185	0.0039
363.35	11304	0.3294	0.6569	0.0134

System: propan-1-ol + thiophene + carbon dioxide; phases: Gas, Liquid
Property: Mole fraction of carbon dioxide (Gas); method: Chromatography
Temperature, K	Pressure, kPa	Mole fraction of thiophene	Mole fraction of carbon dioxide	uncertainty
314.32	4910	0.0097	0.9884	0.0116
334.14	1917	0.0256	0.9684	0.0194
334.14	2778	0.0209	0.9741	0.0195
363.35	3387	0.0454	0.9538	0.0191
363.35	6000	0.0361	0.9628	0.0193
363.35	10102	0.046	0.9514	0.019
363.67	3432	0.0626	0.9337	0.0187
363.67	4458	0.0464	0.9496	0.0194
363.67	5448	0.043	0.9525	0.0191
363.67	6433	0.0417	0.9531	0.0191
