Measured thermophysical data. Study of molecular interactions and preferential solvation in binary mixtures of cyclohexane and (C5-C10) 1-alkanol by Kirkwood-Buff integrals
Source: Fluid Phase Equilib., 2019, 10.1016/j.fluid.2019.02.006
Compound 1: pentan-1-ol, C5H12O, InChI=1S/C5H12O/c1-2-3-4-5-6/h6H,2-5H2,1H3, purity 99.5%
Compound 2: hexan-1-ol, C6H14O, InChI=1S/C6H14O/c1-2-3-4-5-6-7/h7H,2-6H2,1H3, purity 99.5%
Compound 3: heptan-1-ol, C7H16O, InChI=1S/C7H16O/c1-2-3-4-5-6-7-8/h8H,2-7H2,1H3, purity 99.5%
Compound 4: octan-1-ol, C8H18O, InChI=1S/C8H18O/c1-2-3-4-5-6-7-8-9/h9H,2-8H2,1H3, purity 99.6%
Compound 5: nonan-1-ol, C9H20O, InChI=1S/C9H20O/c1-2-3-4-5-6-7-8-9-10/h10H,2-9H2,1H3, purity 99.7%
Compound 6: decan-1-ol, C10H22O, InChI=1S/C10H22O/c1-2-3-4-5-6-7-8-9-10-11/h11H,2-10H2,1H3, purity 99.7%
Compound 7: cyclohexane, C6H12, InChI=1S/C6H12/c1-2-4-6-5-3-1/h1-6H2, purity 99.5%

System: pentan-1-ol; phases: Liquid
Property: Mass density, kg/m3 (Liquid); method: Vibrating tube method
Temperature, K	Pressure, kPa	Mass density, kg/m3	uncertainty
298.15	100	810.8	1

System: hexan-1-ol; phases: Liquid
Property: Mass density, kg/m3 (Liquid); method: Vibrating tube method
Temperature, K	Pressure, kPa	Mass density, kg/m3	uncertainty
298.15	100	815.1	1

System: heptan-1-ol; phases: Liquid
Property: Mass density, kg/m3 (Liquid); method: Vibrating tube method
Temperature, K	Pressure, kPa	Mass density, kg/m3	uncertainty
298.15	100	818.7	1

System: octan-1-ol; phases: Liquid
Property: Mass density, kg/m3 (Liquid); method: Vibrating tube method
Temperature, K	Pressure, kPa	Mass density, kg/m3	uncertainty
298.15	100	821.4	1

System: nonan-1-ol; phases: Liquid
Property: Mass density, kg/m3 (Liquid); method: Vibrating tube method
Temperature, K	Pressure, kPa	Mass density, kg/m3	uncertainty
298.15	100	824	1

System: decan-1-ol; phases: Liquid
Property: Mass density, kg/m3 (Liquid); method: Vibrating tube method
Temperature, K	Pressure, kPa	Mass density, kg/m3	uncertainty
298.15	100	826.1	1

System: cyclohexane; phases: Liquid
Property: Mass density, kg/m3 (Liquid); method: Vibrating tube method
Temperature, K	Pressure, kPa	Mass density, kg/m3	uncertainty
298.15	100	773.6	1

System: cyclohexane + pentan-1-ol; phases: Liquid
Fixed: Temperature, K = 298.15
Fixed: Pressure, kPa = 100
Property: Mass density, kg/m3 (Liquid); method: Vibrating tube method
Mole fraction of cyclohexane	Mass density, kg/m3	uncertainty
0	810.8	1
0.081	807.1	1
0.1607	803.6	1
0.2403	800.1	1
0.3487	795.4	1
0.4396	791.7	1
0.5597	787	1
0.6498	783.7	1
0.7408	780.6	1
0.8499	777.1	1
0.9406	774.8	1
1	773.6	1

System: cyclohexane + hexan-1-ol; phases: Liquid
Fixed: Temperature, K = 298.15
Fixed: Pressure, kPa = 100
Property: Mass density, kg/m3 (Liquid); method: Vibrating tube method
Mole fraction of cyclohexane	Mass density, kg/m3	uncertainty
0	815.1	1
0.0811	811.6	1
0.1597	808.2	1
0.2415	804.6	1
0.3498	799.8	1
0.4412	795.8	1
0.5588	790.7	1
0.65	786.8	1
0.7404	783.2	1
0.8499	778.8	1
0.9398	775.6	1
1	773.6	1

System: cyclohexane + heptan-1-ol; phases: Liquid
Fixed: Temperature, K = 298.15
Fixed: Pressure, kPa = 100
Property: Mass density, kg/m3 (Liquid); method: Vibrating tube method
Mole fraction of cyclohexane	Mass density, kg/m3	uncertainty
0	818.7	1
0.0805	815.5	1
0.1601	812.1	1
0.2392	808.7	1
0.3503	803.7	1
0.4391	799.7	1
0.5604	794	1
0.6502	789.8	1
0.7396	785.7	1
0.8497	780.5	1
0.94	776.4	1
1	773.6	1

System: cyclohexane + octan-1-ol; phases: Liquid
Fixed: Temperature, K = 298.15
Fixed: Pressure, kPa = 100
Property: Mass density, kg/m3 (Liquid); method: Vibrating tube method
Mole fraction of cyclohexane	Mass density, kg/m3	uncertainty
0	821.4	1
0.0815	818.3	1
0.1602	815.1	1
0.2408	811.7	1
0.3494	806.9	1
0.4398	802.7	1
0.5605	796.8	1
0.6496	792.4	1
0.7404	787.8	1
0.8495	782	1
0.94	777	1
1	773.6	1

System: cyclohexane + nonan-1-ol; phases: Liquid
Fixed: Temperature, K = 298.15
Fixed: Pressure, kPa = 100
Property: Mass density, kg/m3 (Liquid); method: Vibrating tube method
Mole fraction of cyclohexane	Mass density, kg/m3	uncertainty
0	824	1
0.0817	821.1	1
0.1605	818	1
0.2409	814.7	1
0.3496	810	1
0.4399	805.8	1
0.5606	799.8	1
0.6497	795.1	1
0.7406	790	1
0.8497	783.6	1
0.9403	777.8	1
1	773.6	1

System: cyclohexane + decan-1-ol; phases: Liquid
Fixed: Temperature, K = 298.15
Fixed: Pressure, kPa = 100
Property: Mass density, kg/m3 (Liquid); method: Vibrating tube method
Mole fraction of cyclohexane	Mass density, kg/m3	uncertainty
0	826.1	1
0.0819	823.7	1
0.1596	820.8	1
0.2401	817.6	1
0.3482	812.9	1
0.4395	808.7	1
0.5598	802.6	1
0.6498	797.6	1
0.7404	792.3	1
0.849	785.2	1
0.9394	778.6	1
1	773.6	1
