Measured thermophysical data. Measurement and correlation of ternary solid-liquid equilibrium of 2-methyl-1,4-naphthoquinone + phthalic anhydride +  acetone system
Source: Fluid Phase Equilib., 2016, 10.1016/j.fluid.2015.09.019
Compound 1: 2-methyl-1,4-naphthalenedione, C11H8O2, InChI=1S/C11H8O2/c1-7-6-10(12)8-4-2-3-5-9(8)11(7)13/h2-6H,1H3, purity 99.9%
Compound 2: isobenzofuran-1,3-dione, C8H4O3, InChI=1S/C8H4O3/c9-7-5-3-1-2-4-6(5)8(10)11-7/h1-4H, purity 99.7%
Compound 3: acetone, C3H6O, InChI=1S/C3H6O/c1-3(2)4/h1-2H3, purity 99.9%

System: 2-methyl-1,4-naphthalenedione; phases: Crystal, Liquid, Air at 1 atmosphere
Property: Normal melting temperature, K (Crystal); method: DTA
Normal melting temperature, K	uncertainty
380.15	1.06

System: 2-methyl-1,4-naphthalenedione; phases: Crystal, Liquid, Air at 1 atmosphere
Property: Molar enthalpy of transition or fusion, kJ/mol (Crystal); method: DSC
Molar enthalpy of transition or fusion, kJ/mol	uncertainty
20.3345	0.9201

System: 2-methyl-1,4-naphthalenedione + acetone + isobenzofuran-1,3-dione; phases: Liquid, Crystal
Fixed: Pressure, kPa = 101
Property: Mass fraction of isobenzofuran-1,3-dione (Liquid); method: Chromatography
Temperature, K	Mass fraction of 2-methyl-1,4-naphthalenedione	Mass fraction of isobenzofuran-1,3-dione	uncertainty
283.15	0	0.1826	0.0073
283.15	0.0176	0.173	0.0069
283.15	0.034	0.167	0.0067
283.15	0.0511	0.1639	0.0066
283.15	0.0682	0.1629	0.0065
283.15	0.0846	0.1618	0.0065
293.15	0	0.2428	0.0097
293.15	0.0212	0.231	0.0093
293.15	0.0458	0.223	0.009
293.15	0.0696	0.2162	0.0087
293.15	0.0928	0.2104	0.0085
293.15	0.1198	0.2044	0.0083
303.15	0	0.3137	0.0126
303.15	0.0387	0.2985	0.012
303.15	0.0799	0.2897	0.0116
303.15	0.1229	0.2852	0.0114
303.15	0.1609	0.2808	0.0113
303.15	0.1974	0.2783	0.0112

System: 2-methyl-1,4-naphthalenedione + acetone + isobenzofuran-1,3-dione; phases: Liquid, Crystal of intercomponent compound 1
Fixed: Pressure, kPa = 101
Property: Mass fraction of isobenzofuran-1,3-dione (Liquid); method: Chromatography
Temperature, K	Mass fraction of 2-methyl-1,4-naphthalenedione	Mass fraction of isobenzofuran-1,3-dione	uncertainty
283.15	0.1042	0.1588	0.0064
293.15	0.144	0.1989	0.008
303.15	0.2346	0.2764	0.0111

System: 2-methyl-1,4-naphthalenedione + acetone + isobenzofuran-1,3-dione; phases: Liquid, Crystal
Fixed: Pressure, kPa = 101
Property: Mass fraction of isobenzofuran-1,3-dione (Liquid); method: Chromatography
Temperature, K	Mass fraction of 2-methyl-1,4-naphthalenedione	Mass fraction of isobenzofuran-1,3-dione	uncertainty
283.15	0.1074	0.1284	0.0373
283.15	0.1107	0.1	0.0383
283.15	0.114	0.0717	0.0288
283.15	0.1186	0.0495	0.0205
283.15	0.1246	0.026	0.026
283.15	0.128	0	
293.15	0.1477	0.1639	0.0353
293.15	0.153	0.1328	0.0395
293.15	0.1581	0.0974	0.0359
293.15	0.1658	0.0597	0.034
293.15	0.1717	0.0277	0.0277
293.15	0.173	0	
303.15	0.2393	0.2402	0.0884
303.15	0.2449	0.1888	0.0735
303.15	0.2523	0.1424	0.0601
303.15	0.2599	0.0998	0.0998
303.15	0.261	0.0434	0.0434
303.15	0.2635	0	

System: 2-methyl-1,4-naphthalenedione + acetone; phases: Liquid, Crystal
Fixed: Pressure, kPa = 100
Property: Mole fraction of 2-methyl-1,4-naphthalenedione (Liquid); method: Chromatography
Temperature, K	Mole fraction of 2-methyl-1,4-naphthalenedione	uncertainty
283.15	0.0447	0.0018
288.15	0.05545	0.00222
293.15	0.06894	0.00276
298.15	0.08597	0.00344
303.15	0.1075	0.0043
308.15	0.13458	0.00539

System: acetone + isobenzofuran-1,3-dione; phases: Liquid, Crystal
Fixed: Pressure, kPa = 100
Property: Mole fraction of isobenzofuran-1,3-dione (Liquid); method: Chromatography
Temperature, K	Mole fraction of isobenzofuran-1,3-dione	uncertainty
283.15	0.08055	0.00323
288.15	0.09814	0.00393
293.15	0.1117	0.0045
298.15	0.1308	0.0052
303.15	0.152	0.0061
308.15	0.1735	0.007
