Measured thermophysical data. Vapor liquid equilibrium data for the (hexafluoroethane +1,1,1,2-tetrafluoroethane) system at temperatures from 263 to 353K and pressures up to 4.16MPa
Source: Fluid Phase Equilib., 2008, 10.1016/j.fluid.2008.04.002
Compound 1: 1,1,1,2-tetrafluoroethane, C2H2F4, InChI=1S/C2H2F4/c3-1-2(4,5)6/h1H2
Compound 2: hexafluoroethane, C2F6, InChI=1S/C2F6/c3-1(4,5)2(6,7)8

System: 1,1,1,2-tetrafluoroethane; phases: Liquid, Gas
Property: Vapor or sublimation pressure, kPa (Liquid); method: Closed cell (Static) method
Temperature, K	Vapor or sublimation pressure, kPa	uncertainty
263.43	195.7	1
273.32	287.1	1.2
283.22	407.2	1.5
288.3	483.6	1.7
293.29	566.3	1.9
313.31	1014.7	3.3
333.32	1680.4	5.4
353.2	2636	8.3

System: hexafluoroethane; phases: Liquid, Gas
Property: Vapor or sublimation pressure, kPa (Liquid); method: Closed cell (Static) method
Temperature, K	Vapor or sublimation pressure, kPa	uncertainty
253.65	1062.9	2
258.46	1226.4	2.2
263.43	1415.3	4.6
263.45	1415.3	2.5
268.33	1621.1	2.8
273.29	1850	3.2
273.32	1862	6
278.19	2100.6	3.6
283.22	2392	7.6
283.25	2385.8	4.1
288.2	2697.6	4.6
288.3	2697.6	8.6
290.22	2832.9	4.8
291.22	2903.4	5
292.22	2976.2	5.1

System: hexafluoroethane + 1,1,1,2-tetrafluoroethane; phases: Liquid, Gas
Property: Vapor or sublimation pressure, kPa (Liquid); method: Closed cell (Static) method
Mole fraction of hexafluoroethane	Temperature, K	Vapor or sublimation pressure, kPa	uncertainty
0	263.43	195.7	1
0	273.32	287.1	1.2
0	283.22	407.2	1.5
0	288.3	483.6	1.7
0	293.29	566.3	1.9
0	313.31	1014.7	3.3
0	333.32	1680.4	5.4
0	353.2	2636	8.3
0.0254	353.2	2874.7	11.6
0.0261	333.32	1910.3	9.1
0.0394	283.22	608.5	6
0.0412	273.32	483.2	4.6
0.0446	313.31	1336.4	9.6
0.0467	353.2	3081.7	16.1
0.0471	293.29	838.5	7.8
0.056	263.43	400.1	5.5
0.0582	288.3	792.7	8.7
0.0655	333.32	2232.9	16.1
0.0746	353.2	3326.5	22.2
0.0864	353.2	3429.7	23.6
0.0883	283.22	821.7	10.7
0.1005	313.31	1690.6	19.7
0.1091	333.32	2554.4	22.2
0.1173	293.29	1173	16.6
0.1205	353.2	3700.7	30.5
0.1223	263.43	586	9.4
0.1234	288.3	1071.1	14.7
0.1382	353.2	3832.3	31.6
0.1479	313.31	1947.5	21
0.1504	273.32	830.5	12.9
0.154	283.22	1058.5	15.2
0.1552	293.29	1325	18
0.1598	353.2	3978.1	34.1
0.1681	353.2	4029.3	29.1
0.1767	263.43	699.8	10.6
0.1849	288.3	1282.7	17.1
0.1898	293.29	1448.2	18.6
0.1945	353.2	4161	31.9
0.2044	333.32	3158.3	38.5
0.2188	263.43	774.8	10.7
0.22	283.22	1245	17.5
0.2384	273.32	1031.2	13.8
0.2412	313.31	2378.6	34.2
0.2622	293.29	1667.4	22.6
0.273	333.32	3524.3	40.7
0.2792	288.3	1542	20.7
0.29	263.43	880.6	10.5
0.3058	283.22	1436.7	17.9
0.3152	313.31	2663.3	36.7
0.3413	293.29	1868.9	22.5
0.3498	333.32	3855.1	43.9
0.3618	273.32	1231.5	14.4
0.3913	333.32	3995.5	41.6
0.3922	288.3	1783.1	21
0.4011	313.31	2944.3	39.5
0.4202	263.43	1013.2	11.3
0.4299	283.22	1655.1	20.6
0.4375	293.29	2070	25.4
0.4949	313.31	3230.1	44.3
0.5424	288.3	2030.9	26.8
0.5468	293.29	2267.6	30.2
0.5636	273.32	1452.7	18.1
0.5686	313.31	3430.2	47.5
0.5734	283.22	1853.2	22.7
0.6053	263.43	1154.2	13.2
0.6523	293.29	2454	35.3
0.6718	288.3	2226	31.4
0.7148	273.32	1595.2	20.7
0.7529	283.22	2081.1	29.5
0.7804	293.29	2678.7	42.1
0.8298	293.29	2766.5	45
0.8376	288.3	2478.4	39.7
0.8552	273.32	1724.8	24.3
0.8567	263.43	1318.9	17.5
0.8668	293.29	2831.7	46.7
0.8992	283.22	2267.1	34.7
0.8993	288.3	2568.5	37.1
1	263.43	1415.3	4.6
1	273.32	1862	6
1	283.22	2392	7.6
1	288.3	2697.6	8.6

System: hexafluoroethane + 1,1,1,2-tetrafluoroethane; phases: Gas, Liquid
Property: Mole fraction of hexafluoroethane (Gas); method: Chromatography
Mole fraction of hexafluoroethane	Temperature, K	Mole fraction of hexafluoroethane	uncertainty
0	263.43	0	0.0001
0	273.32	0	0.0001
0	283.22	0	0.0001
0	288.3	0	0.0001
0	293.29	0	0.0001
0	313.31	0	0.0001
0	333.32	0	0.0001
0	353.2	0	0.0001
0.0254	353.2	0.0652	0.0027
0.0261	333.32	0.0985	0.004
0.0394	283.22	0.3048	0.0115
0.0412	273.32	0.3794	0.0127
0.0446	313.31	0.2135	0.0081
0.0467	353.2	0.1105	0.0043
0.0471	293.29	0.2989	0.0109
0.056	263.43	0.4898	0.0176
0.0582	288.3	0.3649	0.0136
0.0655	333.32	0.2073	0.0079
0.0746	353.2	0.1558	0.006
0.0864	353.2	0.1731	0.0062
0.0883	283.22	0.4796	0.0164
0.1005	313.31	0.3644	0.0133
0.1091	333.32	0.2924	0.0101
0.1173	293.29	0.4891	0.0174
0.1205	353.2	0.2109	0.0075
0.1223	263.43	0.6537	0.021
0.1234	288.3	0.5243	0.0177
0.1382	353.2	0.2254	0.0076
0.1479	313.31	0.4431	0.0148
0.1504	273.32	0.6378	0.0209
0.154	283.22	0.5948	0.0192
0.1552	293.29	0.5471	0.018
0.1598	353.2	0.2377	0.0079
0.1681	353.2	0.2417	0.008
0.1767	263.43	0.7137	0.0221
0.1849	288.3	0.6041	0.0192
0.1898	293.29	0.5856	0.0186
0.1945	353.2	0.256	0.0086
0.2044	333.32	0.4028	0.0138
0.2188	263.43	0.7443	0.0228
0.22	283.22	0.6591	0.0206
0.2384	273.32	0.714	0.022
0.2412	313.31	0.5373	0.0176
0.2622	293.29	0.6415	0.0202
0.273	333.32	0.445	0.0143
0.2792	288.3	0.6749	0.021
0.29	263.43	0.7808	0.0237
0.3058	283.22	0.7093	0.0218
0.3152	313.31	0.5835	0.0185
0.3413	293.29	0.6854	0.0213
0.3498	333.32	0.4676	0.0147
0.3618	273.32	0.77	0.0235
0.3913	333.32	0.4615	0.0145
0.3922	288.3	0.7277	0.0224
0.4011	313.31	0.6238	0.0195
0.4202	263.43	0.8195	0.0248
0.4299	283.22	0.7581	0.0233
0.4375	293.29	0.7253	0.0224
0.4949	313.31	0.6561	0.0204
0.5424	288.3	0.7781	0.024
0.5468	293.29	0.7614	0.0236
0.5636	273.32	0.8245	0.0252
0.5686	313.31	0.6741	0.0208
0.5734	283.22	0.8013	0.0247
0.6053	263.43	0.8581	0.0261
0.6523	293.29	0.7971	0.0251
0.6718	288.3	0.8195	0.0258
0.7148	273.32	0.8641	0.0268
0.7529	283.22	0.8585	0.0272
0.7804	293.29	0.8495	0.0274
0.8298	293.29	0.8738	0.0293
0.8376	288.3	0.889	0.0289
0.8552	273.32	0.9143	0.0301
0.8567	263.43	0.9232	0.0291
0.8668	293.29	0.8953	0.0308
0.8992	283.22	0.9278	0.0317
0.8993	288.3	0.9243	0.0334
1	263.43	1	0.0001
1	273.32	1	0.0001
1	283.22	1	0.0001
1	288.3	1	0.0001
