Measured thermophysical data. Vapour-liquid and chemical equilibria in the ethyl ethanoate + ethanol + propyl  ethanoate + propanol system accompanied with transesterification reaction
Source: Fluid Phase Equilib., 2012, 10.1016/j.fluid.2012.05.016
Compound 1: ethyl acetate, C4H8O2, InChI=1S/C4H8O2/c1-3-6-4(2)5/h3H2,1-2H3
Compound 2: ethanol, C2H6O, InChI=1S/C2H6O/c1-2-3/h3H,2H2,1H3
Compound 3: propyl ethanoate, C5H10O2, InChI=1S/C5H10O2/c1-3-4-7-5(2)6/h3-4H2,1-2H3
Compound 4: propan-1-ol, C3H8O, InChI=1S/C3H8O/c1-2-3-4/h4H,2-3H2,1H3

System: ethanol + ethyl acetate; phases: Liquid, Gas
Property: Azeotropic pressure, kPa (Liquid); method: By X=Y
Mole fraction of ethyl acetate	Azeotropic pressure, kPa	uncertainty
0.5272	113.42	4.54
0.6205	43.6	4.5

System: ethanol + ethyl acetate; phases: Liquid, Gas
Property: Azeotropic temperature, K (Liquid); method: By X=Y
Mole fraction of ethyl acetate	Azeotropic temperature, K	uncertainty
0.5272	348.15	1.62
0.6205	323.15	1.62

System: ethanol + ethyl acetate; phases: Liquid, Gas
Property: Vapor or sublimation pressure, kPa (Liquid); method: Closed cell (Static) method
Mole fraction of ethyl acetate	Temperature, K	Vapor or sublimation pressure, kPa	uncertainty
0	323.15	29.48	0.12
0	348.15	88.84	0.3
0.0095	323.15	30.22	0.45
0.011	348.15	90.35	0.82
0.0307	323.15	31.7	0.39
0.0354	348.15	93.37	0.73
0.0755	323.15	34.28	0.34
0.0829	348.15	98.28	0.67
0.1113	323.15	35.91	0.29
0.1181	348.15	101.35	0.58
0.1483	323.15	37.37	0.24
0.1553	348.15	104.05	0.49
0.2088	323.15	39.17	0.21
0.2169	348.15	107.22	0.43
0.3016	323.15	41.13	0.19
0.3102	348.15	110.64	0.41
0.3715	323.15	42.14	0.17
0.383	348.15	112.18	0.38
0.4487	323.15	42.89	0.17
0.4589	348.15	113.12	0.37
0.5329	323.15	43.4	0.16
0.5418	348.15	113.4	0.37
0.6268	323.15	43.6	0.16
0.6341	348.15	112.74	0.38
0.7399	323.15	43.27	0.16
0.7475	348.15	110.41	0.4
0.8263	323.15	42.42	0.17
0.8304	348.15	107.06	0.45
0.8834	323.15	41.48	0.2
0.8861	348.15	104.02	0.51
0.9385	348.15	100.26	0.58
0.9386	323.15	40.12	0.23
0.9814	348.15	96.51	0.63
0.9816	323.15	38.68	0.25
1	323.15	37.95	0.14
1	348.15	94.62	0.31

System: ethanol + ethyl acetate; phases: Gas, Liquid
Property: Mole fraction of ethyl acetate (Gas); method: Chromatography
Mole fraction of ethyl acetate	Temperature, K	Mole fraction of ethyl acetate	uncertainty
0	323.15	0	
0	348.15	0	
0.0095	323.15	0.0333	0.0196
0.011	348.15	0.0263	0.0147
0.0307	323.15	0.0963	0.0159
0.0354	348.15	0.0794	0.0127
0.0755	323.15	0.1973	0.0135
0.0829	348.15	0.1622	0.0116
0.1113	323.15	0.256	0.0111
0.1181	348.15	0.2137	0.0099
0.1483	323.15	0.3074	0.0096
0.1553	348.15	0.2554	0.0089
0.2088	323.15	0.3713	0.0086
0.2169	348.15	0.317	0.0084
0.3016	323.15	0.4431	0.0083
0.3102	348.15	0.3913	0.0082
0.3715	323.15	0.4889	0.0082
0.383	348.15	0.4393	0.008
0.4487	323.15	0.5318	0.0079
0.4589	348.15	0.4859	0.0082
0.5329	323.15	0.5759	0.0077
0.5418	348.15	0.5364	0.0081
0.6268	323.15	0.6267	0.0076
0.6341	348.15	0.5955	0.008
0.7399	323.15	0.6941	0.0077
0.7475	348.15	0.6764	0.0082
0.8263	323.15	0.7638	0.0082
0.8304	348.15	0.7535	0.0088
0.8834	323.15	0.8212	0.0093
0.8861	348.15	0.8183	0.0098
0.9385	348.15	0.8908	0.011
0.9386	323.15	0.8931	0.0106
0.9814	348.15	0.9641	0.0122
0.9816	323.15	0.964	0.012
1	323.15	1	
1	348.15	1	

System: propyl ethanoate + ethyl acetate; phases: Liquid, Gas
Property: Vapor or sublimation pressure, kPa (Liquid); method: Ebulliometric method (Recirculating still)
Mole fraction of ethyl acetate	Temperature, K	Vapor or sublimation pressure, kPa	uncertainty
0	323.15	15.32	0.11
0	348.15	41.88	0.22
0.011	348.15	42.37	0.26
0.0143	323.15	15.64	0.12
0.0343	323.15	16.08	0.13
0.0358	348.15	43.79	0.27
0.0711	323.15	16.97	0.13
0.0715	348.15	45.95	0.27
0.1306	348.15	48.92	0.28
0.1309	323.15	18.26	0.14
0.174	323.15	19.39	0.14
0.1818	348.15	51.66	0.29
0.286	323.15	21.83	0.15
0.2909	348.15	57.21	0.31
0.3837	323.15	24.12	0.16
0.3967	348.15	62.69	0.33
0.4711	323.15	26.18	0.17
0.4793	348.15	67.36	0.35
0.5958	323.15	28.86	0.18
0.5998	348.15	73.72	0.37
0.6956	323.15	31.1	0.19
0.7187	348.15	79.87	0.39
0.8271	323.15	34.06	0.2
0.8283	348.15	85.65	0.41
1	323.15	37.95	0.21
1	348.15	94.62	0.43

System: propyl ethanoate + ethyl acetate; phases: Gas, Liquid
Property: Mole fraction of ethyl acetate (Gas); method: Chromatography
Mole fraction of ethyl acetate	Temperature, K	Mole fraction of ethyl acetate	uncertainty
0	323.15	0	
0	348.15	0	
0.011	348.15	0.0241	0.0072
0.0143	323.15	0.0348	0.0075
0.0343	323.15	0.0797	0.0073
0.0358	348.15	0.0772	0.0072
0.0711	323.15	0.161	0.007
0.0715	348.15	0.153	0.0068
0.1306	348.15	0.2544	0.0068
0.1309	323.15	0.2678	0.0071
0.174	323.15	0.3516	0.0069
0.1818	348.15	0.3339	0.0067
0.286	323.15	0.4936	0.0074
0.2909	348.15	0.4731	0.0073
0.3837	323.15	0.6053	0.0068
0.3967	348.15	0.5885	0.0068
0.4711	323.15	0.6915	0.0061
0.4793	348.15	0.671	0.0063
0.5958	323.15	0.7802	0.0057
0.5998	348.15	0.7671	0.0057
0.6956	323.15	0.8477	0.0054
0.7187	348.15	0.8485	0.0054
0.8271	323.15	0.92	0.0052
0.8283	348.15	0.9144	0.0052
1	323.15	1	
1	348.15	1	

System: propan-1-ol + ethyl acetate; phases: Liquid, Gas
Property: Vapor or sublimation pressure, kPa (Liquid); method: Ebulliometric method (Recirculating still)
Mole fraction of ethyl acetate	Temperature, K	Vapor or sublimation pressure, kPa	uncertainty
0	323.15	12.17	0.1
0	348.15	40.95	0.2
0.0407	323.15	15.11	0.2
0.054	348.15	48.29	0.4
0.0697	323.15	17.06	0.19
0.0832	348.15	52.02	0.38
0.1119	323.15	19.35	0.17
0.1241	348.15	56.61	0.35
0.1723	323.15	22.15	0.17
0.1908	348.15	62.11	0.35
0.2385	323.15	24.53	0.17
0.2519	348.15	66.88	0.35
0.3453	348.15	72.73	0.36
0.4244	323.15	29.53	0.18
0.4416	348.15	77.63	0.37
0.5355	323.15	31.71	0.19
0.5496	348.15	82.18	0.39
0.6526	323.15	33.58	0.19
0.6613	348.15	86.25	0.4
0.7552	323.15	35.07	0.2
0.7628	348.15	89.35	0.41
0.8448	323.15	36.24	0.2
0.8494	348.15	91.64	0.42
0.9313	323.15	37.25	0.21
0.9328	348.15	93.5	0.43
0.9769	323.15	37.73	0.21
0.9773	348.15	94.29	0.43
1	323.15	37.95	0.21
1	348.15	94.62	0.43

System: propan-1-ol + ethyl acetate; phases: Gas, Liquid
Property: Mole fraction of ethyl acetate (Gas); method: Chromatography
Mole fraction of ethyl acetate	Temperature, K	Mole fraction of ethyl acetate	uncertainty
0	323.15	0	
0	348.15	0	
0.0407	323.15	0.227	0.0128
0.054	348.15	0.19	0.0095
0.0697	323.15	0.3331	0.009
0.0832	348.15	0.2732	0.0078
0.1119	323.15	0.4333	0.0077
0.1241	348.15	0.3542	0.007
0.1723	323.15	0.5261	0.0072
0.1908	348.15	0.4459	0.007
0.2385	323.15	0.5956	0.0064
0.2519	348.15	0.5151	0.0069
0.3453	348.15	0.5862	0.0064
0.4244	323.15	0.7195	0.0058
0.4416	348.15	0.6534	0.006
0.5355	323.15	0.7693	0.0055
0.5496	348.15	0.7176	0.0057
0.6526	323.15	0.816	0.0053
0.6613	348.15	0.7758	0.0055
0.7552	323.15	0.8595	0.0053
0.7628	348.15	0.8347	0.0054
0.8448	323.15	0.9018	0.0052
0.8494	348.15	0.8861	0.0053
0.9313	323.15	0.9518	0.0052
0.9328	348.15	0.9461	0.0053
0.9769	323.15	0.9826	0.0053
0.9773	348.15	0.981	0.0054
1	323.15	1	
1	348.15	1	

System: ethanol + propyl ethanoate; phases: Liquid, Gas
Property: Azeotropic pressure, kPa (Liquid); method: By X=Y
Mole fraction of ethanol	Azeotropic pressure, kPa	uncertainty
0.8237	30.69	4.49
0.9024	89.52	4.52

System: ethanol + propyl ethanoate; phases: Liquid, Gas
Property: Azeotropic temperature, K (Liquid); method: By X=Y
Mole fraction of ethanol	Azeotropic temperature, K	uncertainty
0.8237	323.15	1.92
0.9024	348.15	1.92

System: ethanol + propyl ethanoate; phases: Liquid, Gas
Property: Vapor or sublimation pressure, kPa (Liquid); method: Ebulliometric method (Recirculating still)
Mole fraction of ethanol	Temperature, K	Vapor or sublimation pressure, kPa	uncertainty
0	323.15	15.32	0.11
0	348.15	41.88	0.22
0.0755	323.15	19.46	0.18
0.0791	348.15	52.9	0.41
0.134	323.15	21.93	0.17
0.1353	348.15	59.07	0.38
0.2021	323.15	24.03	0.17
0.2027	348.15	65.5	0.38
0.2784	323.15	25.91	0.17
0.2845	348.15	71.36	0.38
0.3719	348.15	76.62	0.39
0.3809	323.15	27.2	0.17
0.4701	348.15	80.59	0.39
0.6502	348.15	86.08	0.4
0.6555	323.15	30.19	0.18
0.7248	348.15	87.74	0.41
0.7298	323.15	30.53	0.18
0.8067	348.15	89.02	0.41
0.8112	323.15	30.68	0.18
0.8749	348.15	89.64	0.41
0.8793	323.15	30.6	0.18
0.9236	348.15	89.69	0.41
0.9266	323.15	30.35	0.18
0.9577	348.15	89.49	0.41
0.9595	323.15	30.05	0.18
0.9798	348.15	89.21	0.41
0.9809	323.15	29.77	0.18
1	323.15	29.48	0.18
1	348.15	88.84	0.4

System: ethanol + propyl ethanoate; phases: Gas, Liquid
Property: Mole fraction of ethanol (Gas); method: Chromatography
Mole fraction of ethanol	Temperature, K	Mole fraction of ethanol	uncertainty
0	323.15	0	
0	348.15	0	
0.0755	323.15	0.2657	0.0089
0.0791	348.15	0.2586	0.0087
0.134	323.15	0.3828	0.0072
0.1353	348.15	0.3759	0.0073
0.2021	323.15	0.4662	0.0071
0.2027	348.15	0.4698	0.0071
0.2784	323.15	0.5415	0.0068
0.2845	348.15	0.537	0.0069
0.3719	348.15	0.6067	0.0064
0.3809	323.15	0.5938	0.0064
0.4701	348.15	0.6637	0.0061
0.6502	348.15	0.7513	0.0056
0.6555	323.15	0.729	0.0057
0.7248	348.15	0.7906	0.0055
0.7298	323.15	0.7651	0.0056
0.8067	348.15	0.8371	0.0054
0.8112	323.15	0.8143	0.0055
0.8749	348.15	0.8822	0.0054
0.8793	323.15	0.8629	0.0055
0.9236	348.15	0.9214	0.0054
0.9266	323.15	0.9071	0.0056
0.9577	348.15	0.9528	0.0055
0.9595	323.15	0.944	0.0058
0.9798	348.15	0.9764	0.0057
0.9809	323.15	0.9717	0.006
1	323.15	1	
1	348.15	1	

System: ethanol + propan-1-ol; phases: Liquid, Gas
Property: Vapor or sublimation pressure, kPa (Liquid); method: Ebulliometric method (Recirculating still)
Mole fraction of ethanol	Temperature, K	Vapor or sublimation pressure, kPa	uncertainty
0	323.15	12.17	0.1
0	348.15	40.95	0.2
0.1243	323.15	14.38	0.12
0.1305	348.15	47.3	0.26
0.2024	323.15	15.71	0.12
0.2059	348.15	50.94	0.27
0.2646	323.15	16.84	0.13
0.275	348.15	54.19	0.28
0.3802	323.15	18.8	0.14
0.389	348.15	59.66	0.31
0.4524	323.15	20.08	0.14
0.4573	348.15	62.99	0.32
0.5374	323.15	21.56	0.15
0.543	348.15	67.13	0.33
0.7505	323.15	25.24	0.17
0.7542	348.15	77.25	0.37
0.8453	323.15	26.85	0.17
0.8466	348.15	81.6	0.39
0.8584	348.15	82.22	0.39
0.8956	348.15	83.9	0.4
0.9236	348.15	85.29	0.41
0.9613	348.15	87.08	0.41
0.9848	323.15	29.25	0.18
1	323.15	29.48	0.18
1	348.15	88.84	0.4

System: ethanol + propan-1-ol; phases: Gas, Liquid
Property: Mole fraction of ethanol (Gas); method: Chromatography
Mole fraction of ethanol	Temperature, K	Mole fraction of ethanol	uncertainty
0	323.15	0	
0	348.15	0	
0.1243	323.15	0.2586	0.0071
0.1305	348.15	0.2465	0.0069
0.2024	323.15	0.3788	0.0069
0.2059	348.15	0.3586	0.0067
0.2646	323.15	0.4655	0.007
0.275	348.15	0.4468	0.0069
0.3802	323.15	0.5937	0.0066
0.389	348.15	0.5745	0.0067
0.4524	323.15	0.6645	0.0062
0.4573	348.15	0.6396	0.0063
0.5374	323.15	0.7354	0.0058
0.543	348.15	0.7174	0.0058
0.7505	323.15	0.8763	0.0053
0.7542	348.15	0.8647	0.0054
0.8453	323.15	0.9272	0.0052
0.8466	348.15	0.9199	0.0052
0.8584	348.15	0.9253	0.0052
0.8956	348.15	0.9462	0.0052
0.9236	348.15	0.9604	0.0052
0.9613	348.15	0.9803	0.0052
0.9848	323.15	0.9927	0.005
1	323.15	1	
1	348.15	1	

System: propan-1-ol + propyl ethanoate; phases: Liquid, Gas
Property: Azeotropic pressure, kPa (Liquid); method: By X=Y
Mole fraction of propyl ethanoate	Azeotropic pressure, kPa	uncertainty
0.4958	49.46	1.59
0.6215	17.24	1.56

System: propan-1-ol + propyl ethanoate; phases: Liquid, Gas
Property: Azeotropic temperature, K (Liquid); method: By X=Y
Mole fraction of propyl ethanoate	Azeotropic temperature, K	uncertainty
0.4958	348.15	1.22
0.6215	323.15	1.22

System: propan-1-ol + propyl ethanoate; phases: Liquid, Gas
Property: Vapor or sublimation pressure, kPa (Liquid); method: Ebulliometric method (Recirculating still)
Mole fraction of propyl ethanoate	Temperature, K	Vapor or sublimation pressure, kPa	uncertainty
0	323.15	12.17	0.1
0	348.15	40.95	0.2
0.0082	323.15	12.38	0.11
0.0094	348.15	41.42	0.23
0.0261	323.15	12.79	0.11
0.0292	348.15	42.23	0.23
0.0616	323.15	13.53	0.11
0.0674	348.15	43.69	0.23
0.1154	323.15	14.44	0.11
0.1255	348.15	45.38	0.23
0.2044	323.15	15.52	0.11
0.2165	348.15	47.07	0.24
0.2917	323.15	16.2	0.12
0.3034	348.15	48.44	0.24
0.3918	323.15	16.75	0.12
0.4056	348.15	49.17	0.24
0.4855	323.15	17.05	0.12
0.4943	348.15	49.45	0.25
0.5959	323.15	17.24	0.12
0.6048	348.15	49.19	0.25
0.6891	323.15	17.16	0.12
0.6947	348.15	48.43	0.25
0.7814	323.15	16.94	0.12
0.7907	348.15	47.31	0.24
0.8404	323.15	16.72	0.12
0.8411	348.15	46.36	0.25
0.8939	348.15	45.01	0.24
0.8942	323.15	16.34	0.12
0.9385	323.15	15.95	0.12
1	323.15	15.32	0.11
1	348.15	41.88	0.22

System: propan-1-ol + propyl ethanoate; phases: Gas, Liquid
Property: Mole fraction of propyl ethanoate (Gas); method: Chromatography
Mole fraction of propyl ethanoate	Temperature, K	Mole fraction of propyl ethanoate	uncertainty
0	323.15	0	
0	348.15	0	
0.0082	323.15	0.0245	0.0083
0.0094	348.15	0.0194	0.0068
0.0261	323.15	0.0726	0.0076
0.0292	348.15	0.057	0.0066
0.0616	323.15	0.152	0.0069
0.0674	348.15	0.1218	0.0062
0.1154	323.15	0.2425	0.0063
0.1255	348.15	0.2001	0.0059
0.2044	323.15	0.3464	0.0063
0.2165	348.15	0.292	0.006
0.2917	323.15	0.4193	0.0066
0.3034	348.15	0.3639	0.0062
0.3918	323.15	0.4895	0.007
0.4056	348.15	0.4368	0.0066
0.4855	323.15	0.5444	0.0069
0.4943	348.15	0.4959	0.0071
0.5959	323.15	0.6081	0.0066
0.6048	348.15	0.5697	0.0068
0.6891	323.15	0.6658	0.0064
0.6947	348.15	0.6377	0.0066
0.7814	323.15	0.7312	0.0062
0.7907	348.15	0.7174	0.0064
0.8404	323.15	0.781	0.0062
0.8411	348.15	0.7707	0.0064
0.8939	348.15	0.8366	0.0065
0.8942	323.15	0.8406	0.0062
0.9385	323.15	0.8997	0.0064
1	323.15	1	
1	348.15	1	
