Measured thermophysical data. Measurement and correlation for solubilities of alkali metal chlorides in water vapor at high temperature and pressure
Source: Fluid Phase Equilib., 2005, 10.1016/j.fluid.2004.07.019
Compound 1: sodium chloride, ClNa, InChI=1S/ClH.Na/h1H;/q;+1/p-1
Compound 2: potassium chloride, ClK, InChI=1S/ClH.K/h1H;/q;+1/p-1
Compound 3: water, H2O, InChI=1S/H2O/h1H2

System: sodium chloride + water; phases: Fluid (supercritical or subcritical phases), Crystal
Property: Mole fraction of sodium chloride (Fluid (supercritical or subcritical phases)); method: Chromatography
Temperature, K	Pressure, kPa	Mole fraction of sodium chloride	uncertainty
623	9000	3.17e-06	5.5e-07
623	10000	5.73e-06	6.6e-07
623	11000	1.188e-05	8e-07
643	9000	1.48e-06	5.1e-07
643	10000	3.24e-06	5.3e-07
643	11000	5.63e-06	5.9e-07
643	12000	9.72e-06	6.4e-07
653	9000	1.16e-06	5e-07
653	10000	2.53e-06	5.1e-07
653	11000	4.56e-06	5.6e-07
653	12000	8.34e-06	6.3e-07
673	10000	1.95e-06	5.2e-07
673	11000	4.04e-06	5.3e-07
673	12000	6.32e-06	5.4e-07

System: potassium chloride + water; phases: Fluid (supercritical or subcritical phases), Crystal
Property: Mole fraction of potassium chloride (Fluid (supercritical or subcritical phases)); method: Chromatography
Temperature, K	Pressure, kPa	Mole fraction of potassium chloride	uncertainty
643	9000	1.33e-06	5.3e-07
643	10000	3.64e-06	5.3e-07
653	9000	1.28e-06	5.1e-07
653	10000	2.96e-06	5.2e-07
653	10500	4.13e-06	5.4e-07
673	9000	9.51e-07	4.96e-07
673	10000	2.178e-06	5.07e-07
673	11000	4.166e-06	5.16e-07
673	12000	6.225e-06	5.25e-07
