Measured thermophysical data. Viscosity of aqueous Na2SO4 solutions at temperatures from 298 to 573K and at pressures up to 40MPa
Source: Fluid Phase Equilib., 2005, 10.1016/j.fluid.2004.10.028
Compound 1: water, H2O, InChI=1S/H2O/h1H2
Compound 2: sodium sulfate, Na2O4S, InChI=1S/2Na.H2O4S/c;;1-5(2,3)4/h;;(H2,1,2,3,4)/q2*+1;/p-2

System: water; phases: Liquid
Property: Viscosity, Pa*s (Liquid); method: Capillary tube (Ostwald; Ubbelohde) method
Pressure, kPa	Temperature, K	Viscosity, Pa*s	uncertainty
5000	296.7	0.000918	2.8e-05
5000	338.3	0.000431	1.3e-05
5000	372.4	0.000286	9e-06
5000	413.62	0.000196	6e-06
10000	296.7	0.000917	2.8e-05
10000	338.3	0.000434	1.3e-05
10000	372.4	0.000287	9e-06
10000	413.62	0.000197	6e-06
10000	469.4	0.000138	4e-06
10000	500.22	0.00012	4e-06
10000	544.23	9.83e-05	3.2e-06
10000	573.7	8.6e-05	2.8e-06
20000	296.7	0.000915	2.8e-05
20000	338.3	0.000435	1.3e-05
20000	372.4	0.000288	9e-06
20000	413.62	0.000201	6e-06
20000	469.4	0.000141	4e-06
20000	500.22	0.000123	4e-06
20000	544.23	0.0001012	3.3e-06
20000	573.7	8.91e-05	2.9e-06
40000	296.7	0.000914	2.8e-05
40000	338.3	0.00044	1.4e-05
40000	372.4	0.000293	9e-06
40000	413.62	0.000205	6e-06
40000	469.4	0.000145	5e-06
40000	500.22	0.000127	4e-06
40000	544.23	0.000106	3.4e-06
40000	573.7	9.5e-05	3.1e-06

System: water + sodium sulfate; phases: Liquid
Property: Viscosity, Pa*s (Liquid); method: Capillary tube (Ostwald; Ubbelohde) method
Mass fraction of sodium sulfate	Pressure, kPa	Temperature, K	Viscosity, Pa*s	uncertainty
0.015	100	298.15	0.000933	2.86e-05
0.015	100	323.7	0.0005669	1.75e-05
0.015	100	348.15	0.000395	1.22e-05
0.015	10000	298.15	0.0009335	2.86e-05
0.015	10000	323.7	0.0005741	1.77e-05
0.015	10000	348.15	0.0003977	1.23e-05
0.015	10000	373.8	0.0002947	9.1e-06
0.015	10000	399.01	0.0002321	7.2e-06
0.015	10000	422.61	0.0001927	6e-06
0.015	10000	447.6	0.0001633	5.1e-06
0.015	10000	470.7	0.0001432	4.5e-06
0.015	10000	498.3	0.0001248	4e-06
0.015	10000	520.64	0.0001128	3.6e-06
0.015	10000	547.9	0.0001	3.2e-06
0.015	20000	298.15	0.0009365	2.87e-05
0.015	20000	323.7	0.0005795	1.79e-05
0.015	20000	348.15	0.0004006	1.24e-05
0.015	20000	373.8	0.0002994	9.3e-06
0.015	20000	399.01	0.0002367	7.4e-06
0.015	20000	422.61	0.0001968	6.1e-06
0.015	20000	447.6	0.0001684	5.3e-06
0.015	20000	470.7	0.0001468	4.6e-06
0.015	20000	498.3	0.0001286	4.1e-06
0.015	20000	520.64	0.0001165	3.7e-06
0.015	20000	547.9	0.0001025	3.3e-06
0.015	30000	298.15	0.0009399	2.88e-05
0.015	30000	323.7	0.0005821	1.8e-05
0.015	30000	348.15	0.0004038	1.25e-05
0.015	30000	373.8	0.0003034	9.4e-06
0.015	30000	399.01	0.0002398	7.5e-06
0.015	30000	422.61	0.0001999	6.2e-06
0.015	30000	447.6	0.00017	5.3e-06
0.015	30000	470.7	0.0001499	4.7e-06
0.015	30000	498.3	0.0001307	4.2e-06
0.015	30000	520.64	0.0001191	3.8e-06
0.015	30000	547.9	0.0001068	3.4e-06
0.015	40000	298.15	0.000942	2.89e-05
0.015	40000	323.7	0.0005835	1.8e-05
0.015	40000	348.15	0.0004087	1.26e-05
0.015	40000	373.8	0.0003065	9.5e-06
0.015	40000	399.01	0.0002412	7.5e-06
0.015	40000	422.61	0.0002022	6.3e-06
0.015	40000	447.6	0.0001724	5.4e-06
0.015	40000	470.7	0.0001508	4.8e-06
0.015	40000	498.3	0.0001325	4.2e-06
0.015	40000	520.64	0.0001209	3.9e-06
0.015	40000	547.9	0.0001089	3.5e-06
0.03	100	298.15	0.0009746	2.99e-05
0.03	100	323.15	0.0005972	1.84e-05
0.03	100	348.35	0.0004107	1.27e-05
0.03	10000	298.15	0.0009759	3e-05
0.03	10000	323.15	0.0005991	1.85e-05
0.03	10000	348.35	0.0004134	1.28e-05
0.03	10000	372.9	0.0003096	9.6e-06
0.03	10000	398.4	0.0002422	7.5e-06
0.03	10000	421.5	0.0002013	6.3e-06
0.03	10000	447.81	0.0001686	5.3e-06
0.03	10000	473.7	0.0001456	4.6e-06
0.03	10000	497.1	0.0001296	4.1e-06
0.03	10000	523.3	0.000115	3.7e-06
0.03	10000	549.9	0.0001023	3.3e-06
0.03	10000	572.62	9.2e-05	3e-06
0.03	20000	298.15	0.0009769	3e-05
0.03	20000	323.15	0.0006012	1.85e-05
0.03	20000	348.35	0.0004169	1.29e-05
0.03	20000	372.9	0.0003124	9.7e-06
0.03	20000	398.4	0.0002468	7.7e-06
0.03	20000	421.5	0.0002035	6.3e-06
0.03	20000	447.81	0.0001705	5.4e-06
0.03	20000	473.7	0.0001486	4.7e-06
0.03	20000	497.1	0.0001312	4.2e-06
0.03	20000	523.3	0.0001169	3.7e-06
0.03	20000	549.9	0.0001065	3.4e-06
0.03	20000	572.62	9.67e-05	3.1e-06
0.03	30000	298.15	0.0009799	3.01e-05
0.03	30000	323.15	0.0006054	1.87e-05
0.03	30000	348.35	0.00042	1.3e-05
0.03	30000	372.9	0.0003164	9.8e-06
0.03	30000	398.4	0.0002494	7.7e-06
0.03	30000	421.5	0.0002068	6.4e-06
0.03	30000	447.81	0.0001734	5.4e-06
0.03	30000	473.7	0.0001514	4.8e-06
0.03	30000	497.1	0.000136	4.3e-06
0.03	30000	523.3	0.0001196	3.8e-06
0.03	30000	549.9	0.0001086	3.5e-06
0.03	30000	572.62	9.92e-05	3.2e-06
0.03	40000	298.15	0.0009812	3.01e-05
0.03	40000	323.15	0.000609	1.88e-05
0.03	40000	348.35	0.0004225	1.3e-05
0.03	40000	372.9	0.0003186	9.9e-06
0.03	40000	398.4	0.000251	7.8e-06
0.03	40000	421.5	0.000209	6.5e-06
0.03	40000	447.81	0.0001761	5.5e-06
0.03	40000	473.7	0.000153	4.8e-06
0.03	40000	497.1	0.0001375	4.4e-06
0.03	40000	523.3	0.0001219	3.9e-06
0.03	40000	549.9	0.0001109	3.6e-06
0.03	40000	572.62	0.000102	3.3e-06
0.05	100	298.15	0.001035	3.18e-05
0.05	100	323.8	0.0006285	1.94e-05
0.05	100	347.2	0.0004434	1.37e-05
0.05	10000	298.15	0.00104	3.19e-05
0.05	10000	323.8	0.000632	1.95e-05
0.05	10000	347.2	0.0004465	1.38e-05
0.05	10000	371.95	0.0003317	1.03e-05
0.05	10000	395.62	0.0002626	8.1e-06
0.05	10000	424.67	0.0002079	6.5e-06
0.05	10000	446.24	0.0001796	5.6e-06
0.05	10000	470.16	0.0001564	4.9e-06
0.05	10000	499.3	0.0001352	4.3e-06
0.05	10000	524.7	0.0001204	3.8e-06
0.05	10000	545.3	0.0001097	3.5e-06
0.05	10000	572.96	9.65e-05	3.1e-06
0.05	20000	298.15	0.001041	3.19e-05
0.05	20000	323.8	0.000633	1.95e-05
0.05	20000	347.2	0.0004496	1.39e-05
0.05	20000	371.95	0.000335	1.04e-05
0.05	20000	395.62	0.0002668	8.3e-06
0.05	20000	424.67	0.0002096	6.5e-06
0.05	20000	446.24	0.000182	5.7e-06
0.05	20000	470.16	0.0001598	5e-06
0.05	20000	499.3	0.0001363	4.3e-06
0.05	20000	524.7	0.0001231	3.9e-06
0.05	20000	545.3	0.000112	3.6e-06
0.05	20000	572.96	9.98e-05	3.2e-06
0.05	30000	298.15	0.001042	3.2e-05
0.05	30000	323.8	0.000636	1.96e-05
0.05	30000	347.2	0.000453	1.4e-05
0.05	30000	371.95	0.0003389	1.05e-05
0.05	30000	395.62	0.0002695	8.4e-06
0.05	30000	424.67	0.000213	6.6e-06
0.05	30000	446.24	0.0001853	5.8e-06
0.05	30000	470.16	0.0001629	5.1e-06
0.05	30000	499.3	0.0001392	4.4e-06
0.05	30000	524.7	0.0001267	4e-06
0.05	30000	545.3	0.0001143	3.7e-06
0.05	30000	572.96	0.0001029	3.3e-06
0.05	40000	298.15	0.001044	3.2e-05
0.05	40000	323.8	0.0006385	1.97e-05
0.05	40000	347.2	0.0004587	1.41e-05
0.05	40000	371.95	0.000343	1.06e-05
0.05	40000	395.62	0.0002716	8.4e-06
0.05	40000	424.67	0.0002164	6.7e-06
0.05	40000	446.24	0.0001879	5.9e-06
0.05	40000	470.16	0.0001647	5.2e-06
0.05	40000	499.3	0.000143	4.5e-06
0.05	40000	524.7	0.0001286	4.1e-06
0.05	40000	545.3	0.0001177	3.8e-06
0.05	40000	572.96	0.0001066	3.4e-06
0.07	100	298.15	0.001119	3.43e-05
0.07	100	323.25	0.0006825	2.1e-05
0.07	100	347.6	0.0004733	1.46e-05
0.07	10000	298.15	0.001119	3.43e-05
0.07	10000	323.25	0.0006846	2.11e-05
0.07	10000	347.6	0.0004764	1.47e-05
0.07	10000	373.9	0.0003482	1.08e-05
0.07	10000	397.1	0.0002772	8.6e-06
0.07	10000	425.6	0.0002211	6.9e-06
0.07	10000	447	0.0001913	6e-06
0.07	10000	472.2	0.0001656	5.2e-06
0.07	10000	498.7	0.0001451	4.6e-06
0.07	10000	523.1	0.0001298	4.1e-06
0.07	10000	546.2	0.0001171	3.7e-06
0.07	10000	573.5	0.0001031	3.3e-06
0.07	20000	298.15	0.001119	3.43e-05
0.07	20000	323.25	0.0006875	2.12e-05
0.07	20000	347.6	0.0004795	1.48e-05
0.07	20000	373.9	0.0003508	1.08e-05
0.07	20000	397.1	0.0002799	8.7e-06
0.07	20000	425.6	0.0002267	7.1e-06
0.07	20000	447	0.0001946	6.1e-06
0.07	20000	472.2	0.0001689	5.3e-06
0.07	20000	498.7	0.0001489	4.7e-06
0.07	20000	523.1	0.0001324	4.2e-06
0.07	20000	546.2	0.0001197	3.8e-06
0.07	20000	573.5	0.0001068	3.4e-06
0.07	30000	298.15	0.001121	3.44e-05
0.07	30000	323.25	0.0006902	2.13e-05
0.07	30000	347.6	0.0004824	1.49e-05
0.07	30000	373.9	0.0003546	1.1e-05
0.07	30000	397.1	0.0002834	8.8e-06
0.07	30000	425.6	0.0002293	7.1e-06
0.07	30000	447	0.0001975	6.2e-06
0.07	30000	472.2	0.0001706	5.4e-06
0.07	30000	498.7	0.0001506	4.7e-06
0.07	30000	523.1	0.0001367	4.3e-06
0.07	30000	546.2	0.0001224	3.9e-06
0.07	30000	573.5	0.0001092	3.5e-06
0.07	40000	298.15	0.001122	3.44e-05
0.07	40000	323.25	0.0006935	2.14e-05
0.07	40000	347.6	0.0004875	1.5e-05
0.07	40000	373.9	0.000359	1.11e-05
0.07	40000	397.1	0.000287	8.9e-06
0.07	40000	425.6	0.00023	7.2e-06
0.07	40000	447	0.0001998	6.2e-06
0.07	40000	472.2	0.0001739	5.5e-06
0.07	40000	498.7	0.0001533	4.8e-06
0.07	40000	523.1	0.0001385	4.4e-06
0.07	40000	546.2	0.0001267	4e-06
0.07	40000	573.5	0.0001143	3.7e-06
0.1	100	298.15	0.001252	3.84e-05
0.1	100	323.05	0.0007656	2.36e-05
0.1	100	348.42	0.0005232	1.62e-05
0.1	10000	298.15	0.001255	3.85e-05
0.1	10000	323.05	0.000767	2.36e-05
0.1	10000	348.42	0.0005267	1.62e-05
0.1	10000	372.4	0.0003948	1.22e-05
0.1	10000	398.72	0.0003052	9.4e-06
0.1	10000	421.4	0.0002535	7.9e-06
0.1	10000	447.2	0.0002125	6.6e-06
0.1	10000	471.31	0.0001847	5.8e-06
0.1	10000	498.22	0.0001618	5.1e-06
0.1	10000	525.4	0.000143	4.5e-06
0.1	10000	547.9	0.0001296	4.1e-06
0.1	10000	573.2	0.0001143	3.7e-06
0.1	20000	298.15	0.001256	3.85e-05
0.1	20000	323.05	0.000771	2.38e-05
0.1	20000	348.42	0.0005294	1.63e-05
0.1	20000	372.4	0.0003979	1.23e-05
0.1	20000	398.72	0.0003094	9.6e-06
0.1	20000	421.4	0.0002565	8e-06
0.1	20000	447.2	0.0002163	6.7e-06
0.1	20000	471.31	0.0001878	5.9e-06
0.1	20000	498.22	0.0001641	5.2e-06
0.1	20000	525.4	0.0001469	4.6e-06
0.1	20000	547.9	0.0001329	4.2e-06
0.1	20000	573.2	0.0001178	3.8e-06
0.1	30000	298.15	0.001257	3.86e-05
0.1	30000	323.05	0.0007745	2.39e-05
0.1	30000	348.42	0.000534	1.64e-05
0.1	30000	372.4	0.0003998	1.23e-05
0.1	30000	398.72	0.0003132	9.7e-06
0.1	30000	421.4	0.0002596	8.1e-06
0.1	30000	447.2	0.0002189	6.8e-06
0.1	30000	471.31	0.0001904	6e-06
0.1	30000	498.22	0.0001678	5.3e-06
0.1	30000	525.4	0.0001493	4.7e-06
0.1	30000	547.9	0.000136	4.3e-06
0.1	30000	573.2	0.0001204	3.8e-06
0.1	40000	298.15	0.001258	3.86e-05
0.1	40000	323.05	0.000778	2.4e-05
0.1	40000	348.42	0.0005399	1.66e-05
0.1	40000	372.4	0.0004062	1.25e-05
0.1	40000	398.72	0.0003159	9.8e-06
0.1	40000	421.4	0.0002635	8.2e-06
0.1	40000	447.2	0.0002219	6.9e-06
0.1	40000	471.31	0.0001941	6.1e-06
0.1	40000	498.22	0.0001711	5.4e-06
0.1	40000	525.4	0.0001524	4.8e-06
0.1	40000	547.9	0.0001399	4.4e-06
0.1	40000	573.2	0.0001266	4e-06
0.15	100	298.15	0.001545	4.74e-05
0.15	100	323.4	0.0009286	2.86e-05
0.15	100	348.7	0.0006292	1.94e-05
0.15	10000	298.15	0.001548	4.75e-05
0.15	10000	323.4	0.0009316	2.87e-05
0.15	10000	348.7	0.0006336	1.95e-05
0.15	10000	372.8	0.0004705	1.45e-05
0.15	10000	395.4	0.0003731	1.15e-05
0.15	10000	421.3	0.0002998	9.3e-06
0.15	10000	447.6	0.0002493	7.7e-06
0.15	10000	473.93	0.0002133	6.6e-06
0.15	10000	497.8	0.0001892	5.9e-06
0.15	10000	522.4	0.0001686	5.3e-06
0.15	10000	547.7	0.000151	4.8e-06
0.15	10000	570.5	0.0001354	4.3e-06
0.15	20000	298.15	0.00155	4.75e-05
0.15	20000	323.4	0.0009354	2.88e-05
0.15	20000	348.7	0.0006367	1.96e-05
0.15	20000	372.8	0.0004743	1.46e-05
0.15	20000	395.4	0.0003767	1.16e-05
0.15	20000	421.3	0.0003027	9.4e-06
0.15	20000	447.6	0.0002551	7.9e-06
0.15	20000	473.93	0.0002169	6.8e-06
0.15	20000	497.8	0.0001945	6.1e-06
0.15	20000	522.4	0.0001709	5.4e-06
0.15	20000	547.7	0.0001548	4.9e-06
0.15	20000	570.5	0.0001399	4.4e-06
0.15	30000	298.15	0.001551	4.76e-05
0.15	30000	323.4	0.0009401	2.9e-05
0.15	30000	348.7	0.0006418	1.97e-05
0.15	30000	372.8	0.0004795	1.48e-05
0.15	30000	395.4	0.000381	1.18e-05
0.15	30000	421.3	0.0003087	9.5e-06
0.15	30000	447.6	0.0002575	8e-06
0.15	30000	473.93	0.0002199	6.8e-06
0.15	30000	497.8	0.0001978	6.2e-06
0.15	30000	522.4	0.0001748	5.5e-06
0.15	30000	547.7	0.0001589	5e-06
0.15	30000	570.5	0.0001463	4.6e-06
0.15	40000	298.15	0.001554	4.77e-05
0.15	40000	323.4	0.000945	2.91e-05
0.15	40000	348.7	0.0006473	1.99e-05
0.15	40000	372.8	0.000484	1.49e-05
0.15	40000	395.4	0.000386	1.19e-05
0.15	40000	421.3	0.0003114	9.6e-06
0.15	40000	447.6	0.0002603	8.1e-06
0.15	40000	473.93	0.000224	7e-06
0.15	40000	497.8	0.0002001	6.2e-06
0.15	40000	522.4	0.000179	5.6e-06
0.15	40000	547.7	0.0001634	5.1e-06
0.15	40000	570.5	0.0001496	4.7e-06
0.2	100	298.15	0.001963	6.02e-05
0.2	100	323.15	0.001168	3.6e-05
0.2	100	347.9	0.0007892	2.43e-05
0.2	10000	298.15	0.001965	6.03e-05
0.2	10000	323.15	0.00117	3.61e-05
0.2	10000	347.9	0.0007944	2.44e-05
0.2	10000	374.5	0.0005699	1.75e-05
0.2	10000	397.21	0.0004505	1.39e-05
0.2	10000	420.3	0.0003686	1.14e-05
0.2	10000	444.81	0.0003083	9.5e-06
0.2	10000	472.3	0.0002608	8.1e-06
0.2	10000	497.19	0.0002292	7.1e-06
0.2	10000	523.8	0.0002021	6.3e-06
0.2	10000	545.4	0.000184	5.8e-06
0.2	20000	298.15	0.001966	6.03e-05
0.2	20000	323.15	0.001176	3.62e-05
0.2	20000	347.9	0.0008004	2.46e-05
0.2	20000	374.5	0.0005743	1.77e-05
0.2	20000	397.21	0.000454	1.4e-05
0.2	20000	420.3	0.0003729	1.15e-05
0.2	20000	444.81	0.0003129	9.7e-06
0.2	20000	472.3	0.0002661	8.3e-06
0.2	20000	497.19	0.0002335	7.3e-06
0.2	20000	523.8	0.0002076	6.5e-06
0.2	20000	545.4	0.0001879	5.9e-06
0.2	30000	298.15	0.001967	6.03e-05
0.2	30000	323.15	0.001181	3.64e-05
0.2	30000	347.9	0.0008053	2.48e-05
0.2	30000	374.5	0.0005799	1.78e-05
0.2	30000	397.21	0.0004598	1.42e-05
0.2	30000	420.3	0.0003775	1.16e-05
0.2	30000	444.81	0.0003175	9.8e-06
0.2	30000	472.3	0.0002699	8.4e-06
0.2	30000	497.19	0.0002387	7.4e-06
0.2	30000	523.8	0.0002105	6.6e-06
0.2	30000	545.4	0.0001923	6e-06
0.2	40000	298.15	0.001968	6.03e-05
0.2	40000	323.15	0.001185	3.65e-05
0.2	40000	347.9	0.000811	2.49e-05
0.2	40000	374.5	0.0005875	1.81e-05
0.2	40000	397.21	0.0004654	1.43e-05
0.2	40000	420.3	0.0003826	1.18e-05
0.2	40000	444.81	0.0003219	9.9e-06
0.2	40000	472.3	0.0002739	8.5e-06
0.2	40000	497.19	0.0002425	7.5e-06
0.2	40000	523.8	0.000216	6.7e-06
0.2	40000	545.4	0.0001989	6.2e-06
0.23	100	303.15	0.001993	6.12e-05
0.23	100	323.15	0.001333	4.1e-05
0.23	100	348.7	0.0008925	2.75e-05
0.23	10000	303.15	0.001993	6.12e-05
0.23	10000	323.15	0.001336	4.11e-05
0.23	10000	348.7	0.0008987	2.76e-05
0.23	10000	370.4	0.0006799	2.09e-05
0.23	10000	398.8	0.0005081	1.56e-05
0.23	10000	422.51	0.0004132	1.27e-05
0.23	10000	447.9	0.0003449	1.07e-05
0.23	10000	472	0.0002966	9.2e-06
0.23	10000	496.34	0.000262	8.1e-06
0.23	10000	520.51	0.0002338	7.3e-06
0.23	10000	548.7	0.0002061	6.4e-06
0.23	20000	303.15	0.001996	6.13e-05
0.23	20000	323.15	0.00134	4.12e-05
0.23	20000	348.7	0.0009053	2.78e-05
0.23	20000	370.4	0.0006864	2.11e-05
0.23	20000	398.8	0.0005124	1.58e-05
0.23	20000	422.51	0.0004195	1.29e-05
0.23	20000	447.9	0.0003498	1.08e-05
0.23	20000	472	0.0003024	9.4e-06
0.23	20000	496.34	0.0002695	8.4e-06
0.23	20000	520.51	0.0002387	7.4e-06
0.23	20000	548.7	0.0002106	6.6e-06
0.23	30000	303.15	0.001999	6.13e-05
0.23	30000	323.15	0.001346	4.14e-05
0.23	30000	348.7	0.0009128	2.81e-05
0.23	30000	370.4	0.0006905	2.12e-05
0.23	30000	398.8	0.0005185	1.6e-05
0.23	30000	422.51	0.0004254	1.31e-05
0.23	30000	447.9	0.0003568	1.1e-05
0.23	30000	472	0.0003086	9.5e-06
0.23	30000	496.34	0.0002734	8.5e-06
0.23	30000	520.51	0.0002415	7.5e-06
0.23	30000	548.7	0.0002186	6.8e-06
0.23	40000	303.15	0.002002	6.14e-05
0.23	40000	323.15	0.001353	4.16e-05
0.23	40000	348.7	0.00092	2.83e-05
0.23	40000	370.4	0.0006997	2.15e-05
0.23	40000	398.8	0.0005253	1.62e-05
0.23	40000	422.51	0.00043	1.32e-05
0.23	40000	447.9	0.0003609	1.11e-05
0.23	40000	472	0.000312	9.6e-06
0.23	40000	496.34	0.0002776	8.6e-06
0.23	40000	520.51	0.000249	7.7e-06
0.23	40000	548.7	0.000223	6.9e-06
0.26	100	303.15	0.002243	6.88e-05
0.26	100	323.15	0.001504	4.63e-05
0.26	100	348.6	0.00101	3.11e-05
0.26	10000	303.15	0.002245	6.89e-05
0.26	10000	323.15	0.001505	4.63e-05
0.26	10000	348.6	0.001017	3.13e-05
0.26	10000	375.2	0.0007321	2.25e-05
0.26	10000	399.4	0.0005695	1.75e-05
0.26	10000	423.8	0.0004623	1.42e-05
0.26	10000	447.6	0.0003901	1.2e-05
0.26	10000	473.9	0.0003308	1.02e-05
0.26	10000	498.7	0.0002923	9.1e-06
0.26	10000	520.5	0.0002636	8.2e-06
0.26	20000	303.15	0.002249	6.9e-05
0.26	20000	323.15	0.001509	4.64e-05
0.26	20000	348.6	0.001023	3.14e-05
0.26	20000	375.2	0.0007395	2.27e-05
0.26	20000	399.4	0.0005739	1.77e-05
0.26	20000	423.8	0.0004688	1.44e-05
0.26	20000	447.6	0.0003981	1.23e-05
0.26	20000	473.9	0.0003354	1.04e-05
0.26	20000	498.7	0.0002976	9.2e-06
0.26	20000	520.5	0.0002691	8.3e-06
0.26	30000	303.15	0.002253	6.91e-05
0.26	30000	323.15	0.001515	4.66e-05
0.26	30000	348.6	0.001029	3.16e-05
0.26	30000	375.2	0.0007436	2.29e-05
0.26	30000	399.4	0.00058	1.78e-05
0.26	30000	423.8	0.0004726	1.46e-05
0.26	30000	447.6	0.000401	1.24e-05
0.26	30000	473.9	0.0003413	1.05e-05
0.26	30000	498.7	0.0003018	9.3e-06
0.26	30000	520.5	0.0002746	8.5e-06
0.26	40000	303.15	0.002259	6.93e-05
0.26	40000	323.15	0.001523	4.69e-05
0.26	40000	348.6	0.001041	3.2e-05
0.26	40000	375.2	0.0007535	2.32e-05
0.26	40000	399.4	0.0005895	1.81e-05
0.26	40000	423.8	0.0004803	1.48e-05
0.26	40000	447.6	0.0004047	1.25e-05
0.26	40000	473.9	0.0003476	1.07e-05
0.26	40000	498.7	0.000309	9.6e-06
0.26	40000	520.5	0.0002813	8.7e-06
