Measured thermophysical data. Salting-out effect in polypropylene glycol-amino acid aqueous solutions revealed by vapor pressure osmometry
Source: Fluid Phase Equilib., 2016, 10.1016/j.fluid.2016.05.025
Compound 1: 2-aminoacetic acid, C2H5NO2, InChI=1S/C2H5NO2/c3-1-2(4)5/h1,3H2,(H,4,5), purity 99.7%
Compound 2: L-serine, C3H7NO3, InChI=1S/C3H7NO3/c4-2(1-5)3(6)7/h2,5H,1,4H2,(H,6,7)/t2-/m0/s1, purity 99%
Compound 3: L-proline, C5H9NO2, InChI=1S/C5H9NO2/c7-5(8)4-2-1-3-6-4/h4,6H,1-3H2,(H,7,8)/t4-/m0/s1, purity 99%
Compound 4: (S)-2-aminopropanoic acid, C3H7NO2, InChI=1S/C3H7NO2/c1-2(4)3(5)6/h2H,4H2,1H3,(H,5,6)/t2-/m0/s1, purity 99%
Compound 5: water, H2O, InChI=1S/H2O/h1H2, purity 99.8%

System: 2-aminoacetic acid + water; phases: Liquid
Fixed: Pressure, kPa = 101
Property: (Relative) activity of water (Liquid); method: osmometry
Temperature, K	Molality, mol/kg of 2-aminoacetic acid	(Relative) activity of water	uncertainty
303.15	0	1	0.03873
303.15	0.0067	0.99984	0.03873
303.15	0.0133	0.99969	0.03873
303.15	0.0404	0.99921	0.03873
303.15	0.0741	0.9986	0.03873
303.15	0.1074	0.99796	0.03873
303.15	0.1339	0.99745	0.03873
303.15	0.1617	0.99696	0.03873
303.15	0.1888	0.99653	0.03873
308.15	0	1	0.03873
308.15	0.0064	0.99987	0.03873
308.15	0.0233	0.99955	0.03873
308.15	0.0402	0.99924	0.03873
308.15	0.0737	0.99863	0.03873
308.15	0.1066	0.99804	0.03873
308.15	0.1337	0.99757	0.03873
308.15	0.1608	0.99707	0.03873
308.15	0.1895	0.99658	0.03873
313.15	0	1	0.03873
313.15	0.0066	0.99988	0.03873
313.15	0.0234	0.99958	0.03873
313.15	0.0401	0.99928	0.03873
313.15	0.0732	0.99869	0.03873
313.15	0.1083	0.99807	0.03873
313.15	0.1332	0.99763	0.03873
313.15	0.1606	0.99717	0.03873
313.15	0.1855	0.99675	0.03873

System: (S)-2-aminopropanoic acid + water; phases: Liquid
Fixed: Pressure, kPa = 101
Property: (Relative) activity of water (Liquid); method: osmometry
Temperature, K	Molality, mol/kg of (S)-2-aminopropanoic acid	(Relative) activity of water	uncertainty
303.15	0	1	0.03873
303.15	0.0052	0.99988	0.03873
303.15	0.0112	0.99973	0.03873
303.15	0.0337	0.99932	0.03873
303.15	0.0614	0.99882	0.03873
303.15	0.0897	0.99828	0.03873
303.15	0.1133	0.99788	0.03873
303.15	0.1356	0.99745	0.03873
303.15	0.1594	0.99702	0.03873
308.15	0	1	0.03873
308.15	0.006	0.99987	0.03873
308.15	0.0337	0.99934	0.03873
308.15	0.0629	0.99885	0.03873
308.15	0.0897	0.99837	0.03873
308.15	0.1135	0.99792	0.03873
308.15	0.1363	0.99756	0.03873
308.15	0.1592	0.99712	0.03873
313.15	0	1	0.03873
313.15	0.0056	0.9999	0.03873
313.15	0.0196	0.99962	0.03873
313.15	0.0336	0.99937	0.03873
313.15	0.0608	0.9989	0.03873
313.15	0.0902	0.99841	0.03873
313.15	0.1126	0.99802	0.03873
313.15	0.1363	0.99761	0.03873
313.15	0.1579	0.99724	0.03873

System: L-serine + water; phases: Liquid
Fixed: Pressure, kPa = 101
Property: (Relative) activity of water (Liquid); method: osmometry
Temperature, K	Molality, mol/kg of L-serine	(Relative) activity of water	uncertainty
303.15	0	1	0.03873
303.15	0.0049	0.99991	0.03873
303.15	0.0095	0.99981	0.03873
303.15	0.0285	0.99945	0.03873
303.15	0.052	0.99898	0.03873
303.15	0.0769	0.99854	0.03873
303.15	0.0958	0.99823	0.03873
303.15	0.115	0.99785	0.03873
303.15	0.135	0.99754	0.03873
308.15	0	1	0.03873
308.15	0.0049	0.99991	0.03873
308.15	0.0166	0.9997	0.03873
308.15	0.029	0.99945	0.03873
308.15	0.0532	0.99902	0.03873
308.15	0.0753	0.99863	0.03873
308.15	0.0953	0.99831	0.03873
308.15	0.1147	0.99793	0.03873
308.15	0.1358	0.99757	0.03873
313.15	0	1	0.03873
313.15	0.0049	0.99993	0.03873
313.15	0.0166	0.9997	0.03873
313.15	0.0284	0.99948	0.03873
313.15	0.0525	0.99906	0.03873
313.15	0.0761	0.99865	0.03873
313.15	0.096	0.99837	0.03873
313.15	0.1148	0.998	0.03873
313.15	0.1344	0.99768	0.03873

System: L-proline + water; phases: Liquid
Fixed: Pressure, kPa = 101
Property: (Relative) activity of water (Liquid); method: osmometry
Temperature, K	Molality, mol/kg of L-proline	(Relative) activity of water	uncertainty
303.15	0	1	0.03873
303.15	0.0087	0.99982	0.03873
303.15	0.0261	0.99943	0.03873
303.15	0.0482	0.99902	0.03873
303.15	0.0689	0.99864	0.03873
303.15	0.0842	0.99839	0.03873
303.15	0.0991	0.99813	0.03873
303.15	0.1184	0.99782	0.03873
303.15	0.1397	0.99745	0.03873
308.15	0	1	0.03873
308.15	0.0045	0.99991	0.03873
308.15	0.0143	0.99971	0.03873
308.15	0.0262	0.99947	0.03873
308.15	0.0483	0.99903	0.03873
308.15	0.0702	0.99863	0.03873
308.15	0.0876	0.99837	0.03873
308.15	0.1054	0.99809	0.03873
308.15	0.123	0.99781	0.03873
313.15	0	1	0.03873
313.15	0.0043	0.99992	0.03873
313.15	0.0156	0.99971	0.03873
313.15	0.026	0.99948	0.03873
313.15	0.048	0.99908	0.03873
313.15	0.0705	0.99869	0.03873
313.15	0.0876	0.99843	0.03873
313.15	0.106	0.99817	0.03873
313.15	0.1239	0.99787	0.03873
