Measured thermophysical data. Solubility of an antiarrhythmic drug (amiodarone hydrochloride) in supercritical carbon dioxide: Experimental and modeling
Source: Fluid Phase Equilib., 2017, 10.1016/j.fluid.2017.07.015
Compound 1: carbon dioxide, CO2, InChI=1S/CO2/c2-1-3
Compound 2: 2-butyl-3-benzofuranyl 4-[2-(diethylamino)ethoxy]-3,5-diiodophenyl ketone hydrochloride, C25H30ClI2NO3, InChI=1S/C25H29I2NO3.ClH/c1-4-7-11-22-23(18-10-8-9-12-21(18)31-22)24(29)17-15-19(26)25(20(27)16-17)30-14-13-28(5-2)6-3;/h8-10,12,15-16H,4-7,11,13-14H2,1-3H3;1H

System: 2-butyl-3-benzofuranyl 4-[2-(diethylamino)ethoxy]-3,5-diiodophenyl ketone hydrochloride + carbon dioxide; phases: Fluid (supercritical or subcritical phases), Crystal
Property: Mole fraction of carbon dioxide (Fluid (supercritical or subcritical phases)); method: UV-vis spectrophotometer
Temperature, K	Pressure, kPa	Mole fraction of carbon dioxide	uncertainty
313.2	12000	0.0001184	1.18e-05
313.2	15000	0.0002941	9.3e-06
313.2	18000	0.0003911	4.9e-06
313.2	21000	0.00042	3.1e-06
313.2	24000	0.0004469	4.2e-06
313.2	27000	0.0004756	2.81e-05
313.2	30000	0.0005247	6.1e-06
323.2	12000	9.86e-05	1.24e-05
323.2	15000	0.0002592	9.6e-06
323.2	18000	0.0003792	7.5e-06
323.2	21000	0.0004489	1.93e-05
323.2	24000	0.000464	1.74e-05
323.2	27000	0.0005055	2.26e-05
323.2	30000	0.0005957	9.3e-06
333.2	12000	5.11e-05	1.11e-05
333.2	15000	0.0002202	1.47e-05
333.2	18000	0.0003621	3.08e-05
333.2	21000	0.0005285	3.33e-05
333.2	24000	0.0005926	1.03e-05
333.2	27000	0.0006844	1.27e-05
333.2	30000	0.0007882	2.46e-05
343.2	12000	2.51e-05	1.05e-05
343.2	15000	0.0001817	1.09e-05
343.2	18000	0.000336	2.78e-05
343.2	21000	0.0005463	1.53e-05
343.2	24000	0.0006631	5.7e-05
343.2	27000	0.0007951	5.81e-05
343.2	30000	0.001012	5.42e-05
