Measured thermophysical data. Phase Compositions and Saturated Densities for the Binary System of Carbon Dioxide with 2-ethoxyethanol
Source: Fluid Phase Equilib., 2005, 10.1016/j.fluid.2005.10.005
Compound 1: carbon dioxide, CO2, InChI=1S/CO2/c2-1-3
Compound 2: 2-ethoxyethan-1-ol, C4H10O2, InChI=1S/C4H10O2/c1-2-6-4-3-5/h5H,2-4H2,1H3

System: 2-ethoxyethan-1-ol + carbon dioxide; phases: Liquid, Gas
Property: Mass density, kg/m3 (Liquid); method: VIBTUB:UFactor:4
Temperature, K	Pressure, kPa	Mass density, kg/m3	uncertainty
313.2	1400	918.2	0.4
313.2	2140	920.8	0.4
313.2	2890	923	0.4
313.2	3510	924.3	0.4
313.2	4260	926.6	0.4
313.2	5120	927.5	0.5
313.2	5970	922.7	0.5
313.2	7070	903.8	0.6
313.2	7540	864.5	1.1
320.2	2060	914.2	0.4
320.2	2670	915.1	0.5
320.2	3310	916.3	0.5
320.2	3850	917.1	0.5
320.2	4490	917.8	0.5
320.2	5090	917.8	0.5
320.2	5680	917.2	0.5
320.2	6290	915.4	0.5
320.2	6940	906.9	0.5
320.2	7520	904	0.6
320.2	8020	890.5	0.8
320.2	8530	845.9	1.5
320.2	8830	784.8	2.3
328.2	1530	901.3	0.5
328.2	2270	902.6	0.5
328.2	3150	904	0.5
328.2	3930	904.7	0.5
328.2	4680	905	0.5
328.2	5450	904.7	0.5
328.2	6240	903.3	0.5
328.2	7010	900.5	0.6
328.2	7810	895.2	0.6
328.2	8540	884.7	0.7
328.2	9370	854.9	1.1
328.2	9580	841.4	1.3

System: 2-ethoxyethan-1-ol + carbon dioxide; phases: Gas, Liquid
Property: Mass density, kg/m3 (Gas); method: VIBTUB:UFactor:4
Temperature, K	Pressure, kPa	Mass density, kg/m3	uncertainty
313.2	1400	25.6	0.3
313.2	2140	40.4	0.3
313.2	2890	57	0.4
313.2	3510	71.9	0.4
313.2	4260	91.5	0.5
313.2	5120	118.6	0.6
313.2	5970	150.2	0.8
313.2	7070	209.4	1.1
313.2	7540	256.3	1.5
320.2	2060	37.5	0.3
320.2	2670	49.9	0.4
320.2	3310	64	1
320.2	3850	76.8	0.5
320.2	4490	93.5	0.5
320.2	5090	110.5	0.6
320.2	5680	129	1
320.2	6290	151.3	0.8
320.2	6940	179.5	0.9
320.2	7520	209.6	1.1
320.2	8020	244.8	1.3
320.2	8530	297.1	1.8
320.2	8830	343.3	2.2
328.2	1530	26.2	0.3
328.2	2270	40.1	0.3
328.2	3150	58.1	0.4
328.2	3930	75.5	0.4
328.2	4680	93.8	0.5
328.2	5450	114.7	0.6
328.2	6240	138.7	0.7
328.2	7010	166.4	0.8
328.2	7810	201.5	1
328.2	8540	241.7	1.3
328.2	9370	311.7	1.7
328.2	9580	332.6	1.9

System: 2-ethoxyethan-1-ol + carbon dioxide; phases: Liquid, Gas
Property: Mole fraction of carbon dioxide (Liquid); method: CHROM:UFactor:4
Temperature, K	Pressure, kPa	Mole fraction of carbon dioxide	uncertainty
313.2	1400	0.11	0.004
313.2	2140	0.177	0.006
313.2	2890	0.238	0.007
313.2	3510	0.295	0.009
313.2	4260	0.367	0.011
313.2	5120	0.444	0.014
313.2	5970	0.525	0.015
313.2	7070	0.686	0.01
313.2	7540	0.764	0.008
313.2	7790	0.845	0.006
313.2	7870	0.881	0.006
320.2	2060	0.14	0.004
320.2	2670	0.186	0.006
320.2	3310	0.234	0.007
320.2	3850	0.273	0.009
320.2	4490	0.319	0.01
320.2	5090	0.368	0.011
320.2	5680	0.42	0.013
320.2	6290	0.478	0.015
320.2	6940	0.529	0.015
320.2	7520	0.6	0.013
320.2	8020	0.676	0.01
320.2	8530	0.755	0.008
320.2	8830	0.852	0.006
328.2	1530	0.098	0.003
328.2	2270	0.142	0.004
328.2	3150	0.201	0.006
328.2	3930	0.251	0.008
328.2	4680	0.291	0.009
328.2	5450	0.348	0.011
328.2	6240	0.404	0.013
328.2	7010	0.457	0.014
328.2	7810	0.522	0.015
328.2	8540	0.592	0.013
328.2	9370	0.692	0.01
328.2	9580	0.724	0.009
328.2	9880	0.787	0.007
