Measured thermophysical data. Vapor-liquid equilibrium measurement and ENRTL Modeling of CO2 absorption in aqueous hexamethylenediamine
Source: Fluid Phase Equilib., 2015, 10.1016/j.fluid.2015.05.033
Compound 1: 1,6-hexanediamine, C6H16N2, InChI=1S/C6H16N2/c7-5-3-1-2-4-6-8/h1-8H2, purity 98%
Compound 2: 2-aminoethan-1-ol, C2H7NO, InChI=1S/C2H7NO/c3-1-2-4/h4H,1-3H2, purity 99%
Compound 3: carbon dioxide, CO2, InChI=1S/CO2/c2-1-3, purity 99.9%
Compound 4: water, H2O, InChI=1S/H2O/h1H2, purity 99.8%

System: 1,6-hexanediamine + carbon dioxide + water; phases: Liquid, Gas
Property: Mole fraction of carbon dioxide (Liquid); method: Phase equilibration
Temperature, K	Pressure, kPa	Mole fraction of water	Mole fraction of carbon dioxide	uncertainty
303.15	2.04	0.964	0.02	0.001
303.15	3.765	0.962	0.021	0.001
303.15	13.143	0.957	0.026	0.001
303.15	27.387	0.955	0.029	0.001
303.15	44.432	0.954	0.03	0.001
303.15	59.658	0.954	0.03	0.001
303.15	85.194	0.953	0.031	0.001
303.15	104.672	0.952	0.031	0.001
313.15	0.961	0.967	0.017	0.001
313.15	2.362	0.965	0.018	0.001
313.15	15.164	0.96	0.024	0.001
313.15	37.077	0.957	0.026	0.001
313.15	55.643	0.956	0.028	0.001
313.15	69.543	0.955	0.029	0.001
313.15	82.048	0.954	0.029	0.001
313.15	89.263	0.954	0.029	0.001
313.15	108.183	0.953	0.03	0.001
323.15	2.546	0.966	0.017	0.001
323.15	21.282	0.961	0.023	0.001
323.15	42.814	0.959	0.025	0.001
323.15	54.556	0.958	0.026	0.001
323.15	71.87	0.957	0.027	0.001
323.15	82.513	0.957	0.027	0.001
323.15	96.922	0.956	0.028	0.001
323.15	108.938	0.955	0.028	0.001
333.15	2.13	0.968	0.015	0.001
333.15	14.835	0.965	0.019	0.001
333.15	34.319	0.962	0.022	0.001
333.15	45.051	0.961	0.022	0.001
333.15	62.434	0.96	0.024	0.001
333.15	70.18	0.959	0.024	0.001
333.15	83.34	0.959	0.025	0.001
333.15	94.735	0.958	0.025	0.001
333.15	108.006	0.957	0.026	0.001
303.15	1.443	0.927	0.037	0.001
303.15	3.101	0.924	0.04	0.001
303.15	15.504	0.916	0.049	0.001
303.15	30.661	0.912	0.052	0.001
303.15	46.696	0.91	0.055	0.001
303.15	66.121	0.908	0.057	0.001
303.15	82.495	0.906	0.059	0.001
303.15	103.229	0.905	0.06	0.001
313.15	1.953	0.929	0.035	0.001
313.15	13.867	0.92	0.044	0.001
313.15	32.053	0.915	0.05	0.001
313.15	47.803	0.913	0.052	0.001
313.15	64.452	0.911	0.054	0.001
313.15	75.392	0.91	0.055	0.001
313.15	94.443	0.908	0.056	0.001
313.15	110.273	0.908	0.057	0.001
323.15	3.407	0.93	0.034	0.001
323.15	20.577	0.923	0.042	0.001
323.15	38.283	0.918	0.046	0.001
323.15	46.681	0.917	0.047	0.001
323.15	52.534	0.917	0.048	0.001
323.15	65.166	0.915	0.049	0.001
323.15	80.299	0.914	0.05	0.001
323.15	101.833	0.913	0.052	0.001
333.15	3.175	0.933	0.031	0.001
333.15	12.844	0.929	0.035	0.001
333.15	35.866	0.923	0.042	0.001
333.15	53.143	0.92	0.044	0.001
333.15	62.241	0.919	0.045	0.001
333.15	73.546	0.918	0.046	0.001
333.15	84.644	0.917	0.047	0.001
333.15	100.391	0.916	0.048	0.001
303.15	1.406	0.885	0.057	0.001
303.15	3.93	0.88	0.062	0.001
303.15	6.955	0.876	0.066	0.001
303.15	11.843	0.873	0.069	0.001
303.15	18.646	0.87	0.072	0.001
303.15	30.046	0.866	0.076	0.001
303.15	51.181	0.862	0.081	0.001
303.15	76.44	0.858	0.085	0.001
303.15	105.81	0.857	0.086	0.001
313.15	2.353	0.886	0.055	0.001
313.15	9.313	0.879	0.063	0.001
313.15	14.439	0.876	0.066	0.001
313.15	17.662	0.874	0.068	0.001
313.15	23.24	0.872	0.07	0.001
313.15	41.525	0.868	0.074	0.001
313.15	59.196	0.865	0.077	0.001
313.15	75.392	0.864	0.079	0.001
313.15	92.077	0.862	0.08	0.001
323.15	2.219	0.889	0.052	0.001
323.15	3.501	0.887	0.054	0.001
323.15	14.268	0.883	0.058	0.001
323.15	28.988	0.877	0.065	0.001
323.15	41.765	0.874	0.068	0.001
323.15	56.943	0.873	0.069	0.001
323.15	74.16	0.871	0.071	0.001
323.15	94.977	0.868	0.074	0.001
333.15	2.476	0.893	0.048	0.001
333.15	6.274	0.89	0.051	0.001
333.15	17.52	0.885	0.056	0.001
333.15	32.37	0.881	0.061	0.001
333.15	47.108	0.878	0.064	0.001
333.15	62.717	0.876	0.066	0.001
333.15	77.519	0.874	0.068	0.001
333.15	121.877	0.87	0.072	0.001

System: carbon dioxide + 2-aminoethan-1-ol + water; phases: Liquid, Gas
Fixed: Temperature, K = 313.15
Property: Mole fraction of carbon dioxide (Liquid); method: Phase equilibration
Pressure, kPa	Mole fraction of water	Mole fraction of carbon dioxide	uncertainty
0.304	0.963	0.01	0.001
1.175	0.962	0.011	0.001
13.258	0.959	0.014	0.001
45.156	0.957	0.016	0.001
106.711	0.954	0.019	0.001
173.231	0.954	0.02	0.001
257.401	0.953	0.021	0.001
353.436	0.951	0.022	0.001
428.295	0.951	0.022	0.001
569.653	0.95	0.023	0.001
