Measured thermophysical data. Application of scaled particle theory to the partial molar volumes of some tetradentate N2O2  type Schiff bases in ionic liquid + DMF solutions
Source: Fluid Phase Equilib., 2013, 10.1016/j.fluid.2013.05.022
Compound 1: dimethylformamide, C3H7NO, InChI=1S/C3H7NO/c1-4(2)3-5/h3H,1-2H3, purity 99%
Compound 2: salnaph, C24H18N2O2, InChI=1S/C24H18N2O2/c27-22-13-3-1-7-18(22)15-25-20-11-5-9-17-10-6-12-21(24(17)20)26-16-19-8-2-4-14-23(19)28/h1-16,27-28H/b25-15+,26-16+
Compound 3: 2,2'-[cyclohexane-1,2-diylbis(nitrilomethylylidene)]diphenol, C20H22N2O2, InChI=1S/C20H22N2O2/c23-19-11-5-1-7-15(19)13-21-17-9-3-4-10-18(17)22-14-16-8-2-6-12-20(16)24/h1-2,5-8,11-14,17-18,23-24H,3-4,9-10H2
Compound 4: 1-pentyl-3-methylimidazolium bromide, C9H17BrN2, InChI=1S/C9H17N2.BrH/c1-3-4-5-6-11-8-7-10(2)9-11;/h7-9H,3-6H2,1-2H3;1H/q+1;/p-1

System: dimethylformamide; phases: Liquid
Property: Mass density, kg/m3 (Liquid); method: Vibrating tube method
Temperature, K	Pressure, kPa	Mass density, kg/m3	uncertainty
298.15	85.9	944.53	1.02

System: dimethylformamide; phases: Liquid
Property: Refractive index (Na D-line) (Liquid); method: Standard Abbe refractometry
Temperature, K	Pressure, kPa	Refractive index (Na D-line)	uncertainty
298.15	859	1.4281	0.0004

System: dimethylformamide + salnaph + 1-pentyl-3-methylimidazolium bromide; phases: Liquid
Fixed: Pressure, kPa = 85.9
Fixed: Temperature, K = 298.15
Property: Mass density, kg/m3 (Liquid); method: Vibrating tube method
Molality, mol/kg of salnaph	Solvent: Molality, mol/kg of 1-pentyl-3-methylimidazolium bromide	Mass density, kg/m3	uncertainty
0	0	944.1	1.26
0.0301	0	947	1.26
0.0498	0	948.89	1.26
0.0717	0	950.97	1.26
0.0893	0	952.63	1.26
0.1093	0	954.5	1.27
0.1302	0	956.46	1.27
0.149	0	958.2	1.27
0.1673	0	959.86	1.27
0.1876	0	961.72	1.26
0	0.0264	945.98	1.27
0.0299	0.0264	948.85	1.28
0.0493	0.0264	950.7	1.28
0.0702	0.0264	952.67	1.28
0.0844	0.0264	954.01	1.28
0.1095	0.0264	956.35	1.28
0.1295	0.0264	958.2	1.26
0.1492	0.0264	960.01	1.28
0.1716	0.0264	962.04	1.28
0.1882	0.0264	963.55	1.27
0	0.01786	955.76	1.26
0.0293	0.01786	958.47	1.26
0.0488	0.01786	960.25	1.26
0.0694	0.01786	962.14	1.28
0.0824	0.01786	963.33	1.28
0.1109	0.01786	965.89	1.27
0.1322	0.01786	967.81	1.27
0.1501	0.01786	969.46	1.27
0.1705	0.01786	971.26	1.29
0.1924	0.01786	973.19	1.28
0	0.3128	963.78	1.27
0.0304	0.3128	966.52	1.27
0.0503	0.3128	968.3	1.27
0.069	0.3128	969.98	1.27
0.0898	0.3128	971.87	1.27
0.1105	0.3128	973.71	1.27
0.1291	0.3128	975.36	1.27
0.1491	0.3128	977.13	1.28
0.1695	0.3128	978.96	1.28
0.1911	0.3128	980.87	1.28

System: dimethylformamide + 2,2'-[cyclohexane-1,2-diylbis(nitrilomethylylidene)]diphenol + 1-pentyl-3-methylimidazolium bromide; phases: Liquid
Fixed: Pressure, kPa = 85.9
Fixed: Temperature, K = 298.15
Property: Mass density, kg/m3 (Liquid); method: Vibrating tube method
Molality, mol/kg of 2,2'-[cyclohexane-1,2-diylbis(nitrilomethylylidene)]diphenol	Solvent: Molality, mol/kg of 1-pentyl-3-methylimidazolium bromide	Mass density, kg/m3	uncertainty
0	0	944.04	1.15
0.0304	0	945.56	1.15
0.0451	0	946.3	1.15
0.069	0	947.5	1.15
0.0916	0	948.64	1.15
0.1294	0	950.52	1.15
0.1492	0	951.5	1.15
0.169	0	952.47	1.15
0.1889	0	953.45	1.15
0.2087	0	954.43	1.15
0	0.0233	946.66	1.15
0.0293	0.0233	948.12	1.15
0.0496	0.0233	949.13	1.15
0.071	0.0233	950.2	1.15
0.0986	0.0233	951.56	1.15
0.13	0.0233	953.13	1.15
0.1452	0.0233	953.88	1.15
0.1715	0.0233	955.18	1.15
0.1847	0.0233	955.85	1.15
0.2136	0.0233	957.26	1.15
0	0.1309	955.74	1.15
0.0293	0.1309	957.16	1.15
0.0488	0.1309	958.1	1.15
0.0689	0.1309	959.06	1.15
0.0872	0.1309	959.94	1.15
0.1067	0.1309	960.86	1.15
0.1268	0.1309	961.81	1.15
0.1459	0.1309	962.7	1.15
0.1648	0.1309	963.59	1.15
0.1885	0.1309	964.69	1.15
0	0.3224	970.93	1.16
0.0286	0.3224	972.23	1.16
0.0479	0.3224	973.1	1.16
0.0677	0.3224	973.99	1.16
0.0868	0.3224	974.84	1.16
0.1092	0.3224	975.83	1.16
0.1242	0.3224	976.5	1.16
0.1456	0.3224	977.44	1.16
0.1639	0.3224	978.23	1.16
0.1802	0.3224	978.94	1.16
