Measured thermophysical data. Phase equilibria of phenol + toluene + quaternary ammonium salts for the separation of phenols from oil with forming deep eutectic solvents
Source: Fluid Phase Equilib., 2016, 10.1016/j.fluid.2016.08.013
Compound 1: choline chloride, C5H14ClNO, InChI=1S/C5H14NO.ClH/c1-6(2,3)4-5-7;/h7H,4-5H2,1-3H3;1H/q+1;/p-1, purity 98%
Compound 2: tetraethylammonium chloride, C8H20ClN, InChI=1S/C8H20N.ClH/c1-5-9(6-2,7-3)8-4;/h5-8H2,1-4H3;1H/q+1;/p-1, purity 98%
Compound 3: tetramethylammonium chloride, C4H12ClN, InChI=1S/C4H12N.ClH/c1-5(2,3)4;/h1-4H3;1H/q+1;/p-1, purity 98%
Compound 4: phenol, C6H6O, InChI=1S/C6H6O/c7-6-4-2-1-3-5-6/h1-5,7H, purity 99%
Compound 5: toluene, C7H8, InChI=1S/C7H8/c1-7-5-3-2-4-6-7/h2-6H,1H3, purity 99.5%

System: choline chloride + toluene + phenol; phases: Liquid mixture 1, Liquid mixture 2
Fixed: Pressure, kPa = 101.3
Property: Mass fraction of phenol (Liquid mixture 1); method: Chromatography
Property: Mass fraction of phenol (Liquid mixture 2); method: Chromatography
Property: Mass fraction of toluene (Liquid mixture 2); method: Chromatography
Temperature, K	Mass fraction of toluene	Mass fraction of phenol	uncertainty	Mass fraction of phenol	uncertainty	Mass fraction of toluene	uncertainty
298.15	0.9102	0.0846	0.0008	0.4361	0.0044	0.3933	
338.15	0.9611	0.0389	0.0004	0.4599	0.0046	0.2256	
338.15	0.9767	0.0233	0.0002	0.4143	0.0042	0.1968	
338.15	0.9834	0.0166	0.0002	0.4273	0.0043	0.1679	
338.15	0.9853	0.0147	0.0002	0.4174	0.0042	0.1259	
298.15	0.9587	0.0401	0.0004	0.4939	0.0049	0.254	
298.15	0.9775	0.0225	0.0002	0.4896	0.0049	0.195	
298.15	0.9864	0.0136	0.0001	0.4754	0.0048	0.1546	
313.15	0.9074	0.0872	0.0009	0.4266	0.0043	0.3925	
313.15	0.9558	0.0434	0.0004	0.4736	0.0047	0.2797	
313.15	0.9736	0.0264	0.0003	0.4826	0.0048	0.2029	
313.15	0.9848	0.0152	0.0002	0.4563	0.0046	0.1869	
313.15	0.9867	0.0133	0.0001	0.4435	0.0044	0.1433	
338.15	0.8845	0.1103	0.0011	0.3864	0.0039	0.4392	
338.15	0.9482	0.0507	0.0005	0.4644	0.0046	0.2874	

System: tetraethylammonium chloride + toluene + phenol; phases: Liquid mixture 2, Liquid mixture 1
Fixed: Pressure, kPa = 101.3
Property: Mass fraction of phenol (Liquid mixture 2); method: Chromatography
Property: Mass fraction of phenol (Liquid mixture 1); method: Chromatography
Property: Mass fraction of toluene (Liquid mixture 1); method: Chromatography
Temperature, K	Mass fraction of toluene	Mass fraction of phenol	uncertainty	Mass fraction of phenol	uncertainty	Mass fraction of toluene	uncertainty
298.15	0.5115	0.349	0.0035	0.0544	0.0005	0.9424	
338.15	0.2677	0.3036	0.003	0.0015	0.0001	0.9985	
298.15	0.4108	0.3808	0.0038	0.0155	0.0002	0.9835	
298.15	0.3626	0.3715	0.0037	0.0055	0.0001	0.9945	
298.15	0.3345	0.3528	0.0035	0.0028	0.0001	0.9972	
298.15	0.3092	0.3355	0.0034	0.002	0.0001	0.998	
313.15	0.5284	0.3358	0.0034	0.0581	0.0006	0.9376	
313.15	0.4289	0.3687	0.0037	0.018	0.0002	0.9805	
313.15	0.3733	0.365	0.0037	0.0081	0.0001	0.9909	
313.15	0.3483	0.3455	0.0035	0.0035	0.0001	0.9965	
313.15	0.323	0.3278	0.0033	0.0024	0.0001	0.9976	
313.15	0.2845	0.3197	0.0032	0.0015	0.0001	0.9985	
338.15	0.5413	0.3242	0.0032	0.0724	0.0007	0.9227	
338.15	0.4371	0.3606	0.0036	0.0268	0.0003	0.9707	
338.15	0.3903	0.3559	0.0036	0.0111	0.0001	0.9876	
338.15	0.3386	0.3498	0.0035	0.0046	0.0001	0.9949	
338.15	0.3138	0.3322	0.0033	0.0032	0.0001	0.9968	
338.15	0.2944	0.3146	0.0031	0.0021	0.0001	0.9979	

System: tetramethylammonium chloride + toluene + phenol; phases: Liquid mixture 1, Liquid mixture 2
Fixed: Pressure, kPa = 101.3
Property: Mass fraction of phenol (Liquid mixture 1); method: Chromatography
Property: Mass fraction of phenol (Liquid mixture 2); method: Chromatography
Property: Mass fraction of toluene (Liquid mixture 2); method: Chromatography
Temperature, K	Mass fraction of toluene	Mass fraction of phenol	uncertainty	Mass fraction of phenol	uncertainty	Mass fraction of toluene	uncertainty
298.15	0.9114	0.0814	0.0008	0.375	0.0038	0.52	
298.15	0.9678	0.03	0.0003	0.4542	0.0045	0.3741	
298.15	0.986	0.0134	0.0001	0.4826	0.0048	0.2835	
313.15	0.9045	0.0878	0.0009	0.3669	0.0037	0.5287	
313.15	0.9579	0.0392	0.0004	0.4442	0.0044	0.3833	
313.15	0.9827	0.0164	0.0002	0.4756	0.0048	0.2922	
338.15	0.8874	0.1036	0.001	0.352	0.0035	0.5421	
338.15	0.9505	0.0465	0.0005	0.4256	0.0043	0.4053	
338.15	0.9773	0.0215	0.0002	0.4682	0.0047	0.2996	
