Measured thermophysical data. Measurement and correlation of density and viscosity of n-alcohol-water mixtures at temperatures up to 618 K and at pressures up to 40 MPa
Source: Fluid Phase Equilib., 2017, 10.1016/j.fluid.2017.09.005
Compound 1: water, H2O, InChI=1S/H2O/h1H2, purity 99.8%
Compound 2: methanol, CH4O, InChI=1S/CH4O/c1-2/h2H,1H3, purity 99.95%
Compound 3: ethanol, C2H6O, InChI=1S/C2H6O/c1-2-3/h3H,2H2,1H3, purity 99.95%
Compound 4: propan-1-ol, C3H8O, InChI=1S/C3H8O/c1-2-3-4/h4H,2-3H2,1H3, purity 99.95%

System: methanol + water; phases: Liquid
Property: Mass density, kg/m3 (Liquid); method: Vibrating tube method
Temperature, K	Pressure, kPa	Mole fraction of methanol	Mass density, kg/m3	uncertainty
523.2	20000	0	816.1	2.8
523.2	20000	0.1	767.8	3
523.2	20000	0.2	724.7	3.2
523.2	20000	0.3	686.4	3.4
523.2	20000	0.4	652.8	3.6
523.2	20000	0.6	597.1	4
523.2	20000	0.8	552.1	4.2
523.2	20000	1	517.5	4.2
523.2	30000	0	825.5	2.8
523.2	30000	0.1	781.4	2.9
523.2	30000	0.2	740.7	3
523.2	30000	0.3	705.9	3.1
523.2	30000	0.4	677	3.1
523.2	30000	0.6	628.4	3.2
523.2	30000	0.8	591.4	3.2
523.2	30000	1	563.57	3.13
523.2	40000	0	834.3	2.7
523.2	40000	0.1	791.9	2.9
523.2	40000	0.2	754.4	2.9
523.2	40000	0.3	722.3	2.9
523.2	40000	0.4	694.7	3
523.2	40000	0.6	650.9	3
523.2	40000	0.8	618.2	3
523.2	40000	1	593.3	2.9
573.2	20000	0	734.8	3.7
573.2	20000	0.1	674.5	4.2
573.2	20000	0.2	619.8	5.4
573.2	20000	0.3	569.3	5.8
573.2	20000	0.4	522.3	5.6
573.2	20000	0.6	439.6	5.2
573.2	20000	0.8	380.5	4.8
573.2	20000	1	345.3	4.5
573.2	30000	0	750.7	3.5
573.2	30000	0.1	696.2	3.7
573.2	30000	0.2	650.4	3.8
573.2	30000	0.3	610.2	3.9
573.2	30000	0.4	575.5	4
573.2	30000	0.6	520.4	4.1
573.2	30000	0.8	482.3	4
573.2	30000	1	457.63	3.84
573.2	40000	0	764.4	3.4
573.2	40000	0.1	714.3	3.6
573.2	40000	0.2	673.1	3.6
573.2	40000	0.3	638	3.6
573.2	40000	0.4	608	3.7
573.2	40000	0.6	562.4	3.7
573.2	40000	0.8	530.6	3.6
573.2	40000	1	511	3.6
618.2	20000	0	619.7	4.4
618.2	20000	0.1	497.6	6
618.2	20000	0.2	299.3	7.4
618.2	20000	0.3	208.9	8.3
618.2	20000	0.4	198.2	8
618.2	20000	0.6	198.4	6.4
618.2	20000	0.8	203.9	5.3
618.2	20000	1	210.5	4.6
618.2	30000	0	656.9	4.2
618.2	30000	0.1	586	4.5
618.2	30000	0.2	524.1	5.1
618.2	30000	0.3	473.1	5.3
618.2	30000	0.4	430.4	5.3
618.2	30000	0.6	381.7	4.9
618.2	30000	0.8	360.2	4.7
618.2	30000	1	350.4	4.6
618.2	40000	0	682.3	4
618.2	40000	0.1	624.9	4.1
618.2	40000	0.2	578.5	4.2
618.2	40000	0.3	544.1	4.2
618.2	40000	0.4	512	4.2
618.2	40000	0.6	470.3	4.1
618.2	40000	0.8	446.2	4.1
618.2	40000	1	427.7	4.1

System: methanol + water; phases: Liquid
Property: Viscosity, Pa*s (Liquid); method: Pressure drop in straight capillary
Temperature, K	Pressure, kPa	Mole fraction of methanol	Viscosity, Pa*s	uncertainty
523.2	20000	0	0.00011	9e-06
523.2	20000	0.1	0.000116	9e-06
523.2	20000	0.2	0.000112	9e-06
523.2	20000	0.3	0.000108	9e-06
523.2	20000	0.4	0.000102	9e-06
523.2	20000	0.6	9e-05	8e-06
523.2	20000	0.8	7.9e-05	8e-06
523.2	20000	1	7e-05	8e-06
523.2	30000	0	0.000113	9e-06
523.2	30000	0.1	0.000118	9e-06
523.2	30000	0.2	0.000117	9e-06
523.2	30000	0.3	0.000114	9e-06
523.2	30000	0.4	0.00011	9e-06
523.2	30000	0.6	0.0001	9e-06
523.2	30000	0.8	9e-05	8e-06
523.2	30000	1	8e-05	8e-06
523.2	40000	0	0.000115	9e-06
523.2	40000	0.1	0.000121	9e-06
523.2	40000	0.2	0.000121	9e-06
523.2	40000	0.3	0.000119	9e-06
523.2	40000	0.4	0.000115	9e-06
523.2	40000	0.6	0.000107	9e-06
523.2	40000	0.8	9.8e-05	9e-06
523.2	40000	1	8.9e-05	8e-06
573.2	20000	0	9e-05	8e-06
573.2	20000	0.1	8.4e-05	8e-06
573.2	20000	0.2	8e-05	8e-06
573.2	20000	0.3	7.4e-05	8e-06
573.2	20000	0.4	6.7e-05	8e-06
573.2	20000	0.6	5.4e-05	8e-06
573.2	20000	0.8	4.5e-05	8e-06
573.2	20000	1	4.2e-05	8e-06
573.2	30000	0	9.3e-05	8e-06
573.2	30000	0.1	8.9e-05	8e-06
573.2	30000	0.2	8.5e-05	8e-06
573.2	30000	0.3	7.8e-05	8e-06
573.2	30000	0.4	7.8e-05	8e-06
573.2	30000	0.6	7.2e-05	8e-06
573.2	30000	0.8	6.5e-05	8e-06
573.2	30000	1	6.3e-05	8e-06
573.2	40000	0	9.6e-05	9e-06
573.2	40000	0.1	9.4e-05	9e-06
573.2	40000	0.2	9.1e-05	8e-06
573.2	40000	0.3	8.7e-05	8e-06
573.2	40000	0.4	8.4e-05	8e-06
573.2	40000	0.6	7.5e-05	8e-06
573.2	40000	0.8	6.9e-05	8e-06
573.2	40000	1	6.5e-05	8e-06
618.2	20000	0	7.2e-05	8e-06
618.2	20000	0.1	6e-05	8e-06
618.2	20000	0.2	3.5e-05	8e-06
618.2	20000	0.3	2.6e-05	8e-06
618.2	20000	0.4	2.5e-05	8e-06
618.2	20000	0.6	2.7e-05	8e-06
618.2	20000	0.8	2.7e-05	8e-06
618.2	20000	1	2.9e-05	8e-06
618.2	30000	0	7.7e-05	8e-06
618.2	30000	0.1	7.1e-05	8e-06
618.2	30000	0.2	6.5e-05	8e-06
618.2	30000	0.3	5.8e-05	8e-06
618.2	30000	0.4	5.2e-05	8e-06
618.2	30000	0.6	4.7e-05	8e-06
618.2	30000	0.8	4.4e-05	8e-06
618.2	30000	1	4.3e-05	8e-06
618.2	40000	0	8.1e-05	8e-06
618.2	40000	0.1	7.8e-05	8e-06
618.2	40000	0.2	7.3e-05	8e-06
618.2	40000	0.3	6.9e-05	8e-06
618.2	40000	0.4	6.5e-05	8e-06
618.2	40000	0.6	5.9e-05	8e-06
618.2	40000	0.8	5.5e-05	8e-06
618.2	40000	1	5.3e-05	8e-06

System: ethanol + water; phases: Liquid
Property: Mass density, kg/m3 (Liquid); method: Vibrating tube method
Temperature, K	Pressure, kPa	Mole fraction of ethanol	Mass density, kg/m3	uncertainty
523.2	20000	0	816.1	2.8
523.2	20000	0.1	745.9	3.2
523.2	20000	0.2	694.1	2.8
523.2	20000	0.3	653.2	3.6
523.2	20000	0.4	622.3	3.5
523.2	20000	0.6	578.5	3.6
523.2	20000	0.8	550.5	3.5
523.2	20000	1	533.1	3.3
523.2	30000	0	825.5	2.8
523.2	30000	0.1	761.6	3
523.2	30000	0.2	713.6	3
523.2	30000	0.3	676.9	3.1
523.2	30000	0.4	650.7	3.1
523.2	30000	0.6	612.4	3.1
523.2	30000	0.8	588.9	3
523.2	30000	1	573.6	2.9
523.2	40000	0	834.3	2.7
523.2	40000	0.1	773.2	2.9
523.2	40000	0.2	728.3	2.9
523.2	40000	0.3	694.7	3
523.2	40000	0.4	671.6	3
523.2	40000	0.6	636.3	3.1
523.2	40000	0.8	615.2	2.8
523.2	40000	1	601.3	2.8
573.2	20000	0	734.8	3.7
573.2	20000	0.1	649.3	4.4
573.2	20000	0.2	585.4	5.3
573.2	20000	0.3	534.9	5.2
573.2	20000	0.4	494.9	4.9
573.2	20000	0.6	446.2	4.4
573.2	20000	0.8	426.2	4.1
573.2	20000	1	421.1	3.8
573.2	30000	0	750.7	3.5
573.2	30000	0.1	674.8	3.7
573.2	30000	0.2	621.4	3.8
573.2	30000	0.3	582.5	3.8
573.2	30000	0.4	553.5	3.8
573.2	30000	0.6	517.6	3.7
573.2	30000	0.8	499	3.6
573.2	30000	1	491.5	3.5
573.2	40000	0	764.3	3.4
573.2	40000	0.1	694.9	3.6
573.2	40000	0.2	647.6	3.6
573.2	40000	0.3	614	3.6
573.2	40000	0.4	587.9	3.6
573.2	40000	0.6	557.4	3.5
573.2	40000	0.8	540.4	3.4
573.2	40000	1	531	3.4
618.2	20000	0	619.7	4.4
618.2	20000	0.1	445.3	6
618.2	20000	0.2	281.3	6.6
618.2	20000	0.3	250.4	6.9
618.2	20000	0.4	253.1	6.4
618.2	20000	0.6	270.6	5.3
618.2	20000	0.8	295	4.7
618.2	20000	1	314.6	4.3
618.2	30000	0	656.9	4.2
618.2	30000	0.1	566.3	4.5
618.2	30000	0.2	501.5	4.9
618.2	30000	0.3	460.9	4.9
618.2	30000	0.4	437.4	4.7
618.2	30000	0.6	420.1	4.4
618.2	30000	0.8	418.9	4.1
618.2	30000	1	423.8	4.1
618.2	40000	0	682.3	4
618.2	40000	0.1	610.3	4
618.2	40000	0.2	561	4.3
618.2	40000	0.3	529.3	4.1
618.2	40000	0.4	509.1	4
618.2	40000	0.6	488.2	3.9
618.2	40000	0.8	481.7	3.9
618.2	40000	1	481.2	3.8

System: ethanol + water; phases: Liquid
Property: Viscosity, Pa*s (Liquid); method: Capillary tube (Ostwald; Ubbelohde) method
Temperature, K	Pressure, kPa	Mole fraction of ethanol	Viscosity, Pa*s	uncertainty
523.2	20000	0	0.00011	3e-06
523.2	20000	0.1	0.00012	3e-06
523.2	20000	0.2	0.000119	3e-06
523.2	20000	0.3	0.000114	4e-06
523.2	20000	0.4	0.000109	3e-06
523.2	20000	0.6	9.9e-05	3e-06
523.2	20000	0.8	9.2e-05	3e-06
523.2	20000	1	8.7e-05	3e-06
523.2	30000	0	0.000113	3e-06
523.2	30000	0.1	0.000126	3e-06
523.2	30000	0.2	0.000127	4e-06
523.2	30000	0.3	0.000125	4e-06
523.2	30000	0.4	0.000119	4e-06
523.2	30000	0.6	0.000113	4e-06
523.2	30000	0.8	0.000107	3e-06
523.2	30000	1	0.000103	3e-06
523.2	40000	0	0.000115	3e-06
523.2	40000	0.1	0.000132	3e-06
523.2	40000	0.2	0.000132	4e-06
523.2	40000	0.3	0.000134	4e-06
523.2	40000	0.4	0.000128	4e-06
523.2	40000	0.6	0.000124	4e-06
523.2	40000	0.8	0.000119	3e-06
523.2	40000	1	0.000115	3e-06
573.2	20000	0	9e-05	2e-06
573.2	20000	0.1	8.5e-05	3e-06
573.2	20000	0.2	7.8e-05	3e-06
573.2	20000	0.3	7e-05	3e-06
573.2	20000	0.4	6.5e-05	3e-06
573.2	20000	0.6	5.7e-05	2e-06
573.2	20000	0.8	5.4e-05	2e-06
573.2	20000	1	5.3e-05	2e-06
573.2	30000	0	9.3e-05	2e-06
573.2	30000	0.1	8.8e-05	3e-06
573.2	30000	0.2	8.4e-05	3e-06
573.2	30000	0.3	7.9e-05	3e-06
573.2	30000	0.4	7.5e-05	3e-06
573.2	30000	0.6	6.9e-05	2e-06
573.2	30000	0.8	6.7e-05	2e-06
573.2	30000	1	6.6e-05	2e-06
573.2	40000	0	9.6e-05	2e-06
573.2	40000	0.1	9.3e-05	3e-06
573.2	40000	0.2	9.1e-05	3e-06
573.2	40000	0.3	8.9e-05	3e-06
573.2	40000	0.4	8.5e-05	3e-06
573.2	40000	0.6	8e-05	3e-06
573.2	40000	0.8	7.8e-05	2e-06
573.2	40000	1	7.7e-05	2e-06
618.2	20000	0	7.2e-05	2e-06
618.2	20000	0.1	5.4e-05	2e-06
618.2	20000	0.2	3.5e-05	2e-06
618.2	20000	0.3	3.1e-05	2e-06
618.2	20000	0.4	3.2e-05	2e-06
618.2	20000	0.6	3.5e-05	2e-06
618.2	20000	0.8	3.8e-05	2e-06
618.2	20000	1	3.9e-05	2e-06
618.2	30000	0	7.7e-05	2e-06
618.2	30000	0.1	7.2e-05	2e-06
618.2	30000	0.2	6.5e-05	2e-06
618.2	30000	0.3	5.9e-05	2e-06
618.2	30000	0.4	5.7e-05	2e-06
618.2	30000	0.6	5.5e-05	2e-06
618.2	30000	0.8	5.5e-05	2e-06
618.2	30000	1	5.5e-05	2e-06
618.2	40000	0	8.1e-05	2e-06
618.2	40000	0.1	8.1e-05	2e-06
618.2	40000	0.2	7.6e-05	2e-06
618.2	40000	0.3	7.3e-05	2e-06
618.2	40000	0.4	7e-05	2e-06
618.2	40000	0.6	6.7e-05	2e-06
618.2	40000	0.8	6.7e-05	2e-06
618.2	40000	1	6.7e-05	2e-06

System: propan-1-ol + water; phases: Liquid
Property: Mass density, kg/m3 (Liquid); method: Vibrating tube method
Temperature, K	Pressure, kPa	Mole fraction of propan-1-ol	Mass density, kg/m3	uncertainty
523.2	20000	0	816.1	2.8
523.2	20000	0.1	733.5	3.2
523.2	20000	0.2	682.3	3.4
523.2	20000	0.3	648	3.5
523.2	20000	0.4	624.3	3.3
523.2	20000	0.6	596	3.2
523.2	20000	0.8	582.1	3
523.2	20000	1	575.3	2.9
523.2	30000	0	825.5	2.8
523.2	30000	0.1	749.8	3
523.2	30000	0.2	702.6	3
523.2	30000	0.3	672.3	3
523.2	30000	0.4	651	2.9
523.2	30000	0.6	626.2	2.9
523.2	30000	0.8	613.3	2.8
523.2	30000	1	606.8	2.7
523.2	40000	0	834.3	2.7
523.2	40000	0.1	761.7	3
523.2	40000	0.2	718.6	2.8
523.2	40000	0.3	689.7	3
523.2	40000	0.4	670.3	2.9
523.2	40000	0.6	647.5	2.9
523.2	40000	0.8	635.6	2.7
523.2	40000	1	629.3	2.7
573.2	20000	0	734.8	3.7
573.2	20000	0.1	637.8	4.4
573.2	20000	0.2	576.7	4.8
573.2	20000	0.3	538	4.7
573.2	20000	0.4	513.7	4.4
573.2	20000	0.6	492.5	3.9
573.2	20000	0.8	489.6	3.7
573.2	20000	1	494.3	3.5
573.2	30000	0	750.7	3.5
573.2	30000	0.1	664.2	3.7
573.2	30000	0.2	614.7	3.7
573.2	30000	0.3	583	3.7
573.2	30000	0.4	564.2	3.6
573.2	30000	0.6	545.3	3.5
573.2	30000	0.8	540.2	3.4
573.2	30000	1	540.6	3.3
573.2	40000	0	764.4	3.4
573.2	40000	0.1	685.8	3.5
573.2	40000	0.2	640.9	3.5
573.2	40000	0.3	613.2	3.5
573.2	40000	0.4	596.3	3.5
573.2	40000	0.6	578.8	3.4
573.2	40000	0.8	572.6	3.3
573.2	40000	1	572.1	3.3
618.2	20000	0	619.7	4.4
618.2	20000	0.1	430.7	5.6
618.2	20000	0.2	324.4	6.4
618.2	20000	0.3	311.8	6
618.2	20000	0.4	325.6	5.5
618.2	20000	0.6	360.4	4.7
618.2	20000	0.8	393.7	4.1
618.2	20000	1	419.4	3.9
618.2	30000	0	656.9	4.2
618.2	30000	0.1	557.7	4.5
618.2	30000	0.2	504.6	4.6
618.2	30000	0.3	479.5	4.5
618.2	30000	0.4	469.8	4.4
618.2	30000	0.6	469.3	4.1
618.2	30000	0.8	480.8	3.9
618.2	30000	1	491.7	3.8
618.2	40000	0	682.3	4
618.2	40000	0.1	603.6	4
618.2	40000	0.2	561.4	4.2
618.2	40000	0.3	539.6	3.9
618.2	40000	0.4	529	3.9
618.2	40000	0.6	523.2	3.8
618.2	40000	0.8	528	3.8
618.2	40000	1	534.1	3.7

System: propan-1-ol + water; phases: Liquid
Property: Viscosity, Pa*s (Liquid); method: Capillary tube (Ostwald; Ubbelohde) method
Temperature, K	Pressure, kPa	Mole fraction of propan-1-ol	Viscosity, Pa*s	uncertainty
523.2	20000	0	0.00011	3e-06
523.2	20000	0.1	0.000131	4e-06
523.2	20000	0.2	0.000129	4e-06
523.2	20000	0.3	0.000122	4e-06
523.2	20000	0.4	0.000121	4e-06
523.2	20000	0.6	0.000117	4e-06
523.2	20000	0.8	0.000114	4e-06
523.2	20000	1	0.000115	3e-06
523.2	30000	0	0.000113	3e-06
523.2	30000	0.1	0.000138	4e-06
523.2	30000	0.2	0.000139	4e-06
523.2	30000	0.3	0.000134	4e-06
523.2	30000	0.4	0.000134	4e-06
523.2	30000	0.6	0.000132	4e-06
523.2	30000	0.8	0.00013	4e-06
523.2	30000	1	0.000134	4e-06
523.2	40000	0	0.000115	3e-06
523.2	40000	0.1	0.000138	4e-06
523.2	40000	0.2	0.000146	4e-06
523.2	40000	0.3	0.000145	4e-06
523.2	40000	0.4	0.000146	4e-06
523.2	40000	0.6	0.000146	4e-06
523.2	40000	0.8	0.000146	4e-06
523.2	40000	1	0.00015	4e-06
573.2	20000	0	9e-05	2e-06
573.2	20000	0.1	8.8e-05	3e-06
573.2	20000	0.2	8.2e-05	3e-06
573.2	20000	0.3	7.6e-05	3e-06
573.2	20000	0.4	7.3e-05	3e-06
573.2	20000	0.6	7e-05	3e-06
573.2	20000	0.8	7.1e-05	3e-06
573.2	20000	1	7.3e-05	2e-06
573.2	30000	0	9.3e-05	2e-06
573.2	30000	0.1	9.2e-05	3e-06
573.2	30000	0.2	9e-05	3e-06
573.2	30000	0.3	8.5e-05	3e-06
573.2	30000	0.4	8.4e-05	3e-06
573.2	30000	0.6	8.2e-05	3e-06
573.2	30000	0.8	8.3e-05	3e-06
573.2	30000	1	8.5e-05	3e-06
573.2	40000	0	9.6e-05	2e-06
573.2	40000	0.1	9.8e-05	3e-06
573.2	40000	0.2	9.8e-05	3e-06
573.2	40000	0.3	9.6e-05	3e-06
573.2	40000	0.4	9.4e-05	3e-06
573.2	40000	0.6	9.5e-05	3e-06
573.2	40000	0.8	9.7e-05	3e-06
573.2	40000	1	9.8e-05	3e-06
618.2	20000	0	7.2e-05	2e-06
618.2	20000	0.1	5.6e-05	2e-06
618.2	20000	0.2	4.2e-05	2e-06
618.2	20000	0.3	4e-05	2e-06
618.2	20000	0.4	4.2e-05	2e-06
618.2	20000	0.6	4.7e-05	2e-06
618.2	20000	0.8	5.2e-05	2e-06
618.2	20000	1	5.7e-05	2e-06
618.2	30000	0	7.7e-05	2e-06
618.2	30000	0.1	7.7e-05	2e-06
618.2	30000	0.2	7e-05	2e-06
618.2	30000	0.3	6.6e-05	2e-06
618.2	30000	0.4	6.5e-05	2e-06
618.2	30000	0.6	6.6e-05	2e-06
618.2	30000	0.8	7e-05	2e-06
618.2	30000	1	7.3e-05	2e-06
618.2	40000	0	8.1e-05	2e-06
618.2	40000	0.1	8.6e-05	2e-06
618.2	40000	0.2	8.2e-05	2e-06
618.2	40000	0.3	7.9e-05	2e-06
618.2	40000	0.4	7.9e-05	2e-06
618.2	40000	0.6	8e-05	2e-06
618.2	40000	0.8	8.4e-05	2e-06
618.2	40000	1	8.7e-05	2e-06
