Measured thermophysical data. Vapor liquid equilibrium, densities and viscosities for the binary system exo- and endo-tetrahydrodicyclopentadiene and pure component vapor pressures
Source: Fluid Phase Equilib., 2006, 10.1016/j.fluid.2006.09.024
Compound 1: endo-tetrahydrodicyclopentadiene, C10H16, InChI=1S/C10H16/c1-2-9-7-4-5-8(6-7)10(9)3-1/h7-10H,1-6H2/t7-,8+,9-,10+
Compound 2: exo-tetrahydrodicyclopentadiene, C10H16, InChI=1S/C10H16/c1-2-9-7-4-5-8(6-7)10(9)3-1/h7-10H,1-6H2/t7-,8+,9+,10-

System: endo-tetrahydrodicyclopentadiene; phases: Liquid, Gas
Property: Vapor or sublimation pressure, kPa (Liquid); method: Ebulliometric method (Recirculating still)
Temperature, K	Vapor or sublimation pressure, kPa	uncertainty
344.02	2	0.2
358.17	3.5	0.2
367.23	5	0.2
384.68	10	0.2
396.77	15	0.2
405.51	20	0.2
412.5	25	0.2
418.51	30	0.2
423.84	35	0.2
428.42	40	0.2
432.64	45	0.2
436.48	50	0.2
440.06	55	0.2
443.43	60	0.2
446.4	65	0.2
451.93	75	0.2
454.45	80	0.2
456.82	85	0.2
458.86	90	0.2
460.9	95	0.2
462.76	100	0.2
463.6	101.6	0.2

System: exo-tetrahydrodicyclopentadiene; phases: Liquid, Gas
Property: Vapor or sublimation pressure, kPa (Liquid); method: Ebulliometric method (Recirculating still)
Temperature, K	Vapor or sublimation pressure, kPa	uncertainty
335.45	2	0.2
349.97	3.5	0.2
360.37	5	0.2
379.33	10	0.2
391.56	15	0.2
400.07	20	0.2
407.31	25	0.2
413.28	30	0.2
418.87	35	0.2
423.1	40	0.2
427.5	45	0.2
431.46	50	0.2
434.98	55	0.2
438.26	60	0.2
441.37	65	0.2
444.02	70	0.2
447.09	75	0.2
449.62	80	0.2
452.19	85	0.2
454.39	90	0.2
456.75	95	0.2
458.83	100	0.2
459.38	101.4	0.2

System: exo-tetrahydrodicyclopentadiene + endo-tetrahydrodicyclopentadiene; phases: Liquid
Fixed: Pressure, kPa = 101
Property: Kinematic viscosity, m2/s (Liquid); method: CAPTUB:UFactor:4
Temperature, K	Mole fraction of exo-tetrahydrodicyclopentadiene	Kinematic viscosity, m2/s	uncertainty
288.15	0.4028	6.058e-06	1.64e-07
288.15	0.5145	5.23e-06	1.47e-07
288.15	0.6017	4.622e-06	1.32e-07
288.15	0.6956	4.182e-06	1.2e-07
288.15	0.7966	3.861e-06	1.11e-07
288.15	0.9069	3.469e-06	1e-07
288.15	0.9933	3.175e-06	9.2e-08
298.15	0.4028	4.704e-06	1.34e-07
298.15	0.5145	4.096e-06	1.18e-07
298.15	0.6017	3.681e-06	1.06e-07
298.15	0.6956	3.354e-06	9.7e-08
298.15	0.7966	3.062e-06	8.9e-08
298.15	0.9069	2.817e-06	8.2e-08
298.15	0.9933	2.653e-06	7.8e-08
308.15	0.4028	3.669e-06	1.06e-07
308.15	0.5145	3.227e-06	9.4e-08
308.15	0.6017	2.961e-06	8.6e-08
308.15	0.6956	2.719e-06	8e-08
308.15	0.7966	2.487e-06	7.3e-08
308.15	0.9069	2.31e-06	6.8e-08
308.15	0.9933	2.221e-06	6.6e-08
318.15	0.4028	2.986e-06	8.7e-08
318.15	0.5145	2.666e-06	7.8e-08
318.15	0.6017	2.464e-06	7.3e-08
318.15	0.6956	2.286e-06	6.8e-08
318.15	0.7966	2.116e-06	6.3e-08
318.15	0.9069	1.97e-06	5.9e-08
318.15	0.9933	1.867e-06	5.6e-08

System: exo-tetrahydrodicyclopentadiene + endo-tetrahydrodicyclopentadiene; phases: Liquid, Gas
Property: Boiling temperature at pressure P, K (Liquid); method: Ebulliometric method (Recirculating still)
Mole fraction of exo-tetrahydrodicyclopentadiene	Pressure, kPa	Boiling temperature at pressure P, K	uncertainty
0.2549	10	383.49	0.5
0.2555	30	417.63	0.41
0.256	50	435.56	0.27
0.2572	70	448.2	0.23
0.2575	90	458.09	0.22
0.2576	101.3	463.27	0.22
0.2815	70	448.15	0.23
0.2816	10	383.21	0.5
0.2818	30	417.49	0.41
0.2823	50	435.49	0.27
0.2833	90	458.03	0.22
0.2858	101.3	463.17	0.22
0.3258	30	417.27	0.41
0.3264	10	383.02	0.5
0.3267	50	435.2	0.27
0.3273	70	447.96	0.23
0.328	90	457.73	0.22
0.3284	101.3	463.04	0.23
0.3543	30	417.11	0.41
0.3547	10	382.83	0.5
0.3548	50	435.01	0.27
0.3556	70	447.8	0.23
0.3558	90	457.56	0.22
0.3583	101.3	462.87	0.23
0.3975	70	447.54	0.23
0.3978	101.3	462.64	0.23
0.4013	50	434.76	0.27
0.4024	90	457.31	0.22
0.403	30	416.99	0.41
0.4032	10	382.59	0.5
0.4461	10	382.41	0.5
0.4464	30	416.66	0.41
0.4468	50	434.59	0.27
0.4481	90	457.05	0.22
0.4483	70	447.26	0.23
0.4484	101.3	462.3	0.23
0.4897	30	416.41	0.41
0.4898	10	382.1	0.5
0.4899	101.3	462.07	0.23
0.49	50	434.41	0.27
0.4924	70	447.03	0.23
0.4924	90	456.77	0.22
0.5288	10	381.83	0.5
0.5297	30	416.13	0.42
0.5306	101.3	461.86	0.23
0.5308	50	434.25	0.27
0.5314	90	456.64	0.22
0.5318	70	446.78	0.23
0.5598	10	381.72	0.5
0.56	30	415.93	0.41
0.5602	50	434.07	0.27
0.5604	70	446.68	0.23
0.5606	101.3	461.74	0.23
0.5607	90	456.51	0.22
0.6027	10	381.53	0.5
0.6043	30	415.8	0.41
0.6049	50	433.86	0.27
0.6061	101.3	461.49	0.22
0.6063	90	456.3	0.22
0.6072	70	446.47	0.23
0.6456	30	415.63	0.42
0.6459	10	381.22	0.5
0.6465	50	433.63	0.27
0.6467	70	446.26	0.23
0.6472	90	456.01	0.22
0.6474	101.3	461.17	0.22
0.6745	10	380.93	0.5
0.6747	30	415.42	0.42
0.6756	70	446.14	0.23
0.6756	101.3	461.04	0.22
0.6762	50	433.43	0.27
0.6762	90	455.87	0.22
0.7052	10	380.8	0.5
0.7055	30	415.29	0.42
0.7062	50	433.34	0.27
0.7066	70	445.97	0.23
0.7069	90	455.66	0.22
0.707	101.3	460.89	0.23

System: exo-tetrahydrodicyclopentadiene + endo-tetrahydrodicyclopentadiene; phases: Liquid
Fixed: Pressure, kPa = 101
Property: Mass density, kg/m3 (Liquid); method: VIBTUB:UFactor:4
Temperature, K	Mole fraction of exo-tetrahydrodicyclopentadiene	Mass density, kg/m3	uncertainty
288.15	0.4028	954.39	0.27
288.15	0.5145	951.54	0.27
288.15	0.6017	949.22	0.28
288.15	0.6956	946.72	0.28
288.15	0.7966	944.23	0.29
288.15	0.9069	941.57	0.29
288.15	0.9933	939.58	0.29
298.15	0.4028	946.44	0.29
298.15	0.5145	943.63	0.29
298.15	0.6017	941.29	0.29
298.15	0.6956	938.85	0.3
298.15	0.7966	936.36	0.3
298.15	0.9069	933.78	0.31
298.15	0.9933	931.79	0.31
308.15	0.4028	938.48	0.3
308.15	0.5145	935.68	0.31
308.15	0.6017	933.37	0.31
308.15	0.6956	930.9	0.31
308.15	0.7966	928.49	0.32
308.15	0.9069	925.9	0.32
308.15	0.9933	923.99	0.32
318.15	0.4028	930.47	0.32
318.15	0.5145	927.69	0.32
318.15	0.6017	925.41	0.33
318.15	0.6956	923	0.33
318.15	0.7966	920.59	0.33
318.15	0.9069	918.06	0.34
318.15	0.9933	916.14	0.34

System: exo-tetrahydrodicyclopentadiene + endo-tetrahydrodicyclopentadiene; phases: Gas, Liquid
Property: Mole fraction of exo-tetrahydrodicyclopentadiene (Gas); method: Chromatography
Mole fraction of exo-tetrahydrodicyclopentadiene	Pressure, kPa	Mole fraction of exo-tetrahydrodicyclopentadiene	uncertainty
0.2549	10	0.2896	0.0035
0.2555	30	0.2886	0.0035
0.256	50	0.2852	0.0035
0.2572	70	0.2852	0.0035
0.2575	90	0.2837	0.0034
0.2576	101.3	0.2824	0.0034
0.2815	70	0.3124	0.0038
0.2816	10	0.3221	0.0039
0.2818	30	0.3184	0.0039
0.2823	50	0.3146	0.0038
0.2833	90	0.3124	0.0038
0.2858	101.3	0.3163	0.0038
0.3258	30	0.3632	0.0044
0.3264	10	0.3675	0.0045
0.3267	50	0.3603	0.0044
0.3273	70	0.3586	0.0044
0.328	90	0.3584	0.0044
0.3284	101.3	0.3575	0.0043
0.3543	30	0.393	0.005
0.3547	10	0.3933	0.0048
0.3548	50	0.3898	0.0047
0.3556	70	0.3903	0.0048
0.3558	90	0.3874	0.0047
0.3583	101.3	0.3864	0.0047
0.3975	70	0.4314	0.0053
0.3978	101.3	0.4298	0.0052
0.4013	50	0.4313	0.0053
0.4024	90	0.4299	0.0052
0.403	30	0.4386	0.0054
0.4032	10	0.4431	0.0054
0.4461	10	0.4909	0.006
0.4464	30	0.4857	0.0059
0.4468	50	0.4824	0.0059
0.4481	90	0.4812	0.0059
0.4483	70	0.4821	0.0059
0.4484	101.3	0.48	0.01
0.4897	30	0.5293	0.0058
0.4898	10	0.5365	0.0057
0.4899	101.3	0.5236	0.0058
0.49	50	0.5269	0.0058
0.4924	70	0.5276	0.0058
0.4924	90	0.5255	0.0058
0.5288	10	0.5735	0.0053
0.5297	30	0.5685	0.0053
0.5306	101.3	0.5628	0.0054
0.5308	50	0.5656	0.0053
0.5314	90	0.5636	0.0054
0.5318	70	0.5668	0.0053
0.5598	10	0.6037	0.0049
0.56	30	0.5948	0.005
0.5602	50	0.5925	0.005
0.5604	70	0.5947	0.005
0.5606	101.3	0.5924	0.005
0.5607	90	0.5939	0.005
0.6027	10	0.6435	0.0044
0.6043	30	0.6412	0.0044
0.6049	50	0.6391	0.0045
0.6061	101.3	0.6374	0.0045
0.6063	90	0.6388	0.0045
0.6072	70	0.6407	0.0044
0.6456	30	0.6828	0.0039
0.6459	10	0.6853	0.0039
0.6465	50	0.6783	0.004
0.6467	70	0.6782	0.004
0.6472	90	0.6782	0.004
0.6474	101.3	0.6788	0.004
0.6745	10	0.7079	0.0036
0.6747	30	0.7037	0.0037
0.6756	70	0.704	0.004
0.6756	101.3	0.7036	0.0037
0.6762	50	0.7035	0.0037
0.6762	90	0.7037	0.0037
0.7052	10	0.7424	0.0032
0.7055	30	0.7339	0.0033
0.7062	50	0.7347	0.0033
0.7066	70	0.7338	0.0033
0.7069	90	0.7332	0.0033
0.707	101.3	0.7316	0.0033
