Measured thermophysical data. Carbon dioxide solubilities in tricyanomethanide-based ionic liquids: measurements and PC-SAFT modeling
Source: Fluid Phase Equilib., 2018, 10.1016/j.fluid.2018.04.020
Compound 1: 1-butyl-3-methylimidazolium tricyanomethane, C12H15N5, InChI=1S/C8H15N2.C4N3/c1-3-4-5-10-7-6-9(2)8-10;5-1-4(2-6)3-7/h6-8H,3-5H2,1-2H3;/q+1;-1, purity 98%
Compound 2: 1-butyl-4-methylpyridinium tricyanomethanide, C14H16N4, InChI=1S/C10H16N.C4N3/c1-3-4-7-11-8-5-10(2)6-9-11;5-1-4(2-6)3-7/h5-6,8-9H,3-4,7H2,1-2H3;/q+1;-1, purity 98%
Compound 3: 1-butyl-1-methylpyrrolidinium tricyanomethanide, C13H20N4, InChI=1S/C9H20N.C4N3/c1-3-4-7-10(2)8-5-6-9-10;5-1-4(2-6)3-7/h3-9H2,1-2H3;/q+1;-1, purity 98%
Compound 4: carbon dioxide, CO2, InChI=1S/CO2/c2-1-3, purity 99.999%

System: 1-butyl-3-methylimidazolium tricyanomethane; phases: Liquid
Fixed: Pressure, kPa = 101.325
Property: Mass density, kg/m3 (Liquid); method: Vibrating tube method
Temperature, K	Mass density, kg/m3	uncertainty
293.15	1050.4	2.2
303.15	1043.7	2.2
313.15	1037	2.2
323.15	1030.1	2.2

System: 1-butyl-4-methylpyridinium tricyanomethanide; phases: Liquid
Fixed: Pressure, kPa = 101.325
Property: Mass density, kg/m3 (Liquid); method: Vibrating tube method
Temperature, K	Mass density, kg/m3	uncertainty
293.15	1038.3	2.2
303.15	1032.1	2.2
313.15	1025.7	2.2
323.15	1019.7	2.2

System: 1-butyl-1-methylpyrrolidinium tricyanomethanide; phases: Liquid
Fixed: Pressure, kPa = 101.325
Property: Mass density, kg/m3 (Liquid); method: Vibrating tube method
Temperature, K	Mass density, kg/m3	uncertainty
293.15	1008.9	2.2
303.15	1003	2.1
313.15	997.3	2.1
323.15	991.4	2.1

System: carbon dioxide + 1-butyl-3-methylimidazolium tricyanomethane; phases: Gas, Liquid
Property: Vapor or sublimation pressure, kPa (Gas); method: Closed cell (Static) method
Mole fraction of carbon dioxide	Temperature, K	Vapor or sublimation pressure, kPa	uncertainty
0.108	297.11	490	60
0.108	302.19	520	60
0.108	307.17	570	60
0.108	312.25	620	60
0.108	317.24	670	60
0.108	322.32	720	60
0.108	327.4	760	70
0.108	332.38	790	60
0.108	337.36	830	70
0.149	292.13	630	70
0.149	297.11	680	70
0.149	302.19	690	70
0.149	307.17	750	80
0.149	312.25	810	80
0.149	317.24	870	90
0.149	322.32	920	90
0.149	327.4	970	100
0.149	332.38	1000	100
0.149	337.46	1040	140
0.149	342.44	1090	160
0.149	347.52	1140	170
0.149	352.5	1180	170
0.149	357.59	1220	170
0.243	297.11	1210	70
0.243	302.19	1320	80
0.243	307.17	1440	90
0.243	312.25	1570	100
0.243	317.24	1690	100
0.243	322.32	1820	110
0.243	327.4	1950	130
0.243	332.38	2090	130
0.286	298.21	1400	100
0.286	303.09	1570	130
0.286	308.07	1850	140
0.286	312.95	2070	140
0.286	317.93	2260	150
0.286	323.01	2440	170
0.286	327.9	2680	180
0.286	333.08	2790	190
0.286	337.96	2980	170
0.286	342.94	3230	180
0.286	347.92	3450	200
0.36	297.11	2430	150
0.36	302.19	2640	160
0.36	307.17	2890	160
0.36	312.25	3120	160
0.36	317.24	3390	180
0.36	322.32	3670	190
0.36	327.4	3970	200
0.36	332.38	4260	230
0.36	337.46	4570	250
0.36	342.44	4890	260
0.36	347.52	5240	280
0.36	352.5	5580	400
0.36	357.59	5930	410
0.36	362.57	6290	440
0.395	298.21	2990	350
0.395	303.19	3330	250
0.395	308.17	3510	270
0.395	313.15	3810	180
0.395	318.13	4210	300
0.395	323.11	4580	330
0.395	328.1	4950	350
0.395	333.08	5310	370
0.395	338.06	5730	390
0.395	343.14	6140	420
0.395	348.02	6540	440
0.395	353.1	7010	460
0.395	358.08	7400	500
0.395	363.07	7850	490
0.395	367.85	8160	620
0.422	297.11	3860	100
0.422	302.19	4220	90
0.422	307.17	4600	100
0.422	312.25	5020	860
0.422	317.24	5301	154
0.422	322.32	5730	170
0.422	327.4	6150	200
0.422	332.38	6580	230
0.422	337.46	7040	270
0.422	342.44	7520	310
0.422	347.52	7990	350
0.422	352.5	8440	380
0.422	357.59	8900	400
0.422	362.57	9360	580
0.422	367.65	9810	620
0.502	298.21	4120	50
0.502	303.29	4550	60
0.502	308.17	5060	70
0.502	313.15	5580	80
0.502	318.13	6150	110
0.502	323.01	6710	130
0.502	328.1	7400	200
0.502	332.98	8050	190
0.502	333.08	8190	190
0.502	337.96	8900	200
0.502	343.04	9700	300
0.502	348.02	10470	310
0.502	352.9	11280	360
0.502	357.59	12160	410
0.41	313	4000	500

System: carbon dioxide + 1-butyl-4-methylpyridinium tricyanomethanide; phases: Gas, Liquid
Property: Vapor or sublimation pressure, kPa (Gas); method: Closed cell (Static) method
Mole fraction of carbon dioxide	Temperature, K	Vapor or sublimation pressure, kPa	uncertainty
0.169	293.22	540	60
0.169	298.1	580	60
0.169	302.99	630	60
0.169	308.17	690	60
0.169	313.05	740	70
0.169	318.03	790	70
0.169	323.11	830	70
0.169	328.1	870	80
0.169	333.08	920	80
0.169	338.06	970	80
0.169	343.04	1010	80
0.169	348.02	1060	80
0.169	353.01	1120	70
0.2	293.32	660	50
0.2	298	710	60
0.2	303.09	770	60
0.2	308.07	820	60
0.2	313.05	910	60
0.2	318.03	970	60
0.2	323.11	1010	70
0.2	328	1080	80
0.2	332.98	1140	80
0.2	338.06	1180	80
0.2	342.94	1240	90
0.2	347.72	1290	90
0.2	352.91	1310	90
0.269	293.12	880	50
0.269	298.1	970	50
0.269	303.09	1050	60
0.269	308.17	1130	60
0.269	313.25	1210	60
0.269	318.23	1290	60
0.269	323.11	1420	70
0.269	328.2	1540	70
0.269	333.08	1620	80
0.269	338.16	1690	80
0.269	343.14	1770	90
0.269	348.12	1840	90
0.269	350.12	1970	110
0.29	293.12	930	50
0.29	298	1020	60
0.29	303.09	1110	60
0.29	308.07	1210	70
0.29	313.05	1310	70
0.29	318.13	1410	80
0.29	323.21	1510	80
0.29	328.1	1610	80
0.29	333.18	1720	90
0.29	338.16	1830	90
0.29	343.04	1920	100
0.29	348.02	2020	110
0.29	353.01	2120	110
0.353	293.15	1160	70
0.353	298.15	1290	70
0.353	303.15	1420	70
0.353	308.15	1550	80
0.353	313.13	1690	80
0.353	318.14	1820	90
0.353	323.14	1950	90
0.353	328.12	2100	100
0.353	333.15	2250	100
0.353	338.13	2370	110
0.353	343.14	2520	110
0.353	348.14	2660	120
0.353	353.13	2810	130
0.353	358.13	2910	180
0.427	293.15	1630	120
0.427	298.15	1760	130
0.427	303.15	1930	140
0.427	308.15	2100	100
0.427	313.13	2280	120
0.427	318.14	2450	100
0.427	323.14	2630	180
0.427	328.14	2820	180
0.427	333.15	3020	190
0.427	338.15	3170	200
0.427	343.15	3370	210
0.427	348.14	3550	220
0.427	353.14	3740	220
0.652	293.22	4420	130
0.652	298.1	4810	140
0.652	303.19	5220	150
0.652	307.77	5600	200
0.652	313.15	5980	220
0.652	318.13	6380	220
0.652	323.21	6790	190
0.652	328.1	7180	200
0.652	333.08	7580	210
0.652	338.06	7970	220
0.652	343.14	8360	230
0.652	347.92	8730	230
0.652	353.11	8990	240
0.56	313	4000	200

System: carbon dioxide + 1-butyl-1-methylpyrrolidinium tricyanomethanide; phases: Gas, Liquid
Property: Vapor or sublimation pressure, kPa (Gas); method: Closed cell (Static) method
Mole fraction of carbon dioxide	Temperature, K	Vapor or sublimation pressure, kPa	uncertainty
0.144	293.15	400	100
0.144	298.14	450	60
0.144	303.15	480	60
0.144	308.14	520	60
0.144	313.12	570	70
0.144	318.14	610	70
0.144	323.15	660	70
0.144	328.15	700	100
0.144	333.14	750	80
0.144	338.15	800	100
0.144	343.14	840	80
0.144	348.14	900	100
0.144	353.13	950	90
0.197	299	670	70
0.197	303.19	710	70
0.197	308.27	780	70
0.197	313.05	840	80
0.197	318.13	900	100
0.197	323.21	970	90
0.197	328.2	1040	90
0.197	333.08	1100	100
0.197	338.16	1160	100
0.197	343.04	1230	110
0.197	348.12	1290	110
0.197	353.01	1360	110
0.265	293.16	980	70
0.265	298.15	1070	80
0.265	303.13	1170	90
0.265	308.14	1270	90
0.265	313.16	1370	100
0.265	318.16	1480	110
0.265	323.15	1580	110
0.265	328.14	1690	120
0.265	333.15	1790	130
0.265	338.14	1910	130
0.265	343.13	2010	140
0.265	348.13	2120	140
0.265	353.14	2220	150
0.323	293.12	1410	70
0.323	298.1	1530	80
0.323	303.09	1680	80
0.323	308.17	1830	90
0.323	313.15	1980	90
0.323	318.13	2130	100
0.323	323.21	2290	100
0.323	327.2	2450	110
0.323	333.08	2610	120
0.323	338.16	2750	120
0.323	343.04	2890	120
0.323	348.02	3020	130
0.323	353.11	3160	140
0.412	303.19	2270	80
0.412	308.27	2460	80
0.412	313.15	2640	90
0.412	318.13	2840	90
0.412	323.21	3030	100
0.412	328.1	3220	100
0.412	333.08	3410	110
0.412	338.06	3580	110
0.412	343.04	3770	120
0.412	348.02	3960	130
0.412	353.01	4150	140
0.435	293.15	2050	70
0.435	298.13	2250	80
0.435	303.16	2440	90
0.435	308.15	2650	100
0.435	313.14	2880	220
0.435	318.14	3100	100
0.435	323.14	3330	140
0.435	328.14	3560	150
0.435	333.14	3780	170
0.435	338.15	4010	190
0.435	343.15	4240	210
0.435	348.13	4480	230
0.435	353.13	4720	250
0.48	313	4000	100
