Measured thermophysical data. Infinite dilution activity coefficient and vapour liquid equilibrium measurements for dimethylsulphide and tetrahydrothiophene with hydrocarbons
Source: Fluid Phase Equilib., 2010, 10.1016/j.fluid.2010.03.027
Compound 1: hexane, C6H14, InChI=1S/C6H14/c1-3-5-6-4-2/h3-6H2,1-2H3
Compound 2: hex-1-ene, C6H12, InChI=1S/C6H12/c1-3-5-6-4-2/h3H,1,4-6H2,2H3
Compound 3: 2,2,4-trimethylpentane, C8H18, InChI=1S/C8H18/c1-7(2)6-8(3,4)5/h7H,6H2,1-5H3
Compound 4: 2,4,4-trimethyl-1-pentene, C8H16, InChI=1S/C8H16/c1-7(2)6-8(3,4)5/h1,6H2,2-5H3
Compound 5: propane, C3H8, InChI=1S/C3H8/c1-3-2/h3H2,1-2H3, purity 99.9995%
Compound 6: 2-thiapropane, C2H6S, InChI=1S/C2H6S/c1-3-2/h1-2H3, purity 99.91%
Compound 7: tetrahydrothiophene, C4H8S, InChI=1S/C4H8S/c1-2-4-5-3-1/h1-4H2, purity 99.37%

System: propane; phases: Liquid, Gas
Property: Vapor or sublimation pressure, kPa (Liquid); method: Closed cell (Static) method
Temperature, K	Vapor or sublimation pressure, kPa	uncertainty
293.94	852.6	2.3
293.97	853.1	2.3
312.85	1358.5	2.8
312.87	1361.3	2.8

System: 2-thiapropane; phases: Liquid, Gas
Property: Vapor or sublimation pressure, kPa (Liquid); method: Closed cell (Static) method
Temperature, K	Vapor or sublimation pressure, kPa	uncertainty
293.94	53.2	1.2
312.86	108.8	1.2

System: tetrahydrothiophene; phases: Liquid, Gas
Property: Vapor or sublimation pressure, kPa (Liquid); method: Closed cell (Static) method
Temperature, K	Vapor or sublimation pressure, kPa	uncertainty
293.97	2.1	1.2
312.87	5.9	1.2

System: 2-thiapropane + hexane; phases: Liquid
Fixed: Pressure, kPa = 101
Fixed: Mole fraction of 2-thiapropane = 0
Property: Activity coefficient of 2-thiapropane (Liquid); method: dilutor technique
Temperature, K	Activity coefficient of 2-thiapropane	uncertainty
288.15	2.16	0.9
293.15	2.04	0.78
298.15	1.95	0.68
303.15	1.91	0.6

System: 2-thiapropane + hex-1-ene; phases: Liquid
Fixed: Pressure, kPa = 101
Fixed: Mole fraction of 2-thiapropane = 0
Property: Activity coefficient of 2-thiapropane (Liquid); method: dilutor technique
Temperature, K	Activity coefficient of 2-thiapropane	uncertainty
288.15	1.77	0.68
298.15	1.71	0.52
303.15	1.64	0.46

System: 2-thiapropane + 2,2,4-trimethylpentane; phases: Liquid
Fixed: Pressure, kPa = 101
Fixed: Mole fraction of 2-thiapropane = 0
Property: Activity coefficient of 2-thiapropane (Liquid); method: dilutor technique
Temperature, K	Activity coefficient of 2-thiapropane	uncertainty
288.15	1.77	0.7
298.15	1.72	0.54
303.15	1.67	0.3

System: 2-thiapropane + 2,4,4-trimethyl-1-pentene; phases: Liquid
Fixed: Pressure, kPa = 101
Fixed: Mole fraction of 2-thiapropane = 0
Property: Activity coefficient of 2-thiapropane (Liquid); method: dilutor technique
Temperature, K	Activity coefficient of 2-thiapropane	uncertainty
288.15	1.5	0.66
298.15	1.45	0.52
303.15	1.4	0.44

System: propane + 2-thiapropane; phases: Gas, Liquid
Fixed: Temperature, K = 293.94
Property: Vapor or sublimation pressure, kPa (Gas); method: Closed cell (Static) method
Mole fraction of propane	Vapor or sublimation pressure, kPa	uncertainty
0	55.4	1.2
0.0142	79.3	2.8
0.0417	121.5	6.2
0.0508	135.1	7
0.129	237.2	11.9
0.1372	246.7	12.4
0.2092	322.9	15
0.2464	357.5	13.6
0.2476	358.5	13.6
0.3336	428.8	15.2
0.3849	465.8	14.2
0.4368	500.3	13.7
0.4895	533.2	16.7
0.4917	534.9	16.7
0.5408	564.3	12.9
0.5895	592.6	12.4
0.6374	619.9	11.8
0.6879	648.6	11.3
0.7364	676.6	10.7
0.7866	706.5	9.9
0.8397	739.7	8.9
0.892	774.8	7.5
0.9441	812.4	5.8
0.9658	829	5.1
0.9868	845.7	4.4
1	856.5	3.7

System: propane + 2-thiapropane; phases: Liquid, Gas
Fixed: Temperature, K = 312.85
Property: Vapor or sublimation pressure, kPa (Liquid); method: Closed cell (Static) method
Mole fraction of propane	Vapor or sublimation pressure, kPa	uncertainty
0	108.8	1.3
0.0076	126.6	2.2
0.0267	169.6	5.9
0.0431	205.5	8.3
0.0856	290.1	13.8
0.1309	372	17.7
0.1755	444.9	20.1
0.2231	516.1	21.8
0.2725	583.2	22.5
0.3267	650.8	22.9
0.3785	710	22.6
0.4302	765.5	22.2
0.4825	818.5	32.3
0.4873	825.7	32.3
0.5353	872.2	21
0.5834	917.6	20.3
0.6321	963.2	19.5
0.6828	1010.4	18.6
0.7322	1057.7	17.9
0.7844	1109.2	16.4
0.8362	1162.6	14.7
0.8888	1220.5	12.6
0.9438	1285.9	9.3
0.9664	1314.1	8.2
0.9927	1349.2	6.8
1	1358.5	5.9

System: propane + 2-thiapropane; phases: Gas, Liquid
Fixed: Temperature, K = 293.94
Property: Mole fraction of propane (Gas); method: Chromatography
Mole fraction of propane	Mole fraction of propane	uncertainty
0.0142	0.3026	0.022
0.0417	0.5533	0.0345
0.0508	0.5996	0.0245
0.129	0.7815	0.0134
0.1372	0.7909	0.0137
0.2092	0.8467	0.0117
0.2464	0.8646	0.0088
0.2476	0.8651	0.0087
0.3336	0.8935	0.0077
0.3849	0.9055	0.0065
0.4368	0.9156	0.006
0.4895	0.9245	0.0053
0.4917	0.9248	0.0053
0.5408	0.9321	0.0054
0.5895	0.9388	0.0053
0.6374	0.9452	0.0052
0.6879	0.9517	0.0051
0.7364	0.958	0.0048
0.7866	0.9647	0.0047
0.8397	0.9722	0.0042
0.892	0.9802	0.0037
0.9441	0.9891	0.0026
0.9658	0.9931	0.002
0.9868	0.9973	0.0012

System: propane + 2-thiapropane; phases: Gas, Liquid
Fixed: Temperature, K = 312.85
Property: Mole fraction of propane (Gas); method: Chromatography
Mole fraction of propane	Mole fraction of propane	uncertainty
0.0076	0.1421	0.0112
0.0267	0.3647	0.0254
0.0431	0.4774	0.0188
0.0856	0.6374	0.0209
0.1309	0.723	0.0165
0.1755	0.7735	0.0133
0.2231	0.8093	0.0115
0.2725	0.8358	0.0099
0.3267	0.8576	0.0088
0.3785	0.874	0.0079
0.4302	0.8875	0.0074
0.4825	0.8993	0.0069
0.4873	0.9003	0.0069
0.5353	0.9099	0.0067
0.5834	0.9189	0.0065
0.6321	0.9275	0.0063
0.6828	0.9362	0.0062
0.7322	0.9446	0.0061
0.7844	0.9538	0.0058
0.8362	0.9634	0.0054
0.8888	0.9738	0.0047
0.9438	0.9859	0.0033
0.9664	0.9913	0.0025
0.9927	0.9981	0.0012

System: propane + tetrahydrothiophene; phases: Gas, Liquid
Fixed: Temperature, K = 293.97
Property: Vapor or sublimation pressure, kPa (Gas); method: Closed cell (Static) method
Mole fraction of propane	Vapor or sublimation pressure, kPa	uncertainty
0	2.1	1.2
0.0104	53.8	6.6
0.0231	76.2	18.6
0.0339	185	80.6
0.0913	243	14.2
0.1266	317.4	20.1
0.1782	377.3	17.7
0.2264	429.8	18
0.276	476.7	16.6
0.3278	516.8	14.8
0.3799	551.5	13.2
0.4324	581.2	8.3
0.4849	590	170.5
0.4879	613.9	170.5
0.5365	635.6	9.6
0.5852	656.3	8.9
0.6348	676.5	8.4
0.6847	697	7.8
0.7346	717.7	8.2
0.7828	744.6	7.7
0.8387	774.6	7
0.8911	812	4.9
0.9441	830.7	4
0.9864	848.3	3.9
1	853.1	3.8

System: propane + tetrahydrothiophene; phases: Gas, Liquid
Fixed: Temperature, K = 312.87
Property: Vapor or sublimation pressure, kPa (Gas); method: Closed cell (Static) method
Mole fraction of propane	Vapor or sublimation pressure, kPa	uncertainty
0	5.9	1.2
0.0058	25.2	2.3
0.0243	83.3	7.5
0.0369	120.7	9.8
0.0763	232.2	17.2
0.118	337.5	22.5
0.1621	437.3	25.4
0.2119	535.7	27
0.2621	621.7	27.1
0.3125	697	25.8
0.3649	764.6	24.1
0.419	825.2	21.8
0.4768	881.2	43
0.4785	884.6	43
0.5251	924.9	18.3
0.5722	962.1	16.9
0.6205	997.8	15.7
0.6697	1032.8	14.7
0.7228	1070.3	14.1
0.7747	1108.6	13.6
0.8268	1150.9	13.2
0.8824	1202.6	12.4
0.9405	1269.6	9.9
0.9629	1301	9.5
0.9827	1331.7	8.2
1	1361.3	5.9

System: propane + tetrahydrothiophene; phases: Gas, Liquid
Fixed: Temperature, K = 293.97
Property: Mole fraction of propane (Gas); method: Chromatography
Mole fraction of propane	Mole fraction of propane	uncertainty
0.0104	0.9188	0.0812
0.0231	0.961	0.0178
0.0339	0.9726	0.0108
0.0913	0.9887	0.0054
0.1266	0.9914	0.0039
0.1782	0.9935	0.0032
0.2264	0.9946	0.0028
0.276	0.9953	0.0026
0.3278	0.9958	0.0024
0.3799	0.9962	0.0022
0.4324	0.9965	0.002
0.4849	0.9968	0.002
0.4879	0.9968	0.002
0.5365	0.997	0.0018
0.5852	0.9972	0.0016
0.6348	0.9974	0.0016
0.6847	0.9976	0.0014
0.7346	0.9978	0.0014
0.7828	0.998	0.0012
0.8387	0.9982	0.001
0.8911	0.9986	0.0008
0.9441	0.9991	0.0006
0.9864	0.9997	0.0002

System: propane + tetrahydrothiophene; phases: Gas, Liquid
Fixed: Temperature, K = 312.87
Property: Mole fraction of propane (Gas); method: Chromatography
Mole fraction of propane	Mole fraction of propane	uncertainty
0.0058	0.7625	0.0436
0.0243	0.9287	0.0204
0.0369	0.9509	0.0102
0.0763	0.9741	0.0057
0.118	0.982	0.004
0.1621	0.986	0.0031
0.2119	0.9885	0.0027
0.2621	0.9902	0.0023
0.3125	0.9913	0.002
0.3649	0.9921	0.0018
0.419	0.9928	0.0016
0.4768	0.9934	0.0016
0.4785	0.9934	0.0016
0.5251	0.9938	0.0014
0.5722	0.9942	0.0014
0.6205	0.9945	0.0014
0.6697	0.9949	0.0014
0.7228	0.9953	0.0012
0.7747	0.9957	0.0012
0.8268	0.9962	0.0012
0.8824	0.997	0.001
0.9405	0.9982	0.0008
0.9629	0.9988	0.0006
0.9827	0.9994	0.0004
