Measured thermophysical data. Thermodynamic equilibrium of hydrocortisone form I in different solvent systems
Source: Fluid Phase Equilib., 2017, 10.1016/j.fluid.2017.09.007
Compound 1: 11.beta.,17.alpha.,21-trihydroxypregn-4-ene-3,20-dione, C21H30O5, InChI=1S/C21H30O5/c1-19-7-5-13(23)9-12(19)3-4-14-15-6-8-21(26,17(25)11-22)20(15,2)10-16(24)18(14)19/h9,14-16,18,22,24,26H,3-8,10-11H2,1-2H3/t14-,15-,16-,18+,19-,20-,21-/m0/s1, purity 99.5%
Compound 2: ethanol, C2H6O, InChI=1S/C2H6O/c1-2-3/h3H,2H2,1H3, purity 99.7%
Compound 3: acetone, C3H6O, InChI=1S/C3H6O/c1-3(2)4/h1-2H3, purity 99.7%
Compound 4: propan-1-ol, C3H8O, InChI=1S/C3H8O/c1-2-3-4/h4H,2-3H2,1H3, purity 99.8%
Compound 5: butan-1-ol, C4H10O, InChI=1S/C4H10O/c1-2-3-4-5/h5H,2-4H2,1H3, purity 99.5%
Compound 6: 2-methyl-1-propanol, C4H10O, InChI=1S/C4H10O/c1-4(2)3-5/h4-5H,3H2,1-2H3, purity 99.7%
Compound 7: acetonitrile, C2H3N, InChI=1S/C2H3N/c1-2-3/h1H3, purity 99.7%
Compound 8: ethyl acetate, C4H8O2, InChI=1S/C4H8O2/c1-3-6-4(2)5/h3H2,1-2H3, purity 99.5%

System: 11.beta.,17.alpha.,21-trihydroxypregn-4-ene-3,20-dione; phases: Crystal, Liquid, Air at 1 atmosphere
Property: Normal melting temperature, K (Crystal); method: DTA
Normal melting temperature, K	uncertainty
494.75	1.06

System: 11.beta.,17.alpha.,21-trihydroxypregn-4-ene-3,20-dione; phases: Crystal, Liquid, Air at 1 atmosphere
Property: Molar enthalpy of transition or fusion, kJ/mol (Crystal); method: DSC
Molar enthalpy of transition or fusion, kJ/mol	uncertainty
38.3	1.3

System: 11.beta.,17.alpha.,21-trihydroxypregn-4-ene-3,20-dione + ethanol; phases: Liquid, Crystal
Fixed: Pressure, kPa = 100
Property: Mole fraction of 11.beta.,17.alpha.,21-trihydroxypregn-4-ene-3,20-dione (Liquid); method: Phase equilibration
Temperature, K	Mole fraction of 11.beta.,17.alpha.,21-trihydroxypregn-4-ene-3,20-dione	uncertainty
278.15	0.00127	0.00013
283.15	0.00149	0.00015
288.15	0.00168	0.00017
293.15	0.00186	0.00019
298.15	0.00205	0.00021
303.15	0.00231	0.00023
308.15	0.00257	0.00026
313.15	0.00291	0.00029
318.15	0.00326	0.00033
323.15	0.0038	0.00038

System: 11.beta.,17.alpha.,21-trihydroxypregn-4-ene-3,20-dione + acetone; phases: Liquid, Crystal
Fixed: Pressure, kPa = 100
Property: Mole fraction of 11.beta.,17.alpha.,21-trihydroxypregn-4-ene-3,20-dione (Liquid); method: Phase equilibration
Temperature, K	Mole fraction of 11.beta.,17.alpha.,21-trihydroxypregn-4-ene-3,20-dione	uncertainty
278.15	0.00109	0.00011
283.15	0.00139	0.00014
288.15	0.00148	0.00015
293.15	0.00161	0.00016
298.15	0.0019	0.00019
303.15	0.00205	0.00021
308.15	0.00226	0.00023
313.15	0.00251	0.00025
318.15	0.00281	0.00028
323.15	0.00314	0.00031

System: 11.beta.,17.alpha.,21-trihydroxypregn-4-ene-3,20-dione + propan-1-ol; phases: Liquid, Crystal
Fixed: Pressure, kPa = 100
Property: Mole fraction of 11.beta.,17.alpha.,21-trihydroxypregn-4-ene-3,20-dione (Liquid); method: Phase equilibration
Temperature, K	Mole fraction of 11.beta.,17.alpha.,21-trihydroxypregn-4-ene-3,20-dione	uncertainty
278.15	0.000928	9.3e-05
283.15	0.00111	0.00011
288.15	0.0013	0.00013
293.15	0.00152	0.00015
298.15	0.00168	0.00017
303.15	0.00183	0.00018
308.15	0.00206	0.00021
313.15	0.00236	0.00024
318.15	0.00263	0.00026
323.15	0.00297	0.0003

System: 11.beta.,17.alpha.,21-trihydroxypregn-4-ene-3,20-dione + butan-1-ol; phases: Liquid, Crystal
Fixed: Pressure, kPa = 100
Property: Mole fraction of 11.beta.,17.alpha.,21-trihydroxypregn-4-ene-3,20-dione (Liquid); method: Phase equilibration
Temperature, K	Mole fraction of 11.beta.,17.alpha.,21-trihydroxypregn-4-ene-3,20-dione	uncertainty
278.15	0.00078	7.8e-05
283.15	0.000874	8.7e-05
288.15	0.000992	9.9e-05
293.15	0.00118	0.00012
298.15	0.00129	0.00013
303.15	0.00146	0.00015
308.15	0.00154	0.00015
313.15	0.00181	0.00018
318.15	0.00204	0.0002
323.15	0.00231	0.00023

System: 11.beta.,17.alpha.,21-trihydroxypregn-4-ene-3,20-dione + 2-methyl-1-propanol; phases: Liquid, Crystal
Fixed: Pressure, kPa = 100
Property: Mole fraction of 11.beta.,17.alpha.,21-trihydroxypregn-4-ene-3,20-dione (Liquid); method: Phase equilibration
Temperature, K	Mole fraction of 11.beta.,17.alpha.,21-trihydroxypregn-4-ene-3,20-dione	uncertainty
278.15	0.00046	4.6e-05
283.15	0.000463	4.6e-05
288.15	0.00056	5.6e-05
293.15	0.000654	6.5e-05
298.15	0.000761	7.6e-05
303.15	0.000862	8.6e-05
308.15	0.000998	0.0001
313.15	0.00115	0.00012
318.15	0.00133	0.00013
323.15	0.00156	0.00016

System: 11.beta.,17.alpha.,21-trihydroxypregn-4-ene-3,20-dione + ethyl acetate; phases: Liquid, Crystal
Fixed: Pressure, kPa = 100
Property: Mole fraction of 11.beta.,17.alpha.,21-trihydroxypregn-4-ene-3,20-dione (Liquid); method: Phase equilibration
Temperature, K	Mole fraction of 11.beta.,17.alpha.,21-trihydroxypregn-4-ene-3,20-dione	uncertainty
278.15	0.000393	3.9e-05
283.15	0.000457	4.6e-05
288.15	0.000528	5.3e-05
293.15	0.000652	6.5e-05
298.15	0.000712	7.1e-05
303.15	0.000799	8e-05
308.15	0.000901	9e-05
313.15	0.001	0.0001
318.15	0.00111	0.00011
323.15	0.00121	0.00012

System: 11.beta.,17.alpha.,21-trihydroxypregn-4-ene-3,20-dione + acetonitrile; phases: Liquid, Crystal
Fixed: Pressure, kPa = 100
Property: Mole fraction of 11.beta.,17.alpha.,21-trihydroxypregn-4-ene-3,20-dione (Liquid); method: Phase equilibration
Temperature, K	Mole fraction of 11.beta.,17.alpha.,21-trihydroxypregn-4-ene-3,20-dione	uncertainty
278.15	0.000169	1.7e-05
283.15	0.00022	2.2e-05
288.15	0.000335	3.4e-05
293.15	0.000391	3.9e-05
298.15	0.000441	4.4e-05
303.15	0.000519	5.2e-05
308.15	0.00061	6.1e-05
313.15	0.000706	7.1e-05
318.15	0.000825	8.3e-05
323.15	0.001	0.0001

System: 11.beta.,17.alpha.,21-trihydroxypregn-4-ene-3,20-dione + ethanol + ethyl acetate; phases: Liquid, Crystal
Fixed: Pressure, kPa = 100
Property: Mole fraction of 11.beta.,17.alpha.,21-trihydroxypregn-4-ene-3,20-dione (Liquid); method: Phase equilibration
Temperature, K	Solvent: Mole fraction of ethanol	Mole fraction of 11.beta.,17.alpha.,21-trihydroxypregn-4-ene-3,20-dione	uncertainty
278.15	0	0.000393	3.9e-05
283.15	0	0.000457	4.6e-05
288.15	0	0.000528	5.3e-05
293.15	0	0.000652	6.5e-05
298.15	0	0.000712	7.1e-05
303.15	0	0.000799	8e-05
308.15	0	0.000901	9e-05
313.15	0	0.001	0.0001
318.15	0	0.00111	0.00011
323.15	0	0.00121	0.00012
278.15	0.1	0.000814	8.7e-05
283.15	0.1	0.000948	0.000101
288.15	0.1	0.00108	0.00011
293.15	0.1	0.00116	0.00012
298.15	0.1	0.00129	0.00014
303.15	0.1	0.00141	0.00015
308.15	0.1	0.0015	0.00016
313.15	0.1	0.00167	0.00017
318.15	0.1	0.00182	0.00019
323.15	0.1	0.00203	0.00021
278.15	0.3	0.00186	0.0002
283.15	0.3	0.00217	0.00023
288.15	0.3	0.00231	0.00025
293.15	0.3	0.00247	0.00027
298.15	0.3	0.00269	0.00029
303.15	0.3	0.0029	0.00031
308.15	0.3	0.00311	0.00034
313.15	0.3	0.00333	0.00036
318.15	0.3	0.0036	0.00039
323.15	0.3	0.00396	0.00043
278.15	0.5	0.00256	0.00027
283.15	0.5	0.00294	0.00031
288.15	0.5	0.00326	0.00035
293.15	0.5	0.00345	0.00037
298.15	0.5	0.00376	0.0004
303.15	0.5	0.00409	0.00044
308.15	0.5	0.00441	0.00047
313.15	0.5	0.00478	0.00051
318.15	0.5	0.00519	0.00056
323.15	0.5	0.00576	0.00062
278.15	0.6	0.00281	0.00028
283.15	0.6	0.00296	0.0003
288.15	0.6	0.00341	0.00034
293.15	0.6	0.00371	0.00037
298.15	0.6	0.004	0.0004
303.15	0.6	0.00431	0.00043
308.15	0.6	0.00468	0.00047
313.15	0.6	0.00512	0.00051
318.15	0.6	0.0056	0.00056
323.15	0.6	0.00609	0.00061
278.15	0.8	0.00254	0.00026
283.15	0.8	0.00269	0.00027
288.15	0.8	0.00309	0.00031
293.15	0.8	0.00336	0.00034
298.15	0.8	0.00367	0.00037
303.15	0.8	0.00396	0.0004
308.15	0.8	0.00439	0.00044
313.15	0.8	0.00485	0.00049
318.15	0.8	0.00537	0.00054
323.15	0.8	0.00595	0.0006
278.15	0.9	0.00201	0.0002
283.15	0.9	0.00225	0.00023
288.15	0.9	0.00249	0.00025
293.15	0.9	0.00272	0.00028
298.15	0.9	0.00298	0.0003
303.15	0.9	0.00329	0.00033
308.15	0.9	0.00366	0.00037
313.15	0.9	0.00413	0.00042
318.15	0.9	0.00466	0.00047
323.15	0.9	0.00522	0.00053
278.15	1	0.00127	0.00013
283.15	1	0.00149	0.00015
288.15	1	0.00168	0.00017
293.15	1	0.00186	0.00019
298.15	1	0.00205	0.00021
303.15	1	0.00231	0.00023
308.15	1	0.00257	0.00026
313.15	1	0.00291	0.00029
318.15	1	0.00326	0.00033
323.15	1	0.0038	0.00038
