Measured thermophysical data. Phase equilibria of ternary systems of carbon dioxide + ethanol, dimethyl sulfoxide, or N,N-dimethyl formamide + water at elevated pressures including near critical regions
Source: Fluid Phase Equilib., 2016, 10.1016/j.fluid.2016.08.033
Compound 1: carbon dioxide, CO2, InChI=1S/CO2/c2-1-3, purity 99.8%
Compound 2: ethanol, C2H6O, InChI=1S/C2H6O/c1-2-3/h3H,2H2,1H3
Compound 3: dimethyl sulfoxide, C2H6OS, InChI=1S/C2H6OS/c1-4(2)3/h1-2H3
Compound 4: dimethylformamide, C3H7NO, InChI=1S/C3H7NO/c1-4(2)3-5/h3H,1-2H3
Compound 5: water, H2O, InChI=1S/H2O/h1H2

System: ethanol + carbon dioxide + water; phases: Gas, Liquid
Fixed: Solvent: Mole fraction of ethanol = 0.9
Property: Vapor or sublimation pressure, kPa (Gas); method: Closed cell (Static) method
Temperature, K	Mole fraction of carbon dioxide	Vapor or sublimation pressure, kPa	uncertainty
298.2	0.207	3120	80
298.2	0.308	4270	70
298.2	0.403	5040	60
298.2	0.506	5500	50
298.2	0.608	5650	50
298.2	0.7	5800	50
298.2	0.75	5840	50
298.2	0.794	5910	50
298.2	0.824	5920	50
298.2	0.858	5960	50
298.2	0.886	5990	50
298.2	0.917	6000	50
298.2	0.95	6130	60
298.2	0.979	6240	60
308.2	0.207	3650	90
308.2	0.308	5050	80
308.2	0.403	5980	70
308.2	0.506	6560	50
308.2	0.608	6790	50
308.2	0.7	7020	50
308.2	0.75	7090	50
308.2	0.794	7200	50
308.2	0.824	7210	50
308.2	0.858	7220	50
308.2	0.886	7270	50
308.2	0.917	7330	60
308.2	0.95	7470	60
308.2	0.979	7580	60
318.2	0.207	4130	110
318.2	0.308	5810	100
318.2	0.403	6930	70
318.2	0.506	7630	60
318.2	0.608	8210	60
318.2	0.7	8450	60
318.2	0.75	8560	60
318.2	0.794	8630	60
318.2	0.824	8680	60
318.2	0.858	8720	60
318.2	0.886	8780	60
318.2	0.917	8850	60
328.2	0.207	4680	120
328.2	0.308	6590	110
328.2	0.403	7890	80
328.2	0.506	8840	70
328.2	0.608	9610	70
328.2	0.7	10010	60
328.2	0.75	10160	60
328.2	0.794	10290	60
328.2	0.824	10340	60
338.2	0.207	5260	130
338.2	0.308	7250	120
338.2	0.403	8830	100
338.2	0.506	10030	80
338.2	0.608	10830	70
338.2	0.7	11420	70
338.2	0.75	11620	60
338.2	0.794	11780	60
338.2	0.824	11910	70
348.2	0.207	5780	140
348.2	0.308	7930	130
348.2	0.403	9720	110
348.2	0.506	11120	90
348.2	0.608	12040	80
348.2	0.7	12760	70
348.2	0.75	12960	60
348.2	0.794	13090	60

System: ethanol + carbon dioxide + water; phases: Gas, Liquid
Fixed: Solvent: Mole fraction of ethanol = 0.9
Property: Vapor or sublimation pressure, kPa (Gas); method: Closed cell (Static) method
Temperature, K	Mole fraction of carbon dioxide	Vapor or sublimation pressure, kPa	uncertainty
318.2	0.95	8760	320
318.2	0.979	7250	320
328.2	0.858	10310	60
328.2	0.886	10260	60
328.2	0.917	10180	70
328.2	0.95	9850	280
328.2	0.979	7250	510
338.2	0.858	11810	60
338.2	0.886	11650	70
338.2	0.917	11500	100
338.2	0.95	10430	370
338.2	0.979	7670	580
348.2	0.824	13150	70
348.2	0.858	12910	70
348.2	0.886	12760	80
348.2	0.917	12390	170
348.2	0.95	11100	400
348.2	0.979	7930	660

System: ethanol + carbon dioxide + water; phases: Liquid, Gas
Fixed: Solvent: Mole fraction of ethanol = 0.9
Property: Critical pressure, kPa (Liquid); method: interpolation
Temperature, K	Critical pressure, kPa	uncertainty
318.2	8850	100
328.2	10340	100
338.2	11910	100
348.2	13150	100

System: ethanol + carbon dioxide + water; phases: Liquid, Gas
Fixed: Solvent: Mole fraction of ethanol = 0.9
Property: Mole fraction of carbon dioxide (Liquid); method: interpolation
Temperature, K	Mole fraction of carbon dioxide	uncertainty
318.2	0.923	0.016
328.2	0.826	0.016
338.2	0.825	0.016
348.2	0.82	0.016

System: dimethyl sulfoxide + carbon dioxide + water; phases: Gas, Liquid
Fixed: Solvent: Mole fraction of dimethyl sulfoxide = 0.9
Property: Vapor or sublimation pressure, kPa (Gas); method: Closed cell (Static) method
Temperature, K	Mole fraction of carbon dioxide	Vapor or sublimation pressure, kPa	uncertainty
308.2	0.917	17900	500
308.2	0.95	15150	890
308.2	0.98	8560	1320
318.2	0.917	17980	530
318.2	0.95	15320	720
318.2	0.98	10350	990
328.2	0.889	19380	160
328.2	0.917	18730	330
328.2	0.95	16150	610
328.2	0.98	12270	810
338.2	0.889	21050	230
338.2	0.917	20050	370
338.2	0.95	17410	600
338.2	0.98	13730	760
348.2	0.889	22670	240
348.2	0.917	21630	410
348.2	0.95	18650	650
348.2	0.98	14850	760

System: dimethyl sulfoxide + carbon dioxide + water; phases: Gas, Liquid
Fixed: Solvent: Mole fraction of dimethyl sulfoxide = 0.9
Property: Vapor or sublimation pressure, kPa (Gas); method: Closed cell (Static) method
Temperature, K	Mole fraction of carbon dioxide	Vapor or sublimation pressure, kPa	uncertainty
308.2	0.199	2860	100
308.2	0.299	4310	90
308.2	0.404	5490	80
308.2	0.498	6440	80
308.2	0.597	7170	80
308.2	0.697	8060	130
308.2	0.748	9970	220
308.2	0.798	11540	260
308.2	0.829	13380	380
308.2	0.86	15420	410
308.2	0.889	17460	430
318.2	0.199	3440	100
318.2	0.299	4930	100
318.2	0.404	6410	100
318.2	0.498	7930	100
318.2	0.597	9200	120
318.2	0.697	11350	170
318.2	0.748	13110	210
318.2	0.798	14640	210
318.2	0.829	15850	250
318.2	0.86	17100	240
318.2	0.889	18100	220
328.2	0.199	3900	120
328.2	0.299	5880	120
328.2	0.404	7650	130
328.2	0.498	9880	140
328.2	0.597	11740	160
328.2	0.697	14650	200
328.2	0.748	16250	180
328.2	0.798	17360	160
328.2	0.829	18180	190
328.2	0.86	19120	190
338.2	0.199	4580	140
338.2	0.299	6800	130
338.2	0.404	8880	140
338.2	0.498	11150	180
338.2	0.597	14340	210
338.2	0.697	17560	200
338.2	0.748	18830	160
338.2	0.798	19920	140
338.2	0.829	20410	140
338.2	0.86	21030	140
348.2	0.199	5180	160
348.2	0.299	7750	160
348.2	0.404	10360	170
348.2	0.498	13160	210
348.2	0.597	16740	220
348.2	0.697	20060	190
348.2	0.748	21070	140
348.2	0.798	21970	130
348.2	0.829	22460	120
348.2	0.86	22870	120

System: dimethyl sulfoxide + carbon dioxide + water; phases: Liquid, Gas
Fixed: Solvent: Mole fraction of dimethyl sulfoxide = 0.9
Property: Critical pressure, kPa (Liquid); method: interpolation
Temperature, K	Critical pressure, kPa	uncertainty
308.2	17990	100
318.2	18220	100
328.2	19400	100
338.2	21150	110
348.2	22890	110

System: dimethyl sulfoxide + carbon dioxide + water; phases: Liquid, Gas
Fixed: Solvent: Mole fraction of dimethyl sulfoxide = 0.9
Property: Mole fraction of carbon dioxide (Liquid); method: interpolation
Temperature, K	Mole fraction of carbon dioxide	uncertainty
308.2	0.91	0.016
318.2	0.902	0.016
328.2	0.884	0.016
338.2	0.876	0.016
348.2	0.868	0.016

System: dimethylformamide + carbon dioxide + water; phases: Liquid, Gas
Fixed: Solvent: Mole fraction of dimethylformamide = 0.75
Property: Vapor or sublimation pressure, kPa (Liquid); method: Manometric method
Temperature, K	Mole fraction of carbon dioxide	Vapor or sublimation pressure, kPa	uncertainty
313.2	0.207	2600	90
313.2	0.308	3910	90
313.2	0.414	5500	90
313.2	0.51	6370	70
313.2	0.614	6940	60
313.2	0.725	7660	60
313.2	0.786	7820	60
313.2	0.817	7930	60
323.2	0.207	3060	100
323.2	0.308	4590	110
323.2	0.414	6470	100
323.2	0.51	7430	80
323.2	0.614	8400	70
323.2	0.725	9300	70
323.2	0.786	9610	70
323.2	0.817	9670	60
323.2	0.841	9720	60
333.2	0.207	3490	110
333.2	0.308	5270	120
333.2	0.414	7230	100
333.2	0.51	8430	90
333.2	0.614	9830	90
333.2	0.725	11200	90
333.2	0.786	11600	70
333.2	0.817	11780	70
333.2	0.841	11870	70
333.2	0.879	12020	70
333.2	0.907	12250	80
338.2	0.207	3770	130
338.2	0.308	5910	120
338.2	0.414	7680	110
338.2	0.51	9150	100
338.2	0.614	10700	100
338.2	0.725	12130	90
338.2	0.786	12600	80
338.2	0.817	12840	80
338.2	0.841	13020	70
338.2	0.879	13080	70
348.2	0.207	4260	170
348.2	0.308	7010	140
348.2	0.414	9010	120
348.2	0.51	10540	110
348.2	0.614	12340	110
348.2	0.725	13890	100
348.2	0.786	14700	90
348.2	0.817	14850	70
348.2	0.841	14870	60
313.2	0.969	8300	60

System: dimethylformamide + carbon dioxide + water; phases: Gas, Liquid
Fixed: Solvent: Mole fraction of dimethylformamide = 0.75
Property: Vapor or sublimation pressure, kPa (Gas); method: Manometric method
Temperature, K	Mole fraction of carbon dioxide	Vapor or sublimation pressure, kPa	uncertainty
323.2	0.969	9690	250
333.2	0.938	12270	250
333.2	0.969	10990	270
338.2	0.907	13130	90
338.2	0.938	12750	170
338.2	0.969	11480	260
348.2	0.879	14920	60
348.2	0.907	14840	90
348.2	0.938	14230	250
348.2	0.969	12280	380

System: dimethylformamide + carbon dioxide + water; phases: Liquid, Gas
Fixed: Solvent: Mole fraction of dimethylformamide = 0.75
Property: Critical pressure, kPa (Liquid); method: interpolation
Temperature, K	Critical pressure, kPa	uncertainty
333.2	12420	100
338.2	13160	110
348.2	14920	110

System: dimethylformamide + carbon dioxide + water; phases: Liquid, Gas
Fixed: Solvent: Mole fraction of dimethylformamide = 0.75
Property: Mole fraction of carbon dioxide (Liquid); method: interpolation
Temperature, K	Mole fraction of carbon dioxide	uncertainty
333.2	0.923	0.016
338.2	0.897	0.016
348.2	0.87	0.016
