Measured thermophysical data. Thermochemical and vapor pressure behavior of anthracene and brominated  anthracene mixtures
Source: Fluid Phase Equilib., 2013, 10.1016/j.fluid.2012.12.036
Compound 1: anthracene, C14H10, InChI=1S/C14H10/c1-2-6-12-10-14-8-4-3-7-13(14)9-11(12)5-1/h1-10H, purity 99%
Compound 2: anthracene, 2-bromo-, C14H9Br, InChI=1S/C14H9Br/c15-14-6-5-12-7-10-3-1-2-4-11(10)8-13(12)9-14/h1-9H, purity 97%
Compound 3: 9-bromoanthracene, C14H9Br, InChI=1S/C14H9Br/c15-14-12-7-3-1-5-10(12)9-11-6-2-4-8-13(11)14/h1-9H, purity 95%

System: anthracene; phases: Crystal, Liquid, Air at 1 atmosphere
Property: Normal melting temperature, K (Crystal); method: VISOBS
Normal melting temperature, K	uncertainty
490.05	0.41

System: anthracene; phases: Crystal, Gas
Property: Vapor or sublimation pressure, kPa (Crystal); method: Calculated from knudsen effusion weight loss
Temperature, K	Vapor or sublimation pressure, kPa	uncertainty
322.9	1.82e-05	2e-06
328	2.97e-05	3.2e-06
333	5.58e-05	6e-06
338.1	8.91e-05	9.6e-06
343.1	0.000146	1.6e-05
348.2	0.000233	2.5e-05

System: anthracene, 2-bromo-; phases: Crystal, Liquid, Air at 1 atmosphere
Property: Normal melting temperature, K (Crystal); method: VISOBS
Normal melting temperature, K	uncertainty
493.85	0.41

System: anthracene, 2-bromo-; phases: Crystal, Gas
Property: Vapor or sublimation pressure, kPa (Crystal); method: Calculated from knudsen effusion weight loss
Temperature, K	Vapor or sublimation pressure, kPa	uncertainty
334.8	5.41e-06	6e-07
339.8	9.21e-06	1e-06
344.9	1.56e-05	1.7e-06
350	2.61e-05	2.8e-06
355	4.15e-05	4.5e-06
360.1	7.18e-05	7.8e-06
365.2	0.000114	1.2e-05
370.4	0.000184	2e-05
375.3	0.000287	3.1e-05
380.4	0.000437	4.7e-05
385.4	0.000652	7e-05
390.4	0.000887	9.5e-05

System: 9-bromoanthracene; phases: Crystal, Liquid, Air at 1 atmosphere
Property: Normal melting temperature, K (Crystal); method: VISOBS
Normal melting temperature, K	uncertainty
374.15	0.41

System: 9-bromoanthracene; phases: Crystal, Gas
Property: Vapor or sublimation pressure, kPa (Crystal); method: Calculated from knudsen effusion weight loss
Temperature, K	Vapor or sublimation pressure, kPa	uncertainty
314.8	5.1e-06	5.9e-07
319.8	1.06e-05	1.2e-06
324.8	1.71e-05	1.9e-06
329.8	3.26e-05	3.5e-06
334.9	5.32e-05	5.8e-06
339.9	9.3e-05	1.01e-05
345	0.000158	1.7e-05
350	0.000261	2.8e-05
355	0.000418	4.5e-05

System: anthracene + anthracene, 2-bromo-; phases: Liquid, Crystal
Fixed: Pressure, kPa = 101
Property: Solid-liquid equilibrium temperature, K (Liquid); method: VISOBS
Mole fraction of anthracene	Solid-liquid equilibrium temperature, K	uncertainty
0	493.8	0.3
0.1	491.2	0.6
0.18	489.1	0.6
0.3	486.1	0.6
0.4	483.5	0.5
0.5	482.1	0.4
0.6	480.2	0.4
0.65	479.7	0.3
0.7	479.5	0.3
0.72	479.6	0.3
0.73	479.7	0.3
0.74	479.4	0.3
0.75	479.5	0.3
0.76	479.9	0.4
0.78	480.1	0.4
0.8	480.4	0.4
0.9	483	1
1	490	0.3

System: anthracene + 9-bromoanthracene; phases: Liquid, Crystal
Fixed: Pressure, kPa = 101
Property: Solid-liquid equilibrium temperature, K (Liquid); method: VISOBS
Mole fraction of anthracene	Solid-liquid equilibrium temperature, K	uncertainty
0	374.1	0.3
0.1	369.5	3.1
0.2	405.2	5.5
0.3	424.4	3.3
0.4	438.4	2.8
0.5	451.9	2
0.6	457.8	1.5
0.7	466.9	1.8
0.8	475.9	1.6
0.9	483.2	1.4
1	490	0.3
