Measured thermophysical data. Ternary liquid-liquid equilibria of trifluorotris(perfluoroethyl)phosphate based ionic liquids + benzothiophene + heptane
Source: Fluid Phase Equilib., 2014, 10.1016/j.fluid.2013.10.028
Compound 1: 4-(2-methoxyethyl)-4-methylmorpholinium trifluorotris(perfluoroethyl)phosphate, C14H18F18NO2P, InChI=1S/C8H18NO2.C6F18P/c1-9(3-6-10-2)4-7-11-8-5-9;7-1(8,9)4(16,17)25(22,23,24,5(18,19)2(10,11)12)6(20,21)3(13,14)15/h3-8H2,1-2H3;/q+1;-1, purity 99.5%
Compound 2: ethyldimethyl-(2-methoxyethyl)ammonium trifluorotris(perfluoroethyl)phosphate, C13H18F18NOP, InChI=1S/C7H18NO.C6F18P/c1-5-8(2,3)6-7-9-4;7-1(8,9)4(16,17)25(22,23,24,5(18,19)2(10,11)12)6(20,21)3(13,14)15/h5-7H2,1-4H3;/q+1;-1, purity 99.5%
Compound 3: 3-(2-hydroxyethyl)-1-methyl-1H-imidazolium trifluorotris(perfluoroethyl)phosphate(V), C12H11F18N2OP, InChI=1S/C6F18P.C6H11N2O/c7-1(8,9)4(16,17)25(22,23,24,5(18,19)2(10,11)12)6(20,21)3(13,14)15;1-7-2-3-8(6-7)4-5-9/h;2-3,6,9H,4-5H2,1H3/q-1;+1, purity 99.5%
Compound 4: benzo[b]thiophene, C8H6S, InChI=1S/C8H6S/c1-2-4-8-7(3-1)5-6-9-8/h1-6H, purity 99.5%
Compound 5: heptane, C7H16, InChI=1S/C7H16/c1-3-5-7-6-4-2/h3-7H2,1-2H3, purity 99.79%

System: ethyldimethyl-(2-methoxyethyl)ammonium trifluorotris(perfluoroethyl)phosphate; phases: Liquid
Fixed: Pressure, kPa = 100
Property: Mass density, kg/m3 (Liquid); method: Vibrating tube method
Temperature, K	Mass density, kg/m3	uncertainty
298.15	1624.92	0.41
308.15	1614	0.4
318.15	1603.06	0.39
328.15	1592.12	0.39
338.15	1581.22	0.38
348.15	1570.36	0.38

System: ethyldimethyl-(2-methoxyethyl)ammonium trifluorotris(perfluoroethyl)phosphate; phases: Liquid
Fixed: Pressure, kPa = 100
Property: Viscosity, Pa*s (Liquid); method: Falling or rolling sphere viscometry
Temperature, K	Viscosity, Pa*s	uncertainty
298.15	0.1306	0.0043
308.15	0.07819	0.00126
318.15	0.05069	0.00027
328.15	0.03489	0.00031
338.15	0.02524	0.00022
348.15	0.01881	0.00017

System: benzo[b]thiophene + heptane + 4-(2-methoxyethyl)-4-methylmorpholinium trifluorotris(perfluoroethyl)phosphate; phases: Liquid mixture 1, Liquid mixture 2
Fixed: Temperature, K = 308.15
Fixed: Pressure, kPa = 101
Property: Mole fraction of 4-(2-methoxyethyl)-4-methylmorpholinium trifluorotris(perfluoroethyl)phosphate (Liquid mixture 1); method: Chromatography
Property: Mole fraction of 4-(2-methoxyethyl)-4-methylmorpholinium trifluorotris(perfluoroethyl)phosphate (Liquid mixture 2); method: Chromatography
Property: Mole fraction of benzo[b]thiophene (Liquid mixture 2); method: Chromatography
Mole fraction of benzo[b]thiophene	Mole fraction of 4-(2-methoxyethyl)-4-methylmorpholinium trifluorotris(perfluoroethyl)phosphate	uncertainty	Mole fraction of 4-(2-methoxyethyl)-4-methylmorpholinium trifluorotris(perfluoroethyl)phosphate	uncertainty	Mole fraction of benzo[b]thiophene	uncertainty
0	0		0.978	0.004	0	
0.023	0		0.868	0.006	0.082	
0.061	0		0.735	0.006	0.196	
0.082	0		0.678	0.006	0.249	
0.106	0		0.632	0.006	0.296	
0.168	0.002	0.002	0.527	0.007	0.396	
0.271	0.002	0.002	0.429	0.007	0.489	
0.345	0.006	0.004	0.38	0.006	0.537	
0.454	0.011	0.004	0.331	0.006	0.582	
0.484	0.012	0.004	0.312	0.006	0.6	
0.602	0.014	0.004	0.274	0.006	0.64	
0.66	0.014	0.004	0.241	0.006	0.67	
0.73	0.016	0.004	0.213	0.006	0.697	
0.788	0.018	0.004	0.185	0.005	0.733	
0.841	0.019	0.004	0.158	0.005	0.772	
0.909	0.021	0.004	0.14	0.004	0.812	
0.944	0.021	0.004	0.131	0.004	0.841	
0.975	0.025	0.004	0.14	0.004	0.86	

System: benzo[b]thiophene + heptane + ethyldimethyl-(2-methoxyethyl)ammonium trifluorotris(perfluoroethyl)phosphate; phases: Liquid mixture 1, Liquid mixture 2
Fixed: Temperature, K = 308.15
Fixed: Pressure, kPa = 101
Property: Mole fraction of ethyldimethyl-(2-methoxyethyl)ammonium trifluorotris(perfluoroethyl)phosphate (Liquid mixture 1); method: Chromatography
Property: Mole fraction of ethyldimethyl-(2-methoxyethyl)ammonium trifluorotris(perfluoroethyl)phosphate (Liquid mixture 2); method: Chromatography
Property: Mole fraction of benzo[b]thiophene (Liquid mixture 2); method: Chromatography
Mole fraction of benzo[b]thiophene	Mole fraction of ethyldimethyl-(2-methoxyethyl)ammonium trifluorotris(perfluoroethyl)phosphate	uncertainty	Mole fraction of ethyldimethyl-(2-methoxyethyl)ammonium trifluorotris(perfluoroethyl)phosphate	uncertainty	Mole fraction of benzo[b]thiophene	uncertainty
0	0		0.958	0.004	0	
0.013	0		0.887	0.006	0.046	
0.046	0		0.776	0.006	0.154	
0.068	0		0.717	0.006	0.212	
0.082	0		0.679	0.006	0.248	
0.096	0		0.643	0.006	0.283	
0.106	0		0.618	0.006	0.306	
0.13	0.003	0.003	0.57	0.007	0.354	
0.157	0.003	0.003	0.514	0.007	0.407	
0.207	0.003	0.003	0.443	0.007	0.473	
0.277	0.007	0.004	0.379	0.006	0.536	
0.366	0.007	0.004	0.332	0.006	0.582	
0.457	0.007	0.004	0.306	0.006	0.608	
0.528	0.007	0.004	0.29	0.006	0.628	
0.625	0.007	0.004	0.264	0.006	0.656	
0.689	0.01	0.004	0.243	0.006	0.677	
0.793	0.012	0.004	0.203	0.005	0.725	
0.835	0.014	0.004	0.186	0.005	0.752	
0.898	0.015	0.004	0.169	0.004	0.791	
0.947	0.017	0.004	0.173	0.005	0.805	
0.981	0.019	0.004	0.187	0.004	0.813	

System: benzo[b]thiophene + heptane + 3-(2-hydroxyethyl)-1-methyl-1H-imidazolium trifluorotris(perfluoroethyl)phosphate(V); phases: Liquid mixture 1, Liquid mixture 2
Fixed: Temperature, K = 308.15
Fixed: Pressure, kPa = 101
Property: Mole fraction of 3-(2-hydroxyethyl)-1-methyl-1H-imidazolium trifluorotris(perfluoroethyl)phosphate(V) (Liquid mixture 1); method: Chromatography
Property: Mole fraction of 3-(2-hydroxyethyl)-1-methyl-1H-imidazolium trifluorotris(perfluoroethyl)phosphate(V) (Liquid mixture 2); method: Chromatography
Property: Mole fraction of benzo[b]thiophene (Liquid mixture 2); method: Chromatography
Mole fraction of benzo[b]thiophene	Mole fraction of 3-(2-hydroxyethyl)-1-methyl-1H-imidazolium trifluorotris(perfluoroethyl)phosphate(V)	uncertainty	Mole fraction of 3-(2-hydroxyethyl)-1-methyl-1H-imidazolium trifluorotris(perfluoroethyl)phosphate(V)	uncertainty	Mole fraction of benzo[b]thiophene	uncertainty
0	0		0.988	0.004	0	
0.038	0		0.889	0.006	0.077	
0.072	0		0.826	0.006	0.139	
0.136	0.004	0.004	0.724	0.006	0.241	
0.182	0.004	0.004	0.665	0.006	0.299	
0.25	0.005	0.004	0.588	0.006	0.374	
0.337	0.008	0.004	0.513	0.007	0.445	
0.368	0.008	0.004	0.495	0.007	0.463	
0.458	0.009	0.004	0.452	0.007	0.505	
0.544	0.012	0.004	0.415	0.006	0.541	
0.618	0.01	0.004	0.392	0.006	0.564	
0.684	0.01	0.004	0.361	0.006	0.596	
0.778	0.01	0.004	0.309	0.006	0.647	
0.822	0.014	0.004	0.281	0.006	0.679	
0.881	0.014	0.004	0.255	0.005	0.715	
0.924	0.014	0.004	0.237	0.005	0.744	
0.986	0.014	0.004	0.212	0.004	0.788	

System: benzo[b]thiophene + 4-(2-methoxyethyl)-4-methylmorpholinium trifluorotris(perfluoroethyl)phosphate; phases: Liquid mixture 2, Liquid mixture 1
Property: Mole fraction of 4-(2-methoxyethyl)-4-methylmorpholinium trifluorotris(perfluoroethyl)phosphate (Liquid mixture 2); method: Chromatography
Temperature, K	Pressure, kPa	Mole fraction of 4-(2-methoxyethyl)-4-methylmorpholinium trifluorotris(perfluoroethyl)phosphate	uncertainty
308.15	101	0.14	0.004

System: benzo[b]thiophene + 4-(2-methoxyethyl)-4-methylmorpholinium trifluorotris(perfluoroethyl)phosphate; phases: Liquid mixture 1, Liquid mixture 2
Property: Mole fraction of 4-(2-methoxyethyl)-4-methylmorpholinium trifluorotris(perfluoroethyl)phosphate (Liquid mixture 1); method: Chromatography
Temperature, K	Pressure, kPa	Mole fraction of 4-(2-methoxyethyl)-4-methylmorpholinium trifluorotris(perfluoroethyl)phosphate	uncertainty
308.15	101	0.025	0.004

System: heptane + 4-(2-methoxyethyl)-4-methylmorpholinium trifluorotris(perfluoroethyl)phosphate; phases: Liquid mixture 2, Liquid mixture 1
Property: Mole fraction of 4-(2-methoxyethyl)-4-methylmorpholinium trifluorotris(perfluoroethyl)phosphate (Liquid mixture 2); method: Chromatography
Temperature, K	Pressure, kPa	Mole fraction of 4-(2-methoxyethyl)-4-methylmorpholinium trifluorotris(perfluoroethyl)phosphate	uncertainty
308.15	101	0.978	0.004

System: heptane + ethyldimethyl-(2-methoxyethyl)ammonium trifluorotris(perfluoroethyl)phosphate; phases: Liquid mixture 2, Liquid mixture 1
Property: Mole fraction of ethyldimethyl-(2-methoxyethyl)ammonium trifluorotris(perfluoroethyl)phosphate (Liquid mixture 2); method: Chromatography
Temperature, K	Pressure, kPa	Mole fraction of ethyldimethyl-(2-methoxyethyl)ammonium trifluorotris(perfluoroethyl)phosphate	uncertainty
308.15	101	0.958	0.004

System: benzo[b]thiophene + ethyldimethyl-(2-methoxyethyl)ammonium trifluorotris(perfluoroethyl)phosphate; phases: Liquid mixture 2, Liquid mixture 1
Property: Mole fraction of ethyldimethyl-(2-methoxyethyl)ammonium trifluorotris(perfluoroethyl)phosphate (Liquid mixture 2); method: Chromatography
Temperature, K	Pressure, kPa	Mole fraction of ethyldimethyl-(2-methoxyethyl)ammonium trifluorotris(perfluoroethyl)phosphate	uncertainty
308.15	101	0.187	0.004

System: benzo[b]thiophene + ethyldimethyl-(2-methoxyethyl)ammonium trifluorotris(perfluoroethyl)phosphate; phases: Liquid mixture 1, Liquid mixture 2
Property: Mole fraction of ethyldimethyl-(2-methoxyethyl)ammonium trifluorotris(perfluoroethyl)phosphate (Liquid mixture 1); method: Chromatography
Temperature, K	Pressure, kPa	Mole fraction of ethyldimethyl-(2-methoxyethyl)ammonium trifluorotris(perfluoroethyl)phosphate	uncertainty
308.15	101	0.019	0.004

System: benzo[b]thiophene + 3-(2-hydroxyethyl)-1-methyl-1H-imidazolium trifluorotris(perfluoroethyl)phosphate(V); phases: Liquid mixture 2, Liquid mixture 1
Property: Mole fraction of 3-(2-hydroxyethyl)-1-methyl-1H-imidazolium trifluorotris(perfluoroethyl)phosphate(V) (Liquid mixture 2); method: Chromatography
Temperature, K	Pressure, kPa	Mole fraction of 3-(2-hydroxyethyl)-1-methyl-1H-imidazolium trifluorotris(perfluoroethyl)phosphate(V)	uncertainty
308.15	101	0.212	0.004

System: benzo[b]thiophene + 3-(2-hydroxyethyl)-1-methyl-1H-imidazolium trifluorotris(perfluoroethyl)phosphate(V); phases: Liquid mixture 1, Liquid mixture 2
Property: Mole fraction of 3-(2-hydroxyethyl)-1-methyl-1H-imidazolium trifluorotris(perfluoroethyl)phosphate(V) (Liquid mixture 1); method: Chromatography
Temperature, K	Pressure, kPa	Mole fraction of 3-(2-hydroxyethyl)-1-methyl-1H-imidazolium trifluorotris(perfluoroethyl)phosphate(V)	uncertainty
308.15	101	0.014	0.004

System: heptane + 3-(2-hydroxyethyl)-1-methyl-1H-imidazolium trifluorotris(perfluoroethyl)phosphate(V); phases: Liquid mixture 2, Liquid mixture 1
Property: Mole fraction of 3-(2-hydroxyethyl)-1-methyl-1H-imidazolium trifluorotris(perfluoroethyl)phosphate(V) (Liquid mixture 2); method: Chromatography
Temperature, K	Pressure, kPa	Mole fraction of 3-(2-hydroxyethyl)-1-methyl-1H-imidazolium trifluorotris(perfluoroethyl)phosphate(V)	uncertainty
308.15	101	0.988	0.004
