Measured thermophysical data. Isobaric vapour + liquid equilibria for three binary systems (toluene + anisole, nbutylbenzene + anisole, and guaiacol + anisole) at 101.33 kPa
Source: Fluid Phase Equilib., 2014, 10.1016/j.fluid.2014.02.025
Compound 1: toluene, C7H8, InChI=1S/C7H8/c1-7-5-3-2-4-6-7/h2-6H,1H3, purity 99.5%
Compound 2: butylbenzene, C10H14, InChI=1S/C10H14/c1-2-3-7-10-8-5-4-6-9-10/h4-6,8-9H,2-3,7H2,1H3, purity 99%
Compound 3: 2-methoxyphenol, C7H8O2, InChI=1S/C7H8O2/c1-9-7-5-3-2-4-6(7)8/h2-5,8H,1H3, purity 99%
Compound 4: anisole, C7H8O, InChI=1S/C7H8O/c1-8-7-5-3-2-4-6-7/h2-6H,1H3, purity 99%

System: toluene; phases: Liquid, Gas
Property: Boiling temperature at pressure P, K (Liquid); method: Ebulliometric method (Recirculating still)
Pressure, kPa	Boiling temperature at pressure P, K	uncertainty
101.33	383.39	0.04

System: butylbenzene; phases: Liquid, Gas
Property: Boiling temperature at pressure P, K (Liquid); method: Ebulliometric method (Recirculating still)
Pressure, kPa	Boiling temperature at pressure P, K	uncertainty
101.33	456.38	0.05

System: 2-methoxyphenol; phases: Liquid, Gas
Property: Boiling temperature at pressure P, K (Liquid); method: Ebulliometric method (Recirculating still)
Pressure, kPa	Boiling temperature at pressure P, K	uncertainty
101.33	478.1	0.05

System: anisole; phases: Liquid, Gas
Property: Boiling temperature at pressure P, K (Liquid); method: Ebulliometric method (Recirculating still)
Pressure, kPa	Boiling temperature at pressure P, K	uncertainty
101.33	426.56	0.05

System: anisole + toluene; phases: Liquid, Gas
Fixed: Pressure, kPa = 101.33
Property: Boiling temperature at pressure P, K (Liquid); method: Ebulliometric method (Recirculating still)
Mole fraction of toluene	Boiling temperature at pressure P, K	uncertainty
0.9532	384.55	0.1
0.9007	385.87	0.1
0.8431	387.34	0.1
0.804	388.02	0.1
0.7431	389.84	0.11
0.6764	392.37	0.11
0.6591	392.73	0.11
0.6357	393.65	0.11
0.5781	395.67	0.11
0.3363	404.33	0.13
0.0858	418.85	0.25
0.05	423.06	0.2
0.0051	426.17	0.17

System: anisole + toluene; phases: Gas, Liquid
Fixed: Pressure, kPa = 101.33
Property: Mole fraction of toluene (Gas); method: Chromatography
Mole fraction of toluene	Mole fraction of toluene	uncertainty
0.9532	0.9835	0.0165
0.9007	0.9663	0.0337
0.8431	0.9441	0.04
0.804	0.9242	0.04
0.7431	0.8949	0.04
0.6764	0.849	0.0401
0.6591	0.8296	0.0401
0.6357	0.8215	0.0401
0.5781	0.7738	0.0401
0.3363	0.606	0.0402
0.0858	0.2217	0.0403
0.05	0.1429	0.0403
0.0051	0.0183	0.0183

System: anisole + butylbenzene; phases: Liquid, Gas
Fixed: Pressure, kPa = 101.33
Property: Boiling temperature at pressure P, K (Liquid); method: Ebulliometric method (Recirculating still)
Mole fraction of anisole	Boiling temperature at pressure P, K	uncertainty
0.9568	427.16	0.1
0.9313	427.65	0.1
0.885	428.54	0.1
0.8264	429.74	0.1
0.7596	431.06	0.1
0.7362	431.59	0.1
0.7005	432.55	0.11
0.6698	433.45	0.11
0.6173	434.78	0.1
0.5094	436.94	0.11
0.1731	448.84	0.12
0.0817	452.1	0.12
0.049	453.34	0.12
0.0305	454.23	0.13

System: anisole + butylbenzene; phases: Gas, Liquid
Fixed: Pressure, kPa = 101.33
Property: Mole fraction of anisole (Gas); method: Chromatography
Mole fraction of anisole	Mole fraction of anisole	uncertainty
0.9568	0.9757	0.0243
0.9313	0.9628	0.0372
0.885	0.9405	0.04
0.8264	0.9082	0.04
0.7596	0.8701	0.04
0.7362	0.8582	0.04
0.7005	0.8354	0.0401
0.6698	0.8173	0.0401
0.6173	0.7804	0.0401
0.5094	0.7024	0.0402
0.1731	0.3332	0.0402
0.0817	0.1818	0.0402
0.049	0.1185	0.0402
0.0305	0.0813	0.0402

System: 2-methoxyphenol + anisole; phases: Liquid, Gas
Fixed: Pressure, kPa = 101.33
Property: Boiling temperature at pressure P, K (Liquid); method: Ebulliometric method (Recirculating still)
Mole fraction of anisole	Boiling temperature at pressure P, K	uncertainty
0.9157	429.07	0.1
0.8697	430.11	0.15
0.8603	430.65	0.15
0.7577	433.55	0.11
0.7031	435.85	0.11
0.6555	437.13	0.11
0.3045	454.4	0.15
0.2252	459.36	0.15
0.1223	465.15	0.16
0.096	468.28	0.22
0.0852	468.63	0.11

System: 2-methoxyphenol + anisole; phases: Gas, Liquid
Fixed: Pressure, kPa = 101.33
Property: Mole fraction of anisole (Gas); method: Chromatography
Mole fraction of anisole	Mole fraction of anisole	uncertainty
0.9157	0.9727	0.0273
0.8697	0.9573	0.04
0.8603	0.9541	0.04
0.7577	0.9188	0.04
0.7031	0.8912	0.04
0.6555	0.8726	0.04
0.3045	0.6176	0.0403
0.2252	0.5201	0.0404
0.1223	0.3423	0.0403
0.096	0.2886	0.0403
0.0852	0.2677	0.0403
