Measured thermophysical data. Isobaric vapor-liquid equilibria for tert-butanol + water with single and mixed ionic liquids as solvents at 101.3 kPa
Source: Fluid Phase Equilib., 2019, 10.1016/j.fluid.2019.02.022
Compound 1: 2-methylpropan-2-ol, C4H10O, InChI=1S/C4H10O/c1-4(2,3)5/h5H,1-3H3, purity 99.9%
Compound 2: 1-ethyl-3-methylimidazolium dicyanamide, C8H11N5, InChI=1S/C6H11N2.C2N3/c1-3-8-5-4-7(2)6-8;3-1-5-2-4/h4-6H,3H2,1-2H3;/q+1;-1, purity 99%
Compound 3: water, H2O, InChI=1S/H2O/h1H2, purity 99.8%

System: 2-methylpropan-2-ol + water + 1-ethyl-3-methylimidazolium dicyanamide; phases: Liquid, Gas
Fixed: Pressure, kPa = 101.3
Property: Boiling temperature at pressure P, K (Liquid); method: Ebulliometric method (Recirculating still)
Mole fraction of 2-methylpropan-2-ol	Mole fraction of water	Boiling temperature at pressure P, K	uncertainty
0	0.95	374.3	0.4
0.085	0.865	356.8	0.5
0.187	0.762	354.5	0.4
0.275	0.675	354	0.4
0.33	0.62	353.9	0.4
0.392	0.558	353.7	0.4
0.473	0.477	353.6	0.4
0.583	0.368	353.7	0.4
0.66	0.289	353.8	0.4
0.753	0.196	354.3	0.4
0.806	0.144	354.7	0.4
0.867	0.083	355.3	0.4
0.907	0.043	355.8	0.4
0	0.899	376.7	0.4
0.034	0.866	364.9	0.5
0.08	0.818	359.6	0.7
0.151	0.747	356.7	0.5
0.267	0.631	355.3	0.4
0.35	0.548	355.1	0.4
0.453	0.445	355	0.4
0.551	0.346	355.1	0.4
0.651	0.247	355.5	0.4
0.737	0.161	356.1	0.4
0.826	0.072	357	0.4
0.863	0.035	357.5	0.4
0.875	0.024	357.6	0.4
0	0.8	383.5	0.4
0.061	0.739	368.2	0.5
0.141	0.656	362.1	0.5
0.226	0.572	359.9	0.5
0.32	0.479	359	0.4
0.398	0.399	358.8	0.4
0.497	0.302	358.9	0.4
0.569	0.228	359.1	0.4
0.651	0.147	359.7	0.4
0.726	0.072	360.3	0.4
0	0.699	392	0.4
0.045	0.652	379	0.6
0.117	0.58	370.2	0.5
0.178	0.52	366.9	0.4
0.182	0.515	366.7	0.4
0.265	0.436	364.8	0.4
0.271	0.43	364.6	0.5
0.333	0.367	363.9	0.4
0.348	0.353	363.8	0.4
0.423	0.279	363.5	0.4
0.494	0.208	363.5	0.4
0.566	0.132	363.8	0.4
0.639	0.058	364.2	0.4

System: 2-methylpropan-2-ol + water + 1-ethyl-3-methylimidazolium dicyanamide; phases: Gas, Liquid
Fixed: Pressure, kPa = 101.3
Property: Mole fraction of 2-methylpropan-2-ol (Gas); method: Chromatography
Mole fraction of 2-methylpropan-2-ol	Mole fraction of water	Mole fraction of 2-methylpropan-2-ol	uncertainty
0	0.95	0	
0.085	0.865	0.519	0.007
0.187	0.762	0.576	0.004
0.275	0.675	0.596	0.005
0.33	0.62	0.606	0.005
0.392	0.558	0.625	0.005
0.473	0.477	0.652	0.005
0.583	0.368	0.695	0.004
0.66	0.289	0.735	0.004
0.753	0.196	0.795	0.004
0.806	0.144	0.837	0.004
0.867	0.083	0.896	0.004
0.907	0.043	0.94	0.003
0	0.899	0	
0.034	0.866	0.381	0.007
0.08	0.818	0.513	0.014
0.151	0.747	0.585	0.005
0.267	0.631	0.632	0.004
0.35	0.548	0.659	0.004
0.453	0.445	0.697	0.004
0.551	0.346	0.741	0.004
0.651	0.247	0.798	0.004
0.737	0.161	0.851	0.003
0.826	0.072	0.924	0.003
0.863	0.035	0.961	0.003
0.875	0.024	0.971	0.003
0	0.8	0	
0.061	0.739	0.472	0.005
0.141	0.656	0.614	0.004
0.226	0.572	0.678	0.004
0.32	0.479	0.727	0.004
0.398	0.399	0.763	0.004
0.497	0.302	0.812	0.003
0.569	0.228	0.849	0.003
0.651	0.147	0.896	0.003
0.726	0.072	0.946	0.003
0	0.699	0	
0.045	0.652	0.425	0.006
0.117	0.58	0.621	0.004
0.178	0.52	0.699	0.004
0.182	0.515	0.705	0.004
0.265	0.436	0.761	0.003
0.271	0.43	0.764	0.003
0.333	0.367	0.8	0.003
0.348	0.353	0.808	0.003
0.423	0.279	0.847	0.003
0.494	0.208	0.883	0.003
0.566	0.132	0.926	0.003
0.639	0.058	0.963	0.003

System: 2-methylpropan-2-ol + water + 1-ethyl-3-methylimidazolium dicyanamide; phases: Gas, Liquid
Fixed: Pressure, kPa = 101.3
Property: Mole fraction of 1-ethyl-3-methylimidazolium dicyanamide (Gas); method: Non-volatility assumption
Mole fraction of 2-methylpropan-2-ol	Mole fraction of water	Mole fraction of 1-ethyl-3-methylimidazolium dicyanamide	uncertainty
0	0.95	0	
0.085	0.865	0	
0.187	0.762	0	
0.275	0.675	0	
0.33	0.62	0	
0.392	0.558	0	
0.473	0.477	0	
0.583	0.368	0	
0.66	0.289	0	
0.753	0.196	0	
0.806	0.144	0	
0.867	0.083	0	
0.907	0.043	0	
0	0.899	0	
0.034	0.866	0	
0.08	0.818	0	
0.151	0.747	0	
0.267	0.631	0	
0.35	0.548	0	
0.453	0.445	0	
0.551	0.346	0	
0.651	0.247	0	
0.737	0.161	0	
0.826	0.072	0	
0.863	0.035	0	
0.875	0.024	0	
0	0.8	0	
0.061	0.739	0	
0.141	0.656	0	
0.226	0.572	0	
0.32	0.479	0	
0.398	0.399	0	
0.497	0.302	0	
0.569	0.228	0	
0.651	0.147	0	
0.726	0.072	0	
0	0.699	0	
0.045	0.652	0	
0.117	0.58	0	
0.178	0.52	0	
0.182	0.515	0	
0.265	0.436	0	
0.271	0.43	0	
0.333	0.367	0	
0.348	0.353	0	
0.423	0.279	0	
0.494	0.208	0	
0.566	0.132	0	
0.639	0.058	0	

System: water + 1-ethyl-3-methylimidazolium dicyanamide; phases: Liquid, Gas
Fixed: Pressure, kPa = 101.3
Property: Boiling temperature at pressure P, K (Liquid); method: Ebulliometric method (Recirculating still)
Mole fraction of water	Boiling temperature at pressure P, K	uncertainty
0.95	374.3	0.4
0.899	376.7	0.4
0.8	383.5	0.4
0.699	392	0.4

System: water + 1-ethyl-3-methylimidazolium dicyanamide; phases: Gas, Liquid
Fixed: Pressure, kPa = 101.3
Property: Mole fraction of 1-ethyl-3-methylimidazolium dicyanamide (Gas); method: Non-volatility assumption
Mole fraction of water	Mole fraction of 1-ethyl-3-methylimidazolium dicyanamide	uncertainty
0.95	0	
0.899	0	
0.8	0	
0.699	0	
