Measured thermophysical data. Thermal conductivity and interfacial energy of solid Bi solution in the Bi-Al-Zn eutectic system
Source: Fluid Phase Equilib., 2010, 10.1016/j.fluid.2010.02.029
Compound 1: bismuth, Bi, InChI=1S/Bi
Compound 2: aluminum, Al, InChI=1S/Al
Compound 3: zinc, Zn, InChI=1S/Zn
Compound 4: indium, In, InChI=1S/In, purity 99.9%
Compound 5: cadmium, Cd, InChI=1S/Cd, purity 99.9%

System: bismuth; phases: Crystal
Fixed: Pressure, kPa = 101.325
Property: Thermal conductivity, W/m/K (Crystal); method: radial heat flow
Temperature, K	Thermal conductivity, W/m/K	uncertainty
382.65	8.35	1.18
418.7	8.12	1.15

System: bismuth + indium; phases: Liquid
Property: Thermal conductivity, W/m/K (Liquid); method: radial heat flow
Mole fraction of bismuth	Pressure, kPa	Temperature, K	Thermal conductivity, W/m/K	uncertainty
0.527	101	382.65	10.6	1.49

System: bismuth + indium; phases: Crystal
Property: Thermal conductivity, W/m/K (Crystal); method: radial heat flow
Mole fraction of bismuth	Pressure, kPa	Temperature, K	Thermal conductivity, W/m/K	uncertainty
0.527	101	382.65	13.25	1.86

System: cadmium + bismuth; phases: Liquid
Property: Thermal conductivity, W/m/K (Liquid); method: radial heat flow
Mole fraction of bismuth	Pressure, kPa	Temperature, K	Thermal conductivity, W/m/K	uncertainty
0.5504	101	418.7	10.06	1.41

System: cadmium + bismuth; phases: Crystal
Property: Thermal conductivity, W/m/K (Crystal); method: radial heat flow
Mole fraction of bismuth	Pressure, kPa	Temperature, K	Thermal conductivity, W/m/K	uncertainty
0.5504	101	418.7	12.46	1.74

System: aluminum + zinc + bismuth; phases: Crystal
Property: Thermal conductivity, W/m/K (Crystal); method: radial heat flow
Mole fraction of bismuth	Mole fraction of zinc	Pressure, kPa	Temperature, K	Thermal conductivity, W/m/K	uncertainty
0.061	0.0038	101	382.65	10.34	1.45

System: aluminum + zinc + bismuth; phases: Liquid
Property: Thermal conductivity, W/m/K (Liquid); method: radial heat flow
Mole fraction of bismuth	Mole fraction of zinc	Pressure, kPa	Temperature, K	Thermal conductivity, W/m/K	uncertainty
0.0804	0.0038	101	527.15	13.85	1.94
