Measured thermophysical data. Self-diffusivity measurements of dimethyl, diethyl, dipropyl, dibutyl, Bis(2-ethylhexyl) adipates from (293 - 339) K by a PGSE-NMR spin-echo technique
Source: Fluid Phase Equilib., 2016, 10.1016/j.fluid.2015.11.020
Compound 1: dimethyl 1,6-hexanedioate, C8H14O4, InChI=1S/C8H14O4/c1-11-7(9)5-3-4-6-8(10)12-2/h3-6H2,1-2H3, purity 99%
Compound 2: diethyl hexanedioate, C10H18O4, InChI=1S/C10H18O4/c1-3-13-9(11)7-5-6-8-10(12)14-4-2/h3-8H2,1-2H3, purity 99%
Compound 3: dipropyl hexanedioate, C12H22O4, InChI=1S/C12H22O4/c1-3-9-15-11(13)7-5-6-8-12(14)16-10-4-2/h3-10H2,1-2H3, purity 99%
Compound 4: dibutyl hexanedioate, C14H26O4, InChI=1S/C14H26O4/c1-3-5-11-17-13(15)9-7-8-10-14(16)18-12-6-4-2/h3-12H2,1-2H3, purity 99%
Compound 5: bis(2-ethylhexyl) adipate, C22H42O4, InChI=1S/C22H42O4/c1-5-9-13-19(7-3)17-25-21(23)15-11-12-16-22(24)26-18-20(8-4)14-10-6-2/h19-20H,5-18H2,1-4H3, purity 99%

System: dimethyl 1,6-hexanedioate; phases: Liquid
Fixed: Pressure, kPa = 100
Property: Self diffusion coefficient, m2/s (Liquid); method: NMR spin-echo technique
Temperature, K	Self diffusion coefficient, m2/s	uncertainty
293.43	3.52e-10	0.016
302.44	4.49e-10	0.019
311.45	5.59e-10	0.022
320.46	6.82e-10	0.026
329.45	8.21e-10	0.03
338.47	9.46e-10	0.033

System: diethyl hexanedioate; phases: Liquid
Fixed: Pressure, kPa = 100
Property: Self diffusion coefficient, m2/s (Liquid); method: NMR spin-echo technique
Temperature, K	Self diffusion coefficient, m2/s	uncertainty
293.43	3.1e-10	0.015
302.44	3.98e-10	0.017
311.45	4.95e-10	0.02
320.46	6.06e-10	0.023
329.45	7.27e-10	0.027
338.47	8.51e-10	0.03

System: dipropyl hexanedioate; phases: Liquid
Fixed: Pressure, kPa = 100
Property: Self diffusion coefficient, m2/s (Liquid); method: NMR spin-echo technique
Temperature, K	Self diffusion coefficient, m2/s	uncertainty
293.43	2.24e-10	0.013
302.44	2.93e-10	0.015
311.45	3.71e-10	0.017
320.46	4.56e-10	0.019
329.45	5.54e-10	0.022
338.47	6.6e-10	0.025

System: dibutyl hexanedioate; phases: Liquid
Fixed: Pressure, kPa = 100
Property: Self diffusion coefficient, m2/s (Liquid); method: NMR spin-echo technique
Temperature, K	Self diffusion coefficient, m2/s	uncertainty
293.43	1.82e-10	0.012
302.44	2.38e-10	0.013
311.45	3.03e-10	0.015
320.46	3.78e-10	0.017
329.45	4.66e-10	0.019
338.47	5.62e-10	0.022

System: bis(2-ethylhexyl) adipate; phases: Liquid
Fixed: Pressure, kPa = 100
Property: Self diffusion coefficient, m2/s (Liquid); method: NMR spin-echo technique
Temperature, K	Self diffusion coefficient, m2/s	uncertainty
293.43	5.6e-11	0.009
302.44	8.2e-11	0.01
311.45	1.15e-10	0.01
320.46	1.52e-10	0.011
329.45	1.96e-10	0.012
338.47	2.46e-10	0.013
