Measured thermophysical data. Synthesis and thermophysical properties of two new protic long-chain ionic liquids with the oleate anion
Source: Fluid Phase Equilib., 2010, 10.1016/j.fluid.2010.08.022
Compound 1: 2-hydroxyethylammonium oleate, C20H41NO3, InChI=1S/C18H34O2.C2H7NO/c1-2-3-4-5-6-7-8-9-10-11-12-13-14-15-16-17-18(19)20;3-1-2-4/h9-10H,2-8,11-17H2,1H3,(H,19,20);4H,1-3H2/b10-9-;, purity 97%
Compound 2: bis(2-hydroxyethyl)ammonium oleate, C22H45NO4, InChI=1S/C18H34O2.C4H11NO2/c1-2-3-4-5-6-7-8-9-10-11-12-13-14-15-16-17-18(19)20;6-3-1-5-2-4-7/h9-10H,2-8,11-17H2,1H3,(H,19,20);5-7H,1-4H2/b10-9-;

System: 2-hydroxyethylammonium oleate; phases: Liquid crystal of unknown type
Fixed: Pressure, kPa = 101.325
Property: Mass density, kg/m3 (Liquid crystal of unknown type); method: Vibrating tube method
Temperature, K	Mass density, kg/m3	uncertainty
343.15	907.717	1.594
342.9	907.872	1.595
342.65	908.033	1.595
342.41	908.195	1.596
342.16	908.356	1.596
341.9	908.521	1.597
341.66	908.682	1.597
341.41	908.843	1.598
341.16	909.006	1.598
340.91	909.169	1.599
340.66	909.33	1.599
340.4	909.492	1.6
340.16	909.655	1.6
339.9	909.815	1.6
339.66	909.978	1.601
339.41	910.142	1.601
339.16	910.301	1.602
338.9	910.464	1.602
338.66	910.626	1.603
338.41	910.787	1.603
338.16	910.95	1.604
337.91	911.11	1.604
337.66	911.272	1.605
337.41	911.432	1.605
337.16	911.595	1.606
336.91	911.757	1.606
336.66	911.917	1.607
336.41	912.079	1.607
336.16	912.241	1.608
335.91	912.403	1.608
335.66	912.564	1.609
335.4	912.725	1.609
335.16	912.885	1.61
334.91	913.046	1.61
334.66	913.208	1.611
334.41	913.369	1.611
334.16	913.531	1.612
333.91	913.692	1.612
333.66	913.853	1.612
333.41	914.015	1.613
333.16	914.175	1.613
332.91	914.336	1.614
332.66	914.496	1.614
332.41	914.658	1.615
332.16	914.818	1.615
331.91	914.98	1.616
331.66	915.14	1.616
331.4	915.3	1.617
331.16	915.461	1.617
330.91	915.622	1.618
330.66	915.784	1.618
330.41	915.943	1.619
330.16	916.103	1.619
329.91	916.265	1.62
329.66	916.424	1.62
329.41	916.585	1.621
329.16	916.746	1.621
328.9	916.907	1.622
328.66	917.066	1.622
328.41	917.226	1.623
328.16	917.387	1.623
327.91	917.547	1.623
327.66	917.707	1.624
327.41	917.867	1.624
327.16	918.029	1.625
326.91	918.187	1.625
326.66	918.347	1.626
326.41	918.508	1.626
326.16	918.669	1.627
325.91	918.828	1.627
325.66	918.989	1.628
325.41	919.149	1.628
325.16	919.309	1.629
324.91	919.469	1.629
324.66	919.629	1.63
324.41	919.788	1.63
324.16	919.948	1.631
323.91	920.108	1.631
323.66	920.268	1.632
323.41	920.427	1.632
323.16	920.588	1.633
322.91	920.746	1.633
322.66	920.906	1.634
322.41	921.066	1.634
322.15	921.225	1.635
321.91	921.386	1.635
321.66	921.546	1.635
321.41	921.705	1.636
321.16	921.864	1.636
320.91	922.026	1.637
320.66	922.184	1.637
320.41	922.343	1.638
320.16	922.502	1.638
319.91	922.663	1.639
319.65	922.821	1.639
319.41	922.982	1.64
319.16	923.142	1.64
318.91	923.302	1.641
318.66	923.461	1.641
318.4	923.621	1.642
318.16	923.779	1.642
317.91	923.938	1.643
317.66	924.098	1.643
317.41	924.257	1.644
317.16	924.416	1.644
316.91	924.575	1.645
316.66	924.735	1.645
316.41	924.895	1.646
316.16	925.054	1.646
315.91	925.214	1.647
315.66	925.372	1.647
315.41	925.531	1.647
315.16	925.69	1.648
314.91	925.851	1.648
314.66	926.009	1.649
314.41	926.167	1.649
314.16	926.328	1.65
313.91	926.486	1.65
313.66	926.647	1.651
313.41	926.805	1.651
313.16	926.962	1.652
312.91	927.122	1.652
312.66	927.283	1.653
312.41	927.441	1.653
312.16	927.599	1.654
311.91	927.76	1.654
311.66	927.918	1.655
311.41	928.077	1.655
311.16	928.237	1.656
310.91	928.395	1.656
310.66	928.554	1.657
310.41	928.713	1.657
310.16	928.874	1.658
309.91	929.032	1.658
309.66	929.189	1.659
309.4	929.35	1.659
309.16	929.509	1.66
308.91	929.668	1.66
308.65	929.828	1.661
308.41	929.987	1.661
308.16	930.145	1.661
307.91	930.304	1.662
307.66	930.464	1.662
307.41	930.622	1.663
307.16	930.781	1.663
306.91	930.939	1.664
306.66	931.098	1.664
306.4	931.258	1.665
306.16	931.416	1.665
305.9	931.576	1.666
305.66	931.734	1.666
305.41	931.892	1.667
305.16	932.053	1.667
304.91	932.212	1.668
304.66	932.371	1.668
304.41	932.529	1.669
304.16	932.688	1.669
303.91	932.846	1.67
303.66	933.005	1.67
303.4	933.167	1.671
303.16	933.324	1.671
302.91	933.483	1.672
302.66	933.642	1.672
302.41	933.802	1.673
302.16	933.959	1.673
301.91	934.118	1.674
301.66	934.277	1.674
301.41	934.436	1.675
301.16	934.596	1.675
300.9	934.755	1.676
300.66	934.914	1.676
300.41	935.072	1.677
300.16	935.231	1.677
299.91	935.39	1.677
299.66	935.55	1.678
299.41	935.709	1.678
299.15	935.868	1.679
298.91	936.026	1.679
298.66	936.186	1.68
298.41	936.345	1.68
298.15	936.505	1.681
297.91	936.662	1.681
297.66	936.822	1.682
297.41	936.981	1.682
297.16	937.14	1.683
296.91	937.301	1.683
296.66	937.459	1.684
296.41	937.618	1.684
296.16	937.777	1.685
295.91	937.936	1.685
295.66	938.095	1.686
295.41	938.256	1.686
295.16	938.414	1.687
294.91	938.572	1.687
294.66	938.731	1.688
294.41	938.892	1.688
294.16	939.05	1.689
293.9	939.211	1.689
293.66	939.369	1.69
293.4	939.529	1.69
293.16	939.688	1.691
292.9	939.848	1.691
292.65	940.008	1.692
292.41	940.167	1.692
292.15	940.327	1.693
291.91	940.485	1.693
291.65	940.646	1.694
291.4	940.805	1.694
291.15	940.965	1.695
290.9	941.124	1.695
290.66	941.282	1.696
290.4	941.445	1.696
290.15	941.604	1.697
289.9	941.764	1.697
289.65	941.923	1.698
289.4	942.083	1.698
289.15	942.244	1.699
288.9	942.405	1.699
288.65	942.565	1.7
288.4	942.726	1.7
288.15	942.888	1.701
287.9	943.055	1.701
287.65	943.228	1.702
287.4	943.416	1.702
287.15	943.629	1.703
286.9	943.886	1.704
286.65	944.256	1.705
286.4	944.221	1.705
286.15	944.693	1.707

System: 2-hydroxyethylammonium oleate; phases: Liquid crystal of unknown type
Fixed: Pressure, kPa = 101.325
Property: Speed of sound, m/s (Liquid crystal of unknown type); method: Sing-around technique in a fixed-path interferometer
Temperature, K	Speed of sound, m/s	uncertainty
343.15	1366.94	3.66
342.9	1367.6	3.66
342.65	1368.34	3.66
342.41	1369.08	3.66
342.16	1369.82	3.66
341.9	1370.57	3.66
341.66	1371.34	3.66
341.41	1372.09	3.66
341.16	1372.86	3.66
340.91	1373.61	3.66
340.66	1374.36	3.66
340.4	1375.13	3.66
340.16	1375.86	3.66
339.9	1376.62	3.66
339.66	1377.38	3.66
339.41	1378.14	3.66
339.16	1378.9	3.66
338.9	1379.66	3.66
338.66	1380.41	3.66
338.41	1381.18	3.66
338.16	1381.94	3.66
337.91	1382.7	3.66
337.66	1383.47	3.66
337.41	1384.22	3.66
337.16	1384.98	3.66
336.91	1385.75	3.66
336.66	1386.5	3.66
336.41	1387.25	3.66
336.16	1388.03	3.66
335.91	1388.79	3.66
335.66	1389.56	3.66
335.4	1390.33	3.66
335.16	1391.1	3.66
334.91	1391.87	3.66
334.66	1392.64	3.66
334.41	1393.42	3.66
334.16	1394.19	3.66
333.91	1394.97	3.66
333.66	1395.74	3.66
333.41	1396.52	3.66
333.16	1397.29	3.66
332.91	1398.06	3.66
332.66	1398.83	3.66
332.41	1399.59	3.66
332.16	1400.37	3.66
331.91	1401.15	3.66
331.66	1401.91	3.66
331.4	1402.69	3.66
331.16	1403.46	3.66
330.91	1404.23	3.66
330.66	1404.99	3.66
330.41	1405.77	3.66
330.16	1406.54	3.66
329.91	1407.31	3.66
329.66	1408.08	3.66
329.41	1408.87	3.66
329.16	1409.63	3.66
328.9	1410.41	3.66
328.66	1411.18	3.66
328.41	1411.95	3.66
328.16	1412.73	3.66
327.91	1413.5	3.66
327.66	1414.28	3.66
327.41	1415.07	3.66
327.16	1415.85	3.66
326.91	1416.63	3.66
326.66	1417.4	3.66
326.41	1418.19	3.66
326.16	1418.97	3.66
325.91	1419.74	3.66
325.66	1420.55	3.66
325.41	1421.34	3.66
325.16	1422.12	3.66
324.91	1422.91	3.66
324.66	1423.69	3.66
324.41	1424.47	3.66
324.16	1425.26	3.66
323.91	1426.05	3.66
323.66	1426.83	3.66
323.41	1427.62	3.66
323.16	1428.4	3.66
322.91	1429.19	3.66
322.66	1429.97	3.66
322.41	1430.76	3.66
322.15	1431.54	3.66
321.91	1432.33	3.66
321.66	1433.12	3.66
321.41	1433.91	3.66
321.16	1434.67	3.66
320.91	1435.46	3.66
320.66	1436.25	3.66
320.41	1437.03	3.66
320.16	1437.81	3.66
319.91	1438.61	3.66
319.65	1439.41	3.66
319.41	1440.2	3.66
319.16	1440.99	3.66
318.91	1441.78	3.66
318.66	1442.58	3.66
318.4	1443.38	3.66
318.16	1444.18	3.66
317.91	1444.99	3.66
317.66	1445.77	3.66
317.41	1446.57	3.66
317.16	1447.38	3.66
316.91	1448.18	3.66
316.66	1448.98	3.66
316.41	1449.77	3.66
316.16	1450.58	3.66
315.91	1451.36	3.67
315.66	1452.16	3.67
315.41	1452.97	3.67
315.16	1453.76	3.67
314.91	1454.56	3.67
314.66	1455.37	3.67
314.41	1456.17	3.67
314.16	1456.97	3.67
313.91	1457.77	3.67
313.66	1458.59	3.67
313.41	1459.38	3.67
313.16	1460.17	3.67
312.91	1460.99	3.67
312.66	1461.79	3.67
312.41	1462.59	3.67
312.16	1463.39	3.67
311.91	1464.18	3.67
311.66	1464.98	3.67
311.41	1465.8	3.67
311.16	1466.61	3.67
310.91	1467.42	3.67
310.66	1468.24	3.67
310.41	1469.05	3.67
310.16	1469.87	3.67
309.91	1470.7	3.67
309.66	1471.51	3.67
309.4	1472.33	3.67
309.16	1473.15	3.67
308.91	1473.97	3.67
308.65	1474.8	3.67
308.41	1475.62	3.67
308.16	1476.44	3.67
307.91	1477.26	3.67
307.66	1478.08	3.67
307.41	1478.9	3.67
307.16	1479.71	3.67
306.91	1480.54	3.67
306.66	1481.37	3.67
306.4	1482.2	3.67
306.16	1483.01	3.67
305.9	1483.83	3.67
305.66	1484.65	3.67
305.41	1485.5	3.67
305.16	1486.31	3.67
304.91	1487.13	3.67
304.66	1487.97	3.67
304.41	1488.79	3.67
304.16	1489.61	3.67
303.91	1490.44	3.67
303.66	1491.29	3.67
303.4	1492.12	3.67
303.16	1492.94	3.67
302.91	1493.78	3.67
302.66	1494.61	3.67
302.41	1495.46	3.67
302.16	1496.29	3.67
301.91	1497.13	3.67
301.66	1497.98	3.67
301.41	1498.82	3.67
301.16	1499.66	3.67
300.9	1500.51	3.67
300.66	1501.35	3.67
300.41	1502.21	3.67
300.16	1503.05	3.67
299.91	1503.92	3.67
299.66	1504.77	3.67
299.41	1505.63	3.67
299.15	1506.49	3.67
298.91	1507.34	3.67
298.66	1508.18	3.67
298.41	1509.04	3.67
298.15	1509.91	3.67
297.91	1510.76	3.67
297.66	1511.61	3.67
297.41	1512.47	3.67
297.16	1513.32	3.67
296.91	1514.16	3.67
296.66	1515.04	3.67
296.41	1515.9	3.67
296.16	1516.76	3.67
295.91	1517.63	3.67
295.66	1518.5	3.67
295.41	1519.36	3.67
295.16	1520.23	3.67
294.91	1521.11	3.67
294.66	1521.99	3.67
294.41	1522.87	3.67
294.16	1523.74	3.67
293.9	1524.63	3.67
293.66	1525.51	3.67
293.4	1526.39	3.67
293.16	1527.3	3.67
292.9	1528.18	3.67
292.65	1529.06	3.67
292.41	1529.96	3.67
292.15	1530.85	3.67
291.91	1531.73	3.67
291.65	1532.62	3.67
291.4	1533.52	3.67
291.15	1534.41	3.67
290.9	1535.32	3.67
290.66	1536.23	3.67
290.4	1537.15	3.67
290.15	1538.06	3.67
289.9	1538.96	3.67
289.65	1539.9	3.67
289.4	1540.82	3.67
289.15	1541.75	3.67
288.9	1542.72	3.67
288.65	1543.66	3.67
288.4	1544.68	3.67
288.15	1545.69	3.67
287.9	1546.71	3.67
287.65	1547.74	3.67
287.4	1548.88	3.67
287.15	1550.15	3.67
286.9	1551.48	3.67
286.65	1553.28	3.67
286.4	1552.7	3.67
286.15	1554.44	3.67

System: 2-hydroxyethylammonium oleate; phases: Liquid crystal of unknown type
Fixed: Pressure, kPa = 101.325
Property: Refractive index (Na D-line) (Liquid crystal of unknown type); method: Standard Abbe refractometry
Temperature, K	Refractive index (Na D-line)	uncertainty
288.35	1.49406	0.00068
298.15	1.48994	0.00068
308.25	1.48558	0.00068
313.21	1.48343	0.00068
323.45	1.47901	0.00068
333.25	1.4747	0.00068

System: 2-hydroxyethylammonium oleate; phases: Liquid crystal of unknown type
Fixed: Pressure, kPa = 101.325
Property: Viscosity, Pa*s (Liquid crystal of unknown type); method: Visco Elite L rheometer
Temperature, K	Viscosity, Pa*s	uncertainty
358.15	0.0792	0.0014
353.15	0.0975	0.0018
348.15	0.1291	0.0026
338.15	0.2259	0.0039

System: 2-hydroxyethylammonium oleate; phases: Liquid
Property: Viscosity, Pa*s (Liquid); method: Visco Elite L rheometer
Temperature, K	Pressure, kPa	Viscosity, Pa*s	uncertainty
368.15	101.325	0.0505	0.001

System: 2-hydroxyethylammonium oleate; phases: Crystal
Property: Refractive index (Na D-line) (Crystal); method: Standard Abbe refractometry
Temperature, K	Pressure, kPa	Refractive index (Na D-line)	uncertainty
278.45	101.325	1.496	0.00069

System: 2-hydroxyethylammonium oleate; phases: Crystal
Fixed: Pressure, kPa = 101.325
Property: Speed of sound, m/s (Crystal); method: Sing-around technique in a fixed-path interferometer
Temperature, K	Speed of sound, m/s	uncertainty
285.9	1593.21	3.67
285.65	1592.79	3.68
285.4	1595.76	3.68
285.15	1597.71	3.68
284.91	1599.33	3.68
284.66	1600.85	3.68
284.41	1602.26	3.68
284.16	1603.63	3.68
283.91	1604.95	3.68
283.66	1606.29	3.68
283.41	1607.59	3.68
283.16	1608.9	3.68
282.91	1610.27	3.68
282.66	1611.56	3.68
282.41	1612.89	3.68
282.16	1614.2	3.68
281.91	1615.52	3.68
281.66	1616.82	3.68
281.41	1618.15	3.68
281.15	1619.47	3.68
280.91	1620.79	3.68
280.65	1622.11	3.68
280.41	1623.43	3.68
280.16	1624.73	3.68
279.91	1626.06	3.68
279.65	1627.38	3.68
279.41	1628.69	3.68
279.16	1630.01	3.68
278.9	1631.36	3.68
278.66	1632.72	3.68
278.41	1634.06	3.68
278.16	1635.37	3.68

System: 2-hydroxyethylammonium oleate; phases: Crystal
Fixed: Pressure, kPa = 101.325
Property: Mass density, kg/m3 (Crystal); method: Vibrating tube method
Temperature, K	Mass density, kg/m3	uncertainty
285.9	950.405	2.835
285.65	950.404	2.835
285.4	950.604	2.836
285.15	950.796	2.836
284.91	950.989	2.837
284.66	951.188	2.838
284.41	951.383	2.839
284.16	951.578	2.839
283.91	951.769	2.84
283.66	951.962	2.841
283.41	952.15	2.841
283.16	952.337	2.842
282.91	952.526	2.843
282.66	952.714	2.843
282.41	952.898	2.844
282.16	953.081	2.845
281.91	953.266	2.845
281.66	953.448	2.846
281.41	953.63	2.846
281.15	953.811	2.847
280.91	953.991	2.848
280.65	954.172	2.848
280.41	954.349	2.849
280.16	954.527	2.85
279.91	954.704	2.85
279.65	954.881	2.851
279.41	955.057	2.851
279.16	955.234	2.852
278.9	955.409	2.853
278.66	955.58	2.853
278.41	955.757	2.854
278.16	955.929	2.855

System: bis(2-hydroxyethyl)ammonium oleate; phases: Liquid crystal of unknown type
Fixed: Pressure, kPa = 101.325
Property: Mass density, kg/m3 (Liquid crystal of unknown type); method: Vibrating tube method
Temperature, K	Mass density, kg/m3	uncertainty
343.15	935.491	1.678
342.9	935.668	1.679
342.66	935.836	1.679
342.41	936.003	1.68
342.16	936.171	1.68
341.91	936.339	1.681
341.65	936.507	1.681
341.41	936.674	1.682
341.16	936.844	1.682
340.91	937.009	1.683
340.66	937.177	1.683
340.41	937.345	1.684
340.15	937.513	1.684
339.91	937.68	1.685
339.66	937.846	1.685
339.41	938.014	1.686
339.16	938.182	1.686
338.91	938.351	1.687
338.66	938.517	1.687
338.41	938.684	1.688
338.16	938.852	1.688
337.91	939.017	1.689
337.66	939.185	1.689
337.4	939.352	1.69
337.16	939.519	1.69
336.91	939.686	1.691
336.66	939.852	1.691
336.41	940.019	1.692
336.16	940.185	1.692
335.91	940.352	1.693
335.66	940.519	1.693
335.41	940.685	1.694
335.16	940.851	1.694
334.91	941.018	1.695
334.66	941.183	1.695
334.41	941.349	1.696
334.16	941.516	1.696
333.91	941.682	1.697
333.66	941.847	1.697
333.41	942.013	1.698
333.16	942.18	1.699
332.91	942.347	1.699
332.66	942.512	1.7
332.41	942.679	1.7
332.16	942.844	1.701
331.91	943.009	1.701
331.66	943.175	1.702
331.4	943.341	1.702
331.16	943.506	1.703
330.91	943.671	1.703
330.66	943.835	1.704
330.41	944.002	1.704
330.16	944.168	1.705
329.91	944.332	1.705
329.66	944.498	1.706
329.41	944.663	1.706
329.16	944.829	1.707
328.91	944.994	1.707
328.66	945.159	1.708
328.41	945.323	1.708
328.16	945.489	1.709
327.91	945.656	1.709
327.66	945.82	1.71
327.41	945.984	1.71
327.16	946.149	1.711
326.91	946.315	1.711
326.66	946.479	1.712
326.41	946.644	1.712
326.16	946.806	1.713
325.91	946.972	1.713
325.66	947.136	1.714
325.41	947.302	1.714
325.16	947.466	1.715
324.9	947.631	1.715
324.66	947.796	1.716
324.41	947.96	1.716
324.16	948.125	1.717
323.91	948.289	1.717
323.66	948.452	1.718
323.41	948.617	1.718
323.16	948.781	1.719
322.91	948.946	1.719
322.65	949.109	1.72
322.41	949.275	1.72
322.16	949.437	1.721
321.91	949.603	1.722
321.66	949.766	1.722
321.41	949.931	1.723
321.16	950.094	1.723
320.91	950.258	1.724
320.66	950.422	1.724
320.41	950.587	1.725
320.16	950.75	1.725
319.91	950.913	1.726
319.66	951.078	1.726
319.41	951.243	1.727
319.16	951.406	1.727
318.91	951.57	1.728
318.66	951.733	1.728
318.41	951.897	1.729
318.16	952.061	1.729
317.91	952.225	1.73
317.66	952.388	1.73
317.41	952.551	1.731
317.16	952.716	1.731
316.91	952.88	1.732
316.66	953.043	1.732
316.41	953.207	1.733
316.16	953.369	1.733
315.91	953.533	1.734
315.65	953.699	1.734
315.41	953.862	1.735
315.16	954.024	1.735
314.91	954.186	1.736
314.66	954.352	1.736
314.41	954.514	1.737
314.16	954.679	1.737
313.91	954.842	1.738
313.66	955.006	1.738
313.4	955.169	1.739
313.16	955.331	1.739
312.91	955.495	1.74
312.66	955.658	1.74
312.41	955.821	1.741
312.16	955.984	1.741
311.91	956.146	1.742
311.66	956.311	1.742
311.41	956.474	1.743
311.16	956.637	1.744
310.91	956.801	1.744
310.66	956.963	1.745
310.41	957.128	1.745
310.16	957.289	1.746
309.91	957.453	1.746
309.66	957.617	1.747
309.4	957.779	1.747
309.16	957.942	1.748
308.91	958.105	1.748
308.65	958.268	1.749
308.4	958.43	1.749
308.16	958.595	1.75
307.91	958.759	1.75
307.66	958.92	1.751
307.41	959.083	1.751
307.16	959.246	1.752
306.91	959.409	1.752
306.65	959.573	1.753
306.4	959.736	1.753
306.16	959.898	1.754
305.91	960.061	1.754
305.66	960.223	1.755
305.41	960.387	1.755
305.16	960.55	1.756
304.91	960.712	1.756
304.66	960.875	1.757
304.41	961.038	1.757
304.16	961.2	1.758
303.91	961.364	1.758
303.66	961.527	1.759
303.41	961.689	1.759
303.16	961.853	1.76
302.91	962.013	1.76
302.66	962.178	1.761
302.41	962.341	1.761
302.16	962.503	1.762
301.91	962.666	1.763
301.66	962.83	1.763
301.41	962.991	1.764
301.16	963.154	1.764
300.9	963.318	1.765
300.66	963.481	1.765
300.4	963.642	1.766
300.16	963.805	1.766
299.91	963.968	1.767
299.66	964.132	1.767
299.4	964.294	1.768
299.15	964.457	1.768
298.9	964.619	1.769
298.66	964.781	1.769
298.41	964.945	1.77
298.16	965.108	1.77
297.91	965.27	1.771
297.66	965.433	1.771
297.41	965.595	1.772
297.16	965.758	1.772
296.91	965.921	1.773
296.66	966.084	1.773
296.4	966.246	1.774
296.16	966.408	1.774
295.91	966.572	1.775
295.66	966.735	1.775
295.4	966.898	1.776
295.15	967.061	1.776
294.91	967.225	1.777
294.65	967.388	1.778
294.4	967.548	1.778
294.15	967.713	1.779
293.9	967.876	1.779
293.65	968.039	1.78
293.4	968.202	1.78
293.15	968.365	1.781
292.9	968.527	1.781
292.65	968.691	1.782
292.4	968.854	1.782
292.15	969.016	1.783
291.9	969.18	1.783
291.65	969.343	1.784
291.4	969.506	1.784
291.15	969.668	1.785
290.9	969.831	1.785
290.65	969.995	1.786
290.4	970.158	1.786
290.15	970.32	1.787
289.9	970.483	1.787
289.65	970.645	1.788
289.4	970.811	1.788
289.15	970.972	1.789
288.9	971.135	1.789
288.65	971.299	1.79
288.4	971.46	1.79
288.15	971.625	1.791
287.9	971.788	1.792
287.65	971.951	1.792
287.4	972.113	1.793
287.15	972.275	1.793
286.9	972.442	1.794
286.65	972.604	1.794
286.4	972.766	1.795
286.15	972.93	1.795
285.9	973.092	1.796
285.65	973.258	1.796
285.4	973.419	1.797
285.15	973.584	1.797
284.9	973.745	1.798
284.65	973.91	1.798
284.4	974.073	1.799
284.15	974.236	1.799
283.9	974.401	1.8
283.65	974.562	1.8
283.4	974.726	1.801
283.15	974.89	1.801
282.9	975.053	1.802
282.65	975.217	1.803
282.4	975.38	1.803
282.15	975.544	1.804
281.9	975.706	1.804
281.65	975.87	1.805
281.4	976.035	1.805
281.15	976.197	1.806
280.89	976.361	1.806
280.65	976.525	1.807
280.4	976.689	1.807
280.15	976.852	1.808
279.89	977.017	1.808
279.64	977.177	1.809
279.39	977.342	1.809
279.14	977.506	1.81
278.89	977.67	1.81
278.64	977.834	1.811
278.39	977.996	1.811
278.14	978.16	1.812

System: bis(2-hydroxyethyl)ammonium oleate; phases: Liquid crystal of unknown type
Fixed: Pressure, kPa = 101.325
Property: Speed of sound, m/s (Liquid crystal of unknown type); method: Sing-around technique in a fixed-path interferometer
Temperature, K	Speed of sound, m/s	uncertainty
343.15	1380.12	3.66
342.9	1380.79	3.66
342.66	1381.51	3.66
342.41	1382.26	3.66
342.16	1383.01	3.66
341.91	1383.76	3.66
341.65	1384.5	3.66
341.41	1385.25	3.66
341.16	1386	3.66
340.91	1386.72	3.66
340.66	1387.48	3.66
340.41	1388.22	3.66
340.15	1388.97	3.66
339.91	1389.72	3.66
339.66	1390.48	3.66
339.41	1391.23	3.66
339.16	1391.98	3.66
338.91	1392.75	3.66
338.66	1393.51	3.66
338.41	1394.26	3.66
338.16	1395.02	3.66
337.91	1395.78	3.66
337.66	1396.54	3.66
337.4	1397.31	3.66
337.16	1398.05	3.66
336.91	1398.82	3.66
336.66	1399.57	3.66
336.41	1400.33	3.66
336.16	1401.09	3.66
335.91	1401.85	3.66
335.66	1402.6	3.66
335.41	1403.37	3.66
335.16	1404.13	3.66
334.91	1404.88	3.66
334.66	1405.64	3.66
334.41	1406.39	3.66
334.16	1407.15	3.66
333.91	1407.9	3.66
333.66	1408.66	3.66
333.41	1409.42	3.66
333.16	1410.17	3.66
332.91	1410.93	3.66
332.66	1411.68	3.66
332.41	1412.45	3.66
332.16	1413.21	3.66
331.91	1413.95	3.66
331.66	1414.73	3.66
331.4	1415.5	3.66
331.16	1416.26	3.66
330.91	1417.02	3.66
330.66	1417.79	3.66
330.41	1418.55	3.66
330.16	1419.32	3.66
329.91	1420.08	3.66
329.66	1420.84	3.66
329.41	1421.62	3.66
329.16	1422.38	3.66
328.91	1423.15	3.66
328.66	1423.91	3.66
328.41	1424.69	3.66
328.16	1425.46	3.66
327.91	1426.23	3.66
327.66	1427	3.66
327.41	1427.78	3.66
327.16	1428.55	3.66
326.91	1429.3	3.66
326.66	1430.07	3.66
326.41	1430.85	3.66
326.16	1431.62	3.66
325.91	1432.38	3.66
325.66	1433.15	3.66
325.41	1433.93	3.66
325.16	1434.68	3.66
324.9	1435.44	3.66
324.66	1436.21	3.66
324.41	1436.98	3.66
324.16	1437.75	3.66
323.91	1438.52	3.66
323.66	1439.3	3.66
323.41	1440.07	3.66
323.16	1440.84	3.66
322.91	1441.62	3.66
322.65	1442.4	3.66
322.41	1443.18	3.66
322.16	1443.95	3.66
321.91	1444.73	3.66
321.66	1445.51	3.66
321.41	1446.28	3.66
321.16	1447.06	3.66
320.91	1447.84	3.66
320.66	1448.61	3.66
320.41	1449.41	3.66
320.16	1450.18	3.66
319.91	1450.95	3.66
319.66	1451.74	3.67
319.41	1452.52	3.67
319.16	1453.29	3.67
318.91	1454.07	3.67
318.66	1454.86	3.67
318.41	1455.64	3.67
318.16	1456.43	3.67
317.91	1457.21	3.67
317.66	1457.98	3.67
317.41	1458.77	3.67
317.16	1459.55	3.67
316.91	1460.32	3.67
316.66	1461.1	3.67
316.41	1461.89	3.67
316.16	1462.67	3.67
315.91	1463.44	3.67
315.65	1464.21	3.67
315.41	1465	3.67
315.16	1465.79	3.67
314.91	1466.58	3.67
314.66	1467.36	3.67
314.41	1468.15	3.67
314.16	1468.94	3.67
313.91	1469.74	3.67
313.66	1470.53	3.67
313.4	1471.33	3.67
313.16	1472.11	3.67
312.91	1472.9	3.67
312.66	1473.7	3.67
312.41	1474.5	3.67
312.16	1475.3	3.67
311.91	1476.08	3.67
311.66	1476.89	3.67
311.41	1477.7	3.67
311.16	1478.5	3.67
310.91	1479.3	3.67
310.66	1480.11	3.67
310.41	1480.9	3.67
310.16	1481.69	3.67
309.91	1482.51	3.67
309.66	1483.3	3.67
309.4	1484.09	3.67
309.16	1484.9	3.67
308.91	1485.7	3.67
308.65	1486.51	3.67
308.4	1487.3	3.67
308.16	1488.11	3.67
307.91	1488.89	3.67
307.66	1489.71	3.67
307.41	1490.52	3.67
307.16	1491.33	3.67
306.91	1492.14	3.67
306.65	1492.97	3.67
306.4	1493.77	3.67
306.16	1494.59	3.67
305.91	1495.41	3.67
305.66	1496.22	3.67
305.41	1497.03	3.67
305.16	1497.86	3.67
304.91	1498.67	3.67
304.66	1499.49	3.67
304.41	1500.31	3.67
304.16	1501.15	3.67
303.91	1501.97	3.67
303.66	1502.79	3.67
303.41	1503.63	3.67
303.16	1504.47	3.67
302.91	1505.3	3.67
302.66	1506.14	3.67
302.41	1506.98	3.67
302.16	1507.81	3.67
301.91	1508.65	3.67
301.66	1509.49	3.67
301.41	1510.32	3.67
301.16	1511.15	3.67
300.9	1511.99	3.67
300.66	1512.84	3.67
300.4	1513.66	3.67
300.16	1514.51	3.67
299.91	1515.36	3.67
299.4	1517.06	3.67
299.15	1517.9	3.67
298.9	1518.76	3.67
298.66	1519.6	3.67
298.41	1520.46	3.67
298.16	1521.33	3.67
297.91	1522.18	3.67
297.66	1523.04	3.67
297.41	1523.9	3.67
297.16	1524.77	3.67
296.91	1525.64	3.67
296.66	1526.51	3.67
296.4	1527.38	3.67
296.16	1528.26	3.67
295.91	1529.12	3.67
295.66	1530.01	3.67
295.4	1530.89	3.67
295.15	1531.77	3.67
294.91	1532.66	3.67
294.65	1533.55	3.67
294.4	1534.44	3.67
294.15	1535.33	3.67
293.9	1536.23	3.67
293.65	1537.11	3.67
293.4	1538	3.67
293.15	1538.89	3.67
292.9	1539.83	3.67
292.65	1540.75	3.67
292.4	1541.69	3.67
292.15	1542.7	3.67
291.9	1543.77	3.67
291.65	1544.86	3.67
291.4	1545.87	3.67
291.15	1546.86	3.67
290.9	1547.88	3.67
290.65	1548.87	3.67
290.4	1549.83	3.67
290.15	1550.82	3.67
289.9	1551.8	3.67
289.65	1552.77	3.67
289.4	1553.79	3.67
289.15	1554.79	3.67
288.9	1555.77	3.67
288.65	1556.74	3.67
288.4	1557.76	3.67
288.15	1558.76	3.67
287.9	1559.77	3.67
287.65	1560.77	3.67
287.4	1561.75	3.67
287.15	1562.77	3.67
286.9	1563.8	3.67
286.65	1564.82	3.67
286.4	1565.83	3.67
286.15	1566.86	3.67
285.9	1567.88	3.67
285.65	1568.9	3.67
285.4	1569.91	3.67
285.15	1570.95	3.67
284.9	1571.97	3.67
284.65	1573.02	3.67
284.4	1574.02	3.67
284.15	1575.08	3.67
283.9	1576.17	3.67
283.65	1577.17	3.67
283.4	1578.24	3.67
283.15	1579.27	3.67
282.9	1580.33	3.67
282.65	1581.38	3.67
282.4	1582.47	3.67
282.15	1583.54	3.67
281.9	1584.58	3.67
281.65	1585.69	3.67
281.4	1586.78	3.67
281.15	1587.89	3.67
280.89	1588.96	3.67
280.65	1590.07	3.67
280.4	1591.2	3.67
280.15	1592.31	3.67
279.89	1593.47	3.67
279.64	1594.56	3.67
279.39	1595.73	3.68
279.14	1596.88	3.68
278.89	1598.08	3.68
278.64	1599.18	3.68
278.39	1600.32	3.68
278.14	1601.51	3.68

System: bis(2-hydroxyethyl)ammonium oleate; phases: Liquid crystal of unknown type
Fixed: Pressure, kPa = 101.325
Property: Refractive index (Na D-line) (Liquid crystal of unknown type); method: Standard Abbe refractometry
Temperature, K	Refractive index (Na D-line)	uncertainty
278.35	1.4956	0.00068
288.25	1.49226	0.00068
298.05	1.48855	0.00068
308.22	1.48463	0.00068
318.23	1.48023	0.00068
328.05	1.47673	0.00068
338.05	1.47267	0.00068
341.15	1.47055	0.00075
343.25	1.46364	0.00094

System: bis(2-hydroxyethyl)ammonium oleate; phases: Liquid crystal of unknown type
Property: Viscosity, Pa*s (Liquid crystal of unknown type); method: Visco Elite L rheometer
Temperature, K	Pressure, kPa	Viscosity, Pa*s	uncertainty
368.15	101.325	0.0372	0.0007

System: bis(2-hydroxyethyl)ammonium oleate; phases: Liquid
Property: Viscosity, Pa*s (Liquid); method: Visco Elite L rheometer
Temperature, K	Pressure, kPa	Viscosity, Pa*s	uncertainty
368.15	101.325	0.0372	0.0007
