Measured thermophysical data. Liquid liquid equilibria of the systems dipropyl ether + n-propanol +water and dipropyl ether + n-propanol + ethylene glycol at different temperatures
Source: Fluid Phase Equilib., 2007, 10.1016/j.fluid.2007.08.008
Compound 1: dipropyl ether, C6H14O, InChI=1S/C6H14O/c1-3-5-7-6-4-2/h3-6H2,1-2H3, purity 90%
Compound 2: propan-1-ol, C3H8O, InChI=1S/C3H8O/c1-2-3-4/h4H,2-3H2,1H3, purity 99.5%
Compound 3: water, H2O, InChI=1S/H2O/h1H2
Compound 4: 1,2-ethanediol, C2H6O2, InChI=1S/C2H6O2/c3-1-2-4/h3-4H,1-2H2, purity 99.5%

System: dipropyl ether; phases: Liquid
Property: Refractive index (Na D-line) (Liquid); method: Standard Abbe refractometry
Temperature, K	Pressure, kPa	Refractive index (Na D-line)	uncertainty
298.15	101.325	1.3784	0.0045

System: dipropyl ether; phases: Liquid
Property: Mass density, kg/m3 (Liquid); method: Vibrating tube method
Temperature, K	Pressure, kPa	Mass density, kg/m3	uncertainty
298.15	101.325	741.81	13.29

System: propan-1-ol; phases: Liquid
Property: Refractive index (Na D-line) (Liquid); method: Standard Abbe refractometry
Temperature, K	Pressure, kPa	Refractive index (Na D-line)	uncertainty
298.15	101.325	1.3836	0.004

System: propan-1-ol; phases: Liquid
Property: Mass density, kg/m3 (Liquid); method: Vibrating tube method
Temperature, K	Pressure, kPa	Mass density, kg/m3	uncertainty
298.15	101.325	799.62	0.14

System: water; phases: Liquid
Property: Refractive index (Na D-line) (Liquid); method: Standard Abbe refractometry
Temperature, K	Pressure, kPa	Refractive index (Na D-line)	uncertainty
298.15	101.325	1.3325	0.004

System: water; phases: Liquid
Property: Mass density, kg/m3 (Liquid); method: Vibrating tube method
Temperature, K	Pressure, kPa	Mass density, kg/m3	uncertainty
298.15	101.325	997.06	0.23

System: 1,2-ethanediol; phases: Liquid
Property: Refractive index (Na D-line) (Liquid); method: Standard Abbe refractometry
Temperature, K	Pressure, kPa	Refractive index (Na D-line)	uncertainty
298.15	101.325	1.4306	0.004

System: 1,2-ethanediol; phases: Liquid
Property: Mass density, kg/m3 (Liquid); method: Vibrating tube method
Temperature, K	Pressure, kPa	Mass density, kg/m3	uncertainty
298.15	101.325	1109.9	0.32

System: propan-1-ol + dipropyl ether + water; phases: Liquid mixture 1, Liquid mixture 2
Fixed: Pressure, kPa = 101.325
Property: Mole fraction of propan-1-ol (Liquid mixture 1); method: Chromatography
Property: Mole fraction of dipropyl ether (Liquid mixture 2); method: Chromatography
Property: Mole fraction of propan-1-ol (Liquid mixture 2); method: Chromatography
Temperature, K	Mole fraction of dipropyl ether	Mole fraction of propan-1-ol	uncertainty	Mole fraction of dipropyl ether	uncertainty	Mole fraction of propan-1-ol	uncertainty
283.15	0.978	0	0.001	0.001	0.001	0	
283.15	0.955	0.017	0.005	0.001	0.001	0.009	
283.15	0.906	0.052	0.005	0.003	0.003	0.022	
283.15	0.864	0.086	0.005	0.003	0.003	0.029	
283.15	0.797	0.135	0.005	0.001	0.001	0.036	
283.15	0.725	0.178	0.005	0.001	0.001	0.041	
283.15	0.657	0.232	0.005	0.001	0.001	0.044	
283.15	0.593	0.271	0.005	0.001	0.001	0.048	
283.15	0.55	0.294	0.005	0.001	0.001	0.049	
283.15	0.471	0.338	0.005	0.001	0.001	0.052	
283.15	0.425	0.363	0.005	0.004	0.004	0.057	
283.15	0.374	0.383	0.005	0.001	0.001	0.056	
283.15	0.335	0.401	0.005	0.001	0.001	0.057	
283.15	0.303	0.401	0.005	0.002	0.002	0.058	
283.15	0.188	0.42	0.005	0.001	0.001	0.066	
283.15	0.177	0.426	0.005	0.002	0.002	0.068	
283.15	0.15	0.419	0.005	0.001	0.001	0.07	
283.15	0.108	0.396	0.005	0.002	0.002	0.081	
283.15	0.089	0.381	0.007	0.003	0.003	0.092	
283.15	0.057	0.335	0.008	0.003	0.003	0.099	
283.15	0.046	0.31	0.011	0.004	0.004	0.106	
283.15	0.041	0.296	0.012	0.004	0.004	0.102	
323.15	0.978	0	0.001	0	0.001	0	
323.15	0.928	0.029	0.005	0	0.001	0.006	
323.15	0.871	0.079	0.005	0	0.001	0.015	
323.15	0.813	0.122	0.005	0	0.001	0.019	
323.15	0.749	0.166	0.007	0.001	0.001	0.024	
323.15	0.743	0.174	0.007	0	0.001	0.024	
323.15	0.671	0.213	0.005	0.001	0.001	0.028	
323.15	0.609	0.252	0.005	0.001	0.001	0.03	
323.15	0.548	0.29	0.005	0	0.001	0.032	
323.15	0.519	0.308	0.005	0.001	0.001	0.035	
323.15	0.454	0.341	0.005	0.001	0.001	0.037	
323.15	0.438	0.352	0.005	0	0.001	0.036	
323.15	0.373	0.379	0.005	0.001	0.001	0.04	
323.15	0.352	0.391	0.005	0	0.001	0.04	
323.15	0.345	0.391	0.005	0.001	0.001	0.042	
323.15	0.302	0.404	0.006	0.001	0.001	0.044	
323.15	0.293	0.411	0.006	0.001	0.001	0.044	
323.15	0.244	0.413	0.005	0.001	0.001	0.048	
323.15	0.201	0.411	0.005	0.001	0.001	0.051	
323.15	0.189	0.418	0.005	0.001	0.001	0.052	
323.15	0.173	0.41	0.005	0.001	0.001	0.053	
323.15	0.171	0.416	0.005	0.001	0.001	0.052	
323.15	0.16	0.414	0.005	0.001	0.001	0.053	
323.15	0.133	0.405	0.005	0.001	0.001	0.056	
323.15	0.096	0.382	0.01	0.002	0.002	0.069	
323.15	0.09	0.369	0.008	0.001	0.001	0.067	
323.15	0.076	0.349	0.007	0.002	0.002	0.07	

System: propan-1-ol + 1,2-ethanediol + dipropyl ether; phases: Liquid mixture 1, Liquid mixture 2
Fixed: Pressure, kPa = 101.325
Property: Mole fraction of propan-1-ol (Liquid mixture 1); method: Chromatography
Property: Mole fraction of propan-1-ol (Liquid mixture 2); method: Chromatography
Property: Mole fraction of dipropyl ether (Liquid mixture 2); method: Chromatography
Temperature, K	Mole fraction of dipropyl ether	Mole fraction of propan-1-ol	uncertainty	Mole fraction of propan-1-ol	uncertainty	Mole fraction of dipropyl ether	uncertainty
283.15	0.991	0	0.001	0	0.001	0.005	
283.15	0.927	0.059	0.005	0.082	0.032	0.013	
283.15	0.907	0.075	0.005	0.102	0.029	0.017	
283.15	0.899	0.083	0.006	0.11	0.02	0.019	
283.15	0.864	0.108	0.005	0.135	0.018	0.024	
283.15	0.834	0.129	0.005	0.162	0.011	0.031	
283.15	0.816	0.143	0.005	0.169	0.01	0.038	
283.15	0.788	0.16	0.005	0.189	0.01	0.039	
283.15	0.777	0.169	0.005	0.195	0.007	0.046	
283.15	0.75	0.186	0.005	0.209	0.012	0.053	
283.15	0.735	0.194	0.005	0.217	0.009	0.056	
283.15	0.706	0.211	0.005	0.236	0.008	0.06	
283.15	0.67	0.23	0.005	0.245	0.007	0.073	
283.15	0.647	0.241	0.005	0.261	0.007	0.077	
283.15	0.623	0.25	0.005	0.274	0.007	0.087	
283.15	0.59	0.265	0.005	0.284	0.005	0.095	
283.15	0.56	0.277	0.005	0.286	0.005	0.111	
283.15	0.54	0.29	0.005	0.294	0.005	0.121	
283.15	0.488	0.3	0.005	0.307	0.008	0.15	
283.15	0.46	0.312	0.005	0.318	0.005	0.157	
283.15	0.413	0.317	0.005	0.323	0.005	0.183	
323.15	0.99	0	0.001	0	0.001	0.006	
323.15	0.972	0.016	0.005	0.019	0.019	0.01	
323.15	0.95	0.032	0.005	0.038	0.025	0.011	
323.15	0.928	0.05	0.005	0.057	0.024	0.014	
323.15	0.904	0.069	0.005	0.076	0.022	0.018	
323.15	0.881	0.087	0.005	0.096	0.02	0.022	
323.15	0.866	0.095	0.005	0.103	0.021	0.023	
323.15	0.832	0.122	0.005	0.127	0.016	0.028	
323.15	0.797	0.143	0.005	0.147	0.009	0.034	
323.15	0.776	0.156	0.005	0.159	0.011	0.043	
323.15	0.742	0.176	0.005	0.176	0.011	0.045	
323.15	0.728	0.184	0.005	0.19	0.009	0.051	
323.15	0.697	0.201	0.005	0.197	0.01	0.056	
323.15	0.678	0.211	0.005	0.216	0.009	0.063	
323.15	0.647	0.226	0.005	0.225	0.007	0.071	
323.15	0.607	0.242	0.005	0.249	0.007	0.088	
323.15	0.576	0.256	0.005	0.258	0.006	0.096	
323.15	0.548	0.268	0.005	0.267	0.005	0.109	
323.15	0.506	0.283	0.005	0.279	0.005	0.123	
323.15	0.457	0.293	0.005	0.288	0.005	0.146	
323.15	0.408	0.294	0.005	0.29	0.005	0.177	
323.15	0.375	0.309	0.005	0.311	0.005	0.267	
