Measured thermophysical data. Solid-liquid phase equilibria in the aqueous ternary system Li2SO4 + LiBO2 + H2O at T = 288.15 and 298.15 K
Source: Fluid Phase Equilib., 2014, 10.1016/j.fluid.2014.03.019
Compound 1: water, H2O, InChI=1S/H2O/h1H2, purity 99.9%
Compound 2: lithium sulfate, Li2O4S, InChI=1S/2Li.H2O4S/c;;1-5(2,3)4/h;;(H2,1,2,3,4)/q2*+1;/p-2, purity 99%
Compound 3: lithium metaborate, BLiO2, InChI=1S/BO2.Li/c2-1-3;/q-1;+1, purity 99%

System: water + lithium sulfate + lithium metaborate; phases: Liquid, Crystal of intercomponent compound 1
Fixed: Pressure, kPa = 100
Property: Mass fraction of lithium metaborate (Liquid); method: Titration method
Temperature, K	Mass fraction of lithium sulfate	Mass fraction of lithium metaborate	uncertainty
288.15	0	0.0187	0.0012
288.15	0.025	0.0173	0.0012
288.15	0.0446	0.0117	0.0012
288.15	0.0661	0.0118	0.0012
288.15	0.0956	0.0121	0.0012
288.15	0.1209	0.0101	0.0012
288.15	0.147	0.0098	0.0012
288.15	0.1604	0.0113	0.0012
288.15	0.1952	0.0102	0.0012
288.15	0.2047	0.009	0.0012
288.15	0.2345	0.0097	0.0012
288.15	0.2426	0.0097	0.0012
298.15	0	0.0336	0.0012
298.15	0.0274	0.0322	0.0012
298.15	0.0548	0.0315	0.0012
298.15	0.0831	0.0299	0.0012
298.15	0.1056	0.0277	0.0012
298.15	0.139	0.0262	0.0012
298.15	0.1679	0.0262	0.0012
298.15	0.1993	0.0292	0.0012
298.15	0.2135	0.0297	0.0012
298.15	0.2333	0.0285	0.0012
298.15	0.2386	0.0279	0.0012

System: water + lithium sulfate + lithium metaborate; phases: Liquid, Crystal of intercomponent compound 2, Crystal of intercomponent compound 1
Fixed: Pressure, kPa = 100
Property: Mass fraction of lithium sulfate (Liquid); method: Titration method
Temperature, K	Mass fraction of lithium sulfate	uncertainty
288.15	0.2456	0.0013
298.15	0.2471	0.0013

System: water + lithium sulfate + lithium metaborate; phases: Liquid, Crystal of intercomponent compound 2
Fixed: Pressure, kPa = 100
Property: Mass fraction of lithium metaborate (Liquid); method: Titration method
Temperature, K	Mass fraction of lithium sulfate	Mass fraction of lithium metaborate	uncertainty
288.15	0.2467	0.0051	0.0015
288.15	0.2485	0.0036	0.0015
288.15	0.2596	0	
298.15	0.2471	0.0059	0.0013
298.15	0.2537	0.0029	0.0014
298.15	0.2561	0	

System: water + lithium sulfate + lithium metaborate; phases: Liquid, Crystal of intercomponent compound 2, Crystal of intercomponent compound 1
Fixed: Pressure, kPa = 100
Property: Mass fraction of lithium metaborate (Liquid); method: Titration method
Temperature, K	Mass fraction of lithium metaborate	uncertainty
288.15	0.0088	0.0012
298.15	0.0234	0.0012

System: water + lithium sulfate + lithium metaborate; phases: Liquid, Crystal of intercomponent compound 1
Property: Mass density, kg/m3 (Liquid); method: Vibrating tube method
Temperature, K	Mass fraction of lithium sulfate	Mass fraction of lithium metaborate	Mass density, kg/m3	uncertainty
288.15	0	0.0187	1023.17	0.34
288.15	0.025	0.0173	1035.45	0.35
288.15	0.0446	0.0117	1053.98	0.28
288.15	0.0661	0.0118	1076.01	0.29
288.15	0.0956	0.0121	1097.17	0.36
288.15	0.1209	0.0101	1119.83	0.31
288.15	0.147	0.0098	1140.39	0.42
288.15	0.1604	0.0113	1161.42	0.49
288.15	0.1952	0.0102	1187.67	0.35
288.15	0.2047	0.009	1191.77	0.37
288.15	0.2345	0.0097	1215.66	0.86
288.15	0.2426	0.0097	1248.31	0.87
298.15	0	0.0336	1035.63	0.26
298.15	0.0274	0.0322	1044.08	0.11
298.15	0.0548	0.0315	1065.06	1.43
298.15	0.0831	0.0299	1090.54	0.55
298.15	0.1056	0.0277	1115.58	2.5
298.15	0.139	0.0262	1139.74	0.49
298.15	0.1679	0.0262	1159.15	0.42
298.15	0.1993	0.0292	1190.28	1.92
298.15	0.2135	0.0297	1194.46	4.08
298.15	0.2333	0.0285	1199.77	34.37
298.15	0.2386	0.0279	1251.68	34.37

System: water + lithium sulfate + lithium metaborate; phases: Liquid, Crystal of intercomponent compound 2
Property: Mass density, kg/m3 (Liquid); method: Vibrating tube method
Temperature, K	Mass fraction of lithium sulfate	Mass fraction of lithium metaborate	Mass density, kg/m3	uncertainty
288.15	0.2467	0.0051	1248.8	2.41
288.15	0.2485	0.0036	1245.02	5.44
288.15	0.2596	0	1246.65	1.81
298.15	0.2471	0.0059	1243.32	0.72
298.15	0.2537	0.0029	1239.48	5.18
298.15	0.2561	0	1245.02	2.69

System: water + lithium sulfate + lithium metaborate; phases: Liquid, Crystal of intercomponent compound 1, Crystal of intercomponent compound 2
Property: Mass density, kg/m3 (Liquid); method: Vibrating tube method
Temperature, K	Mass fraction of lithium sulfate	Mass density, kg/m3	uncertainty
288.15	0.2456	1256.64	0.42
298.15	0.2442	1264.07	0.42

System: water + lithium sulfate + lithium metaborate; phases: Liquid, Crystal of intercomponent compound 1, Crystal of intercomponent compound 2
Property: Mass density, kg/m3 (Liquid); method: Vibrating tube method
Temperature, K	Mass fraction of lithium metaborate	Mass density, kg/m3	uncertainty
288.15	0.0088	1256.64	0.39
298.15	0.0234	1264.07	0.4

System: water + lithium sulfate + lithium metaborate; phases: Liquid, Crystal of intercomponent compound 1
Property: Refractive index (Na D-line) (Liquid); method: Standard Abbe refractometry
Temperature, K	Mass fraction of lithium sulfate	Mass fraction of lithium metaborate	Refractive index (Na D-line)	uncertainty
288.15	0	0.0187	1.341	0.0005
288.15	0.025	0.0173	1.3431	0.0005
288.15	0.0446	0.0117	1.3458	0.0005
288.15	0.0661	0.0118	1.35	0.0004
288.15	0.0956	0.0121	1.3528	0.0008
288.15	0.1209	0.0101	1.3573	0.0017
288.15	0.147	0.0098	1.3625	0.0008
288.15	0.1604	0.0113	1.3661	0.0006
288.15	0.1952	0.0102	1.3702	0.0024
288.15	0.2047	0.009	1.3751	0.0005
288.15	0.2345	0.0097	1.3755	0.0011
288.15	0.2426	0.0097	1.381	0.0011
298.15	0	0.0336	1.3452	0.0004
298.15	0.0274	0.0322	1.348	0.0004
298.15	0.0548	0.0315	1.3512	0.0004
298.15	0.0831	0.0299	1.3549	0.0005
298.15	0.1056	0.0277	1.3582	0.0004
298.15	0.139	0.0262	1.3632	0.0004
298.15	0.1679	0.0262	1.3672	0.0008
298.15	0.1993	0.0292	1.3734	0.003
298.15	0.2135	0.0297	1.374	0.003
298.15	0.2333	0.0285	1.3749	0.0006
298.15	0.2386	0.0279	1.384	0.0007

System: water + lithium sulfate + lithium metaborate; phases: Liquid, Crystal of intercomponent compound 2
Property: Refractive index (Na D-line) (Liquid); method: Standard Abbe refractometry
Temperature, K	Mass fraction of lithium sulfate	Mass fraction of lithium metaborate	Refractive index (Na D-line)	uncertainty
288.15	0.2467	0.0051	1.3799	0.0007
288.15	0.2485	0.0036	1.379	0.0012
288.15	0.2596	0	1.3788	0.0005
298.15	0.2471	0.0059	1.3788	0.0004
298.15	0.2537	0.0029	1.378	0.0006
298.15	0.2561	0	1.3771	0.0006

System: water + lithium sulfate + lithium metaborate; phases: Liquid, Crystal of intercomponent compound 1, Crystal of intercomponent compound 2
Property: Refractive index (Na D-line) (Liquid); method: Standard Abbe refractometry
Temperature, K	Mass fraction of lithium sulfate	Refractive index (Na D-line)	uncertainty
288.15	0.2456	1.3812	0.0004
298.15	0.2442	1.3881	0.0004

System: water + lithium sulfate + lithium metaborate; phases: Liquid, Crystal of intercomponent compound 1, Crystal of intercomponent compound 2
Property: Refractive index (Na D-line) (Liquid); method: Standard Abbe refractometry
Temperature, K	Mass fraction of lithium metaborate	Refractive index (Na D-line)	uncertainty
288.15	0.0088	1.3812	0.0004
298.15	0.0234	1.3881	0.0004

System: water + lithium metaborate; phases: Liquid, Crystal of intercomponent compound 1
Fixed: Pressure, kPa = 100
Property: Mass fraction of lithium metaborate (Liquid); method: Titration method
Temperature, K	Mass fraction of lithium metaborate	uncertainty
288.15	0.0187	0.0012
298.15	0.0336	0.0012

System: water + lithium metaborate; phases: Liquid, Crystal of intercomponent compound 1
Property: Mass density, kg/m3 (Liquid); method: Vibrating tube method
Temperature, K	Mass fraction of lithium metaborate	Mass density, kg/m3	uncertainty
288.15	0.0187	1023.17	0.34
298.15	0.0336	1035.63	0.26

System: water + lithium metaborate; phases: Liquid, Crystal of intercomponent compound 1
Property: Refractive index (Na D-line) (Liquid); method: Standard Abbe refractometry
Temperature, K	Mass fraction of lithium metaborate	Refractive index (Na D-line)	uncertainty
288.15	0.0187	1.341	0.0005
298.15	0.0336	1.3452	0.0004

System: water + lithium sulfate; phases: Liquid, Crystal of intercomponent compound 1
Fixed: Pressure, kPa = 100
Property: Solid-liquid equilibrium temperature, K (Liquid); method: Titration method
Mass fraction of lithium sulfate	Solid-liquid equilibrium temperature, K	uncertainty
0.2596	288.15	
0.2561	298.15	

System: water + lithium sulfate; phases: Liquid, Crystal of intercomponent compound 2
Property: Mass density, kg/m3 (Liquid); method: Vibrating tube method
Temperature, K	Mass fraction of lithium sulfate	Mass density, kg/m3	uncertainty
288.15	0.2596	1246.65	1.81
298.15	0.2561	1245.02	2.69

System: water + lithium sulfate; phases: Liquid, Crystal of intercomponent compound 2
Property: Refractive index (Na D-line) (Liquid); method: Standard Abbe refractometry
Temperature, K	Mass fraction of lithium sulfate	Refractive index (Na D-line)	uncertainty
288.15	0.2596	1.3788	0.0005
298.15	0.2561	1.3771	0.0006
