Measured thermophysical data. High pressure solubility of carbon dioxide (CO2) in aqueous piperazine solutions
Source: Fluid Phase Equilib., 2010, 10.1016/j.fluid.2010.01.009
Compound 1: carbon dioxide, CO2, InChI=1S/CO2/c2-1-3
Compound 2: 2-aminoethan-1-ol, C2H7NO, InChI=1S/C2H7NO/c3-1-2-4/h4H,1-3H2, purity 99%
Compound 3: water, H2O, InChI=1S/H2O/h1H2
Compound 4: piperazine, C4H10N2, InChI=1S/C4H10N2/c1-2-6-4-3-5-1/h5-6H,1-4H2, purity 99%

System: carbon dioxide + 2-aminoethan-1-ol + water; phases: Liquid, Gas
Fixed: Temperature, K = 313
Fixed: Solvent: Mass fraction of 2-aminoethan-1-ol = 0.3
Property: Amount ratio of solute to solvent of carbon dioxide (Liquid); method: Gas Chromatography
Pressure, kPa	Amount ratio of solute to solvent of carbon dioxide	uncertainty
116	0.069571437	0.004174286
465	0.079670517	0.004780231
659	0.085281117	0.005116867
901	0.088647476	0.005318849
1761	0.096502316	0.005790139
3079	0.10211292	0.006126775
5329	0.11108988	0.006665393

System: piperazine + carbon dioxide + water; phases: Liquid, Gas
Property: Vapor or sublimation pressure, kPa (Liquid); method: Ebulliometric method (Recirculating still)
Temperature, K	Amount concentration (molarity), mol/dm3 of piperazine	Amount ratio of solute to solvent of carbon dioxide	Vapor or sublimation pressure, kPa	uncertainty
313	0.3	1.09	205	6
313	0.3	1.19	412	7
313	0.3	1.39	849	10
313	0.3	1.49	1108	11
313	0.3	1.69	1537	15
313	0.3	1.83	1979	21
313	0.3	2.06	2783	25
313	0.3	2.23	3502	26
313	0.3	2.43	4536	51
313	0.3	2.61	5421	61
313	0.3	2.77	6489	73
313	1.2	1.06	217	8
313	1.2	1.11	379	11
313	1.2	1.15	519	11
313	1.2	1.2	692	14
313	1.2	1.24	936	18
313	1.2	1.41	1577	19
313	1.2	1.52	2230	27
313	1.2	1.64	3224	30
313	1.2	1.83	4265	36
313	1.2	1.94	5149	48
313	1.2	2.03	6150	58
343	0.3	0.98	232	9
343	0.3	1.03	448	10
343	0.3	1.13	868	10
343	0.3	1.31	1500	11
343	0.3	1.44	2115	15
343	0.3	1.62	3181	19
343	0.3	1.86	4285	24
343	0.3	1.99	5214	29
343	0.3	2.06	5745	31
343	1.2	0.92	198	16
343	1.2	0.96	515	11
343	1.2	1.05	893	15
343	1.2	1.13	1593	21
343	1.2	1.17	1900	21
343	1.2	1.23	2362	21
343	1.2	1.37	3254	27
343	1.2	1.51	4314	35
343	1.2	1.59	5174	41
343	1.2	1.7	6150	47
343	1.2	1.8	7399	60
