Measured thermophysical data. Solubilities of adipic acid in binary cyclohexanone + cyclohexanol, cyclohexane + cyclohexanol, and cyclohexane + cyclohexanone solvent mixtures
Source: Fluid Phase Equilib., 2016, 10.1016/j.fluid.2016.01.006
Compound 1: cyclohexanol, C6H12O, InChI=1S/C6H12O/c7-6-4-2-1-3-5-6/h6-7H,1-5H2, purity 97%
Compound 2: cyclohexane, C6H12, InChI=1S/C6H12/c1-2-4-6-5-3-1/h1-6H2, purity 99.5%
Compound 3: 1,6-hexanedioic acid, C6H10O4, InChI=1S/C6H10O4/c7-5(8)3-1-2-4-6(9)10/h1-4H2,(H,7,8)(H,9,10), purity 99%
Compound 4: cyclohexanone, C6H10O, InChI=1S/C6H10O/c7-6-4-2-1-3-5-6/h1-5H2, purity 99%

System: cyclohexanol + cyclohexane + 1,6-hexanedioic acid; phases: Liquid, Crystal
Fixed: Pressure, kPa = 101.3
Property: Mass ratio of solute to solvent of 1,6-hexanedioic acid (Liquid); method: Visual
Solvent: Mass fraction of cyclohexane	Temperature, K	Mass ratio of solute to solvent of 1,6-hexanedioic acid	uncertainty
0	307.75	0.0723	0.0058
0	312.55	0.0853	0.0068
0	316.65	0.0984	0.0079
0	320.55	0.1119	0.009
0	324.35	0.1257	0.0101
0	327.55	0.1397	0.0112
0	330.45	0.1536	0.0123
0	333.75	0.1676	0.0134
0	337.35	0.1884	0.0151
0	342.65	0.2197	0.0176
0	346.95	0.2501	0.02
0.2	304.35	0.0473	0.0038
0.2	308.05	0.0547	0.0044
0.2	311.85	0.0622	0.005
0.2	314.65	0.0697	0.0056
0.2	318.65	0.0801	0.0064
0.2	322.45	0.0904	0.0072
0.2	325.95	0.1008	0.0081
0.2	329.15	0.1113	0.0089
0.2	333.05	0.1247	0.01
0.2	336.25	0.1383	0.0111
0.2	339.45	0.152	0.0122
0.4	306.65	0.0355	0.0028
0.4	310.25	0.0404	0.0032
0.4	313.55	0.0453	0.0036
0.4	316.45	0.0505	0.004
0.4	321.05	0.0576	0.0046
0.4	324.35	0.0647	0.0052
0.4	327.75	0.0719	0.0058
0.4	330.55	0.0793	0.0064
0.4	334.05	0.0876	0.007
0.4	337.05	0.0959	0.0077
0.6	304.45	0.0186	0.0015
0.6	308.15	0.0213	0.0017
0.6	311.55	0.024	0.0019
0.6	314.85	0.0267	0.0021
0.6	318.35	0.03	0.0024
0.6	321.75	0.0333	0.0027
0.6	324.95	0.0367	0.0029
0.6	328.55	0.0409	0.0033
0.6	332.15	0.0451	0.0036
0.6	335.75	0.0502	0.004
0.6	339.25	0.0554	0.0044
0.8	304.15	0.0067	0.0005
0.8	307.15	0.0075	0.0006
0.8	311.15	0.0086	0.0007
0.8	315.15	0.0097	0.0008
0.8	318.85	0.0109	0.0009
0.8	322.45	0.0121	0.001
0.8	327.45	0.0137	0.0011
0.8	332.05	0.0154	0.0012
0.8	336.35	0.0171	0.0014

System: cyclohexanone + cyclohexane + 1,6-hexanedioic acid; phases: Liquid, Crystal
Fixed: Pressure, kPa = 101.3
Property: Mass ratio of solute to solvent of 1,6-hexanedioic acid (Liquid); method: Visual
Solvent: Mass fraction of cyclohexane	Temperature, K	Mass ratio of solute to solvent of 1,6-hexanedioic acid	uncertainty
0	305.05	0.0325	0.0026
0	309.35	0.0388	0.0031
0	313.35	0.0451	0.0036
0	316.85	0.0515	0.0041
0	321.95	0.0625	0.005
0	326.35	0.0739	0.0059
0	330.85	0.0873	0.007
0	334.65	0.1014	0.0081
0	338.9	0.1213	0.0097
0	343.15	0.1414	0.0113
0	346.95	0.1616	0.0129
0.2	304.85	0.0169	0.0014
0.2	309.35	0.0203	0.0016
0.2	313.35	0.0237	0.0019
0.2	316.65	0.0273	0.0022
0.2	319.85	0.0309	0.0025
0.2	323.85	0.0359	0.0029
0.2	326.95	0.0412	0.0033
0.2	330.85	0.0486	0.0039
0.2	334.85	0.0563	0.0045
0.2	338.05	0.0644	0.0052
0.4	305.45	0.0076	0.0006
0.4	310.35	0.0093	0.0007
0.4	314.85	0.011	0.0009
0.4	318.25	0.0128	0.001
0.4	321.35	0.0146	0.0012
0.4	324.25	0.0164	0.0013
0.4	327.85	0.0191	0.0015
0.4	331.15	0.0219	0.0018
0.4	334.05	0.0247	0.002
0.4	337.55	0.0281	0.0023
0.6	306.25	0.0027	0.0002
0.6	310.45	0.0032	0.0003
0.6	314.55	0.0038	0.0003
0.6	318.25	0.0043	0.0003
0.6	321.25	0.0049	0.0004
0.6	323.65	0.0056	0.0005
0.6	326.75	0.0064	0.0005
0.6	329.85	0.0073	0.0006
0.6	335.15	0.0091	0.0007
0.6	340.25	0.0109	0.0009
0.6	344.05	0.0128	0.001

System: cyclohexanol + cyclohexanone + 1,6-hexanedioic acid; phases: Liquid, Crystal
Fixed: Pressure, kPa = 101.3
Property: Mass ratio of solute to solvent of 1,6-hexanedioic acid (Liquid); method: Visual
Solvent: Mass fraction of cyclohexanone	Temperature, K	Mass ratio of solute to solvent of 1,6-hexanedioic acid	uncertainty
0	307.75	0.0723	0.0058
0	312.55	0.0853	0.0068
0	316.65	0.0984	0.0079
0	320.55	0.1119	0.009
0	324.35	0.1257	0.0101
0	327.55	0.1397	0.0112
0	330.45	0.1536	0.0123
0	333.75	0.1676	0.0134
0	337.35	0.1884	0.0151
0	342.65	0.2197	0.0176
0	346.95	0.2501	0.02
0.2	305.85	0.0844	0.0068
0.2	309.65	0.0935	0.0075
0.2	313.25	0.103	0.0082
0.2	316.65	0.1125	0.009
0.2	320.45	0.1255	0.01
0.2	324.35	0.1386	0.0111
0.2	330.05	0.1599	0.0128
0.2	334.55	0.1816	0.0145
0.2	338.45	0.2035	0.0163
0.2	343.75	0.2334	0.0187
0.2	348.65	0.2641	0.0211
0.4	304.65	0.0832	0.0067
0.4	308.65	0.0925	0.0074
0.4	312.45	0.1022	0.0082
0.4	315.85	0.1117	0.0089
0.4	319.95	0.1237	0.0099
0.4	323.45	0.1357	0.0109
0.4	328.95	0.1559	0.0125
0.4	333.85	0.176	0.0141
0.4	338.25	0.1961	0.0157
0.4	342.75	0.2213	0.0177
0.4	346.75	0.2466	0.0197
0.6	303.15	0.0739	0.0059
0.6	306.25	0.0802	0.0064
0.6	309.45	0.0864	0.0069
0.6	312.35	0.0927	0.0074
0.6	314.85	0.099	0.0079
0.6	317.9	0.1073	0.0086
0.6	320.65	0.1155	0.0093
0.6	324.05	0.1267	0.0101
0.6	327.45	0.1383	0.0111
0.6	332.45	0.1554	0.0124
0.6	335.95	0.1725	0.0138
0.6	342.85	0.2055	0.0165
0.8	304.25	0.0568	0.0046
0.8	308.25	0.064	0.0051
0.8	312.15	0.0714	0.0057
0.8	315.75	0.0787	0.0063
0.8	319.25	0.0863	0.0069
0.8	322.45	0.0954	0.0076
0.8	325.55	0.1045	0.0084
0.8	330.75	0.1221	0.0098
0.8	335.15	0.1403	0.0112
0.8	343.25	0.1759	0.0141
0.8	349.45	0.2132	0.0171
1	305.05	0.0325	0.0026
1	309.35	0.0388	0.0031
1	313.35	0.0451	0.0036
1	316.85	0.0515	0.0041
1	321.95	0.0625	0.005
1	326.35	0.0739	0.0059
1	330.85	0.0873	0.007
1	334.65	0.1014	0.0081
1	338.9	0.1213	0.0097
1	343.15	0.1414	0.0113
1	346.95	0.1616	0.0129

System: cyclohexanol + 1,6-hexanedioic acid; phases: Liquid, Crystal
Fixed: Pressure, kPa = 101.3
Property: Mass ratio of solute to solvent of 1,6-hexanedioic acid (Liquid); method: Visual
Temperature, K	Mass ratio of solute to solvent of 1,6-hexanedioic acid	uncertainty
307.75	0.0723	0.0058
312.55	0.0853	0.0068
316.65	0.0984	0.0079
320.55	0.1119	0.009
324.35	0.1257	0.0101
327.55	0.1397	0.0112
330.45	0.1536	0.0123
333.75	0.1676	0.0134
337.35	0.1884	0.0151
342.65	0.2197	0.0176
346.95	0.2501	0.02

System: cyclohexanone + 1,6-hexanedioic acid; phases: Liquid, Crystal
Fixed: Pressure, kPa = 101.3
Property: Mass ratio of solute to solvent of 1,6-hexanedioic acid (Liquid); method: Visual
Temperature, K	Mass ratio of solute to solvent of 1,6-hexanedioic acid	uncertainty
305.05	0.0325	0.0026
309.35	0.0388	0.0031
313.35	0.0451	0.0036
316.85	0.0515	0.0041
321.95	0.0625	0.005
326.35	0.0739	0.0059
330.85	0.0873	0.007
334.65	0.1014	0.0081
338.9	0.1213	0.0097
343.15	0.1414	0.0113
346.95	0.1616	0.0129
