Measured thermophysical data. Diffusion coefficients and conductivities of alkylimidazolium tetrafluoroborates and hexafluorophosphates
Source: Fluid Phase Equilib., 2007, 10.1016/j.fluid.2006.12.001
Compound 1: 1-ethyl-3-methylimidazolium tetrafluoroborate, C6H11BF4N2, InChI=1S/C6H11N2.BF4/c1-3-8-5-4-7(2)6-8;2-1(3,4)5/h4-6H,3H2,1-2H3;/q+1;-1
Compound 2: 1-butyl-3-methylimidazolium tetrafluoroborate, C8H15BF4N2, InChI=1S/C8H15N2.BF4/c1-3-4-5-10-7-6-9(2)8-10;2-1(3,4)5/h6-8H,3-5H2,1-2H3;/q+1;-1
Compound 3: 1-hexyl-3-methylimidazolium tetrafluoroborate, C10H19BF4N2, InChI=1S/C10H19N2.BF4/c1-3-4-5-6-7-12-9-8-11(2)10-12;2-1(3,4)5/h8-10H,3-7H2,1-2H3;/q+1;-1
Compound 4: 1-methyl-3-octylimidazolium tetrafluoroborate, C12H23BF4N2, InChI=1S/C12H23N2.BF4/c1-3-4-5-6-7-8-9-14-11-10-13(2)12-14;2-1(3,4)5/h10-12H,3-9H2,1-2H3;/q+1;-1
Compound 5: 1-ethyl-3-methylimidazolium hexafluorophosphate, C6H11F6N2P, InChI=1S/C6H11N2.F6P/c1-3-8-5-4-7(2)6-8;1-7(2,3,4,5)6/h4-6H,3H2,1-2H3;/q+1;-1
Compound 6: 1-butyl-3-methylimidazolium hexafluorophosphate, C8H15F6N2P, InChI=1S/C8H15N2.F6P/c1-3-4-5-10-7-6-9(2)8-10;1-7(2,3,4,5)6/h6-8H,3-5H2,1-2H3;/q+1;-1
Compound 7: 1-hexyl-3-methylimidazolium hexafluorophosphate, C10H19F6N2P, InChI=1S/C10H19N2.F6P/c1-3-4-5-6-7-12-9-8-11(2)10-12;1-7(2,3,4,5)6/h8-10H,3-7H2,1-2H3;/q+1;-1
Compound 8: 1-octyl-3-methylimidazolium hexafluorophosphate, C12H23F6N2P, InChI=1S/C12H23N2.F6P/c1-3-4-5-6-7-8-9-14-11-10-13(2)12-14;1-7(2,3,4,5)6/h10-12H,3-9H2,1-2H3;/q+1;-1
Compound 9: water, H2O, InChI=1S/H2O/h1H2

System: water + 1-ethyl-3-methylimidazolium tetrafluoroborate; phases: Liquid
Property: Molar conductivity, S*m2/mol (Liquid); method: Alternating current cell with electrodes
Temperature, K	Mole fraction of 1-ethyl-3-methylimidazolium tetrafluoroborate	Pressure, kPa	Molar conductivity, S*m2/mol	uncertainty
303.2	0	101	0.01064	0.00064

System: water + 1-ethyl-3-methylimidazolium tetrafluoroborate; phases: Liquid
Property: Binary diffusion coefficient, m2/s (Liquid); method: Taylor dispersion method
Temperature, K	Mole fraction of 1-ethyl-3-methylimidazolium tetrafluoroborate	Pressure, kPa	Binary diffusion coefficient, m2/s	uncertainty
303.2	0	101	1.52e-09	0.07

System: water + 1-butyl-3-methylimidazolium tetrafluoroborate; phases: Liquid
Property: Molar conductivity, S*m2/mol (Liquid); method: Alternating current cell with electrodes
Temperature, K	Mole fraction of 1-butyl-3-methylimidazolium tetrafluoroborate	Pressure, kPa	Molar conductivity, S*m2/mol	uncertainty
303.2	0	101	0.00978	0.00059

System: water + 1-butyl-3-methylimidazolium tetrafluoroborate; phases: Liquid
Property: Binary diffusion coefficient, m2/s (Liquid); method: Taylor dispersion method
Temperature, K	Mole fraction of 1-butyl-3-methylimidazolium tetrafluoroborate	Pressure, kPa	Binary diffusion coefficient, m2/s	uncertainty
303.2	0	101	1.3e-09	0.03

System: water + 1-hexyl-3-methylimidazolium tetrafluoroborate; phases: Liquid
Property: Molar conductivity, S*m2/mol (Liquid); method: Alternating current cell with electrodes
Temperature, K	Mole fraction of 1-hexyl-3-methylimidazolium tetrafluoroborate	Pressure, kPa	Molar conductivity, S*m2/mol	uncertainty
303.2	0	101	0.0095	0.00057

System: water + 1-hexyl-3-methylimidazolium tetrafluoroborate; phases: Liquid
Property: Binary diffusion coefficient, m2/s (Liquid); method: Taylor dispersion method
Temperature, K	Mole fraction of 1-hexyl-3-methylimidazolium tetrafluoroborate	Pressure, kPa	Binary diffusion coefficient, m2/s	uncertainty
303.2	0	101	1.24e-09	0.03

System: water + 1-methyl-3-octylimidazolium tetrafluoroborate; phases: Liquid
Property: Molar conductivity, S*m2/mol (Liquid); method: Alternating current cell with electrodes
Temperature, K	Mole fraction of 1-methyl-3-octylimidazolium tetrafluoroborate	Pressure, kPa	Molar conductivity, S*m2/mol	uncertainty
303.2	0	101	0.00991	0.00059

System: water + 1-methyl-3-octylimidazolium tetrafluoroborate; phases: Liquid
Property: Binary diffusion coefficient, m2/s (Liquid); method: Taylor dispersion method
Temperature, K	Mole fraction of 1-methyl-3-octylimidazolium tetrafluoroborate	Pressure, kPa	Binary diffusion coefficient, m2/s	uncertainty
303.2	0	101	1.14e-09	0.03

System: water + 1-ethyl-3-methylimidazolium hexafluorophosphate; phases: Liquid
Property: Molar conductivity, S*m2/mol (Liquid); method: Alternating current cell with electrodes
Temperature, K	Mole fraction of 1-ethyl-3-methylimidazolium hexafluorophosphate	Pressure, kPa	Molar conductivity, S*m2/mol	uncertainty
303.2	0	101	0.01055	0.00063

System: water + 1-ethyl-3-methylimidazolium hexafluorophosphate; phases: Liquid
Property: Binary diffusion coefficient, m2/s (Liquid); method: Taylor dispersion method
Temperature, K	Mole fraction of 1-ethyl-3-methylimidazolium hexafluorophosphate	Pressure, kPa	Binary diffusion coefficient, m2/s	uncertainty
303.2	0	101	1.41e-09	0.05

System: water + 1-butyl-3-methylimidazolium hexafluorophosphate; phases: Liquid
Property: Molar conductivity, S*m2/mol (Liquid); method: Alternating current cell with electrodes
Temperature, K	Mole fraction of 1-butyl-3-methylimidazolium hexafluorophosphate	Pressure, kPa	Molar conductivity, S*m2/mol	uncertainty
303.2	0	101	0.00954	0.00057

System: water + 1-butyl-3-methylimidazolium hexafluorophosphate; phases: Liquid
Property: Binary diffusion coefficient, m2/s (Liquid); method: Taylor dispersion method
Temperature, K	Mole fraction of 1-butyl-3-methylimidazolium hexafluorophosphate	Pressure, kPa	Binary diffusion coefficient, m2/s	uncertainty
303.2	0	101	1.25e-09	0.03

System: water + 1-hexyl-3-methylimidazolium hexafluorophosphate; phases: Liquid
Property: Molar conductivity, S*m2/mol (Liquid); method: Alternating current cell with electrodes
Temperature, K	Mole fraction of 1-hexyl-3-methylimidazolium hexafluorophosphate	Pressure, kPa	Molar conductivity, S*m2/mol	uncertainty
303.2	0	101	0.00935	0.00056

System: water + 1-hexyl-3-methylimidazolium hexafluorophosphate; phases: Liquid
Property: Binary diffusion coefficient, m2/s (Liquid); method: Taylor dispersion method
Temperature, K	Mole fraction of 1-hexyl-3-methylimidazolium hexafluorophosphate	Pressure, kPa	Binary diffusion coefficient, m2/s	uncertainty
303.2	0	101	1.11e-09	0.1

System: water + 1-octyl-3-methylimidazolium hexafluorophosphate; phases: Liquid
Property: Molar conductivity, S*m2/mol (Liquid); method: Alternating current cell with electrodes
Temperature, K	Mole fraction of 1-octyl-3-methylimidazolium hexafluorophosphate	Pressure, kPa	Molar conductivity, S*m2/mol	uncertainty
303.2	0	101	0.00803	0.00048

System: water + 1-octyl-3-methylimidazolium hexafluorophosphate; phases: Liquid
Property: Binary diffusion coefficient, m2/s (Liquid); method: Taylor dispersion method
Temperature, K	Mole fraction of 1-octyl-3-methylimidazolium hexafluorophosphate	Pressure, kPa	Binary diffusion coefficient, m2/s	uncertainty
303.2	0	101	1.06e-09	0.03
