Measured thermophysical data. Viscosity of n-alkyl-3-methyl-imidazolium bis(trifluoromethylsulfonyl)amide ionic liquids saturated with compressed CO2
Source: Fluid Phase Equilib., 2009, 10.1016/j.fluid.2009.07.013
Compound 1: carbon dioxide, CO2, InChI=1S/CO2/c2-1-3, purity 99.9%
Compound 2: 1-ethyl-3-methylimidazolium bis((trifluoromethyl)sulfonyl)imide, C8H11F6N3O4S2, InChI=1S/C6H11N2.C2F6NO4S2/c1-3-8-5-4-7(2)6-8;3-1(4,5)14(10,11)9-15(12,13)2(6,7)8/h4-6H,3H2,1-2H3;/q+1;-1, purity 99%
Compound 3: 1-hexyl-3-methylimidazolium bis[(trifluoromethyl)sulfonyl]imide, C12H19F6N3O4S2, InChI=1S/C10H19N2.C2F6NO4S2/c1-3-4-5-6-7-12-9-8-11(2)10-12;3-1(4,5)14(10,11)9-15(12,13)2(6,7)8/h8-10H,3-7H2,1-2H3;/q+1;-1, purity 99%
Compound 4: 1-decyl-3-methylimidazolium bis(trifluoromethylsulfonyl)amide, C16H27F6N3O4S2, InChI=1S/C14H27N2.C2F6NO4S2/c1-3-4-5-6-7-8-9-10-11-16-13-12-15(2)14-16;3-1(4,5)14(10,11)9-15(12,13)2(6,7)8/h12-14H,3-11H2,1-2H3;/q+1;-1, purity 99%

System: 1-hexyl-3-methylimidazolium bis[(trifluoromethyl)sulfonyl]imide; phases: Liquid
Property: Viscosity, Pa*s (Liquid); method: Cone and plate viscometry
Temperature, K	Pressure, kPa	Viscosity, Pa*s	uncertainty
323.15	100	0.0249	0.0006

System: carbon dioxide + 1-ethyl-3-methylimidazolium bis((trifluoromethyl)sulfonyl)imide; phases: Liquid
Property: Viscosity, Pa*s (Liquid); method: Oscillating rod viscometry
Temperature, K	Pressure, kPa	Mole fraction of carbon dioxide	Viscosity, Pa*s	uncertainty
298.15	1010	0.217	0.0219	0.0005
298.15	2070	0.404	0.01418	0.00038
298.15	3840	0.604	0.00769	0.00016
298.15	5280	0.713	0.00481	0.0001
298.15	5780	0.693	0.00466	0.0001
298.15	6320	0.73	0.00396	8e-05
298.15	6710	0.738	0.00381	8e-05
298.15	9350	0.761	0.00373	8e-05
323.15	1960	0.285	0.01012	0.00048
323.15	4120	0.478	0.00643	0.00013
323.15	8580	0.665	0.00383	8e-05
323.15	10290	0.713	0.00335	9e-05
323.15	10620	0.722	0.00328	9e-05
323.15	12240	0.763	0.00332	8e-05
323.15	12660	0.773	0.00316	7e-05
343.15	1930	0.23	0.00815	0.00044
343.15	4030	0.405	0.0058	0.0001
343.15	8320	0.613	0.004	0.001
343.15	10380	0.698	0.00331	7e-05
343.15	11190	0.734	0.00302	6e-05
343.15	12390	0.791	0.00287	6e-05
343.15	13160	0.831	0.00285	6e-05

System: carbon dioxide + 1-hexyl-3-methylimidazolium bis[(trifluoromethyl)sulfonyl]imide; phases: Liquid
Property: Viscosity, Pa*s (Liquid); method: Oscillating rod viscometry
Temperature, K	Pressure, kPa	Mole fraction of carbon dioxide	Viscosity, Pa*s	uncertainty
298.15	780	0.159	0.05115	0.00132
298.15	1140	0.237	0.04279	0.00119
298.15	1700	0.343	0.02695	0.00225
298.15	2340	0.445	0.02042	0.00042
298.15	4370	0.661	0.01597	0.00037
298.15	6980	0.783	0.00588	0.00013
298.15	9670	0.84	0.00477	0.00013
298.15	11000	0.867	0.0045	0.0002
298.15	12090	0.894	0.00437	0.00016
323.15	1050	0.169	0.02127	0.0005
323.15	2970	0.482	0.01498	0.00036
323.15	4890	0.553	0.0106	0.0002
323.15	7440	0.67	0.00609	0.00017
323.15	9430	0.736	0.00419	0.00013
323.15	9740	0.745	0.00385	0.00012
323.15	11280	0.775	0.00339	9e-05
323.15	12360	0.775	0.00324	7e-05
343.15	1050	0.066	0.01245	0.00027
343.15	3160	0.268	0.01027	0.00026
343.15	4870	0.398	0.00983	0.00024
343.15	6950	0.521	0.00769	0.00016
343.15	9830	0.644	0.00503	0.0001
343.15	11240	0.69	0.00379	0.00015
343.15	12520	0.725	0.00358	0.00015

System: carbon dioxide + 1-decyl-3-methylimidazolium bis(trifluoromethylsulfonyl)amide; phases: Liquid
Property: Viscosity, Pa*s (Liquid); method: Oscillating rod viscometry
Temperature, K	Pressure, kPa	Mole fraction of carbon dioxide	Viscosity, Pa*s	uncertainty
298.15	2010	0.312	0.05463	0.00131
298.15	3770	0.59	0.01954	0.00042
298.15	7290	0.811	0.00608	0.00013
298.15	10600	0.827	0.00533	0.00011
298.15	11940	0.831	0.00518	0.00011
298.15	13650	0.833	0.00507	0.00011
323.15	4090	0.554	0.01191	0.00025
323.15	8030	0.752	0.0055	0.0001
323.15	10620	0.8	0.00443	0.0001
323.15	11180	0.8	0.00418	0.0001
323.15	13060	0.814	0.00394	9e-05
343.15	1980	0.301	0.01398	0.00035
343.15	4010	0.476	0.00952	0.0002
343.15	6520	0.606	0.00647	0.00014
343.15	7660	0.647	0.00565	0.00012
343.15	10640	0.74	0.00436	9e-05
343.15	11740	0.762	0.00393	0.00011
343.15	12060	0.767	0.00383	0.00011
343.15	12550	0.776	0.0037	0.0001
343.15	13040	0.782	0.00361	0.0001
