Measured thermophysical data. Determination and prediction of solid-liquid phase equilibrium for quaternary system of terephthalic acid + isophthalic acid + phthalic acid + N-methyl-2-pyrrolidone at 303.15 K and 313.15 K
Source: Fluid Phase Equilib., 2015, 10.1016/j.fluid.2015.03.042
Compound 1: 1,3-benzenedicarboxylic acid, C8H6O4, InChI=1S/C8H6O4/c9-7(10)5-2-1-3-6(4-5)8(11)12/h1-4H,(H,9,10)(H,11,12), purity 99.3%
Compound 2: N-methylpyrrolidone, C5H9NO, InChI=1S/C5H9NO/c1-6-4-2-3-5(6)7/h2-4H2,1H3, purity 99.7%

System: 1,3-benzenedicarboxylic acid + N-methylpyrrolidone; phases: Liquid, Crystal
Fixed: Pressure, kPa = 101
Property: Mole fraction of 1,3-benzenedicarboxylic acid (Liquid); method: Phase equilibration
Temperature, K	Mole fraction of 1,3-benzenedicarboxylic acid	uncertainty
283.15	0.1081	0.0048
288.15	0.1227	0.0054
293.15	0.1391	0.0061
298.15	0.1524	0.0067
303.15	0.1691	0.0075
308.15	0.1837	0.0081
313.15	0.2031	0.0089
318.15	0.2165	0.0095
323.15	0.2391	0.0105
328.15	0.2554	0.0113
333.15	0.281	0.0124

System: 1,3-benzenedicarboxylic acid + N-methylpyrrolidone; phases: Liquid, Crystal of intercomponent compound 1
Property: Solid-liquid equilibrium temperature, K (Liquid); method: DTA
Mole fraction of 1,3-benzenedicarboxylic acid	Pressure, kPa	Solid-liquid equilibrium temperature, K	uncertainty
0.333	100	348.15	1.06
