Measured thermophysical data. Vapor-liquid equilibrium for the binary mixtures of dipropylene glycol with aromatic hydrocarbons: Experimental and regression
Source: Fluid Phase Equilib., 2014, 10.1016/j.fluid.2014.03.003
Compound 1: benzene, C6H6, InChI=1S/C6H6/c1-2-4-6-5-3-1/h1-6H, purity 99.94%
Compound 2: toluene, C7H8, InChI=1S/C7H8/c1-7-5-3-2-4-6-7/h2-6H,1H3, purity 99.3%
Compound 3: ethylbenzene, C8H10, InChI=1S/C8H10/c1-2-8-6-4-3-5-7-8/h3-7H,2H2,1H3, purity 99%
Compound 4: 1,2-dimethylbenzene, C8H10, InChI=1S/C8H10/c1-7-5-3-4-6-8(7)2/h3-6H,1-2H3, purity 98%
Compound 5: 1,3-dimethylbenzene, C8H10, InChI=1S/C8H10/c1-7-4-3-5-8(2)6-7/h3-6H,1-2H3, purity 99%
Compound 6: 1,4-dimethylbenzene, C8H10, InChI=1S/C8H10/c1-7-3-5-8(2)6-4-7/h3-6H,1-2H3, purity 99%

System: benzene; phases: Liquid, Gas
Property: Vapor or sublimation pressure, kPa (Liquid); method: Closed cell (Static) method
Temperature, K	Vapor or sublimation pressure, kPa	uncertainty
293.15	9.983	0.027
298.15	12.639	0.037
303.15	15.852	0.035
308.15	19.709	0.05
313.15	24.3	0.052
318.15	29.725	0.063
323.15	36.092	0.069
328.15	43.514	0.082
333.15	52.11	0.11
338.15	62.01	0.11
343.15	73.35	0.13
348.15	86.27	0.15
353.15	100.91	0.17

System: toluene; phases: Liquid, Gas
Property: Vapor or sublimation pressure, kPa (Liquid); method: Closed cell (Static) method
Temperature, K	Vapor or sublimation pressure, kPa	uncertainty
303.15	4.9048	0.0225
308.15	6.257	0.024
313.15	7.963	0.026
318.15	9.959	0.034
323.15	12.309	0.032
328.15	15.142	0.041
333.15	18.856	0.057
338.15	22.61	0.05
343.15	27.311	0.059
348.15	32.719	0.071
358.15	46.175	0.091
368.15	63.84	0.12
378.15	86.25	0.16

System: ethylbenzene; phases: Liquid, Gas
Property: Vapor or sublimation pressure, kPa (Liquid); method: Closed cell (Static) method
Temperature, K	Vapor or sublimation pressure, kPa	uncertainty
308.15	2.2227	0.0186
313.15	2.0989	0.0629
318.15	3.7459	0.0414
323.15	4.7117	0.0287
328.15	5.967	0.03
333.15	7.448	0.031
338.15	9.251	0.028
343.15	11.407	0.032
348.15	13.789	0.04
358.15	20.421	0.06
368.15	29.113	0.073
383.15	47.752	0.1
403.15	85.64	0.17

System: 1,2-dimethylbenzene; phases: Liquid, Gas
Property: Vapor or sublimation pressure, kPa (Liquid); method: Closed cell (Static) method
Temperature, K	Vapor or sublimation pressure, kPa	uncertainty
313.15	2.0521	0.0345
323.15	3.4562	0.0217
333.15	5.613	0.047
343.15	8.542	0.051
353.15	12.727	0.04
363.15	18.651	0.057
373.15	26.731	0.076
378.15	31.656	0.091
383.15	37.354	0.102
388.15	43.632	0.119
393.15	51.01	0.14
403.15	68.42	0.18
413.15	90.18	0.24

System: 1,3-dimethylbenzene; phases: Liquid, Gas
Property: Vapor or sublimation pressure, kPa (Liquid); method: Closed cell (Static) method
Temperature, K	Vapor or sublimation pressure, kPa	uncertainty
308.15	2.6307	0.0447
313.15	3.5244	0.0282
318.15	4.372	0.0357
323.15	5.37	0.045
328.15	6.496	0.037
333.15	7.75	0.038
338.15	9.305	0.035
343.15	11.116	0.036
353.15	15.968	0.048
363.15	22.758	0.058
373.15	32.056	0.079
383.15	44.232	0.107
403.15	80.2	0.16

System: 1,4-dimethylbenzene; phases: Liquid, Gas
Property: Vapor or sublimation pressure, kPa (Liquid); method: Closed cell (Static) method
Temperature, K	Vapor or sublimation pressure, kPa	uncertainty
303.15	1.5615	0.0312
313.15	2.4901	0.0391
323.15	4.422	0.042
333.15	6.997	0.048
343.15	10.635	0.057
353.15	15.721	0.085
358.15	19.037	0.085
363.15	22.803	0.091
373.15	32.043	0.123
383.15	44.565	0.164
393.15	60.79	0.22
403.15	80.87	0.28
408.15	92.43	0.32
