Measured thermophysical data. Solid-liquid equilibrium of Na+//Cl-, NO3-, SO42- -H2O quaternary system at 373.15 K
Source: Fluid Phase Equilib., 2017, 10.1016/j.fluid.2017.04.011
Compound 1: sodium chloride, ClNa, InChI=1S/ClH.Na/h1H;/q;+1/p-1, purity 99.5%
Compound 2: sodium nitrate, NNaO3, InChI=1S/NO3.Na/c2-1(3)4;/q-1;+1, purity 99.5%
Compound 3: sodium sulfate, Na2O4S, InChI=1S/2Na.H2O4S/c;;1-5(2,3)4/h;;(H2,1,2,3,4)/q2*+1;/p-2, purity 99.5%
Compound 4: water, H2O, InChI=1S/H2O/h1H2, purity 99.8%

System: sodium chloride + water; phases: Liquid, Crystal
Fixed: Temperature, K = 373.15
Fixed: Pressure, kPa = 101.3
Property: Mass fraction of sodium chloride (Liquid); method: gravemetric
Mass fraction of sodium chloride	uncertainty
0.2825	0.0098
0.286	0.0098

System: sodium chloride + water + sodium sulfate; phases: Liquid, Crystal
Fixed: Temperature, K = 373.15
Fixed: Pressure, kPa = 101.3
Property: Mass fraction of sodium chloride (Liquid); method: gravemetric
Mass fraction of sodium sulfate	Mass fraction of sodium chloride	uncertainty
0.0655	0.2	0.01
0.1075	0.15	0.0099
0.165	0.1	0.0099
0.228	0.05	0.0099
0.2441	0.0403	0.0098
0.0403	0.2441	0.0101

System: sodium chloride + water + sodium sulfate; phases: Liquid, Crystal
Fixed: Temperature, K = 373.15
Fixed: Pressure, kPa = 101.3
Property: Mass fraction of sodium chloride (Liquid); method: gravemetric
Mass fraction of sodium sulfate	Mass fraction of sodium chloride	uncertainty
0.2441	0.0403	0.0098
0.0403	0.2441	0.0101

System: sodium chloride + water + sodium sulfate; phases: Liquid
Property: Mass density, kg/m3 (Liquid); method: Bottle
Mass fraction of sodium chloride	Mass fraction of sodium sulfate	Temperature, K	Pressure, kPa	Mass density, kg/m3	uncertainty
0.2441	0.0403	373.15	101.3	1223.2	2.2

System: sodium chloride + water + sodium sulfate; phases: Liquid
Property: Electrical conductivity, S/m (Liquid); method: digitial conductivity meter S230-B Mettle-toledo
Mass fraction of sodium chloride	Mass fraction of sodium sulfate	Temperature, K	Pressure, kPa	Electrical conductivity, S/m	uncertainty
0.2441	0.0403	373.15	101.3	71.9	0.4

System: sodium nitrate + sodium chloride + water; phases: Liquid, Crystal
Fixed: Temperature, K = 373.15
Fixed: Pressure, kPa = 101.3
Property: Mass fraction of sodium chloride (Liquid); method: gravemetric
Mass fraction of sodium nitrate	Mass fraction of sodium chloride	uncertainty
0.24	0.176	0.0116
0.339	0.134	0.0113
0.43	0.102	0.0111
0.487	0.082	0.0109
0.507	0.0768	0.0108
0.542	0.0655	0.0107
0.557	0.062	0.0106
0.569	0.0579	0.0106
0.5787	0.0557	0.0107

System: sodium nitrate + sodium chloride + water; phases: Liquid, Crystal
Fixed: Temperature, K = 373.15
Fixed: Pressure, kPa = 101.3
Property: Mass fraction of sodium chloride (Liquid); method: gravemetric
Mass fraction of sodium nitrate	Mass fraction of sodium chloride	uncertainty
0.594	0.0397	0.0098
0.606	0.0282	0.0098
0.5787	0.0557	0.0098

System: sodium nitrate + sodium chloride + water; phases: Liquid
Property: Mass density, kg/m3 (Liquid); method: Bottle
Mass fraction of sodium chloride	Mass fraction of water	Temperature, K	Pressure, kPa	Mass density, kg/m3	uncertainty
0.0557	0.3656	373.15	101.3	1537.3	1.6

System: sodium nitrate + sodium chloride + water; phases: Liquid
Property: Electrical conductivity, S/m (Liquid); method: Bottle
Mass fraction of sodium chloride	Mass fraction of water	Temperature, K	Pressure, kPa	Electrical conductivity, S/m	uncertainty
0.0557	0.3656	373.15	101.3	52.7	0.2

System: sodium nitrate + water; phases: Liquid, Crystal
Fixed: Temperature, K = 373.15
Fixed: Pressure, kPa = 101.3
Property: Mass fraction of sodium nitrate (Liquid); method: gravemetric
Mass fraction of sodium nitrate	uncertainty
0.638	0.0099
0.637	0.0099

System: sodium nitrate + water + sodium sulfate; phases: Liquid, Crystal
Fixed: Temperature, K = 373.15
Fixed: Pressure, kPa = 101.3
Property: Mass fraction of sodium sulfate (Liquid); method: gravemetric
Mass fraction of sodium nitrate	Mass fraction of sodium sulfate	uncertainty
0.136	0.178	0.0133
0.249	0.109	0.012
0.405	0.049	0.0108
0.513	0.0277	0.0101
0.581	0.0197	0.0099
0.6205	0.0196	0.0098

System: sodium nitrate + water + sodium sulfate; phases: Liquid, Crystal
Fixed: Temperature, K = 373.15
Fixed: Pressure, kPa = 101.3
Property: Mass fraction of sodium sulfate (Liquid); method: gravemetric
Mass fraction of sodium nitrate	Mass fraction of sodium sulfate	uncertainty
0.631	0.0086	0.0086
0.6205	0.0196	0.0098

System: sodium nitrate + water + sodium sulfate; phases: Liquid
Property: Mass density, kg/m3 (Liquid); method: Bottle
Mass fraction of water	Mass fraction of sodium sulfate	Temperature, K	Pressure, kPa	Mass density, kg/m3	uncertainty
0.3599	0.0196	373.15	101.3	1584.5	2.4

System: sodium nitrate + water + sodium sulfate; phases: Liquid
Property: Electrical conductivity, S/m (Liquid); method: Bottle
Mass fraction of water	Mass fraction of sodium sulfate	Temperature, K	Pressure, kPa	Electrical conductivity, S/m	uncertainty
0.3599	0.0196	373.15	101.3	53.1	0.4

System: water + sodium sulfate; phases: Liquid, Crystal
Property: Mass fraction of sodium sulfate (Liquid); method: gravemetric
Temperature, K	Pressure, kPa	Mass fraction of sodium sulfate	uncertainty
373.15	101.3	0.297	0.0098
