Measured thermophysical data. Phase equilibria measurements of ternary mixtures (sulfolane + a carboxylic acid + pentane) at 303.15 K
Source: Fluid Phase Equilib., 2015, 10.1016/j.fluid.2015.06.029
Compound 1: acetic acid, C2H4O2, InChI=1S/C2H4O2/c1-2(3)4/h1H3,(H,3,4), purity 99%
Compound 2: propanoic acid, C3H6O2, InChI=1S/C3H6O2/c1-2-3(4)5/h2H2,1H3,(H,4,5), purity 99%
Compound 3: butanoic acid, C4H8O2, InChI=1S/C4H8O2/c1-2-3-4(5)6/h2-3H2,1H3,(H,5,6), purity 99%
Compound 4: 2-methylpropanoic acid, C4H8O2, InChI=1S/C4H8O2/c1-3(2)4(5)6/h3H,1-2H3,(H,5,6), purity 99%
Compound 5: pentanoic acid, C5H10O2, InChI=1S/C5H10O2/c1-2-3-4-5(6)7/h2-4H2,1H3,(H,6,7), purity 99%
Compound 6: 3-methylbutanoic acid, C5H10O2, InChI=1S/C5H10O2/c1-4(2)3-5(6)7/h4H,3H2,1-2H3,(H,6,7), purity 99%
Compound 7: sulfolane, C4H8O2S, InChI=1S/C4H8O2S/c5-7(6)3-1-2-4-7/h1-4H2, purity 99%
Compound 8: pentane, C5H12, InChI=1S/C5H12/c1-3-5-4-2/h3-5H2,1-2H3, purity 99%

System: acetic acid; phases: Liquid
Property: Refractive index (Na D-line) (Liquid); method: Standard Abbe refractometry
Temperature, K	Pressure, kPa	Refractive index (Na D-line)	uncertainty
303.15	101.325	1.3716	0.0009

System: propanoic acid; phases: Liquid
Property: Refractive index (Na D-line) (Liquid); method: Standard Abbe refractometry
Temperature, K	Pressure, kPa	Refractive index (Na D-line)	uncertainty
303.15	101.325	1.3829	0.0009

System: butanoic acid; phases: Liquid
Property: Refractive index (Na D-line) (Liquid); method: Standard Abbe refractometry
Temperature, K	Pressure, kPa	Refractive index (Na D-line)	uncertainty
303.15	101.325	1.3947	0.0009

System: 2-methylpropanoic acid; phases: Liquid
Property: Refractive index (Na D-line) (Liquid); method: Standard Abbe refractometry
Temperature, K	Pressure, kPa	Refractive index (Na D-line)	uncertainty
303.15	101.325	1.3893	0.0009

System: pentanoic acid; phases: Liquid
Property: Refractive index (Na D-line) (Liquid); method: Standard Abbe refractometry
Temperature, K	Pressure, kPa	Refractive index (Na D-line)	uncertainty
303.15	101.325	1.4047	0.0009

System: 3-methylbutanoic acid; phases: Liquid
Property: Refractive index (Na D-line) (Liquid); method: Standard Abbe refractometry
Temperature, K	Pressure, kPa	Refractive index (Na D-line)	uncertainty
303.15	101.325	1.3997	0.0009

System: sulfolane; phases: Liquid
Property: Refractive index (Na D-line) (Liquid); method: Standard Abbe refractometry
Temperature, K	Pressure, kPa	Refractive index (Na D-line)	uncertainty
303.15	101.325	1.4823	0.0009

System: pentane; phases: Liquid
Property: Refractive index (Na D-line) (Liquid); method: Standard Abbe refractometry
Temperature, K	Pressure, kPa	Refractive index (Na D-line)	uncertainty
303.15	101.325	1.3523	0.0009

System: acetic acid + pentane + sulfolane; phases: Liquid mixture 1, Liquid mixture 2
Fixed: Pressure, kPa = 100
Fixed: Temperature, K = 303.15
Property: Mole fraction of acetic acid (Liquid mixture 1); method: Titration method
Mole fraction of sulfolane	Mole fraction of acetic acid	uncertainty
0.0058	0	
0.007	0.06	0.06
0.008	0.14	0.0856
0.009	0.213	0.0375
0.01	0.3608	0.0351
0.0201	0.5573	0.0165
0.0457	0.7151	0.009
0.1043	0.7499	0.0077
0.1773	0.7181	0.0087
0.26	0.6701	0.0103
0.37	0.57	0.0134
0.5203	0.4422	0.0137
0.6211	0.3501	0.0109
0.699	0.2398	0.0075
0.7732	0.2109	0.0066
0.8821	0.1122	0.0036
0.9398	0.0562	0.0021
0.9941	0	

System: acetic acid + pentane + sulfolane; phases: Liquid
Fixed: Temperature, K = 303.15
Fixed: Pressure, kPa = 100
Property: Refractive index (Na D-line) (Liquid); method: Standard Abbe refractometry
Mole fraction of sulfolane	Mole fraction of acetic acid	Refractive index (Na D-line)	uncertainty
0.0086	0.27	1.3767	0.0008
0.0088	0.3701	1.3784	0.014
0.0147	0.46	1.46	0.0116
0.0236	0.5601	1.5601	0.0082
0.03	0.615	1.615	0.0057
0.977	0.02	1.4161	0.0068
0.9562	0.04	1.4344	0.0068
0.8993	0.0902	1.4607	0.0009
0.8761	0.1114	1.4705	0.0009
0.8601	0.1222	1.4758	0.0009

System: acetic acid + pentane + sulfolane; phases: Liquid mixture 1, Liquid mixture 2
Fixed: Temperature, K = 303.15
Fixed: Pressure, kPa = 100
Property: Mole fraction of acetic acid (Liquid mixture 1); method: Index of refraction calibration data
Mole fraction of sulfolane	Mole fraction of acetic acid	uncertainty
0.0086	0.27	0.0318
0.0088	0.3701	0.0175
0.0147	0.46	0.0166
0.0236	0.5601	0.0144
0.03	0.615	0.0124
0.977	0.02	0.0015
0.9562	0.04	0.0016
0.8993	0.0902	0.0023
0.8761	0.1114	0.0027
0.8601	0.1222	0.0029

System: propanoic acid + pentane + sulfolane; phases: Liquid mixture 1, Liquid mixture 2
Fixed: Pressure, kPa = 100
Fixed: Temperature, K = 303.15
Property: Mole fraction of propanoic acid (Liquid mixture 1); method: Titration method
Mole fraction of sulfolane	Mole fraction of propanoic acid	uncertainty
0.0058	0	
0.006	0.065	0.0147
0.011	0.161	0.0242
0.015	0.28	0.031
0.0397	0.4122	0.0142
0.0511	0.5055	0.0174
0.1413	0.5523	0.0139
0.2503	0.5399	0.0143
0.34	0.49	0.0152
0.4682	0.4	0.0124
0.59	0.301	0.0094
0.8312	0.1236	0.0039
0.9041	0.0698	0.0024
0.9418	0.0355	0.0015
0.9941	0.0355	0.0014
0	0	

System: propanoic acid + pentane + sulfolane; phases: Liquid
Fixed: Temperature, K = 303.15
Fixed: Pressure, kPa = 100
Property: Refractive index (Na D-line) (Liquid); method: Standard Abbe refractometry
Mole fraction of sulfolane	Mole fraction of propanoic acid	Refractive index (Na D-line)	uncertainty
0.011	0.11	1.3667	0.0008
0.0133	0.2671	1.3645	0.0008
0.0256	0.4238	1.3585	0.0008
0.0399	0.4686	1.356	0.0008
0.0511	0.5002	1.3546	0.0008
0.9708	0.01	1.4249	0.0019
0.9677	0.016	1.4312	0.0013
0.9502	0.028	1.446	0.0013
0.8903	0.069	1.4474	0.0009
0.7871	0.1501	1.4637	0.0009

System: propanoic acid + pentane + sulfolane; phases: Liquid mixture 1, Liquid mixture 2
Fixed: Temperature, K = 303.15
Fixed: Pressure, kPa = 100
Property: Mole fraction of propanoic acid (Liquid mixture 1); method: Index of refraction calibration data
Mole fraction of sulfolane	Mole fraction of propanoic acid	uncertainty
0.011	0.11	0.0684
0.0133	0.2671	0.0686
0.0256	0.4238	0.0124
0.0399	0.4686	0.0113
0.0511	0.5002	0.012
0.9708	0.01	0.0022
0.9677	0.016	0.0022
0.9502	0.028	0.0014
0.8903	0.069	0.0019
0.7871	0.1501	0.0036

System: butanoic acid + pentane + sulfolane; phases: Liquid mixture 1, Liquid mixture 2
Fixed: Temperature, K = 303.15
Fixed: Pressure, kPa = 100
Property: Mole fraction of butanoic acid (Liquid mixture 1); method: Titration method
Mole fraction of sulfolane	Mole fraction of butanoic acid	uncertainty
0.0058	0	
0.006	0.005	0.005
0.007	0.188	0.03
0.008	0.2801	0.0729
0.01	0.3	0.0123
0.02	0.3201	0.0108
0.0344	0.4017	0.0137
0.1186	0.4731	0.0147
0.1958	0.5195	0.0149
0.3401	0.4832	0.015
0.4956	0.3937	0.0122
0.6108	0.319	0.0099
0.7227	0.24	0.0075
0.8105	0.17	0.0053
0.9101	0.081	0.0027
0.9512	0.045	0.0019
0.9941	0	
0	0	

System: butanoic acid + pentane + sulfolane; phases: Liquid
Fixed: Temperature, K = 303.15
Fixed: Pressure, kPa = 100
Property: Refractive index (Na D-line) (Liquid); method: Standard Abbe refractometry
Mole fraction of sulfolane	Mole fraction of butanoic acid	Refractive index (Na D-line)	uncertainty
0.0069	0.1334	1.4421	0.0008
0.0074	0.2888	1.4456	0.0011
0.0251	0.355	1.459	0.0009
0.0485	0.4235	1.4657	0.0008
0.066	0.4519	1.4701	0.0008
0.9723	0.0152	1.4199	0.0019
0.9561	0.0252	1.4478	0.0047
0.9328	0.0491	1.4599	0.001
0.8968	0.0848	1.4685	0.0009
0.846	0.135	1.4732	0.0008

System: butanoic acid + pentane + sulfolane; phases: Liquid mixture 1, Liquid mixture 2
Fixed: Temperature, K = 303.15
Fixed: Pressure, kPa = 100
Property: Mole fraction of butanoic acid (Liquid mixture 1); method: Index of refraction calibration data
Mole fraction of sulfolane	Mole fraction of butanoic acid	uncertainty
0.0069	0.1334	0.0126
0.0074	0.2888	0.0077
0.0251	0.355	0.0089
0.0485	0.4235	0.0101
0.066	0.4519	0.0106
0.9723	0.0152	0.0012
0.9561	0.0252	0.0014
0.9328	0.0491	0.0018
0.8968	0.0848	0.0023
0.846	0.135	0.0033

System: 2-methylpropanoic acid + pentane + sulfolane; phases: Liquid mixture 1, Liquid mixture 2
Fixed: Temperature, K = 303.15
Fixed: Pressure, kPa = 100
Property: Mole fraction of 2-methylpropanoic acid (Liquid mixture 1); method: Titration method
Mole fraction of sulfolane	Mole fraction of 2-methylpropanoic acid	uncertainty
0.0058	0	
0.01	0.11	0.0218
0.0201	0.3133	0.0176
0.033	0.4508	0.0156
0.0508	0.53	0.0152
0.1433	0.601	0.0124
0.3743	0.54	0.0143
0.4255	0.4853	0.0151
0.57	0.3621	0.0112
0.6532	0.2983	0.0093
0.7721	0.2001	0.0063
0.8912	0.0922	0.003
0.93	0.05	0.0019
0.9941	0	

System: 2-methylpropanoic acid + pentane + sulfolane; phases: Liquid
Fixed: Temperature, K = 303.15
Fixed: Pressure, kPa = 100
Property: Refractive index (Na D-line) (Liquid); method: Standard Abbe refractometry
Mole fraction of sulfolane	Mole fraction of 2-methylpropanoic acid	Refractive index (Na D-line)	uncertainty
0.018	0.154	1.3741	0.0014
0.0221	0.2258	1.4498	0.0344
0.04	0.4398	1.46	0.0019
0.026	0.3604	1.4615	0.003
0.0606	0.523	1.4769	0.0011
0.9502	0.0319	1.4454	0.0028
0.9497	0.0392	1.4629	0.0028
0.9388	0.0489	1.4681	0.0017
0.9255	0.0508	1.4684	0.001
0.9184	0.0685	1.4776	0.0011

System: 2-methylpropanoic acid + pentane + sulfolane; phases: Liquid mixture 1, Liquid mixture 2
Fixed: Temperature, K = 303.15
Fixed: Pressure, kPa = 100
Property: Mole fraction of 2-methylpropanoic acid (Liquid mixture 1); method: Index of refraction calibration data
Mole fraction of sulfolane	Mole fraction of 2-methylpropanoic acid	uncertainty
0.018	0.154	0.0179
0.0221	0.2258	0.0263
0.04	0.4398	0.0112
0.026	0.3604	0.0133
0.0606	0.523	0.0118
0.9502	0.0319	0.0019
0.9497	0.0392	0.0016
0.9388	0.0489	0.0015
0.9255	0.0508	0.0017
0.9184	0.0685	0.0031

System: pentanoic acid + pentane + sulfolane; phases: Liquid mixture 1, Liquid mixture 2
Fixed: Temperature, K = 303.15
Fixed: Pressure, kPa = 100
Property: Mole fraction of pentanoic acid (Liquid mixture 1); method: Titration method
Mole fraction of sulfolane	Mole fraction of pentanoic acid	uncertainty
0.0058	0	
0.006	0.0084	0.0084
0.0163	0.165	0.016
0.0164	0.2916	0.0287
0.0612	0.462	0.0144
0.1399	0.4921	0.0152
0.2435	0.4953	0.0153
0.3472	0.4489	0.0139
0.5426	0.3459	0.0107
0.6506	0.2615	0.0081
0.76	0.1804	0.0056
0.8	0.1533	0.0048
0.8504	0.1002	0.0032
0.93	0.0501	0.0019
0.9941	0	
0	0	

System: pentanoic acid + pentane + sulfolane; phases: Liquid
Fixed: Temperature, K = 303.15
Fixed: Pressure, kPa = 100
Property: Refractive index (Na D-line) (Liquid); method: Standard Abbe refractometry
Mole fraction of sulfolane	Mole fraction of pentanoic acid	Refractive index (Na D-line)	uncertainty
0.0088	0.14	1.3811	0.1858
0.0084	0.2369	1.4554	0.0015
0.0521	0.4108	1.4611	0.0073
0.063	0.4683	1.4649	0.0079
0.0244	0.283	1.4749	0.0034
0.9493	0.0279	1.4551	0.0011
0.938	0.0343	1.4565	0.0011
0.9304	0.0439	1.4609	0.0009
0.9205	0.0491	1.465	0.0037
0.9195	0.0525	1.475	0.0032

System: pentanoic acid + pentane + sulfolane; phases: Liquid mixture 1, Liquid mixture 2
Fixed: Temperature, K = 303.15
Fixed: Pressure, kPa = 100
Property: Mole fraction of pentanoic acid (Liquid mixture 1); method: Index of refraction calibration data
Mole fraction of sulfolane	Mole fraction of pentanoic acid	uncertainty
0.0088	0.14	0.0097
0.0084	0.2369	0.0062
0.0521	0.4108	0.0107
0.063	0.4683	0.0121
0.0244	0.283	0.0089
0.9493	0.0279	0.0013
0.938	0.0343	0.0015
0.9304	0.0439	0.0016
0.9205	0.0491	0.0015
0.9195	0.0525	0.0017

System: pentane + sulfolane + 3-methylbutanoic acid; phases: Liquid mixture 1, Liquid mixture 2
Fixed: Temperature, K = 303.15
Fixed: Pressure, kPa = 100
Property: Mole fraction of 3-methylbutanoic acid (Liquid mixture 1); method: Titration method
Mole fraction of sulfolane	Mole fraction of 3-methylbutanoic acid	uncertainty
0.0058	0	
0.0121	0.06	0.0151
0.0165	0.165	0.0222
0.022	0.275	0.0323
0.0258	0.4622	0.0513
0.0655	0.5964	0.0127
0.1039	0.6122	0.012
0.2911	0.5992	0.0124
0.4155	0.5201	0.0149
0.5476	0.4087	0.0127
0.6276	0.3307	0.0103
0.7477	0.2275	0.0071
0.8709	0.1003	0.0033
0.9577	0.02	0.0014
0.9941	0	
0	0	

System: pentane + sulfolane + 3-methylbutanoic acid; phases: Liquid
Fixed: Temperature, K = 303.15
Fixed: Pressure, kPa = 100
Property: Refractive index (Na D-line) (Liquid); method: Standard Abbe refractometry
Mole fraction of sulfolane	Mole fraction of 3-methylbutanoic acid	Refractive index (Na D-line)	uncertainty
0.0296	0.47	1.3756	0.0027
0.0108	0.1687	1.3739	0.0009
0.01	0.2402	1.3683	0.001
0.0099	0.277	1.3653	0.0016
0.0315	0.378	1.356	0.0016
0.9745	0.0105	1.4515	0.0011
0.9693	0.015	1.4565	0.0011
0.969	0.0308	1.4621	0.0009
0.9401	0.043	1.4648	0.0009
0.9196	0.0598	1.4688	0.001

System: pentane + sulfolane + 3-methylbutanoic acid; phases: Liquid mixture 1, Liquid mixture 2
Fixed: Temperature, K = 303.15
Fixed: Pressure, kPa = 100
Property: Mole fraction of 3-methylbutanoic acid (Liquid mixture 1); method: Index of refraction calibration data
Mole fraction of sulfolane	Mole fraction of 3-methylbutanoic acid	uncertainty
0.0296	0.47	0.0496
0.0108	0.1687	0.0165
0.01	0.2402	0.013
0.0099	0.277	0.0117
0.0315	0.378	0.0492
0.9745	0.0105	0.0013
0.9693	0.015	0.0014
0.969	0.0308	0.0039
0.9401	0.043	0.0015
0.9196	0.0598	0.0018
