Measured thermophysical data. Thermodynamic properties of triethylamine +water liquid mixture from shear viscosity measurements
Source: Fluid Phase Equilib., 2009, 10.1016/j.fluid.2009.01.004
Compound 1: triethylamine, C6H15N, InChI=1S/C6H15N/c1-4-7(5-2)6-3/h4-6H2,1-3H3
Compound 2: water, H2O, InChI=1S/H2O/h1H2, purity 99.9%

System: triethylamine + water; phases: Liquid
Fixed: Pressure, kPa = 101
Property: Viscosity, Pa*s (Liquid); method: Capillary tube (Ostwald; Ubbelohde) method
Temperature, K	Mole fraction of triethylamine	Viscosity, Pa*s	uncertainty
283.15	0	0.0013056	1.01e-05
283.15	0.019	0.00252	1.85e-05
283.15	0.042	0.0040753	2.9e-05
283.15	0.077	0.0055468	3.8e-05
283.15	0.106	0.0066294	4.33e-05
283.15	0.151	0.006651	4.34e-05
283.15	0.21	0.0056354	3.84e-05
283.15	0.293	0.0042425	3.03e-05
283.15	0.415	0.0028205	2.07e-05
283.15	0.615	0.0018405	1.39e-05
283.15	1	0.0004275	4e-06
286.15	0	0.0012056	9.4e-06
286.15	0.019	0.0022106	1.64e-05
286.15	0.042	0.0035119	2.52e-05
286.15	0.077	0.0047612	3.36e-05
286.15	0.106	0.0054758	3.75e-05
286.15	0.151	0.0054974	3.76e-05
286.15	0.21	0.0048006	3.39e-05
286.15	0.293	0.003679	2.65e-05
286.15	0.415	0.0025111	1.85e-05
286.15	0.615	0.0015311	1.17e-05
286.15	1	0.000414	3.9e-06
288.15	0	0.0011436	9e-06
288.15	0.019	0.0020329	1.51e-05
288.15	0.042	0.0031992	2.31e-05
288.15	0.077	0.0042424	3.01e-05
288.15	0.106	0.0047477	3.34e-05
288.15	0.151	0.0047693	3.36e-05
288.15	0.21	0.004302	3.05e-05
288.15	0.293	0.0033663	2.43e-05
288.15	0.415	0.0023335	1.73e-05
288.15	0.615	0.0013535	1.05e-05
288.15	1	0.0004051	3.8e-06
290.15	0	0.0010854	8.6e-06
290.15	0.019	0.0018748	1.4e-05
290.15	0.042	0.0029478	2.14e-05
290.15	0.077	0.0037639	2.69e-05
290.15	0.106	0.0040704	2.89e-05
290.15	0.151	0.004092	2.91e-05
290.15	0.21	0.0038502	2.75e-05
290.15	0.293	0.0031149	2.26e-05
290.15	0.415	0.0021753	1.62e-05
290.15	0.615	0.0011953	9.4e-06
290.15	1	0.0003961	3.8e-06
291.15	0	0.001058	8.4e-06
291.15	0.019	0.0018037	1.36e-05
291.15	0.042	0.002846	2.11e-05
291.15	0.077	0.0035305	2.53e-05
291.15	0.106	0.0037514	2.68e-05
291.15	0.151	0.003773	2.69e-05
291.15	0.21	0.003644	2.61e-05
291.15	0.293	0.0030132	2.19e-05
291.15	0.415	0.0021042	1.6e-05
291.15	0.615	0.0011242	1.04e-05
291.15	1	0.0003917	3.7e-06
291.35	0	0.0010535	8.3e-06
291.35	0.019	0.0017923	1.35e-05
291.35	0.042	0.0028305	2.12e-05
291.35	0.077	0.0034818	2.52e-05
291.35	0.106	0.0036768	2.64e-05
291.35	0.151	0.0036985	2.65e-05
291.35	0.21	0.0036108	2.6e-05
291.35	0.293	0.0029977	2.18e-05
291.35	0.415	0.0020928	1.58e-05
291.35	0.615	0.0011128	1.01e-05
291.35	1	0.000391	3.7e-06
