Measured thermophysical data. Excess properties for binary systems ionic liquid + ethanol: Experimental results and theoretical description using the ERAS model
Source: Fluid Phase Equilib., 2008, 10.1016/j.fluid.2008.09.004
Compound 1: 1-butyl-3-methylimidazolium tetrafluoroborate, C8H15BF4N2, InChI=1S/C8H15N2.BF4/c1-3-4-5-10-7-6-9(2)8-10;2-1(3,4)5/h6-8H,3-5H2,1-2H3;/q+1;-1, purity 99%
Compound 2: 1-hexyl-3-methylimidazolium tetrafluoroborate, C10H19BF4N2, InChI=1S/C10H19N2.BF4/c1-3-4-5-6-7-12-9-8-11(2)10-12;2-1(3,4)5/h8-10H,3-7H2,1-2H3;/q+1;-1, purity 99%
Compound 3: 1-butyl-3-methylpyridinium tetrafluoroborate, C10H16BF4N, InChI=1S/C10H16N.BF4/c1-3-4-7-11-8-5-6-10(2)9-11;2-1(3,4)5/h5-6,8-9H,3-4,7H2,1-2H3;/q+1;-1, purity 99%
Compound 4: 1-ethyl-3-methylimidazolium ethyl sulfate, C8H16N2O4S, InChI=1S/C6H11N2.C2H6O4S/c1-3-8-5-4-7(2)6-8;1-2-6-7(3,4)5/h4-6H,3H2,1-2H3;2H2,1H3,(H,3,4,5)/q+1;/p-1, purity 99%
Compound 5: 1-butyl-3-methylimidazolium methyl sulfate, C9H18N2O4S, InChI=1S/C8H15N2.CH4O4S/c1-3-4-5-10-7-6-9(2)8-10;1-5-6(2,3)4/h6-8H,3-5H2,1-2H3;1H3,(H,2,3,4)/q+1;/p-1, purity 99%
Compound 6: 1-butyl-3-methylimidazolium trifluoromethanesulfonate, C9H15F3N2O3S, InChI=1S/C8H15N2.CHF3O3S/c1-3-4-5-10-7-6-9(2)8-10;2-1(3,4)8(5,6)7/h6-8H,3-5H2,1-2H3;(H,5,6,7)/q+1;/p-1, purity 99%
Compound 7: 1-ethyl-3-methylimidazolium trifluoromethanesulfonate, C7H11F3N2O3S, InChI=1S/C6H11N2.CHF3O3S/c1-3-8-5-4-7(2)6-8;2-1(3,4)8(5,6)7/h4-6H,3H2,1-2H3;(H,5,6,7)/q+1;/p-1, purity 99%
Compound 8: ethanol, C2H6O, InChI=1S/C2H6O/c1-2-3/h3H,2H2,1H3, purity 99.9%

System: 1-butyl-3-methylimidazolium tetrafluoroborate; phases: Liquid
Fixed: Pressure, kPa = 101.325
Property: Molar heat capacity at constant pressure, J/K/mol (Liquid); method: Small sample (50 mg) DSC
Temperature, K	Molar heat capacity at constant pressure, J/K/mol	uncertainty
293.15	359.8	5.6
298.15	363.1	5.6
303.15	366.1	5.7
308.15	368.7	5.7
313.15	371	5.7
318.15	372.9	5.8

System: 1-butyl-3-methylimidazolium tetrafluoroborate; phases: Liquid
Fixed: Pressure, kPa = 101.325
Property: Mass density, kg/m3 (Liquid); method: Vibrating tube method
Temperature, K	Mass density, kg/m3	uncertainty
293.15	1207.6	0.4
298.15	1204.1	0.4
303.15	1200.5	0.4
308.15	1197	0.4
313.15	1193.4	0.4
318.15	1189.9	0.4

System: 1-hexyl-3-methylimidazolium tetrafluoroborate; phases: Liquid
Fixed: Pressure, kPa = 101.325
Property: Molar heat capacity at constant pressure, J/K/mol (Liquid); method: Small sample (50 mg) DSC
Temperature, K	Molar heat capacity at constant pressure, J/K/mol	uncertainty
293.15	425.1	6.6
298.15	427.8	6.6
303.15	430.4	6.7
308.15	433	6.7
313.15	435.5	6.7
318.15	438.1	6.8

System: 1-hexyl-3-methylimidazolium tetrafluoroborate; phases: Liquid
Fixed: Pressure, kPa = 101.325
Property: Speed of sound, m/s (Liquid); method: Sing-around technique in a fixed-path interferometer
Temperature, K	Speed of sound, m/s	uncertainty
293.15	1532.7	1.4
298.15	1519.5	1.4
303.15	1506.9	1.4
308.15	1494.5	1.4
313.15	1482.3	1.4
318.15	1470.5	1.4

System: 1-hexyl-3-methylimidazolium tetrafluoroborate; phases: Liquid
Fixed: Pressure, kPa = 101.325
Property: Mass density, kg/m3 (Liquid); method: Vibrating tube method
Temperature, K	Mass density, kg/m3	uncertainty
293.15	1148.8	0.4
298.15	1145.3	0.4
303.15	1141.8	0.4
308.15	1138.4	0.4
313.15	1135	0.4
318.15	1131.6	0.4

System: 1-butyl-3-methylpyridinium tetrafluoroborate; phases: Liquid
Fixed: Pressure, kPa = 101.325
Property: Speed of sound, m/s (Liquid); method: Sing-around technique in a fixed-path interferometer
Temperature, K	Speed of sound, m/s	uncertainty
293.15	1599.8	1.4
298.15	1587	1.4
303.15	1574.8	1.4
308.15	1562.6	1.4
313.15	1550.7	1.4
318.15	1538.9	1.4

System: 1-ethyl-3-methylimidazolium ethyl sulfate; phases: Liquid
Fixed: Pressure, kPa = 101.325
Property: Molar heat capacity at constant pressure, J/K/mol (Liquid); method: Small sample (50 mg) DSC
Temperature, K	Molar heat capacity at constant pressure, J/K/mol	uncertainty
293.15	392.2	6.1
298.15	394.4	6.1
303.15	396.8	6.1
308.15	399.3	6.2
313.15	402	6.2
318.15	404.9	6.3

System: 1-ethyl-3-methylimidazolium ethyl sulfate; phases: Liquid
Fixed: Pressure, kPa = 101.325
Property: Mass density, kg/m3 (Liquid); method: Vibrating tube method
Temperature, K	Mass density, kg/m3	uncertainty
293.15	1240.6	0.4
298.15	1237.2	0.4
303.15	1233.8	0.4
308.15	1230.4	0.4
313.15	1227	0.4
318.15	1223.7	0.4

System: 1-butyl-3-methylimidazolium methyl sulfate; phases: Liquid
Fixed: Pressure, kPa = 101.325
Property: Molar heat capacity at constant pressure, J/K/mol (Liquid); method: Small sample (50 mg) DSC
Temperature, K	Molar heat capacity at constant pressure, J/K/mol	uncertainty
293.15	413.7	6.4
298.15	416.2	6.4
303.15	418.5	6.5
308.15	420.9	6.5
313.15	423.3	6.6
318.15	425.6	6.6

System: 1-butyl-3-methylimidazolium methyl sulfate; phases: Liquid
Fixed: Pressure, kPa = 101.325
Property: Mass density, kg/m3 (Liquid); method: Vibrating tube method
Temperature, K	Mass density, kg/m3	uncertainty
293.15	1210.7	0.4
298.15	1207.4	0.4
303.15	1204.1	0.4
308.15	1200.8	0.4
313.15	1197.5	0.4
318.15	1194.2	0.4

System: 1-butyl-3-methylimidazolium trifluoromethanesulfonate; phases: Liquid
Fixed: Pressure, kPa = 101.325
Property: Molar heat capacity at constant pressure, J/K/mol (Liquid); method: Small sample (50 mg) DSC
Temperature, K	Molar heat capacity at constant pressure, J/K/mol	uncertainty
293.15	421.6	6.5
298.15	424.1	6.6
303.15	426.7	6.6
308.15	429.5	6.7
313.15	432.4	6.7
318.15	435.5	6.7

System: 1-butyl-3-methylimidazolium trifluoromethanesulfonate; phases: Liquid
Fixed: Pressure, kPa = 101.325
Property: Speed of sound, m/s (Liquid); method: Sing-around technique in a fixed-path interferometer
Temperature, K	Speed of sound, m/s	uncertainty
293.15	1403.4	1.3
298.15	1392.1	1.3
303.15	1380.9	1.3
308.15	1369.8	1.3
313.15	1358.8	1.3
318.15	1348.1	1.3

System: 1-butyl-3-methylimidazolium trifluoromethanesulfonate; phases: Liquid
Fixed: Pressure, kPa = 101.325
Property: Mass density, kg/m3 (Liquid); method: Vibrating tube method
Temperature, K	Mass density, kg/m3	uncertainty
293.15	1301.6	0.5
298.15	1297.6	0.5
303.15	1293.7	0.5
308.15	1289.7	0.5
313.15	1285.8	0.5
318.15	1281.9	0.5

System: 1-ethyl-3-methylimidazolium trifluoromethanesulfonate; phases: Liquid
Fixed: Pressure, kPa = 101.325
Property: Molar heat capacity at constant pressure, J/K/mol (Liquid); method: Small sample (50 mg) DSC
Temperature, K	Molar heat capacity at constant pressure, J/K/mol	uncertainty
293.15	361.1	5.6
298.15	363.2	5.6
303.15	365.3	5.7
308.15	367.4	5.7
313.15	369.6	5.7
318.15	371.8	5.8

System: 1-ethyl-3-methylimidazolium trifluoromethanesulfonate; phases: Liquid
Fixed: Pressure, kPa = 101.325
Property: Mass density, kg/m3 (Liquid); method: Vibrating tube method
Temperature, K	Mass density, kg/m3	uncertainty
293.15	1389.5	0.6
298.15	1385.3	0.6
303.15	1381.1	0.6
308.15	1376.9	0.6
313.15	1372.7	0.6
318.15	1368.6	0.6

System: ethanol; phases: Liquid
Fixed: Pressure, kPa = 101.325
Property: Molar heat capacity at constant pressure, J/K/mol (Liquid); method: Small sample (50 mg) DSC
Temperature, K	Molar heat capacity at constant pressure, J/K/mol	uncertainty
293.15	111.3	1.7
298.15	113.3	1.8
303.15	115.3	1.8
308.15	117.5	1.8
313.15	119.7	1.9
318.15	122.1	1.9

System: ethanol; phases: Liquid
Fixed: Pressure, kPa = 101.325
Property: Speed of sound, m/s (Liquid); method: Sing-around technique in a fixed-path interferometer
Temperature, K	Speed of sound, m/s	uncertainty
293.15	1159.5	0.8
298.15	1142.5	0.8
303.15	1125.5	0.8
308.15	1108.6	0.8
313.15	1091.8	0.8
318.15	1075.1	0.7

System: ethanol; phases: Liquid
Fixed: Pressure, kPa = 101.325
Property: Mass density, kg/m3 (Liquid); method: Vibrating tube method
Temperature, K	Mass density, kg/m3	uncertainty
293.15	789.6	0.2
298.15	785.3	0.2
303.15	781	0.2
308.15	776.7	0.2
313.15	772.3	0.2
318.15	767.8	0.2

System: ethanol + 1-butyl-3-methylpyridinium tetrafluoroborate; phases: Liquid
Fixed: Pressure, kPa = 101
Fixed: Temperature, K = 303.15
Property: Excess molar enthalpy (molar enthalpy of mixing), kJ/mol (Liquid); method: Calvet calorimetry
Mole fraction of 1-butyl-3-methylpyridinium tetrafluoroborate	Excess molar enthalpy (molar enthalpy of mixing), kJ/mol	uncertainty
0.0306	0.554	0.045
0.1031	1.356	0.109
0.1976	2.021	0.162
0.3036	2.46	0.198
0.3966	2.599	0.209
0.5083	2.495	0.2
0.6001	2.239	0.18
0.692	1.881	0.151
0.8061	1.258	0.101
0.8847	0.782	0.063

System: ethanol + 1-hexyl-3-methylimidazolium tetrafluoroborate; phases: Liquid
Fixed: Pressure, kPa = 101
Fixed: Temperature, K = 303.15
Property: Excess molar enthalpy (molar enthalpy of mixing), kJ/mol (Liquid); method: Calvet calorimetry
Mole fraction of 1-hexyl-3-methylimidazolium tetrafluoroborate	Excess molar enthalpy (molar enthalpy of mixing), kJ/mol	uncertainty
0.101	1.346	0.108
0.2037	2.046	0.164
0.3018	2.408	0.193
0.3977	2.567	0.206
0.4988	2.479	0.199
0.6045	2.184	0.175
0.6901	1.855	0.149
0.7932	1.314	0.106
0.8733	0.848	0.068

System: ethanol + 1-hexyl-3-methylimidazolium tetrafluoroborate; phases: Liquid
Fixed: Pressure, kPa = 101
Property: Molar heat capacity at constant pressure, J/K/mol (Liquid); method: Small sample (50 mg) DSC
Mole fraction of 1-hexyl-3-methylimidazolium tetrafluoroborate	Temperature, K	Molar heat capacity at constant pressure, J/K/mol	uncertainty
0.1052	293.15	152	2.4
0.1052	298.15	153.6	2.4
0.1052	303.15	155	2.4
0.1052	308.15	156.6	2.4
0.1052	313.15	158.1	2.5
0.1052	318.15	159.8	2.5
0.2011	293.15	184.5	2.9
0.2011	298.15	185.9	2.9
0.2011	303.15	187.3	2.9
0.2011	308.15	188.6	2.9
0.2011	313.15	189.9	2.9
0.2011	318.15	191.2	3
0.2832	293.15	209.9	3.3
0.2832	298.15	211.4	3.3
0.2832	303.15	212.8	3.3
0.2832	308.15	214.1	3.3
0.2832	313.15	215.4	3.3
0.2832	318.15	216.7	3.4
0.3846	293.15	240.4	3.7
0.3846	298.15	241.8	3.7
0.3846	303.15	243	3.8
0.3846	308.15	244.4	3.8
0.3846	313.15	245.7	3.8
0.3846	318.15	247.1	3.8
0.4943	293.15	272.3	4.2
0.4943	298.15	273.8	4.2
0.4943	303.15	275.2	4.3
0.4943	308.15	276.7	4.3
0.4943	313.15	278.1	4.3
0.4943	318.15	279.6	4.3
0.5486	293.15	288	4.5
0.5486	298.15	289.7	4.5
0.5486	303.15	291.3	4.5
0.5486	308.15	293	4.5
0.5486	313.15	294.6	4.6
0.5486	318.15	296.2	4.6
0.6882	293.15	328.8	5.1
0.6882	298.15	330.9	5.1
0.6882	303.15	332.9	5.2
0.6882	308.15	334.9	5.2
0.6882	313.15	336.9	5.2
0.6882	318.15	338.9	5.3
0.7879	293.15	358.6	5.6
0.7879	298.15	360.8	5.6
0.7879	303.15	363	5.6
0.7879	308.15	365	5.7
0.7879	313.15	367.1	5.7
0.7879	318.15	369	5.7
0.8791	293.15	387.1	6
0.8791	298.15	389.4	6
0.8791	303.15	391.6	6.1
0.8791	308.15	393.9	6.1
0.8791	313.15	396.1	6.1
0.8791	318.15	398.3	6.2

System: ethanol + 1-hexyl-3-methylimidazolium tetrafluoroborate; phases: Liquid
Fixed: Pressure, kPa = 101
Property: Mass density, kg/m3 (Liquid); method: Vibrating tube method
Mole fraction of 1-hexyl-3-methylimidazolium tetrafluoroborate	Temperature, K	Mass density, kg/m3	uncertainty
0.1052	293.15	904.3	0.3
0.1052	298.15	900.2	0.3
0.1052	303.15	896.2	0.3
0.1052	308.15	892.1	0.3
0.1052	313.15	888	0.3
0.1052	318.15	883.9	0.3
0.2011	293.15	969.7	0.2
0.2011	298.15	965.8	0.2
0.2011	303.15	961.8	0.2
0.2011	308.15	957.9	0.2
0.2011	313.15	954	0.2
0.2011	318.15	950	0.2
0.2832	293.15	1009.1	0.2
0.2832	298.15	1005.2	0.2
0.2832	303.15	1001.4	0.2
0.2832	308.15	997.6	0.2
0.2832	313.15	993.7	0.2
0.2832	318.15	989.8	0.2
0.3846	293.15	1045.5	0.2
0.3846	298.15	1041.7	0.2
0.3846	303.15	1037.9	0.2
0.3846	308.15	1034.2	0.2
0.3846	313.15	1030.4	0.2
0.3846	318.15	1026.7	0.2
0.4943	293.15	1075.1	0.2
0.4943	298.15	1071.4	0.2
0.4943	303.15	1067.7	0.2
0.4943	308.15	1064	0.2
0.4943	313.15	1060.4	0.2
0.4943	318.15	1056.7	0.2
0.5486	293.15	1086.6	0.2
0.5486	298.15	1082.9	0.2
0.5486	303.15	1079.3	0.2
0.5486	308.15	1075.6	0.2
0.5486	313.15	1072	0.2
0.5486	318.15	1068.4	0.2
0.6882	293.15	1111.6	0.3
0.6882	298.15	1108	0.3
0.6882	303.15	1104.4	0.3
0.6882	308.15	1100.9	0.3
0.6882	313.15	1097.4	0.3
0.6882	318.15	1093.8	0.3
0.7748	293.15	1124	0.3
0.7748	298.15	1120.5	0.3
0.7748	303.15	1117	0.3
0.7748	308.15	1113.5	0.3
0.7748	313.15	1110	0.3
0.7748	318.15	1106.5	0.3
0.7988	293.15	1127.1	0.3
0.7988	298.15	1123.6	0.3
0.7988	303.15	1120.1	0.3
0.7988	308.15	1116.6	0.3
0.7988	313.15	1113.1	0.3
0.7988	318.15	1109.6	0.3
0.8521	293.15	1133.6	0.3
0.8521	298.15	1130.1	0.3
0.8521	303.15	1126.6	0.3
0.8521	308.15	1123.1	0.3
0.8521	313.15	1119.7	0.3
0.8521	318.15	1116.2	0.3

System: ethanol + 1-ethyl-3-methylimidazolium ethyl sulfate; phases: Liquid
Fixed: Pressure, kPa = 101
Fixed: Temperature, K = 303.15
Property: Excess molar enthalpy (molar enthalpy of mixing), kJ/mol (Liquid); method: Calvet calorimetry
Mole fraction of 1-ethyl-3-methylimidazolium ethyl sulfate	Excess molar enthalpy (molar enthalpy of mixing), kJ/mol	uncertainty
0.0486	0.522	0.042
0.1198	1.086	0.087
0.1961	1.263	0.102
0.2952	1.317	0.106
0.3917	1.243	0.1
0.4937	1.153	0.093
0.6087	0.922	0.074
0.7017	0.715	0.057
0.7963	0.494	0.04
0.8774	0.306	0.025

System: ethanol + 1-ethyl-3-methylimidazolium ethyl sulfate; phases: Liquid
Fixed: Pressure, kPa = 101
Property: Molar heat capacity at constant pressure, J/K/mol (Liquid); method: Small sample (50 mg) DSC
Mole fraction of 1-ethyl-3-methylimidazolium ethyl sulfate	Temperature, K	Molar heat capacity at constant pressure, J/K/mol	uncertainty
0.0157	293.15	114.9	1.8
0.0157	298.15	116.8	1.8
0.0157	303.15	118.6	1.8
0.0157	308.15	120.7	1.9
0.0157	313.15	122.8	1.9
0.0157	318.15	125	1.9
0.0523	293.15	124.6	1.9
0.0523	298.15	126.2	2
0.0523	303.15	127.9	2
0.0523	308.15	129.7	2
0.0523	313.15	131.6	2
0.0523	318.15	133.6	2.1
0.0978	293.15	137.1	2.1
0.0978	298.15	138.5	2.1
0.0978	303.15	139.9	2.2
0.0978	308.15	141.6	2.2
0.0978	313.15	143.2	2.2
0.0978	318.15	145	2.2
0.1944	293.15	163.7	2.5
0.1944	298.15	165	2.6
0.1944	303.15	166.3	2.6
0.1944	308.15	167.7	2.6
0.1944	313.15	169.2	2.6
0.1944	318.15	170.9	2.6
0.3073	293.15	194.6	3
0.3073	298.15	195.9	3
0.3073	303.15	197.2	3.1
0.3073	308.15	198.8	3.1
0.3073	313.15	200.4	3.1
0.3073	318.15	202.2	3.1
0.4109	293.15	223.4	3.5
0.4109	298.15	224.8	3.5
0.4109	303.15	226.3	3.5
0.4109	308.15	227.9	3.5
0.4109	313.15	229.6	3.6
0.4109	318.15	231.5	3.6
0.5084	293.15	250.8	3.9
0.5084	298.15	252.3	3.9
0.5084	303.15	254	3.9
0.5084	308.15	255.8	4
0.5084	313.15	257.6	4
0.5084	318.15	259.7	4
0.5927	293.15	274.9	4.3
0.5927	298.15	276.5	4.3
0.5927	303.15	278.3	4.3
0.5927	308.15	280.3	4.3
0.5927	313.15	282.3	4.4
0.5927	318.15	284.5	4.4
0.6995	293.15	305.4	4.7
0.6995	298.15	307.2	4.8
0.6995	303.15	309	4.8
0.6995	308.15	311.1	4.8
0.6995	313.15	313.3	4.9
0.6995	318.15	315.6	4.9
0.7883	293.15	331.1	5.1
0.7883	298.15	333	5.2
0.7883	303.15	335	5.2
0.7883	308.15	337.2	5.2
0.7883	313.15	339.5	5.3
0.7883	318.15	342	5.3
0.8797	293.15	357.4	5.5
0.8797	298.15	359.4	5.6
0.8797	303.15	361.6	5.6
0.8797	308.15	364	5.6
0.8797	313.15	366.5	5.7
0.8797	318.15	369.1	5.7
0.9388	293.15	374.4	5.8
0.9388	298.15	376.5	5.8
0.9388	303.15	378.8	5.9
0.9388	308.15	381.3	5.9
0.9388	313.15	383.9	5.9
0.9388	318.15	386.7	6

System: ethanol + 1-ethyl-3-methylimidazolium ethyl sulfate; phases: Liquid
Fixed: Pressure, kPa = 101
Property: Mass density, kg/m3 (Liquid); method: Vibrating tube method
Mole fraction of 1-ethyl-3-methylimidazolium ethyl sulfate	Temperature, K	Mass density, kg/m3	uncertainty
0.0157	293.15	813.7	0.4
0.0157	298.15	809.5	0.4
0.0157	303.15	805.3	0.4
0.0157	308.15	801	0.4
0.0157	313.15	796.7	0.4
0.0157	318.15	792.3	0.4
0.05	293.15	860	0.3
0.05	298.15	855.9	0.3
0.05	303.15	851.8	0.3
0.05	308.15	847.7	0.3
0.05	313.15	843.5	0.3
0.05	318.15	839.2	0.3
0.0523	293.15	862.6	0.3
0.0523	298.15	858.5	0.3
0.0523	303.15	854.4	0.3
0.0523	308.15	850.3	0.3
0.0523	313.15	846.1	0.3
0.0523	318.15	841.9	0.3
0.0978	293.15	913.4	0.3
0.0978	298.15	909.4	0.3
0.0978	303.15	905.3	0.3
0.0978	308.15	901.3	0.3
0.0978	313.15	897.3	0.3
0.0978	318.15	893.2	0.3
0.0991	293.15	914.6	0.3
0.0991	298.15	910.6	0.3
0.0991	303.15	906.6	0.3
0.0991	308.15	902.6	0.3
0.0991	313.15	898.5	0.3
0.0991	318.15	894.4	0.3
0.1944	293.15	996	0.3
0.1944	298.15	992.1	0.3
0.1944	303.15	988.3	0.3
0.1944	308.15	984.4	0.3
0.1944	313.15	980.6	0.3
0.1944	318.15	976.6	0.3
0.3073	293.15	1063.7	0.2
0.3073	298.15	1060	0.2
0.3073	303.15	1056.3	0.2
0.3073	308.15	1052.6	0.2
0.3073	313.15	1048.8	0.2
0.3073	318.15	1045.1	0.2
0.4109	293.15	1109.6	0.3
0.4109	298.15	1105.9	0.3
0.4109	303.15	1102.3	0.2
0.4109	308.15	1098.7	0.2
0.4109	313.15	1095	0.2
0.4109	318.15	1091.4	0.2
0.5084	293.15	1143.2	0.3
0.5084	298.15	1139.6	0.3
0.5084	303.15	1136	0.3
0.5084	308.15	1132.5	0.3
0.5084	313.15	1128.9	0.3
0.5084	318.15	1125.3	0.3
0.5927	293.15	1167	0.3
0.5927	298.15	1163.4	0.3
0.5927	303.15	1159.9	0.3
0.5927	308.15	1156.4	0.3
0.5927	313.15	1152.9	0.3
0.5927	318.15	1149.3	0.3
0.6995	293.15	1191.8	0.3
0.6995	298.15	1188.3	0.3
0.6995	303.15	1184.8	0.3
0.6995	308.15	1181.4	0.3
0.6995	313.15	1177.9	0.3
0.6995	318.15	1174.4	0.3
0.7883	293.15	1208.9	0.3
0.7883	298.15	1205.4	0.3
0.7883	303.15	1202	0.3
0.7883	308.15	1198.5	0.3
0.7883	313.15	1195.1	0.3
0.7883	318.15	1191.7	0.3
0.8797	293.15	1223.9	0.4
0.8797	298.15	1220.5	0.4
0.8797	303.15	1217.1	0.4
0.8797	308.15	1213.7	0.4
0.8797	313.15	1210.2	0.4
0.8797	318.15	1206.9	0.4
0.9388	293.15	1232.5	0.4
0.9388	298.15	1229.1	0.4
0.9388	303.15	1225.7	0.4
0.9388	308.15	1222.3	0.4
0.9388	313.15	1218.9	0.4
0.9388	318.15	1215.5	0.4

System: ethanol + 1-ethyl-3-methylimidazolium trifluoromethanesulfonate; phases: Liquid
Fixed: Pressure, kPa = 101
Fixed: Temperature, K = 303.15
Property: Excess molar enthalpy (molar enthalpy of mixing), kJ/mol (Liquid); method: Calvet calorimetry
Mole fraction of 1-ethyl-3-methylimidazolium trifluoromethanesulfonate	Excess molar enthalpy (molar enthalpy of mixing), kJ/mol	uncertainty
0.1271	1.218	0.098
0.2489	1.719	0.138
0.3752	1.879	0.151
0.5006	1.772	0.142
0.6176	1.519	0.122
0.7501	1.086	0.087
0.869	0.599	0.048

System: ethanol + 1-ethyl-3-methylimidazolium trifluoromethanesulfonate; phases: Liquid
Fixed: Pressure, kPa = 101
Property: Molar heat capacity at constant pressure, J/K/mol (Liquid); method: Small sample (50 mg) DSC
Mole fraction of 1-ethyl-3-methylimidazolium trifluoromethanesulfonate	Temperature, K	Molar heat capacity at constant pressure, J/K/mol	uncertainty
0.0523	293.15	125.1	1.9
0.0523	298.15	126.8	2
0.0523	303.15	128.4	2
0.0523	308.15	130.3	2
0.0523	313.15	132.2	2
0.0523	318.15	134.2	2.1
0.1	293.15	138.9	2.2
0.1	298.15	140.4	2.2
0.1	303.15	142	2.2
0.1	308.15	143.8	2.2
0.1	313.15	145.5	2.3
0.1	318.15	147.4	2.3
0.1959	293.15	164.1	2.5
0.1959	298.15	165.4	2.6
0.1959	303.15	166.7	2.6
0.1959	308.15	168.1	2.6
0.1959	313.15	169.5	2.6
0.1959	318.15	171.1	2.7
0.2927	293.15	188.3	2.9
0.2927	298.15	189.5	2.9
0.2927	303.15	190.7	3
0.2927	308.15	192.1	3
0.2927	313.15	193.5	3
0.2927	318.15	195	3
0.3819	293.15	209.7	3.2
0.3819	298.15	211	3.3
0.3819	303.15	212.3	3.3
0.3819	308.15	213.8	3.3
0.3819	313.15	215.2	3.3
0.3819	318.15	216.9	3.4
0.4917	293.15	236	3.7
0.4917	298.15	237.4	3.7
0.4917	303.15	238.8	3.7
0.4917	308.15	240.4	3.7
0.4917	313.15	241.9	3.7
0.4917	318.15	243.6	3.8
0.5983	293.15	261.7	4.1
0.5983	298.15	263.3	4.1
0.5983	303.15	264.9	4.1
0.5983	308.15	266.5	4.1
0.5983	313.15	268.2	4.2
0.5983	318.15	270	4.2
0.6899	293.15	283.9	4.4
0.6899	298.15	285.4	4.4
0.6899	303.15	286.9	4.4
0.6899	308.15	288.5	4.5
0.6899	313.15	290.1	4.5
0.6899	318.15	291.9	4.5
0.7829	293.15	306.8	4.8
0.7829	298.15	308.5	4.8
0.7829	303.15	310.3	4.8
0.7829	308.15	312.2	4.8
0.7829	313.15	314.1	4.9
0.7829	318.15	316.1	4.9
0.8784	293.15	330.5	5.1
0.8784	298.15	332.5	5.2
0.8784	303.15	334.5	5.2
0.8784	308.15	336.6	5.2
0.8784	313.15	338.7	5.2
0.8784	318.15	340.9	5.3

System: ethanol + 1-ethyl-3-methylimidazolium trifluoromethanesulfonate; phases: Liquid
Fixed: Pressure, kPa = 101
Property: Mass density, kg/m3 (Liquid); method: Vibrating tube method
Mole fraction of 1-ethyl-3-methylimidazolium trifluoromethanesulfonate	Temperature, K	Mass density, kg/m3	uncertainty
0.0523	293.15	883.9	0.4
0.0523	298.15	879.6	0.4
0.0523	303.15	875.3	0.4
0.0523	308.15	871	0.4
0.0523	313.15	866.7	0.4
0.0523	318.15	862.2	0.4
0.1	293.15	953	0.3
0.1	298.15	948.7	0.3
0.1	303.15	944.4	0.3
0.1	308.15	940.2	0.3
0.1	313.15	935.8	0.3
0.1	318.15	931.4	0.3
0.1959	293.15	1059.7	0.3
0.1959	298.15	1055.4	0.3
0.1959	303.15	1051.1	0.3
0.1959	308.15	1046.8	0.3
0.1959	313.15	1042.5	0.3
0.1959	318.15	1038.1	0.3
0.2927	293.15	1138.5	0.3
0.2927	298.15	1134.1	0.3
0.2927	303.15	1129.8	0.3
0.2927	308.15	1125.6	0.3
0.2927	313.15	1121.3	0.3
0.2927	318.15	1116.9	0.3
0.3819	293.15	1194.5	0.3
0.3819	298.15	1190.2	0.3
0.3819	303.15	1185.9	0.3
0.3819	308.15	1181.6	0.3
0.3819	313.15	1177.3	0.3
0.3819	318.15	1173	0.3
0.4917	293.15	1248.4	0.3
0.4917	298.15	1244.1	0.3
0.4917	303.15	1239.9	0.3
0.4917	308.15	1235.6	0.3
0.4917	313.15	1231.4	0.3
0.4917	318.15	1227.1	0.3
0.5983	293.15	1289.4	0.3
0.5983	298.15	1285.1	0.3
0.5983	303.15	1280.9	0.3
0.5983	308.15	1276.7	0.3
0.5983	313.15	1272.4	0.3
0.5983	318.15	1268.2	0.3
0.6899	293.15	1318.8	0.3
0.6899	298.15	1314.5	0.3
0.6899	303.15	1310.3	0.3
0.6899	308.15	1306.1	0.3
0.6899	313.15	1301.9	0.3
0.6899	318.15	1297.7	0.3
0.7829	293.15	1343.7	0.3
0.7829	298.15	1339.4	0.3
0.7829	303.15	1335.2	0.3
0.7829	308.15	1331	0.3
0.7829	313.15	1326.8	0.3
0.7829	318.15	1322.6	0.3
0.8784	293.15	1365.6	0.3
0.8784	298.15	1361.4	0.3
0.8784	303.15	1357.2	0.3
0.8784	308.15	1353	0.3
0.8784	313.15	1348.8	0.3
0.8784	318.15	1344.7	0.3

System: ethanol + 1-butyl-3-methylimidazolium trifluoromethanesulfonate; phases: Liquid
Fixed: Pressure, kPa = 101
Fixed: Temperature, K = 303.15
Property: Excess molar enthalpy (molar enthalpy of mixing), kJ/mol (Liquid); method: Calvet calorimetry
Mole fraction of 1-butyl-3-methylimidazolium trifluoromethanesulfonate	Excess molar enthalpy (molar enthalpy of mixing), kJ/mol	uncertainty
0.0987	0.963	0.077
0.2029	1.518	0.122
0.2948	1.742	0.14
0.4016	1.773	0.142
0.4928	1.7	0.137
0.5952	1.479	0.119
0.6832	1.217	0.098
0.8026	0.833	0.067
0.8759	0.539	0.043

System: ethanol + 1-butyl-3-methylimidazolium trifluoromethanesulfonate; phases: Liquid
Fixed: Pressure, kPa = 101
Property: Molar heat capacity at constant pressure, J/K/mol (Liquid); method: Small sample (50 mg) DSC
Mole fraction of 1-butyl-3-methylimidazolium trifluoromethanesulfonate	Temperature, K	Molar heat capacity at constant pressure, J/K/mol	uncertainty
0.0522	293.15	128.2	2
0.0522	298.15	130	2
0.0522	303.15	131.8	2
0.0522	308.15	133.8	2.1
0.0522	313.15	135.8	2.1
0.0522	318.15	138	2.1
0.0982	293.15	143.3	2.2
0.0982	298.15	144.9	2.2
0.0982	303.15	146.4	2.3
0.0982	308.15	148.2	2.3
0.0982	313.15	150	2.3
0.0982	318.15	152	2.4
0.1976	293.15	175.3	2.7
0.1976	298.15	176.8	2.7
0.1976	303.15	178.3	2.8
0.1976	308.15	180	2.8
0.1976	313.15	181.7	2.8
0.1976	318.15	183.6	2.8
0.2999	293.15	207.9	3.2
0.2999	298.15	209.2	3.2
0.2999	303.15	210.6	3.3
0.2999	308.15	212.1	3.3
0.2999	313.15	213.7	3.3
0.2999	318.15	215.4	3.3
0.3996	293.15	237.9	3.7
0.3996	298.15	239.4	3.7
0.3996	303.15	240.9	3.7
0.3996	308.15	242.6	3.8
0.3996	313.15	244.3	3.8
0.3996	318.15	246.2	3.8
0.4973	293.15	267.2	4.1
0.4973	298.15	268.9	4.2
0.4973	303.15	270.7	4.2
0.4973	308.15	272.6	4.2
0.4973	313.15	274.6	4.3
0.4973	318.15	276.8	4.3
0.5923	293.15	295.7	4.6
0.5923	298.15	297.3	4.6
0.5923	303.15	299	4.6
0.5923	308.15	301	4.7
0.5923	313.15	303	4.7
0.5923	318.15	305.1	4.7
0.6898	293.15	326.5	5.1
0.6898	298.15	328.2	5.1
0.6898	303.15	330	5.1
0.6898	308.15	332	5.1
0.6898	313.15	334.1	5.2
0.6898	318.15	336.4	5.2
0.7868	293.15	355.5	5.5
0.7868	298.15	357.6	5.5
0.7868	303.15	359.9	5.6
0.7868	308.15	362.3	5.6
0.7868	313.15	364.8	5.7
0.7868	318.15	367.5	5.7
0.8756	293.15	382.4	5.9
0.8756	298.15	384.5	6
0.8756	303.15	386.8	6
0.8756	308.15	389.3	6
0.8756	313.15	391.9	6.1
0.8756	318.15	394.6	6.1
0.9283	293.15	399	6.2
0.9283	298.15	401.2	6.2
0.9283	303.15	403.7	6.3
0.9283	308.15	406.3	6.3
0.9283	313.15	409	6.3
0.9283	318.15	411.9	6.4

System: ethanol + 1-butyl-3-methylimidazolium trifluoromethanesulfonate; phases: Liquid
Fixed: Pressure, kPa = 101
Property: Mass density, kg/m3 (Liquid); method: Vibrating tube method
Mole fraction of 1-butyl-3-methylimidazolium trifluoromethanesulfonate	Temperature, K	Mass density, kg/m3	uncertainty
0.0522	293.15	881	0.4
0.0522	298.15	876.7	0.4
0.0522	303.15	872.5	0.4
0.0522	308.15	868.2	0.4
0.0522	313.15	863.9	0.4
0.0522	318.15	859.5	0.4
0.0982	293.15	944.5	0.3
0.0982	298.15	940.2	0.3
0.0982	303.15	935.9	0.3
0.0982	308.15	931.7	0.3
0.0982	313.15	927.4	0.3
0.0982	318.15	923	0.3
0.1976	293.15	1041.9	0.3
0.1976	298.15	1037.7	0.3
0.1976	303.15	1033.4	0.3
0.1976	308.15	1029.2	0.3
0.1976	313.15	1025	0.3
0.1976	318.15	1020.7	0.3
0.2999	293.15	1111.4	0.2
0.2999	298.15	1107.2	0.2
0.2999	303.15	1103	0.2
0.2999	308.15	1098.8	0.2
0.2999	313.15	1094.7	0.2
0.2999	318.15	1090.5	0.3
0.3996	293.15	1160.3	0.2
0.3996	298.15	1156.1	0.2
0.3996	303.15	1152	0.2
0.3996	308.15	1147.9	0.2
0.3996	313.15	1143.8	0.2
0.3996	318.15	1139.6	0.2
0.4973	293.15	1196.9	0.2
0.4973	298.15	1192.8	0.2
0.4973	303.15	1188.7	0.2
0.4973	308.15	1184.7	0.2
0.4973	313.15	1180.6	0.2
0.4973	318.15	1176.5	0.2
0.5923	293.15	1225.3	0.2
0.5923	298.15	1221.2	0.2
0.5923	303.15	1217.2	0.2
0.5923	308.15	1213.1	0.2
0.5923	313.15	1209.1	0.2
0.5923	318.15	1205	0.2
0.6898	293.15	1249.1	0.2
0.6898	298.15	1245	0.2
0.6898	303.15	1241	0.2
0.6898	308.15	1237	0.2
0.6898	313.15	1233	0.2
0.6898	318.15	1229	0.2
0.7868	293.15	1268.5	0.2
0.7868	298.15	1264.5	0.2
0.7868	303.15	1260.5	0.2
0.7868	308.15	1256.5	0.2
0.7868	313.15	1252.5	0.2
0.7868	318.15	1248.5	0.2
0.8756	293.15	1283.7	0.2
0.8756	298.15	1279.7	0.2
0.8756	303.15	1275.7	0.2
0.8756	308.15	1271.7	0.2
0.8756	313.15	1267.7	0.2
0.8756	318.15	1263.8	0.2
0.9283	293.15	1291.6	0.3
0.9283	298.15	1287.6	0.3
0.9283	303.15	1283.7	0.2
0.9283	308.15	1279.7	0.2
0.9283	313.15	1275.8	0.2
0.9283	318.15	1271.8	0.2

System: ethanol + 1-butyl-3-methylimidazolium tetrafluoroborate; phases: Liquid
Fixed: Pressure, kPa = 101
Property: Molar heat capacity at constant pressure, J/K/mol (Liquid); method: Small sample (50 mg) DSC
Mole fraction of 1-butyl-3-methylimidazolium tetrafluoroborate	Temperature, K	Molar heat capacity at constant pressure, J/K/mol	uncertainty
0.0987	293.15	150.5	2.3
0.0987	298.15	150	2.3
0.0987	303.15	149.9	2.3
0.0987	308.15	150.3	2.3
0.0987	313.15	151.1	2.3
0.0987	318.15	152.4	2.4
0.1923	293.15	174.4	2.7
0.1923	298.15	173.6	2.7
0.1923	303.15	173.5	2.7
0.1923	308.15	174.2	2.7
0.1923	313.15	175.6	2.7
0.1923	318.15	177.8	2.8
0.3004	293.15	197.8	3.1
0.3004	298.15	198.8	3.1
0.3004	303.15	199.7	3.1
0.3004	308.15	200.6	3.1
0.3004	313.15	201.4	3.1
0.3004	318.15	202.3	3.1
0.3885	293.15	219.8	3.4
0.3885	298.15	219.6	3.4
0.3885	303.15	219.9	3.4
0.3885	308.15	220.6	3.4
0.3885	313.15	221.7	3.4
0.3885	318.15	223.3	3.5
0.4865	293.15	240.1	3.7
0.4865	298.15	241.2	3.7
0.4865	303.15	242.3	3.8
0.4865	308.15	243.4	3.8
0.4865	313.15	244.4	3.8
0.4865	318.15	245.6	3.8
0.573	293.15	258.3	4
0.573	298.15	259.7	4
0.573	303.15	261.1	4
0.573	308.15	262.4	4.1
0.573	313.15	263.7	4.1
0.573	318.15	265.1	4.1
0.6738	293.15	281.8	4.4
0.6738	298.15	283.5	4.4
0.6738	303.15	285.2	4.4
0.6738	308.15	286.9	4.4
0.6738	313.15	288.5	4.5
0.6738	318.15	290.1	4.5
0.7531	293.15	300.8	4.7
0.7531	298.15	302.6	4.7
0.7531	303.15	304.3	4.7
0.7531	308.15	306.2	4.7
0.7531	313.15	308	4.8
0.7531	318.15	309.9	4.8
0.8821	293.15	330.9	5.1
0.8821	298.15	333	5.2
0.8821	303.15	335.1	5.2
0.8821	308.15	337.2	5.2
0.8821	313.15	339.3	5.3
0.8821	318.15	341.4	5.3

System: ethanol + 1-butyl-3-methylimidazolium tetrafluoroborate; phases: Liquid
Fixed: Pressure, kPa = 101
Property: Mass density, kg/m3 (Liquid); method: Vibrating tube method
Mole fraction of 1-butyl-3-methylimidazolium tetrafluoroborate	Temperature, K	Mass density, kg/m3	uncertainty
0.0987	293.15	903	0.3
0.0987	298.15	898.9	0.3
0.0987	303.15	894.8	0.3
0.0987	308.15	890.8	0.3
0.0987	313.15	886.6	0.3
0.0987	318.15	882.4	0.3
0.1923	293.15	976.5	0.2
0.1923	298.15	972.5	0.3
0.1923	303.15	968.5	0.3
0.1923	308.15	964.6	0.3
0.1923	313.15	960.5	0.3
0.1923	318.15	956.5	0.3
0.3004	293.15	1037.8	0.2
0.3004	298.15	1033.9	0.2
0.3004	303.15	1030	0.2
0.3004	308.15	1026.1	0.2
0.3004	313.15	1022.2	0.2
0.3004	318.15	1018.2	0.2
0.3885	293.15	1075.8	0.2
0.3885	298.15	1071.9	0.2
0.3885	303.15	1068	0.2
0.3885	308.15	1064.2	0.2
0.3885	313.15	1060.4	0.2
0.3885	318.15	1056.5	0.2
0.4865	293.15	1108.8	0.2
0.4865	298.15	1105	0.2
0.4865	303.15	1101.2	0.2
0.4865	308.15	1097.4	0.2
0.4865	313.15	1093.6	0.2
0.4865	318.15	1089.8	0.2
0.573	293.15	1132.8	0.2
0.573	298.15	1129.1	0.2
0.573	303.15	1125.3	0.2
0.573	308.15	1121.6	0.2
0.573	313.15	1117.9	0.2
0.573	318.15	1114.2	0.2
0.6738	293.15	1155.4	0.2
0.6738	298.15	1151.7	0.2
0.6738	303.15	1148	0.2
0.6738	308.15	1144.4	0.2
0.6738	313.15	1140.7	0.2
0.6738	318.15	1137.1	0.2
0.7531	293.15	1170.9	0.2
0.7531	298.15	1167.2	0.2
0.7531	303.15	1163.5	0.2
0.7531	308.15	1159.9	0.2
0.7531	313.15	1156.3	0.2
0.7531	318.15	1152.7	0.2
0.8821	293.15	1191.8	0.2
0.8821	298.15	1188.2	0.2
0.8821	303.15	1184.6	0.2
0.8821	308.15	1181	0.2
0.8821	313.15	1177.4	0.2
0.8821	318.15	1173.8	0.2

System: ethanol + 1-butyl-3-methylimidazolium methyl sulfate; phases: Liquid
Fixed: Pressure, kPa = 101
Property: Molar heat capacity at constant pressure, J/K/mol (Liquid); method: Small sample (50 mg) DSC
Mole fraction of 1-butyl-3-methylimidazolium methyl sulfate	Temperature, K	Molar heat capacity at constant pressure, J/K/mol	uncertainty
0.0511	293.15	128.1	2
0.0511	298.15	130	2
0.0511	303.15	131.8	2
0.0511	308.15	133.5	2.1
0.0511	313.15	135	2.1
0.0511	318.15	136.6	2.1
0.1025	293.15	143.3	2.2
0.1025	298.15	145.1	2.2
0.1025	303.15	146.7	2.3
0.1025	308.15	148.3	2.3
0.1025	313.15	149.7	2.3
0.1025	318.15	151	2.3
0.199	293.15	171.7	2.7
0.199	298.15	173.4	2.7
0.199	303.15	174.9	2.7
0.199	308.15	176.4	2.7
0.199	313.15	177.6	2.8
0.199	318.15	178.8	2.8
0.3106	293.15	204.1	3.2
0.3106	298.15	205.8	3.2
0.3106	303.15	207.2	3.2
0.3106	308.15	208.6	3.2
0.3106	313.15	209.9	3.3
0.3106	318.15	211.2	3.3
0.4058	293.15	232.2	3.6
0.4058	298.15	234	3.6
0.4058	303.15	235.6	3.7
0.4058	308.15	237.1	3.7
0.4058	313.15	238.5	3.7
0.4058	318.15	239.8	3.7
0.5057	293.15	262.1	4.1
0.5057	298.15	263.9	4.1
0.5057	303.15	265.6	4.1
0.5057	308.15	267.3	4.1
0.5057	313.15	268.9	4.2
0.5057	318.15	270.5	4.2
0.6005	293.15	290.9	4.5
0.6005	298.15	292.8	4.5
0.6005	303.15	294.7	4.6
0.6005	308.15	296.5	4.6
0.6005	313.15	298.2	4.6
0.6005	318.15	299.9	4.6
0.69	293.15	318.2	4.9
0.69	298.15	320.3	5
0.69	303.15	322.3	5
0.69	308.15	324.2	5
0.69	313.15	326.1	5.1
0.69	318.15	327.9	5.1
0.7834	293.15	346.9	5.4
0.7834	298.15	349.1	5.4
0.7834	303.15	351.2	5.4
0.7834	308.15	353.3	5.5
0.7834	313.15	355.3	5.5
0.7834	318.15	357.3	5.5
0.8815	293.15	377.1	5.8
0.8815	298.15	379.5	5.9
0.8815	303.15	381.7	5.9
0.8815	308.15	383.9	5.9
0.8815	313.15	386	6
0.8815	318.15	388	6
0.9368	293.15	394	6.1
0.9368	298.15	396.5	6.1
0.9368	303.15	398.9	6.2
0.9368	308.15	401.2	6.2
0.9368	313.15	403.3	6.2
0.9368	318.15	405.4	6.3

System: ethanol + 1-butyl-3-methylimidazolium methyl sulfate; phases: Liquid
Fixed: Pressure, kPa = 101
Property: Mass density, kg/m3 (Liquid); method: Vibrating tube method
Mole fraction of 1-butyl-3-methylimidazolium methyl sulfate	Temperature, K	Mass density, kg/m3	uncertainty
0.0511	293.15	860.9	0.3
0.0511	298.15	856.7	0.3
0.0511	303.15	852.6	0.3
0.0511	308.15	848.5	0.3
0.0511	313.15	844.4	0.3
0.0511	318.15	840.1	0.3
0.1025	293.15	916.2	0.3
0.1025	298.15	912.2	0.3
0.1025	303.15	908.2	0.3
0.1025	308.15	904.3	0.3
0.1025	313.15	900.2	0.3
0.1025	318.15	896.1	0.3
0.2016	293.15	995	0.2
0.2016	298.15	991.2	0.2
0.2016	303.15	987.4	0.2
0.2016	308.15	983.6	0.2
0.2016	313.15	979.8	0.3
0.2016	318.15	975.9	0.3
0.3106	293.15	1055	0.2
0.3106	298.15	1051.3	0.2
0.3106	303.15	1047.6	0.2
0.3106	308.15	1043.9	0.2
0.3106	313.15	1040.3	0.2
0.3106	318.15	1036.6	0.2
0.4058	293.15	1093.4	0.2
0.4058	298.15	1089.8	0.2
0.4058	303.15	1086.3	0.2
0.4058	308.15	1082.7	0.2
0.4058	313.15	1079.1	0.2
0.4058	318.15	1075.5	0.2
0.5057	293.15	1124.7	0.2
0.5057	298.15	1121.2	0.2
0.5057	303.15	1117.7	0.2
0.5057	308.15	1114.2	0.2
0.5057	313.15	1110.7	0.2
0.5057	318.15	1107.2	0.2
0.6005	293.15	1147.9	0.2
0.6005	298.15	1144.5	0.2
0.6005	303.15	1141	0.2
0.6005	308.15	1137.6	0.2
0.6005	313.15	1134.1	0.2
0.6005	318.15	1130.7	0.2
0.69	293.15	1166.6	0.2
0.69	298.15	1163.1	0.2
0.69	303.15	1159.7	0.2
0.69	308.15	1156.3	0.2
0.69	313.15	1152.9	0.2
0.69	318.15	1149.5	0.2
0.7834	293.15	1182.5	0.2
0.7834	298.15	1179.1	0.2
0.7834	303.15	1175.7	0.2
0.7834	308.15	1172.3	0.2
0.7834	313.15	1169	0.2
0.7834	318.15	1165.6	0.2
0.8815	293.15	1196.6	0.2
0.8815	298.15	1193.2	0.2
0.8815	303.15	1189.9	0.2
0.8815	308.15	1186.6	0.2
0.8815	313.15	1183.3	0.2
0.8815	318.15	1180	0.2
0.9368	293.15	1203.5	0.2
0.9368	298.15	1200.2	0.2
0.9368	303.15	1196.9	0.2
0.9368	308.15	1193.6	0.2
0.9368	313.15	1190.3	0.2
0.9368	318.15	1187	0.2
