Measured thermophysical data. Critical properties of some tetraalkoxysilanes and tetraalkoxytitaniums with  branched alkyl radicals
Source: Fluid Phase Equilib., 2012, 10.1016/j.fluid.2012.06.017
Compound 1: titanium(IV) 2-propanolate, C12H28O4Ti, InChI=1S/4C3H7O.Ti/c4*1-3(2)4;/h4*3H,1-2H3;/q4*-1;+4, purity 99.9%
Compound 2: titanium(IV) 2-methylpropan-2-olate, C16H36O4Ti, InChI=1S/4C4H9O.Ti/c4*1-4(2,3)5;/h4*1-3H3;/q4*-1;+4, purity 99.8%
Compound 3: isopropyl silicate ((C3H7O)4Si), C12H28O4Si, InChI=1S/C12H28O4Si/c1-9(2)13-17(14-10(3)4,15-11(5)6)16-12(7)8/h9-12H,1-8H3, purity 99.9%

System: titanium(IV) 2-propanolate; phases: Liquid, Gas
Property: Critical pressure, kPa (Liquid); method: Pulse-heating method
Critical pressure, kPa	uncertainty
1140	60

System: titanium(IV) 2-propanolate; phases: Liquid, Gas
Property: Critical temperature, K (Liquid); method: Pulse-heating method
Critical temperature, K	uncertainty
641	12

System: titanium(IV) 2-methylpropan-2-olate; phases: Liquid, Gas
Property: Critical pressure, kPa (Liquid); method: Pulse-heating method
Critical pressure, kPa	uncertainty
1070	60

System: titanium(IV) 2-methylpropan-2-olate; phases: Liquid, Gas
Property: Critical temperature, K (Liquid); method: Pulse-heating method
Critical temperature, K	uncertainty
657	14

System: isopropyl silicate ((C3H7O)4Si); phases: Liquid, Gas
Property: Critical pressure, kPa (Liquid); method: Pulse-heating method
Critical pressure, kPa	uncertainty
1310	80

System: isopropyl silicate ((C3H7O)4Si); phases: Liquid, Gas
Property: Critical temperature, K (Liquid); method: Pulse-heating method
Critical temperature, K	uncertainty
587	12
