Measured thermophysical data. Isothermal vapor-liquid equilibria at 383.15-413.15 K for the binary system methanol + dimethyl carbonate and the pressure dependency of the azeotropic point
Source: Fluid Phase Equilib., 2019, 10.1016/j.fluid.2019.03.019
Compound 1: methanol, CH4O, InChI=1S/CH4O/c1-2/h2H,1H3, purity 99.9%
Compound 2: dimethyl carbonate, C3H6O3, InChI=1S/C3H6O3/c1-5-3(4)6-2/h1-2H3, purity 99.9%
Compound 3: ethanol, C2H6O, InChI=1S/C2H6O/c1-2-3/h3H,2H2,1H3, purity 99.9%
Compound 4: water, H2O, InChI=1S/H2O/h1H2, purity 99.8%

System: methanol; phases: Liquid
Property: Mass density, kg/m3 (Liquid); method: Vibrating tube method
Temperature, K	Pressure, kPa	Mass density, kg/m3	uncertainty
298.15	101.325	786.42	0.13

System: methanol; phases: Liquid, Gas
Property: Vapor or sublimation pressure, kPa (Liquid); method: Closed cell (Static) method
Temperature, K	Vapor or sublimation pressure, kPa	uncertainty
362.65	251	6
363.15	255	6
383.15	481	6
391.95	618	6
392.95	636	7
393.15	640	7
403.15	843	7
413.15	1092	7
420.95	1316	7
422.95	1380	8
423.15	1387	8

System: dimethyl carbonate; phases: Liquid
Property: Mass density, kg/m3 (Liquid); method: Vibrating tube method
Temperature, K	Pressure, kPa	Mass density, kg/m3	uncertainty
298.15	101.325	1063.24	0.1

System: dimethyl carbonate; phases: Liquid, Gas
Property: Vapor or sublimation pressure, kPa (Liquid); method: Closed cell (Static) method
Temperature, K	Vapor or sublimation pressure, kPa	uncertainty
383.15	187	6
403.15	320	6
413.15	414	6

System: ethanol; phases: Liquid
Property: Mass density, kg/m3 (Liquid); method: Vibrating tube method
Temperature, K	Pressure, kPa	Mass density, kg/m3	uncertainty
298.15	101.325	785.09	0.13

System: ethanol; phases: Liquid, Gas
Property: Vapor or sublimation pressure, kPa (Liquid); method: Closed cell (Static) method
Temperature, K	Vapor or sublimation pressure, kPa	uncertainty
393.15	429	7

System: water; phases: Liquid, Gas
Property: Vapor or sublimation pressure, kPa (Liquid); method: Closed cell (Static) method
Temperature, K	Vapor or sublimation pressure, kPa	uncertainty
393.15	199	6

System: ethanol + water; phases: Gas, Liquid
Fixed: Temperature, K = 393.15
Property: Mole fraction of ethanol (Gas); method: Chromatography
Mole fraction of ethanol	Mole fraction of ethanol	uncertainty
0	0	
0.012	0.119	0.066
0.016	0.148	0.083
0.035	0.243	0.049
0.046	0.292	0.051
0.06	0.325	0.036
0.075	0.373	0.026
0.101	0.407	0.016
0.203	0.484	0.015
0.309	0.546	0.014
0.404	0.587	0.014
0.552	0.656	0.014
0.636	0.707	0.014
0.768	0.782	0.015
0.894	0.886	0.016
1	1	

System: ethanol + water; phases: Gas, Liquid
Fixed: Temperature, K = 393.15
Property: Vapor or sublimation pressure, kPa (Gas); method: Closed cell (Static) method
Mole fraction of ethanol	Vapor or sublimation pressure, kPa	uncertainty
0	199	6
0.012	227	18
0.016	233	21
0.035	259	16
0.046	272	16
0.06	288	13
0.075	300	11
0.101	318	8
0.203	358	7
0.309	382	7
0.404	396	7
0.552	415	7
0.636	423	7
0.768	430	7
0.894	432	7
1	429	7

System: methanol + dimethyl carbonate; phases: Gas, Liquid
Property: Mole fraction of methanol (Gas); method: Chromatography
Mole fraction of methanol	Temperature, K	Mole fraction of methanol	uncertainty
0	383.15	0	
0.108	383.15	0.4	0.033
0.208	383.15	0.533	0.019
0.305	383.15	0.634	0.017
0.402	383.15	0.705	0.014
0.5	383.15	0.744	0.013
0.592	383.15	0.771	0.013
0.661	383.15	0.815	0.013
0.701	383.15	0.817	0.012
0.791	383.15	0.837	0.013
0.861	383.15	0.895	0.015
0.889	383.15	0.91	0.014
0.95	383.15	0.941	0.015
1	383.15	1	
0	403.15	0	
0.108	403.15	0.315	0.032
0.208	403.15	0.507	0.024
0.305	403.15	0.651	0.015
0.402	403.15	0.697	0.014
0.5	403.15	0.755	0.013
0.605	403.15	0.79	0.013
0.668	403.15	0.823	0.013
0.757	403.15	0.858	0.013
0.856	403.15	0.9	0.013
0.888	403.15	0.915	0.013
0.952	403.15	0.949	0.014
0.972	403.15	0.967	0.017
1	403.15	1	
0	413.15	0	
0.208	413.15	0.486	0.027
0.305	413.15	0.6	0.016
0.402	413.15	0.695	0.015
0.5	413.15	0.743	0.014
0.606	413.15	0.804	0.013
0.701	413.15	0.838	0.013
0.852	413.15	0.905	0.013
0.891	413.15	0.928	0.013
0.95	413.15	0.953	0.014
1	413.15	1	

System: methanol + dimethyl carbonate; phases: Gas, Liquid
Property: Vapor or sublimation pressure, kPa (Gas); method: Closed cell (Static) method
Mole fraction of methanol	Temperature, K	Vapor or sublimation pressure, kPa	uncertainty
0	383.15	187	6
0.108	383.15	259	10
0.208	383.15	314	9
0.305	383.15	358	22
0.402	383.15	396	8
0.5	383.15	427	7
0.592	383.15	449	7
0.661	383.15	464	7
0.701	383.15	466	7
0.791	383.15	478	7
0.861	383.15	484	7
0.889	383.15	486	7
0.95	383.15	487	7
1	383.15	481	7
0	403.15	320	6
0.108	403.15	425	14
0.208	403.15	516	12
0.305	403.15	592	34
0.402	403.15	660	10
0.5	403.15	716	9
0.605	403.15	766	9
0.668	403.15	797	9
0.757	403.15	830	7
0.856	403.15	842	7
0.888	403.15	849	7
0.952	403.15	852	7
0.972	403.15	850	12
1	403.15	843	7
0	413.15	414	6
0.208	413.15	654	15
0.305	413.15	748	30
0.402	413.15	837	12
0.5	413.15	911	11
0.606	413.15	974	10
0.701	413.15	1028	9
0.852	413.15	1075	8
0.891	413.15	1090	8
0.95	413.15	1098	7
1	413.15	1092	7

System: methanol + dimethyl carbonate; phases: Liquid, Gas
Property: Azeotropic pressure, kPa (Liquid); method: By X=Y
Temperature, K	Azeotropic pressure, kPa	uncertainty
383.15	487	7
403.15	853	8
413.15	1099	8

System: methanol + dimethyl carbonate; phases: Liquid, Gas
Property: Azeotropic composition: mole fraction of methanol (Liquid); method: By X=Y
Temperature, K	Azeotropic composition: mole fraction of methanol	uncertainty
383.15	0.926	0.012
403.15	0.944	0.012
413.15	0.958	0.012
