Measured thermophysical data. Separation of ethyl acetate and ethanol azeotrope mixture using dialkylphosphates-based ionic liquids as entrainers
Source: Fluid Phase Equilib., 2017, 10.1016/j.fluid.2017.09.016
Compound 1: ethyl acetate, C4H8O2, InChI=1S/C4H8O2/c1-3-6-4(2)5/h3H2,1-2H3, purity 99.5%
Compound 2: ethanol, C2H6O, InChI=1S/C2H6O/c1-2-3/h3H,2H2,1H3, purity 99.8%
Compound 3: 1-ethyl-3-methylimidazolium diethyl phosphate, C10H21N2O4P, InChI=1S/C6H11N2.C4H11O4P/c1-3-8-5-4-7(2)6-8;1-3-7-9(5,6)8-4-2/h4-6H,3H2,1-2H3;3-4H2,1-2H3,(H,5,6)/q+1;/p-1, purity 98%
Compound 4: 1-butyl-3-methylimidazolium dibutyl phosphate, C16H33N2O4P, InChI=1S/C8H15N2.C8H19O4P/c1-3-4-5-10-7-6-9(2)8-10;1-3-5-7-11-13(9,10)12-8-6-4-2/h6-8H,3-5H2,1-2H3;3-8H2,1-2H3,(H,9,10)/q+1;/p-1, purity 98%
Compound 5: 1-butyl-3-methylimidazolium diethyl phosphate, C12H25N2O4P, InChI=1S/C8H15N2.C4H11O4P/c1-3-4-5-10-7-6-9(2)8-10;1-3-7-9(5,6)8-4-2/h6-8H,3-5H2,1-2H3;3-4H2,1-2H3,(H,5,6)/q+1;/p-1, purity 99%

System: ethyl acetate + ethanol; phases: Liquid, Gas
Fixed: Pressure, kPa = 101.3
Property: Boiling temperature at pressure P, K (Liquid); method: Ebulliometric method (Recirculating still)
Mole fraction of ethyl acetate	Boiling temperature at pressure P, K	uncertainty
1	350.26	0.13
0.969	349.17	0.14
0.939	348.36	0.14
0.883	347.23	0.13
0.826	346.26	0.13
0.735	345.45	0.13
0.62	344.95	0.13
0.518	345	0.13
0.401	345.35	0.13
0.308	345.83	0.13
0.226	346.69	0.13
0.159	347.42	0.13
0.107	348.45	0.13
0.067	349.4	0.14
0.037	350.15	0.14
0	351.5	0.13

System: ethyl acetate + ethanol; phases: Gas, Liquid
Fixed: Pressure, kPa = 101.3
Property: Mole fraction of ethyl acetate (Gas); method: Chromatography
Mole fraction of ethyl acetate	Mole fraction of ethyl acetate	uncertainty
1	1	
0.969	0.939	0.004
0.939	0.89	0.004
0.883	0.812	0.004
0.826	0.75	0.004
0.735	0.67	0.004
0.62	0.591	0.004
0.518	0.529	0.005
0.401	0.459	0.005
0.308	0.397	0.004
0.226	0.331	0.004
0.159	0.265	0.004
0.107	0.199	0.004
0.067	0.138	0.004
0.037	0.082	0.005
0	0	

System: ethyl acetate + ethanol + 1-ethyl-3-methylimidazolium diethyl phosphate; phases: Liquid, Gas
Fixed: Pressure, kPa = 101.3
Property: Boiling temperature at pressure P, K (Liquid); method: Ebulliometric method (Recirculating still)
Mole fraction of ethyl acetate	Mole fraction of ethanol	Boiling temperature at pressure P, K	uncertainty
0.949	0.031	350.05	1.01
0.919	0.06	349.5	1.01
0.87	0.109	348.56	1.01
0.811	0.169	347.67	1.01
0.735	0.243	346.92	1.01
0.622	0.358	346.08	1.01
0.511	0.467	345.83	1.01
0.416	0.564	345.86	1.01
0.329	0.652	346.2	1.01
0.257	0.723	346.75	1.01
0.201	0.778	347.34	1.01
0.152	0.828	348.1	1.01
0.109	0.869	348.93	1.01
0.058	0.921	350.3	1.02
0.041	0.938	350.7	1.01
0.87	0.059	350.84	1.01
0.855	0.074	350.55	1.01
0.806	0.123	349.72	1.01
0.731	0.197	348.68	1.01
0.649	0.28	347.8	1.01
0.55	0.378	347.13	1.01
0.449	0.48	346.84	1.01
0.355	0.574	347	1.01
0.263	0.667	347.5	1.01
0.203	0.729	348.24	1.01
0.148	0.781	349.28	1.01
0.107	0.824	350.2	1.01
0.073	0.857	351.2	1.02
0.051	0.878	352.08	1.01
0.035	0.896	352.68	1.02
0.026	0.904	353.15	1.02
0.787	0.094	350.75	1.01
0.73	0.15	349.75	1.01
0.64	0.241	348.64	1.01
0.54	0.339	348	1.01
0.429	0.45	347.75	1.01
0.343	0.536	348.02	1.01
0.275	0.605	348.53	1.01
0.195	0.687	349.68	1.01
0.146	0.733	350.8	1.01
0.106	0.773	352	1.01
0.073	0.806	353.25	1.01
0.054	0.826	354.01	1.02
0.033	0.846	355.17	1.02
0.022	0.858	355.79	1.03

System: ethyl acetate + ethanol + 1-ethyl-3-methylimidazolium diethyl phosphate; phases: Gas, Liquid
Fixed: Pressure, kPa = 101.3
Property: Mole fraction of ethyl acetate (Gas); method: Chromatography
Mole fraction of ethyl acetate	Mole fraction of ethanol	Mole fraction of ethyl acetate	uncertainty
0.949	0.031	0.956	0.044
0.919	0.06	0.921	0.079
0.87	0.109	0.864	0.136
0.811	0.169	0.796	0.204
0.735	0.243	0.733	0.267
0.622	0.358	0.64	0.36
0.511	0.467	0.573	0.427
0.416	0.564	0.503	0.497
0.329	0.652	0.443	0.443
0.257	0.723	0.386	0.386
0.201	0.778	0.331	0.331
0.152	0.828	0.276	0.276
0.109	0.869	0.219	0.219
0.058	0.921	0.127	0.127
0.041	0.938	0.096	0.096
0.87	0.059	0.962	0.038
0.855	0.074	0.951	0.049
0.806	0.123	0.914	0.086
0.731	0.197	0.858	0.142
0.649	0.28	0.787	0.213
0.55	0.378	0.716	0.284
0.449	0.48	0.633	0.367
0.355	0.574	0.554	0.446
0.263	0.667	0.476	0.476
0.203	0.729	0.395	0.395
0.148	0.781	0.327	0.327
0.107	0.824	0.255	0.255
0.073	0.857	0.196	0.196
0.051	0.878	0.142	0.142
0.035	0.896	0.102	0.102
0.026	0.904	0.079	0.079
0.787	0.094	0.965	0.035
0.73	0.15	0.936	0.064
0.64	0.241	0.88	0.12
0.54	0.339	0.81	0.19
0.429	0.45	0.722	0.278
0.343	0.536	0.642	0.358
0.275	0.605	0.567	0.433
0.195	0.687	0.463	0.463
0.146	0.733	0.393	0.393
0.106	0.773	0.314	0.314
0.073	0.806	0.239	0.239
0.054	0.826	0.186	0.186
0.033	0.846	0.123	0.123
0.022	0.858	0.087	0.087

System: ethyl acetate + ethanol + 1-butyl-3-methylimidazolium diethyl phosphate; phases: Liquid, Gas
Fixed: Pressure, kPa = 101.3
Property: Boiling temperature at pressure P, K (Liquid); method: Ebulliometric method (Recirculating still)
Mole fraction of ethyl acetate	Mole fraction of ethanol	Boiling temperature at pressure P, K	uncertainty
0.938	0.041	349.83	1.01
0.911	0.067	349.29	1.01
0.866	0.114	348.47	1.01
0.802	0.177	347.55	1.01
0.711	0.269	346.6	1.01
0.649	0.331	346.19	1.01
0.577	0.401	345.9	1.01
0.485	0.494	345.78	1.01
0.398	0.582	345.92	1.01
0.322	0.657	346.25	1.01
0.253	0.725	346.74	1.01
0.193	0.787	347.45	1.01
0.153	0.826	348.05	1.01
0.11	0.87	348.86	1.01
0.084	0.897	349.51	1.01
0.064	0.914	350.08	1.01
0.032	0.947	351.05	1.01
0.866	0.064	350.75	1.01
0.846	0.083	350.42	1.01
0.81	0.12	349.78	1.01
0.748	0.182	348.9	1.01
0.69	0.238	348.2	1.01
0.612	0.316	347.55	1.01
0.53	0.399	347.16	1.01
0.445	0.485	346.95	1.01
0.363	0.568	347.13	1.01
0.302	0.628	347.44	1.01
0.227	0.702	348.15	1.01
0.17	0.759	349	1.01
0.123	0.807	349.86	1.02
0.092	0.838	350.66	1.02
0.072	0.858	351.3	1.01
0.043	0.887	352.2	1.01
0.809	0.07	351.47	1.01
0.768	0.112	350.63	1.01
0.711	0.17	349.7	1.01
0.658	0.223	349.1	1.01
0.598	0.282	348.6	1.01
0.527	0.352	348.23	1.01
0.447	0.433	348.03	1.01
0.393	0.487	348.1	1.01
0.327	0.554	348.35	1.01
0.263	0.617	348.93	1.01
0.216	0.663	349.6	1.01
0.168	0.711	350.5	1.01
0.122	0.756	351.67	1.01
0.1	0.778	352.34	1.01
0.07	0.808	353.45	1.02
0.053	0.826	354.15	1.02
0.038	0.841	354.8	1.02

System: ethyl acetate + ethanol + 1-butyl-3-methylimidazolium diethyl phosphate; phases: Gas, Liquid
Fixed: Pressure, kPa = 101.3
Property: Mole fraction of ethyl acetate (Gas); method: Chromatography
Mole fraction of ethyl acetate	Mole fraction of ethanol	Mole fraction of ethyl acetate	uncertainty
0.938	0.041	0.941	0.059
0.911	0.067	0.908	0.092
0.866	0.114	0.853	0.147
0.802	0.177	0.787	0.213
0.711	0.269	0.707	0.293
0.649	0.331	0.659	0.341
0.577	0.401	0.609	0.391
0.485	0.494	0.547	0.453
0.398	0.582	0.489	0.489
0.322	0.657	0.435	0.435
0.253	0.725	0.379	0.379
0.193	0.787	0.32	0.32
0.153	0.826	0.274	0.274
0.11	0.87	0.217	0.217
0.084	0.897	0.177	0.177
0.064	0.914	0.141	0.141
0.032	0.947	0.079	0.079
0.866	0.064	0.953	0.047
0.846	0.083	0.941	0.059
0.81	0.12	0.911	0.089
0.748	0.182	0.861	0.139
0.69	0.238	0.814	0.186
0.612	0.316	0.751	0.249
0.53	0.399	0.684	0.316
0.445	0.485	0.616	0.384
0.363	0.568	0.547	0.453
0.302	0.628	0.493	0.493
0.227	0.702	0.416	0.416
0.17	0.759	0.346	0.346
0.123	0.807	0.276	0.276
0.092	0.838	0.225	0.225
0.072	0.858	0.183	0.183
0.043	0.887	0.119	0.119
0.809	0.07	0.973	0.027
0.768	0.112	0.952	0.048
0.711	0.17	0.918	0.082
0.658	0.223	0.883	0.117
0.598	0.282	0.841	0.159
0.527	0.352	0.787	0.213
0.447	0.433	0.718	0.282
0.393	0.487	0.667	0.333
0.327	0.554	0.603	0.397
0.263	0.617	0.537	0.463
0.216	0.663	0.48	0.48
0.168	0.711	0.41	0.41
0.122	0.756	0.332	0.332
0.1	0.778	0.287	0.287
0.07	0.808	0.219	0.219
0.053	0.826	0.172	0.172
0.038	0.841	0.131	0.131

System: ethyl acetate + ethanol + 1-butyl-3-methylimidazolium dibutyl phosphate; phases: Liquid, Gas
Fixed: Pressure, kPa = 101.3
Property: Boiling temperature at pressure P, K (Liquid); method: Ebulliometric method (Recirculating still)
Mole fraction of ethyl acetate	Mole fraction of ethanol	Boiling temperature at pressure P, K	uncertainty
0.98	0	350.85	1.01
0.954	0.025	350.25	1.01
0.908	0.07	349.29	1.01
0.859	0.12	348.39	1.01
0.794	0.184	347.52	1.01
0.724	0.255	346.78	1.01
0.631	0.347	346.18	1.01
0.54	0.438	345.9	1.01
0.445	0.534	345.85	1.01
0.355	0.625	346.17	1.01
0.274	0.706	346.68	1.01
0.219	0.76	347.25	1.01
0.162	0.816	348.08	1.01
0.128	0.851	348.65	1.01
0.079	0.9	349.65	1.01
0.059	0.921	350.25	1.01
0.036	0.943	351.01	1.02
0.929	0	352	1.01
0.916	0.014	351.75	1.01
0.877	0.053	350.95	1.01
0.813	0.118	349.81	1.01
0.741	0.189	348.78	1.01
0.636	0.293	347.75	1.01
0.519	0.411	347.15	1.01
0.449	0.48	347.05	1.01
0.404	0.526	347.1	1.01
0.332	0.596	347.4	1.01
0.262	0.668	347.9	1.01
0.21	0.718	348.55	1.01
0.173	0.757	349.05	1.01
0.138	0.791	349.71	1.01
0.102	0.828	350.48	1.02
0.071	0.857	351.45	1.02
0.055	0.875	352	1.01
0.033	0.896	352.9	1.02
0.881	0	352.96	1
0.862	0.019	352.4	1.01
0.827	0.053	351.59	1.01
0.781	0.099	350.65	1.01
0.7	0.181	349.49	1.01
0.627	0.252	348.85	1.01
0.542	0.338	348.38	1.01
0.45	0.43	348.27	1.01
0.358	0.521	348.6	1.01
0.295	0.586	349	1.01
0.231	0.649	349.79	1.01
0.169	0.711	350.81	1.01
0.127	0.754	351.8	1.01
0.095	0.784	352.65	1.01
0.054	0.825	353.95	1.02
0.034	0.845	355	1.02

System: ethyl acetate + ethanol + 1-butyl-3-methylimidazolium dibutyl phosphate; phases: Gas, Liquid
Fixed: Pressure, kPa = 101.3
Property: Mole fraction of ethyl acetate (Gas); method: Chromatography
Mole fraction of ethyl acetate	Mole fraction of ethanol	Mole fraction of ethyl acetate	uncertainty
0.98	0	1	
0.954	0.025	0.963	0.037
0.908	0.07	0.904	0.096
0.859	0.12	0.844	0.156
0.794	0.184	0.779	0.221
0.724	0.255	0.716	0.284
0.631	0.347	0.644	0.356
0.54	0.438	0.581	0.419
0.445	0.534	0.518	0.482
0.355	0.625	0.454	0.454
0.274	0.706	0.391	0.391
0.219	0.76	0.341	0.341
0.162	0.816	0.28	0.28
0.128	0.851	0.236	0.236
0.079	0.9	0.163	0.163
0.059	0.921	0.128	0.128
0.036	0.943	0.085	0.085
0.929	0	1	
0.916	0.014	0.99	0.01
0.877	0.053	0.961	0.039
0.813	0.118	0.909	0.091
0.741	0.189	0.851	0.149
0.636	0.293	0.762	0.238
0.519	0.411	0.663	0.337
0.449	0.48	0.61	0.39
0.404	0.526	0.573	0.427
0.332	0.596	0.509	0.491
0.262	0.668	0.441	0.441
0.21	0.718	0.382	0.382
0.173	0.757	0.336	0.336
0.138	0.791	0.285	0.285
0.102	0.828	0.227	0.227
0.071	0.857	0.171	0.171
0.055	0.875	0.138	0.138
0.033	0.896	0.086	0.086
0.881	0	1	
0.862	0.019	0.993	0.007
0.827	0.053	0.979	0.021
0.781	0.099	0.956	0.044
0.7	0.181	0.906	0.094
0.627	0.252	0.857	0.143
0.542	0.338	0.787	0.213
0.45	0.43	0.707	0.293
0.358	0.521	0.621	0.379
0.295	0.586	0.551	0.449
0.231	0.649	0.473	0.473
0.169	0.711	0.386	0.386
0.127	0.754	0.314	0.314
0.095	0.784	0.253	0.253
0.054	0.825	0.162	0.162
0.034	0.845	0.109	0.109
