Measured thermophysical data. Solubilities of carbon dioxide, oxygen, and nitrogen ethylene glycol solution under low pressures
Source: Fluid Phase Equilib., 2019, 10.1016/j.fluid.2018.11.035
Compound 1: 1,2-ethanediol, C2H6O2, InChI=1S/C2H6O2/c3-1-2-4/h3-4H,1-2H2, purity 99%
Compound 2: water, H2O, InChI=1S/H2O/h1H2, purity 99.8%
Compound 3: carbon dioxide, CO2, InChI=1S/CO2/c2-1-3, purity 99.999%
Compound 4: oxygen, O2, InChI=1S/O2/c1-2, purity 99.999%
Compound 5: nitrogen, N2, InChI=1S/N2/c1-2, purity 99.999%

System: carbon dioxide + water; phases: Liquid, Gas
Property: Mole fraction of carbon dioxide (Liquid); method: Isochoric saturation method
Temperature, K	Pressure, kPa	Mole fraction of carbon dioxide	uncertainty
273.3	13.89	0.0001301	4.8e-06
273.3	21.46	0.0002378	4.9e-06
273.4	45.07	0.0005768	9.7e-06
273.24	54.34	0.0007118	1.21e-05
273.2	101.53	0.0014128	3.16e-05
278.15	15.74	0.0001273	4.4e-06
278.16	24.43	0.0002292	4.6e-06
278.18	50.45	0.0005423	9.7e-06
278.15	61.87	0.0006795	1.27e-05
278.14	101.36	0.001191	1.7e-05
283.16	17.91	0.0001242	4.2e-06
283.17	27.94	0.0002203	4.3e-06
283.18	56.91	0.0005054	9.8e-06
283.11	70	0.0006476	1.34e-05
283.26	101.92	0.0009865	1.87e-05
293.14	22.39	0.0001155	3.5e-06
293.19	35.27	0.0002037	4.2e-06
293.16	70.03	0.000445	1.01e-05
293.19	86.61	0.0005765	1.39e-05
293.21	101.14	0.0006859	1.89e-05

System: 1,2-ethanediol + water; phases: Liquid
Fixed: Pressure, kPa = 101
Fixed: Mass fraction of 1,2-ethanediol = 0.365
Property: Mass density, kg/m3 (Liquid); method: Vibrating tube method
Temperature, K	Mass density, kg/m3	uncertainty
283.15	1059.35	0.11
293.15	1054.78	0.11
303.15	1049.78	0.11
313.15	1044.38	0.1
323.15	1038.57	0.1
333.15	1032.23	0.1

System: 1,2-ethanediol + water; phases: Liquid, Gas
Fixed: Mass fraction of 1,2-ethanediol = 0.365
Property: Vapor or sublimation pressure, kPa (Liquid); method: ISOPVT
Temperature, K	Vapor or sublimation pressure, kPa	uncertainty
258.32	0.1871	0.7747
263.19	0.2863	0.7747
268.23	0.415	0.7748
273.34	0.5814	0.7748
283	1.1425	0.775
292.77	2.1267	0.7754

System: 1,2-ethanediol + water + carbon dioxide; phases: Liquid, Gas
Fixed: Solvent: Mass fraction of 1,2-ethanediol = 0.365
Property: Mole fraction of carbon dioxide (Liquid); method: Isochoric Saturation method
Temperature, K	Pressure, kPa	Mole fraction of carbon dioxide	uncertainty
263.44	9.41	0.000413	1.4e-05
263.45	19.57	0.000673	2e-05
263.4	34.27	0.000987	3.3e-05
263.51	51.11	0.00132	4.2e-05
268.17	10.53	0.000399	1.3e-05
268.35	21.9	0.000649	2e-05
268.16	37.4	0.000941	3.4e-05
268.25	57.04	0.00127	4.3e-05
273.41	11.78	0.000387	1.3e-05
273.34	24.42	0.000619	2e-05
273.26	41.81	0.000911	3.4e-05
273.25	63.38	0.00123	4.4e-05
283.12	14.35	0.000365	1.3e-05
283.12	29.47	0.000583	2.1e-05
283.04	50.29	0.000861	3.6e-05
283.13	76.02	0.00116	4.7e-05
292.81	17.32	0.000344	1.4e-05
292.88	34.83	0.000546	2.2e-05
292.66	57.85	0.000803	3.7e-05
292.86	88.32	0.00109	4.9e-05

System: 1,2-ethanediol + water + oxygen; phases: Liquid, Gas
Fixed: Solvent: Mass fraction of 1,2-ethanediol = 0.365
Property: Mole fraction of oxygen (Liquid); method: Isochoric Saturation method
Temperature, K	Pressure, kPa	Mole fraction of oxygen	uncertainty
263.08	33.02	1.04e-05	1e-07
263.06	46.47	1.8e-05	2e-07
263.06	61.1	2.77e-05	2e-07
263.07	77.99	3.83e-05	3e-07
268.15	33.94	1e-05	1e-07
268.12	47.35	1.73e-05	2e-07
268.14	62.34	2.65e-05	2e-07
268.1	79.79	3.72e-05	3e-07
273.1	34.81	9.4e-06	1e-07
273.08	48.43	1.61e-05	2e-07
273.1	63.94	2.53e-05	2e-07
273.09	81.67	3.59e-05	3e-07
283.2	36.84	9e-06	1e-07
283.17	50.96	1.51e-05	1e-07
283.18	67.23	2.37e-05	2e-07
283.15	85.33	3.42e-05	3e-07
293.15	38.95	8.6e-06	1e-07
293.15	53.94	1.44e-05	1e-07
293.16	70.67	2.22e-05	2e-07
293.16	89.8	3.23e-05	3e-07

System: 1,2-ethanediol + water + nitrogen; phases: Liquid, Gas
Fixed: Solvent: Mass fraction of 1,2-ethanediol = 0.365
Property: Mole fraction of nitrogen (Liquid); method: Isochoric Saturation method
Temperature, K	Pressure, kPa	Mole fraction of nitrogen	uncertainty
263.07	39.41	6.3e-06	2e-07
263.04	49.98	9.6e-06	3e-07
263.08	64.78	1.48e-05	3e-07
263.08	80.49	2.08e-05	5e-07
268.15	40.34	6e-06	2e-07
268.15	51.15	9.3e-06	3e-07
268	66.03	1.42e-05	3e-07
268.06	82.22	2.01e-05	5e-07
273.16	41.26	5.9e-06	2e-07
273.16	52.33	8.9e-06	3e-07
273.2	67.27	1.36e-05	3e-07
273.15	84.12	1.93e-05	5e-07
283.22	43.52	5.4e-06	2e-07
283.12	55.04	8.2e-06	3e-07
283.29	70.56	1.24e-05	3e-07
283.22	88.07	1.79e-05	5e-07
293.19	46.22	5e-06	2e-07
293.16	58.27	7.4e-06	3e-07
293.28	74.27	1.14e-05	3e-07
293.19	92.6	1.67e-05	5e-07
