Measured thermophysical data. Determination of vapour-liquid and vapour-liquid-liquid equilibrium of the chloroform-water and trichloroethylene-water binary mixtures
Source: Fluid Phase Equilib., 2010, 10.1016/j.fluid.2009.11.006
Compound 1: trichloromethane, CHCl3, InChI=1S/CHCl3/c2-1(3)4/h1H, purity 99.9%
Compound 2: trichloroethene, C2HCl3, InChI=1S/C2HCl3/c3-1-2(4)5/h1H, purity 99.9%
Compound 3: water, H2O, InChI=1S/H2O/h1H2, purity 99.8%

System: trichloromethane + water; phases: Gas, Liquid mixture 1, Liquid mixture 2
Property: Mole fraction of trichloromethane (Gas); method: Spectrophotometry
Temperature, K	Mole fraction of trichloromethane	uncertainty
328.95	0.855	0.001
328.95	0.86	0.001
328.95	0.86	0.001
328.95	0.849	0.001
328.95	0.86	0.001
328.95	0.849	0.001
328.95	0.86	0.001
328.95	0.855	0.001
329.15	0.871	0.001
329.15	0.854	0.001

System: trichloromethane + water; phases: Gas, Liquid
Fixed: Pressure, kPa = 101
Property: Mole fraction of trichloromethane (Gas); method: Spectrophotometry
Temperature, K	Mole fraction of trichloromethane	uncertainty
329.65	0.842	0.023
330.15	0.9	0.008
330.15	0.838	0.009
332.15	0.951	0.004
334.15	0.982	0.007
334.35	1	
335.15	0.82	0.021
336.15	0.805	0.003
342.15	0.754	0.002
344.15	0.736	0.002
348.15	0.71	0.002
349.15	0.688	0.004
351.15	0.647	0.002
355.15	0.619	0.002
357.15	0.577	0.004
363.15	0.472	0.003
366.15	0.439	0.006
367.15	0.338	0.013
370.15	0.165	0.012
371.15	0.095	0.015
372.15	0.012	0.01
373.1	0	

System: trichloromethane + water; phases: Liquid, Gas
Property: Azeotropic composition: mole fraction of trichloromethane (Liquid); method: By X=Y
Pressure, kPa	Azeotropic composition: mole fraction of trichloromethane	uncertainty
101.3	0.856	0.002

System: trichloromethane + water; phases: Liquid, Gas
Property: Azeotropic composition: mole fraction of trichloromethane (Liquid); method: By X=Y
Temperature, K	Azeotropic composition: mole fraction of trichloromethane	uncertainty
328.95	0.856	0.002

System: trichloroethene + water; phases: Gas, Liquid mixture 1, Liquid mixture 2
Property: Mole fraction of trichloroethene (Gas); method: Spectrophotometry
Temperature, K	Mole fraction of trichloroethene	uncertainty
346.75	0.718	0.001
346.75	0.718	0.001
346.75	0.718	0.001
346.95	0.737	0.001
347.05	0.727	0.001
347.15	0.706	0.001
347.15	0.706	0.001
347.15	0.714	0.001
347.15	0.722	0.001
347.15	0.71	0.001
347.15	0.715	0.001

System: trichloroethene + water; phases: Gas, Liquid
Fixed: Pressure, kPa = 101.3
Property: Mole fraction of trichloroethene (Gas); method: Spectrophotometry
Temperature, K	Mole fraction of trichloroethene	uncertainty
348.15	0.713	0.012
350.15	0.83	0.001
350.15	0.69	0.002
351.15	0.677	0.016
352.15	0.67	0.023
352.65	0.879	0.006
353.15	0.64	0.02
354.95	0.586	0.006
355.15	0.935	0.005
356.95	0.53	0.006
357.65	0.976	0.002
358.15	0.466	0.018
359.85	1	
361.15	0.375	0.051
362.55	0.306	0.005
365.65	0.252	0.005
368.15	0.167	0.007
370.15	0.09	0.009
371.15	0.035	0.005
372.65	0.025	0.003
373.15	0	

System: trichloroethene + water; phases: Liquid, Gas
Property: Azeotropic composition: mole fraction of trichloroethene (Liquid); method: By X=Y
Pressure, kPa	Azeotropic composition: mole fraction of trichloroethene	uncertainty
101.3	0.716	0.003

System: trichloroethene + water; phases: Liquid, Gas
Property: Azeotropic composition: mole fraction of trichloroethene (Liquid); method: By X=Y
Temperature, K	Azeotropic composition: mole fraction of trichloroethene	uncertainty
347.05	0.716	0.003
