Measured thermophysical data. Excess enthalpies of binary mixtures of 2-ethoxyethanol with four hydrocarbons at 298.15, 308.15, and 318.15K An experimental and theoretical study
Source: Fluid Phase Equilib., 2006, 10.1016/j.fluid.2006.04.016
Compound 1: 2-ethoxyethan-1-ol, C4H10O2, InChI=1S/C4H10O2/c1-2-6-4-3-5/h5H,2-4H2,1H3
Compound 2: hexane, C6H14, InChI=1S/C6H14/c1-3-5-6-4-2/h3-6H2,1-2H3
Compound 3: cyclohexane, C6H12, InChI=1S/C6H12/c1-2-4-6-5-3-1/h1-6H2
Compound 4: benzene, C6H6, InChI=1S/C6H6/c1-2-4-6-5-3-1/h1-6H
Compound 5: octane, C8H18, InChI=1S/C8H18/c1-3-5-7-8-6-4-2/h3-8H2,1-2H3
Compound 6: ethanol, C2H6O, InChI=1S/C2H6O/c1-2-3/h3H,2H2,1H3

System: 2-ethoxyethan-1-ol; phases: Liquid
Property: Mass density, kg/m3 (Liquid); method: VIBTUB:UFactor:4
Temperature, K	Pressure, kPa	Mass density, kg/m3	uncertainty
298.1	101.325	925.1	0.56

System: hexane; phases: Liquid
Property: Mass density, kg/m3 (Liquid); method: VIBTUB:UFactor:4
Temperature, K	Pressure, kPa	Mass density, kg/m3	uncertainty
298.1	101.325	654.89	0.93

System: cyclohexane; phases: Liquid
Property: Mass density, kg/m3 (Liquid); method: VIBTUB:UFactor:2
Temperature, K	Pressure, kPa	Mass density, kg/m3	uncertainty
298.1	101.325	773.88	0.32

System: benzene; phases: Liquid
Property: Mass density, kg/m3 (Liquid); method: VIBTUB:UFactor:3
Temperature, K	Pressure, kPa	Mass density, kg/m3	uncertainty
298.1	101.325	873.67	0.34

System: octane; phases: Liquid
Property: Mass density, kg/m3 (Liquid); method: VIBTUB:UFactor:4
Temperature, K	Pressure, kPa	Mass density, kg/m3	uncertainty
298.1	101.325	698.51	0.86

System: ethanol; phases: Liquid
Property: Mass density, kg/m3 (Liquid); method: VIBTUB:UFactor:2
Temperature, K	Pressure, kPa	Mass density, kg/m3	uncertainty
298.1	101.325	785.19	0.31

System: 2-ethoxyethan-1-ol + cyclohexane; phases: Liquid
Fixed: Pressure, kPa = 101
Property: Excess molar enthalpy (molar enthalpy of mixing), kJ/mol (Liquid); method: FLOW:UFactor:2
Temperature, K	Mole fraction of 2-ethoxyethan-1-ol	Excess molar enthalpy (molar enthalpy of mixing), kJ/mol	uncertainty
298.15	0.0634	0.5415	0.0141
298.15	0.0738	0.5763	0.015
298.15	0.1363	0.7752	0.0198
298.15	0.1825	0.8609	0.0219
298.15	0.2164	0.9297	0.0236
298.15	0.2692	0.9902	0.0251
298.15	0.3213	1.0296	0.0261
298.15	0.3582	1.0609	0.0268
298.15	0.3986	1.0746	0.0272
298.15	0.4242	1.0754	0.0272
298.15	0.5249	1.069	0.027
298.15	0.6237	0.9814	0.0249
298.15	0.6481	0.9622	0.0244
298.15	0.7205	0.8391	0.0214
298.15	0.7464	0.7986	0.0204
298.15	0.7682	0.7722	0.0198
298.15	0.8155	0.6553	0.0169
298.15	0.8635	0.5143	0.0135
298.15	0.9095	0.3614	0.0097
298.15	0.955	0.1975	0.0058
308.15	0.083	0.6996	0.018
308.15	0.1363	0.9108	0.0232
308.15	0.1914	1.0045	0.0254
308.15	0.2173	1.0405	0.0263
308.15	0.2692	1.1074	0.028
308.15	0.3213	1.1375	0.0287
308.15	0.3986	1.1868	0.0299
308.15	0.4011	1.1941	0.0301
308.15	0.4242	1.1957	0.0301
308.15	0.5274	1.1671	0.0294
308.15	0.6237	1.0746	0.0272
308.15	0.6492	1.0373	0.0263
308.15	0.7205	0.9193	0.0234
308.15	0.7682	0.8193	0.0209
308.15	0.77	0.8199	0.0209
308.15	0.8155	0.7168	0.0184
308.15	0.8865	0.4844	0.0127
318.15	0.0634	0.6664	0.0172
318.15	0.1259	0.9385	0.0238
318.15	0.1876	1.1189	0.0282
318.15	0.2164	1.1956	0.0301
318.15	0.2692	1.2588	0.0317
318.15	0.3213	1.3097	0.0329
318.15	0.368	1.3254	0.0333
318.15	0.3986	1.331	0.0334
318.15	0.4242	1.3355	0.0335
318.15	0.4521	1.3374	0.0336
318.15	0.5249	1.3067	0.0328
318.15	0.5523	1.2875	0.0324
318.15	0.6237	1.2019	0.0303
318.15	0.6481	1.155	0.0291
318.15	0.7205	1.0233	0.0259
318.15	0.7464	0.9596	0.0243
318.15	0.7682	0.8958	0.0228
318.15	0.8155	0.7582	0.0194
318.15	0.8635	0.6059	0.0157
318.15	0.9095	0.4357	0.0115
318.15	0.955	0.244	0.0069

System: 2-ethoxyethan-1-ol + octane; phases: Liquid
Fixed: Pressure, kPa = 101
Property: Excess molar enthalpy (molar enthalpy of mixing), kJ/mol (Liquid); method: FLOW:UFactor:2
Temperature, K	Mole fraction of 2-ethoxyethan-1-ol	Excess molar enthalpy (molar enthalpy of mixing), kJ/mol	uncertainty
298.15	0.1071	0.7382	0.0189
298.15	0.1572	0.8822	0.0225
298.15	0.1921	0.9765	0.0248
298.15	0.2514	1.0312	0.0261
298.15	0.2956	1.0853	0.0274
298.15	0.3568	1.1358	0.0287
298.15	0.4563	1.1383	0.0287
298.15	0.4997	1.1368	0.0287
298.15	0.5787	1.0826	0.0274
298.15	0.6247	1.0556	0.0267
298.15	0.6723	0.9975	0.0253
298.15	0.735	0.9059	0.023
298.15	0.7771	0.8293	0.0212
298.15	0.8331	0.6809	0.0175
298.15	0.8704	0.6028	0.0156
298.15	0.9049	0.4574	0.0121
298.15	0.9209	0.4097	0.0109
298.15	0.9539	0.2472	0.007
308.15	0.0654	0.648	0.0167
308.15	0.1274	0.9151	0.0233
308.15	0.1934	1.0981	0.0277
308.15	0.2171	1.1413	0.0288
308.15	0.2626	1.2102	0.0305
308.15	0.3223	1.2803	0.0322
308.15	0.3568	1.3046	0.0328
308.15	0.3997	1.3107	0.0329
308.15	0.4542	1.32	0.0332
308.15	0.4997	1.3233	0.0333
308.15	0.5711	1.2849	0.0323
308.15	0.6247	1.2408	0.0312
308.15	0.6723	1.1395	0.0288
308.15	0.6754	1.1491	0.029
308.15	0.6893	1.126	0.0284
308.15	0.7351	1.0439	0.0264
308.15	0.769	0.9552	0.0242
308.15	0.8062	0.8703	0.0222
308.15	0.8332	0.7908	0.0202
308.15	0.8535	0.7115	0.0183
308.15	0.921	0.4717	0.0124
308.15	0.9539	0.2863	0.0079
318.15	0.1071	1.0394	0.0263
318.15	0.1722	1.1921	0.03
318.15	0.2257	1.309	0.0329
318.15	0.3223	1.4357	0.036
318.15	0.3568	1.4752	0.037
318.15	0.3997	1.4928	0.0374
318.15	0.4542	1.4863	0.0372
318.15	0.4997	1.4863	0.0372
318.15	0.5552	1.4452	0.0362
318.15	0.5711	1.425	0.0357
318.15	0.6247	1.3704	0.0344
318.15	0.6893	1.2562	0.0316
318.15	0.7351	1.1473	0.0289
318.15	0.769	1.0663	0.027
318.15	0.7966	0.9843	0.025
318.15	0.8062	0.9497	0.0241
318.15	0.8535	0.79	0.0202
318.15	0.93	0.4622	0.0122
318.15	0.9696	0.2166	0.0062

System: ethanol + benzene; phases: Liquid
Fixed: Pressure, kPa = 101
Property: Excess molar enthalpy (molar enthalpy of mixing), kJ/mol (Liquid); method: FLOW:UFactor:2
Temperature, K	Mole fraction of ethanol	Excess molar enthalpy (molar enthalpy of mixing), kJ/mol	uncertainty
308.15	0.064	0.5852	0.0152
308.15	0.1049	0.7714	0.0197
308.15	0.1248	0.8436	0.0215
308.15	0.1542	0.8682	0.0221
308.15	0.1828	0.9591	0.0243
308.15	0.2381	1.0031	0.0254
308.15	0.2908	1.0138	0.0257
308.15	0.3413	1.0218	0.0259
308.15	0.3895	1.0019	0.0254
308.15	0.4357	0.9582	0.0243
308.15	0.4506	0.9581	0.0243
308.15	0.4799	0.9316	0.0237
308.15	0.5224	0.8717	0.0222
308.15	0.5631	0.8332	0.0213
308.15	0.6023	0.7693	0.0197
308.15	0.6761	0.6408	0.0166
308.15	0.7447	0.5197	0.0136
308.15	0.8084	0.396	0.0106
308.15	0.8678	0.2771	0.0077
308.15	0.4357	0.9604	0.0244
318.15	0.064	0.6285	0.0163
318.15	0.1248	0.9327	0.0237
318.15	0.1828	1.0779	0.0272
318.15	0.2381	1.1346	0.0286
318.15	0.2908	1.1766	0.0297
318.15	0.3413	1.1742	0.0296
318.15	0.3895	1.1603	0.0293
318.15	0.4799	1.0809	0.0273
318.15	0.5631	0.9674	0.0245
318.15	0.6023	0.9025	0.023
318.15	0.6761	0.7719	0.0198
318.15	0.7447	0.6296	0.0163
318.15	0.8084	0.4841	0.0127
318.15	0.8678	0.3377	0.0092
318.15	0.9233	0.1852	0.0055

System: hexane + 2-ethoxyethan-1-ol; phases: Liquid
Fixed: Pressure, kPa = 101
Property: Excess molar enthalpy (molar enthalpy of mixing), kJ/mol (Liquid); method: FLOW:UFactor:2
Temperature, K	Mole fraction of 2-ethoxyethan-1-ol	Excess molar enthalpy (molar enthalpy of mixing), kJ/mol	uncertainty
298.15	0.0757	0.6078	0.0157
298.15	0.1124	0.7236	0.0186
298.15	0.1484	0.8054	0.0206
298.15	0.2184	0.9333	0.0237
298.15	0.2858	1.0198	0.0258
298.15	0.4439	1.0613	0.0268
298.15	0.5989	1.0053	0.0255
298.15	0.6463	0.9443	0.024
298.15	0.6924	0.8734	0.0222
298.15	0.7591	0.7976	0.0204
298.15	0.8021	0.7084	0.0182
298.15	0.8438	0.603	0.0156
298.15	0.9044	0.4139	0.011
298.15	0.9434	0.2671	0.0074
308.15	0.0802	0.6722	0.0173
308.15	0.119	0.8003	0.0205
308.15	0.1571	0.9022	0.0229
308.15	0.2309	1.0344	0.0262
308.15	0.3018	1.1124	0.0281
308.15	0.3626	1.1843	0.0298
308.15	0.4031	1.1974	0.0302
308.15	0.4428	1.2014	0.0303
308.15	0.4996	1.1864	0.0299
308.15	0.5322	1.1706	0.0295
308.15	0.5989	1.1207	0.0283
308.15	0.6408	1.071	0.0271
308.15	0.6924	1.0025	0.0254
308.15	0.7591	0.8524	0.0217
308.15	0.8021	0.7723	0.0198
308.15	0.8438	0.646	0.0167
308.15	0.9044	0.4514	0.0119
308.15	0.9434	0.2974	0.0082
318.15	0.0757	0.6603	0.017
318.15	0.1124	0.8048	0.0206
318.15	0.1484	0.9197	0.0234
318.15	0.2184	1.0715	0.0271
318.15	0.2858	1.1733	0.0296
318.15	0.3508	1.2317	0.031
318.15	0.4134	1.2559	0.0316
318.15	0.4477	1.2544	0.0316
318.15	0.4738	1.2539	0.0316
318.15	0.4996	1.2429	0.0313
318.15	0.55	1.2196	0.0307
318.15	0.5989	1.1662	0.0294
318.15	0.6463	1.1173	0.0282
318.15	0.6924	1.0385	0.0263
318.15	0.7591	0.9156	0.0233
318.15	0.8021	0.7913	0.0202
318.15	0.8438	0.6835	0.0176
318.15	0.9044	0.4624	0.0122
318.15	0.9434	0.3034	0.0083

System: benzene + 2-ethoxyethan-1-ol; phases: Liquid
Fixed: Pressure, kPa = 101
Property: Excess molar enthalpy (molar enthalpy of mixing), kJ/mol (Liquid); method: FLOW:UFactor:2
Temperature, K	Mole fraction of 2-ethoxyethan-1-ol	Excess molar enthalpy (molar enthalpy of mixing), kJ/mol	uncertainty
308.15	0.0263	0.2237	0.0064
308.15	0.0693	0.4218	0.0112
308.15	0.0792	0.4469	0.0118
308.15	0.1159	0.5282	0.0138
308.15	0.1327	0.5592	0.0146
308.15	0.163	0.592	0.0154
308.15	0.1866	0.614	0.0159
308.15	0.2104	0.6236	0.0161
308.15	0.2411	0.6303	0.0163
308.15	0.2961	0.6226	0.0161
308.15	0.3551	0.5843	0.0152
308.15	0.4042	0.5547	0.0145
308.15	0.4786	0.4912	0.0129
308.15	0.5503	0.4243	0.0113
308.15	0.6047	0.3681	0.0099
308.15	0.6669	0.3033	0.0083
308.15	0.7336	0.2326	0.0066
308.15	0.7859	0.1799	0.0054
308.15	0.8653	0.1065	0.0036
308.15	0.9188	0.0647	0.0027
318.15	0.0307	0.2495	0.007
318.15	0.0615	0.4069	0.0108
318.15	0.1237	0.5819	0.0151
318.15	0.1866	0.6392	0.0165
318.15	0.2502	0.6719	0.0173
318.15	0.3065	0.6622	0.0171
318.15	0.3551	0.6454	0.0167
318.15	0.4042	0.6163	0.016
318.15	0.4786	0.5535	0.0144
318.15	0.5539	0.475	0.0125
318.15	0.6047	0.4196	0.0112
318.15	0.6559	0.3613	0.0097
318.15	0.7336	0.2702	0.0075
318.15	0.7859	0.2181	0.0063
318.15	0.8653	0.1302	0.0042
318.15	0.9188	0.0795	0.003
