Measured thermophysical data. Measurement and correlation solubility and mixing properties of  dimethyl succinylsuccinate in pure and mixture organic solvents from  (278.15 to 333.15) K
Source: Fluid Phase Equilib., 2013, 10.1016/j.fluid.2013.06.037
Compound 1: dimethyl 2,5-dioxocyclohexane-1,4-dicarboxylate, C10H12O6, InChI=1S/C10H12O6/c1-15-9(13)5-3-8(12)6(4-7(5)11)10(14)16-2/h5-6H,3-4H2,1-2H3, purity 99.87%
Compound 2: methanol, CH4O, InChI=1S/CH4O/c1-2/h2H,1H3, purity 99.9%
Compound 3: ethanol, C2H6O, InChI=1S/C2H6O/c1-2-3/h3H,2H2,1H3, purity 99.93%
Compound 4: propan-1-ol, C3H8O, InChI=1S/C3H8O/c1-2-3-4/h4H,2-3H2,1H3, purity 99.93%
Compound 5: ethyl acetate, C4H8O2, InChI=1S/C4H8O2/c1-3-6-4(2)5/h3H2,1-2H3, purity 99.98%
Compound 6: acetonitrile, C2H3N, InChI=1S/C2H3N/c1-2-3/h1H3, purity 99.91%
Compound 7: tetrahydrofuran, C4H8O, InChI=1S/C4H8O/c1-2-4-5-3-1/h1-4H2, purity 99.95%
Compound 8: acetone, C3H6O, InChI=1S/C3H6O/c1-3(2)4/h1-2H3, purity 99.96%

System: methanol + dimethyl 2,5-dioxocyclohexane-1,4-dicarboxylate; phases: Liquid, Crystal
Fixed: Pressure, kPa = 101
Property: Mole fraction of dimethyl 2,5-dioxocyclohexane-1,4-dicarboxylate (Liquid); method: Gravimetric with drying of solvent
Temperature, K	Mole fraction of dimethyl 2,5-dioxocyclohexane-1,4-dicarboxylate	uncertainty
278.15	0.0001	1e-05
283.15	0.00014	1e-05
288.15	0.00018	1e-05
293.15	0.00024	1e-05
298.15	0.00033	1e-05
303.15	0.00042	1e-05
308.15	0.00055	1e-05
313.15	0.0007	1e-05
318.15	0.0009	1e-05
323.15	0.00113	1e-05
328.15	0.00144	1e-05
333.15	0.00171	1e-05

System: ethanol + dimethyl 2,5-dioxocyclohexane-1,4-dicarboxylate; phases: Liquid, Crystal
Fixed: Pressure, kPa = 101
Property: Mole fraction of dimethyl 2,5-dioxocyclohexane-1,4-dicarboxylate (Liquid); method: Gravimetric with drying of solvent
Temperature, K	Mole fraction of dimethyl 2,5-dioxocyclohexane-1,4-dicarboxylate	uncertainty
278.15	0.00013	1e-05
283.15	0.00019	1e-05
288.15	0.00024	1e-05
293.15	0.00032	1e-05
298.15	0.00042	1e-05
303.15	0.00056	1e-05
308.15	0.00071	1e-05
313.15	0.00095	2e-05
318.15	0.00121	2e-05
323.15	0.00159	2e-05
328.15	0.00198	3e-05
333.15	0.00243	3e-05

System: propan-1-ol + dimethyl 2,5-dioxocyclohexane-1,4-dicarboxylate; phases: Liquid, Crystal
Fixed: Pressure, kPa = 101
Property: Mole fraction of dimethyl 2,5-dioxocyclohexane-1,4-dicarboxylate (Liquid); method: Gravimetric with drying of solvent
Temperature, K	Mole fraction of dimethyl 2,5-dioxocyclohexane-1,4-dicarboxylate	uncertainty
278.15	0.00023	1e-05
283.15	0.0003	1e-05
288.15	0.00038	1e-05
293.15	0.00049	1e-05
298.15	0.00064	1e-05
303.15	0.00081	1e-05
308.15	0.00104	1e-05
313.15	0.0013	2e-05
318.15	0.00158	2e-05
323.15	0.00199	3e-05
328.15	0.00245	3e-05
333.15	0.00291	3e-05

System: ethyl acetate + dimethyl 2,5-dioxocyclohexane-1,4-dicarboxylate; phases: Liquid, Crystal
Fixed: Pressure, kPa = 101
Property: Mole fraction of dimethyl 2,5-dioxocyclohexane-1,4-dicarboxylate (Liquid); method: Gravimetric with drying of solvent
Temperature, K	Mole fraction of dimethyl 2,5-dioxocyclohexane-1,4-dicarboxylate	uncertainty
278.15	0.00323	4e-05
283.15	0.00394	5e-05
288.15	0.00512	5e-05
293.15	0.00603	6e-05
298.15	0.00728	8e-05
303.15	0.00914	0.0001
308.15	0.01131	0.00012
313.15	0.01379	0.00014
318.15	0.01647	0.00016
323.15	0.01971	0.00019
328.15	0.02346	0.00023
333.15	0.02765	0.00025

System: acetonitrile + dimethyl 2,5-dioxocyclohexane-1,4-dicarboxylate; phases: Liquid, Crystal
Fixed: Pressure, kPa = 101
Property: Mole fraction of dimethyl 2,5-dioxocyclohexane-1,4-dicarboxylate (Liquid); method: Gravimetric with drying of solvent
Temperature, K	Mole fraction of dimethyl 2,5-dioxocyclohexane-1,4-dicarboxylate	uncertainty
278.15	0.00075	2e-05
283.15	0.00102	2e-05
288.15	0.00128	2e-05
293.15	0.00161	3e-05
298.15	0.00204	3e-05
303.15	0.00265	5e-05
308.15	0.0035	6e-05
313.15	0.00432	7e-05
318.15	0.00547	9e-05
323.15	0.00669	0.0001
328.15	0.00839	0.00013
333.15	0.01009	0.00015

System: tetrahydrofuran + dimethyl 2,5-dioxocyclohexane-1,4-dicarboxylate; phases: Liquid, Crystal
Fixed: Pressure, kPa = 101
Property: Mole fraction of dimethyl 2,5-dioxocyclohexane-1,4-dicarboxylate (Liquid); method: Gravimetric with drying of solvent
Temperature, K	Mole fraction of dimethyl 2,5-dioxocyclohexane-1,4-dicarboxylate	uncertainty
278.15	0.00474	6e-05
283.15	0.0059	8e-05
288.15	0.00769	9e-05
293.15	0.00942	0.00011
298.15	0.01168	0.00013
303.15	0.01395	0.00016
308.15	0.01732	0.00019
313.15	0.02077	0.00022
318.15	0.02493	0.00027
323.15	0.02998	0.00032
328.15	0.03573	0.00038
333.15	0.0422	0.00043

System: acetone + dimethyl 2,5-dioxocyclohexane-1,4-dicarboxylate; phases: Liquid, Crystal
Fixed: Pressure, kPa = 101
Property: Mole fraction of dimethyl 2,5-dioxocyclohexane-1,4-dicarboxylate (Liquid); method: Gravimetric with drying of solvent
Temperature, K	Mole fraction of dimethyl 2,5-dioxocyclohexane-1,4-dicarboxylate	uncertainty
278.15	0.00172	3e-05
283.15	0.00224	3e-05
288.15	0.00283	4e-05
293.15	0.0034	4e-05
298.15	0.00426	6e-05
303.15	0.00548	8e-05
308.15	0.00709	9e-05
313.15	0.00853	0.00011
318.15	0.01077	0.00013
323.15	0.01292	0.00015

System: methanol + tetrahydrofuran + dimethyl 2,5-dioxocyclohexane-1,4-dicarboxylate; phases: Liquid, Crystal
Fixed: Pressure, kPa = 101
Property: Mole fraction of dimethyl 2,5-dioxocyclohexane-1,4-dicarboxylate (Liquid); method: gravimetric with drying of solvent
Temperature, K	Solvent: Mole fraction of methanol	Mole fraction of dimethyl 2,5-dioxocyclohexane-1,4-dicarboxylate	uncertainty
278.15	0.0984	0.00365	5.4e-05
283.15	0.0984	0.00477	6e-05
288.15	0.0984	0.00595	7.3e-05
293.15	0.0984	0.00748	9.1e-05
298.15	0.0984	0.0093	0.000107
303.15	0.0984	0.01124	0.000129
308.15	0.0984	0.01383	0.000161
313.15	0.0984	0.01691	0.000193
318.15	0.0984	0.0205	0.000234
323.15	0.0984	0.02493	0.000284
328.15	0.0984	0.03024	0.000341
333.15	0.0984	0.03637	0.000391
278.15	0.2962	0.00209	2.2e-05
283.15	0.2962	0.0027	3.7e-05
288.15	0.2962	0.00346	4.7e-05
293.15	0.2962	0.00447	6.3e-05
298.15	0.2962	0.00587	7.5e-05
303.15	0.2962	0.00715	9e-05
308.15	0.2962	0.00903	0.000112
313.15	0.2962	0.011	0.000136
318.15	0.2962	0.01363	0.00017
323.15	0.2962	0.0168	0.000208
328.15	0.2962	0.02069	0.000258
333.15	0.2962	0.02561	0.000292
278.15	0.4955	0.00144	2.2e-05
283.15	0.4955	0.00181	2.5e-05
288.15	0.4955	0.00226	3e-05
293.15	0.4955	0.00275	3.7e-05
298.15	0.4955	0.00345	4.5e-05
303.15	0.4955	0.00414	5.5e-05
308.15	0.4955	0.00519	7e-05
313.15	0.4955	0.00645	8.4e-05
318.15	0.4955	0.0078	0.0001
323.15	0.4955	0.00946	0.000121
328.15	0.4955	0.01142	0.000138
333.15	0.4955	0.01306	0.000184
278.15	0.5957	0.00105	1.6e-05
283.15	0.5957	0.0013	1.9e-05
288.15	0.5957	0.00165	2.4e-05
293.15	0.5957	0.00205	2.9e-05
298.15	0.5957	0.00255	3.5e-05
303.15	0.5957	0.00311	4.4e-05
308.15	0.5957	0.00395	5.6e-05
313.15	0.5957	0.00486	6.7e-05
318.15	0.5957	0.00599	8.1e-05
323.15	0.5957	0.0072	9.3e-05
328.15	0.5957	0.00839	0.000112
333.15	0.5957	0.01028	0.000143
278.15	0.6962	0.00063	8e-06
283.15	0.6962	0.00082	1.3e-05
288.15	0.6962	0.00105	1.6e-05
293.15	0.6962	0.00135	2.1e-05
298.15	0.6962	0.00171	2.7e-05
303.15	0.6962	0.00224	3.5e-05
308.15	0.6962	0.00283	4.2e-05
313.15	0.6962	0.00344	5.1e-05
318.15	0.6962	0.00429	6.4e-05
323.15	0.6962	0.0053	7.8e-05
328.15	0.6962	0.00651	9.9e-05
333.15	0.6962	0.00829	0.000124
278.15	0.8984	0.00031	6e-06
283.15	0.8984	0.0004	7e-06
288.15	0.8984	0.00053	1e-05
293.15	0.8984	0.0007	1.3e-05
298.15	0.8984	0.0009	1.6e-05
303.15	0.8984	0.00114	2.1e-05
308.15	0.8984	0.00149	2.5e-05
313.15	0.8984	0.00179	3.2e-05
318.15	0.8984	0.0024	4.3e-05
323.15	0.8984	0.00301	5.1e-05
328.15	0.8984	0.00365	6.2e-05
333.15	0.8984	0.00459	7.7e-05
