Measured thermophysical data. Measurement of bubble point pressure in crude oils using an acoustic wave sensor
Source: Fluid Phase Equilib., 2016, 10.1016/j.fluid.2016.07.003
Compound 1: heptadecane, C17H36, InChI=1S/C17H36/c1-3-5-7-9-11-13-15-17-16-14-12-10-8-6-4-2/h3-17H2,1-2H3, purity 99%
Compound 2: carbon dioxide, CO2, InChI=1S/CO2/c2-1-3

System: carbon dioxide + heptadecane; phases: Liquid, Gas
Property: Vapor or sublimation pressure, kPa (Liquid); method: impectance analysis
Temperature, K	Mole fraction of carbon dioxide	Vapor or sublimation pressure, kPa	uncertainty
353.3	0.802	17460	1750

System: carbon dioxide + heptadecane; phases: Liquid, Gas
Property: Vapor or sublimation pressure, kPa (Liquid); method: P-V curve break
Temperature, K	Mole fraction of carbon dioxide	Vapor or sublimation pressure, kPa	uncertainty
353.3	0.802	17470	1760

System: carbon dioxide + heptadecane; phases: Liquid, Gas
Property: Vapor or sublimation pressure, kPa (Liquid); method: isothermal compressibility
Temperature, K	Mole fraction of carbon dioxide	Vapor or sublimation pressure, kPa	uncertainty
353.3	0.802	17800	1790

System: carbon dioxide + heptadecane; phases: Liquid, Gas
Property: Vapor or sublimation pressure, kPa (Liquid); method: app. K curve break
Temperature, K	Mole fraction of carbon dioxide	Vapor or sublimation pressure, kPa	uncertainty
353.3	0.802	17470	1760

System: carbon dioxide + heptadecane; phases: Liquid, Gas
Property: Vapor or sublimation pressure, kPa (Liquid); method: visual
Temperature, K	Mole fraction of carbon dioxide	Vapor or sublimation pressure, kPa	uncertainty
353.3	0.802	17550	1760
