Measured thermophysical data. Experimental vapor pressure data and a vapor pressure equation for fluoroethane (HFC-161)
Source: Fluid Phase Equilib., 2006, 10.1016/j.fluid.2006.04.014
Compound 1: 1,1,1,2-tetrafluoroethane, C2H2F4, InChI=1S/C2H2F4/c3-1-2(4,5)6/h1H2
Compound 2: fluoroethane, C2H5F, InChI=1S/C2H5F/c1-2-3/h2H2,1H3, purity 99.9%

System: 1,1,1,2-tetrafluoroethane; phases: Liquid, Gas
Property: Vapor or sublimation pressure, kPa (Liquid); method: Closed cell (Static) method
Temperature, K	Vapor or sublimation pressure, kPa	uncertainty
263.15	202.6	2.9
268.15	245.5	3.5
273.15	294.12	4.19
283.15	416.6	5.9

System: fluoroethane; phases: Liquid, Gas
Property: Vapor or sublimation pressure, kPa (Liquid); method: Closed cell (Static) method
Temperature, K	Vapor or sublimation pressure, kPa	uncertainty
253.15	216.2	2.2
258.15	261.4	2.6
263.15	311.9	3.2
265.65	342.3	3.5
268.15	372.2	3.8
270.65	405.3	4.1
273.15	438.1	4.4
275.15	468.9	4.7
278.15	517.1	5.2
281.15	567.1	5.7
283.15	602.9	6.1
285.65	650.2	6.6
288.15	699	7.1
290.65	752.4	7.6
293.15	808.2	8.2
295.65	866	8.8
298.15	924.2	9.3
300.65	990.3	10
303.15	1051.4	10.6
305.65	1121.5	11.3
308.15	1192.8	12.1
310.65	1269.5	12.8
313.15	1348.6	13.6
315.65	1428.6	14.4
318.5	1516.5	15.3
320.65	1607.1	16.3
323.15	1703.9	17.2
