Measured thermophysical data. Apparent molar volumes and isentropic compressions of benzylalkylammonium ionic liquids in dimethylsulfoxide from 293.15 K to 328.15 K
Source: Fluid Phase Equilib., 2014, 10.1016/j.fluid.2014.09.022
Compound 1: benzylmethylammonium propionate, C11H17NO2, InChI=1S/C8H11N.C3H6O2/c1-9-7-8-5-3-2-4-6-8;1-2-3(4)5/h2-6,9H,7H2,1H3;2H2,1H3,(H,4,5)
Compound 2: benzylmethylammonium hexanoate, C13H21NO2, InChI=1S/C7H9N.C6H12O2/c1-8-7-5-3-2-4-6-7;1-2-3-4-5-6(7)8/h2-6,8H,1H3;2-5H2,1H3,(H,7,8)
Compound 3: benzyldimethylammonium propionate, C12H19NO2, InChI=1S/C9H13N.C3H6O2/c1-10(2)8-9-6-4-3-5-7-9;1-2-3(4)5/h3-7H,8H2,1-2H3;2H2,1H3,(H,4,5)
Compound 4: benzyldimethylammonium hexanoate, C15H25NO2, InChI=1S/C9H13N.C6H12O2/c1-10(2)8-9-6-4-3-5-7-9;1-2-3-4-5-6(7)8/h3-7H,8H2,1-2H3;2-5H2,1H3,(H,7,8)
Compound 5: dimethyl sulfoxide, C2H6OS, InChI=1S/C2H6OS/c1-4(2)3/h1-2H3, purity 99.9%

System: dimethyl sulfoxide; phases: Liquid
Fixed: Pressure, kPa = 101.3
Property: Mass density, kg/m3 (Liquid); method: Vibrating tube method
Temperature, K	Mass density, kg/m3	uncertainty
293.15	1100.407	0.122
298.15	1095.387	0.121
303.15	1090.367	0.12
308.15	1085.348	0.119
313.15	1080.327	0.118
318.15	1075.307	0.117
323.15	1070.285	0.116
328.15	1065.262	0.115

System: dimethyl sulfoxide; phases: Liquid
Fixed: Pressure, kPa = 101.3
Fixed: Frequency, MHz = 3
Property: Speed of sound, m/s (Liquid); method: Sing-around technique in a fixed-path interferometer
Temperature, K	Speed of sound, m/s	uncertainty
293.15	1502.01	1.21
298.15	1485.1	1.21
303.15	1468.15	1.2
308.15	1451.28	1.2
313.15	1434.5	1.2
318.15	1417.78	1.19
323.15	1401.17	1.19
328.15	1384.6	1.19

System: benzylmethylammonium propionate + dimethyl sulfoxide; phases: Liquid
Fixed: Pressure, kPa = 101.3
Property: Mass density, kg/m3 (Liquid); method: Vibrating tube method
Temperature, K	Molality, mol/kg of benzylmethylammonium propionate	Mass density, kg/m3	uncertainty
293.15	0	1100.407	0.122
293.15	0.1588	1097.192	0.124
293.15	0.21001	1096.384	0.125
293.15	0.33994	1094.445	0.129
293.15	0.42849	1093.247	0.132
293.15	0.52787	1092.018	0.136
293.15	0.61235	1091.036	0.14
293.15	0.72355	1089.842	0.146
293.15	0.77682	1089.273	0.15
298.15	0	1095.387	0.121
298.15	0.1588	1092.131	0.123
298.15	0.21001	1091.315	0.124
298.15	0.33994	1089.346	0.128
298.15	0.42849	1088.132	0.131
298.15	0.52787	1086.891	0.135
298.15	0.61235	1085.9	0.139
298.15	0.72355	1084.699	0.145
298.15	0.77682	1084.118	0.148
303.15	0	1090.367	0.12
303.15	0.1588	1087.085	0.122
303.15	0.21001	1086.245	0.123
303.15	0.33994	1084.242	0.127
303.15	0.42849	1083.009	0.13
303.15	0.52787	1081.754	0.134
303.15	0.61235	1080.753	0.137
303.15	0.72355	1079.545	0.143
303.15	0.77682	1078.969	0.146
308.15	0	1085.348	0.119
308.15	0.1588	1082.035	0.121
308.15	0.21001	1081.176	0.122
308.15	0.33994	1079.139	0.125
308.15	0.42849	1077.888	0.128
308.15	0.52787	1076.617	0.132
308.15	0.61235	1075.607	0.136
308.15	0.72355	1074.387	0.142
308.15	0.77682	1073.808	0.145
313.15	0	1080.327	0.118
313.15	0.1588	1076.987	0.12
313.15	0.21001	1076.11	0.121
313.15	0.33994	1074.039	0.124
313.15	0.42849	1072.769	0.127
313.15	0.52787	1071.48	0.131
313.15	0.61235	1070.456	0.135
313.15	0.72355	1069.225	0.14
313.15	0.77682	1068.642	0.143
318.15	0	1075.307	0.117
318.15	0.1588	1071.942	0.119
318.15	0.21001	1071.048	0.12
318.15	0.33994	1068.942	0.123
318.15	0.42849	1067.652	0.126
318.15	0.52787	1066.345	0.13
318.15	0.61235	1065.309	0.133
318.15	0.72355	1064.064	0.139
318.15	0.77682	1063.476	0.141
323.15	0	1070.285	0.116
323.15	0.1588	1066.897	0.118
323.15	0.21001	1065.989	0.119
323.15	0.33994	1063.85	0.122
323.15	0.42849	1062.539	0.125
323.15	0.52787	1061.215	0.128
323.15	0.61235	1060.162	0.132
323.15	0.72355	1058.904	0.137
323.15	0.77682	1058.31	0.14
328.15	0	1065.262	0.115
328.15	0.1588	1061.856	0.117
328.15	0.21001	1060.936	0.118
328.15	0.33994	1058.762	0.121
328.15	0.42849	1057.432	0.124
328.15	0.52787	1056.085	0.127
328.15	0.61235	1055.019	0.13
328.15	0.72355	1053.746	0.136
328.15	0.77682	1053.143	0.138

System: benzylmethylammonium propionate + dimethyl sulfoxide; phases: Liquid
Fixed: Pressure, kPa = 101.3
Fixed: Frequency, MHz = 3
Property: Speed of sound, m/s (Liquid); method: Sing-around technique in a fixed-path interferometer
Temperature, K	Molality, mol/kg of benzylmethylammonium propionate	Speed of sound, m/s	uncertainty
293.15	0	1502.01	1.21
293.15	0.1588	1501.25	1.22
293.15	0.21001	1501.16	1.23
293.15	0.33994	1501.25	1.24
293.15	0.42849	1501.15	1.25
293.15	0.52787	1501.42	1.26
293.15	0.61235	1501.93	1.27
293.15	0.72355	1502.11	1.29
293.15	0.77682	1502.42	1.3
298.15	0	1485.1	1.21
298.15	0.1588	1484.19	1.22
298.15	0.21001	1484.32	1.22
298.15	0.33994	1484.26	1.24
298.15	0.42849	1484.07	1.25
298.15	0.52787	1484.26	1.26
298.15	0.61235	1484.8	1.27
298.15	0.72355	1484.85	1.29
298.15	0.77682	1484.81	1.3
303.15	0	1468.15	1.2
303.15	0.1588	1467.44	1.21
303.15	0.21001	1467.25	1.22
303.15	0.33994	1467.02	1.23
303.15	0.42849	1466.73	1.24
303.15	0.52787	1466.84	1.26
303.15	0.61235	1467.36	1.27
303.15	0.72355	1467.32	1.29
303.15	0.77682	1467.51	1.29
308.15	0	1451.28	1.2
308.15	0.1588	1450.46	1.21
308.15	0.21001	1450.17	1.22
308.15	0.33994	1449.8	1.23
308.15	0.42849	1449.44	1.24
308.15	0.52787	1449.45	1.25
308.15	0.61235	1449.92	1.27
308.15	0.72355	1449.79	1.28
308.15	0.77682	1449.96	1.29
313.15	0	1434.5	1.2
313.15	0.1588	1433.56	1.21
313.15	0.21001	1433.21	1.21
313.15	0.33994	1432.69	1.23
313.15	0.42849	1432.23	1.24
313.15	0.52787	1432.15	1.25
313.15	0.61235	1432.56	1.26
313.15	0.72355	1432.34	1.28
313.15	0.77682	1432.48	1.29
318.15	0	1417.78	1.19
318.15	0.1588	1416.71	1.21
318.15	0.21001	1416.32	1.21
318.15	0.33994	1415.65	1.22
318.15	0.42849	1415.1	1.23
318.15	0.52787	1414.93	1.25
318.15	0.61235	1415.26	1.26
318.15	0.72355	1414.98	1.28
318.15	0.77682	1415.07	1.28
323.15	0	1401.17	1.19
323.15	0.1588	1399.98	1.2
323.15	0.21001	1399.52	1.21
323.15	0.33994	1398.72	1.22
323.15	0.42849	1398.07	1.23
323.15	0.52787	1397.82	1.24
323.15	0.61235	1398.07	1.26
323.15	0.72355	1397.72	1.27
323.15	0.77682	1397.75	1.28
328.15	0	1384.6	1.19
328.15	0.1588	1383.32	1.2
328.15	0.21001	1382.81	1.2
328.15	0.33994	1381.87	1.22
328.15	0.42849	1381.14	1.23
328.15	0.52787	1380.79	1.24
328.15	0.61235	1380.97	1.25
328.15	0.72355	1380.56	1.27
328.15	0.77682	1380.53	1.28

System: benzylmethylammonium hexanoate + dimethyl sulfoxide; phases: Liquid
Fixed: Pressure, kPa = 101.3
Property: Mass density, kg/m3 (Liquid); method: Vibrating tube method
Temperature, K	Molality, mol/kg of benzylmethylammonium hexanoate	Mass density, kg/m3	uncertainty
293.15	0.08525	1097.215	0.123
293.15	0.17086	1094.427	0.125
293.15	0.26383	1091.568	0.128
293.15	0.32531	1089.684	0.13
293.15	0.42572	1086.96	0.134
293.15	0.50888	1084.817	0.139
293.15	0.58316	1083.005	0.143
293.15	0.66053	1081.196	0.149
298.15	0.08525	1092.191	0.122
298.15	0.17086	1089.391	0.124
298.15	0.26383	1086.518	0.126
298.15	0.32531	1084.62	0.129
298.15	0.42572	1081.898	0.133
298.15	0.50888	1079.739	0.137
298.15	0.58316	1077.939	0.142
298.15	0.66053	1076.13	0.147
303.15	0.08525	1087.178	0.121
303.15	0.17086	1084.353	0.123
303.15	0.26383	1081.467	0.125
303.15	0.32531	1079.566	0.127
303.15	0.42572	1076.826	0.132
303.15	0.50888	1074.675	0.136
303.15	0.58316	1072.866	0.14
303.15	0.66053	1071.055	0.145
308.15	0.08525	1082.159	0.12
308.15	0.17086	1079.319	0.121
308.15	0.26383	1076.415	0.124
308.15	0.32531	1074.507	0.126
308.15	0.42572	1071.757	0.13
308.15	0.50888	1069.603	0.135
308.15	0.58316	1067.792	0.139
308.15	0.66053	1065.979	0.144
313.15	0.08525	1077.143	0.119
313.15	0.17086	1074.286	0.12
313.15	0.26383	1071.368	0.123
313.15	0.32531	1069.45	0.125
313.15	0.42572	1066.69	0.129
313.15	0.50888	1064.531	0.133
313.15	0.58316	1062.719	0.137
313.15	0.66053	1060.902	0.142
318.15	0.08525	1072.127	0.118
318.15	0.17086	1069.257	0.119
318.15	0.26383	1066.325	0.122
318.15	0.32531	1064.398	0.124
318.15	0.42572	1061.627	0.128
318.15	0.50888	1059.461	0.132
318.15	0.58316	1057.646	0.136
318.15	0.66053	1055.826	0.141
323.15	0.08525	1067.111	0.117
323.15	0.17086	1064.231	0.119
323.15	0.26383	1061.286	0.121
323.15	0.32531	1059.351	0.123
323.15	0.42572	1056.57	0.127
323.15	0.50888	1054.396	0.131
323.15	0.58316	1052.575	0.134
323.15	0.66053	1050.751	0.139
328.15	0.08525	1062.097	0.116
328.15	0.17086	1059.209	0.118
328.15	0.26383	1056.252	0.12
328.15	0.32531	1054.307	0.122
328.15	0.42572	1051.515	0.125
328.15	0.50888	1049.334	0.129
328.15	0.58316	1047.507	0.133
328.15	0.66053	1045.682	0.137
293.15	0	1100.407	0.122
298.15	0	1095.387	0.121
303.15	0	1090.367	0.12
308.15	0	1085.348	0.119
313.15	0	1080.327	0.118
318.15	0	1075.307	0.117
323.15	0	1070.285	0.116
328.15	0	1065.262	0.115

System: benzylmethylammonium hexanoate + dimethyl sulfoxide; phases: Liquid
Fixed: Pressure, kPa = 101.3
Fixed: Frequency, MHz = 3
Property: Speed of sound, m/s (Liquid); method: Sing-around technique in a fixed-path interferometer
Temperature, K	Molality, mol/kg of benzylmethylammonium hexanoate	Speed of sound, m/s	uncertainty
293.15	0.08525	1501.17	1.22
293.15	0.17086	1499.1	1.23
293.15	0.26383	1498.2	1.24
293.15	0.32531	1497.18	1.24
293.15	0.42572	1496.5	1.26
293.15	0.50888	1495.7	1.27
293.15	0.58316	1495.09	1.29
293.15	0.66053	1494.55	1.3
298.15	0.08525	1484.21	1.21
298.15	0.17086	1482.35	1.22
298.15	0.26383	1481.34	1.23
298.15	0.32531	1479.99	1.24
298.15	0.42572	1479.62	1.26
298.15	0.50888	1478.36	1.27
298.15	0.58316	1478.04	1.28
298.15	0.66053	1477.45	1.3
303.15	0.08525	1467.56	1.21
303.15	0.17086	1465.36	1.22
303.15	0.26383	1464.25	1.23
303.15	0.32531	1463.1	1.24
303.15	0.42572	1462.43	1.25
303.15	0.50888	1461.35	1.27
303.15	0.58316	1460.74	1.28
303.15	0.66053	1460.11	1.3
308.15	0.08525	1450.67	1.21
308.15	0.17086	1448.37	1.22
308.15	0.26383	1447.18	1.23
308.15	0.32531	1446	1.24
308.15	0.42572	1445.25	1.25
308.15	0.50888	1444.12	1.26
308.15	0.58316	1443.43	1.28
308.15	0.66053	1442.76	1.29
313.15	0.08525	1433.87	1.2
313.15	0.17086	1431.5	1.21
313.15	0.26383	1430.21	1.22
313.15	0.32531	1428.98	1.23
313.15	0.42572	1428.17	1.25
313.15	0.50888	1426.96	1.26
313.15	0.58316	1426.23	1.28
313.15	0.66053	1425.52	1.29
318.15	0.08525	1417.14	1.2
318.15	0.17086	1414.69	1.21
318.15	0.26383	1413.31	1.22
318.15	0.32531	1412.04	1.23
318.15	0.42572	1411.15	1.24
318.15	0.50888	1409.88	1.26
318.15	0.58316	1409.13	1.27
318.15	0.66053	1408.35	1.29
323.15	0.08525	1400.5	1.2
323.15	0.17086	1397.97	1.21
323.15	0.26383	1396.51	1.22
323.15	0.32531	1395.18	1.23
323.15	0.42572	1394.23	1.24
323.15	0.50888	1392.89	1.26
323.15	0.58316	1392.1	1.27
323.15	0.66053	1391.27	1.28
328.15	0.08525	1383.91	1.19
328.15	0.17086	1381.34	1.2
328.15	0.26383	1379.8	1.21
328.15	0.32531	1378.42	1.22
328.15	0.42572	1377.39	1.24
328.15	0.50888	1376.01	1.25
328.15	0.58316	1375.18	1.27
328.15	0.66053	1374.3	1.28
293.15	0	1502.01	1.21
298.15	0	1485.1	1.21
303.15	0	1468.15	1.2
308.15	0	1451.28	1.2
313.15	0	1434.5	1.2
318.15	0	1417.78	1.19
323.15	0	1401.17	1.19
328.15	0	1384.6	1.19

System: dimethyl sulfoxide + benzyldimethylammonium propionate; phases: Liquid
Fixed: Pressure, kPa = 101.3
Property: Mass density, kg/m3 (Liquid); method: Vibrating tube method
Temperature, K	Molality, mol/kg of benzyldimethylammonium propionate	Mass density, kg/m3	uncertainty
293.15	0.10215	1096.797	0.123
293.15	0.18727	1093.972	0.124
293.15	0.28834	1090.856	0.127
293.15	0.35024	1089.105	0.129
293.15	0.45766	1086.239	0.133
293.15	0.55297	1083.804	0.137
293.15	0.64516	1081.811	0.142
293.15	0.72159	1080.317	0.146
298.15	0.10215	1091.802	0.122
298.15	0.18727	1088.983	0.123
298.15	0.28834	1085.859	0.126
298.15	0.35024	1084.109	0.128
298.15	0.45766	1081.237	0.132
298.15	0.55297	1078.796	0.136
298.15	0.64516	1076.795	0.141
298.15	0.72159	1075.293	0.145
303.15	0.10215	1086.802	0.121
303.15	0.18727	1083.987	0.122
303.15	0.28834	1080.865	0.125
303.15	0.35024	1079.126	0.127
303.15	0.45766	1076.25	0.13
303.15	0.55297	1073.794	0.134
303.15	0.64516	1071.787	0.139
303.15	0.72159	1070.28	0.143
308.15	0.10215	1081.798	0.12
308.15	0.18727	1078.993	0.121
308.15	0.28834	1075.885	0.124
308.15	0.35024	1074.137	0.125
308.15	0.45766	1071.26	0.129
308.15	0.55297	1068.799	0.133
308.15	0.64516	1066.789	0.138
308.15	0.72159	1065.275	0.142
313.15	0.10215	1076.795	0.119
313.15	0.18727	1073.999	0.12
313.15	0.28834	1070.896	0.123
313.15	0.35024	1069.15	0.124
313.15	0.45766	1066.275	0.128
313.15	0.55297	1063.812	0.132
313.15	0.64516	1061.796	0.136
313.15	0.72159	1060.278	0.14
318.15	0.10215	1071.792	0.118
318.15	0.18727	1069.004	0.119
318.15	0.28834	1065.91	0.121
318.15	0.35024	1064.164	0.123
318.15	0.45766	1061.292	0.127
318.15	0.55297	1058.827	0.13
318.15	0.64516	1056.809	0.135
318.15	0.72159	1055.287	0.139
323.15	0.10215	1066.788	0.117
323.15	0.18727	1064.009	0.118
323.15	0.28834	1060.923	0.12
323.15	0.35024	1059.18	0.122
323.15	0.45766	1056.296	0.126
323.15	0.55297	1053.845	0.129
323.15	0.64516	1051.828	0.133
323.15	0.72159	1050.303	0.137
328.15	0.10215	1061.783	0.116
328.15	0.18727	1059.015	0.117
328.15	0.28834	1055.938	0.119
328.15	0.35024	1054.198	0.121
328.15	0.45766	1051.317	0.124
328.15	0.55297	1048.867	0.128
328.15	0.64516	1046.849	0.132
328.15	0.72159	1045.323	0.136
293.15	0	1100.407	0.122
298.15	0	1095.387	0.121
303.15	0	1090.367	0.12
308.15	0	1085.348	0.119
313.15	0	1080.327	0.118
318.15	0	1075.307	0.117
323.15	0	1070.285	0.116
328.15	0	1065.262	0.115

System: dimethyl sulfoxide + benzyldimethylammonium propionate; phases: Liquid
Fixed: Pressure, kPa = 101.3
Fixed: Frequency, MHz = 3
Property: Speed of sound, m/s (Liquid); method: Sing-around technique in a fixed-path interferometer
Temperature, K	Molality, mol/kg of benzyldimethylammonium propionate	Speed of sound, m/s	uncertainty
293.15	0.10215	1498.54	1.22
293.15	0.18727	1495.4	1.22
293.15	0.28834	1491.91	1.23
293.15	0.35024	1489.94	1.24
293.15	0.45766	1486.61	1.25
293.15	0.55297	1483.6	1.27
293.15	0.64516	1481.29	1.28
293.15	0.72159	1479.36	1.3
298.15	0.10215	1481.9	1.21
298.15	0.18727	1478.72	1.22
298.15	0.28834	1474.88	1.23
298.15	0.35024	1472.95	1.24
298.15	0.45766	1469.46	1.25
298.15	0.55297	1466.37	1.27
298.15	0.64516	1463.95	1.28
298.15	0.72159	1461.95	1.29
303.15	0.10215	1465.02	1.21
303.15	0.18727	1461.81	1.22
303.15	0.28834	1457.85	1.23
303.15	0.35024	1456.25	1.23
303.15	0.45766	1452.66	1.25
303.15	0.55297	1449.16	1.26
303.15	0.64516	1446.67	1.28
303.15	0.72159	1444.62	1.29
308.15	0.10215	1448.15	1.21
308.15	0.18727	1444.91	1.21
308.15	0.28834	1441.22	1.22
308.15	0.35024	1439.3	1.23
308.15	0.45766	1435.65	1.25
308.15	0.55297	1432.05	1.26
308.15	0.64516	1429.5	1.27
308.15	0.72159	1427.4	1.29
313.15	0.10215	1431.37	1.2
313.15	0.18727	1428.11	1.21
313.15	0.28834	1424.41	1.22
313.15	0.35024	1422.45	1.23
313.15	0.45766	1418.73	1.24
313.15	0.55297	1415.05	1.26
313.15	0.64516	1412.45	1.27
313.15	0.72159	1410.31	1.28
318.15	0.10215	1414.65	1.2
318.15	0.18727	1411.38	1.21
318.15	0.28834	1407.66	1.22
318.15	0.35024	1405.67	1.23
318.15	0.45766	1401.92	1.24
318.15	0.55297	1398.18	1.25
318.15	0.64516	1395.52	1.27
318.15	0.72159	1393.34	1.28
323.15	0.10215	1398.03	1.2
323.15	0.18727	1394.72	1.2
323.15	0.28834	1390.97	1.21
323.15	0.35024	1388.95	1.22
323.15	0.45766	1384.78	1.24
323.15	0.55297	1381.4	1.25
323.15	0.64516	1378.72	1.26
323.15	0.72159	1376.52	1.28
328.15	0.10215	1381.47	1.19
328.15	0.18727	1378.16	1.2
328.15	0.28834	1374.39	1.21
328.15	0.35024	1372.36	1.22
328.15	0.45766	1368.11	1.23
328.15	0.55297	1364.72	1.25
328.15	0.64516	1362.01	1.26
328.15	0.72159	1359.79	1.27
293.15	0	1502.01	1.21
298.15	0	1485.1	1.21
303.15	0	1468.15	1.2
308.15	0	1451.28	1.2
313.15	0	1434.5	1.2
318.15	0	1417.78	1.19
323.15	0	1401.17	1.19
328.15	0	1384.6	1.19

System: benzyldimethylammonium hexanoate + dimethyl sulfoxide; phases: Liquid
Fixed: Pressure, kPa = 101.3
Property: Mass density, kg/m3 (Liquid); method: Vibrating tube method
Temperature, K	Molality, mol/kg of benzyldimethylammonium hexanoate	Mass density, kg/m3	uncertainty
293.15	0.08608	1095.927	0.123
293.15	0.17468	1091.657	0.124
293.15	0.23738	1088.564	0.126
293.15	0.30986	1085.271	0.129
293.15	0.37187	1082.73	0.132
293.15	0.46497	1078.893	0.136
293.15	0.53368	1076.24	0.14
293.15	0.61853	1073.157	0.145
298.15	0.08608	1090.937	0.122
298.15	0.17468	1086.676	0.123
298.15	0.23738	1083.598	0.125
298.15	0.30986	1080.31	0.128
298.15	0.37187	1077.777	0.13
298.15	0.46497	1073.947	0.135
298.15	0.53368	1071.299	0.139
298.15	0.61853	1068.223	0.144
303.15	0.08608	1085.943	0.121
303.15	0.17468	1081.699	0.122
303.15	0.23738	1078.637	0.124
303.15	0.30986	1075.362	0.127
303.15	0.37187	1072.835	0.129
303.15	0.46497	1069.015	0.133
303.15	0.53368	1066.376	0.137
303.15	0.61853	1063.305	0.142
308.15	0.08608	1080.95	0.12
308.15	0.17468	1076.722	0.121
308.15	0.23738	1073.672	0.123
308.15	0.30986	1070.41	0.125
308.15	0.37187	1067.893	0.128
308.15	0.46497	1064.084	0.132
308.15	0.53368	1061.45	0.136
308.15	0.61853	1058.386	0.141
313.15	0.08608	1075.953	0.119
313.15	0.17468	1071.744	0.12
313.15	0.23738	1068.706	0.122
313.15	0.30986	1065.458	0.124
313.15	0.37187	1062.949	0.127
313.15	0.46497	1059.151	0.131
313.15	0.53368	1056.526	0.134
313.15	0.61853	1053.471	0.139
318.15	0.08608	1070.958	0.118
318.15	0.17468	1066.767	0.119
318.15	0.23738	1063.744	0.121
318.15	0.30986	1060.508	0.123
318.15	0.37187	1058.007	0.125
318.15	0.46497	1054.222	0.13
318.15	0.53368	1051.606	0.133
318.15	0.61853	1048.559	0.138
323.15	0.08608	1065.961	0.117
323.15	0.17468	1061.79	0.118
323.15	0.23738	1058.781	0.12
323.15	0.30986	1055.558	0.122
323.15	0.37187	1053.069	0.124
323.15	0.46497	1049.296	0.128
323.15	0.53368	1046.689	0.132
323.15	0.61853	1043.652	0.136
328.15	0.08608	1060.966	0.116
328.15	0.17468	1056.813	0.118
328.15	0.23738	1053.817	0.119
328.15	0.30986	1050.609	0.121
328.15	0.37187	1048.129	0.123
328.15	0.46497	1044.37	0.127
328.15	0.53368	1041.774	0.13
328.15	0.61853	1038.747	0.135
293.15	0	1100.407	0.122
298.15	0	1095.387	0.121
303.15	0	1090.367	0.12
308.15	0	1085.348	0.119
313.15	0	1080.327	0.118
318.15	0	1075.307	0.117
323.15	0	1070.285	0.116
328.15	0	1065.262	0.115

System: benzyldimethylammonium hexanoate + dimethyl sulfoxide; phases: Liquid
Fixed: Pressure, kPa = 101.3
Fixed: Frequency, MHz = 3
Property: Speed of sound, m/s (Liquid); method: Sing-around technique in a fixed-path interferometer
Temperature, K	Molality, mol/kg of benzyldimethylammonium hexanoate	Speed of sound, m/s	uncertainty
293.15	0.08608	1498.02	1.22
293.15	0.17468	1493.89	1.23
293.15	0.23738	1490.86	1.23
293.15	0.30986	1487.91	1.24
293.15	0.37187	1485.35	1.25
293.15	0.46497	1481.76	1.27
293.15	0.53368	1479.26	1.28
293.15	0.61853	1476.12	1.3
298.15	0.08608	1481.42	1.21
298.15	0.17468	1476.97	1.22
298.15	0.23738	1474.22	1.23
298.15	0.30986	1471.1	1.24
298.15	0.37187	1468.34	1.25
298.15	0.46497	1464.67	1.27
298.15	0.53368	1462.32	1.28
298.15	0.61853	1459.01	1.29
303.15	0.08608	1464.58	1.21
303.15	0.17468	1460.02	1.22
303.15	0.23738	1457.37	1.23
303.15	0.30986	1454.54	1.24
303.15	0.37187	1451.71	1.25
303.15	0.46497	1447.98	1.26
303.15	0.53368	1445.7	1.28
303.15	0.61853	1442.25	1.29
308.15	0.08608	1447.73	1.21
308.15	0.17468	1443.15	1.22
308.15	0.23738	1440.49	1.22
308.15	0.30986	1437.74	1.23
308.15	0.37187	1434.83	1.24
308.15	0.46497	1431.05	1.26
308.15	0.53368	1428.8	1.27
308.15	0.61853	1425.28	1.29
313.15	0.08608	1430.97	1.2
313.15	0.17468	1426.71	1.21
313.15	0.23738	1423.7	1.22
313.15	0.30986	1420.98	1.23
313.15	0.37187	1418.01	1.24
313.15	0.46497	1414.2	1.26
313.15	0.53368	1411.94	1.27
313.15	0.61853	1408.39	1.29
318.15	0.08608	1414.29	1.2
318.15	0.17468	1410.38	1.21
318.15	0.23738	1407.04	1.22
318.15	0.30986	1404.4	1.23
318.15	0.37187	1401.29	1.24
318.15	0.46497	1397.45	1.25
318.15	0.53368	1395.18	1.27
318.15	0.61853	1391.59	1.28
323.15	0.08608	1397.69	1.2
323.15	0.17468	1393.84	1.21
323.15	0.23738	1390.44	1.21
323.15	0.30986	1387.83	1.22
323.15	0.37187	1384.64	1.23
323.15	0.46497	1380.78	1.25
323.15	0.53368	1378.52	1.26
323.15	0.61853	1374.92	1.28
328.15	0.08608	1381.16	1.19
328.15	0.17468	1377.3	1.2
328.15	0.23738	1373.91	1.21
328.15	0.30986	1371.29	1.22
328.15	0.37187	1368.08	1.23
328.15	0.46497	1364.2	1.25
328.15	0.53368	1361.91	1.26
328.15	0.61853	1358.33	1.28
293.15	0	1502.01	1.21
298.15	0	1485.1	1.21
303.15	0	1468.15	1.2
308.15	0	1451.28	1.2
313.15	0	1434.5	1.2
318.15	0	1417.78	1.19
323.15	0	1401.17	1.19
328.15	0	1384.6	1.19
