Measured thermophysical data. (Liquid + liquid) equilibria of (water + 1-propanol + solvent) at T = 298.2K
Source: Fluid Phase Equilib., 2006, 10.1016/j.fluid.2005.11.024
Compound 1: propan-1-ol, C3H8O, InChI=1S/C3H8O/c1-2-3-4/h4H,2-3H2,1H3
Compound 2: ethyl acetate, C4H8O2, InChI=1S/C4H8O2/c1-3-6-4(2)5/h3H2,1-2H3
Compound 3: water, H2O, InChI=1S/H2O/h1H2
Compound 4: propyl ethanoate, C5H10O2, InChI=1S/C5H10O2/c1-3-4-7-5(2)6/h3-4H2,1-2H3
Compound 5: methyl ethanoate, C3H6O2, InChI=1S/C3H6O2/c1-3(4)5-2/h1-2H3

System: propan-1-ol + ethyl acetate + water; phases: Liquid mixture 1, Liquid mixture 2
Fixed: Pressure, kPa = 101.32
Fixed: Temperature, K = 298.2
Property: Mole fraction of propan-1-ol (Liquid mixture 1); method: CHROM:UFactor:8
Property: Mole fraction of propan-1-ol (Liquid mixture 2); method: CHROM:UFactor:8
Property: Mole fraction of water (Liquid mixture 2); method: CHROM:UFactor:8
Mole fraction of water	Mole fraction of propan-1-ol	uncertainty	Mole fraction of propan-1-ol	uncertainty	Mole fraction of water	uncertainty
0.9701	0.0136	0.0009	0.0949	0.0029	0.271	
0.9579	0.0228	0.0014	0.1451	0.0045	0.4439	
0.948	0.0327	0.002	0.1679	0.0052	0.5641	
0.9362	0.0419	0.0026	0.1684	0.0052	0.6361	
0.9073	0.0608	0.0038	0.1397	0.0043	0.7471	
0.9824	0	0.0001	0	0.0001	0.1323	

System: propan-1-ol + propyl ethanoate + water; phases: Liquid mixture 2, Liquid mixture 1
Fixed: Temperature, K = 298.2
Fixed: Pressure, kPa = 101.32
Property: Mole fraction of propan-1-ol (Liquid mixture 2); method: CHROM:UFactor:4
Property: Mole fraction of propan-1-ol (Liquid mixture 1); method: CHROM:UFactor:4
Property: Mole fraction of water (Liquid mixture 1); method: CHROM:UFactor:4
Mole fraction of water	Mole fraction of propan-1-ol	uncertainty	Mole fraction of propan-1-ol	uncertainty	Mole fraction of water	uncertainty
0.2412	0.1933	0.006	0.0219	0.0007	0.9741	
0.3225	0.2326	0.0072	0.0291	0.0009	0.9671	
0.4251	0.2627	0.0081	0.036	0.0011	0.9599	
0.4759	0.2786	0.0086	0.0431	0.0013	0.9521	
0.5398	0.2835	0.0088	0.0455	0.0014	0.9497	
0.5562	0.2863	0.0089	0.0497	0.0016	0.9452	
0.5999	0.2828	0.0088	0.0634	0.002	0.93	
0.1445	0	0.0001	0	0.0001	0.9959	

System: propan-1-ol + methyl ethanoate + water; phases: Liquid mixture 2, Liquid mixture 1
Fixed: Temperature, K = 298.2
Fixed: Pressure, kPa = 101.32
Property: Mole fraction of propan-1-ol (Liquid mixture 2); method: CHROM:UFactor:4
Property: Mole fraction of propan-1-ol (Liquid mixture 1); method: CHROM:UFactor:4
Property: Mole fraction of water (Liquid mixture 1); method: CHROM:UFactor:4
Mole fraction of water	Mole fraction of propan-1-ol	uncertainty	Mole fraction of propan-1-ol	uncertainty	Mole fraction of water	uncertainty
0.5463	0.0498	0.0015	0.0183	0.0006	0.8813	
0.4005	0.0425	0.0013	0.0116	0.0004	0.9051	
0.6568	0.05	0.0016	0.0248	0.0008	0.8507	
0.2636	0	0.0001	0	0.0001	0.93	

System: ethyl acetate + water; phases: Liquid mixture 1, Liquid mixture 2
Property: Mole fraction of water (Liquid mixture 1); method: CHROM:UFactor:8
Pressure, kPa	Temperature, K	Mole fraction of water	uncertainty
101.32	298.2	0.9824	

System: ethyl acetate + water; phases: Liquid mixture 2, Liquid mixture 1
Property: Mole fraction of water (Liquid mixture 2); method: CHROM:UFactor:4
Temperature, K	Pressure, kPa	Mole fraction of water	uncertainty
298.2	101.32	0.1323	

System: propyl ethanoate + water; phases: Liquid mixture 2, Liquid mixture 1
Property: Mole fraction of water (Liquid mixture 2); method: CHROM:UFactor:4
Temperature, K	Pressure, kPa	Mole fraction of water	uncertainty
298.2	101.32	0.1445	

System: propyl ethanoate + water; phases: Liquid mixture 1, Liquid mixture 2
Property: Mole fraction of water (Liquid mixture 1); method: CHROM:UFactor:4
Pressure, kPa	Temperature, K	Mole fraction of water	uncertainty
101.32	298.2	0.9959	

System: methyl ethanoate + water; phases: Liquid mixture 2, Liquid mixture 1
Property: Mole fraction of water (Liquid mixture 2); method: CHROM:UFactor:4
Temperature, K	Pressure, kPa	Mole fraction of water	uncertainty
298.2	101.32	0.2636	

System: methyl ethanoate + water; phases: Liquid mixture 1, Liquid mixture 2
Property: Mole fraction of water (Liquid mixture 1); method: CHROM:UFactor:4
Temperature, K	Pressure, kPa	Mole fraction of water	uncertainty
298.2	101.32	0.93	
