Measured thermophysical data. Liquid-liquid equilibrium data for ternary aqueous mixtures  containing 1-pentanol and 2-methyl-1-propanol at (298.15, 323.15,  and 348.15) K
Source: Fluid Phase Equilib., 2013, 10.1016/j.fluid.2013.03.029
Compound 1: water, H2O, InChI=1S/H2O/h1H2, purity 99.9%
Compound 2: ethanol, C2H6O, InChI=1S/C2H6O/c1-2-3/h3H,2H2,1H3, purity 99.7%
Compound 3: 2-methyl-1-propanol, C4H10O, InChI=1S/C4H10O/c1-4(2)3-5/h4-5H,3H2,1-2H3, purity 99.5%
Compound 4: pentan-1-ol, C5H12O, InChI=1S/C5H12O/c1-2-3-4-5-6/h6H,2-5H2,1H3, purity 99%

System: water; phases: Liquid, Gas
Property: Normal boiling temperature, K (Liquid); method: Ebulliometric method (Recirculating still)
Normal boiling temperature, K	uncertainty
373.2	0.5

System: water; phases: Liquid
Property: Mass density, kg/m3 (Liquid); method: Vibrating tube method
Temperature, K	Pressure, kPa	Mass density, kg/m3	uncertainty
293.15	101.325	998.4	1

System: water; phases: Liquid
Property: Refractive index (Na D-line) (Liquid); method: Standard Abbe refractometry
Temperature, K	Pressure, kPa	Refractive index (Na D-line)	uncertainty
293.15	101.325	1.3328	0.0008

System: ethanol; phases: Liquid, Gas
Property: Normal boiling temperature, K (Liquid); method: Ebulliometric method (Recirculating still)
Normal boiling temperature, K	uncertainty
351.55	0.5

System: ethanol; phases: Liquid
Property: Mass density, kg/m3 (Liquid); method: Vibrating tube method
Temperature, K	Pressure, kPa	Mass density, kg/m3	uncertainty
293.15	101.325	790	1

System: ethanol; phases: Liquid
Property: Refractive index (Na D-line) (Liquid); method: Standard Abbe refractometry
Temperature, K	Pressure, kPa	Refractive index (Na D-line)	uncertainty
293.15	101.325	1.3616	0.0008

System: 2-methyl-1-propanol; phases: Liquid, Gas
Property: Normal boiling temperature, K (Liquid); method: Ebulliometric method (Recirculating still)
Normal boiling temperature, K	uncertainty
380.15	0.5

System: 2-methyl-1-propanol; phases: Liquid
Property: Mass density, kg/m3 (Liquid); method: Vibrating tube method
Temperature, K	Pressure, kPa	Mass density, kg/m3	uncertainty
293.15	101.325	801.7	1

System: 2-methyl-1-propanol; phases: Liquid
Property: Refractive index (Na D-line) (Liquid); method: Standard Abbe refractometry
Temperature, K	Pressure, kPa	Refractive index (Na D-line)	uncertainty
293.15	101.325	1.3955	0.0008

System: pentan-1-ol; phases: Liquid, Gas
Property: Normal boiling temperature, K (Liquid); method: Ebulliometric method (Recirculating still)
Normal boiling temperature, K	uncertainty
410.95	0.51

System: pentan-1-ol; phases: Liquid
Property: Mass density, kg/m3 (Liquid); method: Vibrating tube method
Temperature, K	Pressure, kPa	Mass density, kg/m3	uncertainty
293.15	101.325	813.7	1

System: pentan-1-ol; phases: Liquid
Property: Refractive index (Na D-line) (Liquid); method: Standard Abbe refractometry
Temperature, K	Pressure, kPa	Refractive index (Na D-line)	uncertainty
293.15	101.325	1.4087	0.0008

System: pentan-1-ol + 2-methyl-1-propanol + water; phases: Liquid mixture 2, Liquid mixture 1
Fixed: Pressure, kPa = 101
Property: Mole fraction of pentan-1-ol (Liquid mixture 2); method: Chromatography
Property: Mole fraction of pentan-1-ol (Liquid mixture 1); method: Chromatography
Property: Mole fraction of 2-methyl-1-propanol (Liquid mixture 1); method: Chromatography
Temperature, K	Mole fraction of 2-methyl-1-propanol	Mole fraction of pentan-1-ol	uncertainty	Mole fraction of pentan-1-ol	uncertainty	Mole fraction of 2-methyl-1-propanol	uncertainty
298.15	0.0007	0.0014	0.0014	0.5231	0.0043	0.0542	
298.15	0.0015	0.0012	0.0012	0.4728	0.0043	0.1077	
298.15	0.0024	0.0011	0.0011	0.4222	0.0041	0.1601	
298.15	0.0033	0.001	0.001	0.3716	0.0039	0.2111	
298.15	0.0042	0.0009	0.0009	0.3211	0.0037	0.2604	
298.15	0.0051	0.0008	0.0008	0.2711	0.0035	0.3077	
298.15	0.006	0.0007	0.0007	0.2218	0.0034	0.3525	
298.15	0.0069	0.0006	0.0006	0.1737	0.0033	0.3945	
298.15	0.0082	0.0004	0.0004	0.1001	0.0033	0.4552	
298.15	0.0092	0.0002	0.0002	0.0483	0.0033	0.4954	
323.15	0.0011	0.0023	0.002	0.5329	0.0043	0.0545	
323.15	0.0023	0.0022	0.002	0.4802	0.0044	0.1079	
323.15	0.0035	0.002	0.002	0.4277	0.0042	0.16	
323.15	0.0049	0.0018	0.0018	0.3755	0.0039	0.2105	
323.15	0.0062	0.0016	0.0016	0.3239	0.0037	0.2592	
323.15	0.0076	0.0015	0.0015	0.2729	0.0036	0.3057	
323.15	0.0089	0.0013	0.0013	0.223	0.0034	0.3498	
323.15	0.0103	0.0011	0.0011	0.1745	0.0034	0.3911	
323.15	0.0124	0.0007	0.0007	0.1004	0.0033	0.4508	
323.15	0.0141	0.0004	0.0004	0.0484	0.0034	0.4902	
348.15	0.0016	0.0038	0.002	0.5378	0.0043	0.0543	
348.15	0.0032	0.0035	0.002	0.4835	0.0045	0.1071	
348.15	0.0049	0.0033	0.002	0.4297	0.0042	0.1585	
348.15	0.0067	0.003	0.002	0.3766	0.004	0.2081	
348.15	0.0086	0.0027	0.002	0.3243	0.0038	0.2558	
348.15	0.0105	0.0025	0.002	0.273	0.0036	0.3013	
348.15	0.0125	0.0021	0.002	0.2229	0.0035	0.3443	
348.15	0.0145	0.0018	0.0018	0.1742	0.0034	0.3846	
348.15	0.0179	0.0012	0.0012	0.1001	0.0034	0.4424	
348.15	0.0207	0.0007	0.0007	0.0482	0.0034	0.48	
