Measured thermophysical data. Liquid liquid equilibria for the system (water + carboxylic acid + chloroform): Thermodynamic modeling
Source: Fluid Phase Equilib., 2006, 10.1016/j.fluid.2006.02.017
Compound 1: trichloromethane, CHCl3, InChI=1S/CHCl3/c2-1(3)4/h1H
Compound 2: acetic acid, C2H4O2, InChI=1S/C2H4O2/c1-2(3)4/h1H3,(H,3,4)
Compound 3: 2-oxopropanoic acid, C3H4O3, InChI=1S/C3H4O3/c1-2(4)3(5)6/h1H3,(H,5,6)
Compound 4: pentanoic acid, C5H10O2, InChI=1S/C5H10O2/c1-2-3-4-5(6)7/h2-4H2,1H3,(H,6,7)
Compound 5: water, H2O, InChI=1S/H2O/h1H2, purity 99.5%

System: trichloromethane + water; phases: Liquid mixture 1, Liquid mixture 2
Property: Mole fraction of water (Liquid mixture 1); method: Chromatography
Pressure, kPa	Temperature, K	Mole fraction of water	uncertainty
101.3	293.15	0.9989	0.0011

System: trichloromethane + water; phases: Liquid mixture 2, Liquid mixture 1
Property: Mole fraction of water (Liquid mixture 2); method: Chromatography
Temperature, K	Pressure, kPa	Mole fraction of water	uncertainty
293.15	101.3	0.0092	0.0092

System: acetic acid + trichloromethane + water; phases: Liquid mixture 1, Liquid mixture 2
Fixed: Temperature, K = 293.15
Fixed: Pressure, kPa = 101
Property: Mole fraction of acetic acid (Liquid mixture 1); method: Chromatography
Property: Mole fraction of water (Liquid mixture 2); method: Chromatography
Property: Mole fraction of acetic acid (Liquid mixture 2); method: Chromatography
Mole fraction of water	Mole fraction of acetic acid	uncertainty	Mole fraction of water	uncertainty	Mole fraction of acetic acid	uncertainty
0.9989	0	0.0001	0.0092	0.0092	0	
0.9691	0.0296	0.0028	0.0286	0.01	0.0332	
0.9277	0.0707	0.0029	0.0367	0.01	0.0956	
0.8792	0.1187	0.0029	0.0531	0.01	0.1711	
0.8276	0.1692	0.003	0.077	0.01	0.2476	
0.7571	0.2381	0.0033	0.1041	0.01	0.3305	

System: trichloromethane + 2-oxopropanoic acid + water; phases: Liquid mixture 1, Liquid mixture 2
Fixed: Temperature, K = 293.15
Fixed: Pressure, kPa = 101
Property: Mole fraction of 2-oxopropanoic acid (Liquid mixture 1); method: Chromatography
Property: Mole fraction of water (Liquid mixture 2); method: Chromatography
Property: Mole fraction of 2-oxopropanoic acid (Liquid mixture 2); method: Chromatography
Mole fraction of water	Mole fraction of 2-oxopropanoic acid	uncertainty	Mole fraction of water	uncertainty	Mole fraction of 2-oxopropanoic acid	uncertainty
0.9989	0	0.0001	0.0092	0.0092	0	
0.9593	0.0388	0.0028	0.0547	0.0201	0.0235	
0.9197	0.0776	0.0029	0.064	0.02	0.0667	
0.8807	0.1157	0.0029	0.0925	0.02	0.1063	
0.8071	0.1873	0.0031	0.1051	0.02	0.1546	
0.6887	0.2997	0.0035	0.1327	0.0201	0.2062	

System: trichloromethane + pentanoic acid + water; phases: Liquid mixture 1, Liquid mixture 2
Fixed: Temperature, K = 293.15
Fixed: Pressure, kPa = 101
Property: Mole fraction of pentanoic acid (Liquid mixture 1); method: Chromatography
Property: Mole fraction of water (Liquid mixture 2); method: Chromatography
Property: Mole fraction of pentanoic acid (Liquid mixture 2); method: Chromatography
Mole fraction of water	Mole fraction of pentanoic acid	uncertainty	Mole fraction of water	uncertainty	Mole fraction of pentanoic acid	uncertainty
0.9989	0	0.0001	0.0092	0.0092	0	
0.9966	0.0015	0.0015	0.0692	0.0201	0.0701	
0.9948	0.0032	0.002	0.1469	0.02	0.1828	
0.9929	0.005	0.002	0.1955	0.0201	0.3327	
0.9913	0.0064	0.002	0.2499	0.0201	0.4663	
0.99	0.0076	0.002	0.2762	0.0201	0.5733	
