Measured thermophysical data. Osmotic coefficients of some imidazolium based ionic liquids in water and acetonitrile at temperature 318.15K
Source: Fluid Phase Equilib., 2007, 10.1016/j.fluid.2007.03.019
Compound 1: 1-butyl-3-methylimidazolium bromide, C8H15BrN2, InChI=1S/C8H15N2.BrH/c1-3-4-5-10-7-6-9(2)8-10;/h6-8H,3-5H2,1-2H3;1H/q+1;/p-1, purity 98%
Compound 2: 1-butyl-3-methylimidazolium tetrafluoroborate, C8H15BF4N2, InChI=1S/C8H15N2.BF4/c1-3-4-5-10-7-6-9(2)8-10;2-1(3,4)5/h6-8H,3-5H2,1-2H3;/q+1;-1, purity 98%
Compound 3: 1-butyl-3-methylimidazolium hexafluorophosphate, C8H15F6N2P, InChI=1S/C8H15N2.F6P/c1-3-4-5-10-7-6-9(2)8-10;1-7(2,3,4,5)6/h6-8H,3-5H2,1-2H3;/q+1;-1, purity 98%
Compound 4: water, H2O, InChI=1S/H2O/h1H2
Compound 5: acetonitrile, C2H3N, InChI=1S/C2H3N/c1-2-3/h1H3, purity 99.9%

System: water + 1-butyl-3-methylimidazolium bromide; phases: Liquid
Fixed: Temperature, K = 318.15
Fixed: Pressure, kPa = 101
Property: Osmotic coefficient (Liquid); method: vapor pressure osmometry
Molality, mol/kg of 1-butyl-3-methylimidazolium bromide	Osmotic coefficient	uncertainty
0.022	0.944	0.0201
0.0461	0.9262	0.0202
0.0726	0.8939	0.0204
0.1241	0.8549	0.0207
0.2702	0.8094	0.0211
0.3522	0.7852	0.0214
0.3994	0.7772	0.0215
0.5204	0.7551	0.0218
0.7354	0.726	0.0222
0.9713	0.7125	0.0224
1.2718	0.7006	0.0226
2.0237	0.6903	0.0228

System: water + 1-butyl-3-methylimidazolium tetrafluoroborate; phases: Liquid
Fixed: Temperature, K = 318.15
Fixed: Pressure, kPa = 101
Property: Osmotic coefficient (Liquid); method: vapor pressure osmometry
Molality, mol/kg of 1-butyl-3-methylimidazolium tetrafluoroborate	Osmotic coefficient	uncertainty
0.0101	1.0058	0.05
0.0355	0.9916	0.05
0.044	0.9274	0.0501
0.0701	0.8867	0.0502
0.0971	0.8642	0.0502
0.152	0.8085	0.0505
0.1977	0.793	0.051
0.2891	0.7394	0.0508
0.3968	0.6722	0.0513
0.4678	0.657	0.051
0.5632	0.6105	0.0519
0.799	0.5325	0.0527
1.0232	0.4731	0.0534
1.4685	0.372	0.055
2.4171	0.2574	0.0565

System: acetonitrile + 1-butyl-3-methylimidazolium hexafluorophosphate; phases: Liquid
Fixed: Temperature, K = 318.15
Fixed: Pressure, kPa = 101
Property: Osmotic coefficient (Liquid); method: osmometer
Molality, mol/kg of 1-butyl-3-methylimidazolium hexafluorophosphate	Osmotic coefficient	uncertainty
0.0116	0.7601	0.0274
0.019	0.6364	0.0274
0.0321	0.4771	0.0296
0.0366	0.4358	0.029
0.0544	0.3229	0.0316
0.0691	0.278	0.0324
0.0918	0.2867	0.0322
0.1015	0.3139	0.0316
0.1285	0.4155	0.0291
0.1496	0.5146	0.0269
0.1789	0.6924	0.0236
0.2032	0.857	0.0217

System: acetonitrile + 1-butyl-3-methylimidazolium tetrafluoroborate; phases: Liquid
Fixed: Temperature, K = 318.15
Fixed: Pressure, kPa = 101
Property: Osmotic coefficient (Liquid); method: osmometer
Molality, mol/kg of 1-butyl-3-methylimidazolium tetrafluoroborate	Osmotic coefficient	uncertainty
0.0093	0.9062	0.031
0.0203	0.6481	0.0295
0.0341	0.4619	0.0287
0.0631	0.2932	0.0323
0.0795	0.2729	0.0326
0.1043	0.3139	0.0315
0.1163	0.3445	0.0308
0.1359	0.412	0.0291
0.1472	0.4621	0.0281
0.1631	0.5535	0.0261
0.1791	0.646	0.0246
0.2091	0.872	0.0218
