Measured thermophysical data. Measurements of solid solubilities and volumetric properties of naphthalene + carbon dioxide mixtures with a new assembly taking advantage of a vibrating tube densitometer
Source: Fluid Phase Equilib., 2005, 10.1016/j.fluid.2005.06.010
Compound 1: naphthalene, C10H8, InChI=1S/C10H8/c1-2-6-10-8-4-3-7-9(10)5-1/h1-8H, purity 99%
Compound 2: carbon dioxide, CO2, InChI=1S/CO2/c2-1-3, purity 99.995%

System: naphthalene + carbon dioxide; phases: Fluid (supercritical or subcritical phases), Crystal
Property: Mass density, kg/m3 (Fluid (supercritical or subcritical phases)); method: VIBTUB:UFactor:32
Temperature, K	Pressure, kPa	Mass density, kg/m3	uncertainty
313.11	8747	531.42	14.17
313.11	8983	627.46	12.45
313.11	12486	783.64	7.07
313.13	10564	726.54	8.03
318.03	13470	763.8	7.88
318.07	18008	829.61	6.91
318.08	12165	719.15	8.76
318.11	9524	513.41	13.68
318.11	9601	505.2	13.12
318.11	10763	652.77	10.11
318.13	9447	467.84	16.1
318.13	15435	798.75	7.35
323.03	14061	735.87	8.89
323.07	10356	477.23	13.31
323.07	11189	594.87	11.82
323.07	12157	663.68	10.32
323.07	15260	764.21	8.39
323.08	12879	702.14	9.47
323.13	10131	441.7	12.37
327.94	14128	700.18	9.97
327.99	11253	476.13	13.73
327.99	18955	812.97	7.72
328	12017	567.42	12.93
328	12987	652.9	13.08
328	13018	638.84	13.43
328	13916	697.69	10.01
328.08	11635	518.62	14.12
328.1	10952	442.37	12.68

System: naphthalene + carbon dioxide; phases: Fluid (supercritical or subcritical phases), Crystal
Property: Mole fraction of naphthalene (Fluid (supercritical or subcritical phases)); method: Phase equilibration
Temperature, K	Pressure, kPa	Mole fraction of naphthalene	uncertainty
317.77	9989	0.0103	0.0017
317.77	10416	0.0137	0.0022
317.77	10431	0.013	0.0021
317.77	12320	0.0191	0.0031
317.77	13033	0.0198	0.0032
317.77	14506	0.0205	0.0033
317.77	14707	0.021	0.0034
317.77	15573	0.0211	0.0034
317.77	16878	0.0226	0.0036
317.77	19348	0.0237	0.0038
317.77	20510	0.0238	0.0038
322.67	10934	0.0103	0.0017
322.67	11346	0.013	0.0021
322.67	11622	0.0137	0.0022
322.67	12019	0.0191	0.0031
322.67	12398	0.0205	0.0033
322.67	12711	0.0226	0.0036
322.67	13168	0.0238	0.0038
322.71	19516	0.0294	0.0047
327.56	11831	0.0103	0.0017
327.56	12303	0.013	0.0021
327.56	12317	0.0137	0.0022
327.56	12811	0.0191	0.0031
327.56	13017	0.0199	0.0032
327.56	13278	0.0226	0.0036
327.56	13832	0.0238	0.0038
327.64	15494	0.0294	0.0047

System: naphthalene + carbon dioxide; phases: Fluid (supercritical or subcritical phases), Crystal
Property: Mole fraction of naphthalene (Fluid (supercritical or subcritical phases)); method: Phase equilibration
Temperature, K	Pressure, kPa	Mole fraction of naphthalene	uncertainty
313.11	8747	0.0049	0.0009
313.11	8983	0.0093	0.0015
313.11	12486	0.0173	0.0028
313.13	10564	0.0144	0.0023
318.03	13470	0.0198	0.0032
318.07	18008	0.0235	0.0038
318.08	12165	0.0144	0.0023
318.11	9524	0.0065	0.0011
318.11	9601	0.0049	0.0009
318.11	10763	0.0093	0.0015
318.13	9447	0.0038	0.0009
318.13	15435	0.0214	0.0034
323.03	14061	0.0198	0.0032
323.07	10356	0.0049	0.0008
323.07	11189	0.0093	0.0015
323.07	12157	0.0144	0.0023
323.07	15260	0.0235	0.0038
323.08	12879	0.0173	0.0028
323.13	10131	0.0038	0.0006
327.94	14128	0.0198	0.0032
327.99	11253	0.0049	0.0008
327.99	18955	0.0394	0.0063
328	12017	0.0093	0.0015
328	12987	0.0173	0.0032
328	13018	0.0144	0.0028
328	13916	0.0235	0.0038
328.08	11635	0.0065	0.001
328.1	10952	0.0038	0.0006

System: naphthalene + carbon dioxide; phases: Fluid (supercritical or subcritical phases)
Property: Mass density, kg/m3 (Fluid (supercritical or subcritical phases)); method: Vibrating tube method
Mole fraction of naphthalene	Temperature, K	Pressure, kPa	Mass density, kg/m3	uncertainty
0.0038	318.13	9447	467.84	3.52
0.0038	318.13	9511	479.86	3.52
0.0038	318.13	9624	500.05	3.49
0.0038	318.13	9723	516.4	3.42
0.0038	318.13	9815	530.29	2.31
0.0038	318.13	10026	558.2	2.13
0.0038	318.13	11028	638.56	1.43
0.0038	318.13	12034	682.9	1.07
0.0038	318.13	13013	712.68	0.89
0.0038	318.13	14016	736.26	0.79
0.0038	318.13	15020	755.47	0.73
0.0038	318.13	16002	771.53	0.68
0.0038	318.13	17033	786.19	0.65
0.0038	318.13	18021	798.72	0.62
0.0038	318.13	19038	810.39	0.6
0.0038	318.13	20002	820.43	0.59
0.0038	318.13	21027	830.26	0.58
0.0038	318.13	22015	839.08	0.56
0.0038	318.13	23014	847.4	0.55
0.0038	318.13	24022	855.31	0.55
0.0038	318.13	25018	862.63	0.54
0.0038	323.13	10131	441.7	2.84
0.0038	323.13	10204	452.21	2.7
0.0038	323.13	10370	473.73	2.86
0.0038	323.13	10546	495.19	2.11
0.0038	323.13	10713	513.93	2.05
0.0038	323.13	10899	532.86	1.98
0.0038	323.13	11125	553.43	1.83
0.0038	323.13	11428	577.02	1.67
0.0038	323.13	11636	591	1.37
0.0038	323.13	11975	610.86	1.34
0.0038	323.13	12255	625.25	1.25
0.0038	323.13	12628	641.9	1.08
0.0038	323.13	13011	656.88	1.05
0.0038	323.13	13569	675.56	0.92
0.0038	323.13	14021	688.77	0.88
0.0038	323.13	15003	713.06	0.8
0.0038	323.13	16030	733.89	0.74
0.0038	323.13	17020	750.95	0.69
0.0038	323.13	18020	766.06	0.66
0.0038	323.13	19025	779.54	0.64
0.0038	323.13	20018	791.52	0.61
0.0038	323.13	21018	802.54	0.6
0.0038	323.13	22016	812.65	0.58
0.0038	323.13	23026	822.13	0.57
0.0038	323.13	24020	830.83	0.56
0.0038	323.13	25003	838.9	0.56
0.0038	328.1	10952	442.37	2.04
0.0038	328.1	11010	448.13	2.07
0.0038	328.1	11054	452.8	2.01
0.0038	328.1	11219	468.8	1.99
0.0038	328.1	11363	482.43	1.89
0.0038	328.1	11517	495.77	1.85
0.0038	328.1	11649	507.25	1.9
0.0038	328.1	11832	521.74	1.7
0.0038	328.1	11972	532.31	1.64
0.0038	328.1	12088	540.71	1.51
0.0038	328.1	12322	556.51	1.48
0.0038	328.1	12538	569.79	1.36
0.0038	328.1	12706	579.47	1.34
0.0038	328.1	12941	591.84	1.22
0.0038	328.1	13117	600.49	1.2
0.0038	328.1	13376	612.23	1.1
0.0038	328.1	13618	622.37	1.08
0.0038	328.1	13925	634.21	1.02
0.0038	328.1	14240	645.33	1
0.0038	328.1	14511	654.12	0.97
0.0038	328.1	14850	664.35	0.89
0.0038	328.1	15299	676.78	0.87
0.0038	328.1	15816	689.62	0.8
0.0038	328.1	16314	700.83	0.78
0.0038	328.1	16845	711.78	0.74
0.0038	328.1	17403	722.35	0.72
0.0038	328.1	18014	732.96	0.7
0.0038	328.1	18738	744.46	0.67
0.0038	328.1	19499	755.49	0.66
0.0038	328.1	20377	767.2	0.64
0.0038	328.1	21134	776.5	0.62
0.0038	328.1	22132	787.85	0.61
0.0038	328.1	23017	797.14	0.59
0.0038	328.1	24029	806.95	0.58
0.0038	328.1	25024	815.98	0.57
0.0038	333.02	12620	505.57	1.46
0.0038	333.02	12810	517.8	1.43
0.0038	333.02	12997	529.34	1.38
0.0038	333.02	13183	540.11	1.32
0.0038	333.02	13406	552.35	1.27
0.0038	333.02	13640	564.51	1.21
0.0038	333.02	13893	576.62	1.15
0.0038	333.02	14134	587.16	1.09
0.0038	333.02	14390	597.75	1.05
0.0038	333.02	14768	612.29	1
0.0038	333.02	15159	625.81	0.95
0.0038	333.02	15535	637.78	0.92
0.0038	333.02	16027	652.03	0.87
0.0038	333.02	16469	663.57	0.83
0.0038	333.02	17018	676.71	0.8
0.0038	333.02	17622	689.78	0.77
0.0038	333.02	18197	701.13	0.74
0.0038	333.02	18835	712.75	0.71
0.0038	333.02	19606	725.55	0.69
0.0038	333.02	20350	736.76	0.67
0.0038	333.02	21107	747.32	0.65
0.0038	333.02	22018	758.99	0.64
0.0038	333.02	22977	770.32	0.62
0.0038	333.02	23992	781.31	0.61
0.0038	333.02	25039	791.79	0.6
0.0049	313.11	8747	531.42	4.63
0.0049	313.11	8855	556.55	3.93
0.0049	313.11	9048	590.85	2.72
0.0049	313.11	9499	639	2.17
0.0049	313.11	9997	670.97	1.55
0.0049	313.11	11012	712.47	1.08
0.0049	313.11	12044	741.27	0.88
0.0049	313.11	12995	761.49	0.78
0.0049	313.11	14017	779.61	0.72
0.0049	313.11	14979	794.2	0.67
0.0049	313.11	16029	808.12	0.64
0.0049	313.11	16999	819.57	0.61
0.0049	313.11	18053	830.86	0.59
0.0049	313.11	19023	840.37	0.58
0.0049	313.11	20008	849.27	0.56
0.0049	313.11	20987	857.52	0.55
0.0049	313.11	21996	865.5	0.54
0.0049	313.11	22977	872.82	0.53
0.0049	313.11	24043	880.36	0.53
0.0049	318.11	9601	505.2	3.07
0.0049	318.11	9697	521.21	3.12
0.0049	318.11	9775	532.95	2.22
0.0049	318.11	9974	559.06	2.13
0.0049	318.11	10523	610.25	1.62
0.0049	318.11	10980	639.71	1.36
0.0049	318.11	12007	684.72	1.06
0.0049	318.11	13024	715.37	0.89
0.0049	318.11	13986	737.86	0.78
0.0049	318.11	14970	756.77	0.72
0.0049	318.11	15977	773.28	0.68
0.0049	318.11	17000	787.78	0.65
0.0049	318.11	17995	800.44	0.62
0.0049	318.11	18977	811.61	0.6
0.0049	318.11	20045	822.71	0.59
0.0049	318.11	20963	831.61	0.57
0.0049	318.11	22004	840.84	0.56
0.0049	318.11	22962	848.85	0.55
0.0049	318.11	24017	857.07	0.54
0.0049	323.07	10356	477.23	2.43
0.0049	323.07	10584	504.85	2.33
0.0049	323.07	11014	548.62	1.73
0.0049	323.07	12054	619.66	1.37
0.0049	323.07	12997	660.38	1.05
0.0049	323.07	14013	692.38	0.9
0.0049	323.07	15034	717.29	0.8
0.0049	323.07	15987	736.48	0.74
0.0049	323.07	17006	753.98	0.7
0.0049	323.07	18016	769.15	0.66
0.0049	323.07	18986	782.09	0.64
0.0049	323.07	20004	794.32	0.62
0.0049	323.07	20987	805.12	0.6
0.0049	323.07	21967	814.97	0.59
0.0049	323.07	23014	824.8	0.58
0.0049	323.07	24015	833.51	0.56
0.0049	327.99	11253	476.13	1.93
0.0049	327.99	11541	502.2	1.81
0.0049	327.99	12000	538.29	1.47
0.0049	327.99	13016	598.5	1.23
0.0049	327.99	14020	639.93	1.02
0.0049	327.99	15009	671.01	0.88
0.0049	327.99	16051	696.96	0.8
0.0049	327.99	16996	716.42	0.74
0.0049	327.99	18024	734.62	0.7
0.0049	327.99	19015	750.05	0.67
0.0049	327.99	20048	764.24	0.65
0.0049	327.99	21025	776.39	0.63
0.0049	327.99	22049	788	0.61
0.0049	327.99	23023	798.13	0.6
0.0049	327.99	24079	808.33	0.59
0.0049	332.95	12055	468.83	1.5
0.0049	332.95	13050	535.86	1.37
0.0049	332.95	14011	584.76	1.13
0.0049	332.95	14979	622.27	0.97
0.0049	332.95	16026	654.27	0.86
0.0049	332.95	17024	679.08	0.79
0.0049	332.95	18017	699.78	0.74
0.0049	332.95	18994	717.43	0.7
0.0049	332.95	20008	733.55	0.67
0.0049	332.95	21018	747.87	0.65
0.0049	332.95	22004	760.51	0.63
0.0049	332.95	23003	772.24	0.61
0.0049	332.95	24035	783.38	0.6
0.0065	318.11	9524	513.41	2.09
0.0065	318.11	9622	527.97	3.09
0.0065	318.11	9722	543.81	2.99
0.0065	318.11	9801	554.22	2.5
0.0065	318.11	9898	566.44	2.44
0.0065	318.11	9975	575.84	2.28
0.0065	318.11	10075	586.3	2.15
0.0065	318.11	10181	596.66	2.14
0.0065	318.11	10293	606.9	2.07
0.0065	318.11	10405	616.37	1.96
0.0065	318.11	10629	632.61	1.83
0.0065	318.11	10830	645.51	1.55
0.0065	318.11	11049	657.73	1.36
0.0065	318.11	11516	679.19	1.23
0.0065	318.11	12072	699.49	1.09
0.0065	318.11	12537	713.68	1
0.0065	318.11	13017	726.51	0.89
0.0065	318.11	14069	749.53	0.8
0.0065	318.11	15010	766.43	0.75
0.0065	318.11	15879	779.94	0.7
0.0065	318.11	16667	790.99	0.68
0.0065	318.11	17635	803.78	0.65
0.0065	318.11	18460	812.58	0.64
0.0065	318.11	19176	820.58	0.62
0.0065	318.11	19904	827.96	0.6
0.0065	318.11	21000	838.23	0.59
0.0065	318.11	21926	846.14	0.57
0.0065	318.11	22968	854.56	0.57
0.0065	318.11	23867	861.51	0.57
0.0065	318.11	24993	869.51	0.55
0.0065	323.11	11710	608.68	1.4
0.0065	323.11	11886	618.53	1.33
0.0065	323.11	12112	630.1	1.26
0.0065	323.11	12597	651.76	1.14
0.0065	323.11	13175	672.88	1.01
0.0065	323.11	14114	700.29	0.91
0.0065	323.11	14946	719.89	0.82
0.0065	323.11	15974	740.17	0.75
0.0065	323.11	17091	758.86	0.71
0.0065	323.11	18018	772.31	0.67
0.0065	323.11	19119	786.49	0.65
0.0065	323.11	19947	796.13	0.63
0.0065	323.11	21027	807.77	0.61
0.0065	323.11	22102	818.31	0.6
0.0065	323.11	23244	828.6	0.58
0.0065	323.11	23905	834.23	0.58
0.0065	323.11	24345	837.73	0.55
0.0065	328.08	11635	518.62	1.75
0.0065	328.08	11734	526.75	1.73
0.0065	328.08	11815	533.03	1.67
0.0065	328.08	11937	541.87	1.68
0.0065	328.08	12028	548.44	1.55
0.0065	328.08	12127	555.07	1.51
0.0065	328.08	12334	568.49	1.43
0.0065	328.08	12646	586.46	1.31
0.0065	328.08	13208	613.74	1.16
0.0065	328.08	13824	638.32	1.02
0.0065	328.08	14520	661.29	0.93
0.0065	328.08	15410	685.64	0.85
0.0065	328.08	16319	706.24	0.78
0.0065	328.08	17226	723.77	0.73
0.0065	328.08	18128	739.05	0.7
0.0065	328.08	19046	752.91	0.67
0.0065	328.08	20020	766.16	0.65
0.0065	328.08	21002	778.22	0.63
0.0065	328.08	21995	789.31	0.61
0.0065	328.08	22871	798.48	0.6
0.0065	328.08	23424	803.93	0.6
0.0065	333	12451	503.55	1.47
0.0065	333	13033	540.53	1.32
0.0065	333	13760	578.33	1.17
0.0065	333	14541	610.99	1.03
0.0065	333	15426	640.78	0.91
0.0065	333	16333	665.58	0.83
0.0065	333	17231	686.41	0.77
0.0065	333	18146	704.71	0.73
0.0065	333	19018	720.04	0.69
0.0065	333	20017	735.62	0.67
0.0065	333	21002	749.43	0.65
0.0065	333	22012	762.16	0.63
0.0065	333	23025	773.85	0.61
0.0065	333	24004	784.3	0.6
0.0065	333	25022	794.34	0.6
0.0093	313.11	8983	627.46	2.55
0.0093	313.11	9034	633.13	2.55
0.0093	313.11	10053	697.27	1.24
0.0093	313.11	11036	731.61	1
0.0093	313.11	11998	755.87	0.83
0.0093	313.11	13003	775.73	0.74
0.0093	313.11	14028	792.52	0.69
0.0093	313.11	14995	806.12	0.65
0.0093	313.11	16007	818.64	0.62
0.0093	313.11	17003	829.62	0.6
0.0093	313.11	18019	839.78	0.58
0.0093	313.11	19029	849.05	0.56
0.0093	313.11	19995	857.27	0.55
0.0093	313.11	20997	865.26	0.54
0.0093	313.11	22000	872.7	0.53
0.0093	313.11	22998	879.67	0.53
0.0093	313.11	24021	886.44	0.52
0.0093	313.11	24941	892.28	0.52
0.0093	318.11	10763	652.77	1.08
0.0093	318.11	10978	663.58	1.08
0.0093	318.11	11989	702.27	0.99
0.0093	318.11	12998	729.76	0.84
0.0093	318.11	14066	752.41	0.76
0.0093	318.11	14967	768.35	0.7
0.0093	318.11	16084	785.19	0.66
0.0093	318.11	16960	796.88	0.63
0.0093	318.11	17984	809.07	0.61
0.0093	318.11	18989	819.91	0.59
0.0093	318.11	19789	827.92	0.58
0.0093	318.11	20953	838.54	0.56
0.0093	318.11	22031	847.64	0.55
0.0093	318.11	22694	852.96	0.55
0.0093	318.11	23517	859.24	0.54
0.0093	318.11	24931	869.34	0.53
0.0093	323.07	11189	594.87	1.52
0.0093	323.07	11528	616.57	1.26
0.0093	323.07	12026	642.38	1.19
0.0093	323.07	13031	680.85	0.98
0.0093	323.07	14001	708.22	0.84
0.0093	323.07	14975	730.03	0.76
0.0093	323.07	16061	750.23	0.71
0.0093	323.07	16993	765.16	0.67
0.0093	323.07	18045	779.85	0.64
0.0093	323.07	19015	791.95	0.62
0.0093	323.07	19996	803.09	0.6
0.0093	323.07	21016	813.7	0.59
0.0093	323.07	22035	823.39	0.57
0.0093	323.07	23037	832.27	0.56
0.0093	323.07	24013	840.35	0.55
0.0093	323.07	25048	848.36	0.54
0.0093	328	12017	567.42	1.42
0.0093	328	12517	596.95	1.28
0.0093	328	13022	621.23	1.1
0.0093	328	14033	659.25	0.96
0.0093	328	15041	688.02	0.84
0.0093	328	16024	710.6	0.76
0.0093	328	17031	730	0.71
0.0093	328	18057	747.01	0.68
0.0093	328	19042	761.34	0.65
0.0093	328	20006	774.02	0.63
0.0093	328	21013	785.89	0.61
0.0093	328	22034	796.9	0.6
0.0093	328	23052	807.08	0.58
0.0093	328	24065	816.43	0.57
0.0093	328	25067	825.06	0.57
0.0093	332.96	13066	562.4	1.2
0.0093	332.96	14010	607.19	1.09
0.0093	332.96	15044	643.85	0.93
0.0093	332.96	16046	671.79	0.83
0.0093	332.96	17026	694.34	0.77
0.0093	332.96	18009	713.47	0.72
0.0093	332.96	19030	730.7	0.69
0.0093	332.96	20030	745.57	0.66
0.0093	332.96	21004	758.59	0.64
0.0093	332.96	22033	771.07	0.62
0.0093	332.96	23002	781.81	0.61
0.0093	332.96	23990	791.9	0.59
0.0144	313.13	10564	726.54	0.85
0.0144	313.13	10994	737.45	0.81
0.0144	313.13	12022	761.26	0.81
0.0144	313.13	13026	779.83	0.73
0.0144	313.13	13996	794.9	0.68
0.0144	313.13	15027	808.74	0.64
0.0144	313.13	16009	820.49	0.62
0.0144	313.13	16978	831.02	0.59
0.0144	313.13	17970	840.48	0.58
0.0144	313.13	19038	850.11	0.56
0.0144	313.13	20010	858.26	0.55
0.0144	313.13	21047	866.4	0.54
0.0144	313.13	22028	873.6	0.53
0.0144	313.13	23018	880.48	0.52
0.0144	313.13	24032	887.14	0.52
0.0144	313.13	25059	893.55	0.52
0.0144	318.08	12165	719.15	1.04
0.0144	318.08	12357	724.21	0.92
0.0144	318.08	12493	727.5	0.86
0.0144	318.08	13016	739.71	0.79
0.0144	318.08	13476	749.33	0.76
0.0144	318.08	14019	759.61	0.71
0.0144	318.08	14983	775.77	0.67
0.0144	318.08	15997	790.28	0.63
0.0144	318.08	16997	803.04	0.61
0.0144	318.08	17981	814.33	0.59
0.0144	318.08	18981	824.7	0.57
0.0144	318.08	20042	834.82	0.56
0.0144	318.08	20902	842.42	0.55
0.0144	318.08	21935	850.92	0.54
0.0144	318.08	22960	858.89	0.53
0.0144	318.08	23932	865.94	0.52
0.0144	318.08	24829	872.11	0.52
0.0144	323.07	12157	663.68	1.03
0.0144	323.07	12308	669.44	1.01
0.0144	323.07	12400	672.76	0.96
0.0144	323.07	12573	678.74	0.95
0.0144	323.07	12986	691.87	0.92
0.0144	323.07	13495	706.09	0.86
0.0144	323.07	14001	718.59	0.79
0.0144	323.07	15051	740.61	0.73
0.0144	323.07	15999	757.24	0.68
0.0144	323.07	17000	772.5	0.65
0.0144	323.07	18016	786.14	0.62
0.0144	323.07	18996	797.91	0.6
0.0144	323.07	20013	809.02	0.59
0.0144	323.07	21017	819.02	0.57
0.0144	323.07	22055	828.6	0.56
0.0144	323.07	23011	836.78	0.55
0.0144	323.07	23975	844.56	0.55
0.0144	328	13018	638.84	0.97
0.0144	328	13497	656.68	0.97
0.0144	328	14000	672.81	0.89
0.0144	328	15044	700.6	0.81
0.0144	328	16033	721.87	0.74
0.0144	328	17009	739.63	0.69
0.0144	328	18021	755.54	0.66
0.0144	328	19034	769.62	0.63
0.0144	328	20048	782.23	0.61
0.0144	328	21043	793.46	0.6
0.0144	328	22030	803.66	0.58
0.0144	328	23065	813.57	0.57
0.0144	328	24012	821.99	0.56
0.0144	328	24770	828.36	0.56
0.0144	332.96	14033	623.67	0.97
0.0144	332.96	15035	657.01	0.88
0.0144	332.96	16056	683.98	0.79
0.0144	332.96	17019	704.86	0.73
0.0144	332.96	18013	723.3	0.69
0.0144	332.96	19028	739.71	0.66
0.0144	332.96	20018	753.83	0.64
0.0144	332.96	20990	766.28	0.62
0.0144	332.96	22030	778.43	0.6
0.0144	332.96	23017	789	0.59
0.0144	332.96	23999	798.72	0.58
0.0144	332.96	24940	807.41	0.57
0.0173	313.11	12486	783.64	0.88
0.0173	313.11	13034	790.35	0.72
0.0173	313.11	14045	805.22	0.64
0.0173	313.11	15031	818.06	0.63
0.0173	313.11	16046	829.54	0.6
0.0173	313.11	17015	839.94	0.58
0.0173	313.11	18017	849.35	0.57
0.0173	313.11	19030	858.05	0.56
0.0173	313.11	20013	865.93	0.55
0.0173	313.11	21031	873.48	0.54
0.0173	313.11	22008	880.38	0.53
0.0173	313.11	22989	886.86	0.52
0.0173	313.11	24036	893.38	0.51
0.0173	313.11	24684	897.25	0.51
0.0173	318.08	14983	784.34	0.66
0.0173	318.08	16066	799.24	0.63
0.0173	318.08	16997	810.5	0.61
0.0173	318.08	18010	821.53	0.59
0.0173	318.08	19014	831.51	0.57
0.0173	318.08	20037	840.84	0.56
0.0173	318.08	20967	848.79	0.55
0.0173	318.08	22018	857.06	0.54
0.0173	318.08	22995	864.32	0.53
0.0173	318.08	23962	871.14	0.52
0.0173	318.08	24764	876.56	0.52
0.0173	323.08	12879	702.14	0.91
0.0173	323.08	13019	705.93	0.9
0.0173	323.08	13536	719.07	0.84
0.0173	323.08	14042	730.6	0.78
0.0173	323.08	15088	750.8	0.71
0.0173	323.08	16012	766	0.67
0.0173	323.08	17038	780.79	0.64
0.0173	323.08	18011	793.15	0.61
0.0173	323.08	19021	804.74	0.6
0.0173	323.08	20018	815.17	0.58
0.0173	323.08	21012	824.64	0.57
0.0173	323.08	22051	833.83	0.56
0.0173	323.08	23040	842.05	0.55
0.0173	323.08	24014	849.58	0.54
0.0173	323.08	24688	854.56	0.53
0.0173	328	12987	652.9	0.98
0.0173	328	13513	670.93	0.93
0.0173	328	14016	685.86	0.85
0.0173	328	15031	710.98	0.78
0.0173	328	16029	731.18	0.72
0.0173	328	17033	748.41	0.68
0.0173	328	18047	763.56	0.65
0.0173	328	19029	776.56	0.62
0.0173	328	20013	788.3	0.6
0.0173	328	21036	799.42	0.59
0.0173	328	22064	809.6	0.58
0.0173	328	23029	818.53	0.57
0.0173	328	24082	827.53	0.56
0.0173	328	24838	833.72	0.55
0.0173	332.96	15076	670.77	0.82
0.0173	332.96	16081	695.5	0.78
0.0173	332.96	17024	714.84	0.72
0.0173	332.96	17996	731.97	0.68
0.0173	332.96	19068	748.38	0.65
0.0173	332.96	19996	761.05	0.63
0.0173	332.96	21018	773.69	0.61
0.0173	332.96	21996	784.65	0.59
0.0173	332.96	22991	794.89	0.58
0.0173	332.96	24019	804.7	0.57
0.0173	332.96	24677	810.61	0.56
0.0198	318.03	13470	763.8	0.72
0.0198	318.03	13587	765.92	0.71
0.0198	318.03	13765	769.11	0.71
0.0198	318.03	13870	770.92	0.71
0.0198	318.03	13982	772.89	0.71
0.0198	318.03	14098	774.83	0.7
0.0198	318.03	14247	777.23	0.69
0.0198	318.03	14369	779.18	0.69
0.0198	318.03	14487	781.08	0.68
0.0198	318.03	14571	782.37	0.68
0.0198	318.03	14668	783.91	0.68
0.0198	318.03	14765	785.29	0.66
0.0198	318.03	14877	787	0.67
0.0198	318.03	14970	788.42	0.66
0.0198	318.03	15080	789.97	0.66
0.0198	318.03	15304	793.1	0.66
0.0198	318.03	15487	795.62	0.66
0.0198	318.03	16010	802.31	0.63
0.0198	318.03	16995	813.73	0.6
0.0198	318.03	17979	824.06	0.58
0.0198	318.03	18989	833.74	0.57
0.0198	318.03	20016	842.78	0.56
0.0198	318.03	20955	850.43	0.54
0.0198	318.03	21951	858.04	0.53
0.0198	318.03	22703	863.41	0.54
0.0198	323.03	14061	735.87	0.73
0.0198	323.03	14281	740.33	0.73
0.0198	323.03	14482	744.21	0.72
0.0198	323.03	15014	753.86	0.68
0.0198	323.03	16032	770.24	0.65
0.0198	323.03	17031	784.26	0.62
0.0198	323.03	18075	797.2	0.6
0.0198	323.03	19028	807.85	0.58
0.0198	323.03	20080	818.58	0.57
0.0198	323.03	21050	827.65	0.56
0.0198	323.03	22246	838	0.55
0.0198	323.03	24029	851.96	0.53
0.0198	323.03	24780	857.36	0.52
0.0198	327.94	14128	700.18	0.68
0.0198	327.94	15025	721	0.73
0.0198	327.94	15984	739.45	0.68
0.0198	327.94	17037	756.72	0.64
0.0198	327.94	18024	770.78	0.63
0.0198	327.94	18966	782.81	0.61
0.0198	327.94	20021	794.93	0.59
0.0198	327.94	21050	805.66	0.58
0.0198	327.94	22039	815.2	0.56
0.0198	327.94	22982	823.62	0.56
0.0198	327.94	24044	832.44	0.55
0.0198	327.94	25048	840.3	0.53
0.0198	332.93	18103	740.17	0.69
0.0198	332.93	19004	753.43	0.66
0.0198	332.93	20061	767.37	0.63
0.0198	332.93	21067	779.34	0.61
0.0198	332.93	22050	789.99	0.6
0.0198	332.93	23026	799.71	0.59
0.0198	332.93	23949	808.29	0.58
0.0198	332.93	24971	817.26	0.57
0.0204	318.13	16555	810.95	0.62
0.0204	318.13	17049	816.49	0.62
0.0204	318.13	17588	822.21	0.6
0.0204	318.13	18067	827.01	0.59
0.0204	318.13	18584	832.05	0.58
0.0204	318.13	19123	837.04	0.58
0.0204	318.13	19537	840.73	0.58
0.0204	318.13	20055	845.16	0.56
0.0204	318.13	20564	849.36	0.56
0.0204	318.13	21058	853.31	0.55
0.0204	318.13	21568	857.24	0.55
0.0204	318.13	22022	860.61	0.54
0.0204	318.13	22506	864.13	0.54
0.0214	318.13	15435	798.75	0.68
0.0214	318.13	15510	799.63	0.66
0.0214	318.13	15611	800.92	0.63
0.0214	318.13	15832	803.59	0.63
0.0214	318.13	16016	805.76	0.63
0.0214	318.13	16531	811.8	0.64
0.0214	318.13	17029	817.29	0.62
0.0214	318.13	18000	827.3	0.59
0.0214	318.13	19046	837.22	0.58
0.0214	318.13	20016	845.63	0.56
0.0214	318.13	21012	853.76	0.55
0.0214	318.13	22015	861.35	0.54
0.0214	328.11	15028	725.95	0.61
0.0214	328.11	15923	742.34	0.65
0.0214	328.11	17035	759.59	0.62
0.0214	328.11	18008	773.1	0.65
0.0214	328.11	19015	785.68	0.6
0.0214	328.11	20044	797.24	0.59
0.0214	328.11	21022	807.22	0.58
0.0214	328.11	22000	816.43	0.57
0.0214	328.11	23011	825.23	0.56
0.0214	328.11	24023	833.49	0.55
0.0235	318.07	18008	829.61	0.58
0.0235	318.07	18511	834.41	0.57
0.0235	318.07	19022	839.2	0.56
0.0235	318.07	19528	843.76	0.56
0.0235	318.07	20035	848.15	0.55
0.0235	318.07	20519	852.18	0.55
0.0235	318.07	21009	856.16	0.55
0.0235	318.07	22034	864	0.54
0.0235	318.07	23008	870.96	0.53
0.0235	318.07	23971	877.49	0.52
0.0235	318.07	24665	882.02	0.52
0.0235	323.07	15260	764.21	0.7
0.0235	323.07	15541	768.75	0.67
0.0235	323.07	16027	776.04	0.66
0.0235	323.07	17013	790.56	0.63
0.0235	323.07	18007	801.9	0.6
0.0235	323.07	19008	812.85	0.59
0.0235	323.07	20026	822.87	0.57
0.0235	323.07	20996	831.78	0.56
0.0235	323.07	21991	840.23	0.55
0.0235	323.07	23024	848.46	0.54
0.0235	323.07	24012	855.79	0.54
0.0235	323.07	25007	862.81	0.53
0.0235	328	13916	697.69	0.78
0.0235	328	14510	712.23	0.75
0.0235	328	14988	722.58	0.73
0.0235	328	16003	741.93	0.7
0.0235	328	17036	758.59	0.67
0.0235	328	18019	772.44	0.64
0.0235	328	19027	785.16	0.62
0.0235	328	20015	796.35	0.6
0.0235	328	21023	806.8	0.58
0.0235	328	22023	816.35	0.57
0.0235	328	23041	825.35	0.56
0.0235	328	24037	833.62	0.55
0.0235	328	25066	841.58	0.55
0.0235	332.96	18019	741.5	0.66
0.0235	332.96	19018	756.06	0.64
0.0235	332.96	20031	769.21	0.62
0.0235	332.96	21000	780.59	0.6
0.0235	332.96	21972	791.04	0.59
0.0235	332.96	22996	801.19	0.58
0.0235	332.96	23986	810.27	0.57
0.0235	332.96	24809	817.39	0.56
0.0237	318.14	19647	845.05	0.56
0.0237	318.14	19720	845.71	0.56
0.0237	318.14	19769	846.15	0.56
0.0237	318.14	19815	846.6	0.56
0.0237	318.14	19868	847.1	0.56
0.0237	318.14	19940	847.81	0.56
0.0237	318.14	20042	848.76	0.56
0.0237	318.14	20202	850.16	0.56
0.0237	318.14	20409	851.93	0.56
0.0237	318.14	20762	854.79	0.55
0.0237	318.14	21268	858.75	0.55
0.0237	318.14	21759	862.5	0.54
0.0237	318.14	22256	866.12	0.54
0.0237	318.14	22769	869.73	0.53
0.0237	318.14	23308	873.42	0.53
0.0237	318.14	23561	875.25	0.53
0.0276	323.06	16579	788.12	0.61
0.0276	323.06	16788	790.83	0.64
0.0276	323.06	17004	793.51	0.64
0.0276	323.06	17203	795.99	0.64
0.0276	323.06	17382	798.16	0.63
0.0276	323.06	17590	800.59	0.6
0.0276	323.06	17798	803	0.59
0.0276	323.06	18018	805.49	0.59
0.0276	323.06	18224	807.76	0.59
0.0276	323.06	18490	810.6	0.59
0.0276	323.06	18694	812.78	0.58
0.0276	323.06	19009	816	0.58
0.0276	323.06	19476	820.59	0.57
0.0276	323.06	19995	825.42	0.56
0.0276	323.06	21006	834.34	0.55
0.0276	323.06	22002	842.55	0.54
0.0276	323.06	22987	850.05	0.53
0.0276	323.06	24002	857.32	0.53
0.0276	323.06	24701	862.06	0.52
0.0276	327.98	20991	810.47	0.55
0.0276	327.98	22012	819.85	0.55
0.0276	327.98	23092	829.12	0.55
0.0276	327.98	23996	836.33	0.54
0.0276	327.98	24882	843.08	0.54
0.0394	327.99	18955	812.97	0.59
0.0394	327.99	19491	818.42	0.59
0.0394	327.99	20015	823.07	0.58
0.0394	327.99	20960	831.55	0.58
0.0394	327.99	22010	840.78	0.57
0.0394	327.99	23040	848.69	0.56
0.0394	327.99	24009	855.98	0.55
0.0394	327.99	24881	861.95	0.54
