Measured thermophysical data. Solubility of androstenedione in lower alcohols
Source: Fluid Phase Equilib., 2014, 10.1016/j.fluid.2013.11.008
Compound 1: methanol, CH4O, InChI=1S/CH4O/c1-2/h2H,1H3, purity 99.5%
Compound 2: ethanol, C2H6O, InChI=1S/C2H6O/c1-2-3/h3H,2H2,1H3, purity 99.5%
Compound 3: propan-2-ol, C3H8O, InChI=1S/C3H8O/c1-3(2)4/h3-4H,1-2H3, purity 99.5%
Compound 4: butan-1-ol, C4H10O, InChI=1S/C4H10O/c1-2-3-4-5/h5H,2-4H2,1H3, purity 99.5%
Compound 5: androst-4-ene-3,17-dione, C19H26O2, InChI=1S/C19H26O2/c1-18-9-7-13(20)11-12(18)3-4-14-15-5-6-17(21)19(15,2)10-8-16(14)18/h11,14-16H,3-10H2,1-2H3/t14-,15-,16-,18-,19-/m0/s1, purity 99%

System: methanol; phases: Liquid
Property: Mass density, kg/m3 (Liquid); method: Pycnometric method
Temperature, K	Pressure, kPa	Mass density, kg/m3	uncertainty
298.15	101.325	785.9	40

System: ethanol; phases: Liquid
Property: Mass density, kg/m3 (Liquid); method: Pycnometric method
Temperature, K	Pressure, kPa	Mass density, kg/m3	uncertainty
298.15	101.325	786.4	40

System: propan-2-ol; phases: Liquid
Property: Mass density, kg/m3 (Liquid); method: Pycnometric method
Temperature, K	Pressure, kPa	Mass density, kg/m3	uncertainty
298.15	101.325	782.7	40

System: butan-1-ol; phases: Liquid
Property: Mass density, kg/m3 (Liquid); method: Pycnometric method
Temperature, K	Pressure, kPa	Mass density, kg/m3	uncertainty
298.15	101.325	805.5	40

System: androst-4-ene-3,17-dione; phases: Crystal, Liquid, Air at 1 atmosphere
Property: Molar enthalpy of transition or fusion, kJ/mol (Crystal); method: DSC
Molar enthalpy of transition or fusion, kJ/mol	uncertainty
25.7	1.63

System: androst-4-ene-3,17-dione; phases: Crystal, Liquid, Air at 1 atmosphere
Property: Normal melting temperature, K (Crystal); method: DTA
Normal melting temperature, K	uncertainty
444.54	0.7

System: androst-4-ene-3,17-dione + methanol; phases: Liquid, Crystal
Fixed: Pressure, kPa = 101
Property: Mole fraction of androst-4-ene-3,17-dione (Liquid); method: visual method
Temperature, K	Mole fraction of androst-4-ene-3,17-dione	uncertainty
279.25	0.0032407	0.0032407
281.05	0.0034405	0.0034405
284.65	0.0039063	0.0039063
289.55	0.0047924	0.0047924
295.55	0.0059309	0.0059309
299.35	0.0071659	0.0071659
300.25	0.0073311	0.0073311
306.05	0.0092211	0.0092211
311.65	0.0110603	0.0110603
315.95	0.0126422	0.0126422

System: androst-4-ene-3,17-dione + ethanol; phases: Liquid, Crystal
Fixed: Pressure, kPa = 101
Property: Mole fraction of androst-4-ene-3,17-dione (Liquid); method: visual method
Temperature, K	Mole fraction of androst-4-ene-3,17-dione	uncertainty
279.35	0.0017845	0.0017845
283.45	0.0020627	0.0020627
288.05	0.0025632	0.0025632
291.65	0.0031408	0.0031408
296.75	0.0038066	0.0038066
301.95	0.0049473	0.0049473
308.45	0.0063613	0.0063613
310.35	0.0071218	0.0071218
315.25	0.0086395	0.0086395
319.45	0.0102072	0.0102072

System: androst-4-ene-3,17-dione + propan-2-ol; phases: Liquid, Crystal
Fixed: Pressure, kPa = 101
Property: Mole fraction of androst-4-ene-3,17-dione (Liquid); method: visual method
Temperature, K	Mole fraction of androst-4-ene-3,17-dione	uncertainty
277.75	0.0009599	0.0009599
284.65	0.0013278	0.0013278
287.65	0.0015506	0.0015506
289.15	0.0016731	0.0016731
293.15	0.0021851	0.0021851
296.85	0.0026854	0.0026854
302.95	0.0036624	0.0036624
307.55	0.0044603	0.0044603
312.35	0.0056106	0.0056106
315.85	0.0071329	0.0071329

System: androst-4-ene-3,17-dione + butan-1-ol; phases: Liquid, Crystal
Fixed: Pressure, kPa = 101
Property: Mole fraction of androst-4-ene-3,17-dione (Liquid); method: visual method
Temperature, K	Mole fraction of androst-4-ene-3,17-dione	uncertainty
277.65	0.0014392	0.0014392
284.45	0.0020404	0.0020404
287.65	0.0024186	0.0024186
290.65	0.0026521	0.0026521
294.45	0.0032518	0.0032518
300.55	0.0042056	0.0042056
302.65	0.0047703	0.0047703
306.75	0.0054228	0.0054228
311.45	0.0064385	0.0064385
316.05	0.0083429	0.0083429
