Measured thermophysical data. Study on the thermodynamic properties for ionic liquid [C6mim][OAc]( 1-hexyl-3-methylimidazolium acetate)
Source: Fluid Phase Equilib., 2014, 10.1016/j.fluid.2014.03.011
Compound 1: 3-hexyl-1-methylimidazolium acetate, C12H22N2O2, InChI=1S/C10H19N2.C2H4O2/c1-3-4-5-6-7-12-9-8-11(2)10-12;1-2(3)4/h8-10H,3-7H2,1-2H3;1H3,(H,3,4)/q+1;/p-1, purity 99%
Compound 2: water, H2O, InChI=1S/H2O/h1H2, purity 99.9%

System: water + 3-hexyl-1-methylimidazolium acetate; phases: Liquid
Fixed: Pressure, kPa = 100
Property: Molar enthalpy of solution, kJ/mol (Liquid); method: ISOPERIBOL
Temperature, K	Molality, mol/kg of 3-hexyl-1-methylimidazolium acetate	Molar enthalpy of solution, kJ/mol	uncertainty
288.15	0.017	-53.46	0.41
288.15	0.0197	-53.31	0.41
288.15	0.02141	-53.2	0.41
288.15	0.02446	-53.07	0.41
288.15	0.0263	-52.91	0.41
288.15	0.0289	-52.79	0.41
288.15	0.0304	-52.64	0.41
288.15	0.03297	-52.5	0.41
288.15	0.03494	-52.36	0.41
288.15	0.03782	-52.18	0.4
288.15	0.04006	-52.04	0.4
288.15	0.04344	-51.9	0.4
293.15	0.01685	-52.11	0.4
293.15	0.0205	-51.98	0.4
293.15	0.02221	-51.85	0.4
293.15	0.0243	-51.69	0.4
293.15	0.0269	-51.54	0.4
293.15	0.02919	-51.4	0.4
293.15	0.03159	-51.22	0.4
293.15	0.03421	-51.08	0.4
293.15	0.0368	-50.93	0.39
293.15	0.0397	-50.8	0.39
293.15	0.04139	-50.64	0.39
293.15	0.0433	-50.49	0.39
298.15	0.01811	-50.58	0.39
298.15	0.01991	-50.46	0.39
298.15	0.02224	-50.34	0.39
298.15	0.0248	-50.17	0.39
298.15	0.02658	-50.02	0.39
298.15	0.02901	-49.89	0.39
298.15	0.03098	-49.79	0.39
298.15	0.03329	-49.67	0.38
298.15	0.03574	-49.55	0.38
298.15	0.03987	-49.32	0.38
298.15	0.04494	-49.15	0.38
298.15	0.05032	-48.91	0.38
303.15	0.01865	-49.05	0.38
303.15	0.02167	-48.92	0.38
303.15	0.02331	-48.8	0.38
303.15	0.02446	-48.7	0.38
303.15	0.02842	-48.55	0.38
303.15	0.03361	-48.4	0.38
303.15	0.03758	-48.22	0.37
303.15	0.04102	-48.09	0.37
303.15	0.04341	-47.95	0.37
303.15	0.04448	-47.85	0.37
303.15	0.05022	-47.72	0.37
303.15	0.05374	-47.6	0.37
308.15	0.02224	-47.23	0.37
308.15	0.02644	-47.05	0.36
308.15	0.02834	-46.95	0.36
308.15	0.02973	-46.83	0.36
308.15	0.0327	-46.68	0.36
308.15	0.03678	-46.5	0.36
308.15	0.03864	-46.38	0.36
308.15	0.04281	-46.21	0.36
308.15	0.04707	-45.98	0.36
308.15	0.05018	-45.84	0.36
308.15	0.05491	-45.66	0.35
308.15	0.05778	-45.53	0.35
