Measured thermophysical data. Volumetric properties of amino acids in aqueous solutions of ammonium based protic ionic liquids
Source: Fluid Phase Equilib., 2015, 10.1016/j.fluid.2014.11.016
Compound 1: 2-aminoacetic acid, C2H5NO2, InChI=1S/C2H5NO2/c3-1-2(4)5/h1,3H2,(H,4,5), purity 99%
Compound 2: DL-2-aminopropanoic acid, C3H7NO2, InChI=1S/C3H7NO2/c1-2(4)3(5)6/h2H,4H2,1H3,(H,5,6), purity 99%
Compound 3: water, H2O, InChI=1S/H2O/h1H2
Compound 4: propylammonium formate, C4H11NO2, InChI=1S/C3H9N.CH2O2/c1-2-3-4;2-1-3/h2-4H2,1H3;1H,(H,2,3)
Compound 5: 3-hydroxypropylammonium formate, C4H11NO3, InChI=1S/C3H9NO.CH2O2/c4-2-1-3-5;2-1-3/h5H,1-4H2;1H,(H,2,3)

System: 2-aminoacetic acid + water + propylammonium formate; phases: Liquid
Fixed: Pressure, kPa = 101.325
Property: Mass density, kg/m3 (Liquid); method: Vibrating tube method
Temperature, K	Solvent: Molality, mol/kg of propylammonium formate	Molality, mol/kg of 2-aminoacetic acid	Mass density, kg/m3	uncertainty
288.15	0	0	999.129	0.256
288.15	0	0.02012	999.786	0.256
288.15	0	0.05495	1000.918	0.257
288.15	0	0.07199	1001.469	0.257
288.15	0	0.09442	1002.19	0.258
288.15	0	0.11775	1002.939	0.259
288.15	0	0.13344	1003.438	0.259
288.15	0	0.16565	1004.465	0.26
288.15	0	0.18108	1004.953	0.26
288.15	0	0.21473	1006.016	0.261
298.15	0	0	997.047	0.256
298.15	0	0.02012	997.686	0.256
298.15	0	0.05495	998.784	0.256
298.15	0	0.07199	999.318	0.256
298.15	0	0.09442	1000.017	0.256
298.15	0	0.11775	1000.74	0.257
298.15	0	0.13344	1001.223	0.257
298.15	0	0.16565	1002.212	0.258
298.15	0	0.18108	1002.682	0.258
298.15	0	0.21473	1003.703	0.259
308.15	0	0	994.063	0.256
308.15	0	0.02012	994.693	0.256
308.15	0	0.05495	995.78	0.256
308.15	0	0.07199	996.308	0.256
308.15	0	0.09442	997.001	0.256
308.15	0	0.11775	997.721	0.256
308.15	0	0.13344	998.201	0.256
308.15	0	0.16565	999.187	0.256
308.15	0	0.18108	999.655	0.256
308.15	0	0.21473	1000.676	0.257
318.15	0	0	990.244	0.256
318.15	0	0.02012	990.867	0.256
318.15	0	0.05495	991.94	0.256
318.15	0	0.07199	992.463	0.256
318.15	0	0.09442	993.148	0.256
318.15	0	0.11775	993.859	0.256
318.15	0	0.13344	994.334	0.256
318.15	0	0.16565	995.309	0.256
318.15	0	0.18108	995.774	0.256
318.15	0	0.21473	996.781	0.256
288.15	0.05	0	999.508	0.256
288.15	0.05	0.02549	1000.36	0.256
288.15	0.05	0.05465	1001.33	0.257
288.15	0.05	0.08165	1002.222	0.258
288.15	0.05	0.08711	1002.4	0.258
288.15	0.05	0.10591	1003.02	0.259
288.15	0.05	0.13692	1004.034	0.26
288.15	0.05	0.14142	1004.18	0.26
288.15	0.05	0.15315	1004.561	0.26
288.15	0.05	0.18293	1005.525	0.261
298.15	0.05	0	997.432	0.256
298.15	0.05	0.02549	998.257	0.256
298.15	0.05	0.05465	999.196	0.256
298.15	0.05	0.08165	1000.058	0.256
298.15	0.05	0.08711	1000.229	0.256
298.15	0.05	0.10591	1000.826	0.257
298.15	0.05	0.13692	1001.804	0.258
298.15	0.05	0.14142	1001.94	0.258
298.15	0.05	0.15315	1002.305	0.258
298.15	0.05	0.18293	1003.232	0.259
308.15	0.05	0	994.409	0.256
308.15	0.05	0.02549	995.218	0.256
308.15	0.05	0.05465	996.139	0.256
308.15	0.05	0.08165	996.988	0.256
308.15	0.05	0.08711	997.156	0.256
308.15	0.05	0.10591	997.742	0.256
308.15	0.05	0.13692	998.707	0.256
308.15	0.05	0.14142	998.843	0.256
308.15	0.05	0.15315	999.204	0.256
308.15	0.05	0.18293	1000.116	0.256
318.15	0.05	0	990.56	0.256
318.15	0.05	0.02549	991.354	0.256
318.15	0.05	0.05465	992.256	0.256
318.15	0.05	0.08165	993.086	0.256
318.15	0.05	0.08711	993.252	0.256
318.15	0.05	0.10591	993.827	0.256
318.15	0.05	0.13692	994.771	0.256
318.15	0.05	0.14142	994.903	0.256
318.15	0.05	0.15315	995.257	0.256
318.15	0.05	0.18293	996.15	0.256
288.15	0.1	0	999.895	0.256
288.15	0.1	0.03659	1001.077	0.257
288.15	0.1	0.05395	1001.635	0.258
288.15	0.1	0.0787	1002.425	0.258
288.15	0.1	0.09166	1002.837	0.259
288.15	0.1	0.11521	1003.581	0.259
288.15	0.1	0.13923	1004.339	0.26
288.15	0.1	0.15389	1004.8	0.26
288.15	0.1	0.16439	1005.124	0.26
288.15	0.1	0.18755	1005.845	0.261
298.15	0.1	0	997.801	0.256
298.15	0.1	0.03659	998.942	0.256
298.15	0.1	0.05395	999.481	0.256
298.15	0.1	0.0787	1000.247	0.256
298.15	0.1	0.09166	1000.644	0.257
298.15	0.1	0.11521	1001.366	0.257
298.15	0.1	0.13923	1002.102	0.258
298.15	0.1	0.15389	1002.547	0.258
298.15	0.1	0.16439	1002.864	0.259
298.15	0.1	0.18755	1003.563	0.259
308.15	0.1	0	994.813	0.256
308.15	0.1	0.03659	995.934	0.256
308.15	0.1	0.05395	996.464	0.256
308.15	0.1	0.0787	997.215	0.256
308.15	0.1	0.09166	997.605	0.256
308.15	0.1	0.11521	998.313	0.256
308.15	0.1	0.13923	999.031	0.256
308.15	0.1	0.15389	999.468	0.256
308.15	0.1	0.16439	999.781	0.256
308.15	0.1	0.18755	1000.468	0.257
318.15	0.1	0	990.922	0.256
318.15	0.1	0.03659	992.021	0.256
318.15	0.1	0.05395	992.54	0.256
318.15	0.1	0.0787	993.276	0.256
318.15	0.1	0.09166	993.657	0.256
318.15	0.1	0.11521	994.353	0.256
318.15	0.1	0.13923	995.06	0.256
318.15	0.1	0.15389	995.487	0.256
318.15	0.1	0.16439	995.793	0.256
318.15	0.1	0.18755	996.466	0.256
288.15	0.15	0	1000.28	0.256
288.15	0.15	0.02903	1001.216	0.257
288.15	0.15	0.04761	1001.813	0.258
288.15	0.15	0.05236	1001.965	0.258
288.15	0.15	0.06406	1002.338	0.258
288.15	0.15	0.09558	1003.342	0.259
288.15	0.15	0.10214	1003.548	0.259
288.15	0.15	0.14613	1004.938	0.26
288.15	0.15	0.16213	1005.438	0.261
288.15	0.15	0.18387	1006.115	0.261
298.15	0.15	0	998.18	0.256
298.15	0.15	0.02903	999.085	0.256
298.15	0.15	0.04761	999.662	0.256
298.15	0.15	0.05236	999.809	0.256
298.15	0.15	0.06406	1000.17	0.256
298.15	0.15	0.09558	1001.141	0.257
298.15	0.15	0.10214	1001.341	0.257
298.15	0.15	0.14613	1002.686	0.258
298.15	0.15	0.16213	1003.168	0.259
298.15	0.15	0.18387	1003.824	0.259
308.15	0.15	0	995.216	0.256
308.15	0.15	0.02903	996.104	0.256
308.15	0.15	0.04761	996.669	0.256
308.15	0.15	0.05236	996.813	0.256
308.15	0.15	0.06406	997.167	0.256
308.15	0.15	0.09558	998.118	0.256
308.15	0.15	0.10214	998.312	0.256
308.15	0.15	0.14613	999.626	0.256
308.15	0.15	0.16213	1000.099	0.256
308.15	0.15	0.18387	1000.744	0.257
318.15	0.15	0	991.285	0.256
318.15	0.15	0.02903	992.155	0.256
318.15	0.15	0.04761	992.71	0.256
318.15	0.15	0.05236	992.851	0.256
318.15	0.15	0.06406	993.197	0.256
318.15	0.15	0.09558	994.128	0.256
318.15	0.15	0.10214	994.319	0.256
318.15	0.15	0.14613	995.607	0.256
318.15	0.15	0.16213	996.069	0.256
318.15	0.15	0.18387	996.697	0.256
288.15	0.2	0	1000.663	0.257
288.15	0.2	0.03436	1001.777	0.258
288.15	0.2	0.04875	1002.242	0.258
288.15	0.2	0.07008	1002.929	0.259
288.15	0.2	0.08831	1003.514	0.259
288.15	0.2	0.11297	1004.301	0.26
288.15	0.2	0.12174	1004.583	0.26
288.15	0.2	0.13983	1005.159	0.26
288.15	0.2	0.15074	1005.504	0.261
288.15	0.2	0.17669	1006.328	0.261
298.15	0.2	0	998.553	0.256
298.15	0.2	0.03436	999.634	0.256
298.15	0.2	0.04875	1000.084	0.256
298.15	0.2	0.07008	1000.75	0.257
298.15	0.2	0.08831	1001.316	0.257
298.15	0.2	0.11297	1002.081	0.258
298.15	0.2	0.12174	1002.35	0.258
298.15	0.2	0.13983	1002.91	0.259
298.15	0.2	0.15074	1003.244	0.259
298.15	0.2	0.17669	1004.041	0.26
308.15	0.2	0	995.619	0.256
308.15	0.2	0.03436	996.679	0.256
308.15	0.2	0.04875	997.121	0.256
308.15	0.2	0.07008	997.774	0.256
308.15	0.2	0.08831	998.33	0.256
308.15	0.2	0.11297	999.079	0.256
308.15	0.2	0.12174	999.345	0.256
308.15	0.2	0.13983	999.892	0.256
308.15	0.2	0.15074	1000.222	0.256
308.15	0.2	0.17669	1001.003	0.257
318.15	0.2	0	991.647	0.256
318.15	0.2	0.03436	992.684	0.256
318.15	0.2	0.04875	993.116	0.256
318.15	0.2	0.07008	993.755	0.256
318.15	0.2	0.08831	994.298	0.256
318.15	0.2	0.11297	995.027	0.256
318.15	0.2	0.12174	995.287	0.256
318.15	0.2	0.13983	995.822	0.256
318.15	0.2	0.15074	996.141	0.256
318.15	0.2	0.17669	996.904	0.256

System: DL-2-aminopropanoic acid + water + propylammonium formate; phases: Liquid
Fixed: Pressure, kPa = 101.325
Property: Mass density, kg/m3 (Liquid); method: Vibrating tube method
Temperature, K	Solvent: Molality, mol/kg of propylammonium formate	Molality, mol/kg of DL-2-aminopropanoic acid	Mass density, kg/m3	uncertainty
288.15	0	0.02482	999.857	0.256
288.15	0	0.04387	1000.41	0.256
288.15	0	0.06246	1000.948	0.257
288.15	0	0.06721	1001.083	0.257
288.15	0	0.07269	1001.24	0.257
288.15	0	0.11285	1002.386	0.258
288.15	0	0.12881	1002.839	0.259
288.15	0	0.15951	1003.703	0.259
288.15	0	0.17856	1004.234	0.26
298.15	0	0.02482	997.759	0.256
298.15	0	0.04387	998.303	0.256
298.15	0	0.06246	998.83	0.256
298.15	0	0.06721	998.963	0.256
298.15	0	0.07269	999.116	0.256
298.15	0	0.11285	1000.236	0.256
298.15	0	0.12881	1000.678	0.257
298.15	0	0.15951	1001.525	0.257
298.15	0	0.17856	1002.04	0.258
308.15	0	0.02482	994.763	0.256
308.15	0	0.04387	995.297	0.256
308.15	0	0.06246	995.816	0.256
308.15	0	0.06721	995.947	0.256
308.15	0	0.07269	996.099	0.256
308.15	0	0.11285	997.211	0.256
308.15	0	0.12881	997.65	0.256
308.15	0	0.15951	998.487	0.256
308.15	0	0.17856	999.005	0.256
318.15	0	0.02482	990.936	0.256
318.15	0	0.04387	991.464	0.256
318.15	0	0.06246	991.976	0.256
318.15	0	0.06721	992.106	0.256
318.15	0	0.07269	992.256	0.256
318.15	0	0.11285	993.354	0.256
318.15	0	0.12881	993.784	0.256
318.15	0	0.15951	994.61	0.256
318.15	0	0.17856	995.117	0.256
288.15	0.05	0.03679	1000.618	0.257
288.15	0.05	0.04092	1000.742	0.257
288.15	0.05	0.0772	1001.824	0.258
288.15	0.05	0.08841	1002.156	0.258
288.15	0.05	0.10084	1002.522	0.258
288.15	0.05	0.12681	1003.286	0.259
288.15	0.05	0.15516	1004.118	0.26
288.15	0.05	0.18546	1004.996	0.26
288.15	0.05	0.23205	1006.34	0.261
298.15	0.05	0.03679	998.513	0.256
298.15	0.05	0.04092	998.633	0.256
298.15	0.05	0.0772	999.691	0.256
298.15	0.05	0.08841	1000.013	0.256
298.15	0.05	0.10084	1000.373	0.256
298.15	0.05	0.12681	1001.117	0.257
298.15	0.05	0.15516	1001.929	0.258
298.15	0.05	0.18546	1002.79	0.258
298.15	0.05	0.23205	1004.096	0.26
308.15	0.05	0.03679	995.464	0.256
308.15	0.05	0.04092	995.582	0.256
308.15	0.05	0.0772	996.611	0.256
308.15	0.05	0.08841	996.927	0.256
308.15	0.05	0.10084	997.276	0.256
308.15	0.05	0.12681	998.004	0.256
308.15	0.05	0.15516	998.796	0.256
308.15	0.05	0.18546	999.638	0.256
308.15	0.05	0.23205	1000.922	0.257
318.15	0.05	0.03679	991.598	0.256
318.15	0.05	0.04092	991.713	0.256
318.15	0.05	0.0772	992.728	0.256
318.15	0.05	0.08841	993.039	0.256
318.15	0.05	0.10084	993.382	0.256
318.15	0.05	0.12681	994.101	0.256
318.15	0.05	0.15516	994.881	0.256
318.15	0.05	0.18546	995.71	0.256
318.15	0.05	0.23205	996.972	0.256
288.15	0.1	0.02398	1000.595	0.257
288.15	0.1	0.03972	1001.053	0.257
288.15	0.1	0.06853	1001.887	0.258
288.15	0.1	0.0923	1002.571	0.258
288.15	0.1	0.12607	1003.539	0.259
288.15	0.1	0.14061	1003.953	0.259
288.15	0.1	0.16533	1004.658	0.26
288.15	0.1	0.194	1005.47	0.261
288.15	0.1	0.21295	1006.004	0.261
298.15	0.1	0.02398	998.485	0.256
298.15	0.1	0.03972	998.932	0.256
298.15	0.1	0.06853	999.746	0.256
298.15	0.1	0.0923	1000.415	0.256
298.15	0.1	0.12607	1001.361	0.257
298.15	0.1	0.14061	1001.766	0.258
298.15	0.1	0.16533	1002.453	0.258
298.15	0.1	0.194	1003.247	0.259
298.15	0.1	0.21295	1003.766	0.259
308.15	0.1	0.02398	995.481	0.256
308.15	0.1	0.03972	995.918	0.256
308.15	0.1	0.06853	996.713	0.256
308.15	0.1	0.0923	997.366	0.256
308.15	0.1	0.12607	998.289	0.256
308.15	0.1	0.14061	998.685	0.256
308.15	0.1	0.16533	999.352	0.256
308.15	0.1	0.194	1000.127	0.256
308.15	0.1	0.21295	1000.631	0.257
318.15	0.1	0.02398	991.578	0.256
318.15	0.1	0.03972	992.007	0.256
318.15	0.1	0.06853	992.787	0.256
318.15	0.1	0.0923	993.428	0.256
318.15	0.1	0.12607	994.33	0.256
318.15	0.1	0.14061	994.717	0.256
318.15	0.1	0.16533	995.373	0.256
318.15	0.1	0.194	996.132	0.256
318.15	0.1	0.21295	996.624	0.256
288.15	0.15	0.02875	1001.113	0.257
288.15	0.15	0.04747	1001.649	0.258
288.15	0.15	0.06546	1002.163	0.258
288.15	0.15	0.08858	1002.819	0.259
288.15	0.15	0.10286	1003.22	0.259
288.15	0.15	0.12031	1003.711	0.259
288.15	0.15	0.13452	1004.106	0.26
288.15	0.15	0.15481	1004.67	0.26
288.15	0.15	0.18604	1005.529	0.261
298.15	0.15	0.02875	998.992	0.256
298.15	0.15	0.04747	999.517	0.256
298.15	0.15	0.06546	1000.017	0.256
298.15	0.15	0.08858	1000.657	0.257
298.15	0.15	0.10286	1001.046	0.257
298.15	0.15	0.12031	1001.524	0.257
298.15	0.15	0.13452	1001.909	0.258
298.15	0.15	0.15481	1002.462	0.258
298.15	0.15	0.18604	1003.296	0.259
308.15	0.15	0.02875	996.006	0.256
308.15	0.15	0.04747	996.516	0.256
308.15	0.15	0.06546	997.002	0.256
308.15	0.15	0.08858	997.623	0.256
308.15	0.15	0.10286	998.002	0.256
308.15	0.15	0.12031	998.464	0.256
308.15	0.15	0.13452	998.836	0.256
308.15	0.15	0.15481	999.371	0.256
308.15	0.15	0.18604	1000.174	0.256
318.15	0.15	0.02875	992.064	0.256
318.15	0.15	0.04747	992.567	0.256
318.15	0.15	0.06546	993.048	0.256
318.15	0.15	0.08858	993.665	0.256
318.15	0.15	0.10286	994.041	0.256
318.15	0.15	0.12031	994.501	0.256
318.15	0.15	0.13452	994.872	0.256
318.15	0.15	0.15481	995.405	0.256
318.15	0.15	0.18604	996.214	0.256
288.15	0.2	0.03681	1001.727	0.258
288.15	0.2	0.0764	1002.857	0.259
288.15	0.2	0.08316	1003.049	0.259
288.15	0.2	0.08979	1003.238	0.259
288.15	0.2	0.11065	1003.828	0.259
288.15	0.2	0.1347	1004.504	0.26
288.15	0.2	0.14133	1004.686	0.26
288.15	0.2	0.16347	1005.305	0.261
288.15	0.2	0.18865	1006.001	0.261
298.15	0.2	0.03681	999.588	0.256
298.15	0.2	0.0764	1000.69	0.257
298.15	0.2	0.08316	1000.876	0.257
298.15	0.2	0.08979	1001.058	0.257
298.15	0.2	0.11065	1001.632	0.258
298.15	0.2	0.1347	1002.291	0.258
298.15	0.2	0.14133	1002.469	0.258
298.15	0.2	0.16347	1003.073	0.259
298.15	0.2	0.18865	1003.748	0.259
308.15	0.2	0.03681	996.624	0.256
308.15	0.2	0.0764	997.696	0.256
308.15	0.2	0.08316	997.876	0.256
308.15	0.2	0.08979	998.053	0.256
308.15	0.2	0.11065	998.611	0.256
308.15	0.2	0.1347	999.252	0.256
308.15	0.2	0.14133	999.425	0.256
308.15	0.2	0.16347	1000.012	0.256
308.15	0.2	0.18865	1000.669	0.257
318.15	0.2	0.03681	992.639	0.256
318.15	0.2	0.0764	993.697	0.256
318.15	0.2	0.08316	993.875	0.256
318.15	0.2	0.08979	994.049	0.256
318.15	0.2	0.11065	994.601	0.256
318.15	0.2	0.1347	995.233	0.256
318.15	0.2	0.14133	995.404	0.256
318.15	0.2	0.16347	995.982	0.256
318.15	0.2	0.18865	996.636	0.256

System: 2-aminoacetic acid + water + 3-hydroxypropylammonium formate; phases: Liquid
Fixed: Pressure, kPa = 101.325
Property: Mass density, kg/m3 (Liquid); method: Vibrating tube method
Temperature, K	Solvent: Molality, mol/kg of 3-hydroxypropylammonium formate	Molality, mol/kg of 2-aminoacetic acid	Mass density, kg/m3	uncertainty
288.15	0.05	0	1000.067	0.256
288.15	0.05	0.02549	1000.92	0.257
288.15	0.05	0.05465	1001.891	0.258
288.15	0.05	0.08165	1002.787	0.258
288.15	0.05	0.08711	1002.966	0.259
288.15	0.05	0.10591	1003.587	0.259
288.15	0.05	0.13692	1004.607	0.26
288.15	0.05	0.14142	1004.75	0.26
288.15	0.05	0.15315	1005.131	0.26
288.15	0.05	0.18293	1006.103	0.261
298.15	0.05	0	997.857	0.256
298.15	0.05	0.02549	998.684	0.256
298.15	0.05	0.05465	999.624	0.256
298.15	0.05	0.08165	1000.488	0.257
298.15	0.05	0.08711	1000.659	0.257
298.15	0.05	0.10591	1001.256	0.257
298.15	0.05	0.13692	1002.236	0.258
298.15	0.05	0.14142	1002.372	0.258
298.15	0.05	0.15315	1002.739	0.258
298.15	0.05	0.18293	1003.667	0.259
308.15	0.05	0	994.83	0.256
308.15	0.05	0.02549	995.641	0.256
308.15	0.05	0.05465	996.563	0.256
308.15	0.05	0.08165	997.414	0.256
308.15	0.05	0.08711	997.583	0.256
308.15	0.05	0.10591	998.17	0.256
308.15	0.05	0.13692	999.137	0.256
308.15	0.05	0.14142	999.273	0.256
308.15	0.05	0.15315	999.632	0.256
308.15	0.05	0.18293	1000.551	0.257
318.15	0.05	0	991.083	0.256
318.15	0.05	0.02549	991.88	0.256
318.15	0.05	0.05465	992.787	0.256
318.15	0.05	0.08165	993.624	0.256
318.15	0.05	0.08711	993.791	0.256
318.15	0.05	0.10591	994.369	0.256
318.15	0.05	0.13692	995.319	0.256
318.15	0.05	0.14142	995.452	0.256
318.15	0.05	0.15315	995.807	0.256
318.15	0.05	0.18293	996.706	0.256
288.15	0.1	0	1000.95	0.257
288.15	0.1	0.0336	1002.065	0.258
288.15	0.1	0.04959	1002.592	0.258
288.15	0.1	0.07086	1003.291	0.259
288.15	0.1	0.07863	1003.545	0.259
288.15	0.1	0.10117	1004.283	0.26
288.15	0.1	0.10552	1004.422	0.26
288.15	0.1	0.1183	1004.838	0.26
288.15	0.1	0.15492	1006.02	0.261
288.15	0.1	0.18715	1007.054	0.262
298.15	0.1	0	998.637	0.256
298.15	0.1	0.0336	999.717	0.256
298.15	0.1	0.04959	1000.228	0.256
298.15	0.1	0.07086	1000.904	0.257
298.15	0.1	0.07863	1001.148	0.257
298.15	0.1	0.10117	1001.86	0.258
298.15	0.1	0.10552	1001.996	0.258
298.15	0.1	0.1183	1002.396	0.258
298.15	0.1	0.15492	1003.541	0.259
298.15	0.1	0.18715	1004.536	0.26
308.15	0.1	0	995.589	0.256
308.15	0.1	0.0336	996.65	0.256
308.15	0.1	0.04959	997.149	0.256
308.15	0.1	0.07086	997.814	0.256
308.15	0.1	0.07863	998.055	0.256
308.15	0.1	0.10117	998.755	0.256
308.15	0.1	0.10552	998.887	0.256
308.15	0.1	0.1183	999.28	0.256
308.15	0.1	0.15492	1000.4	0.257
308.15	0.1	0.18715	1001.378	0.257
318.15	0.1	0	991.751	0.256
318.15	0.1	0.0336	992.795	0.256
318.15	0.1	0.04959	993.287	0.256
318.15	0.1	0.07086	993.941	0.256
318.15	0.1	0.07863	994.177	0.256
318.15	0.1	0.10117	994.864	0.256
318.15	0.1	0.10552	994.995	0.256
318.15	0.1	0.1183	995.379	0.256
318.15	0.1	0.15492	996.477	0.256
318.15	0.1	0.18715	997.437	0.256
288.15	0.15	0	1001.777	0.258
288.15	0.15	0.03147	1002.816	0.259
288.15	0.15	0.04633	1003.305	0.259
288.15	0.15	0.05572	1003.612	0.259
288.15	0.15	0.07774	1004.334	0.26
288.15	0.15	0.10733	1005.298	0.261
288.15	0.15	0.12141	1005.753	0.261
288.15	0.15	0.14018	1006.358	0.261
288.15	0.15	0.16359	1007.115	0.262
288.15	0.15	0.19587	1008.141	0.263
298.15	0.15	0	999.417	0.256
298.15	0.15	0.03147	1000.425	0.257
298.15	0.15	0.04633	1000.899	0.257
298.15	0.15	0.05572	1001.195	0.257
298.15	0.15	0.07774	1001.894	0.258
298.15	0.15	0.10733	1002.827	0.259
298.15	0.15	0.12141	1003.266	0.259
298.15	0.15	0.14018	1003.849	0.259
298.15	0.15	0.16359	1004.576	0.26
298.15	0.15	0.19587	1005.563	0.261
308.15	0.15	0	996.348	0.256
308.15	0.15	0.03147	997.34	0.256
308.15	0.15	0.04633	997.806	0.256
308.15	0.15	0.05572	998.099	0.256
308.15	0.15	0.07774	998.787	0.256
308.15	0.15	0.10733	999.707	0.256
308.15	0.15	0.12141	1000.141	0.256
308.15	0.15	0.14018	1000.718	0.257
308.15	0.15	0.16359	1001.439	0.257
308.15	0.15	0.19587	1002.422	0.258
318.15	0.15	0	992.439	0.256
318.15	0.15	0.03147	993.416	0.256
318.15	0.15	0.04633	993.876	0.256
318.15	0.15	0.05572	994.165	0.256
318.15	0.15	0.07774	994.842	0.256
318.15	0.15	0.10733	995.749	0.256
318.15	0.15	0.12141	996.174	0.256
318.15	0.15	0.14018	996.744	0.256
318.15	0.15	0.16359	997.448	0.256
318.15	0.15	0.19587	998.418	0.256
288.15	0.2	0	1002.696	0.258
288.15	0.2	0.02553	1003.535	0.259
288.15	0.2	0.05328	1004.441	0.26
288.15	0.2	0.07086	1005.014	0.26
288.15	0.2	0.07863	1005.265	0.261
288.15	0.2	0.10117	1005.995	0.261
288.15	0.2	0.10552	1006.133	0.261
288.15	0.2	0.1183	1006.542	0.262
288.15	0.2	0.15876	1007.834	0.263
288.15	0.2	0.18715	1008.732	0.264
298.15	0.2	0	1000.198	0.256
298.15	0.2	0.02553	1001.012	0.257
298.15	0.2	0.05328	1001.89	0.258
298.15	0.2	0.07086	1002.444	0.258
298.15	0.2	0.07863	1002.688	0.258
298.15	0.2	0.10117	1003.392	0.259
298.15	0.2	0.10552	1003.524	0.259
298.15	0.2	0.1183	1003.924	0.259
298.15	0.2	0.15876	1005.174	0.261
298.15	0.2	0.18715	1006.039	0.261
308.15	0.2	0	997.107	0.256
308.15	0.2	0.02553	997.908	0.256
308.15	0.2	0.05328	998.773	0.256
308.15	0.2	0.07086	999.319	0.256
308.15	0.2	0.07863	999.559	0.256
308.15	0.2	0.10117	1000.254	0.256
308.15	0.2	0.10552	1000.386	0.257
308.15	0.2	0.1183	1000.776	0.257
308.15	0.2	0.15876	1002.013	0.258
308.15	0.2	0.18715	1002.87	0.259
318.15	0.2	0	993.147	0.256
318.15	0.2	0.02553	993.936	0.256
318.15	0.2	0.05328	994.787	0.256
318.15	0.2	0.07086	995.324	0.256
318.15	0.2	0.07863	995.56	0.256
318.15	0.2	0.10117	996.241	0.256
318.15	0.2	0.10552	996.37	0.256
318.15	0.2	0.1183	996.752	0.256
318.15	0.2	0.15876	997.961	0.256
318.15	0.2	0.18715	998.798	0.256

System: DL-2-aminopropanoic acid + water + 3-hydroxypropylammonium formate; phases: Liquid
Fixed: Pressure, kPa = 101.325
Property: Mass density, kg/m3 (Liquid); method: Vibrating tube method
Temperature, K	Solvent: Molality, mol/kg of 3-hydroxypropylammonium formate	Molality, mol/kg of DL-2-aminopropanoic acid	Mass density, kg/m3	uncertainty
288.15	0.05	0.02733	1000.894	0.257
288.15	0.05	0.0426	1001.353	0.257
288.15	0.05	0.0617	1001.923	0.258
288.15	0.05	0.09757	1002.992	0.259
288.15	0.05	0.10527	1003.216	0.259
288.15	0.05	0.12846	1003.898	0.259
288.15	0.05	0.14051	1004.249	0.26
288.15	0.05	0.1638	1004.927	0.26
288.15	0.05	0.21551	1006.427	0.262
298.15	0.05	0.02733	998.664	0.256
298.15	0.05	0.0426	999.113	0.256
298.15	0.05	0.0617	999.673	0.256
298.15	0.05	0.09757	1000.714	0.257
298.15	0.05	0.10527	1000.936	0.257
298.15	0.05	0.12846	1001.601	0.257
298.15	0.05	0.14051	1001.943	0.258
298.15	0.05	0.1638	1002.607	0.258
298.15	0.05	0.21551	1004.065	0.26
308.15	0.05	0.02733	995.617	0.256
308.15	0.05	0.0426	996.053	0.256
308.15	0.05	0.0617	996.596	0.256
308.15	0.05	0.09757	997.61	0.256
308.15	0.05	0.10527	997.825	0.256
308.15	0.05	0.12846	998.474	0.256
308.15	0.05	0.14051	998.811	0.256
308.15	0.05	0.1638	999.455	0.256
308.15	0.05	0.21551	1000.882	0.257
318.15	0.05	0.02733	991.858	0.256
318.15	0.05	0.0426	992.289	0.256
318.15	0.05	0.0617	992.826	0.256
318.15	0.05	0.09757	993.829	0.256
318.15	0.05	0.10527	994.043	0.256
318.15	0.05	0.12846	994.687	0.256
318.15	0.05	0.14051	995.019	0.256
318.15	0.05	0.1638	995.66	0.256
318.15	0.05	0.21551	997.074	0.256
288.15	0.1	0.03588	1002.025	0.258
288.15	0.1	0.04581	1002.319	0.258
288.15	0.1	0.07743	1003.256	0.259
288.15	0.1	0.07697	1003.241	0.259
288.15	0.1	0.10578	1004.089	0.26
288.15	0.1	0.11992	1004.502	0.26
288.15	0.1	0.14683	1005.288	0.261
288.15	0.1	0.17541	1006.115	0.261
288.15	0.1	0.18751	1006.464	0.262
298.15	0.1	0.03588	999.69	0.256
298.15	0.1	0.04581	999.98	0.256
298.15	0.1	0.07743	1000.901	0.257
298.15	0.1	0.07697	1000.886	0.257
298.15	0.1	0.10578	1001.719	0.258
298.15	0.1	0.11992	1002.126	0.258
298.15	0.1	0.14683	1002.898	0.259
298.15	0.1	0.17541	1003.713	0.259
298.15	0.1	0.18751	1004.056	0.26
308.15	0.1	0.03588	996.611	0.256
308.15	0.1	0.04581	996.892	0.256
308.15	0.1	0.07743	997.783	0.256
308.15	0.1	0.07697	997.768	0.256
308.15	0.1	0.10578	998.573	0.256
308.15	0.1	0.11992	998.966	0.256
308.15	0.1	0.14683	999.707	0.256
308.15	0.1	0.17541	1000.493	0.257
308.15	0.1	0.18751	1000.824	0.257
318.15	0.1	0.03588	992.761	0.256
318.15	0.1	0.04581	993.039	0.256
318.15	0.1	0.07743	993.92	0.256
318.15	0.1	0.07697	993.905	0.256
318.15	0.1	0.10578	994.704	0.256
318.15	0.1	0.11992	995.09	0.256
318.15	0.1	0.14683	995.828	0.256
318.15	0.1	0.17541	996.603	0.256
318.15	0.1	0.18751	996.928	0.256
288.15	0.15	0.03985	1002.966	0.259
288.15	0.15	0.05831	1003.513	0.259
288.15	0.15	0.06215	1003.625	0.259
288.15	0.15	0.07843	1004.106	0.26
288.15	0.15	0.10418	1004.862	0.26
288.15	0.15	0.14333	1006.005	0.261
288.15	0.15	0.16584	1006.656	0.262
288.15	0.15	0.18109	1007.096	0.262
288.15	0.15	0.21066	1007.943	0.263
298.15	0.15	0.03985	1000.58	0.257
298.15	0.15	0.05831	1001.117	0.257
298.15	0.15	0.06215	1001.227	0.257
298.15	0.15	0.07843	1001.697	0.258
298.15	0.15	0.10418	1002.438	0.258
298.15	0.15	0.14333	1003.556	0.259
298.15	0.15	0.16584	1004.197	0.26
298.15	0.15	0.18109	1004.624	0.26
298.15	0.15	0.21066	1005.458	0.261
308.15	0.15	0.03985	997.478	0.256
308.15	0.15	0.05831	997.997	0.256
308.15	0.15	0.06215	998.104	0.256
308.15	0.15	0.07843	998.559	0.256
308.15	0.15	0.10418	999.278	0.256
308.15	0.15	0.14333	1000.362	0.256
308.15	0.15	0.16584	1000.98	0.257
308.15	0.15	0.18109	1001.397	0.257
308.15	0.15	0.21066	1002.203	0.258
318.15	0.15	0.03985	993.552	0.256
318.15	0.15	0.05831	994.064	0.256
318.15	0.15	0.06215	994.169	0.256
318.15	0.15	0.07843	994.618	0.256
318.15	0.15	0.10418	995.324	0.256
318.15	0.15	0.14333	996.388	0.256
318.15	0.15	0.16584	996.997	0.256
318.15	0.15	0.18109	997.405	0.256
318.15	0.15	0.21066	998.199	0.256
288.15	0.2	0.03983	1003.878	0.259
288.15	0.2	0.06304	1004.559	0.26
288.15	0.2	0.07205	1004.822	0.26
288.15	0.2	0.07464	1004.897	0.26
288.15	0.2	0.10179	1005.688	0.261
288.15	0.2	0.11078	1005.945	0.261
288.15	0.2	0.13948	1006.774	0.262
288.15	0.2	0.1649	1007.5	0.262
288.15	0.2	0.18451	1008.048	0.263
298.15	0.2	0.03983	1001.356	0.257
298.15	0.2	0.06304	1002.026	0.258
298.15	0.2	0.07205	1002.286	0.258
298.15	0.2	0.07464	1002.358	0.258
298.15	0.2	0.10179	1003.134	0.259
298.15	0.2	0.11078	1003.389	0.259
298.15	0.2	0.13948	1004.204	0.26
298.15	0.2	0.1649	1004.922	0.26
298.15	0.2	0.18451	1005.469	0.261
308.15	0.2	0.03983	998.229	0.256
308.15	0.2	0.06304	998.878	0.256
308.15	0.2	0.07205	999.129	0.256
308.15	0.2	0.07464	999.199	0.256
308.15	0.2	0.10179	999.951	0.256
308.15	0.2	0.11078	1000.197	0.256
308.15	0.2	0.13948	1000.986	0.257
308.15	0.2	0.1649	1001.678	0.258
308.15	0.2	0.18451	1002.211	0.258
318.15	0.2	0.03983	994.255	0.256
318.15	0.2	0.06304	994.896	0.256
318.15	0.2	0.07205	995.144	0.256
318.15	0.2	0.07464	995.214	0.256
318.15	0.2	0.10179	995.958	0.256
318.15	0.2	0.11078	996.202	0.256
318.15	0.2	0.13948	996.982	0.256
318.15	0.2	0.1649	997.669	0.256
318.15	0.2	0.18451	998.196	0.256
