Measured thermophysical data. (Liquid + liquid) equilibria of the (water + carboxylic acid + dibasic esters mixture (DBE-2)) ternary systems
Source: Fluid Phase Equilib., 2014, 10.1016/j.fluid.2014.03.002
Compound 1: formic acid, CH2O2, InChI=1S/CH2O2/c2-1-3/h1H,(H,2,3), purity 98%
Compound 2: acetic acid, C2H4O2, InChI=1S/C2H4O2/c1-2(3)4/h1H3,(H,3,4), purity 99%
Compound 3: propanoic acid, C3H6O2, InChI=1S/C3H6O2/c1-2-3(4)5/h2H2,1H3,(H,4,5), purity 99%
Compound 4: water, H2O, InChI=1S/H2O/h1H2
Compound 5: dimethyl 1,6-hexanedioate, C8H14O4, InChI=1S/C8H14O4/c1-11-7(9)5-3-4-6-8(10)12-2/h3-6H2,1-2H3, purity 98%
Compound 6: dimethyl pentanedioate, C7H12O4, InChI=1S/C7H12O4/c1-10-6(8)4-3-5-7(9)11-2/h3-5H2,1-2H3, purity 98%

System: formic acid; phases: Liquid
Property: Mass density, kg/m3 (Liquid); method: Vibrating tube method
Temperature, K	Pressure, kPa	Mass density, kg/m3	uncertainty
298.2	101.325	1220.04	6.12

System: formic acid; phases: Liquid
Property: Refractive index (Na D-line) (Liquid); method: Standard Abbe refractometry
Temperature, K	Pressure, kPa	Refractive index (Na D-line)	uncertainty
298.2	101.325	1.37144	0.00078

System: formic acid; phases: Liquid, Gas
Property: Boiling temperature at pressure P, K (Liquid); method: Distillation
Pressure, kPa	Boiling temperature at pressure P, K	uncertainty
101.325	374.4	0.3

System: acetic acid; phases: Liquid
Property: Mass density, kg/m3 (Liquid); method: Vibrating tube method
Temperature, K	Pressure, kPa	Mass density, kg/m3	uncertainty
298.2	101.325	1049.42	6.01

System: acetic acid; phases: Liquid
Property: Refractive index (Na D-line) (Liquid); method: Standard Abbe refractometry
Temperature, K	Pressure, kPa	Refractive index (Na D-line)	uncertainty
298.2	101.325	1.37135	0.0007

System: acetic acid; phases: Liquid, Gas
Property: Boiling temperature at pressure P, K (Liquid); method: Distillation
Pressure, kPa	Boiling temperature at pressure P, K	uncertainty
101.325	391.2	0.3

System: propanoic acid; phases: Liquid
Property: Mass density, kg/m3 (Liquid); method: Vibrating tube method
Temperature, K	Pressure, kPa	Mass density, kg/m3	uncertainty
298.2	101.325	988.04	6

System: propanoic acid; phases: Liquid
Property: Refractive index (Na D-line) (Liquid); method: Standard Abbe refractometry
Temperature, K	Pressure, kPa	Refractive index (Na D-line)	uncertainty
298.2	101.325	1.38083	0.0007

System: propanoic acid; phases: Liquid, Gas
Property: Boiling temperature at pressure P, K (Liquid); method: Distillation
Pressure, kPa	Boiling temperature at pressure P, K	uncertainty
101.325	414.5	0.3

System: water; phases: Liquid
Property: Mass density, kg/m3 (Liquid); method: Vibrating tube method
Temperature, K	Pressure, kPa	Mass density, kg/m3	uncertainty
298.2	101.325	998.21	6

System: water; phases: Liquid
Property: Refractive index (Na D-line) (Liquid); method: Standard Abbe refractometry
Temperature, K	Pressure, kPa	Refractive index (Na D-line)	uncertainty
298.2	101.325	1.33244	0.00068

System: water; phases: Liquid, Gas
Property: Boiling temperature at pressure P, K (Liquid); method: Distillation
Pressure, kPa	Boiling temperature at pressure P, K	uncertainty
101.325	373.2	0.3

System: dimethyl 1,6-hexanedioate + dimethyl pentanedioate; phases: Liquid
Property: Mass density, kg/m3 (Liquid); method: Vibrating tube method
Mass fraction of dimethyl 1,6-hexanedioate	Temperature, K	Pressure, kPa	Mass density, kg/m3	uncertainty
0.2603	298.2	101.325	1081.2	1

System: dimethyl 1,6-hexanedioate + dimethyl pentanedioate; phases: Liquid
Property: Refractive index (Na D-line) (Liquid); method: Standard Abbe refractometry
Mass fraction of dimethyl 1,6-hexanedioate	Temperature, K	Pressure, kPa	Refractive index (Na D-line)	uncertainty
0.2603	298.2	101.325	1.42546	0.00078

System: dimethyl 1,6-hexanedioate + dimethyl pentanedioate; phases: Liquid, Gas
Property: Boiling temperature at pressure P, K (Liquid); method: Closed cell (Static) method
Mass fraction of dimethyl 1,6-hexanedioate	Pressure, kPa	Boiling temperature at pressure P, K	uncertainty
0.2603	101.325	462.5	0.3
