Measured thermophysical data. Bubble point pressures of binary system of methanol and methyl propionate
Source: Fluid Phase Equilib., 2016, 10.1016/j.fluid.2016.02.036
Compound 1: methanol, CH4O, InChI=1S/CH4O/c1-2/h2H,1H3, purity 99.8%
Compound 2: methyl propanoate, C4H8O2, InChI=1S/C4H8O2/c1-3-4(5)6-2/h3H2,1-2H3, purity 99.8%

System: methanol + methyl propanoate; phases: Liquid, Gas
Property: Vapor or sublimation pressure, kPa (Liquid); method: Closed cell (Static) method
Temperature, K	Mole fraction of methanol	Vapor or sublimation pressure, kPa	uncertainty
402.94	0	437	6
408.11	0	495	6
413.27	0	555	6
418.68	0	628	6
423.61	0	698	6
433.97	0	863	7
444.51	0	1064	7
392.62	0.1648	457	8
397.61	0.1648	517	7
402.75	0.1648	585	10
413.19	0.1648	740	12
423.74	0.1648	928	14
434.27	0.1648	1149	17
444.6	0.1648	1402	21
387.47	0.2927	457	7
392.59	0.2927	522	7
402.81	0.2927	670	8
413.73	0.2927	862	10
423.88	0.2927	1073	11
434.14	0.2927	1328	14
444.76	0.2927	1631	17
382.41	0.5047	449	6
392.95	0.5047	597	7
402.88	0.5047	767	8
413.69	0.5047	993	9
423.89	0.5047	1251	10
434.29	0.5047	1551	12
444.69	0.5047	1929	15
382.15	0.6988	475	6
392.69	0.6988	633	7
403.08	0.6988	831	7
413.82	0.6988	1079	8
424.14	0.6988	1369	9
434.62	0.6988	1727	11
444.77	0.6988	2133	13
381.67	0.8571	475	6
391.99	0.8571	635	6
402.36	0.8571	836	7
412.76	0.8571	1087	7
423.27	0.8571	1394	8
433.72	0.8571	1767	10
444.13	0.8571	2228	11
382.39	0.9547	480	6
392.68	0.9547	640	6
402.95	0.9547	845	7
413.5	0.9547	1109	7
424.22	0.9547	1436	8
434.7	0.9547	1827	9
444.88	0.9547	2285	10
391.86	1	619	6
402.26	1	824	7
413.05	1	1089	7
423.45	1	1407	8
434.11	1	1802	9
444.52	1	2270	10
