Measured thermophysical data. Solid-liquid phase equilibrium study of binary mixtures of n-octadecane with capric, and lauric acid as phase change materials (PCMs)
Source: Fluid Phase Equilib., 2014, 10.1016/j.fluid.2014.04.020
Compound 1: octadecane, C18H38, InChI=1S/C18H38/c1-3-5-7-9-11-13-15-17-18-16-14-12-10-8-6-4-2/h3-18H2,1-2H3, purity 99%
Compound 2: decanoic acid, C10H20O2, InChI=1S/C10H20O2/c1-2-3-4-5-6-7-8-9-10(11)12/h2-9H2,1H3,(H,11,12), purity 99%
Compound 3: dodecanoic acid, C12H24O2, InChI=1S/C12H24O2/c1-2-3-4-5-6-7-8-9-10-11-12(13)14/h2-11H2,1H3,(H,13,14), purity 99%

System: octadecane; phases: Crystal, Liquid, Gas
Property: Molar enthalpy of transition or fusion, kJ/mol (Crystal); method: DSC
Molar enthalpy of transition or fusion, kJ/mol	uncertainty
61.65	2.73

System: octadecane; phases: Crystal, Liquid, Air at 1 atmosphere
Property: Normal melting temperature, K (Crystal); method: DTA
Normal melting temperature, K	uncertainty
300.95	0.53

System: decanoic acid; phases: Crystal, Liquid, Gas
Property: Molar enthalpy of transition or fusion, kJ/mol (Crystal); method: DSC
Molar enthalpy of transition or fusion, kJ/mol	uncertainty
27.22	1.22

System: decanoic acid; phases: Crystal, Liquid, Air at 1 atmosphere
Property: Normal melting temperature, K (Crystal); method: DTA
Normal melting temperature, K	uncertainty
304.25	0.53

System: dodecanoic acid; phases: Crystal, Liquid, Gas
Property: Molar enthalpy of transition or fusion, kJ/mol (Crystal); method: DSC
Molar enthalpy of transition or fusion, kJ/mol	uncertainty
35.46	1.58

System: dodecanoic acid; phases: Crystal, Liquid, Air at 1 atmosphere
Property: Normal melting temperature, K (Crystal); method: DTA
Normal melting temperature, K	uncertainty
316.15	0.53

System: decanoic acid + octadecane; phases: Crystal, Crystal, Liquid, Air at 1 atmosphere
Property: Eutectic temperature, K (Crystal); method: DTA
Eutectic temperature, K	uncertainty
295.05	1

System: decanoic acid + octadecane; phases: Crystal, Crystal, Liquid, Air at 1 atmosphere
Property: Eutectic composition: mole fraction of octadecane (Crystal); method: Derived from phase diagram analysis
Eutectic composition: mole fraction of octadecane	uncertainty
0.412	0.003

System: decanoic acid + octadecane; phases: Liquid, Crystal
Fixed: Pressure, kPa = 101
Property: Solid-liquid equilibrium temperature, K (Liquid); method: DTA
Mole fraction of octadecane	Solid-liquid equilibrium temperature, K	uncertainty
1	300.95	1.06
0.9466	300.3	1.06
0.9008	299.8	1.06
0.8226	298.9	1.06
0.752	298.1	1.06
0.7006	297.55	1.06
0.6242	296.85	1.06
0.5708	296.4	1.06
0.4849	295.55	1.06

System: decanoic acid + octadecane; phases: Liquid, Crystal
Fixed: Pressure, kPa = 101
Property: Solid-liquid equilibrium temperature, K (Liquid); method: DTA
Mole fraction of octadecane	Solid-liquid equilibrium temperature, K	uncertainty
0.3668	295.8	1.06
0.2867	297.35	1.06
0.2294	298.6	1.06
0.1399	300.6	1.06
0.06218	302.35	1.06
0	304.25	1.06

System: dodecanoic acid + octadecane; phases: Crystal, Crystal, Liquid, Air at 1 atmosphere
Property: Eutectic temperature, K (Crystal); method: DTA
Eutectic temperature, K	uncertainty
298.1	1

System: dodecanoic acid + octadecane; phases: Crystal, Crystal, Liquid, Air at 1 atmosphere
Property: Eutectic composition: mole fraction of octadecane (Crystal); method: Derived from phase diagram analysis
Eutectic composition: mole fraction of octadecane	uncertainty
0.704	0.002

System: dodecanoic acid + octadecane; phases: Liquid, Crystal
Fixed: Pressure, kPa = 101
Property: Solid-liquid equilibrium temperature, K (Liquid); method: DTA
Mole fraction of octadecane	Solid-liquid equilibrium temperature, K	uncertainty
1	300.95	1.06
0.944	300.3	1.06
0.8698	299.45	1.06
0.8002	298.6	1.06

System: dodecanoic acid + octadecane; phases: Liquid, Crystal
Fixed: Pressure, kPa = 101
Property: Solid-liquid equilibrium temperature, K (Liquid); method: DTA
Mole fraction of octadecane	Solid-liquid equilibrium temperature, K	uncertainty
0.6216	300.85	1.06
0.5728	302.75	1.06
0.531	303.7	1.06
0.4985	304.5	1.06
0.4173	307.2	1.06
0.3478	309	1.06
0.2688	310.35	1.06
0.1945	311.75	1.06
0.118	313.55	1.06
0.05532	314.8	1.06
0	316.15	1.06
