Measured thermophysical data. The co-solubility of 2-ethylhexanoic acid and some liquid alcohols in supercritical carbon dioxide
Source: Fluid Phase Equilib., 2005, 10.1016/j.fluid.2005.09.023
Compound 1: carbon dioxide, CO2, InChI=1S/CO2/c2-1-3, purity 99.95%
Compound 2: butan-1-ol, C4H10O, InChI=1S/C4H10O/c1-2-3-4-5/h5H,2-4H2,1H3
Compound 3: pentan-1-ol, C5H12O, InChI=1S/C5H12O/c1-2-3-4-5-6/h6H,2-5H2,1H3
Compound 4: 2-ethyl-1-hexanol, C8H18O, InChI=1S/C8H18O/c1-3-5-6-8(4-2)7-9/h8-9H,3-7H2,1-2H3
Compound 5: decan-1-ol, C10H22O, InChI=1S/C10H22O/c1-2-3-4-5-6-7-8-9-10-11/h11H,2-10H2,1H3
Compound 6: 2-ethylhexanoic acid, C8H16O2, InChI=1S/C8H16O2/c1-3-5-6-7(4-2)8(9)10/h7H,3-6H2,1-2H3,(H,9,10)

System: butan-1-ol + carbon dioxide; phases: Gas, Liquid
Fixed: Temperature, K = 323
Property: Mole fraction of butan-1-ol (Gas); method: Chromatography
Pressure, kPa	Mole fraction of butan-1-ol	uncertainty
7500	0.004	0.0008
8500	0.0065	0.0013
9500	0.0133	0.0027
10000	0.0223	0.0045
11000	0.1221	0.0244
12000	0.1544	0.0309
13000	0.1711	0.0343
14000	0.1823	0.0365

System: decan-1-ol + carbon dioxide; phases: Gas, Liquid
Fixed: Temperature, K = 323
Property: Mole fraction of decan-1-ol (Gas); method: Chromatography
Pressure, kPa	Mole fraction of decan-1-ol	uncertainty
9000	0.00107	0.00021
10000	0.00162	0.00032
11000	0.0105	0.0021
12000	0.01183	0.00237
13000	0.01307	0.00262
16000	0.01652	0.00331
18000	0.01882	0.00377

System: butan-1-ol + carbon dioxide + 2-ethylhexanoic acid; phases: Gas, Liquid
Fixed: Temperature, K = 323
Property: Mole fraction of 2-ethylhexanoic acid (Gas); method: Chromatography
Pressure, kPa	Mole fraction of butan-1-ol	Mole fraction of 2-ethylhexanoic acid	uncertainty
10000	0.0014	0.0008	0.0002
11000	0.0034	0.002	0.0004
12000	0.0222	0.025	0.0059
13000	0.055	0.0503	0.0102
14000	0.0462	0.0506	0.0101
16000	0.0572	0.0612	0.0127
18000	0.0513	0.0556	0.0173

System: pentan-1-ol + carbon dioxide + 2-ethylhexanoic acid; phases: Gas, Liquid
Fixed: Temperature, K = 323
Property: Mole fraction of 2-ethylhexanoic acid (Gas); method: Chromatography
Pressure, kPa	Mole fraction of pentan-1-ol	Mole fraction of 2-ethylhexanoic acid	uncertainty
10000	0.0018	0.0006	0.0002
11000	0.0049	0.002	0.0005
12000	0.0203	0.0177	0.0046
13000	0.0545	0.0595	0.0153
14000	0.0642	0.0646	0.0129
16000	0.0572	0.0613	0.0126
18000	0.0548	0.0539	0.0119

System: 2-ethyl-1-hexanol + carbon dioxide + 2-ethylhexanoic acid; phases: Gas, Liquid
Fixed: Temperature, K = 313
Property: Mole fraction of 2-ethylhexanoic acid (Gas); method: Chromatography
Pressure, kPa	Mole fraction of 2-ethyl-1-hexanol	Mole fraction of 2-ethylhexanoic acid	uncertainty
9900	0.021	0.0206	0.0041
11000	0.02	0.0212	0.0043
12000	0.0218	0.0213	0.0048
12600	0.0224	0.0221	0.0049
13500	0.0281	0.0276	0.0062
14400	0.0295	0.0292	0.0079
15300	0.0297	0.0285	0.0068
18000	0.0259	0.0238	0.0054

System: decan-1-ol + carbon dioxide + 2-ethylhexanoic acid; phases: Gas, Liquid
Fixed: Temperature, K = 323
Property: Mole fraction of 2-ethylhexanoic acid (Gas); method: Chromatography
Pressure, kPa	Mole fraction of decan-1-ol	Mole fraction of 2-ethylhexanoic acid	uncertainty
10000	0.00038	0.0003	6e-05
11000	0.00073	0.00081	0.00016
12000	0.00172	0.00273	0.00055
13000	0.00369	0.00655	0.00136
14000	0.00832	0.01355	0.00273
16000	0.02322	0.02708	0.00548
18000	0.02983	0.03224	0.00645
