Measured thermophysical data. Solubility of carbon dioxide in three [Tf2N] ionic liquids
Source: Fluid Phase Equilib., 2014, 10.1016/j.fluid.2014.07.015
Compound 1: carbon dioxide, CO2, InChI=1S/CO2/c2-1-3, purity 99.99%
Compound 2: 1-pentyl-1-methylpyrrolidinium 1,1,1-trifluoro-N-[(trifluoromethyl)sulfonyl]methanesulfonamide, C12H22F6N2O4S2, InChI=1S/C10H22N.C2F6NO4S2/c1-3-4-5-8-11(2)9-6-7-10-11;3-1(4,5)14(10,11)9-15(12,13)2(6,7)8/h3-10H2,1-2H3;/q+1;-1, purity 99.9%
Compound 3: Tributylmethylphosphonium bis[(trifluoromethyl)sulfonyl]imide, C15H30F6NO4PS2, InChI=1S/C13H30P.C2F6NO4S2/c1-5-8-11-14(4,12-9-6-2)13-10-7-3;3-1(4,5)14(10,11)9-15(12,13)2(6,7)8/h5-13H2,1-4H3;/q+1;-1, purity 98%
Compound 4: 1-butyl-2,3-dimethyl-1H-imidazolium bis(trifluoromethylsulfonyl)amide, C11H17F6N3O4S2, InChI=1S/C9H17N2.C2F6NO4S2/c1-4-5-6-11-8-7-10(3)9(11)2;3-1(4,5)14(10,11)9-15(12,13)2(6,7)8/h7-8H,4-6H2,1-3H3;/q+1;-1, purity 99.9%

System: 1-pentyl-1-methylpyrrolidinium 1,1,1-trifluoro-N-[(trifluoromethyl)sulfonyl]methanesulfonamide; phases: Liquid
Fixed: Pressure, kPa = 101.325
Property: Mass density, kg/m3 (Liquid); method: Vibrating tube method
Temperature, K	Mass density, kg/m3	uncertainty
278.15	1377.19	0.26
283.15	1372.75	0.26
288.15	1368.48	0.26
293.15	1364.21	0.26
298.15	1359.92	0.25
303.15	1355.65	0.25
308.15	1351.39	0.25
313.15	1347.14	0.25
318.15	1342.89	0.25
323.15	1338.67	0.25
328.15	1334.46	0.25
333.15	1330.25	0.25
338.15	1326.07	0.24
343.15	1321.9	0.24
348.15	1317.73	0.24
353.15	1313.59	0.24

System: Tributylmethylphosphonium bis[(trifluoromethyl)sulfonyl]imide; phases: Liquid
Fixed: Pressure, kPa = 101.325
Property: Mass density, kg/m3 (Liquid); method: Vibrating tube method
Temperature, K	Mass density, kg/m3	uncertainty
278.15	1270.8	1.45
283.15	1266.52	1.44
288.15	1262.25	1.43
293.15	1257.99	1.42
298.15	1253.72	1.41
303.15	1249.58	1.4
308.15	1245.46	1.39
313.15	1241.32	1.38
318.15	1237.2	1.37
323.15	1233.09	1.36
328.15	1228.98	1.35
333.15	1224.88	1.34
338.15	1220.79	1.33
343.15	1216.71	1.32
348.15	1212.65	1.31
353.15	1208.59	1.3

System: 1-butyl-2,3-dimethyl-1H-imidazolium bis(trifluoromethylsulfonyl)amide; phases: Liquid
Fixed: Pressure, kPa = 101.325
Property: Mass density, kg/m3 (Liquid); method: Vibrating tube method
Temperature, K	Mass density, kg/m3	uncertainty
278.15	1437.39	0.29
283.15	1432.61	0.28
288.15	1427.91	0.28
293.15	1423.31	0.28
298.15	1418.69	0.28
303.15	1414.07	0.28
308.15	1409.46	0.28
313.15	1404.86	0.27
318.15	1400.25	0.27
323.15	1395.67	0.27
328.15	1391.1	0.27
333.15	1386.54	0.27
338.15	1381.98	0.27
343.15	1377.44	0.27
348.15	1372.92	0.26
353.15	1368.39	0.26

System: carbon dioxide + 1-butyl-2,3-dimethyl-1H-imidazolium bis(trifluoromethylsulfonyl)amide; phases: Gas, Liquid
Property: Mole fraction of carbon dioxide (Gas); method: Chromatography
Temperature, K	Pressure, kPa	Mole fraction of carbon dioxide	uncertainty
298.15	10	0.002	0.002
298.15	50	0.014	0.012
298.15	99.9	0.028	0.012
298.15	200	0.054	0.012
298.15	300.2	0.08	0.012
298.15	500.1	0.127	0.012
298.15	699.7	0.171	0.012
298.15	999.8	0.231	0.012
298.15	1199.8	0.268	0.012
298.15	1499.9	0.32	0.012
298.15	1700	0.352	0.012
298.15	1899.7	0.382	0.012
313.15	10	0.003	0.003
313.15	50	0.011	0.011
313.15	99.9	0.021	0.012
313.15	200	0.042	0.012
313.15	300.2	0.063	0.012
313.15	500.1	0.1	0.012
313.15	699.7	0.136	0.012
313.15	999.8	0.185	0.012
313.15	1199.8	0.216	0.012
313.15	1499.9	0.259	0.012
313.15	1700	0.286	0.012
313.15	1899.7	0.311	0.012
343.15	9.9	0.002	0.002
343.15	50.1	0.006	0.006
343.15	99.8	0.013	0.012
343.15	200.3	0.028	0.012
343.15	299.7	0.04	0.012
343.15	500	0.066	0.012
343.15	699.7	0.09	0.012
343.15	999.6	0.125	0.012
343.15	1199.8	0.144	0.012
343.15	1499.7	0.173	0.012
343.15	1700	0.193	0.012
343.15	1899.7	0.211	0.012

System: carbon dioxide + 1-pentyl-1-methylpyrrolidinium 1,1,1-trifluoro-N-[(trifluoromethyl)sulfonyl]methanesulfonamide; phases: Gas, Liquid
Property: Mole fraction of carbon dioxide (Gas); method: Chromatography
Temperature, K	Pressure, kPa	Mole fraction of carbon dioxide	uncertainty
298.15	9.7	0.003	0.003
298.15	50	0.016	0.012
298.15	99.9	0.031	0.012
298.15	199.6	0.06	0.012
298.15	299.9	0.088	0.012
298.15	500	0.14	0.012
298.15	699.8	0.251	0.012
298.15	999.8	0.29	0.012
298.15	1200.1	0.343	0.012
298.15	1499.9	0.343	0.012
298.15	1699.9	0.376	0.012
298.15	1899.8	0.406	0.013
313.15	9.7	0.003	0.003
313.15	49.8	0.012	0.012
313.15	100	0.024	0.012
313.15	200.3	0.048	0.012
313.15	300	0.071	0.012
313.15	500	0.112	0.012
313.15	699.8	0.15	0.012
313.15	1000.3	0.203	0.012
313.15	1200	0.235	0.012
313.15	1500	0.279	0.012
313.15	1699.5	0.307	0.012
313.15	1900.2	0.333	0.012
343.15	9.7	0.002	0.002
343.15	50	0.007	0.007
343.15	99.8	0.015	0.012
343.15	199.9	0.031	0.012
343.15	299.9	0.045	0.012
343.15	499.9	0.072	0.012
343.15	699.8	0.097	0.012
343.15	999.7	0.133	0.012
343.15	1199.6	0.154	0.012
343.15	1499.9	0.185	0.012
343.15	1699.8	0.206	0.012
343.15	1899.4	0.218	0.012

System: carbon dioxide + Tributylmethylphosphonium bis[(trifluoromethyl)sulfonyl]imide; phases: Gas, Liquid
Property: Mole fraction of carbon dioxide (Gas); method: Chromatography
Temperature, K	Pressure, kPa	Mole fraction of carbon dioxide	uncertainty
298.15	9.9	0.003	0.003
298.15	49.8	0.015	0.012
298.15	99.8	0.029	0.012
298.15	200	0.057	0.012
298.15	299.9	0.083	0.012
298.15	499.9	0.131	0.012
298.15	699.8	0.176	0.012
298.15	1000.1	0.238	0.012
298.15	1199.8	0.276	0.012
298.15	1500.1	0.329	0.013
298.15	1700.1	0.362	0.013
298.15	1899.9	0.393	0.013
313.15	9.9	0.003	0.003
313.15	49.9	0.012	0.012
313.15	99.9	0.022	0.012
313.15	200.1	0.045	0.012
313.15	299.8	0.067	0.012
313.15	499.9	0.106	0.012
313.15	700.1	0.143	0.012
313.15	999.7	0.195	0.012
313.15	1199.8	0.227	0.012
313.15	1500.4	0.272	0.012
313.15	1699.8	0.3	0.012
313.15	1899.5	0.326	0.013
343.15	9.9	0.003	0.003
343.15	50.1	0.007	0.007
343.15	99.8	0.015	0.012
343.15	200.3	0.032	0.012
343.15	299.7	0.047	0.012
343.15	500	0.074	0.012
343.15	699.7	0.099	0.012
343.15	999.6	0.136	0.012
343.15	1199.8	0.157	0.012
343.15	1499.7	0.191	0.012
343.15	1700	0.211	0.012
343.15	1899.7	0.23	0.012
