Measured thermophysical data. Critical temperatures and pressures of straight-chain alkanediols (C3 to C12)
Source: Fluid Phase Equilib., 2013, 10.1016/j.fluid.2013.06.048
Compound 1: propan-1,3-diol, C3H8O2, InChI=1S/C3H8O2/c4-2-1-3-5/h4-5H,1-3H2, purity 99.9%
Compound 2: 1,4-butanediol, C4H10O2, InChI=1S/C4H10O2/c5-3-1-2-4-6/h5-6H,1-4H2, purity 99.9%
Compound 3: 1,5-pentanediol, C5H12O2, InChI=1S/C5H12O2/c6-4-2-1-3-5-7/h6-7H,1-5H2, purity 99.9%
Compound 4: 1,6-hexanediol, C6H14O2, InChI=1S/C6H14O2/c7-5-3-1-2-4-6-8/h7-8H,1-6H2, purity 99.9%
Compound 5: 1,8-octanediol, C8H18O2, InChI=1S/C8H18O2/c9-7-5-3-1-2-4-6-8-10/h9-10H,1-8H2, purity 99.9%
Compound 6: 1,9-nonanediol, C9H20O2, InChI=1S/C9H20O2/c10-8-6-4-2-1-3-5-7-9-11/h10-11H,1-9H2, purity 99.9%
Compound 7: 1,10-decanediol, C10H22O2, InChI=1S/C10H22O2/c11-9-7-5-3-1-2-4-6-8-10-12/h11-12H,1-10H2, purity 99.8%
Compound 8: 1,12-dihydroxydodecane, C12H26O2, InChI=1S/C12H26O2/c13-11-9-7-5-3-1-2-4-6-8-10-12-14/h13-14H,1-12H2, purity 99.9%

System: propan-1,3-diol; phases: Liquid, Gas
Property: Critical temperature, K (Liquid); method: pulse-heating method
Critical temperature, K	uncertainty
721	24

System: propan-1,3-diol; phases: Liquid, Gas
Property: Critical temperature, K (Liquid); method: pulse-heating method
Critical temperature, K	uncertainty
722	24

System: propan-1,3-diol; phases: Liquid, Gas
Property: Critical temperature, K (Liquid); method: pulse-heating method
Critical temperature, K	uncertainty
718.2	24

System: propan-1,3-diol; phases: Liquid, Gas
Property: Critical pressure, kPa (Liquid); method: pulse-heating method
Critical pressure, kPa	uncertainty
6380	160

System: propan-1,3-diol; phases: Liquid, Gas
Property: Critical pressure, kPa (Liquid); method: pulse-heating method
Critical pressure, kPa	uncertainty
6300	200

System: propan-1,3-diol; phases: Liquid, Gas
Property: Critical pressure, kPa (Liquid); method: pulse-heating method
Critical pressure, kPa	uncertainty
6550	160

System: 1,4-butanediol; phases: Liquid, Gas
Property: Critical temperature, K (Liquid); method: pulse-heating method
Critical temperature, K	uncertainty
728	24

System: 1,4-butanediol; phases: Liquid, Gas
Property: Critical temperature, K (Liquid); method: pulse-heating method
Critical temperature, K	uncertainty
727	24

System: 1,4-butanediol; phases: Liquid, Gas
Property: Critical temperature, K (Liquid); method: pulse-heating method
Critical temperature, K	uncertainty
723.8	24

System: 1,4-butanediol; phases: Liquid, Gas
Property: Critical pressure, kPa (Liquid); method: pulse-heating method
Critical pressure, kPa	uncertainty
5400	160

System: 1,4-butanediol; phases: Liquid, Gas
Property: Critical pressure, kPa (Liquid); method: pulse-heating method
Critical pressure, kPa	uncertainty
6220	160

System: 1,4-butanediol; phases: Liquid, Gas
Property: Critical pressure, kPa (Liquid); method: pulse-heating method
Critical pressure, kPa	uncertainty
5520	160

System: 1,5-pentanediol; phases: Liquid, Gas
Property: Critical temperature, K (Liquid); method: pulse-heating method
Critical temperature, K	uncertainty
731	24

System: 1,5-pentanediol; phases: Liquid, Gas
Property: Critical pressure, kPa (Liquid); method: pulse-heating method
Critical pressure, kPa	uncertainty
4000	160

System: 1,6-hexanediol; phases: Liquid, Gas
Property: Critical temperature, K (Liquid); method: pulse-heating method
Critical temperature, K	uncertainty
734	24

System: 1,6-hexanediol; phases: Liquid, Gas
Property: Critical temperature, K (Liquid); method: pulse-heating method
Critical temperature, K	uncertainty
740.8	24

System: 1,6-hexanediol; phases: Liquid, Gas
Property: Critical pressure, kPa (Liquid); method: pulse-heating method
Critical pressure, kPa	uncertainty
3400	160

System: 1,6-hexanediol; phases: Liquid, Gas
Property: Critical pressure, kPa (Liquid); method: pulse-heating method
Critical pressure, kPa	uncertainty
4080	160

System: 1,8-octanediol; phases: Liquid, Gas
Property: Critical temperature, K (Liquid); method: pulse-heating method
Critical temperature, K	uncertainty
752	24

System: 1,8-octanediol; phases: Liquid, Gas
Property: Critical pressure, kPa (Liquid); method: pulse-heating method
Critical pressure, kPa	uncertainty
2700	160

System: 1,9-nonanediol; phases: Liquid, Gas
Property: Critical temperature, K (Liquid); method: pulse-heating method
Critical temperature, K	uncertainty
760	24

System: 1,9-nonanediol; phases: Liquid, Gas
Property: Critical pressure, kPa (Liquid); method: pulse-heating method
Critical pressure, kPa	uncertainty
2400	160

System: 1,10-decanediol; phases: Liquid, Gas
Property: Critical temperature, K (Liquid); method: pulse-heating method
Critical temperature, K	uncertainty
770	24

System: 1,10-decanediol; phases: Liquid, Gas
Property: Critical pressure, kPa (Liquid); method: pulse-heating method
Critical pressure, kPa	uncertainty
2200	160

System: 1,12-dihydroxydodecane; phases: Liquid, Gas
Property: Critical temperature, K (Liquid); method: pulse-heating method
Critical temperature, K	uncertainty
798	24

System: 1,12-dihydroxydodecane; phases: Liquid, Gas
Property: Critical pressure, kPa (Liquid); method: pulse-heating method
Critical pressure, kPa	uncertainty
1930	160
