Measured thermophysical data. Solubility of oxygen in substituted perfluorocarbons
Source: Fluid Phase Equilib., 2005, 10.1016/j.fluid.2005.09.011
Compound 1: 1-bromoperfluorooctane, C8BrF17, InChI=1S/C8BrF17/c9-7(22,23)5(18,19)3(14,15)1(10,11)2(12,13)4(16,17)6(20,21)8(24,25)26
Compound 2: 1H-perfluorooctane, C8HF17, InChI=1S/C8HF17/c9-1(10)2(11,12)3(13,14)4(15,16)5(17,18)6(19,20)7(21,22)8(23,24)25/h1H
Compound 3: 1,1,2,2,3,3,4,4,5,5,6,6,7,7,8,8-hexadecafluorooctane, C8H2F16, InChI=1S/C8H2F16/c9-1(10)3(13,14)5(17,18)7(21,22)8(23,24)6(19,20)4(15,16)2(11)12/h1-2H
Compound 4: oxygen, O2, InChI=1S/O2/c1-2, purity 99.999%

System: 1,1,2,2,3,3,4,4,5,5,6,6,7,7,8,8-hexadecafluorooctane; phases: Liquid, Gas
Property: Vapor or sublimation pressure, kPa (Liquid); method: CCELL:UFactor:8
Temperature, K	Vapor or sublimation pressure, kPa	uncertainty
289.31	0.55	0.06
293.26	0.75	0.07
298.2	0.99	0.09
303.18	1.43	0.1
308.17	1.92	0.11
313.18	2.49	0.12
318.14	3.12	0.13
323.15	4.07	0.15
328.15	5.26	0.17
333.14	6.64	0.19

System: 1,1,2,2,3,3,4,4,5,5,6,6,7,7,8,8-hexadecafluorooctane; phases: Liquid
Fixed: Pressure, kPa = 101.325
Property: Mass density, kg/m3 (Liquid); method: VIBTUB:UFactor:4
Temperature, K	Mass density, kg/m3	uncertainty
288.15	1775.3	1.9
293.15	1764.4	1.9
298.15	1753.4	1.9
303.15	1742.4	1.9
308.15	1731.3	1.8
313.15	1720.2	1.8

System: 1-bromoperfluorooctane + oxygen; phases: Liquid, Gas
Property: Mole fraction of 1-bromoperfluorooctane (Liquid); method: equilibrium cell
Temperature, K	Pressure, kPa	Mole fraction of 1-bromoperfluorooctane	uncertainty
289.58	102	0.00502	0.0001
292.71	101.7	0.00501	0.0001
297.37	101.5	0.00482	0.0001
302.63	102.1	0.00473	9e-05
304.8	101	0.00472	9e-05
308.09	102	0.00464	9e-05
312.57	103.2	0.00449	9e-05

System: 1H-perfluorooctane + oxygen; phases: Liquid, Gas
Property: Mole fraction of 1H-perfluorooctane (Liquid); method: equilibrium cell
Temperature, K	Pressure, kPa	Mole fraction of 1H-perfluorooctane	uncertainty
289.15	101.4	0.00454	9e-05
294.5	101.2	0.00443	9e-05
299.17	101.2	0.00429	9e-05
304.47	101.8	0.00419	8e-05
308.55	101.7	0.0041	9e-05
312.48	101.6	0.00399	8e-05

System: 1,1,2,2,3,3,4,4,5,5,6,6,7,7,8,8-hexadecafluorooctane + oxygen; phases: Liquid, Gas
Property: Mole fraction of 1,1,2,2,3,3,4,4,5,5,6,6,7,7,8,8-hexadecafluorooctane (Liquid); method: equilibrium cell
Temperature, K	Pressure, kPa	Mole fraction of 1,1,2,2,3,3,4,4,5,5,6,6,7,7,8,8-hexadecafluorooctane	uncertainty
290.68	101	0.00376	8e-05
290.82	101.9	0.0038	0.0001
297.97	101.1	0.00378	8e-05
307.99	100.9	0.00369	7e-05
