Measured thermophysical data. Liquid density of mixtures methyl nonafluorobutyl Ether (HFE-7100) + 2-propanol at pressures up to 140 MPa and temperatures from 298.15 K to 393.15 K.
Source: Fluid Phase Equilib., 2016, 10.1016/j.fluid.2016.09.014
Compound 1: methyl nonafluoroisobutyl ether, C5H3F9O, InChI=1S/C5H3F9O/c1-15-5(13,14)2(6,3(7,8)9)4(10,11)12/h1H3, purity 99.5%
Compound 2: 1-methoxy-nonafluorobutane, C5H3F9O, InChI=1S/C5H3F9O/c1-15-5(13,14)3(8,9)2(6,7)4(10,11)12/h1H3, purity 99.5%
Compound 3: propan-2-ol, C3H8O, InChI=1S/C3H8O/c1-3(2)4/h3-4H,1-2H3, purity 99.8%

System: propan-2-ol + 1-methoxy-nonafluorobutane + methyl nonafluoroisobutyl ether; phases: Liquid
Fixed: Solvent: Mass fraction of 1-methoxy-nonafluorobutane = 0.5
Property: Mass density, kg/m3 (Liquid); method: Vibrating tube method
Pressure, kPa	Temperature, K	Mole fraction of propan-2-ol	Mass density, kg/m3	uncertainty
100	298.15	1	781.4	0.7
1000	298.15	1	782.2	0.7
5000	298.15	1	785.7	0.7
10000	298.15	1	789.9	0.7
15000	298.15	1	793.8	0.7
20000	298.15	1	797.4	0.8
25000	298.15	1	801	0.8
30000	298.15	1	804.4	0.8
35000	298.15	1	807.6	0.8
40000	298.15	1	810.9	0.8
45000	298.15	1	813.9	0.8
50000	298.15	1	816.8	0.8
55000	298.15	1	819.7	0.8
60000	298.15	1	822.5	0.9
65000	298.15	1	825.3	0.9
70000	298.15	1	827.8	0.9
80000	298.15	1	832.8	0.9
90000	298.15	1	837.6	0.9
100000	298.15	1	842.2	1
110000	298.15	1	846.5	1
120000	298.15	1	850.8	1
130000	298.15	1	854.7	1
140000	298.15	1	858.7	1.1
100	313.15	1	768.3	0.7
1000	313.15	1	769.2	0.7
5000	313.15	1	773	0.7
10000	313.15	1	777.6	0.7
15000	313.15	1	781.8	0.7
20000	313.15	1	785.9	0.8
25000	313.15	1	789.7	0.8
30000	313.15	1	793.3	0.8
35000	313.15	1	796.9	0.8
40000	313.15	1	800.1	0.8
45000	313.15	1	803.5	0.8
50000	313.15	1	806.6	0.8
55000	313.15	1	809.6	0.9
60000	313.15	1	812.5	0.9
65000	313.15	1	815.4	0.9
70000	313.15	1	818.2	0.9
80000	313.15	1	823.4	0.9
90000	313.15	1	828.4	1
100000	313.15	1	833.2	1
110000	313.15	1	837.8	1
120000	313.15	1	842.1	1
130000	313.15	1	846.3	1.1
140000	313.15	1	850.4	1.1
100	333.15	1	749.5	0.7
1000	333.15	1	750.5	0.7
5000	333.15	1	755	0.7
10000	333.15	1	760.1	0.7
15000	333.15	1	764.9	0.7
20000	333.15	1	769.4	0.8
25000	333.15	1	773.7	0.8
30000	333.15	1	777.8	0.8
35000	333.15	1	781.7	0.8
40000	333.15	1	785.2	0.8
45000	333.15	1	788.9	0.8
50000	333.15	1	792.3	0.9
55000	333.15	1	795.4	0.9
60000	333.15	1	798.7	0.9
65000	333.15	1	801.8	0.9
70000	333.15	1	804.7	0.9
80000	333.15	1	810.4	1
90000	333.15	1	815.8	1
100000	333.15	1	820.9	1
110000	333.15	1	825.6	1.1
120000	333.15	1	830.4	1.1
130000	333.15	1	834.7	1.1
140000	333.15	1	839.1	1.1
1000	353.15	1	729.8	0.7
5000	353.15	1	735	0.7
10000	353.15	1	741	0.7
15000	353.15	1	746.5	0.8
20000	353.15	1	751.6	0.8
25000	353.15	1	756.4	0.8
30000	353.15	1	761	0.8
35000	353.15	1	765.4	0.8
40000	353.15	1	769.3	0.8
45000	353.15	1	773.2	0.9
50000	353.15	1	777	0.9
55000	353.15	1	780.6	0.9
60000	353.15	1	783.9	0.9
65000	353.15	1	787.4	0.9
70000	353.15	1	790.6	0.9
80000	353.15	1	796.7	1
90000	353.15	1	802.5	1
100000	353.15	1	807.9	1.1
110000	353.15	1	813.1	1.1
120000	353.15	1	818	1.1
130000	353.15	1	822.9	1.2
140000	353.15	1	827.3	1.2
1000	373.15	1	706.5	0.7
5000	373.15	1	712.7	0.7
10000	373.15	1	719.8	0.7
15000	373.15	1	726.2	0.8
20000	373.15	1	732.2	0.8
25000	373.15	1	737.7	0.8
30000	373.15	1	742.9	0.8
35000	373.15	1	747.6	0.8
40000	373.15	1	752.3	0.9
45000	373.15	1	756.6	0.9
50000	373.15	1	760.7	0.9
55000	373.15	1	764.6	0.9
60000	373.15	1	768.3	0.9
65000	373.15	1	772.1	1
70000	373.15	1	775.5	1
80000	373.15	1	782.2	1
90000	373.15	1	788.4	1.1
100000	373.15	1	794.3	1.1
110000	373.15	1	799.8	1.1
120000	373.15	1	805	1.2
130000	373.15	1	810.1	1.2
140000	373.15	1	814.9	1.2
1000	393.15	1	680.2	0.7
5000	393.15	1	687.9	0.7
10000	393.15	1	696.6	0.8
15000	393.15	1	704.2	0.8
20000	393.15	1	711.1	0.8
25000	393.15	1	717.5	0.8
30000	393.15	1	723.4	0.8
35000	393.15	1	728.9	0.8
40000	393.15	1	733.9	0.9
45000	393.15	1	738.8	0.9
50000	393.15	1	743.4	0.9
55000	393.15	1	747.8	0.9
60000	393.15	1	752	1
65000	393.15	1	755.9	1
70000	393.15	1	759.8	1
80000	393.15	1	767	1.1
90000	393.15	1	773.7	1.1
100000	393.15	1	780	1.1
110000	393.15	1	786.1	1.2
120000	393.15	1	791.7	1.2
130000	393.15	1	797	1.3
140000	393.15	1	802.1	1.3
100	298.15	0.851	974.1	1.1
1000	298.15	0.851	975.4	1
5000	298.15	0.851	980.9	0.7
10000	298.15	0.851	987.5	0.7
15000	298.15	0.851	993.4	0.7
20000	298.15	0.851	999.1	0.7
25000	298.15	0.851	1004.5	0.7
30000	298.15	0.851	1009.5	0.7
35000	298.15	0.851	1014.4	0.7
40000	298.15	0.851	1019.1	0.7
45000	298.15	0.851	1023.6	0.7
50000	298.15	0.851	1027.8	0.7
55000	298.15	0.851	1032	0.7
60000	298.15	0.851	1036	0.7
65000	298.15	0.851	1039.9	0.7
70000	298.15	0.851	1043.6	0.7
80000	298.15	0.851	1050.7	0.7
90000	298.15	0.851	1057.5	0.8
100000	298.15	0.851	1064	0.8
110000	298.15	0.851	1070	0.8
120000	298.15	0.851	1076	0.8
130000	298.15	0.851	1081.5	0.8
140000	298.15	0.851	1087	0.9
100	313.15	0.851	954.6	1.2
1000	313.15	0.851	956	0.8
5000	313.15	0.851	962.2	0.7
10000	313.15	0.851	969.4	0.7
15000	313.15	0.851	976	0.7
20000	313.15	0.851	982.2	0.7
25000	313.15	0.851	988.1	0.7
30000	313.15	0.851	993.6	0.7
35000	313.15	0.851	999	0.7
40000	313.15	0.851	1003.8	0.7
45000	313.15	0.851	1008.6	0.7
50000	313.15	0.851	1013.2	0.7
55000	313.15	0.851	1017.6	0.7
60000	313.15	0.851	1021.8	0.7
65000	313.15	0.851	1026	0.7
70000	313.15	0.851	1030	0.7
80000	313.15	0.851	1037.5	0.7
90000	313.15	0.851	1044.7	0.7
100000	313.15	0.851	1051.4	0.8
110000	313.15	0.851	1057.9	0.8
120000	313.15	0.851	1064	0.8
130000	313.15	0.851	1069.8	0.8
140000	313.15	0.851	1075.6	0.8
1000	333.15	0.851	928.4	0.7
5000	333.15	0.851	935.8	0.7
10000	333.15	0.851	944.1	0.7
15000	333.15	0.851	951.8	0.7
20000	333.15	0.851	958.9	0.7
25000	333.15	0.851	965.5	0.7
30000	333.15	0.851	971.7	0.7
35000	333.15	0.851	977.5	0.7
40000	333.15	0.851	982.9	0.7
45000	333.15	0.851	988.3	0.7
50000	333.15	0.851	993.3	0.7
55000	333.15	0.851	998	0.7
60000	333.15	0.851	1002.7	0.7
65000	333.15	0.851	1007.1	0.7
70000	333.15	0.851	1011.5	0.7
80000	333.15	0.851	1019.7	0.7
90000	333.15	0.851	1027.3	0.7
100000	333.15	0.851	1034.5	0.7
110000	333.15	0.851	1041.2	0.7
120000	333.15	0.851	1048	0.8
130000	333.15	0.851	1054.1	0.8
140000	333.15	0.851	1060.1	0.8
1000	353.15	0.851	898.4	0.7
5000	353.15	0.851	907.2	0.7
10000	353.15	0.851	917.1	0.7
15000	353.15	0.851	925.9	0.7
20000	353.15	0.851	934	0.7
25000	353.15	0.851	941.6	0.7
30000	353.15	0.851	948.5	0.7
35000	353.15	0.851	955.2	0.7
40000	353.15	0.851	961.2	0.7
45000	353.15	0.851	967	0.7
50000	353.15	0.851	972.6	0.7
55000	353.15	0.851	977.8	0.7
60000	353.15	0.851	982.8	0.7
65000	353.15	0.851	987.7	0.7
70000	353.15	0.851	992.5	0.7
80000	353.15	0.851	1001.2	0.7
90000	353.15	0.851	1009.5	0.7
100000	353.15	0.851	1017.2	0.7
110000	353.15	0.851	1024.6	0.7
120000	353.15	0.851	1031.4	0.7
130000	353.15	0.851	1038.1	0.7
140000	353.15	0.851	1044.4	0.8
1000	373.15	0.851	864.7	0.7
5000	373.15	0.851	875.7	0.7
10000	373.15	0.851	887.5	0.7
15000	373.15	0.851	898	0.7
20000	373.15	0.851	907.4	0.7
25000	373.15	0.851	916.1	0.7
30000	373.15	0.851	924.1	0.7
35000	373.15	0.851	931.3	0.7
40000	373.15	0.851	938.3	0.7
45000	373.15	0.851	944.7	0.7
50000	373.15	0.851	950.8	0.7
55000	373.15	0.851	956.6	0.7
60000	373.15	0.851	962.1	0.7
65000	373.15	0.851	967.4	0.7
70000	373.15	0.851	972.4	0.7
80000	373.15	0.851	982	0.7
90000	373.15	0.851	990.9	0.7
100000	373.15	0.851	999.2	0.7
110000	373.15	0.851	1007	0.7
120000	373.15	0.851	1014.4	0.7
130000	373.15	0.851	1021.4	0.7
140000	373.15	0.851	1028.2	0.7
1000	393.15	0.851	826.8	0.8
5000	393.15	0.851	840.8	0.7
10000	393.15	0.851	855.6	0.7
15000	393.15	0.851	868.2	0.7
20000	393.15	0.851	879.2	0.7
25000	393.15	0.851	889.2	0.7
30000	393.15	0.851	898.2	0.7
35000	393.15	0.851	906.5	0.7
40000	393.15	0.851	914.2	0.7
45000	393.15	0.851	921.4	0.7
50000	393.15	0.851	928.2	0.7
55000	393.15	0.851	934.6	0.7
60000	393.15	0.851	940.7	0.7
65000	393.15	0.851	946.5	0.7
70000	393.15	0.851	952	0.7
80000	393.15	0.851	962.3	0.7
90000	393.15	0.851	971.9	0.7
100000	393.15	0.851	980.7	0.7
110000	393.15	0.851	989.2	0.7
120000	393.15	0.851	996.9	0.7
130000	393.15	0.851	1004.4	0.7
140000	393.15	0.851	1011.5	0.7
100	298.15	0.6745	1142.2	1
1000	298.15	0.6745	1144	0.9
5000	298.15	0.6745	1151.8	0.7
10000	298.15	0.6745	1160.8	0.7
15000	298.15	0.6745	1169	0.7
20000	298.15	0.6745	1176.6	0.8
25000	298.15	0.6745	1183.9	0.8
30000	298.15	0.6745	1190.7	0.8
35000	298.15	0.6745	1197.2	0.8
40000	298.15	0.6745	1203.3	0.8
45000	298.15	0.6745	1209.2	0.9
50000	298.15	0.6745	1214.8	0.9
55000	298.15	0.6745	1220.3	0.9
60000	298.15	0.6745	1225.5	0.9
65000	298.15	0.6745	1230.5	1
70000	298.15	0.6745	1235.3	1
80000	298.15	0.6745	1244.6	1.1
90000	298.15	0.6745	1253.3	1.2
100000	298.15	0.6745	1261.6	1.3
110000	298.15	0.6745	1269.3	1.4
120000	298.15	0.6745	1276.9	1.5
130000	298.15	0.6745	1284	1.6
140000	298.15	0.6745	1290.9	1.8
100	313.15	0.6745	1116.1	1
1000	313.15	0.6745	1118.2	0.8
5000	313.15	0.6745	1127	0.7
10000	313.15	0.6745	1137	0.7
15000	313.15	0.6745	1146.2	0.7
20000	313.15	0.6745	1154.8	0.7
25000	313.15	0.6745	1162.7	0.8
30000	313.15	0.6745	1170.1	0.8
35000	313.15	0.6745	1177.2	0.8
40000	313.15	0.6745	1183.7	0.8
45000	313.15	0.6745	1190.1	0.8
50000	313.15	0.6745	1196.2	0.9
55000	313.15	0.6745	1201.9	0.9
60000	313.15	0.6745	1207.5	0.9
65000	313.15	0.6745	1212.9	0.9
70000	313.15	0.6745	1218.1	1
80000	313.15	0.6745	1227.8	1.1
90000	313.15	0.6745	1237.1	1.2
100000	313.15	0.6745	1245.7	1.2
110000	313.15	0.6745	1253.9	1.3
120000	313.15	0.6745	1261.7	1.5
130000	313.15	0.6745	1269.2	1.6
140000	313.15	0.6745	1276.4	1.7
1000	333.15	0.6745	1081.7	0.7
5000	333.15	0.6745	1092.4	0.7
10000	333.15	0.6745	1104.2	0.7
15000	333.15	0.6745	1115	0.7
20000	333.15	0.6745	1124.7	0.7
25000	333.15	0.6745	1133.8	0.7
30000	333.15	0.6745	1142.1	0.8
35000	333.15	0.6745	1150	0.8
40000	333.15	0.6745	1157.2	0.8
45000	333.15	0.6745	1164.3	0.8
50000	333.15	0.6745	1170.9	0.8
55000	333.15	0.6745	1177.2	0.9
60000	333.15	0.6745	1183.3	0.9
65000	333.15	0.6745	1189.2	0.9
70000	333.15	0.6745	1194.8	0.9
80000	333.15	0.6745	1205.4	1
90000	333.15	0.6745	1215.3	1.1
100000	333.15	0.6745	1224.5	1.2
110000	333.15	0.6745	1233.2	1.3
120000	333.15	0.6745	1241.7	1.4
130000	333.15	0.6745	1249.5	1.5
140000	333.15	0.6745	1257.1	1.6
1000	353.15	0.6745	1042.1	0.7
5000	353.15	0.6745	1055.3	0.7
10000	353.15	0.6745	1069.6	0.7
15000	353.15	0.6745	1082	0.7
20000	353.15	0.6745	1093.3	0.7
25000	353.15	0.6745	1103.6	0.7
30000	353.15	0.6745	1113.1	0.7
35000	353.15	0.6745	1122	0.8
40000	353.15	0.6745	1130.2	0.8
45000	353.15	0.6745	1137.9	0.8
50000	353.15	0.6745	1145.2	0.8
55000	353.15	0.6745	1152.1	0.8
60000	353.15	0.6745	1158.7	0.8
65000	353.15	0.6745	1165.1	0.9
70000	353.15	0.6745	1171.3	0.9
80000	353.15	0.6745	1182.7	1
90000	353.15	0.6745	1193.3	1
100000	353.15	0.6745	1203.2	1.1
110000	353.15	0.6745	1212.7	1.2
120000	353.15	0.6745	1221.4	1.3
130000	353.15	0.6745	1229.9	1.4
140000	353.15	0.6745	1237.8	1.5
1000	373.15	0.6745	998.1	0.7
5000	373.15	0.6745	1014.7	0.7
10000	373.15	0.6745	1032.1	0.7
15000	373.15	0.6745	1047.1	0.7
20000	373.15	0.6745	1060.2	0.7
25000	373.15	0.6745	1072.1	0.7
30000	373.15	0.6745	1082.9	0.7
35000	373.15	0.6745	1092.8	0.7
40000	373.15	0.6745	1102.1	0.7
45000	373.15	0.6745	1110.6	0.8
50000	373.15	0.6745	1118.7	0.8
55000	373.15	0.6745	1126.3	0.8
60000	373.15	0.6745	1133.5	0.8
65000	373.15	0.6745	1140.6	0.8
70000	373.15	0.6745	1147	0.9
80000	373.15	0.6745	1159.5	0.9
90000	373.15	0.6745	1170.9	1
100000	373.15	0.6745	1181.5	1
110000	373.15	0.6745	1191.5	1.1
120000	373.15	0.6745	1200.9	1.2
130000	373.15	0.6745	1209.8	1.3
140000	373.15	0.6745	1218.3	1.4
1000	393.15	0.6745	948.2	0.8
5000	393.15	0.6745	970.2	0.7
10000	393.15	0.6745	992.1	0.7
15000	393.15	0.6745	1010.2	0.7
20000	393.15	0.6745	1025.7	0.7
25000	393.15	0.6745	1039.4	0.7
30000	393.15	0.6745	1051.7	0.7
35000	393.15	0.6745	1062.9	0.7
40000	393.15	0.6745	1073.2	0.7
45000	393.15	0.6745	1082.8	0.7
50000	393.15	0.6745	1091.6	0.8
55000	393.15	0.6745	1100	0.8
60000	393.15	0.6745	1108	0.8
65000	393.15	0.6745	1115.5	0.8
70000	393.15	0.6745	1122.7	0.8
80000	393.15	0.6745	1135.9	0.9
90000	393.15	0.6745	1148.3	0.9
100000	393.15	0.6745	1159.6	1
110000	393.15	0.6745	1170.3	1.1
120000	393.15	0.6745	1180.3	1.1
130000	393.15	0.6745	1189.7	1.2
140000	393.15	0.6745	1198.5	1.3
100	298.15	0.4996	1268.2	0.9
1000	298.15	0.4996	1270.5	0.8
5000	298.15	0.4996	1280.1	0.7
10000	298.15	0.4996	1291.1	0.8
15000	298.15	0.4996	1301.2	0.8
20000	298.15	0.4996	1310.5	0.8
25000	298.15	0.4996	1319.3	0.9
30000	298.15	0.4996	1327.6	0.9
35000	298.15	0.4996	1335.3	0.9
40000	298.15	0.4996	1342.7	1
45000	298.15	0.4996	1349.7	1
50000	298.15	0.4996	1356.4	1.1
55000	298.15	0.4996	1362.9	1.2
60000	298.15	0.4996	1369	1.2
65000	298.15	0.4996	1375	1.3
70000	298.15	0.4996	1380.7	1.4
80000	298.15	0.4996	1391.6	1.5
90000	298.15	0.4996	1401.8	1.7
100000	298.15	0.4996	1411.6	1.8
110000	298.15	0.4996	1420.6	2.1
120000	298.15	0.4996	1429.4	2.3
130000	298.15	0.4996	1437.6	2.5
140000	298.15	0.4996	1445.7	2.7
100	313.15	0.4996	1237	0.9
1000	313.15	0.4996	1239.6	0.7
5000	313.15	0.4996	1250.7	0.7
10000	313.15	0.4996	1263.1	0.8
15000	313.15	0.4996	1274.4	0.8
20000	313.15	0.4996	1284.9	0.8
25000	313.15	0.4996	1294.5	0.8
30000	313.15	0.4996	1303.4	0.9
35000	313.15	0.4996	1312	0.9
40000	313.15	0.4996	1319.9	1
45000	313.15	0.4996	1327.5	1
50000	313.15	0.4996	1334.7	1.1
55000	313.15	0.4996	1341.6	1.1
60000	313.15	0.4996	1348.1	1.2
65000	313.15	0.4996	1354.5	1.2
70000	313.15	0.4996	1360.6	1.3
80000	313.15	0.4996	1372.2	1.4
90000	313.15	0.4996	1383.1	1.6
100000	313.15	0.4996	1393.1	1.8
110000	313.15	0.4996	1402.8	2
120000	313.15	0.4996	1411.9	2.2
130000	313.15	0.4996	1420.6	2.4
140000	313.15	0.4996	1429	2.6
1000	333.15	0.4996	1196.1	0.7
5000	333.15	0.4996	1209.6	0.7
10000	333.15	0.4996	1224.4	0.7
15000	333.15	0.4996	1237.7	0.8
20000	333.15	0.4996	1249.7	0.8
25000	333.15	0.4996	1260.7	0.8
30000	333.15	0.4996	1270.9	0.8
35000	333.15	0.4996	1280.4	0.9
40000	333.15	0.4996	1289.2	0.9
45000	333.15	0.4996	1297.6	1
50000	333.15	0.4996	1305.5	1
55000	333.15	0.4996	1313	1.1
60000	333.15	0.4996	1320.3	1.1
65000	333.15	0.4996	1327.2	1.2
70000	333.15	0.4996	1333.9	1.2
80000	333.15	0.4996	1346.4	1.4
90000	333.15	0.4996	1358	1.5
100000	333.15	0.4996	1368.8	1.7
110000	333.15	0.4996	1379	1.9
120000	333.15	0.4996	1389	2.1
130000	333.15	0.4996	1397.9	2.3
140000	333.15	0.4996	1406.8	2.5
1000	353.15	0.4996	1149	0.8
5000	353.15	0.4996	1165.9	0.7
10000	353.15	0.4996	1184	0.7
15000	353.15	0.4996	1199.6	0.8
20000	353.15	0.4996	1213.5	0.8
25000	353.15	0.4996	1226.2	0.8
30000	353.15	0.4996	1237.7	0.8
35000	353.15	0.4996	1248.4	0.8
40000	353.15	0.4996	1258.2	0.9
45000	353.15	0.4996	1267.5	0.9
50000	353.15	0.4996	1276.3	1
55000	353.15	0.4996	1284.6	1
60000	353.15	0.4996	1292.5	1.1
65000	353.15	0.4996	1299.9	1.1
70000	353.15	0.4996	1307.2	1.2
80000	353.15	0.4996	1320.6	1.3
90000	353.15	0.4996	1333.1	1.4
100000	353.15	0.4996	1344.8	1.6
110000	353.15	0.4996	1355.8	1.7
120000	353.15	0.4996	1366	1.9
130000	353.15	0.4996	1375.9	2.1
140000	353.15	0.4996	1385.1	2.3
1000	373.15	0.4996	1096.6	0.8
5000	373.15	0.4996	1118.4	0.7
10000	373.15	0.4996	1140.7	0.7
15000	373.15	0.4996	1159.5	0.7
20000	373.15	0.4996	1175.8	0.8
25000	373.15	0.4996	1190.3	0.8
30000	373.15	0.4996	1203.5	0.8
35000	373.15	0.4996	1215.4	0.8
40000	373.15	0.4996	1226.6	0.9
45000	373.15	0.4996	1236.8	0.9
50000	373.15	0.4996	1246.4	0.9
55000	373.15	0.4996	1255.5	1
60000	373.15	0.4996	1264.1	1
65000	373.15	0.4996	1272.2	1.1
70000	373.15	0.4996	1280	1.1
80000	373.15	0.4996	1294.6	1.2
90000	373.15	0.4996	1308	1.4
100000	373.15	0.4996	1320.4	1.5
110000	373.15	0.4996	1332.1	1.6
120000	373.15	0.4996	1343.1	1.8
130000	373.15	0.4996	1353.4	2
140000	373.15	0.4996	1363.2	2.2
1000	393.15	0.4996	1036.7	0.8
5000	393.15	0.4996	1066.5	0.8
10000	393.15	0.4996	1094.8	0.7
15000	393.15	0.4996	1117.6	0.7
20000	393.15	0.4996	1136.7	0.8
25000	393.15	0.4996	1153.6	0.8
30000	393.15	0.4996	1168.5	0.8
35000	393.15	0.4996	1182	0.8
40000	393.15	0.4996	1194.4	0.8
45000	393.15	0.4996	1205.7	0.9
50000	393.15	0.4996	1216.4	0.9
55000	393.15	0.4996	1226.3	0.9
60000	393.15	0.4996	1235.7	1
65000	393.15	0.4996	1244.5	1
70000	393.15	0.4996	1253	1.1
80000	393.15	0.4996	1268.6	1.2
90000	393.15	0.4996	1283	1.3
100000	393.15	0.4996	1296.2	1.4
110000	393.15	0.4996	1308.6	1.6
120000	393.15	0.4996	1320.2	1.7
130000	393.15	0.4996	1331.1	1.9
140000	393.15	0.4996	1341.4	2.1
100	298.15	0.3242	1369.4	0.8
1000	298.15	0.3242	1372.1	0.7
5000	298.15	0.3242	1383.2	0.8
10000	298.15	0.3242	1396	0.8
15000	298.15	0.3242	1407.6	0.8
20000	298.15	0.3242	1418.3	0.9
25000	298.15	0.3242	1428.3	0.9
30000	298.15	0.3242	1437.7	1
35000	298.15	0.3242	1446.5	1.1
40000	298.15	0.3242	1454.9	1.1
45000	298.15	0.3242	1462.8	1.2
50000	298.15	0.3242	1470.4	1.3
55000	298.15	0.3242	1477.6	1.4
60000	298.15	0.3242	1484.6	1.5
65000	298.15	0.3242	1491.4	1.6
70000	298.15	0.3242	1497.7	1.7
80000	298.15	0.3242	1510	1.9
90000	298.15	0.3242	1521.4	2.1
100000	298.15	0.3242	1532.2	2.4
110000	298.15	0.3242	1542.3	2.6
120000	298.15	0.3242	1552.1	2.9
130000	298.15	0.3242	1561.3	3.2
140000	298.15	0.3242	1570.2	3.4
100	313.15	0.3242	1334.1	0.8
1000	313.15	0.3242	1337.2	0.7
5000	313.15	0.3242	1350.1	0.8
10000	313.15	0.3242	1364.6	0.8
15000	313.15	0.3242	1377.6	0.8
20000	313.15	0.3242	1389.7	0.9
25000	313.15	0.3242	1400.7	0.9
30000	313.15	0.3242	1410.9	1
35000	313.15	0.3242	1420.6	1
40000	313.15	0.3242	1429.6	1.1
45000	313.15	0.3242	1438.1	1.2
50000	313.15	0.3242	1446.4	1.3
55000	313.15	0.3242	1454.1	1.3
60000	313.15	0.3242	1461.6	1.4
65000	313.15	0.3242	1468.7	1.5
70000	313.15	0.3242	1475.6	1.6
80000	313.15	0.3242	1488.5	1.8
90000	313.15	0.3242	1500.7	2
100000	313.15	0.3242	1512	2.3
110000	313.15	0.3242	1522.7	2.5
120000	313.15	0.3242	1532.9	2.8
130000	313.15	0.3242	1542.6	3
140000	313.15	0.3242	1551.9	3.3
1000	333.15	0.3242	1288	0.8
5000	333.15	0.3242	1304	0.8
10000	333.15	0.3242	1321.4	0.8
15000	333.15	0.3242	1336.8	0.8
20000	333.15	0.3242	1350.6	0.8
25000	333.15	0.3242	1363.3	0.9
30000	333.15	0.3242	1374.9	0.9
35000	333.15	0.3242	1385.8	1
40000	333.15	0.3242	1395.7	1.1
45000	333.15	0.3242	1405.4	1.1
50000	333.15	0.3242	1414.3	1.2
55000	333.15	0.3242	1422.8	1.3
60000	333.15	0.3242	1431	1.4
65000	333.15	0.3242	1438.8	1.4
70000	333.15	0.3242	1446.2	1.5
80000	333.15	0.3242	1460.2	1.7
90000	333.15	0.3242	1473.3	1.9
100000	333.15	0.3242	1485.4	2.2
110000	333.15	0.3242	1496.8	2.4
120000	333.15	0.3242	1507.8	2.7
130000	333.15	0.3242	1517.9	2.9
140000	333.15	0.3242	1527.8	3.2
1000	353.15	0.3242	1235.1	0.8
5000	353.15	0.3242	1255.3	0.8
10000	353.15	0.3242	1276.5	0.8
15000	353.15	0.3242	1294.8	0.8
20000	353.15	0.3242	1310.8	0.8
25000	353.15	0.3242	1325.4	0.9
30000	353.15	0.3242	1338.6	0.9
35000	353.15	0.3242	1350.8	1
40000	353.15	0.3242	1362.1	1
45000	353.15	0.3242	1372.5	1.1
50000	353.15	0.3242	1382.4	1.1
55000	353.15	0.3242	1391.9	1.2
60000	353.15	0.3242	1400.7	1.3
65000	353.15	0.3242	1409.1	1.4
70000	353.15	0.3242	1417.2	1.4
80000	353.15	0.3242	1432.4	1.6
90000	353.15	0.3242	1446.4	1.8
100000	353.15	0.3242	1459.3	2.1
110000	353.15	0.3242	1471.6	2.3
120000	353.15	0.3242	1483.1	2.5
130000	353.15	0.3242	1494	2.8
140000	353.15	0.3242	1504.3	3
1000	373.15	0.3242	1176.4	0.8
5000	373.15	0.3242	1202.8	0.8
10000	373.15	0.3242	1229.2	0.8
15000	373.15	0.3242	1251.1	0.8
20000	373.15	0.3242	1269.9	0.8
25000	373.15	0.3242	1286.7	0.8
30000	373.15	0.3242	1301.8	0.9
35000	373.15	0.3242	1315.3	0.9
40000	373.15	0.3242	1328	1
45000	373.15	0.3242	1339.6	1
50000	373.15	0.3242	1350.4	1.1
55000	373.15	0.3242	1360.7	1.2
60000	373.15	0.3242	1370.3	1.2
65000	373.15	0.3242	1379.6	1.3
70000	373.15	0.3242	1388.3	1.4
80000	373.15	0.3242	1404.6	1.5
90000	373.15	0.3242	1419.6	1.7
100000	373.15	0.3242	1433.4	1.9
110000	373.15	0.3242	1446.4	2.2
120000	373.15	0.3242	1458.6	2.4
130000	373.15	0.3242	1470.1	2.6
140000	373.15	0.3242	1481	2.9
1000	393.15	0.3242	1109.3	0.8
5000	393.15	0.3242	1145.7	0.8
10000	393.15	0.3242	1179.3	0.8
15000	393.15	0.3242	1206	0.8
20000	393.15	0.3242	1228.2	0.8
25000	393.15	0.3242	1247.5	0.8
30000	393.15	0.3242	1264.5	0.8
35000	393.15	0.3242	1279.8	0.9
40000	393.15	0.3242	1293.8	0.9
45000	393.15	0.3242	1306.6	1
50000	393.15	0.3242	1318.6	1
55000	393.15	0.3242	1329.7	1.1
60000	393.15	0.3242	1340.3	1.2
65000	393.15	0.3242	1350.2	1.2
70000	393.15	0.3242	1359.6	1.3
80000	393.15	0.3242	1377.1	1.5
90000	393.15	0.3242	1393.1	1.6
100000	393.15	0.3242	1407.8	1.8
110000	393.15	0.3242	1421.6	2.1
120000	393.15	0.3242	1434.4	2.3
130000	393.15	0.3242	1446.5	2.5
140000	393.15	0.3242	1457.9	2.8
100	298.15	0.206	1427	0.8
1000	298.15	0.206	1429.9	0.8
5000	298.15	0.206	1441.9	0.8
10000	298.15	0.206	1455.7	0.8
15000	298.15	0.206	1468.1	0.9
20000	298.15	0.206	1479.5	0.9
25000	298.15	0.206	1490.3	1
30000	298.15	0.206	1500.2	1.1
35000	298.15	0.206	1509.6	1.1
40000	298.15	0.206	1518.6	1.2
45000	298.15	0.206	1527.1	1.3
50000	298.15	0.206	1535	1.4
55000	298.15	0.206	1542.8	1.5
60000	298.15	0.206	1550.2	1.6
65000	298.15	0.206	1557.3	1.7
70000	298.15	0.206	1564.1	1.9
80000	298.15	0.206	1577	2.1
90000	298.15	0.206	1589.2	2.4
100000	298.15	0.206	1600.6	2.7
110000	298.15	0.206	1611.3	3
120000	298.15	0.206	1621.6	3.2
130000	298.15	0.206	1631.3	3.5
140000	298.15	0.206	1640.7	3.8
100	313.15	0.206	1389.5	0.8
1000	313.15	0.206	1392.9	0.8
5000	313.15	0.206	1406.9	0.8
10000	313.15	0.206	1422.4	0.8
15000	313.15	0.206	1436.5	0.9
20000	313.15	0.206	1449.4	0.9
25000	313.15	0.206	1461.2	1
30000	313.15	0.206	1472.1	1
35000	313.15	0.206	1482.5	1.1
40000	313.15	0.206	1492	1.2
45000	313.15	0.206	1501.2	1.3
50000	313.15	0.206	1509.9	1.4
55000	313.15	0.206	1518.2	1.5
60000	313.15	0.206	1526	1.6
65000	313.15	0.206	1533.7	1.7
70000	313.15	0.206	1541	1.8
80000	313.15	0.206	1554.7	2
90000	313.15	0.206	1567.6	2.3
100000	313.15	0.206	1579.5	2.6
110000	313.15	0.206	1590.9	2.9
120000	313.15	0.206	1601.6	3.1
130000	313.15	0.206	1611.8	3.4
140000	313.15	0.206	1621.6	3.7
1000	333.15	0.206	1340.9	0.8
5000	333.15	0.206	1358.2	0.8
10000	333.15	0.206	1377	0.8
15000	333.15	0.206	1393.6	0.8
20000	333.15	0.206	1408.5	0.9
25000	333.15	0.206	1422	0.9
30000	333.15	0.206	1434.5	1
35000	333.15	0.206	1446	1.1
40000	333.15	0.206	1456.7	1.1
45000	333.15	0.206	1466.9	1.2
50000	333.15	0.206	1476.5	1.3
55000	333.15	0.206	1485.5	1.4
60000	333.15	0.206	1494.2	1.5
65000	333.15	0.206	1502.5	1.6
70000	333.15	0.206	1510.5	1.7
80000	333.15	0.206	1525.2	1.9
90000	333.15	0.206	1539.1	2.2
100000	333.15	0.206	1551.8	2.5
110000	333.15	0.206	1563.9	2.7
120000	333.15	0.206	1575.5	3
130000	333.15	0.206	1586.2	3.3
140000	333.15	0.206	1596.6	3.6
1000	353.15	0.206	1285	0.8
5000	353.15	0.206	1307.1	0.8
10000	353.15	0.206	1330.1	0.8
15000	353.15	0.206	1349.8	0.8
20000	353.15	0.206	1367	0.9
25000	353.15	0.206	1382.7	0.9
30000	353.15	0.206	1396.8	1
35000	353.15	0.206	1409.8	1
40000	353.15	0.206	1421.7	1.1
45000	353.15	0.206	1432.9	1.2
50000	353.15	0.206	1443.5	1.2
55000	353.15	0.206	1453.4	1.3
60000	353.15	0.206	1462.8	1.4
65000	353.15	0.206	1471.8	1.5
70000	353.15	0.206	1480.4	1.6
80000	353.15	0.206	1496.4	1.8
90000	353.15	0.206	1511.3	2.1
100000	353.15	0.206	1525	2.3
110000	353.15	0.206	1537.9	2.6
120000	353.15	0.206	1550	2.9
130000	353.15	0.206	1561.5	3.2
140000	353.15	0.206	1572.3	3.4
1000	373.15	0.206	1223.6	0.8
5000	373.15	0.206	1252.5	0.8
10000	373.15	0.206	1281	0.8
15000	373.15	0.206	1304.7	0.8
20000	373.15	0.206	1324.9	0.8
25000	373.15	0.206	1342.8	0.9
30000	373.15	0.206	1358.9	0.9
35000	373.15	0.206	1373.3	1
40000	373.15	0.206	1386.8	1
45000	373.15	0.206	1399.1	1.1
50000	373.15	0.206	1410.7	1.2
55000	373.15	0.206	1421.5	1.3
60000	373.15	0.206	1431.8	1.4
65000	373.15	0.206	1441.5	1.4
70000	373.15	0.206	1450.7	1.5
80000	373.15	0.206	1468	1.7
90000	373.15	0.206	1483.8	2
100000	373.15	0.206	1498.4	2.2
110000	373.15	0.206	1512.1	2.5
120000	373.15	0.206	1524.9	2.7
130000	373.15	0.206	1537	3
140000	373.15	0.206	1548.5	3.3
1000	393.15	0.206	1153.7	0.8
5000	393.15	0.206	1193.6	0.8
10000	393.15	0.206	1229.9	0.8
15000	393.15	0.206	1258.4	0.8
20000	393.15	0.206	1282.2	0.8
25000	393.15	0.206	1302.7	0.9
30000	393.15	0.206	1320.8	0.9
35000	393.15	0.206	1337.1	0.9
40000	393.15	0.206	1351.9	1
45000	393.15	0.206	1365.6	1.1
50000	393.15	0.206	1378.2	1.1
55000	393.15	0.206	1390	1.2
60000	393.15	0.206	1401.1	1.3
65000	393.15	0.206	1411.6	1.4
70000	393.15	0.206	1421.6	1.5
80000	393.15	0.206	1440	1.6
90000	393.15	0.206	1456.8	1.9
100000	393.15	0.206	1472.3	2.1
110000	393.15	0.206	1486.8	2.4
120000	393.15	0.206	1500.3	2.6
130000	393.15	0.206	1513	2.9
140000	393.15	0.206	1525	3.2
100	298.15	0.1503	1452	0.8
1000	298.15	0.1503	1454.9	0.8
5000	298.15	0.1503	1467.3	0.8
10000	298.15	0.1503	1481.5	0.8
15000	298.15	0.1503	1494.3	0.9
20000	298.15	0.1503	1506	0.9
25000	298.15	0.1503	1517.1	1
30000	298.15	0.1503	1527.3	1.1
35000	298.15	0.1503	1536.9	1.2
40000	298.15	0.1503	1546.1	1.3
45000	298.15	0.1503	1554.8	1.4
50000	298.15	0.1503	1563	1.5
55000	298.15	0.1503	1571	1.6
60000	298.15	0.1503	1578.5	1.7
65000	298.15	0.1503	1585.8	1.8
70000	298.15	0.1503	1592.8	1.9
80000	298.15	0.1503	1606.1	2.2
90000	298.15	0.1503	1618.4	2.5
100000	298.15	0.1503	1630.1	2.8
110000	298.15	0.1503	1641.1	3.1
120000	298.15	0.1503	1651.6	3.4
130000	298.15	0.1503	1661.5	3.7
140000	298.15	0.1503	1671	4
100	313.15	0.1503	1413.6	0.8
1000	313.15	0.1503	1417.1	0.8
5000	313.15	0.1503	1431.5	0.8
10000	313.15	0.1503	1447.6	0.8
15000	313.15	0.1503	1462	0.9
20000	313.15	0.1503	1475.3	0.9
25000	313.15	0.1503	1487.4	1
30000	313.15	0.1503	1498.6	1.1
35000	313.15	0.1503	1509.3	1.1
40000	313.15	0.1503	1519.1	1.2
45000	313.15	0.1503	1528.5	1.3
50000	313.15	0.1503	1537.5	1.4
55000	313.15	0.1503	1545.9	1.5
60000	313.15	0.1503	1553.9	1.6
65000	313.15	0.1503	1561.8	1.7
70000	313.15	0.1503	1569.2	1.9
80000	313.15	0.1503	1583.3	2.1
90000	313.15	0.1503	1596.4	2.4
100000	313.15	0.1503	1608.6	2.7
110000	313.15	0.1503	1620.3	3
120000	313.15	0.1503	1631.2	3.3
130000	313.15	0.1503	1641.7	3.6
140000	313.15	0.1503	1651.7	3.9
1000	333.15	0.1503	1364.1	0.8
5000	333.15	0.1503	1382	0.8
10000	333.15	0.1503	1401.4	0.8
15000	333.15	0.1503	1418.5	0.8
20000	333.15	0.1503	1433.8	0.9
25000	333.15	0.1503	1447.7	1
30000	333.15	0.1503	1460.5	1
35000	333.15	0.1503	1472.3	1.1
40000	333.15	0.1503	1483.3	1.2
45000	333.15	0.1503	1493.8	1.3
50000	333.15	0.1503	1503.6	1.4
55000	333.15	0.1503	1512.8	1.5
60000	333.15	0.1503	1521.7	1.6
65000	333.15	0.1503	1530.1	1.7
70000	333.15	0.1503	1538.3	1.8
80000	333.15	0.1503	1553.4	2
90000	333.15	0.1503	1567.6	2.3
100000	333.15	0.1503	1580.7	2.6
110000	333.15	0.1503	1593	2.9
120000	333.15	0.1503	1604.8	3.2
130000	333.15	0.1503	1615.8	3.5
140000	333.15	0.1503	1626.3	3.8
1000	353.15	0.1503	1307.3	0.8
5000	353.15	0.1503	1330	0.8
10000	353.15	0.1503	1353.9	0.8
15000	353.15	0.1503	1374	0.8
20000	353.15	0.1503	1391.8	0.9
25000	353.15	0.1503	1407.8	0.9
30000	353.15	0.1503	1422.3	1
35000	353.15	0.1503	1435.7	1.1
40000	353.15	0.1503	1447.9	1.1
45000	353.15	0.1503	1459.4	1.2
50000	353.15	0.1503	1470.2	1.3
55000	353.15	0.1503	1480.4	1.4
60000	353.15	0.1503	1490	1.5
65000	353.15	0.1503	1499.2	1.6
70000	353.15	0.1503	1508	1.7
80000	353.15	0.1503	1524.4	1.9
90000	353.15	0.1503	1539.5	2.2
100000	353.15	0.1503	1553.5	2.5
110000	353.15	0.1503	1566.7	2.7
120000	353.15	0.1503	1579	3
130000	353.15	0.1503	1590.8	3.3
140000	353.15	0.1503	1601.9	3.6
1000	373.15	0.1503	1245	0.8
5000	373.15	0.1503	1274.9	0.8
10000	373.15	0.1503	1304.4	0.8
15000	373.15	0.1503	1328.6	0.8
20000	373.15	0.1503	1349.4	0.9
25000	373.15	0.1503	1367.7	0.9
30000	373.15	0.1503	1384.2	1
35000	373.15	0.1503	1399	1
40000	373.15	0.1503	1412.8	1.1
45000	373.15	0.1503	1425.4	1.2
50000	373.15	0.1503	1437.2	1.2
55000	373.15	0.1503	1448.3	1.3
60000	373.15	0.1503	1458.7	1.4
65000	373.15	0.1503	1468.7	1.5
70000	373.15	0.1503	1478.1	1.6
80000	373.15	0.1503	1495.8	1.8
90000	373.15	0.1503	1511.9	2.1
100000	373.15	0.1503	1526.8	2.4
110000	373.15	0.1503	1540.8	2.6
120000	373.15	0.1503	1553.8	2.9
130000	373.15	0.1503	1566.2	3.2
140000	373.15	0.1503	1577.9	3.5
1000	393.15	0.1503	1174.4	0.8
5000	393.15	0.1503	1215.8	0.8
10000	393.15	0.1503	1252.9	0.8
15000	393.15	0.1503	1282.3	0.8
20000	393.15	0.1503	1306.6	0.8
25000	393.15	0.1503	1327.6	0.9
30000	393.15	0.1503	1346.1	0.9
35000	393.15	0.1503	1362.7	1
40000	393.15	0.1503	1377.9	1
45000	393.15	0.1503	1391.8	1.1
50000	393.15	0.1503	1404.7	1.2
55000	393.15	0.1503	1416.8	1.3
60000	393.15	0.1503	1428.2	1.3
65000	393.15	0.1503	1438.8	1.4
70000	393.15	0.1503	1449	1.5
80000	393.15	0.1503	1467.8	1.7
90000	393.15	0.1503	1485	2
100000	393.15	0.1503	1500.8	2.2
110000	393.15	0.1503	1515.6	2.5
120000	393.15	0.1503	1529.4	2.8
130000	393.15	0.1503	1542.3	3
140000	393.15	0.1503	1554.5	3.3
100	298.15	0	1515.5	0.8
1000	298.15	0	1518.6	0.8
5000	298.15	0	1531.8	0.8
10000	298.15	0	1546.8	0.9
15000	298.15	0	1560.3	0.9
20000	298.15	0	1572.8	1
25000	298.15	0	1584.4	1.1
30000	298.15	0	1595.2	1.2
35000	298.15	0	1605.4	1.3
40000	298.15	0	1615.1	1.4
45000	298.15	0	1624.3	1.5
50000	298.15	0	1632.9	1.6
55000	298.15	0	1641.3	1.7
60000	298.15	0	1649.2	1.9
65000	298.15	0	1656.9	2
70000	298.15	0	1664.2	2.2
80000	298.15	0	1678.1	2.5
90000	298.15	0	1691.1	2.8
100000	298.15	0	1703.5	3.1
110000	298.15	0	1714.9	3.4
120000	298.15	0	1726	3.8
130000	298.15	0	1736.4	4.1
140000	298.15	0	1746.4	4.5
100	313.15	0	1475.9	0.8
1000	313.15	0	1479.6	0.8
5000	313.15	0	1495	0.8
10000	313.15	0	1512	0.8
15000	313.15	0	1527.3	0.9
20000	313.15	0	1541.3	1
25000	313.15	0	1554.2	1.1
30000	313.15	0	1566	1.1
35000	313.15	0	1577.2	1.2
40000	313.15	0	1587.6	1.3
45000	313.15	0	1597.5	1.4
50000	313.15	0	1606.8	1.6
55000	313.15	0	1615.8	1.7
60000	313.15	0	1624.2	1.8
65000	313.15	0	1632.4	2
70000	313.15	0	1640.3	2.1
80000	313.15	0	1655	2.4
90000	313.15	0	1668.8	2.7
100000	313.15	0	1681.6	3
110000	313.15	0	1693.8	3.3
120000	313.15	0	1705.4	3.7
130000	313.15	0	1716.3	4
140000	313.15	0	1726.8	4.3
1000	333.15	0	1425.3	0.8
5000	333.15	0	1444.4	0.8
10000	333.15	0	1464.9	0.8
15000	333.15	0	1483	0.9
20000	333.15	0	1499.1	0.9
25000	333.15	0	1513.8	1
30000	333.15	0	1527.3	1.1
35000	333.15	0	1539.7	1.2
40000	333.15	0	1551.3	1.3
45000	333.15	0	1562.3	1.4
50000	333.15	0	1572.5	1.5
55000	333.15	0	1582.2	1.6
60000	333.15	0	1591.6	1.7
65000	333.15	0	1600.5	1.9
70000	333.15	0	1609	2
80000	333.15	0	1624.9	2.3
90000	333.15	0	1639.7	2.6
100000	333.15	0	1653.4	2.9
110000	333.15	0	1666.3	3.2
120000	333.15	0	1678.6	3.5
130000	333.15	0	1690.1	3.9
140000	333.15	0	1701.2	4.2
1000	353.15	0	1367.7	0.8
5000	353.15	0	1391.8	0.8
10000	353.15	0	1416.9	0.8
15000	353.15	0	1438.1	0.9
20000	353.15	0	1456.8	0.9
25000	353.15	0	1473.6	1
30000	353.15	0	1488.8	1.1
35000	353.15	0	1502.9	1.1
40000	353.15	0	1515.7	1.2
45000	353.15	0	1527.7	1.3
50000	353.15	0	1539	1.4
55000	353.15	0	1549.7	1.5
60000	353.15	0	1559.7	1.6
65000	353.15	0	1569.3	1.8
70000	353.15	0	1578.6	1.9
80000	353.15	0	1595.6	2.2
90000	353.15	0	1611.5	2.5
100000	353.15	0	1626.1	2.8
110000	353.15	0	1640	3.1
120000	353.15	0	1652.9	3.4
130000	353.15	0	1665.1	3.7
140000	353.15	0	1676.6	4.1
1000	373.15	0	1304.8	0.8
5000	373.15	0	1336.1	0.8
10000	373.15	0	1367	0.8
15000	373.15	0	1392.4	0.8
20000	373.15	0	1414.1	0.9
25000	373.15	0	1433.3	1
30000	373.15	0	1450.5	1
35000	373.15	0	1466	1.1
40000	373.15	0	1480.4	1.2
45000	373.15	0	1493.6	1.3
50000	373.15	0	1506	1.4
55000	373.15	0	1517.5	1.5
60000	373.15	0	1528.4	1.6
65000	373.15	0	1538.8	1.7
70000	373.15	0	1548.6	1.8
80000	373.15	0	1567.1	2.1
90000	373.15	0	1584	2.4
100000	373.15	0	1599.5	2.7
110000	373.15	0	1614	3
120000	373.15	0	1627.6	3.3
130000	373.15	0	1640.5	3.6
140000	373.15	0	1652.7	3.9
1000	393.15	0	1233.9	0.8
5000	393.15	0	1276.6	0.8
10000	393.15	0	1315.3	0.8
15000	393.15	0	1345.7	0.8
20000	393.15	0	1371	0.9
25000	393.15	0	1392.9	0.9
30000	393.15	0	1412.2	1
35000	393.15	0	1429.5	1.1
40000	393.15	0	1445.3	1.1
45000	393.15	0	1459.8	1.2
50000	393.15	0	1473.2	1.3
55000	393.15	0	1485.8	1.4
60000	393.15	0	1497.7	1.5
65000	393.15	0	1508.8	1.6
70000	393.15	0	1519.4	1.7
80000	393.15	0	1538.9	2
90000	393.15	0	1556.9	2.3
100000	393.15	0	1573.4	2.6
110000	393.15	0	1588.9	2.8
120000	393.15	0	1603.2	3.2
130000	393.15	0	1616.7	3.5
140000	393.15	0	1629.4	3.8
