Measured thermophysical data. Measurement, correlation, and prediction of vapor pressure for binary and ternary systems containing an alkylsulfate-based ionic liquid
Source: Fluid Phase Equilib., 2015, 10.1016/j.fluid.2015.03.043
Compound 1: water, H2O, InChI=1S/H2O/h1H2, purity 99.8%
Compound 2: propan-1-ol, C3H8O, InChI=1S/C3H8O/c1-2-3-4/h4H,2-3H2,1H3, purity 99.7%
Compound 3: propan-2-ol, C3H8O, InChI=1S/C3H8O/c1-3(2)4/h3-4H,1-2H3, purity 99.7%
Compound 4: 1-ethyl-3-methylimidazolium methylsulfate, C7H14N2O4S, InChI=1S/C6H11N2.CH4O4S/c1-3-8-5-4-7(2)6-8;1-5-6(2,3)4/h4-6H,3H2,1-2H3;1H3,(H,2,3,4)/q+1;/p-1, purity 99%
Compound 5: 1-ethyl-3-methylimidazolium ethyl sulfate, C8H16N2O4S, InChI=1S/C6H11N2.C2H6O4S/c1-3-8-5-4-7(2)6-8;1-2-6-7(3,4)5/h4-6H,3H2,1-2H3;2H2,1H3,(H,3,4,5)/q+1;/p-1, purity 99%

System: water + 1-ethyl-3-methylimidazolium methylsulfate; phases: Liquid, Gas
Property: Vapor or sublimation pressure, kPa (Liquid); method: Ebulliometric method (Recirculating still)
Mole fraction of water	Temperature, K	Vapor or sublimation pressure, kPa	uncertainty
0.9911	325.47	13.58	0.12
0.9911	332.85	19.31	0.14
0.9911	339.46	26.1	0.16
0.9911	347.77	37.35	0.2
0.9911	353.71	47.73	0.24
0.9911	360.69	62.89	0.3
0.9911	367.95	82.8	0.38
0.9911	373.32	100.79	0.45
0.9801	324.84	12.91	0.12
0.9801	332.78	18.88	0.14
0.9801	341.06	27.44	0.16
0.9801	347.98	36.97	0.2
0.9801	355.55	50.42	0.25
0.9801	362.67	66.52	0.32
0.9801	368.8	83.6	0.39
0.9801	373.91	100.75	0.45
0.9659	324.9	12.61	0.12
0.9659	334.35	19.81	0.14
0.9659	341.79	27.62	0.16
0.9659	350.1	39.34	0.2
0.9659	355.56	49.12	0.25
0.9659	363.58	67.17	0.32
0.9659	369.47	83.67	0.39
0.9659	374.66	100.8	0.45
0.9182	332.13	16.38	0.13
0.9182	339.27	22.75	0.15
0.9182	344.26	28.31	0.17
0.9182	349.55	35.37	0.19
0.9182	357.67	49.22	0.24
0.9182	364.82	64.72	0.31
0.9182	371.71	83.58	0.38
0.9182	376.98	100.94	0.45

System: water + 1-ethyl-3-methylimidazolium ethyl sulfate; phases: Liquid, Gas
Property: Vapor or sublimation pressure, kPa (Liquid); method: Ebulliometric method (Recirculating still)
Mole fraction of water	Temperature, K	Vapor or sublimation pressure, kPa	uncertainty
0.9916	323.87	12.56	0.12
0.9916	331.5	18.16	0.13
0.9916	338.66	25.2	0.16
0.9916	347.39	36.83	0.2
0.9916	353.98	48.34	0.24
0.9916	361.95	66.15	0.32
0.9916	368.29	83.99	0.39
0.9916	372.77	99.02	0.45
0.9813	323.35	12.07	0.12
0.9813	333.94	20.07	0.14
0.9813	339.07	25.31	0.16
0.9813	347.5	36.48	0.19
0.9813	354.15	47.98	0.24
0.9813	362.54	66.72	0.32
0.9813	368.78	84.3	0.39
0.9813	373.25	99.07	0.45
0.9684	325.26	12.97	0.12
0.9684	334.56	20.22	0.14
0.9684	340.04	25.84	0.16
0.9684	349.33	38.53	0.2
0.9684	355.44	49.4	0.25
0.9684	362.84	66.02	0.31
0.9684	369.46	84.53	0.39
0.9684	373.88	99.14	0.45
0.9292	327.81	13.63	0.12
0.9292	335.28	19.37	0.14
0.9292	341.78	25.91	0.16
0.9292	349.88	36.66	0.19
0.9292	356.81	48.6	0.24
0.9292	363.92	64.01	0.31
0.9292	371.26	84.05	0.39
0.9292	375.7	98.7	0.45

System: propan-1-ol + 1-ethyl-3-methylimidazolium methylsulfate; phases: Liquid, Gas
Property: Vapor or sublimation pressure, kPa (Liquid); method: Ebulliometric method (Recirculating still)
Mole fraction of propan-1-ol	Temperature, K	Vapor or sublimation pressure, kPa	uncertainty
0.9703	323.16	11.85	0.12
0.9703	332.53	19.23	0.14
0.9703	339.79	27.34	0.16
0.9703	347.06	38.16	0.2
0.9703	352.84	49.14	0.25
0.9703	359.75	65.6	0.32
0.9703	366.83	87.02	0.4
0.9703	370.46	100.07	0.45
0.9357	326.23	13.67	0.12
0.9357	334.17	20.45	0.14
0.9357	339	25.82	0.16
0.9357	346.95	37.2	0.2
0.9357	353.61	49.74	0.25
0.9357	360.52	66.3	0.32
0.9357	366.87	85.31	0.4
0.9357	371.05	100.18	0.45
0.8946	327	13.77	0.12
0.8946	333.46	19.13	0.14
0.8946	339.78	25.92	0.16
0.8946	348	37.78	0.2
0.8946	354.18	49.41	0.25
0.8946	361.07	65.67	0.32
0.8946	367.43	85.01	0.39
0.8946	371.91	100.32	0.45
0.7845	328.26	13.23	0.12
0.7845	337.59	21.09	0.14
0.7845	342.65	26.78	0.16
0.7845	350.47	38.08	0.2
0.7845	356.78	49.9	0.25
0.7845	364.51	68.34	0.33
0.7845	370.21	85.37	0.4
0.7845	374.4	100.08	0.46

System: propan-1-ol + 1-ethyl-3-methylimidazolium ethyl sulfate; phases: Liquid, Gas
Property: Vapor or sublimation pressure, kPa (Liquid); method: Ebulliometric method (Recirculating still)
Mole fraction of propan-1-ol	Temperature, K	Vapor or sublimation pressure, kPa	uncertainty
0.9721	324.98	13.01	0.12
0.9721	333.05	19.64	0.14
0.9721	338.57	25.68	0.16
0.9721	346.76	37.44	0.2
0.9721	352.95	49.1	0.25
0.9721	359.9	65.67	0.32
0.9721	366.25	84.68	0.39
0.9721	370.39	99.38	0.45
0.9393	327.82	14.74	0.12
0.9393	334.68	20.81	0.14
0.9393	339.56	26.31	0.16
0.9393	347.15	37.28	0.2
0.9393	354.93	52.27	0.26
0.9393	360.05	64.62	0.31
0.9393	366.75	84.44	0.39
0.9393	371.16	100.09	0.45
0.9002	326.77	13.34	0.12
0.9002	335.68	20.88	0.14
0.9002	340.87	26.74	0.16
0.9002	349	38.7	0.2
0.9002	354.47	49.02	0.25
0.9002	361.89	66.51	0.32
0.9002	367.74	83.84	0.39
0.9002	372.37	100.2	0.46
0.7946	328.42	12.8	0.12
0.7946	337.14	19.77	0.14
0.7946	343.15	26.26	0.16
0.7946	351.19	37.63	0.2
0.7946	357.43	49.15	0.25
0.7946	364.46	65.49	0.32
0.7946	371.09	84.89	0.4
0.7946	375.29	99.46	0.46

System: propan-2-ol + 1-ethyl-3-methylimidazolium methylsulfate; phases: Liquid, Gas
Property: Vapor or sublimation pressure, kPa (Liquid); method: Ebulliometric method (Recirculating still)
Mole fraction of propan-2-ol	Temperature, K	Vapor or sublimation pressure, kPa	uncertainty
0.9704	314	14.16	0.12
0.9704	318.95	18.5	0.14
0.9704	326.09	26.71	0.16
0.9704	331.17	34.31	0.19
0.9704	337.55	46.3	0.24
0.9704	343.43	60.27	0.3
0.9704	350.99	83.12	0.39
0.9704	355.77	100.94	0.46
0.9357	314.88	14.63	0.12
0.9357	319.84	19.11	0.14
0.9357	326.7	27.12	0.16
0.9357	333.08	36.97	0.2
0.9357	338.22	46.92	0.24
0.9357	344.76	62.54	0.3
0.9357	350.52	80.05	0.38
0.9357	356.22	100.81	0.46
0.8946	317.39	16.27	0.13
0.8946	322.45	21.21	0.14
0.8946	327.85	27.86	0.17
0.8946	333.89	37.28	0.2
0.8946	339.29	47.83	0.24
0.8946	345.33	62.4	0.31
0.8946	352.06	82.82	0.39
0.8946	357.06	101.32	0.46
0.7844	315.46	13.24	0.12
0.7844	320.52	17.36	0.13
0.7844	328.23	25.68	0.16
0.7844	334.81	35.2	0.19
0.7844	341.19	47.11	0.24
0.7844	347.28	61.47	0.3
0.7844	355.22	85.36	0.4
0.7844	359.58	101.59	0.47

System: propan-2-ol + 1-ethyl-3-methylimidazolium ethyl sulfate; phases: Liquid, Gas
Property: Vapor or sublimation pressure, kPa (Liquid); method: Ebulliometric method (Recirculating still)
Mole fraction of propan-2-ol	Temperature, K	Vapor or sublimation pressure, kPa	uncertainty
0.9725	313.61	13.76	0.12
0.9725	323.19	22.91	0.15
0.9725	327.63	28.66	0.17
0.9725	333.75	38.5	0.2
0.9725	339.19	49.49	0.25
0.9725	345.6	65.71	0.32
0.9725	351.5	84.26	0.39
0.9725	355.22	97.98	0.45
0.9402	312.65	12.66	0.12
0.9402	320.18	19.02	0.14
0.9402	325.91	25.53	0.16
0.9402	333.73	37.31	0.2
0.9402	339.44	48.55	0.25
0.9402	345.82	64.25	0.31
0.9402	351.9	82.95	0.39
0.9402	355.83	97.3	0.45
0.9019	316.55	15.17	0.13
0.9019	322.37	20.62	0.14
0.9019	326.62	25.56	0.16
0.9019	334.48	37.42	0.2
0.9019	339.56	47.27	0.24
0.9019	346.62	64.46	0.31
0.9019	352.17	81.34	0.38
0.9019	356.47	96.82	0.44
0.7973	314.65	12.1	0.12
0.7973	322.92	18.76	0.14
0.7973	329.3	25.82	0.16
0.7973	336.98	37.13	0.2
0.7973	343.4	49.61	0.25
0.7973	349.9	65.61	0.32
0.7973	355.69	83.22	0.39
0.7973	360.16	99.43	0.46

System: propan-1-ol + water + 1-ethyl-3-methylimidazolium methylsulfate; phases: Liquid, Gas
Property: Vapor or sublimation pressure, kPa (Liquid); method: Ebulliometric method (Recirculating still)
Mole fraction of water	Mole fraction of propan-1-ol	Temperature, K	Vapor or sublimation pressure, kPa	uncertainty
0.9334	0.0306	318.9	12.13	0.12
0.9334	0.0306	327.51	18.8	0.13
0.9334	0.0306	333.75	25.36	0.16
0.9334	0.0306	341.73	36.37	0.19
0.9334	0.0306	348.56	48.91	0.25
0.9334	0.0306	355.38	65.1	0.31
0.9334	0.0306	362.46	85.45	0.39
0.9334	0.0306	366.87	99.53	0.45
0.8503	0.1075	316.42	12.61	0.12
0.8503	0.1075	323.94	18.6	0.13
0.8503	0.1075	330.31	25.36	0.16
0.8503	0.1075	338.44	36.92	0.2
0.8503	0.1075	344.82	48.87	0.24
0.8503	0.1075	352.12	66.32	0.32
0.8503	0.1075	358.61	85.59	0.39
0.8503	0.1075	362.51	99.33	0.45
0.733	0.2162	317.57	13.49	0.12
0.733	0.2162	324.88	19.66	0.14
0.733	0.2162	330.61	26.03	0.16
0.733	0.2162	338.65	37.82	0.2
0.733	0.2162	345.08	50.26	0.25
0.733	0.2162	352.56	68.94	0.33
0.733	0.2162	358.29	86.01	0.4
0.733	0.2162	362.33	100.49	0.45
0.5543	0.3815	317.81	13.16	0.12
0.5543	0.3815	325.92	19.97	0.14
0.5543	0.3815	331.39	25.65	0.16
0.5543	0.3815	339.37	37.81	0.2
0.5543	0.3815	345.73	50.09	0.25
0.5543	0.3815	352.52	66.8	0.32
0.5543	0.3815	358.76	85.57	0.39
0.5543	0.3815	362.86	100.01	0.45
0.2498	0.6633	321.46	13.52	0.12
0.2498	0.6633	329.86	20.73	0.14
0.2498	0.6633	334.76	26.26	0.16
0.2498	0.6633	342.47	37.51	0.2
0.2498	0.6633	348.99	49.92	0.25
0.2498	0.6633	356	67.04	0.32
0.2498	0.6633	362.16	85.97	0.4
0.2498	0.6633	366.33	100.21	0.45

System: propan-1-ol + water + 1-ethyl-3-methylimidazolium ethyl sulfate; phases: Liquid, Gas
Property: Vapor or sublimation pressure, kPa (Liquid); method: Ebulliometric method (Recirculating still)
Mole fraction of water	Mole fraction of propan-1-ol	Temperature, K	Vapor or sublimation pressure, kPa	uncertainty
0.9354	0.0307	321.48	13.69	0.12
0.9354	0.0307	328.35	19.31	0.14
0.9354	0.0307	334.08	25.36	0.16
0.9354	0.0307	342.32	36.89	0.2
0.9354	0.0307	348.81	48.87	0.24
0.9354	0.0307	355.99	65.23	0.31
0.9354	0.0307	362.3	83.01	0.38
0.9354	0.0307	367.09	98.39	0.44
0.8525	0.1077	318.53	13.8	0.12
0.8525	0.1077	326.99	21.18	0.14
0.8525	0.1077	331.84	26.78	0.16
0.8525	0.1077	339.63	38.31	0.2
0.8525	0.1077	346.56	51.77	0.26
0.8525	0.1077	352.67	66.49	0.32
0.8525	0.1077	359.45	86.53	0.4
0.8525	0.1077	363.49	100.67	0.45
0.7352	0.2168	318.45	13.91	0.12
0.7352	0.2168	326.26	20.75	0.14
0.7352	0.2168	331.97	27.38	0.16
0.7352	0.2168	339.68	39.06	0.2
0.7352	0.2168	345.25	49.92	0.25
0.7352	0.2168	352.38	67.39	0.32
0.7352	0.2168	358.43	85.27	0.39
0.7352	0.2168	362.77	100.9	0.46
0.5564	0.3829	317.47	12.74	0.12
0.5564	0.3829	326.16	20.12	0.14
0.5564	0.3829	331.92	26.66	0.16
0.5564	0.3829	339.28	37.54	0.2
0.5564	0.3829	346.48	51.56	0.26
0.5564	0.3829	352.42	66.37	0.32
0.5564	0.3829	358.83	85.56	0.39
0.5564	0.3829	363.09	100.73	0.46
0.2514	0.6665	323	14.83	0.12
0.2514	0.6665	328.94	20.04	0.14
0.2514	0.6665	334.88	26.72	0.16
0.2514	0.6665	342.98	38.79	0.2
0.2514	0.6665	349.04	50.59	0.25
0.2514	0.6665	355.4	66.27	0.32
0.2514	0.6665	362.38	86.05	0.4
0.2514	0.6665	366.47	100.63	0.46

System: propan-2-ol + water + 1-ethyl-3-methylimidazolium methylsulfate; phases: Liquid, Gas
Property: Vapor or sublimation pressure, kPa (Liquid); method: Ebulliometric method (Recirculating still)
Mole fraction of water	Mole fraction of propan-2-ol	Temperature, K	Vapor or sublimation pressure, kPa	uncertainty
0.9334	0.0306	321.07	14.91	0.13
0.9334	0.0306	326.85	19.99	0.14
0.9334	0.0306	333.34	27.38	0.17
0.9334	0.0306	340.45	37.93	0.2
0.9334	0.0306	346.17	48.67	0.25
0.9334	0.0306	352.26	62.45	0.3
0.9334	0.0306	359.87	84.11	0.39
0.9334	0.0306	364.29	100.04	0.45
0.8503	0.1075	312.69	13.15	0.12
0.8503	0.1075	318.79	18.14	0.13
0.8503	0.1075	325.15	25	0.16
0.8503	0.1075	332.79	36.29	0.2
0.8503	0.1075	339.48	48.96	0.25
0.8503	0.1075	346.52	66.58	0.32
0.8503	0.1075	352.54	84.09	0.39
0.8503	0.1075	356.64	99.79	0.45
0.7329	0.2161	310.95	12.84	0.12
0.7329	0.2161	318.59	19.26	0.14
0.7329	0.2161	324.9	26.46	0.16
0.7329	0.2161	332.33	37.79	0.2
0.7329	0.2161	339.62	52.56	0.26
0.7329	0.2161	345.97	69.04	0.33
0.7329	0.2161	351.26	86.2	0.4
0.7329	0.2161	355.04	100.12	0.45
0.5543	0.3815	313.75	15.26	0.13
0.5543	0.3815	318.79	19.9	0.14
0.5543	0.3815	324.72	26.83	0.16
0.5543	0.3815	331.31	36.85	0.2
0.5543	0.3815	336.69	47.13	0.24
0.5543	0.3815	343.23	62.65	0.3
0.5543	0.3815	349.63	81.82	0.38
0.5543	0.3815	354.62	99.96	0.45
0.2499	0.6632	313	14.13	0.12
0.2499	0.6632	319.26	19.65	0.14
0.2499	0.6632	324.8	26.1	0.16
0.2499	0.6632	331.99	36.95	0.2
0.2499	0.6632	337.74	48.18	0.24
0.2499	0.6632	344.02	63.61	0.31
0.2499	0.6632	350.2	82.68	0.39
0.2499	0.6632	355.03	100.4	0.46

System: propan-2-ol + water + 1-ethyl-3-methylimidazolium ethyl sulfate; phases: Liquid, Gas
Property: Vapor or sublimation pressure, kPa (Liquid); method: Ebulliometric method (Recirculating still)
Mole fraction of water	Mole fraction of propan-2-ol	Temperature, K	Vapor or sublimation pressure, kPa	uncertainty
0.9354	0.0307	318.57	12.89	0.12
0.9354	0.0307	327.01	19.97	0.14
0.9354	0.0307	333.4	27.24	0.16
0.9354	0.0307	339.73	36.58	0.2
0.9354	0.0307	346.34	49.12	0.25
0.9354	0.0307	353.2	65.18	0.31
0.9354	0.0307	360.09	85.07	0.39
0.9354	0.0307	363.94	99.37	0.45
0.8524	0.1078	311.84	12.34	0.12
0.8524	0.1078	320.23	19.22	0.14
0.8524	0.1078	326.47	26.27	0.16
0.8524	0.1078	333.26	36.27	0.2
0.8524	0.1078	339.29	47.94	0.24
0.8524	0.1078	347.34	67.46	0.32
0.8524	0.1078	352.07	82.33	0.39
0.8524	0.1078	356.85	98.81	0.45
0.7352	0.2166	311.38	13	0.12
0.7352	0.2166	318.53	19.06	0.14
0.7352	0.2166	323.71	24.79	0.16
0.7352	0.2166	331.79	36.6	0.2
0.7352	0.2166	338.21	49.1	0.25
0.7352	0.2166	344.66	64.72	0.31
0.7352	0.2166	350.81	83.2	0.39
0.7352	0.2166	355.2	99.16	0.45
0.5564	0.3829	311.5	13.29	0.12
0.5564	0.3829	318.62	19.42	0.14
0.5564	0.3829	324.01	25.57	0.16
0.5564	0.3829	332.04	37.65	0.2
0.5564	0.3829	338.08	49.55	0.25
0.5564	0.3829	344.58	65.7	0.32
0.5564	0.3829	350.68	84.32	0.39
0.5564	0.3829	354.83	99.57	0.45
0.2513	0.6667	313.21	14.15	0.12
0.2513	0.6667	321.01	21.41	0.14
0.2513	0.6667	326.64	28.37	0.17
0.2513	0.6667	332.54	37.5	0.2
0.2513	0.6667	338.33	49.22	0.25
0.2513	0.6667	344.71	65.1	0.31
0.2513	0.6667	350.98	84.54	0.39
0.2513	0.6667	355.26	99.97	0.45
