Measured thermophysical data. Solid-liquid equilibrium in the aqueous system containing the chlorides of lithium, rubidium and magnesium at 323 K
Source: Fluid Phase Equilib., 2014, 10.1016/j.fluid.2014.01.037
Compound 1: water, H2O, InChI=1S/H2O/h1H2, purity 99.8%
Compound 2: lithium chloride, ClLi, InChI=1S/ClH.Li/h1H;/q;+1/p-1, purity 99%
Compound 3: rubidium chloride, ClRb, InChI=1S/ClH.Rb/h1H;/q;+1/p-1, purity 99.5%
Compound 4: magnesium chloride, Cl2Mg, InChI=1S/2ClH.Mg/h2*1H;/q;;+2/p-2, purity 99%

System: lithium chloride + water; phases: Liquid, Crystal of intercomponent compound 1
Property: Mass fraction of lithium chloride (Liquid); method: inductively coupled plasma optical emission spectrometry
Temperature, K	Pressure, kPa	Mass fraction of lithium chloride	uncertainty
323	100	0.4751	0.003

System: water + rubidium chloride; phases: Liquid, Crystal
Property: Mass fraction of rubidium chloride (Liquid); method: Titration method
Temperature, K	Pressure, kPa	Mass fraction of rubidium chloride	uncertainty
323	100	0.5209	0.0053

System: water + magnesium chloride; phases: Liquid, Crystal of intercomponent compound 1
Property: Mass fraction of magnesium chloride (Liquid); method: Titration method
Temperature, K	Pressure, kPa	Mass fraction of magnesium chloride	uncertainty
323	100	0.3735	0.0038

System: lithium chloride + water + rubidium chloride; phases: Liquid, Crystal of intercomponent compound 1, Crystal
Property: Mass fraction of lithium chloride (Liquid); method: inductively coupled plasma optical emission spectrometry
Temperature, K	Pressure, kPa	Mass fraction of lithium chloride	uncertainty
323	100	0.2762	0.0018

System: lithium chloride + water + rubidium chloride; phases: Liquid, Crystal of intercomponent compound 1, Crystal
Property: Mass fraction of rubidium chloride (Liquid); method: Titration method
Temperature, K	Pressure, kPa	Mass fraction of rubidium chloride	uncertainty
323	100	0.2475	0.0025

System: lithium chloride + water + rubidium chloride; phases: Liquid
Property: Mass density, kg/m3 (Liquid); method: Pycnometric method
Mass fraction of lithium chloride	Mass fraction of rubidium chloride	Pressure, kPa	Temperature, K	Mass density, kg/m3	uncertainty
0.2762	0.2475	100	323	1562.1	1

System: lithium chloride + water + rubidium chloride; phases: Liquid
Property: Refractive index (Na D-line) (Liquid); method: Standard Abbe refractometry
Mass fraction of lithium chloride	Mass fraction of rubidium chloride	Pressure, kPa	Temperature, K	Refractive index (Na D-line)	uncertainty
0.2762	0.2475	100	323	1.4304	0.0004

System: lithium chloride + water + magnesium chloride; phases: Liquid, Crystal of intercomponent compound 1, Crystal of intercomponent compound 2
Property: Mass fraction of lithium chloride (Liquid); method: inductively coupled plasma optical emission spectrometry
Temperature, K	Pressure, kPa	Mass fraction of lithium chloride	uncertainty
323	100	0.2376	0.0015

System: lithium chloride + water + magnesium chloride; phases: Liquid, Crystal of intercomponent compound 1, Crystal of intercomponent compound 2
Property: Mass fraction of magnesium chloride (Liquid); method: Titration method
Temperature, K	Pressure, kPa	Mass fraction of magnesium chloride	uncertainty
323	100	0.2011	0.0021

System: lithium chloride + water + magnesium chloride; phases: Liquid, Crystal of intercomponent compound 3, Crystal of intercomponent compound 2
Property: Mass fraction of lithium chloride (Liquid); method: inductively coupled plasma optical emission spectrometry
Temperature, K	Pressure, kPa	Mass fraction of lithium chloride	uncertainty
323	100	0.3998	0.0025

System: lithium chloride + water + magnesium chloride; phases: Liquid, Crystal of intercomponent compound 3, Crystal of intercomponent compound 2
Property: Mass fraction of magnesium chloride (Liquid); method: Titration method
Temperature, K	Pressure, kPa	Mass fraction of magnesium chloride	uncertainty
323	100	0.0875	0.0009

System: lithium chloride + water + magnesium chloride; phases: Liquid
Fixed: Pressure, kPa = 100
Fixed: Temperature, K = 323
Property: Mass density, kg/m3 (Liquid); method: Pycnometric method
Mass fraction of lithium chloride	Mass fraction of magnesium chloride	Mass density, kg/m3	uncertainty
0.2376	0.2011	1409.5	0.9
0.3998	0.0875	1403.3	0.8

System: lithium chloride + water + magnesium chloride; phases: Liquid
Fixed: Pressure, kPa = 100
Fixed: Temperature, K = 323
Property: Refractive index (Na D-line) (Liquid); method: Standard Abbe refractometry
Mass fraction of lithium chloride	Mass fraction of magnesium chloride	Refractive index (Na D-line)	uncertainty
0.2376	0.2011	1.4322	0.0004
0.3998	0.0875	1.4476	0.0005

System: water + magnesium chloride + rubidium chloride; phases: Liquid, Crystal of intercomponent compound 1, Crystal
Property: Mass fraction of rubidium chloride (Liquid); method: Titration method
Temperature, K	Pressure, kPa	Mass fraction of rubidium chloride	uncertainty
323	100	0.3143	0.0032

System: water + magnesium chloride + rubidium chloride; phases: Liquid, Crystal of intercomponent compound 1, Crystal
Property: Mass fraction of magnesium chloride (Liquid); method: Titration method
Temperature, K	Pressure, kPa	Mass fraction of magnesium chloride	uncertainty
323	100	0.1278	0.0013

System: water + magnesium chloride + rubidium chloride; phases: Liquid, Crystal of intercomponent compound 1, Crystal of intercomponent compound 2
Property: Mass fraction of rubidium chloride (Liquid); method: Titration method
Temperature, K	Pressure, kPa	Mass fraction of rubidium chloride	uncertainty
323	100	0.0036	0.0001

System: water + magnesium chloride + rubidium chloride; phases: Liquid, Crystal of intercomponent compound 1, Crystal of intercomponent compound 2
Property: Mass fraction of magnesium chloride (Liquid); method: Titration method
Temperature, K	Pressure, kPa	Mass fraction of magnesium chloride	uncertainty
323	100	0.3582	0.0037

System: water + magnesium chloride + rubidium chloride; phases: Liquid
Fixed: Pressure, kPa = 100
Fixed: Temperature, K = 323
Property: Mass density, kg/m3 (Liquid); method: Pycnometric method
Mass fraction of rubidium chloride	Mass fraction of magnesium chloride	Mass density, kg/m3	uncertainty
0.3143	0.1278	1559	1.6
0.0036	0.3582	1421	0.9

System: water + magnesium chloride + rubidium chloride; phases: Liquid
Fixed: Pressure, kPa = 100
Fixed: Temperature, K = 323
Property: Refractive index (Na D-line) (Liquid); method: Standard Abbe refractometry
Mass fraction of rubidium chloride	Mass fraction of magnesium chloride	Refractive index (Na D-line)	uncertainty
0.3143	0.1278	1.4076	0.0004
0.0036	0.3582	1.4295	0.0004
