Measured thermophysical data. Thermodynamics of dissolution for 1-naphtol N-methylcarbamate in pure, mineral and Mediterranean sea water by dynamic saturation method
Source: Fluid Phase Equilib., 2008, 10.1016/j.fluid.2007.11.012
Compound 1: 1-naphthyl N-methylcarbamate, C12H11NO2, InChI=1S/C12H11NO2/c1-13-12(14)15-11-8-4-6-9-5-2-3-7-10(9)11/h2-8H,1H3,(H,13,14)
Compound 2: water, H2O, InChI=1S/H2O/h1H2
Compound 3: ethylbenzene, C8H10, InChI=1S/C8H10/c1-2-8-6-4-3-5-7-8/h3-7H,2H2,1H3

System: 1-naphthyl N-methylcarbamate + water; phases: Liquid, Crystal
Fixed: Pressure, kPa = 101
Property: Mole fraction of 1-naphthyl N-methylcarbamate (Liquid); method: Chromatography
Temperature, K	Mole fraction of 1-naphthyl N-methylcarbamate	uncertainty
273.15	3.56e-06	1e-07
273.15	3.57e-06	1e-07
273.15	3.59e-06	1e-07
293.15	9.76e-06	2.6e-07
293.15	9.74e-06	2.6e-07
293.15	9.78e-06	2.6e-07
298.15	1.33e-05	4e-07
298.15	1.33e-05	4e-07
298.15	1.34e-05	4e-07
303.15	1.72e-05	6e-07
303.15	1.75e-05	6e-07
303.15	1.71e-05	6e-07
308.15	2.29e-05	1.1e-06
308.15	2.2e-05	1e-06
308.15	2.24e-05	1e-06
313.15	2.77e-05	8e-07
313.15	2.79e-05	8e-07
313.15	2.81e-05	8e-07
318.15	3.52e-05	1.1e-06
318.15	3.46e-05	1e-06
318.15	3.48e-05	1e-06

System: ethylbenzene + water; phases: Liquid mixture 1, Liquid mixture 2
Fixed: Pressure, kPa = 101
Property: Mole fraction of ethylbenzene (Liquid mixture 1); method: Chromatography
Temperature, K	Mole fraction of ethylbenzene	uncertainty
312.95	3.38e-05	2.4e-06
313.15	3.56e-05	2.4e-06
313.25	3.45e-05	2.3e-06
313.85	3.38e-05	2.3e-06
314.05	3.26e-05	2.2e-06
