Measured thermophysical data. Viscous synergy and antagonism and isentropic compressibility of ternary mixtures containing 1,3-dioxolane, water and monoalkanols at 303.15K
Source: Fluid Phase Equilib., 2006, 10.1016/j.fluid.2006.02.023
Compound 1: 1,3-dioxolane, C3H6O2, InChI=1S/C3H6O2/c1-2-5-3-4-1/h1-3H2
Compound 2: water, H2O, InChI=1S/H2O/h1H2
Compound 3: methanol, CH4O, InChI=1S/CH4O/c1-2/h2H,1H3
Compound 4: ethanol, C2H6O, InChI=1S/C2H6O/c1-2-3/h3H,2H2,1H3
Compound 5: propan-1-ol, C3H8O, InChI=1S/C3H8O/c1-2-3-4/h4H,2-3H2,1H3
Compound 6: propan-2-ol, C3H8O, InChI=1S/C3H8O/c1-3(2)4/h3-4H,1-2H3
Compound 7: butan-1-ol, C4H10O, InChI=1S/C4H10O/c1-2-3-4-5/h5H,2-4H2,1H3
Compound 8: butan-2-ol, C4H10O, InChI=1S/C4H10O/c1-3-4(2)5/h4-5H,3H2,1-2H3
Compound 9: 2-methylpropan-2-ol, C4H10O, InChI=1S/C4H10O/c1-4(2,3)5/h5H,1-3H3
Compound 10: 3-methylbutan-1-ol, C5H12O, InChI=1S/C5H12O/c1-5(2)3-4-6/h5-6H,3-4H2,1-2H3

System: 1,3-dioxolane; phases: Liquid
Property: Mass density, kg/m3 (Liquid); method: PYCNOM:UFactor:4
Temperature, K	Pressure, kPa	Mass density, kg/m3	uncertainty
303.15	101.325	1051.8	1.2

System: 1,3-dioxolane; phases: Liquid
Property: Viscosity, Pa*s (Liquid); method: CAPTUB:UFactor:8
Temperature, K	Pressure, kPa	Viscosity, Pa*s	uncertainty
303.15	101.325	0.0005487	2.99e-05

System: 1,3-dioxolane; phases: Liquid
Property: Speed of sound, m/s (Liquid); method: FPINT:UFactor:4
Temperature, K	Pressure, kPa	Speed of sound, m/s	uncertainty
303.15	101.325	1288.5	2.6

System: water; phases: Liquid
Property: Mass density, kg/m3 (Liquid); method: PYCNOM:UFactor:4
Temperature, K	Pressure, kPa	Mass density, kg/m3	uncertainty
303.15	101.325	995.7	1.1

System: water; phases: Liquid
Property: Viscosity, Pa*s (Liquid); method: CAPTUB:UFactor:8
Temperature, K	Pressure, kPa	Viscosity, Pa*s	uncertainty
303.15	101.325	0.0007975	4.06e-05

System: water; phases: Liquid
Property: Speed of sound, m/s (Liquid); method: FPINT:UFactor:4
Temperature, K	Pressure, kPa	Speed of sound, m/s	uncertainty
303.15	101.325	1505.2	3

System: methanol; phases: Liquid
Property: Mass density, kg/m3 (Liquid); method: PYCNOM:UFactor:4
Temperature, K	Pressure, kPa	Mass density, kg/m3	uncertainty
303.15	101.325	782.4	0.9

System: methanol; phases: Liquid
Property: Viscosity, Pa*s (Liquid); method: CAPTUB:UFactor:8
Temperature, K	Pressure, kPa	Viscosity, Pa*s	uncertainty
303.15	101.325	0.0005041	2.8e-05

System: methanol; phases: Liquid
Property: Speed of sound, m/s (Liquid); method: FPINT:UFactor:4
Temperature, K	Pressure, kPa	Speed of sound, m/s	uncertainty
303.15	101.325	1088.5	2.3

System: ethanol; phases: Liquid
Property: Mass density, kg/m3 (Liquid); method: PYCNOM:UFactor:4
Temperature, K	Pressure, kPa	Mass density, kg/m3	uncertainty
303.15	101.325	784.4	0.9

System: ethanol; phases: Liquid
Property: Viscosity, Pa*s (Liquid); method: CAPTUB:UFactor:8
Temperature, K	Pressure, kPa	Viscosity, Pa*s	uncertainty
303.15	101.325	0.0009675	4.79e-05

System: ethanol; phases: Liquid
Property: Speed of sound, m/s (Liquid); method: FPINT:UFactor:4
Temperature, K	Pressure, kPa	Speed of sound, m/s	uncertainty
303.15	101.325	1144.3	2.4

System: propan-1-ol; phases: Liquid
Property: Mass density, kg/m3 (Liquid); method: PYCNOM:UFactor:4
Temperature, K	Pressure, kPa	Mass density, kg/m3	uncertainty
303.15	101.325	795.8	0.9

System: propan-1-ol; phases: Liquid
Property: Viscosity, Pa*s (Liquid); method: CAPTUB:UFactor:8
Temperature, K	Pressure, kPa	Viscosity, Pa*s	uncertainty
303.15	101.325	0.0016626	7.76e-05

System: propan-1-ol; phases: Liquid
Property: Speed of sound, m/s (Liquid); method: FPINT:UFactor:4
Temperature, K	Pressure, kPa	Speed of sound, m/s	uncertainty
303.15	101.325	1182.6	2.5

System: propan-2-ol; phases: Liquid
Property: Mass density, kg/m3 (Liquid); method: PYCNOM:UFactor:4
Temperature, K	Pressure, kPa	Mass density, kg/m3	uncertainty
303.15	101.325	777.3	0.9

System: propan-2-ol; phases: Liquid
Property: Viscosity, Pa*s (Liquid); method: CAPTUB:UFactor:8
Temperature, K	Pressure, kPa	Viscosity, Pa*s	uncertainty
303.15	101.325	0.0016142	7.56e-05

System: propan-2-ol; phases: Liquid
Property: Speed of sound, m/s (Liquid); method: FPINT:UFactor:4
Temperature, K	Pressure, kPa	Speed of sound, m/s	uncertainty
303.15	101.325	1126.6	2.4

System: butan-1-ol; phases: Liquid
Property: Mass density, kg/m3 (Liquid); method: PYCNOM:UFactor:4
Temperature, K	Pressure, kPa	Mass density, kg/m3	uncertainty
303.15	101.325	802.1	0.9

System: butan-1-ol; phases: Liquid
Property: Viscosity, Pa*s (Liquid); method: CAPTUB:UFactor:8
Temperature, K	Pressure, kPa	Viscosity, Pa*s	uncertainty
303.15	101.325	0.0025396	0.0001148

System: butan-1-ol; phases: Liquid
Property: Speed of sound, m/s (Liquid); method: FPINT:UFactor:4
Temperature, K	Pressure, kPa	Speed of sound, m/s	uncertainty
303.15	101.325	1196.6	2.5

System: butan-2-ol; phases: Liquid
Property: Mass density, kg/m3 (Liquid); method: PYCNOM:UFactor:4
Temperature, K	Pressure, kPa	Mass density, kg/m3	uncertainty
303.15	101.325	799.2	0.9

System: butan-2-ol; phases: Liquid
Property: Viscosity, Pa*s (Liquid); method: CAPTUB:UFactor:8
Temperature, K	Pressure, kPa	Viscosity, Pa*s	uncertainty
303.15	101.325	0.0023394	0.0001063

System: butan-2-ol; phases: Liquid
Property: Speed of sound, m/s (Liquid); method: FPINT:UFactor:4
Temperature, K	Pressure, kPa	Speed of sound, m/s	uncertainty
303.15	101.325	1168.9	2.4

System: 2-methylpropan-2-ol; phases: Liquid
Property: Mass density, kg/m3 (Liquid); method: PYCNOM:UFactor:4
Temperature, K	Pressure, kPa	Mass density, kg/m3	uncertainty
303.15	101.325	775.1	0.9

System: 2-methylpropan-2-ol; phases: Liquid
Property: Viscosity, Pa*s (Liquid); method: CAPTUB:UFactor:8
Temperature, K	Pressure, kPa	Viscosity, Pa*s	uncertainty
303.15	101.325	0.0030986	0.0001382

System: 2-methylpropan-2-ol; phases: Liquid
Property: Speed of sound, m/s (Liquid); method: FPINT:UFactor:4
Temperature, K	Pressure, kPa	Speed of sound, m/s	uncertainty
303.15	101.325	1078.8	2.3

System: 3-methylbutan-1-ol; phases: Liquid
Property: Mass density, kg/m3 (Liquid); method: PYCNOM:UFactor:4
Temperature, K	Pressure, kPa	Mass density, kg/m3	uncertainty
303.15	101.325	803.2	0.9

System: 3-methylbutan-1-ol; phases: Liquid
Property: Viscosity, Pa*s (Liquid); method: CAPTUB:UFactor:8
Temperature, K	Pressure, kPa	Viscosity, Pa*s	uncertainty
303.15	101.325	0.0031111	0.0001388

System: 3-methylbutan-1-ol; phases: Liquid
Property: Speed of sound, m/s (Liquid); method: FPINT:UFactor:4
Temperature, K	Pressure, kPa	Speed of sound, m/s	uncertainty
303.15	101.325	1197	2.5

System: methanol + 1,3-dioxolane + water; phases: Liquid
Fixed: Pressure, kPa = 101
Fixed: Temperature, K = 303.15
Property: Viscosity, Pa*s (Liquid); method: CAPTUB:UFactor:8
Mass fraction of 1,3-dioxolane	Mass fraction of water	Viscosity, Pa*s	uncertainty
0	0.6403	0.12414	0.01544
0.0334	0.6189	0.11408	0.01289
0.0722	0.5941	0.10529	0.01076
0.1177	0.5649	0.09851	0.00918
0.1718	0.5303	0.09087	0.00747
0.2373	0.4883	0.08206	0.00561
0.3182	0.4365	0.07505	0.00422
0.4206	0.3709	0.07	0.00326
0.5545	0.2853	0.06362	0.00213
0.7369	0.1685	0.05672	0.001
1	0	0.05487	0.00072

System: methanol + 1,3-dioxolane + water; phases: Liquid
Fixed: Pressure, kPa = 101
Fixed: Temperature, K = 303.15
Property: Speed of sound, m/s (Liquid); method: FPINT:UFactor:64
Mass fraction of 1,3-dioxolane	Mass fraction of water	Speed of sound, m/s	uncertainty
0	0.6403	1482.5	46.7
0.0334	0.6189	1462.8	46.2
0.0722	0.5941	1433.5	45.4
0.1177	0.5649	1423.5	45.2
0.1718	0.5303	1387.2	44.3
0.2373	0.4883	1359.1	43.6
0.3182	0.4365	1339.3	43.1
0.4206	0.3709	1366.7	43.8
0.5545	0.2853	1349.4	43.4
0.7369	0.1685	1334.8	43
1	0	1288.5	41.9

System: methanol + 1,3-dioxolane + water; phases: Liquid
Fixed: Pressure, kPa = 101
Fixed: Temperature, K = 303.15
Property: Mass density, kg/m3 (Liquid); method: PYCNOM:UFactor:4
Mass fraction of 1,3-dioxolane	Mass fraction of water	Mass density, kg/m3	uncertainty
0	0.6403	908.6	0.9
0.0334	0.6189	921.9	0.9
0.0722	0.5941	935.3	0.9
0.1177	0.5649	948.9	1
0.1718	0.5303	962.9	1
0.2373	0.4883	976.9	1
0.3182	0.4365	991.2	1
0.4206	0.3709	1005.9	1
0.5545	0.2853	1021.7	1.1
0.7369	0.1685	1036	1.1
1	0	1051.8	1.1

System: ethanol + 1,3-dioxolane + water; phases: Liquid
Fixed: Pressure, kPa = 101
Fixed: Temperature, K = 303.15
Property: Viscosity, Pa*s (Liquid); method: CAPTUB:UFactor:8
Mass fraction of 1,3-dioxolane	Mass fraction of water	Viscosity, Pa*s	uncertainty
0	0.7191	0.16259	0.02612
0.0374	0.6922	0.14545	0.02119
0.0803	0.6613	0.13298	0.01777
0.1303	0.6254	0.12211	0.01492
0.1889	0.5832	0.10603	0.01093
0.2589	0.5329	0.09295	0.00793
0.3439	0.4718	0.08281	0.00576
0.4491	0.3961	0.07517	0.00424
0.5829	0.2999	0.06562	0.00248
0.7587	0.1735	0.05856	0.00129
1	0	0.05487	0.00072

System: ethanol + 1,3-dioxolane + water; phases: Liquid
Fixed: Pressure, kPa = 101
Fixed: Temperature, K = 303.15
Property: Speed of sound, m/s (Liquid); method: FPINT:UFactor:64
Mass fraction of 1,3-dioxolane	Mass fraction of water	Speed of sound, m/s	uncertainty
0	0.7191	1470.1	46.4
0.0374	0.6922	1447.7	45.8
0.0803	0.6613	1426.9	45.3
0.1303	0.6254	1405.1	44.7
0.1889	0.5832	1375.5	44
0.2589	0.5329	1354.2	43.5
0.3439	0.4718	1329.8	42.9
0.4491	0.3961	1363.5	43.7
0.5829	0.2999	1341.8	43.2
0.7587	0.1735	1328.2	42.8
1	0	1288.5	41.9

System: ethanol + 1,3-dioxolane + water; phases: Liquid
Fixed: Pressure, kPa = 101
Fixed: Temperature, K = 303.15
Property: Mass density, kg/m3 (Liquid); method: PYCNOM:UFactor:4
Mass fraction of 1,3-dioxolane	Mass fraction of water	Mass density, kg/m3	uncertainty
0	0.7191	908.5	0.9
0.0374	0.6922	919.9	0.9
0.0803	0.6613	933.7	0.9
0.1303	0.6254	947.7	1
0.1889	0.5832	961.2	1
0.2589	0.5329	974.9	1
0.3439	0.4718	989	1
0.4491	0.3961	1004.3	1
0.5829	0.2999	1019.6	1.1
0.7587	0.1735	1035.4	1.1
1	0	1051.8	1.1

System: propan-1-ol + 1,3-dioxolane + water; phases: Liquid
Fixed: Pressure, kPa = 101
Fixed: Temperature, K = 303.15
Property: Viscosity, Pa*s (Liquid); method: CAPTUB:UFactor:8
Mass fraction of 1,3-dioxolane	Mass fraction of water	Viscosity, Pa*s	uncertainty
0	0.7695	0.21641	0.04307
0.0399	0.7388	0.19023	0.03457
0.0855	0.7037	0.16232	0.02604
0.1381	0.6632	0.13953	0.01955
0.1996	0.6159	0.12417	0.01545
0.2722	0.5601	0.10391	0.01043
0.3594	0.4929	0.09165	0.00764
0.4659	0.4109	0.07845	0.00488
0.5993	0.3083	0.06781	0.00287
0.7709	0.1763	0.05985	0.0015
1	0	0.05487	0.00072

System: propan-1-ol + 1,3-dioxolane + water; phases: Liquid
Fixed: Pressure, kPa = 101
Fixed: Temperature, K = 303.15
Property: Speed of sound, m/s (Liquid); method: FPINT:UFactor:64
Mass fraction of 1,3-dioxolane	Mass fraction of water	Speed of sound, m/s	uncertainty
0	0.7695	1378.1	44.1
0.0399	0.7388	1390.3	44.4
0.0855	0.7037	1384.2	44.2
0.1381	0.6632	1374.4	44
0.1996	0.6159	1364.2	43.7
0.2722	0.5601	1347.7	43.3
0.3594	0.4929	1334.4	43
0.4659	0.4109	1364.1	43.7
0.5993	0.3083	1363.2	43.7
0.7709	0.1763	1345.4	43.3
1	0	1288.5	41.9

System: propan-1-ol + 1,3-dioxolane + water; phases: Liquid
Fixed: Pressure, kPa = 101
Fixed: Temperature, K = 303.15
Property: Mass density, kg/m3 (Liquid); method: PYCNOM:UFactor:4
Mass fraction of 1,3-dioxolane	Mass fraction of water	Mass density, kg/m3	uncertainty
0	0.7695	902.3	0.9
0.0399	0.7388	916.5	0.9
0.0855	0.7037	931.1	0.9
0.1381	0.6632	945.9	1
0.1996	0.6159	960.6	1
0.2722	0.5601	974.9	1
0.3594	0.4929	989.7	1
0.4659	0.4109	1004.8	1
0.5993	0.3083	1019.9	1.1
0.7709	0.1763	1035.9	1.1
1	0	1051.8	1.1

System: propan-2-ol + 1,3-dioxolane + water; phases: Liquid
Fixed: Pressure, kPa = 101
Fixed: Temperature, K = 303.15
Property: Viscosity, Pa*s (Liquid); method: CAPTUB:UFactor:8
Mass fraction of 1,3-dioxolane	Mass fraction of water	Viscosity, Pa*s	uncertainty
0	0.7695	0.21474	0.04251
0.0399	0.7388	0.19043	0.03463
0.0855	0.7037	0.16976	0.02826
0.1381	0.6632	0.14259	0.0204
0.1996	0.6159	0.12108	0.01465
0.2722	0.5601	0.10466	0.01061
0.3594	0.4929	0.09183	0.00768
0.4659	0.4109	0.07775	0.00474
0.5993	0.3083	0.068	0.0029
0.7709	0.1763	0.06025	0.00157
1	0	0.05487	0.00072

System: propan-2-ol + 1,3-dioxolane + water; phases: Liquid
Fixed: Pressure, kPa = 101
Fixed: Temperature, K = 303.15
Property: Speed of sound, m/s (Liquid); method: FPINT:UFactor:64
Mass fraction of 1,3-dioxolane	Mass fraction of water	Speed of sound, m/s	uncertainty
0	0.7695	1409.2	44.8
0.0399	0.7388	1403.9	44.7
0.0855	0.7037	1401.9	44.7
0.1381	0.6632	1390.1	44.4
0.1996	0.6159	1369.6	43.9
0.2722	0.5601	1354.9	43.5
0.3594	0.4929	1336.9	43.1
0.4659	0.4109	1362.4	43.7
0.5993	0.3083	1360.9	43.6
0.7709	0.1763	1348.9	43.4
1	0	1288.5	41.9

System: propan-2-ol + 1,3-dioxolane + water; phases: Liquid
Fixed: Pressure, kPa = 101
Fixed: Temperature, K = 303.15
Property: Mass density, kg/m3 (Liquid); method: PYCNOM:UFactor:4
Mass fraction of 1,3-dioxolane	Mass fraction of water	Mass density, kg/m3	uncertainty
0	0.7695	899.3	0.9
0.0399	0.7388	913.4	0.9
0.0855	0.7037	927.2	0.9
0.1381	0.6632	942	1
0.1996	0.6159	956.3	1
0.2722	0.5601	971.1	1
0.3594	0.4929	986.5	1
0.4659	0.4109	1002.3	1
0.5993	0.3083	1018.1	1.1
0.7709	0.1763	1034.7	1.1
1	0	1051.8	1.1

System: butan-1-ol + 1,3-dioxolane + water; phases: Liquid
Fixed: Pressure, kPa = 101
Fixed: Temperature, K = 303.15
Property: Viscosity, Pa*s (Liquid); method: CAPTUB:UFactor:8
Mass fraction of 1,3-dioxolane	Mass fraction of water	Viscosity, Pa*s	uncertainty
0	0.8046	0.23109	0.04802
0.0416	0.7711	0.1956	0.03628
0.0891	0.7329	0.16617	0.02718
0.1435	0.6891	0.14095	0.01994
0.2068	0.6382	0.12134	0.01472
0.2811	0.5784	0.10529	0.01076
0.3697	0.5071	0.09062	0.00742
0.4771	0.4207	0.08008	0.00521
0.6099	0.3138	0.06795	0.00289
0.7787	0.1781	0.06159	0.00179
1	0	0.05487	0.00072

System: butan-1-ol + 1,3-dioxolane + water; phases: Liquid
Fixed: Pressure, kPa = 101
Fixed: Temperature, K = 303.15
Property: Speed of sound, m/s (Liquid); method: FPINT:UFactor:64
Mass fraction of 1,3-dioxolane	Mass fraction of water	Speed of sound, m/s	uncertainty
0	0.8046	1353.4	43.5
0.0416	0.7711	1348.9	43.4
0.0891	0.7329	1339.3	43.1
0.1435	0.6891	1347.4	43.3
0.2068	0.6382	1344.7	43.2
0.2811	0.5784	1337.9	43.1
0.3697	0.5071	1328.4	42.8
0.4771	0.4207	1365.6	43.8
0.6099	0.3138	1350.3	43.4
0.7787	0.1781	1333.3	43
1	0	1288.5	41.9

System: butan-1-ol + 1,3-dioxolane + water; phases: Liquid
Fixed: Pressure, kPa = 101
Fixed: Temperature, K = 303.15
Property: Mass density, kg/m3 (Liquid); method: PYCNOM:UFactor:4
Mass fraction of 1,3-dioxolane	Mass fraction of water	Mass density, kg/m3	uncertainty
0	0.8046	871.9	0.9
0.0416	0.7711	900.7	0.9
0.0891	0.7329	927.9	0.9
0.1435	0.6891	943.8	1
0.2068	0.6382	958.8	1
0.2811	0.5784	974.2	1
0.3697	0.5071	989.6	1
0.4771	0.4207	1005.3	1
0.6099	0.3138	1020.5	1.1
0.7787	0.1781	1036.3	1.1
1	0	1051.8	1.1

System: butan-2-ol + 1,3-dioxolane + water; phases: Liquid
Fixed: Pressure, kPa = 101
Fixed: Temperature, K = 303.15
Property: Viscosity, Pa*s (Liquid); method: CAPTUB:UFactor:8
Mass fraction of 1,3-dioxolane	Mass fraction of water	Viscosity, Pa*s	uncertainty
0	0.8046	0.24546	0.05299
0.0416	0.7711	0.20636	0.03975
0.0891	0.7329	0.17812	0.0308
0.1435	0.6891	0.14833	0.022
0.2068	0.6382	0.12452	0.01554
0.2811	0.5784	0.10854	0.01153
0.3697	0.5072	0.09162	0.00763
0.4771	0.4207	0.07905	0.005
0.6099	0.3138	0.06783	0.00287
0.7787	0.1781	0.06002	0.00153
1	0	0.05487	0.00072

System: butan-2-ol + 1,3-dioxolane + water; phases: Liquid
Fixed: Pressure, kPa = 101
Fixed: Temperature, K = 303.15
Property: Speed of sound, m/s (Liquid); method: FPINT:UFactor:64
Mass fraction of 1,3-dioxolane	Mass fraction of water	Speed of sound, m/s	uncertainty
0	0.8046	1355.5	43.5
0.0416	0.7711	1359.7	43.6
0.0891	0.7329	1367.6	43.8
0.1435	0.6891	1361.3	43.7
0.2068	0.6382	1359	43.6
0.2811	0.5784	1346.5	43.3
0.3697	0.5072	1328.9	42.9
0.4771	0.4207	1368.9	43.8
0.6099	0.3138	1351	43.4
0.7787	0.1781	1335.4	43
1	0	1288.5	41.9

System: butan-2-ol + 1,3-dioxolane + water; phases: Liquid
Fixed: Pressure, kPa = 101
Fixed: Temperature, K = 303.15
Property: Mass density, kg/m3 (Liquid); method: PYCNOM:UFactor:4
Mass fraction of 1,3-dioxolane	Mass fraction of water	Mass density, kg/m3	uncertainty
0	0.8046	902.1	0.9
0.0416	0.7711	915.8	0.9
0.0891	0.7329	931	0.9
0.1435	0.6891	945.4	1
0.2068	0.6382	960.7	1
0.2811	0.5784	975.3	1
0.3697	0.5072	990.3	1
0.4771	0.4207	1005.2	1
0.6099	0.3138	1020.5	1.1
0.7787	0.1781	1035.9	1.1
1	0	1051.8	1.1

System: 2-methylpropan-2-ol + 1,3-dioxolane + water; phases: Liquid
Fixed: Pressure, kPa = 101
Fixed: Temperature, K = 303.15
Property: Viscosity, Pa*s (Liquid); method: CAPTUB:UFactor:8
Mass fraction of 1,3-dioxolane	Mass fraction of water	Viscosity, Pa*s	uncertainty
0	0.8046	0.32107	0.08086
0.0416	0.7711	0.27095	0.06208
0.0891	0.7329	0.20776	0.04021
0.1435	0.6891	0.17725	0.03053
0.2068	0.6382	0.15727	0.02457
0.2811	0.5784	0.13268	0.01769
0.3697	0.5072	0.10876	0.01159
0.4771	0.4207	0.09135	0.00757
0.6099	0.3138	0.07775	0.00474
0.7787	0.1781	0.06464	0.00231
1	0	0.05487	0.00072

System: 2-methylpropan-2-ol + 1,3-dioxolane + water; phases: Liquid
Fixed: Pressure, kPa = 101
Fixed: Temperature, K = 303.15
Property: Speed of sound, m/s (Liquid); method: FPINT:UFactor:64
Mass fraction of 1,3-dioxolane	Mass fraction of water	Speed of sound, m/s	uncertainty
0	0.8046	1352.8	43.4
0.0416	0.7711	1360.3	43.6
0.0891	0.7329	1353.8	43.5
0.1435	0.6891	1343.4	43.2
0.2068	0.6382	1348.9	43.4
0.2811	0.5784	1326.2	42.8
0.3697	0.5072	1327.5	42.8
0.4771	0.4207	1351.8	43.4
0.6099	0.3138	1347.5	43.3
0.7787	0.1781	1336.5	43
1	0	1288.5	41.9

System: 2-methylpropan-2-ol + 1,3-dioxolane + water; phases: Liquid
Fixed: Pressure, kPa = 101
Fixed: Temperature, K = 303.15
Property: Mass density, kg/m3 (Liquid); method: PYCNOM:UFactor:4
Mass fraction of 1,3-dioxolane	Mass fraction of water	Mass density, kg/m3	uncertainty
0	0.8046	895.1	0.9
0.0416	0.7711	908.7	0.9
0.0891	0.7329	924.1	0.9
0.1435	0.6891	939.6	1
0.2068	0.6382	954.2	1
0.2811	0.5784	969.8	1
0.3697	0.5072	985.2	1
0.4771	0.4207	1000.9	1
0.6099	0.3138	1017.7	1.1
0.7787	0.1781	1033.9	1.1
1	0	1051.8	1.1

System: 3-methylbutan-1-ol + 1,3-dioxolane + water; phases: Liquid
Fixed: Pressure, kPa = 101
Fixed: Temperature, K = 303.15
Property: Viscosity, Pa*s (Liquid); method: CAPTUB:UFactor:8
Mass fraction of 1,3-dioxolane	Mass fraction of water	Viscosity, Pa*s	uncertainty
0	0.8304	0.2571	0.0571
0.0429	0.7948	0.22058	0.04446
0.0916	0.7543	0.1945	0.03593
0.1475	0.7079	0.15617	0.02425
0.212	0.6544	0.13533	0.01841
0.2875	0.5917	0.11018	0.01193
0.3771	0.5173	0.09449	0.00827
0.4849	0.4277	0.08214	0.00562
0.6175	0.3177	0.07063	0.00338
0.7841	0.1793	0.06259	0.00196
1	0	0.05487	0.00072

System: 3-methylbutan-1-ol + 1,3-dioxolane + water; phases: Liquid
Fixed: Pressure, kPa = 101
Fixed: Temperature, K = 303.15
Property: Speed of sound, m/s (Liquid); method: FPINT:UFactor:64
Mass fraction of 1,3-dioxolane	Mass fraction of water	Speed of sound, m/s	uncertainty
0	0.8304	1369.5	43.9
0.0429	0.7948	1354.7	43.5
0.0916	0.7543	1361.6	43.7
0.1475	0.7079	1355.9	43.5
0.212	0.6544	1342.3	43.2
0.2875	0.5917	1339.5	43.1
0.3771	0.5173	1343.8	43.2
0.4849	0.4277	1356.4	43.5
0.6175	0.3177	1344.8	43.2
0.7841	0.1793	1332.1	42.9
1	0	1288.5	41.9

System: 3-methylbutan-1-ol + 1,3-dioxolane + water; phases: Liquid
Fixed: Pressure, kPa = 101
Fixed: Temperature, K = 303.15
Property: Mass density, kg/m3 (Liquid); method: PYCNOM:UFactor:4
Mass fraction of 1,3-dioxolane	Mass fraction of water	Mass density, kg/m3	uncertainty
0	0.8304	853.4	0.8
0.0429	0.7948	879.3	0.9
0.0916	0.7543	907.3	0.9
0.1475	0.7079	930.9	0.9
0.212	0.6544	958.2	1
0.2875	0.5917	974.2	1
0.3771	0.5173	989.4	1
0.4849	0.4277	1005.1	1
0.6175	0.3177	1020.7	1.1
0.7841	0.1793	1036.6	1.1
1	0	1051.8	1.1
