Measured thermophysical data. Measurement of VLE (TPx or TPxy data) for hydrogen sulfide + (dimethylsulfide or ethylmethylsulfide or carbon disulfide) and methane solubilities in (dimethylsulfide or ethylmethylsulfide or methylmercaptan or ethylmercaptan)
Source: Fluid Phase Equilib., 2007, 10.1016/j.fluid.2007.07.013
Compound 1: hydrogen sulfide, H2S, InChI=1S/H2S/h1H2
Compound 2: 2-thiapropane, C2H6S, InChI=1S/C2H6S/c1-3-2/h1-2H3
Compound 3: 2-thiabutane, C3H8S, InChI=1S/C3H8S/c1-3-4-2/h3H2,1-2H3
Compound 4: methanethiol, CH4S, InChI=1S/CH4S/c1-2/h2H,1H3
Compound 5: ethanethiol, C2H6S, InChI=1S/C2H6S/c1-2-3/h3H,2H2,1H3
Compound 6: carbon disulfide, CS2, InChI=1S/CS2/c2-1-3
Compound 7: methane, CH4, InChI=1S/CH4/h1H4

System: hydrogen sulfide; phases: Liquid, Gas
Property: Vapor or sublimation pressure, kPa (Liquid); method: CCELL:UFactor:4
Temperature, K	Vapor or sublimation pressure, kPa	uncertainty
273.08	1033	17
298.4	2024	26
323.5	3564	44
348.45	5812	72

System: 2-thiapropane; phases: Liquid, Gas
Property: Vapor or sublimation pressure, kPa (Liquid); method: CCELL:UFactor:4
Temperature, K	Vapor or sublimation pressure, kPa	uncertainty
252.89	8	12
253.06	8	12
272.76	22	12
278.46	29	12
293.16	53	12
293.43	54	12
313.3	112	12
313.43	112	12

System: 2-thiabutane; phases: Liquid, Gas
Property: Vapor or sublimation pressure, kPa (Liquid); method: CCELL:UFactor:4
Temperature, K	Vapor or sublimation pressure, kPa	uncertainty
247.76	1	12
272.96	6	12
293.23	17	12
293.41	17	12
313.33	40	12
313.35	40	12

System: methanethiol; phases: Liquid, Gas
Property: Vapor or sublimation pressure, kPa (Liquid); method: CCELL:UFactor:4
Temperature, K	Vapor or sublimation pressure, kPa	uncertainty
243.19	20	12
258	42	12
272.98	80	12
293.35	170	12
298.23	200	12

System: ethanethiol; phases: Liquid, Gas
Property: Vapor or sublimation pressure, kPa (Liquid); method: CCELL:UFactor:4
Temperature, K	Vapor or sublimation pressure, kPa	uncertainty
272.94	25	12
293.36	59	12
313.41	121	12

System: carbon disulfide; phases: Liquid, Gas
Property: Vapor or sublimation pressure, kPa (Liquid); method: CCELL:UFactor:4
Temperature, K	Vapor or sublimation pressure, kPa	uncertainty
273.08	17	12
298.4	49	12
323.5	116	12
348.45	240	12

System: 2-thiabutane + hydrogen sulfide; phases: Liquid, Gas
Property: Vapor or sublimation pressure, kPa (Liquid); method: CCELL:UFactor:4
Temperature, K	Mole fraction of hydrogen sulfide	Vapor or sublimation pressure, kPa	uncertainty
293.23	0	17	12
293.23	0.0483	67	12
293.23	0.0987	123	12
293.23	0.149	182	12
293.23	0.2094	257	12
293.23	0.2781	351	13
293.23	0.3546	465	13
293.23	0.4201	571	14
293.23	0.4917	698	14
293.23	0.5663	842	15
293.23	0.6223	957	16
293.23	0.6654	1050	17
293.23	0.7012	1130	18
293.23	0.7295	1194	18
293.23	0.7525	1247	19
293.23	0.7727	1293	19
293.23	0.7907	1335	19
293.23	0.8061	1370	20
293.23	0.8215	1406	20
293.23	0.8373	1442	20
293.23	0.8487	1467	21
293.23	0.8617	1497	21
293.23	0.8743	1524	21
293.23	0.8853	1548	21
293.23	0.8974	1574	22
313.33	0	40	12
313.33	0.0653	149	12
313.33	0.1253	257	12
313.33	0.1845	371	13
313.33	0.2358	477	13
313.33	0.2852	584	14
313.33	0.3322	693	14
313.33	0.3842	821	15
313.33	0.4285	936	16
313.33	0.4705	1050	17
313.33	0.5083	1158	18
313.33	0.5442	1265	19
313.33	0.5728	1353	20
313.33	0.6044	1454	21
313.33	0.6558	1624	22
313.33	0.6931	1752	23
313.33	0.7251	1865	24
313.33	0.7508	1957	25
313.33	0.7784	2057	26
313.33	0.8007	2139	27
313.33	0.823	2221	28
313.33	0.8444	2300	29
313.33	0.8658	2379	30
313.33	0.8867	2456	31
313.33	0.9031	2517	31

System: carbon disulfide + hydrogen sulfide; phases: Liquid, Gas
Property: Vapor or sublimation pressure, kPa (Liquid); method: CCELL:UFactor:4
Mole fraction of hydrogen sulfide	Temperature, K	Vapor or sublimation pressure, kPa	uncertainty
0	273.08	17	12
0	298.4	49	12
0	323.5	116	12
0	348.45	240	12
0.1754	348.45	1418	20
0.1919	298.4	710	15
0.2145	348.45	1655	22
0.2172	323.5	1124	18
0.2821	298.4	869	16
0.2893	348.45	2066	27
0.2982	323.5	1393	20
0.463	298.4	1227	19
0.5541	298.4	1309	19
0.5556	323.5	2173	28
0.5953	348.45	3527	44
0.5957	323.5	2296	29
0.6038	298.4	1379	20
0.6207	273.08	747	15
0.7451	348.45	4291	54
0.7603	323.5	2723	34
0.7655	298.4	1605	22
0.9502	348.45	5442	68
0.9528	323.5	3366	42
0.9563	298.4	1934	25
1	273.08	1033	17
1	298.4	2024	26
1	323.5	3564	44
1	348.45	5812	72

System: carbon disulfide + hydrogen sulfide; phases: Gas, Liquid
Property: Mole fraction of hydrogen sulfide (Gas); method: Chromatography
Temperature, K	Pressure, kPa	Mole fraction of hydrogen sulfide	uncertainty
273.08	345	0.946	0.003
273.08	401	0.9596	0.0017
273.08	487	0.9658	0.001
298.4	423	0.8758	0.0025
298.4	468	0.8817	0.0043
298.4	511	0.9043	0.0044
298.4	607	0.9211	0.0024
323.5	527	0.7603	0.0065
323.5	669	0.8241	0.0046
323.5	805	0.8473	0.0033
323.5	959	0.8808	0.0032
348.45	801	0.5965	0.0101
348.45	998	0.7311	0.0072
348.45	1194	0.7914	0.0049

System: carbon disulfide + hydrogen sulfide; phases: Gas, Liquid
Property: Mole fraction of hydrogen sulfide (Gas); method: Chromatography
Mole fraction of hydrogen sulfide	Temperature, K	Mole fraction of hydrogen sulfide	uncertainty
0	273.08	0	0.0001
0	298.4	0	0.0001
0	323.5	0	0.0001
0	348.45	0	0.0001
0.1754	348.45	0.8285	0.0026
0.1919	298.4	0.9368	0.001
0.2145	348.45	0.857	0.002
0.2172	323.5	0.9011	0.0015
0.2821	298.4	0.9488	0.0008
0.2893	348.45	0.8837	0.0018
0.2982	323.5	0.9167	0.0013
0.5957	323.5	0.9566	0.0007
0.6038	298.4	0.9722	0.0004
0.6207	273.08	0.9821	0.0003
0.7451	348.45	0.9419	0.0009
0.7603	323.5	0.9714	0.0005
0.7655	298.4	0.9818	0.0003
0.9502	348.45	0.9752	0.0004
0.9528	323.5	0.9945	0.0001
0.9563	298.4	0.9979	0.0001
1	273.08	1	0.0001
1	298.4	1	0.0001
1	323.5	1	0.0001
1	348.45	1	0.0001

System: methane + 2-thiapropane; phases: Liquid, Gas
Property: Vapor or sublimation pressure, kPa (Liquid); method: CCELL:UFactor:4
Temperature, K	Mole fraction of methane	Vapor or sublimation pressure, kPa	uncertainty
252.89	0	8	12
252.89	0.002	87	12
252.89	0.0055	230	12
252.89	0.0112	457	13
252.89	0.0177	721	15
252.89	0.0256	1040	17
252.89	0.0373	1516	21
252.89	0.0494	2008	26
252.89	0.0612	2495	31
252.89	0.1165	4816	60
252.89	0.1503	6301	79
252.89	0.165	6963	87
252.89	0.1843	7865	98
252.89	0.2002	8630	108
252.89	0.2136	9293	116
252.89	0.2222	9730	122
252.89	0.229	10088	126
253.06	0	8	12
253.06	0.0034	142	12
253.06	0.0074	299	13
253.06	0.0115	462	13
253.06	0.0193	770	15
253.06	0.0326	1300	19
253.06	0.0471	1879	25
253.06	0.0858	3460	43
253.06	0.0977	3954	50
253.06	0.1206	4925	62
253.06	0.134	5503	69
253.06	0.1471	6082	76
253.06	0.1578	6562	82
253.06	0.1681	7029	88
253.06	0.1786	7516	94
253.06	0.1899	8051	101
253.06	0.2006	8573	108
253.06	0.2118	9131	114
253.06	0.2207	9582	120
253.06	0.235	10336	129
272.76	0	22	12
272.76	0.0031	156	12
272.76	0.0051	246	12
272.76	0.01	461	13
272.76	0.0102	469	13
272.76	0.0163	737	15
272.76	0.0206	927	16
272.76	0.0224	1008	17
272.76	0.0323	1445	21
272.76	0.0327	1462	21
272.76	0.0429	1917	25
272.76	0.0471	2102	27
272.76	0.0569	2544	32
272.76	0.0683	3057	38
272.76	0.0794	3557	45
272.76	0.0906	4068	51
272.76	0.101	4546	57
272.76	0.1112	5016	63
272.76	0.1124	5072	64
272.76	0.122	5521	69
272.76	0.1327	6023	75
272.76	0.1428	6502	81
272.76	0.1529	6982	87
272.76	0.163	7469	93
272.76	0.164	7520	94
272.76	0.1728	7947	99
272.76	0.1843	8515	107
272.76	0.1926	8932	112
272.76	0.1932	8960	112
272.76	0.2025	9429	118
272.76	0.2118	9901	124
272.76	0.2175	10195	127
293.16	0	53	12
293.16	0.0102	528	13
293.16	0.021	1039	17
293.16	0.0331	1607	22
293.16	0.0484	2330	29
293.16	0.0643	3086	39
293.16	0.0744	3572	45
293.16	0.0833	4001	50
293.16	0.0958	4601	58
293.16	0.1046	5027	63
293.16	0.1155	5557	70
293.16	0.1216	5856	73
293.16	0.1361	6565	82
293.16	0.1458	7047	88
293.16	0.1557	7534	94
293.16	0.1713	8316	104
293.16	0.182	8854	111
293.16	0.1922	9368	117
293.16	0.2044	9986	125
313.3	0	112	12
313.3	0.0039	304	13
313.3	0.0133	770	15
313.3	0.0271	1454	21
313.3	0.0389	2042	26
313.3	0.0569	2931	37
313.3	0.0683	3497	44
313.3	0.0875	4448	56
313.3	0.0997	5054	63
313.3	0.1097	5550	70
313.3	0.1221	6168	77
313.3	0.1366	6884	87
313.3	0.1468	7391	93
313.3	0.1692	8504	107
313.3	0.1805	9061	113
313.3	0.1915	9608	120
313.3	0.2002	10037	126
313.43	0	112	12
313.43	0.0086	529	13
313.43	0.0157	876	16
313.43	0.0221	1186	18
313.43	0.0275	1452	21
313.43	0.0367	1900	25
313.43	0.0466	2384	30
313.43	0.055	2797	35
313.43	0.0649	3281	41
313.43	0.0746	3757	47
313.43	0.0899	4511	57
313.43	0.1011	5065	64
313.43	0.1125	5630	71
313.43	0.1242	6206	78
313.43	0.1366	6826	86
313.43	0.1491	7448	93
313.43	0.1596	7970	100
313.43	0.1697	8473	106
313.43	0.1799	8985	112
313.43	0.1911	9543	120
313.43	0.2016	10072	126

System: methane + 2-thiapropane; phases: Liquid, Gas
Fixed: Temperature, K = 313.16
Property: Vapor or sublimation pressure, kPa (Liquid); method: CCELL:UFactor:8
Mole fraction of methane	Vapor or sublimation pressure, kPa	uncertainty
0.0055	340	14
0.0089	500	17
0.019	1004	26
0.03	1500	37
0.041	2003	50
0.0623	2996	75
0.084	4006	100
0.1047	5003	125
0.1258	6011	150
0.1434	7004	174
0.1676	8010	199
0.1844	9004	224
0.2054	10002	249
0.2264	11010	274
0.2472	12000	298

System: methane + 2-thiapropane; phases: Gas, Liquid
Fixed: Temperature, K = 313.16
Property: Mole fraction of methane (Gas); method: Chromatography
Mole fraction of methane	Mole fraction of methane	uncertainty
0.0055	0.6552	0.0045
0.0089	0.7502	0.0032
0.019	0.8729	0.0016
0.03	0.908	0.0011
0.041	0.9284	0.0009
0.0623	0.9463	0.0007
0.084	0.9539	0.0006
0.1047	0.9582	0.0005
0.1258	0.9603	0.0005
0.1434	0.9615	0.0005
0.1676	0.9612	0.0005
0.1844	0.9606	0.0005
0.2054	0.9591	0.0005
0.2264	0.9572	0.0005
0.2472	0.955	0.0005

System: methane + 2-thiabutane; phases: Liquid, Gas
Property: Vapor or sublimation pressure, kPa (Liquid); method: CCELL:UFactor:4
Temperature, K	Mole fraction of methane	Vapor or sublimation pressure, kPa	uncertainty
247.76	0	1	12
247.76	0.0035	115	12
247.76	0.0111	366	13
247.76	0.0215	710	15
247.76	0.0308	1021	17
247.76	0.0442	1472	21
247.76	0.0571	1913	25
247.76	0.0725	2442	31
247.76	0.0861	2918	37
247.76	0.0995	3396	43
247.76	0.1212	4184	52
247.76	0.159	5618	70
247.76	0.1851	6668	83
247.76	0.2098	7721	97
247.76	0.2289	8584	107
247.76	0.2527	9735	122
272.96	0	6	12
272.96	0.0019	82	12
272.96	0.0054	218	12
272.96	0.0111	445	13
272.96	0.0226	900	16
272.96	0.0347	1381	20
272.96	0.0471	1876	25
272.96	0.0603	2404	30
272.96	0.0947	3796	48
272.96	0.1339	5410	68
272.96	0.1452	5882	74
272.96	0.1805	7379	92
272.96	0.1949	8001	100
272.96	0.2061	8490	106
272.96	0.238	9908	124
272.96	0.2586	10844	135
272.96	0.2756	11632	145
293.41	0	17	12
293.41	0.0039	179	12
293.41	0.0072	315	13
293.41	0.0119	508	13
293.41	0.0278	1171	18
293.41	0.0391	1646	22
293.41	0.05	2103	27
293.41	0.066	2784	35
293.41	0.078	3293	41
293.41	0.0911	3857	48
293.41	0.1039	4412	55
293.41	0.1143	4865	61
293.41	0.126	5380	67
293.41	0.1382	5917	74
293.41	0.149	6398	80
293.41	0.1596	6873	86
293.41	0.1712	7400	93
293.41	0.1843	7996	100
293.41	0.1987	8656	108
293.41	0.2107	9214	115
293.41	0.2228	9779	122
293.41	0.2347	10342	129
313.35	0	40	12
313.35	0.0077	379	13
313.35	0.0191	882	16
313.35	0.0374	1694	23
313.35	0.0459	2073	27
313.35	0.0581	2619	33
313.35	0.0668	3007	38
313.35	0.0774	3484	44
313.35	0.0883	3975	50
313.35	0.1037	4667	59
313.35	0.1136	5118	64
313.35	0.122	5499	69
313.35	0.1361	6141	77
313.35	0.1483	6700	84
313.35	0.1578	7137	89
313.35	0.1666	7545	94
313.35	0.1818	8244	103
313.35	0.193	8767	110
313.35	0.2008	9130	114
313.35	0.2118	9643	121
313.35	0.2186	9957	124
313.35	0.2282	10408	130

System: methane + methanethiol; phases: Liquid, Gas
Property: Vapor or sublimation pressure, kPa (Liquid); method: CCELL:UFactor:4
Temperature, K	Mole fraction of methane	Vapor or sublimation pressure, kPa	uncertainty
243.19	0	20	12
243.19	0.0014	98	12
243.19	0.005	300	13
243.19	0.0107	623	14
243.19	0.0187	1074	17
243.19	0.0285	1629	22
243.19	0.0358	2046	26
243.19	0.0456	2606	32
243.19	0.0561	3207	40
243.19	0.0651	3733	46
243.19	0.0757	4361	54
243.19	0.0826	4777	59
243.19	0.1007	5890	73
243.19	0.1107	6536	81
243.19	0.118	7015	87
243.19	0.126	7562	94
243.19	0.1349	8195	102
258	0	42	12
258	0.0019	159	12
258	0.0053	368	13
258	0.0112	732	15
258	0.0183	1171	18
258	0.0258	1625	22
258	0.0326	2045	26
258	0.0661	4091	51
258	0.0733	4531	56
258	0.1002	6189	77
258	0.1115	6902	86
258	0.1211	7510	93
258	0.1292	8037	100
272.98	0	80	12
272.98	0.0018	189	12
272.98	0.0064	477	13
272.98	0.0114	786	15
272.98	0.0173	1152	18
272.98	0.0224	1466	21
272.98	0.0301	1940	25
272.98	0.0384	2456	31
272.98	0.0475	3016	38
272.98	0.0563	3558	44
272.98	0.0645	4060	51
272.98	0.0728	4571	57
272.98	0.0804	5041	63
272.98	0.0877	5489	68
272.98	0.0965	6032	75
272.98	0.1043	6518	81
272.98	0.1119	6992	87
272.98	0.1203	7516	93
293.35	0	170	12
293.35	0.0066	596	14
293.35	0.0124	965	16
293.35	0.0186	1366	20
293.35	0.0275	1927	25
293.35	0.0357	2449	31
293.35	0.0472	3174	40
293.35	0.0541	3607	45
293.35	0.0616	4081	51
293.35	0.0699	4596	57
293.35	0.0775	5070	63
293.35	0.0978	6330	79
293.35	0.106	6833	85
293.35	0.1175	7537	94
293.35	0.1248	7988	99
298.23	0	200	12
298.23	0.0014	292	12
298.23	0.0025	364	13
298.23	0.0038	443	13
298.23	0.0047	501	13
298.23	0.0088	768	15
298.23	0.0142	1110	17
298.23	0.0298	2093	27
298.23	0.0515	3425	43
298.23	0.0766	4932	61
298.23	0.1062	6660	83

System: methane + ethanethiol; phases: Liquid, Gas
Property: Vapor or sublimation pressure, kPa (Liquid); method: CCELL:UFactor:4
Temperature, K	Mole fraction of methane	Vapor or sublimation pressure, kPa	uncertainty
272.94	0	25	12
272.94	0.0017	92	12
272.94	0.0049	220	12
272.94	0.0132	553	14
272.94	0.0188	780	15
272.94	0.0248	1025	17
272.94	0.0373	1537	21
272.94	0.0484	2004	26
272.94	0.0607	2520	32
272.94	0.0712	2973	37
272.94	0.0841	3536	44
272.94	0.095	4017	50
272.94	0.1476	6465	81
272.94	0.1578	6966	87
272.94	0.1673	7439	93
272.94	0.1965	8962	112
272.94	0.2039	9359	117
272.94	0.2109	9744	122
272.94	0.222	10370	130
272.94	0.2278	10705	134
293.36	0	59	12
293.36	0.0011	113	12
293.36	0.0036	234	12
293.36	0.0274	1397	20
293.36	0.0362	1823	24
293.36	0.0514	2563	32
293.36	0.0599	2974	37
293.36	0.0712	3517	44
293.36	0.0862	4244	53
293.36	0.0972	4772	60
293.36	0.1112	5444	68
293.36	0.1249	6104	76
293.36	0.1333	6505	81
293.36	0.1442	7027	88
293.36	0.1534	7467	93
293.36	0.1635	7951	100
293.36	0.175	8502	106
293.36	0.1874	9092	114
293.36	0.1968	9540	119
293.36	0.2065	10006	125
293.36	0.2221	10745	134
313.41	0	121	12
313.41	0.0027	251	12
313.41	0.0117	685	14
313.41	0.0188	1032	17
313.41	0.0289	1519	21
313.41	0.0398	2049	26
313.41	0.0518	2634	33
313.41	0.0622	3146	40
313.41	0.0731	3678	46
313.41	0.0826	4146	52
313.41	0.0915	4585	58
313.41	0.1013	5065	64
313.41	0.1124	5617	70
313.41	0.1242	6200	78
313.41	0.1333	6653	83
313.41	0.1414	7058	88
313.41	0.1503	7503	94
313.41	0.1657	8272	104
313.41	0.1791	8941	112
313.41	0.194	9694	121
313.41	0.2068	10337	129

System: 2-thiapropane + hydrogen sulfide; phases: Liquid, Gas
Property: Vapor or sublimation pressure, kPa (Liquid); method: CCELL:UFactor:4
Temperature, K	Mole fraction of hydrogen sulfide	Vapor or sublimation pressure, kPa	uncertainty
278.46	0	29	12
278.46	0.0486	63	12
278.46	0.0963	98	12
278.46	0.1517	142	12
278.46	0.2062	188	12
278.46	0.2619	238	12
278.46	0.3155	290	12
278.46	0.4382	422	13
278.46	0.5309	535	14
278.46	0.5926	617	14
278.46	0.6445	690	14
278.46	0.6834	748	15
278.46	0.7151	796	15
278.46	0.7401	834	15
278.46	0.7667	876	16
278.46	0.803	933	16
278.46	0.8239	965	16
278.46	0.8385	988	16
278.46	0.8515	1008	17
278.46	0.8628	1025	17
278.46	0.8729	1039	17
278.46	0.8825	1054	17
278.46	0.8924	1068	17
278.46	0.8989	1077	17
293.43	0	54	12
293.43	0.2527	368	13
293.43	0.2645	385	13
293.43	0.2769	402	13
293.43	0.2921	424	13
293.43	0.3452	504	13
293.43	0.3697	542	14
293.43	0.3986	588	14
293.43	0.4324	644	14
293.43	0.4776	721	15
293.43	0.5293	813	15
293.43	0.5658	880	16
293.43	0.6084	961	16
293.43	0.656	1055	17
293.43	0.7189	1183	18
293.43	0.767	1285	19
293.43	0.8263	1413	20
293.43	0.8874	1547	21

System: 2-thiapropane + hydrogen sulfide; phases: Liquid, Gas
Property: Vapor or sublimation pressure, kPa (Liquid); method: CCELL:UFactor:8
Mole fraction of hydrogen sulfide	Temperature, K	Vapor or sublimation pressure, kPa	uncertainty
0.074	333.2	383	12
0.1461	313.22	352	11
0.2378	333.2	804	26
0.2668	293.41	349	11
0.2726	313.22	588	19
0.3646	333.2	1194	38
0.3862	293.41	510	17
0.4159	313.22	905	29
0.4822	333.2	1614	52
0.5149	293.41	725	23
0.5222	313.22	1187	38
0.5526	333.2	1911	61
0.573	333.2	1992	64
0.6003	293.41	900	29
0.6174	313.22	1468	47
0.6478	313.22	1561	50
0.6639	333.2	2389	77
0.7011	293.41	1120	36
0.7192	313.22	1790	57
0.7376	333.2	2789	89
0.7787	293.41	1297	42
0.7926	313.22	2061	66
0.8167	333.2	3191	102
0.8487	293.41	1460	47
0.8777	333.2	3600	115
0.9143	313.22	2527	81
0.9178	293.41	1627	52
0.9184	333.2	3798	122
0.9421	293.41	1700	55
0.9429	313.22	2667	86
0.9477	333.2	4045	130

System: 2-thiapropane + hydrogen sulfide; phases: Gas, Liquid
Property: Mole fraction of 2-thiapropane (Gas); method: Chromatography
Mole fraction of hydrogen sulfide	Temperature, K	Mole fraction of 2-thiapropane	uncertainty
0.074	333.2	0.4714	0.0065
0.1461	313.22	0.7257	0.0048
0.2378	333.2	0.7806	0.004
0.2668	293.41	0.879	0.003
0.2726	313.22	0.855	0.003
0.3646	333.2	0.864	0.003
0.3862	293.41	0.9253	0.0016
0.4159	313.22	0.918	0.002
0.4822	333.2	0.9106	0.0019
0.5149	293.41	0.9559	0.001
0.5222	313.22	0.9447	0.0012
0.573	333.2	0.9318	0.0015
0.6003	293.41	0.968	0.001
0.6174	313.22	0.9631	0.0008
0.6639	333.2	0.9555	0.001
0.7011	293.41	0.9808	0.0004
0.7192	313.22	0.9763	0.0005
0.7376	333.2	0.9645	0.0008
0.7787	293.41	0.987	0.001
0.7926	313.22	0.9838	0.0004
0.8167	333.2	0.9781	0.0005
0.8487	293.41	0.9926	0.0002
0.8777	333.2	0.984	0.001
0.9143	313.22	0.9936	0.0002
0.9178	293.41	0.996	0.001
0.9184	333.2	0.9902	0.0002
0.9477	333.2	0.993	0.001

System: 2-thiapropane + hydrogen sulfide; phases: Gas, Liquid
Property: Mole fraction of hydrogen sulfide (Gas); method: Chromatography
Temperature, K	Pressure, kPa	Mole fraction of hydrogen sulfide	uncertainty
313.22	303	0.6678	0.005
333.2	340	0.4097	0.0161
333.2	501	0.6115	0.0161
